=
 OpenBabel11052418223D

 27 31  0  0  1  0  0  0  0  0999 V2000
  186.3100  176.9920  141.6670 N   0  0  0  0  0  0  0  0  0  0  0  0
  187.9570  175.5810  142.6510 N   0  0  0  0  0  2  0  0  0  0  0  0
  185.6080  179.0150  145.2840 C   0  0  0  0  0  3  0  0  0  0  0  0
  185.9490  179.2440  147.7530 C   0  0  0  0  0  1  0  0  0  0  0  0
  185.2020  177.9540  141.6810 C   0  0  0  0  0  2  0  0  0  0  0  0
  187.2050  176.7140  145.2330 C   0  0  0  0  0  3  0  0  0  0  0  0
  186.9730  177.3810  146.4420 C   0  0  0  0  0  3  0  0  0  0  0  0
  186.9270  176.5760  142.7390 C   0  0  0  0  0  0  0  0  0  0  0  0
  186.1810  178.5340  146.4670 C   0  0  0  0  0  0  0  0  0  0  0  0
  185.8230  178.3360  144.0800 C   0  0  0  0  0  0  0  0  0  0  0  0
  188.1010  175.4310  140.3150 O   0  0  0  0  0  0  0  0  0  0  0  0
  186.6290  177.1920  144.0480 C   0  0  0  0  0  0  0  0  0  0  0  0
  185.2630  178.8220  142.8590 N   0  0  0  0  0  2  0  0  0  0  0  0
  188.4870  175.0160  141.4430 C   0  0  0  0  0  0  0  0  0  0  0  0
  190.9380  174.4140  141.4860 C   0  0  0  0  0  1  0  0  0  0  0  0
  189.4970  173.9040  141.5030 C   0  0  1  0  0  3  0  0  0  0  0  0
  189.1810  171.6280  142.2130 O   0  0  0  0  0  1  0  0  0  0  0  0
  189.2270  172.9470  142.6750 C   0  0  1  0  0  3  0  0  0  0  0  0
  189.7480  172.3310  145.0340 C   0  0  0  0  0  2  0  0  0  0  0  0
  189.6230  173.8440  144.9610 C   0  0  2  0  0  3  0  0  0  0  0  0
  190.2530  173.0690  143.8030 C   0  0  2  0  0  3  0  0  0  0  0  0
  190.3850  177.2390  147.0640 O   0  0  0  0  0  0  0  0  0  0  0  0
  190.6310  174.4800  145.9290 C   0  0  2  0  0  3  0  0  0  0  0  0
  189.9220  174.8920  147.2020 C   0  0  0  0  0  2  0  0  0  0  0  0
  190.7130  176.0610  147.7680 C   0  0  1  0  0  3  0  0  0  0  0  0
  191.5750  176.5910  146.6780 C   0  0  1  0  0  3  0  0  0  0  0  0
  191.3170  175.7480  145.4390 C   0  0  0  0  0  2  0  0  0  0  0  0
  1  5  1  0  0  0  0
  1  8  2  0  0  0  0
  2  8  1  0  0  0  0
  3  9  1  0  0  0  0
  5 13  1  0  0  0  0
  6  7  1  0  0  0  0
  7  9  2  0  0  0  0
  8 12  1  0  0  0  0
  9  4  1  0  0  0  0
 10  3  2  0  0  0  0
 11 14  2  0  0  0  0
 12 10  1  0  0  0  0
 12  6  2  0  0  0  0
 13 10  1  0  0  0  0
 14 16  1  0  0  0  0
 14  2  1  0  0  0  0
 16 15  1  1  0  0  0
 16 18  1  0  0  0  0
 18 17  1  6  0  0  0
 20 19  1  1  0  0  0
 20 23  1  0  0  0  0
 21 18  1  6  0  0  0
 21 20  1  0  0  0  0
 21 19  1  0  0  0  0
 22 25  1  0  0  0  0
 23 27  1  6  0  0  0
 23 24  1  0  0  0  0
 25 24  1  6  0  0  0
 26 27  1  6  0  0  0
 26 22  1  0  0  0  0
 26 25  1  0  0  0  0
M  END
>  <MODEL>
1

>  <REMARK>
 VINA RESULT:      -7.5      0.000      0.000
  Name = 
  4 active torsions:
  status: ('A' for Active; 'I' for Inactive)
    1  A    between atoms: C_9  and  C_15
    2  A    between atoms: C_20  and  C_22
    3  A    between atoms: C_20  and  C_26
    4  A    between atoms: C_22  and  C_24
                            x       y       z     vdW  Elec       q    Type
                         _______ _______ _______ _____ _____    ______ ____

>  <TORSDO>
F 4

$$$$
=
 OpenBabel11052418223D

 27 31  0  0  1  0  0  0  0  0999 V2000
  192.4640  175.3590  143.4030 N   0  0  0  0  0  0  0  0  0  0  0  0
  190.0920  175.5580  143.3330 N   0  0  0  0  0  2  0  0  0  0  0  0
  192.6470  176.6580  147.3960 C   0  0  0  0  0  3  0  0  0  0  0  0
  191.5440  177.6240  149.4240 C   0  0  0  0  0  1  0  0  0  0  0  0
  193.8020  175.5770  143.9660 C   0  0  0  0  0  2  0  0  0  0  0  0
  190.2460  176.8160  145.9620 C   0  0  0  0  0  3  0  0  0  0  0  0
  190.3000  177.2540  147.2900 C   0  0  0  0  0  3  0  0  0  0  0  0
  191.3600  175.7460  143.9790 C   0  0  0  0  0  0  0  0  0  0  0  0
  191.4970  177.1690  148.0090 C   0  0  0  0  0  0  0  0  0  0  0  0
  192.5970  176.2400  146.0620 C   0  0  0  0  0  0  0  0  0  0  0  0
  190.8200  174.3020  141.4920 O   0  0  0  0  0  0  0  0  0  0  0  0
  191.3970  176.3080  145.3440 C   0  0  0  0  0  0  0  0  0  0  0  0
  193.7550  175.6970  145.4240 N   0  0  0  0  0  2  0  0  0  0  0  0
  189.8680  174.8710  142.0930 C   0  0  0  0  0  0  0  0  0  0  0  0
  187.6830  173.6180  141.9180 C   0  0  0  0  0  1  0  0  0  0  0  0
  188.4950  174.8370  141.4810 C   0  0  1  0  0  3  0  0  0  0  0  0
  187.2790  176.6500  140.4740 O   0  0  0  0  0  1  0  0  0  0  0  0
  187.7370  176.1560  141.6990 C   0  0  1  0  0  3  0  0  0  0  0  0
  185.6740  177.2520  142.5700 C   0  0  0  0  0  2  0  0  0  0  0  0
  186.6690  177.1470  143.7140 C   0  0  2  0  0  3  0  0  0  0  0  0
  186.5700  176.0270  142.6780 C   0  0  2  0  0  3  0  0  0  0  0  0
  185.6170  178.8550  147.2510 O   0  0  0  0  0  0  0  0  0  0  0  0
  185.9070  176.8800  145.0210 C   0  0  2  0  0  3  0  0  0  0  0  0
  184.8190  177.9160  145.1960 C   0  0  0  0  0  2  0  0  0  0  0  0
  184.5990  178.0510  146.6950 C   0  0  1  0  0  3  0  0  0  0  0  0
  185.7800  177.4610  147.3770 C   0  0  1  0  0  3  0  0  0  0  0  0
  186.7290  176.9600  146.3000 C   0  0  0  0  0  2  0  0  0  0  0  0
  1  5  1  0  0  0  0
  1  8  2  0  0  0  0
  2  8  1  0  0  0  0
  3  9  1  0  0  0  0
  5 13  1  0  0  0  0
  6  7  1  0  0  0  0
  7  9  2  0  0  0  0
  8 12  1  0  0  0  0
  9  4  1  0  0  0  0
 10  3  2  0  0  0  0
 11 14  2  0  0  0  0
 12  6  2  0  0  0  0
 12 10  1  0  0  0  0
 13 10  1  0  0  0  0
 14  2  1  0  0  0  0
 16 18  1  0  0  0  0
 16 15  1  1  0  0  0
 16 14  1  0  0  0  0
 18 17  1  6  0  0  0
 19 21  1  0  0  0  0
 20 19  1  6  0  0  0
 20 23  1  0  0  0  0
 21 18  1  6  0  0  0
 21 20  1  0  0  0  0
 22 26  1  0  0  0  0
 23 24  1  1  0  0  0
 23 27  1  0  0  0  0
 25 24  1  6  0  0  0
 25 22  1  0  0  0  0
 25 26  1  0  0  0  0
 26 27  1  6  0  0  0
M  END
>  <MODEL>
2

>  <REMARK>
 VINA RESULT:      -7.4      2.423      5.545
  Name = 
  4 active torsions:
  status: ('A' for Active; 'I' for Inactive)
    1  A    between atoms: C_9  and  C_15
    2  A    between atoms: C_20  and  C_22
    3  A    between atoms: C_20  and  C_26
    4  A    between atoms: C_22  and  C_24
                            x       y       z     vdW  Elec       q    Type
                         _______ _______ _______ _____ _____    ______ ____

>  <TORSDO>
F 4

$$$$
=
 OpenBabel11052418223D

 27 31  0  0  1  0  0  0  0  0999 V2000
  189.6430  177.4960  143.0130 N   0  0  0  0  0  0  0  0  0  0  0  0
  190.3690  177.0140  145.2290 N   0  0  0  0  0  2  0  0  0  0  0  0
  185.7640  178.4860  144.2960 C   0  0  0  0  0  3  0  0  0  0  0  0
  184.0240  178.5890  146.0910 C   0  0  0  0  0  1  0  0  0  0  0  0
  188.6480  177.7600  141.9660 C   0  0  0  0  0  2  0  0  0  0  0  0
  187.5930  177.3270  146.0730 C   0  0  0  0  0  3  0  0  0  0  0  0
  186.3020  177.6510  146.5060 C   0  0  0  0  0  3  0  0  0  0  0  0
  189.3480  177.3370  144.2730 C   0  0  0  0  0  0  0  0  0  0  0  0
  185.3900  178.2360  145.6210 C   0  0  0  0  0  0  0  0  0  0  0  0
  187.0480  178.1430  143.8570 C   0  0  0  0  0  0  0  0  0  0  0  0
  192.2370  177.2090  143.8240 O   0  0  0  0  0  0  0  0  0  0  0  0
  187.9680  177.5730  144.7450 C   0  0  0  0  0  0  0  0  0  0  0  0
  187.4550  178.4080  142.5130 N   0  0  0  0  0  2  0  0  0  0  0  0
  191.7770  176.9270  144.9650 C   0  0  0  0  0  0  0  0  0  0  0  0
  192.0130  176.1380  147.3520 C   0  0  0  0  0  1  0  0  0  0  0  0
  192.7250  176.4780  146.0420 C   0  0  1  0  0  3  0  0  0  0  0  0
  194.8280  175.3420  146.3040 O   0  0  0  0  0  1  0  0  0  0  0  0
  193.6440  175.3430  145.5620 C   0  0  1  0  0  3  0  0  0  0  0  0
  193.8270  172.9590  144.8560 C   0  0  0  0  0  2  0  0  0  0  0  0
  192.5790  173.5440  144.2140 C   0  0  2  0  0  3  0  0  0  0  0  0
  192.9850  173.9650  145.6270 C   0  0  2  0  0  3  0  0  0  0  0  0
  189.4670  172.2090  141.9640 O   0  0  0  0  0  0  0  0  0  0  0  0
  191.4890  172.4630  144.1560 C   0  0  2  0  0  3  0  0  0  0  0  0
  191.6210  171.6780  142.8700 C   0  0  0  0  0  2  0  0  0  0  0  0
  190.2270  171.1680  142.5390 C   0  0  1  0  0  3  0  0  0  0  0  0
  189.2570  171.9650  143.3360 C   0  0  1  0  0  3  0  0  0  0  0  0
  190.0520  172.9660  144.1590 C   0  0  0  0  0  2  0  0  0  0  0  0
  1  8  2  0  0  0  0
  3  9  1  0  0  0  0
  5 13  1  0  0  0  0
  5  1  1  0  0  0  0
  6  7  1  0  0  0  0
  8 12  1  0  0  0  0
  8  2  1  0  0  0  0
  9  4  1  0  0  0  0
  9  7  2  0  0  0  0
 10  3  2  0  0  0  0
 10 12  1  0  0  0  0
 11 14  2  0  0  0  0
 12  6  2  0  0  0  0
 13 10  1  0  0  0  0
 14  2  1  0  0  0  0
 14 16  1  0  0  0  0
 16 15  1  1  0  0  0
 18 16  1  0  0  0  0
 18 17  1  1  0  0  0
 19 21  1  0  0  0  0
 20 19  1  1  0  0  0
 20 21  1  0  0  0  0
 21 18  1  6  0  0  0
 22 25  1  0  0  0  0
 22 26  1  0  0  0  0
 23 24  1  6  0  0  0
 23 27  1  0  0  0  0
 23 20  1  0  0  0  0
 25 24  1  1  0  0  0
 25 26  1  0  0  0  0
 26 27  1  1  0  0  0
M  END
>  <MODEL>
3

>  <REMARK>
 VINA RESULT:      -7.2      2.195      4.435
  Name = 
  4 active torsions:
  status: ('A' for Active; 'I' for Inactive)
    1  A    between atoms: C_9  and  C_15
    2  A    between atoms: C_20  and  C_22
    3  A    between atoms: C_20  and  C_26
    4  A    between atoms: C_22  and  C_24
                            x       y       z     vdW  Elec       q    Type
                         _______ _______ _______ _____ _____    ______ ____

>  <TORSDO>
F 4

$$$$
=
 OpenBabel11052418223D

 27 31  0  0  1  0  0  0  0  0999 V2000
  186.5530  177.0290  141.6210 N   0  0  0  0  0  0  0  0  0  0  0  0
  187.8170  175.3660  142.7640 N   0  0  0  0  0  2  0  0  0  0  0  0
  185.7420  179.1260  145.1720 C   0  0  0  0  0  3  0  0  0  0  0  0
  185.8060  179.2880  147.6680 C   0  0  0  0  0  1  0  0  0  0  0  0
  185.6210  178.1600  141.5230 C   0  0  0  0  0  2  0  0  0  0  0  0
  186.9420  176.5970  145.2610 C   0  0  0  0  0  3  0  0  0  0  0  0
  186.6720  177.2880  146.4490 C   0  0  0  0  0  3  0  0  0  0  0  0
  186.9580  176.5150  142.7490 C   0  0  0  0  0  0  0  0  0  0  0  0
  186.0790  178.5540  146.4040 C   0  0  0  0  0  0  0  0  0  0  0  0
  185.9930  178.4270  143.9870 C   0  0  0  0  0  0  0  0  0  0  0  0
  188.2230  175.2040  140.4600 O   0  0  0  0  0  0  0  0  0  0  0  0
  186.6020  177.1660  144.0270 C   0  0  0  0  0  0  0  0  0  0  0  0
  185.6740  179.0020  142.7190 N   0  0  0  0  0  2  0  0  0  0  0  0
  188.3950  174.7270  141.6160 C   0  0  0  0  0  0  0  0  0  0  0  0
  190.3280  173.3540  140.7510 C   0  0  0  0  0  1  0  0  0  0  0  0
  189.1970  173.4660  141.7730 C   0  0  1  0  0  3  0  0  0  0  0  0
  189.3200  172.0090  143.6820 O   0  0  0  0  0  1  0  0  0  0  0  0
  189.6890  173.2740  143.2160 C   0  0  1  0  0  3  0  0  0  0  0  0
  191.6640  172.8370  144.6750 C   0  0  0  0  0  2  0  0  0  0  0  0
  191.4620  174.3420  144.5960 C   0  0  2  0  0  3  0  0  0  0  0  0
  191.1980  173.4670  143.3700 C   0  0  2  0  0  3  0  0  0  0  0  0
  193.8460  176.7630  146.8290 O   0  0  0  0  0  0  0  0  0  0  0  0
  192.8330  175.0350  144.6060 C   0  0  2  0  0  3  0  0  0  0  0  0
  193.6140  174.5990  145.8260 C   0  0  0  0  0  2  0  0  0  0  0  0
  194.5570  175.7460  146.1580 C   0  0  1  0  0  3  0  0  0  0  0  0
  194.0590  176.9550  145.4500 C   0  0  1  0  0  3  0  0  0  0  0  0
  192.8100  176.5550  144.6810 C   0  0  0  0  0  2  0  0  0  0  0  0
  1  8  2  0  0  0  0
  3  9  1  0  0  0  0
  5  1  1  0  0  0  0
  5 13  1  0  0  0  0
  6  7  1  0  0  0  0
  8  2  1  0  0  0  0
  8 12  1  0  0  0  0
  9  7  2  0  0  0  0
  9  4  1  0  0  0  0
 10 12  1  0  0  0  0
 10  3  2  0  0  0  0
 11 14  2  0  0  0  0
 12  6  2  0  0  0  0
 13 10  1  0  0  0  0
 14 16  1  0  0  0  0
 14  2  1  0  0  0  0
 16 15  1  6  0  0  0
 16 18  1  0  0  0  0
 18 17  1  6  0  0  0
 20 23  1  0  0  0  0
 20 19  1  1  0  0  0
 21 18  1  1  0  0  0
 21 20  1  0  0  0  0
 21 19  1  0  0  0  0
 23 27  1  1  0  0  0
 23 24  1  0  0  0  0
 25 24  1  6  0  0  0
 25 22  1  0  0  0  0
 26 27  1  6  0  0  0
 26 25  1  0  0  0  0
 26 22  1  0  0  0  0
M  END
>  <MODEL>
4

>  <REMARK>
 VINA RESULT:      -7.1      1.498      1.711
  Name = 
  4 active torsions:
  status: ('A' for Active; 'I' for Inactive)
    1  A    between atoms: C_9  and  C_15
    2  A    between atoms: C_20  and  C_22
    3  A    between atoms: C_20  and  C_26
    4  A    between atoms: C_22  and  C_24
                            x       y       z     vdW  Elec       q    Type
                         _______ _______ _______ _____ _____    ______ ____

>  <TORSDO>
F 4

$$$$
=
 OpenBabel11052418223D

 27 31  0  0  1  0  0  0  0  0999 V2000
  189.6030  177.3810  142.9890 N   0  0  0  0  0  0  0  0  0  0  0  0
  190.4200  176.9530  145.1840 N   0  0  0  0  0  2  0  0  0  0  0  0
  185.7720  178.3760  144.4020 C   0  0  0  0  0  3  0  0  0  0  0  0
  184.1040  178.5090  146.2630 C   0  0  0  0  0  1  0  0  0  0  0  0
  188.5660  177.6160  141.9770 C   0  0  0  0  0  2  0  0  0  0  0  0
  187.6770  177.2690  146.1310 C   0  0  0  0  0  3  0  0  0  0  0  0
  186.4020  177.5940  146.6080 C   0  0  0  0  0  3  0  0  0  0  0  0
  189.3600  177.2480  144.2640 C   0  0  0  0  0  0  0  0  0  0  0  0
  185.4520  178.1540  145.7470 C   0  0  0  0  0  0  0  0  0  0  0  0
  187.0390  178.0310  143.9210 C   0  0  0  0  0  0  0  0  0  0  0  0
  192.2290  177.1270  143.7030 O   0  0  0  0  0  0  0  0  0  0  0  0
  187.9980  177.4860  144.7840 C   0  0  0  0  0  0  0  0  0  0  0  0
  187.3910  178.2680  142.5570 N   0  0  0  0  0  2  0  0  0  0  0  0
  191.8170  176.8680  144.8680 C   0  0  0  0  0  0  0  0  0  0  0  0
  192.2970  175.3060  146.7910 C   0  0  0  0  0  1  0  0  0  0  0  0
  192.8090  176.4490  145.9160 C   0  0  1  0  0  3  0  0  0  0  0  0
  194.9780  177.3090  145.3300 O   0  0  0  0  0  1  0  0  0  0  0  0
  194.1910  176.1530  145.3120 C   0  0  1  0  0  3  0  0  0  0  0  0
  196.2440  174.7380  145.3070 C   0  0  0  0  0  2  0  0  0  0  0  0
  195.0500  173.8340  145.0490 C   0  0  2  0  0  3  0  0  0  0  0  0
  194.9260  175.0120  146.0160 C   0  0  2  0  0  3  0  0  0  0  0  0
  196.2160  170.0120  144.2950 O   0  0  0  0  0  0  0  0  0  0  0  0
  195.2920  172.4750  145.7230 C   0  0  2  0  0  3  0  0  0  0  0  0
  196.7180  172.0340  145.4790 C   0  0  0  0  0  2  0  0  0  0  0  0
  196.7050  170.5140  145.5200 C   0  0  1  0  0  3  0  0  0  0  0  0
  195.2950  170.0720  145.3590 C   0  0  1  0  0  3  0  0  0  0  0  0
  194.4360  171.3200  145.2200 C   0  0  0  0  0  2  0  0  0  0  0  0
  1  8  2  0  0  0  0
  3  9  1  0  0  0  0
  5 13  1  0  0  0  0
  5  1  1  0  0  0  0
  6  7  1  0  0  0  0
  8 12  1  0  0  0  0
  8  2  1  0  0  0  0
  9  4  1  0  0  0  0
  9  7  2  0  0  0  0
 10  3  2  0  0  0  0
 10 12  1  0  0  0  0
 11 14  2  0  0  0  0
 12  6  2  0  0  0  0
 13 10  1  0  0  0  0
 14  2  1  0  0  0  0
 14 16  1  0  0  0  0
 16 15  1  6  0  0  0
 18 17  1  1  0  0  0
 18 16  1  0  0  0  0
 19 21  1  0  0  0  0
 20 19  1  6  0  0  0
 20 23  1  0  0  0  0
 20 21  1  0  0  0  0
 21 18  1  6  0  0  0
 22 26  1  0  0  0  0
 22 25  1  0  0  0  0
 23 27  1  6  0  0  0
 24 23  1  0  0  0  0
 25 24  1  6  0  0  0
 26 27  1  6  0  0  0
 26 25  1  0  0  0  0
M  END
>  <MODEL>
5

>  <REMARK>
 VINA RESULT:      -7.1      3.788      5.283
  Name = 
  4 active torsions:
  status: ('A' for Active; 'I' for Inactive)
    1  A    between atoms: C_9  and  C_15
    2  A    between atoms: C_20  and  C_22
    3  A    between atoms: C_20  and  C_26
    4  A    between atoms: C_22  and  C_24
                            x       y       z     vdW  Elec       q    Type
                         _______ _______ _______ _____ _____    ______ ____

>  <TORSDO>
F 4

$$$$
=
 OpenBabel11052418223D

 27 31  0  0  1  0  0  0  0  0999 V2000
  186.6490  178.0780  146.4030 N   0  0  0  0  0  0  0  0  0  0  0  0
  188.5740  177.5160  145.1200 N   0  0  0  0  0  2  0  0  0  0  0  0
  184.2010  178.2880  142.9930 C   0  0  0  0  0  3  0  0  0  0  0  0
  183.9280  178.2900  140.5060 C   0  0  0  0  0  1  0  0  0  0  0  0
  185.2780  178.5610  146.6040 C   0  0  0  0  0  2  0  0  0  0  0  0
  186.9780  178.0320  142.7320 C   0  0  0  0  0  3  0  0  0  0  0  0
  186.1700  178.1050  141.5910 C   0  0  0  0  0  3  0  0  0  0  0  0
  187.2050  177.9280  145.2330 C   0  0  0  0  0  0  0  0  0  0  0  0
  184.7810  178.2260  141.7210 C   0  0  0  0  0  0  0  0  0  0  0  0
  185.0120  178.2360  144.1330 C   0  0  0  0  0  0  0  0  0  0  0  0
  188.9980  177.0820  147.3850 O   0  0  0  0  0  0  0  0  0  0  0  0
  186.3990  178.0990  144.0060 C   0  0  0  0  0  0  0  0  0  0  0  0
  184.4360  178.2790  145.4400 N   0  0  0  0  0  2  0  0  0  0  0  0
  189.4370  177.1390  146.2030 C   0  0  0  0  0  0  0  0  0  0  0  0
  191.3400  175.5380  146.6340 C   0  0  0  0  0  1  0  0  0  0  0  0
  190.8850  176.8250  145.9470 C   0  0  1  0  0  3  0  0  0  0  0  0
  192.4700  177.4300  144.2430 O   0  0  0  0  0  1  0  0  0  0  0  0
  191.2190  176.8400  144.4470 C   0  0  1  0  0  3  0  0  0  0  0  0
  191.7810  175.5200  142.4080 C   0  0  0  0  0  2  0  0  0  0  0  0
  190.2710  175.4940  142.5830 C   0  0  2  0  0  3  0  0  0  0  0  0
  191.1860  175.4520  143.8070 C   0  0  2  0  0  3  0  0  0  0  0  0
  188.2350  173.6380  139.5930 O   0  0  0  0  0  0  0  0  0  0  0  0
  189.7350  174.1260  142.1360 C   0  0  2  0  0  3  0  0  0  0  0  0
  190.3110  173.7730  140.7820 C   0  0  0  0  0  2  0  0  0  0  0  0
  189.2930  172.8630  140.1130 C   0  0  1  0  0  3  0  0  0  0  0  0
  188.0040  173.0200  140.8380 C   0  0  1  0  0  3  0  0  0  0  0  0
  188.2270  174.0270  141.9550 C   0  0  0  0  0  2  0  0  0  0  0  0
  1  5  1  0  0  0  0
  2  8  1  0  0  0  0
  2 14  1  0  0  0  0
  3 10  1  0  0  0  0
  4  9  1  0  0  0  0
  6 12  1  0  0  0  0
  7  9  1  0  0  0  0
  7  6  2  0  0  0  0
  8  1  2  0  0  0  0
  9  3  2  0  0  0  0
 10 13  1  0  0  0  0
 12 10  2  0  0  0  0
 12  8  1  0  0  0  0
 13  5  1  0  0  0  0
 14 11  2  0  0  0  0
 16 14  1  0  0  0  0
 16 15  1  6  0  0  0
 18 17  1  1  0  0  0
 18 16  1  0  0  0  0
 19 21  1  0  0  0  0
 20 19  1  6  0  0  0
 20 21  1  0  0  0  0
 21 18  1  1  0  0  0
 22 25  1  0  0  0  0
 22 26  1  0  0  0  0
 23 24  1  6  0  0  0
 23 20  1  0  0  0  0
 25 24  1  1  0  0  0
 25 26  1  0  0  0  0
 26 27  1  1  0  0  0
 27 23  1  0  0  0  0
M  END
>  <MODEL>
6

>  <REMARK>
 VINA RESULT:      -7.1      1.938      5.207
  Name = 
  4 active torsions:
  status: ('A' for Active; 'I' for Inactive)
    1  A    between atoms: C_9  and  C_15
    2  A    between atoms: C_20  and  C_22
    3  A    between atoms: C_20  and  C_26
    4  A    between atoms: C_22  and  C_24
                            x       y       z     vdW  Elec       q    Type
                         _______ _______ _______ _____ _____    ______ ____

>  <TORSDO>
F 4

$$$$
=
 OpenBabel11052418223D

 27 31  0  0  1  0  0  0  0  0999 V2000
  192.0650  176.6970  144.3790 N   0  0  0  0  0  0  0  0  0  0  0  0
  190.4290  175.4120  143.2210 N   0  0  0  0  0  2  0  0  0  0  0  0
  194.3030  173.2860  145.3920 C   0  0  0  0  0  3  0  0  0  0  0  0
  194.5560  170.7990  145.4920 C   0  0  0  0  0  1  0  0  0  0  0  0
  193.2040  176.8980  145.2840 C   0  0  0  0  0  2  0  0  0  0  0  0
  191.7630  173.0250  144.2400 C   0  0  0  0  0  3  0  0  0  0  0  0
  192.5000  171.8840  144.5780 C   0  0  0  0  0  3  0  0  0  0  0  0
  191.5880  175.5260  144.0590 C   0  0  0  0  0  0  0  0  0  0  0  0
  193.7720  172.0140  145.1470 C   0  0  0  0  0  0  0  0  0  0  0  0
  193.5560  174.4260  145.0730 C   0  0  0  0  0  0  0  0  0  0  0  0
  190.1760  177.6760  142.6640 O   0  0  0  0  0  0  0  0  0  0  0  0
  192.2900  174.3000  144.4890 C   0  0  0  0  0  0  0  0  0  0  0  0
  194.0890  175.7320  145.2980 N   0  0  0  0  0  2  0  0  0  0  0  0
  189.7400  176.4950  142.5780 C   0  0  0  0  0  0  0  0  0  0  0  0
  187.7180  175.0080  142.3060 C   0  0  0  0  0  1  0  0  0  0  0  0
  188.4750  176.2390  141.8080 C   0  0  1  0  0  3  0  0  0  0  0  0
  187.1230  177.6760  140.4320 O   0  0  0  0  0  1  0  0  0  0  0  0
  187.5820  177.4890  141.7390 C   0  0  1  0  0  3  0  0  0  0  0  0
  185.8660  178.8460  142.9350 C   0  0  0  0  0  2  0  0  0  0  0  0
  186.7660  178.2030  143.9780 C   0  0  2  0  0  3  0  0  0  0  0  0
  186.3980  177.4390  142.7050 C   0  0  2  0  0  3  0  0  0  0  0  0
  186.6360  178.5680  148.0250 O   0  0  0  0  0  0  0  0  0  0  0  0
  185.9280  177.8360  145.2110 C   0  0  2  0  0  3  0  0  0  0  0  0
  185.5450  179.0950  145.9580 C   0  0  0  0  0  2  0  0  0  0  0  0
  185.3700  178.6880  147.4130 C   0  0  1  0  0  3  0  0  0  0  0  0
  186.0330  177.3700  147.5930 C   0  0  1  0  0  3  0  0  0  0  0  0
  186.6170  176.9620  146.2500 C   0  0  0  0  0  2  0  0  0  0  0  0
  1  5  1  0  0  0  0
  2  8  1  0  0  0  0
  5 13  1  0  0  0  0
  6 12  2  0  0  0  0
  6  7  1  0  0  0  0
  7  9  2  0  0  0  0
  8  1  2  0  0  0  0
  8 12  1  0  0  0  0
  9  3  1  0  0  0  0
  9  4  1  0  0  0  0
 10 13  1  0  0  0  0
 10  3  2  0  0  0  0
 12 10  1  0  0  0  0
 14 11  2  0  0  0  0
 14  2  1  0  0  0  0
 16 15  1  1  0  0  0
 16 14  1  0  0  0  0
 18 17  1  6  0  0  0
 18 16  1  0  0  0  0
 20 19  1  6  0  0  0
 20 23  1  0  0  0  0
 21 18  1  6  0  0  0
 21 19  1  0  0  0  0
 21 20  1  0  0  0  0
 23 24  1  1  0  0  0
 23 27  1  0  0  0  0
 25 24  1  6  0  0  0
 25 26  1  0  0  0  0
 25 22  1  0  0  0  0
 26 27  1  6  0  0  0
 26 22  1  0  0  0  0
M  END
>  <MODEL>
7

>  <REMARK>
 VINA RESULT:      -7.0      2.802      6.756
  Name = 
  4 active torsions:
  status: ('A' for Active; 'I' for Inactive)
    1  A    between atoms: C_9  and  C_15
    2  A    between atoms: C_20  and  C_22
    3  A    between atoms: C_20  and  C_26
    4  A    between atoms: C_22  and  C_24
                            x       y       z     vdW  Elec       q    Type
                         _______ _______ _______ _____ _____    ______ ____

>  <TORSDO>
F 4

$$$$
=
 OpenBabel11052418223D

 27 31  0  0  1  0  0  0  0  0999 V2000
  189.1190  174.1350  143.2320 N   0  0  0  0  0  0  0  0  0  0  0  0
  189.0200  176.3450  142.3500 N   0  0  0  0  0  2  0  0  0  0  0  0
  192.3290  175.0880  145.7720 C   0  0  0  0  0  3  0  0  0  0  0  0
  194.1030  176.6790  146.5370 C   0  0  0  0  0  1  0  0  0  0  0  0
  189.7290  173.0230  143.9720 C   0  0  0  0  0  2  0  0  0  0  0  0
  191.4780  176.9070  143.8200 C   0  0  0  0  0  3  0  0  0  0  0  0
  192.5500  177.2300  144.6600 C   0  0  0  0  0  3  0  0  0  0  0  0
  189.6420  175.3280  143.1490 C   0  0  0  0  0  0  0  0  0  0  0  0
  192.9720  176.3250  145.6400 C   0  0  0  0  0  0  0  0  0  0  0  0
  191.2710  174.7570  144.9190 C   0  0  0  0  0  0  0  0  0  0  0  0
  187.0630  175.1900  141.7710 O   0  0  0  0  0  0  0  0  0  0  0  0
  190.8370  175.6680  143.9480 C   0  0  0  0  0  0  0  0  0  0  0  0
  190.5910  173.5080  145.0510 N   0  0  0  0  0  2  0  0  0  0  0  0
  187.7670  176.2310  141.6590 C   0  0  0  0  0  0  0  0  0  0  0  0
  186.8820  176.8610  139.3810 C   0  0  0  0  0  1  0  0  0  0  0  0
  187.2840  177.3450  140.7740 C   0  0  1  0  0  3  0  0  0  0  0  0
  185.1760  178.4750  140.5230 O   0  0  0  0  0  1  0  0  0  0  0  0
  186.1810  178.1770  141.4480 C   0  0  1  0  0  3  0  0  0  0  0  0
  184.2640  178.1730  143.0420 C   0  0  0  0  0  2  0  0  0  0  0  0
  185.5250  178.5030  143.8240 C   0  0  2  0  0  3  0  0  0  0  0  0
  185.5770  177.4950  142.6750 C   0  0  2  0  0  3  0  0  0  0  0  0
  186.0090  179.3230  147.7770 O   0  0  0  0  0  0  0  0  0  0  0  0
  185.4280  177.8750  145.2230 C   0  0  2  0  0  3  0  0  0  0  0  0
  184.4590  178.6710  146.0700 C   0  0  0  0  0  2  0  0  0  0  0  0
  184.9060  178.4850  147.5120 C   0  0  1  0  0  3  0  0  0  0  0  0
  186.3030  177.9760  147.4880 C   0  0  1  0  0  3  0  0  0  0  0  0
  186.7180  177.8460  146.0310 C   0  0  0  0  0  2  0  0  0  0  0  0
  1  5  1  0  0  0  0
  2  8  1  0  0  0  0
  5 13  1  0  0  0  0
  6 12  2  0  0  0  0
  6  7  1  0  0  0  0
  7  9  2  0  0  0  0
  8  1  2  0  0  0  0
  8 12  1  0  0  0  0
  9  3  1  0  0  0  0
  9  4  1  0  0  0  0
 10 13  1  0  0  0  0
 10  3  2  0  0  0  0
 12 10  1  0  0  0  0
 14 11  2  0  0  0  0
 14  2  1  0  0  0  0
 16 15  1  6  0  0  0
 16 18  1  0  0  0  0
 16 14  1  0  0  0  0
 18 17  1  6  0  0  0
 20 19  1  6  0  0  0
 20 23  1  0  0  0  0
 21 18  1  6  0  0  0
 21 19  1  0  0  0  0
 21 20  1  0  0  0  0
 23 27  1  1  0  0  0
 23 24  1  0  0  0  0
 25 24  1  6  0  0  0
 25 22  1  0  0  0  0
 26 27  1  6  0  0  0
 26 25  1  0  0  0  0
 26 22  1  0  0  0  0
M  END
>  <MODEL>
8

>  <REMARK>
 VINA RESULT:      -7.0      2.161      5.945
  Name = 
  4 active torsions:
  status: ('A' for Active; 'I' for Inactive)
    1  A    between atoms: C_9  and  C_15
    2  A    between atoms: C_20  and  C_22
    3  A    between atoms: C_20  and  C_26
    4  A    between atoms: C_22  and  C_24
                            x       y       z     vdW  Elec       q    Type
                         _______ _______ _______ _____ _____    ______ ____

>  <TORSDO>
F 4

$$$$
=
 OpenBabel11052418223D

 27 31  0  0  1  0  0  0  0  0999 V2000
  186.4310  177.1270  146.5680 N   0  0  0  0  0  0  0  0  0  0  0  0
  188.2650  176.1860  145.3750 N   0  0  0  0  0  2  0  0  0  0  0  0
  184.4180  178.1720  143.0290 C   0  0  0  0  0  3  0  0  0  0  0  0
  184.3730  178.4090  140.5390 C   0  0  0  0  0  1  0  0  0  0  0  0
  185.2070  177.9240  146.7150 C   0  0  0  0  0  2  0  0  0  0  0  0
  187.0600  177.2460  142.9370 C   0  0  0  0  0  3  0  0  0  0  0  0
  186.3970  177.5950  141.7540 C   0  0  0  0  0  3  0  0  0  0  0  0
  187.0330  176.9210  145.4290 C   0  0  0  0  0  0  0  0  0  0  0  0
  185.0750  178.0520  141.7990 C   0  0  0  0  0  0  0  0  0  0  0  0
  185.0880  177.8430  144.2120 C   0  0  0  0  0  0  0  0  0  0  0  0
  188.3680  175.5100  147.6180 O   0  0  0  0  0  0  0  0  0  0  0  0
  186.4050  177.3700  144.1700 C   0  0  0  0  0  0  0  0  0  0  0  0
  184.4280  177.9410  145.4760 N   0  0  0  0  0  2  0  0  0  0  0  0
  188.9100  175.5330  146.4780 C   0  0  0  0  0  0  0  0  0  0  0  0
  190.3560  174.0940  144.9920 C   0  0  0  0  0  1  0  0  0  0  0  0
  190.2530  174.8840  146.2960 C   0  0  1  0  0  3  0  0  0  0  0  0
  191.4450  176.3480  147.7850 O   0  0  0  0  0  1  0  0  0  0  0  0
  191.4040  175.8880  146.4660 C   0  0  1  0  0  3  0  0  0  0  0  0
  193.8600  176.3150  146.4230 C   0  0  0  0  0  2  0  0  0  0  0  0
  193.3780  176.2070  144.9860 C   0  0  2  0  0  3  0  0  0  0  0  0
  192.7670  175.3180  146.0700 C   0  0  2  0  0  3  0  0  0  0  0  0
  195.7450  176.7510  141.7250 O   0  0  0  0  0  0  0  0  0  0  0  0
  194.4650  175.5290  144.1390 C   0  0  2  0  0  3  0  0  0  0  0  0
  195.6970  176.4070  144.0960 C   0  0  0  0  0  2  0  0  0  0  0  0
  196.3990  176.0880  142.7850 C   0  0  1  0  0  3  0  0  0  0  0  0
  195.4200  175.3920  141.9090 C   0  0  1  0  0  3  0  0  0  0  0  0
  194.1140  175.2800  142.6780 C   0  0  0  0  0  2  0  0  0  0  0  0
  1  5  1  0  0  0  0
  2  8  1  0  0  0  0
  2 14  1  0  0  0  0
  3 10  1  0  0  0  0
  4  9  1  0  0  0  0
  6 12  1  0  0  0  0
  7  9  1  0  0  0  0
  7  6  2  0  0  0  0
  8  1  2  0  0  0  0
  9  3  2  0  0  0  0
 10 13  1  0  0  0  0
 12 10  2  0  0  0  0
 12  8  1  0  0  0  0
 13  5  1  0  0  0  0
 14 11  2  0  0  0  0
 16 15  1  6  0  0  0
 16 18  1  0  0  0  0
 16 14  1  0  0  0  0
 18 17  1  1  0  0  0
 20 21  1  0  0  0  0
 20 19  1  1  0  0  0
 21 19  1  0  0  0  0
 21 18  1  1  0  0  0
 22 26  1  0  0  0  0
 22 25  1  0  0  0  0
 23 27  1  6  0  0  0
 23 20  1  0  0  0  0
 24 23  1  0  0  0  0
 25 24  1  1  0  0  0
 26 27  1  1  0  0  0
 26 25  1  0  0  0  0
M  END
>  <MODEL>
9

>  <REMARK>
 VINA RESULT:      -6.9      2.896      5.072
  Name = 
  4 active torsions:
  status: ('A' for Active; 'I' for Inactive)
    1  A    between atoms: C_9  and  C_15
    2  A    between atoms: C_20  and  C_22
    3  A    between atoms: C_20  and  C_26
    4  A    between atoms: C_22  and  C_24
                            x       y       z     vdW  Elec       q    Type
                         _______ _______ _______ _____ _____    ______ ____

>  <TORSDO>
F 4

$$$$
