=
 OpenBabel11052418273D

 27 29  0  0  1  0  0  0  0  0999 V2000
  188.6810  177.3090  144.6060 C   0  0  2  0  0  3  0  0  0  0  0  0
  190.7640  175.3080  147.7960 C   0  0  0  0  0  3  0  0  0  0  0  0
  189.3880  176.6000  145.7220 C   0  0  0  0  0  0  0  0  0  0  0  0
  188.8980  175.3970  146.2540 C   0  0  0  0  0  3  0  0  0  0  0  0
  189.5820  174.7570  147.2920 C   0  0  0  0  0  3  0  0  0  0  0  0
  191.2610  176.5010  147.2620 C   0  0  0  0  0  3  0  0  0  0  0  0
  190.5730  177.1460  146.2280 C   0  0  0  0  0  3  0  0  0  0  0  0
  187.3290  176.6820  144.2270 C   0  0  0  0  0  2  0  0  0  0  0  0
  184.4440  179.1580  144.5810 C   0  0  0  0  0  3  0  0  0  0  0  0
  183.9260  178.7840  145.8250 C   0  0  0  0  0  3  0  0  0  0  0  0
  186.1360  177.4240  144.7610 C   0  0  0  0  0  0  0  0  0  0  0  0
  186.0870  178.9380  142.7310 C   0  0  0  0  0  1  0  0  0  0  0  0
  184.5140  177.7390  146.5410 C   0  0  0  0  0  3  0  0  0  0  0  0
  185.6180  177.0650  146.0120 C   0  0  0  0  0  3  0  0  0  0  0  0
  185.5470  178.4860  144.0450 C   0  0  0  0  0  0  0  0  0  0  0  0
  189.5510  177.4790  143.4530 N   0  0  0  0  0  2  0  0  0  0  0  0
  189.3990  176.2830  142.6360 C   0  0  0  0  0  2  0  0  0  0  0  0
  192.6670  175.5190  143.8430 C   0  0  0  0  0  0  0  0  0  0  0  0
  194.5260  175.0280  145.2400 O   0  0  0  0  0  1  0  0  0  0  0  0
  192.0090  174.2840  144.0700 N   0  0  0  0  0  0  0  0  0  0  0  0
  192.3200  173.4250  145.0700 O   0  0  0  0  0  1  0  0  0  0  0  0
  190.7320  174.2590  143.3860 C   0  0  1  0  0  3  0  0  0  0  0  0
  193.8340  175.8700  144.3790 C   0  0  0  0  0  3  0  0  0  0  0  0
  190.7150  175.5250  142.5140 C   0  0  2  0  0  3  0  0  0  0  0  0
  191.9120  176.3950  142.9210 C   0  0  0  0  0  2  0  0  0  0  0  0
  189.3010  172.2520  143.1440 S   0  0  0  0  0  1  0  0  0  0  0  0
  190.6600  173.1310  142.5670 O   0  0  0  0  0  0  0  0  0  0  0  0
  1  8  1  6  0  0  0
  1  3  1  0  0  0  0
  3  7  2  0  0  0  0
  3  4  1  0  0  0  0
  4  5  2  0  0  0  0
  5  2  1  0  0  0  0
  6  2  2  0  0  0  0
  7  6  1  0  0  0  0
  8 11  1  0  0  0  0
  9 10  1  0  0  0  0
 10 13  2  0  0  0  0
 11 14  2  0  0  0  0
 12 15  1  0  0  0  0
 14 13  1  0  0  0  0
 15  9  2  0  0  0  0
 15 11  1  0  0  0  0
 16  1  1  0  0  0  0
 17 16  1  0  0  0  0
 18 20  1  0  0  0  0
 18 23  2  0  0  0  0
 20 21  1  0  0  0  0
 22 27  1  6  0  0  0
 22 20  1  0  0  0  0
 23 19  1  0  0  0  0
 24 17  1  1  0  0  0
 24 25  1  0  0  0  0
 24 22  1  0  0  0  0
 25 18  1  0  0  0  0
 27 26  1  0  0  0  0
M  END
>  <MODEL>
1

>  <REMARK>
 VINA RESULT:      -7.2      0.000      0.000
  Name = 
  7 active torsions:
  status: ('A' for Active; 'I' for Inactive)
    1  A    between atoms: C_1  and  C_15
    2  A    between atoms: C_1  and  C_18
    3  A    between atoms: N_2  and  C_6
    4  A    between atoms: N_2  and  C_15
    5  A    between atoms: C_6  and  C_17
    6  A    between atoms: C_9  and  C_15
    7  A    between atoms: C_14  and  O_19
                            x       y       z     vdW  Elec       q    Type
                         _______ _______ _______ _____ _____    ______ ____

>  <TORSDO>
F 7

$$$$
=
 OpenBabel11052418273D

 27 29  0  0  1  0  0  0  0  0999 V2000
  188.5920  177.1590  144.4180 C   0  0  2  0  0  3  0  0  0  0  0  0
  190.6950  175.3090  147.6850 C   0  0  0  0  0  3  0  0  0  0  0  0
  189.3430  176.5240  145.5500 C   0  0  0  0  0  0  0  0  0  0  0  0
  190.5850  177.0220  145.9760 C   0  0  0  0  0  3  0  0  0  0  0  0
  191.2610  176.4110  147.0370 C   0  0  0  0  0  3  0  0  0  0  0  0
  189.4550  174.8160  147.2690 C   0  0  0  0  0  3  0  0  0  0  0  0
  188.7810  175.4220  146.2030 C   0  0  0  0  0  3  0  0  0  0  0  0
  187.2010  176.5520  144.1750 C   0  0  0  0  0  2  0  0  0  0  0  0
  184.5010  179.2160  144.6180 C   0  0  0  0  0  3  0  0  0  0  0  0
  183.9710  178.8500  145.8580 C   0  0  0  0  0  3  0  0  0  0  0  0
  186.0690  177.3630  144.7390 C   0  0  0  0  0  0  0  0  0  0  0  0
  186.1060  178.9240  142.7440 C   0  0  0  0  0  1  0  0  0  0  0  0
  184.4910  177.7500  146.5440 C   0  0  0  0  0  3  0  0  0  0  0  0
  185.5390  177.0120  145.9870 C   0  0  0  0  0  3  0  0  0  0  0  0
  185.5490  178.4810  144.0540 C   0  0  0  0  0  0  0  0  0  0  0  0
  189.3960  177.1960  143.2070 N   0  0  0  0  0  2  0  0  0  0  0  0
  188.8700  176.1630  142.3260 C   0  0  0  0  0  2  0  0  0  0  0  0
  191.5280  174.1950  143.6590 C   0  0  0  0  0  0  0  0  0  0  0  0
  192.9610  172.9880  145.1220 O   0  0  0  0  0  1  0  0  0  0  0  0
  190.4510  173.2790  143.7540 N   0  0  0  0  0  0  0  0  0  0  0  0
  190.3460  172.3170  144.7020 O   0  0  0  0  0  1  0  0  0  0  0  0
  189.3120  173.7580  142.9960 C   0  0  1  0  0  3  0  0  0  0  0  0
  192.6950  174.0670  144.2890 C   0  0  0  0  0  3  0  0  0  0  0  0
  189.8270  174.9830  142.2230 C   0  0  2  0  0  3  0  0  0  0  0  0
  191.2200  175.3310  142.7650 C   0  0  0  0  0  2  0  0  0  0  0  0
  189.4960  173.3070  140.5680 S   0  0  0  0  0  1  0  0  0  0  0  0
  188.9050  172.7760  142.0910 O   0  0  0  0  0  0  0  0  0  0  0  0
  1  8  1  6  0  0  0
  1  3  1  0  0  0  0
  3  4  2  0  0  0  0
  3  7  1  0  0  0  0
  4  5  1  0  0  0  0
  5  2  2  0  0  0  0
  6  2  1  0  0  0  0
  7  6  2  0  0  0  0
  8 11  1  0  0  0  0
  9 10  1  0  0  0  0
 10 13  2  0  0  0  0
 11 14  2  0  0  0  0
 12 15  1  0  0  0  0
 14 13  1  0  0  0  0
 15  9  2  0  0  0  0
 15 11  1  0  0  0  0
 16  1  1  0  0  0  0
 17 16  1  0  0  0  0
 18 20  1  0  0  0  0
 18 23  2  0  0  0  0
 20 21  1  0  0  0  0
 22 27  1  6  0  0  0
 22 20  1  0  0  0  0
 23 19  1  0  0  0  0
 24 17  1  1  0  0  0
 24 25  1  0  0  0  0
 24 22  1  0  0  0  0
 25 18  1  0  0  0  0
 26 27  1  0  0  0  0
M  END
>  <MODEL>
2

>  <REMARK>
 VINA RESULT:      -6.9      1.097      1.536
  Name = 
  7 active torsions:
  status: ('A' for Active; 'I' for Inactive)
    1  A    between atoms: C_1  and  C_15
    2  A    between atoms: C_1  and  C_18
    3  A    between atoms: N_2  and  C_6
    4  A    between atoms: N_2  and  C_15
    5  A    between atoms: C_6  and  C_17
    6  A    between atoms: C_9  and  C_15
    7  A    between atoms: C_14  and  O_19
                            x       y       z     vdW  Elec       q    Type
                         _______ _______ _______ _____ _____    ______ ____

>  <TORSDO>
F 7

$$$$
=
 OpenBabel11052418273D

 27 29  0  0  1  0  0  0  0  0999 V2000
  187.9180  176.1560  145.8150 C   0  0  2  0  0  3  0  0  0  0  0  0
  184.7670  178.6510  147.3520 C   0  0  0  0  0  3  0  0  0  0  0  0
  186.8070  177.0190  146.3340 C   0  0  0  0  0  0  0  0  0  0  0  0
  185.4750  176.8130  145.9410 C   0  0  0  0  0  3  0  0  0  0  0  0
  184.4600  177.6310  146.4450 C   0  0  0  0  0  3  0  0  0  0  0  0
  186.0910  178.8520  147.7530 C   0  0  0  0  0  3  0  0  0  0  0  0
  187.1090  178.0390  147.2440 C   0  0  0  0  0  3  0  0  0  0  0  0
  188.6880  175.4030  146.9120 C   0  0  0  0  0  2  0  0  0  0  0  0
  192.1570  174.3130  145.7490 C   0  0  0  0  0  3  0  0  0  0  0  0
  192.9560  175.2910  146.3490 C   0  0  0  0  0  3  0  0  0  0  0  0
  190.1730  175.3490  146.6950 C   0  0  0  0  0  0  0  0  0  0  0  0
  189.9580  173.2540  145.2870 C   0  0  0  0  0  1  0  0  0  0  0  0
  192.3700  176.2910  147.1270 C   0  0  0  0  0  3  0  0  0  0  0  0
  190.9840  176.3160  147.3030 C   0  0  0  0  0  3  0  0  0  0  0  0
  190.7690  174.3340  145.9180 C   0  0  0  0  0  0  0  0  0  0  0  0
  188.8030  176.9070  144.9390 N   0  0  0  0  0  2  0  0  0  0  0  0
  188.2230  176.8400  143.6050 C   0  0  0  0  0  2  0  0  0  0  0  0
  191.6260  176.2800  142.6980 C   0  0  0  0  0  0  0  0  0  0  0  0
  193.8660  175.4880  142.6210 O   0  0  0  0  0  1  0  0  0  0  0  0
  191.0440  175.0510  142.3000 N   0  0  0  0  0  0  0  0  0  0  0  0
  191.6930  173.8620  142.2970 O   0  0  0  0  0  1  0  0  0  0  0  0
  189.5980  175.1520  142.3030 C   0  0  1  0  0  3  0  0  0  0  0  0
  192.9330  176.4910  142.8470 C   0  0  0  0  0  3  0  0  0  0  0  0
  189.2980  176.6410  142.5440 C   0  0  2  0  0  3  0  0  0  0  0  0
  190.6130  177.3320  142.9290 C   0  0  0  0  0  2  0  0  0  0  0  0
  188.2760  173.2920  141.3420 S   0  0  0  0  0  1  0  0  0  0  0  0
  189.0980  174.7740  141.0570 O   0  0  0  0  0  0  0  0  0  0  0  0
  1  3  1  0  0  0  0
  1  8  1  1  0  0  0
  2  6  1  0  0  0  0
  3  7  1  0  0  0  0
  4  3  2  0  0  0  0
  4  5  1  0  0  0  0
  5  2  2  0  0  0  0
  7  6  2  0  0  0  0
  9 15  2  0  0  0  0
  9 10  1  0  0  0  0
 10 13  2  0  0  0  0
 11  8  1  0  0  0  0
 11 14  2  0  0  0  0
 12 15  1  0  0  0  0
 13 14  1  0  0  0  0
 15 11  1  0  0  0  0
 16  1  1  0  0  0  0
 17 16  1  0  0  0  0
 18 23  2  0  0  0  0
 18 25  1  0  0  0  0
 19 23  1  0  0  0  0
 20 22  1  0  0  0  0
 20 18  1  0  0  0  0
 21 20  1  0  0  0  0
 22 27  1  6  0  0  0
 22 24  1  0  0  0  0
 24 25  1  0  0  0  0
 24 17  1  1  0  0  0
 27 26  1  0  0  0  0
M  END
>  <MODEL>
3

>  <REMARK>
 VINA RESULT:      -6.7      1.692      4.785
  Name = 
  7 active torsions:
  status: ('A' for Active; 'I' for Inactive)
    1  A    between atoms: C_1  and  C_15
    2  A    between atoms: C_1  and  C_18
    3  A    between atoms: N_2  and  C_6
    4  A    between atoms: N_2  and  C_15
    5  A    between atoms: C_6  and  C_17
    6  A    between atoms: C_9  and  C_15
    7  A    between atoms: C_14  and  O_19
                            x       y       z     vdW  Elec       q    Type
                         _______ _______ _______ _____ _____    ______ ____

>  <TORSDO>
F 7

$$$$
=
 OpenBabel11052418273D

 27 29  0  0  1  0  0  0  0  0999 V2000
  187.9680  176.9120  144.3070 C   0  0  2  0  0  3  0  0  0  0  0  0
  184.3370  178.5450  145.9390 C   0  0  0  0  0  3  0  0  0  0  0  0
  186.6980  177.4610  144.8840 C   0  0  0  0  0  0  0  0  0  0  0  0
  185.9980  176.7820  145.8930 C   0  0  0  0  0  3  0  0  0  0  0  0
  184.8180  177.3210  146.4150 C   0  0  0  0  0  3  0  0  0  0  0  0
  185.0360  179.2290  144.9400 C   0  0  0  0  0  3  0  0  0  0  0  0
  186.2130  178.6870  144.4130 C   0  0  0  0  0  3  0  0  0  0  0  0
  189.1960  177.8090  144.5350 C   0  0  0  0  0  2  0  0  0  0  0  0
  192.5010  176.3290  145.7460 C   0  0  0  0  0  3  0  0  0  0  0  0
  192.1800  176.0180  147.0700 C   0  0  0  0  0  3  0  0  0  0  0  0
  190.2560  177.1930  145.4030 C   0  0  0  0  0  0  0  0  0  0  0  0
  191.9190  177.2000  143.4930 C   0  0  0  0  0  1  0  0  0  0  0  0
  190.9010  176.2840  147.5610 C   0  0  0  0  0  3  0  0  0  0  0  0
  189.9410  176.8650  146.7290 C   0  0  0  0  0  3  0  0  0  0  0  0
  191.5460  176.9130  144.9080 C   0  0  0  0  0  0  0  0  0  0  0  0
  187.8000  176.5540  142.9070 N   0  0  0  0  0  2  0  0  0  0  0  0
  187.8400  175.1000  142.8420 C   0  0  0  0  0  2  0  0  0  0  0  0
  190.4490  172.6920  143.1790 C   0  0  0  0  0  0  0  0  0  0  0  0
  191.6670  170.6600  143.3790 O   0  0  0  0  0  1  0  0  0  0  0  0
  190.0680  172.4780  141.8300 N   0  0  0  0  0  0  0  0  0  0  0  0
  190.1550  171.2870  141.1910 O   0  0  0  0  0  1  0  0  0  0  0  0
  189.2090  173.5510  141.3720 C   0  0  1  0  0  3  0  0  0  0  0  0
  191.1910  171.8560  143.9020 C   0  0  0  0  0  3  0  0  0  0  0  0
  189.2370  174.6000  142.4960 C   0  0  2  0  0  3  0  0  0  0  0  0
  189.9340  173.9710  143.7110 C   0  0  0  0  0  2  0  0  0  0  0  0
  188.5210  173.8680  139.0150 S   0  0  0  0  0  1  0  0  0  0  0  0
  189.7350  174.1080  140.2060 O   0  0  0  0  0  0  0  0  0  0  0  0
  1  8  1  6  0  0  0
  1  3  1  0  0  0  0
  2  5  1  0  0  0  0
  3  4  1  0  0  0  0
  4  5  2  0  0  0  0
  6  2  2  0  0  0  0
  7  3  2  0  0  0  0
  7  6  1  0  0  0  0
  8 11  1  0  0  0  0
  9 10  1  0  0  0  0
 10 13  2  0  0  0  0
 11 14  2  0  0  0  0
 12 15  1  0  0  0  0
 14 13  1  0  0  0  0
 15 11  1  0  0  0  0
 15  9  2  0  0  0  0
 16  1  1  0  0  0  0
 17 16  1  0  0  0  0
 18 25  1  0  0  0  0
 18 23  2  0  0  0  0
 19 23  1  0  0  0  0
 20 18  1  0  0  0  0
 21 20  1  0  0  0  0
 22 27  1  6  0  0  0
 22 20  1  0  0  0  0
 22 24  1  0  0  0  0
 24 17  1  1  0  0  0
 24 25  1  0  0  0  0
 26 27  1  0  0  0  0
M  END
>  <MODEL>
4

>  <REMARK>
 VINA RESULT:      -6.6      2.071      4.926
  Name = 
  7 active torsions:
  status: ('A' for Active; 'I' for Inactive)
    1  A    between atoms: C_1  and  C_15
    2  A    between atoms: C_1  and  C_18
    3  A    between atoms: N_2  and  C_6
    4  A    between atoms: N_2  and  C_15
    5  A    between atoms: C_6  and  C_17
    6  A    between atoms: C_9  and  C_15
    7  A    between atoms: C_14  and  O_19
                            x       y       z     vdW  Elec       q    Type
                         _______ _______ _______ _____ _____    ______ ____

>  <TORSDO>
F 7

$$$$
=
 OpenBabel11052418273D

 27 29  0  0  1  0  0  0  0  0999 V2000
  188.3950  176.2990  145.6230 C   0  0  2  0  0  3  0  0  0  0  0  0
  184.9750  178.3680  147.2140 C   0  0  0  0  0  3  0  0  0  0  0  0
  187.1920  177.0150  146.1590 C   0  0  0  0  0  0  0  0  0  0  0  0
  185.9110  176.7940  145.6300 C   0  0  0  0  0  3  0  0  0  0  0  0
  184.8070  177.4730  146.1530 C   0  0  0  0  0  3  0  0  0  0  0  0
  186.2470  178.5850  147.7500 C   0  0  0  0  0  3  0  0  0  0  0  0
  187.3540  177.9110  147.2230 C   0  0  0  0  0  3  0  0  0  0  0  0
  189.0410  175.3270  146.6240 C   0  0  0  0  0  2  0  0  0  0  0  0
  192.8550  175.4380  146.7500 C   0  0  0  0  0  3  0  0  0  0  0  0
  193.1790  174.4770  145.7880 C   0  0  0  0  0  3  0  0  0  0  0  0
  190.4910  175.0410  146.3550 C   0  0  0  0  0  0  0  0  0  0  0  0
  191.2160  176.7820  148.0460 C   0  0  0  0  0  1  0  0  0  0  0  0
  192.1650  173.8040  145.1040 C   0  0  0  0  0  3  0  0  0  0  0  0
  190.8260  174.0880  145.3840 C   0  0  0  0  0  3  0  0  0  0  0  0
  191.5170  175.7270  147.0360 C   0  0  0  0  0  0  0  0  0  0  0  0
  189.3590  177.2340  145.0630 N   0  0  0  0  0  2  0  0  0  0  0  0
  189.6370  176.7820  143.7070 C   0  0  0  0  0  2  0  0  0  0  0  0
  187.3740  176.8780  140.9530 C   0  0  0  0  0  0  0  0  0  0  0  0
  186.4410  176.9790  138.7680 O   0  0  0  0  0  1  0  0  0  0  0  0
  187.9220  175.5800  140.7960 N   0  0  0  0  0  0  0  0  0  0  0  0
  188.0730  174.9530  139.6050 O   0  0  0  0  0  1  0  0  0  0  0  0
  188.6640  175.1990  141.9800 C   0  0  1  0  0  3  0  0  0  0  0  0
  186.6850  177.5320  140.0190 C   0  0  0  0  0  3  0  0  0  0  0  0
  188.3700  176.2990  143.0130 C   0  0  2  0  0  3  0  0  0  0  0  0
  187.6440  177.4420  142.2920 C   0  0  0  0  0  2  0  0  0  0  0  0
  189.4490  172.8550  142.1220 S   0  0  0  0  0  1  0  0  0  0  0  0
  188.1910  173.9760  142.4570 O   0  0  0  0  0  0  0  0  0  0  0  0
  1  3  1  0  0  0  0
  1  8  1  1  0  0  0
  2  6  1  0  0  0  0
  3  7  1  0  0  0  0
  4  5  1  0  0  0  0
  4  3  2  0  0  0  0
  5  2  2  0  0  0  0
  7  6  2  0  0  0  0
  9 15  1  0  0  0  0
 10  9  2  0  0  0  0
 11  8  1  0  0  0  0
 11 15  2  0  0  0  0
 13 14  2  0  0  0  0
 13 10  1  0  0  0  0
 14 11  1  0  0  0  0
 15 12  1  0  0  0  0
 16  1  1  0  0  0  0
 17 16  1  0  0  0  0
 18 25  1  0  0  0  0
 19 23  1  0  0  0  0
 20 18  1  0  0  0  0
 20 22  1  0  0  0  0
 21 20  1  0  0  0  0
 22 27  1  1  0  0  0
 22 24  1  0  0  0  0
 23 18  2  0  0  0  0
 24 17  1  6  0  0  0
 25 24  1  0  0  0  0
 26 27  1  0  0  0  0
M  END
>  <MODEL>
5

>  <REMARK>
 VINA RESULT:      -6.5      2.420      5.891
  Name = 
  7 active torsions:
  status: ('A' for Active; 'I' for Inactive)
    1  A    between atoms: C_1  and  C_15
    2  A    between atoms: C_1  and  C_18
    3  A    between atoms: N_2  and  C_6
    4  A    between atoms: N_2  and  C_15
    5  A    between atoms: C_6  and  C_17
    6  A    between atoms: C_9  and  C_15
    7  A    between atoms: C_14  and  O_19
                            x       y       z     vdW  Elec       q    Type
                         _______ _______ _______ _____ _____    ______ ____

>  <TORSDO>
F 7

$$$$
=
 OpenBabel11052418273D

 27 29  0  0  1  0  0  0  0  0999 V2000
  188.7950  176.9660  143.3850 C   0  0  2  0  0  3  0  0  0  0  0  0
  188.5380  173.2900  141.1640 C   0  0  0  0  0  3  0  0  0  0  0  0
  188.6940  175.6950  142.5960 C   0  0  0  0  0  0  0  0  0  0  0  0
  188.3500  175.7030  141.2350 C   0  0  0  0  0  3  0  0  0  0  0  0
  188.2670  174.5030  140.5230 C   0  0  0  0  0  3  0  0  0  0  0  0
  188.8900  173.2780  142.5170 C   0  0  0  0  0  3  0  0  0  0  0  0
  188.9660  174.4780  143.2310 C   0  0  0  0  0  3  0  0  0  0  0  0
  187.4840  177.7660  143.4510 C   0  0  0  0  0  2  0  0  0  0  0  0
  185.4080  178.9000  146.4480 C   0  0  0  0  0  3  0  0  0  0  0  0
  185.8310  177.9900  147.4210 C   0  0  0  0  0  3  0  0  0  0  0  0
  186.8870  177.8580  144.8270 C   0  0  0  0  0  0  0  0  0  0  0  0
  185.4770  179.8510  144.1540 C   0  0  0  0  0  1  0  0  0  0  0  0
  186.7850  177.0210  147.1040 C   0  0  0  0  0  3  0  0  0  0  0  0
  187.3140  176.9580  145.8120 C   0  0  0  0  0  3  0  0  0  0  0  0
  185.9320  178.8410  145.1530 C   0  0  0  0  0  0  0  0  0  0  0  0
  189.9140  177.7780  142.9350 N   0  0  0  0  0  2  0  0  0  0  0  0
  190.8230  177.8980  144.0660 C   0  0  0  0  0  2  0  0  0  0  0  0
  193.9460  176.1760  144.0440 C   0  0  0  0  0  0  0  0  0  0  0  0
  196.2370  175.6030  144.3130 O   0  0  0  0  0  1  0  0  0  0  0  0
  193.6490  176.1620  145.4310 N   0  0  0  0  0  0  0  0  0  0  0  0
  194.5820  176.1700  146.4120 O   0  0  0  0  0  1  0  0  0  0  0  0
  192.2730  176.5550  145.6560 C   0  0  1  0  0  3  0  0  0  0  0  0
  195.1420  175.9160  143.5190 C   0  0  0  0  0  3  0  0  0  0  0  0
  191.6380  176.6250  144.2580 C   0  0  2  0  0  3  0  0  0  0  0  0
  192.7640  176.5080  143.2220 C   0  0  0  0  0  2  0  0  0  0  0  0
  191.1950  176.3640  147.8780 S   0  0  0  0  0  1  0  0  0  0  0  0
  191.6240  175.5770  146.4120 O   0  0  0  0  0  0  0  0  0  0  0  0
  1  8  1  6  0  0  0
  2  6  1  0  0  0  0
  3  7  1  0  0  0  0
  3  1  1  0  0  0  0
  4  3  2  0  0  0  0
  5  2  2  0  0  0  0
  5  4  1  0  0  0  0
  6  7  2  0  0  0  0
  8 11  1  0  0  0  0
  9 10  1  0  0  0  0
 11 15  1  0  0  0  0
 11 14  2  0  0  0  0
 12 15  1  0  0  0  0
 13 10  2  0  0  0  0
 14 13  1  0  0  0  0
 15  9  2  0  0  0  0
 16  1  1  0  0  0  0
 16 17  1  0  0  0  0
 18 20  1  0  0  0  0
 20 22  1  0  0  0  0
 20 21  1  0  0  0  0
 22 27  1  1  0  0  0
 23 18  2  0  0  0  0
 23 19  1  0  0  0  0
 24 17  1  1  0  0  0
 24 22  1  0  0  0  0
 25 18  1  0  0  0  0
 25 24  1  0  0  0  0
 27 26  1  0  0  0  0
M  END
>  <MODEL>
6

>  <REMARK>
 VINA RESULT:      -6.5      2.346      3.576
  Name = 
  7 active torsions:
  status: ('A' for Active; 'I' for Inactive)
    1  A    between atoms: C_1  and  C_15
    2  A    between atoms: C_1  and  C_18
    3  A    between atoms: N_2  and  C_6
    4  A    between atoms: N_2  and  C_15
    5  A    between atoms: C_6  and  C_17
    6  A    between atoms: C_9  and  C_15
    7  A    between atoms: C_14  and  O_19
                            x       y       z     vdW  Elec       q    Type
                         _______ _______ _______ _____ _____    ______ ____

>  <TORSDO>
F 7

$$$$
=
 OpenBabel11052418273D

 27 29  0  0  1  0  0  0  0  0999 V2000
  187.9880  176.9960  144.4720 C   0  0  2  0  0  3  0  0  0  0  0  0
  184.4150  178.4600  146.3710 C   0  0  0  0  0  3  0  0  0  0  0  0
  186.7400  177.4870  145.1420 C   0  0  0  0  0  0  0  0  0  0  0  0
  186.1740  176.8010  146.2290 C   0  0  0  0  0  3  0  0  0  0  0  0
  185.0120  177.2850  146.8370 C   0  0  0  0  0  3  0  0  0  0  0  0
  184.9810  179.1510  145.2950 C   0  0  0  0  0  3  0  0  0  0  0  0
  186.1400  178.6640  144.6820 C   0  0  0  0  0  3  0  0  0  0  0  0
  189.2630  177.7360  144.9090 C   0  0  0  0  0  2  0  0  0  0  0  0
  192.4170  175.9770  146.1480 C   0  0  0  0  0  3  0  0  0  0  0  0
  191.9210  175.3050  147.2690 C   0  0  0  0  0  3  0  0  0  0  0  0
  190.2110  176.9000  145.7220 C   0  0  0  0  0  0  0  0  0  0  0  0
  192.1330  177.4470  144.1660 C   0  0  0  0  0  1  0  0  0  0  0  0
  190.5730  175.4200  147.6130 C   0  0  0  0  0  3  0  0  0  0  0  0
  189.7200  176.2120  146.8390 C   0  0  0  0  0  3  0  0  0  0  0  0
  191.5700  176.7730  145.3710 C   0  0  0  0  0  0  0  0  0  0  0  0
  187.8340  176.9710  143.0260 N   0  0  0  0  0  2  0  0  0  0  0  0
  189.1120  176.5380  142.4780 C   0  0  0  0  0  2  0  0  0  0  0  0
  188.9800  173.4620  140.6790 C   0  0  0  0  0  0  0  0  0  0  0  0
  189.2200  171.7780  139.0190 O   0  0  0  0  0  1  0  0  0  0  0  0
  190.3580  173.5150  141.0050 N   0  0  0  0  0  0  0  0  0  0  0  0
  191.3450  172.9810  140.2450 O   0  0  0  0  0  1  0  0  0  0  0  0
  190.6040  174.5440  141.9950 C   0  0  1  0  0  3  0  0  0  0  0  0
  188.4450  172.6580  139.7620 C   0  0  0  0  0  3  0  0  0  0  0  0
  189.2100  175.0180  142.4390 C   0  0  2  0  0  3  0  0  0  0  0  0
  188.1760  174.4050  141.4850 C   0  0  0  0  0  2  0  0  0  0  0  0
  190.0340  173.4400  144.1370 S   0  0  0  0  0  1  0  0  0  0  0  0
  191.2760  173.9940  143.0870 O   0  0  0  0  0  0  0  0  0  0  0  0
  1  8  1  6  0  0  0
  1  3  1  0  0  0  0
  2  5  1  0  0  0  0
  3  4  1  0  0  0  0
  4  5  2  0  0  0  0
  6  2  2  0  0  0  0
  7  3  2  0  0  0  0
  7  6  1  0  0  0  0
  8 11  1  0  0  0  0
  9 10  1  0  0  0  0
 10 13  2  0  0  0  0
 11 14  2  0  0  0  0
 12 15  1  0  0  0  0
 14 13  1  0  0  0  0
 15 11  1  0  0  0  0
 15  9  2  0  0  0  0
 16  1  1  0  0  0  0
 17 16  1  0  0  0  0
 18 20  1  0  0  0  0
 18 25  1  0  0  0  0
 19 23  1  0  0  0  0
 20 22  1  0  0  0  0
 21 20  1  0  0  0  0
 22 24  1  0  0  0  0
 22 27  1  1  0  0  0
 23 18  2  0  0  0  0
 24 17  1  6  0  0  0
 25 24  1  0  0  0  0
 27 26  1  0  0  0  0
M  END
>  <MODEL>
7

>  <REMARK>
 VINA RESULT:      -6.4      1.922      5.195
  Name = 
  7 active torsions:
  status: ('A' for Active; 'I' for Inactive)
    1  A    between atoms: C_1  and  C_15
    2  A    between atoms: C_1  and  C_18
    3  A    between atoms: N_2  and  C_6
    4  A    between atoms: N_2  and  C_15
    5  A    between atoms: C_6  and  C_17
    6  A    between atoms: C_9  and  C_15
    7  A    between atoms: C_14  and  O_19
                            x       y       z     vdW  Elec       q    Type
                         _______ _______ _______ _____ _____    ______ ____

>  <TORSDO>
F 7

$$$$
=
 OpenBabel11052418273D

 27 29  0  0  1  0  0  0  0  0999 V2000
  190.2990  176.0100  143.0530 C   0  0  2  0  0  3  0  0  0  0  0  0
  190.8530  171.9360  144.3220 C   0  0  0  0  0  3  0  0  0  0  0  0
  190.5040  174.5870  143.4770 C   0  0  0  0  0  0  0  0  0  0  0  0
  191.5490  173.8090  142.9530 C   0  0  0  0  0  3  0  0  0  0  0  0
  191.7180  172.4850  143.3710 C   0  0  0  0  0  3  0  0  0  0  0  0
  189.8170  172.7100  144.8530 C   0  0  0  0  0  3  0  0  0  0  0  0
  189.6420  174.0320  144.4300 C   0  0  0  0  0  3  0  0  0  0  0  0
  190.5990  177.0390  144.1540 C   0  0  0  0  0  2  0  0  0  0  0  0
  192.9440  176.1580  147.0350 C   0  0  0  0  0  3  0  0  0  0  0  0
  194.1850  176.2230  146.3940 C   0  0  0  0  0  3  0  0  0  0  0  0
  191.8360  176.7420  144.9540 C   0  0  0  0  0  0  0  0  0  0  0  0
  190.4690  176.3690  147.0530 C   0  0  0  0  0  1  0  0  0  0  0  0
  194.2560  176.5540  145.0400 C   0  0  0  0  0  3  0  0  0  0  0  0
  193.0850  176.8170  144.3230 C   0  0  0  0  0  3  0  0  0  0  0  0
  191.7680  176.4180  146.3240 C   0  0  0  0  0  0  0  0  0  0  0  0
  188.9820  176.1990  142.4650 N   0  0  0  0  0  2  0  0  0  0  0  0
  188.3710  177.3210  143.1650 C   0  0  0  0  0  2  0  0  0  0  0  0
  185.9760  177.5850  145.7940 C   0  0  0  0  0  0  0  0  0  0  0  0
  184.5430  178.4140  147.5000 O   0  0  0  0  0  1  0  0  0  0  0  0
  185.2600  178.1840  144.7270 N   0  0  0  0  0  0  0  0  0  0  0  0
  184.3340  179.1610  144.8800 O   0  0  0  0  0  1  0  0  0  0  0  0
  185.9270  177.9290  143.4660 C   0  0  1  0  0  3  0  0  0  0  0  0
  185.6490  177.6860  147.0810 C   0  0  0  0  0  3  0  0  0  0  0  0
  187.0420  176.9230  143.7940 C   0  0  2  0  0  3  0  0  0  0  0  0
  187.1450  176.8140  145.3220 C   0  0  0  0  0  2  0  0  0  0  0  0
  185.3550  178.1110  141.0630 S   0  0  0  0  0  1  0  0  0  0  0  0
  185.0290  177.3500  142.5690 O   0  0  0  0  0  0  0  0  0  0  0  0
  1  3  1  0  0  0  0
  1  8  1  1  0  0  0
  2  6  1  0  0  0  0
  3  7  1  0  0  0  0
  4  5  1  0  0  0  0
  4  3  2  0  0  0  0
  5  2  2  0  0  0  0
  7  6  2  0  0  0  0
  8 11  1  0  0  0  0
 10  9  1  0  0  0  0
 11 15  1  0  0  0  0
 13 10  2  0  0  0  0
 14 11  2  0  0  0  0
 14 13  1  0  0  0  0
 15  9  2  0  0  0  0
 15 12  1  0  0  0  0
 16  1  1  0  0  0  0
 16 17  1  0  0  0  0
 18 23  2  0  0  0  0
 20 21  1  0  0  0  0
 20 18  1  0  0  0  0
 22 27  1  6  0  0  0
 22 24  1  0  0  0  0
 22 20  1  0  0  0  0
 23 19  1  0  0  0  0
 24 17  1  1  0  0  0
 24 25  1  0  0  0  0
 25 18  1  0  0  0  0
 26 27  1  0  0  0  0
M  END
>  <MODEL>
8

>  <REMARK>
 VINA RESULT:      -6.4      3.569      6.698
  Name = 
  7 active torsions:
  status: ('A' for Active; 'I' for Inactive)
    1  A    between atoms: C_1  and  C_15
    2  A    between atoms: C_1  and  C_18
    3  A    between atoms: N_2  and  C_6
    4  A    between atoms: N_2  and  C_15
    5  A    between atoms: C_6  and  C_17
    6  A    between atoms: C_9  and  C_15
    7  A    between atoms: C_14  and  O_19
                            x       y       z     vdW  Elec       q    Type
                         _______ _______ _______ _____ _____    ______ ____

>  <TORSDO>
F 7

$$$$
=
 OpenBabel11052418273D

 27 29  0  0  1  0  0  0  0  0999 V2000
  187.0840  177.1560  143.1450 C   0  0  2  0  0  3  0  0  0  0  0  0
  183.8740  178.2910  140.5130 C   0  0  0  0  0  3  0  0  0  0  0  0
  185.9520  177.5480  142.2440 C   0  0  0  0  0  0  0  0  0  0  0  0
  184.6980  177.9140  142.7600 C   0  0  0  0  0  3  0  0  0  0  0  0
  183.6620  178.2790  141.8950 C   0  0  0  0  0  3  0  0  0  0  0  0
  185.1240  177.9350  139.9960 C   0  0  0  0  0  3  0  0  0  0  0  0
  186.1590  177.5630  140.8600 C   0  0  0  0  0  3  0  0  0  0  0  0
  187.4630  178.2310  144.1760 C   0  0  0  0  0  2  0  0  0  0  0  0
  186.3720  177.0250  147.6300 C   0  0  0  0  0  3  0  0  0  0  0  0
  185.3310  177.9170  147.9040 C   0  0  0  0  0  3  0  0  0  0  0  0
  186.7390  178.1080  145.4870 C   0  0  0  0  0  0  0  0  0  0  0  0
  188.1600  176.1220  146.1600 C   0  0  0  0  0  1  0  0  0  0  0  0
  184.9860  178.8970  146.9710 C   0  0  0  0  0  3  0  0  0  0  0  0
  185.6850  178.9890  145.7650 C   0  0  0  0  0  3  0  0  0  0  0  0
  187.0770  177.1130  146.4260 C   0  0  0  0  0  0  0  0  0  0  0  0
  188.2330  176.6990  142.3780 N   0  0  0  0  0  2  0  0  0  0  0  0
  189.2900  177.6780  142.5890 C   0  0  0  0  0  2  0  0  0  0  0  0
  191.6100  176.3530  144.9510 C   0  0  0  0  0  0  0  0  0  0  0  0
  192.5900  175.2420  146.8110 O   0  0  0  0  0  1  0  0  0  0  0  0
  191.1900  175.1650  144.3020 N   0  0  0  0  0  0  0  0  0  0  0  0
  191.1320  173.9490  144.8950 O   0  0  0  0  0  1  0  0  0  0  0  0
  190.4540  175.4820  143.0950 C   0  0  1  0  0  3  0  0  0  0  0  0
  192.2610  176.3970  146.1130 C   0  0  0  0  0  3  0  0  0  0  0  0
  190.6160  177.0000  142.9100 C   0  0  2  0  0  3  0  0  0  0  0  0
  191.2520  177.5660  144.1870 C   0  0  0  0  0  2  0  0  0  0  0  0
  189.8640  173.6390  141.5500 S   0  0  0  0  0  1  0  0  0  0  0  0
  191.0260  174.8190  142.0080 O   0  0  0  0  0  0  0  0  0  0  0  0
  1  8  1  6  0  0  0
  2  5  1  0  0  0  0
  3  4  1  0  0  0  0
  3  1  1  0  0  0  0
  5  4  2  0  0  0  0
  6  2  2  0  0  0  0
  6  7  1  0  0  0  0
  7  3  2  0  0  0  0
  8 11  1  0  0  0  0
  9 10  1  0  0  0  0
 11 14  2  0  0  0  0
 11 15  1  0  0  0  0
 12 15  1  0  0  0  0
 13 10  2  0  0  0  0
 14 13  1  0  0  0  0
 15  9  2  0  0  0  0
 16 17  1  0  0  0  0
 16  1  1  0  0  0  0
 18 23  2  0  0  0  0
 20 21  1  0  0  0  0
 20 18  1  0  0  0  0
 22 27  1  6  0  0  0
 22 20  1  0  0  0  0
 23 19  1  0  0  0  0
 24 17  1  1  0  0  0
 24 22  1  0  0  0  0
 24 25  1  0  0  0  0
 25 18  1  0  0  0  0
 26 27  1  0  0  0  0
M  END
>  <MODEL>
9

>  <REMARK>
 VINA RESULT:      -6.4      1.828      4.302
  Name = 
  7 active torsions:
  status: ('A' for Active; 'I' for Inactive)
    1  A    between atoms: C_1  and  C_15
    2  A    between atoms: C_1  and  C_18
    3  A    between atoms: N_2  and  C_6
    4  A    between atoms: N_2  and  C_15
    5  A    between atoms: C_6  and  C_17
    6  A    between atoms: C_9  and  C_15
    7  A    between atoms: C_14  and  O_19
                            x       y       z     vdW  Elec       q    Type
                         _______ _______ _______ _____ _____    ______ ____

>  <TORSDO>
F 7

$$$$
