=
 OpenBabel11052417303D

 25 29  0  0  1  0  0  0  0  0999 V2000
  185.6840  177.8020  143.6610 C   0  0  0  0  0  0  0  0  0  0  0  0
  186.4580  177.5160  144.7820 C   0  0  0  0  0  0  0  0  0  0  0  0
  183.9050  178.6210  145.0020 N   0  0  0  0  0  0  0  0  0  0  0  0
  185.8840  177.6750  142.3070 C   0  0  0  0  0  0  0  0  0  0  0  0
  188.3940  176.3360  145.9070 C   0  0  2  0  0  0  0  0  0  0  0  0
  185.6460  177.6850  139.5500 C   0  0  0  0  0  3  0  0  0  0  0  0
  184.6260  178.3600  146.0990 N   0  0  0  0  0  0  0  0  0  0  0  0
  184.7280  178.1470  141.7130 C   0  0  0  0  0  0  0  0  0  0  0  0
  184.5760  178.1650  140.3290 C   0  0  0  0  0  3  0  0  0  0  0  0
  186.6240  177.5280  147.2740 C   0  0  0  0  0  0  0  0  0  0  0  0
  186.2400  178.0340  148.3620 O   0  0  0  0  0  0  0  0  0  0  0  0
  187.8740  177.0420  144.6510 C   0  0  0  0  0  2  0  0  0  0  0  0
  186.8260  177.2040  140.1600 C   0  0  0  0  0  3  0  0  0  0  0  0
  184.4290  178.3420  143.7870 C   0  0  0  0  0  0  0  0  0  0  0  0
  183.8570  178.5470  142.6190 O   0  0  0  0  0  0  0  0  0  0  0  0
  187.7970  176.5910  147.2900 C   0  0  2  0  0  3  0  0  0  0  0  0
  186.9580  177.1940  141.5600 C   0  0  0  0  0  3  0  0  0  0  0  0
  189.0620  177.3140  146.8500 C   0  0  0  0  0  2  0  0  0  0  0  0
  185.8850  177.8160  146.0360 C   0  0  0  0  0  0  0  0  0  0  0  0
  189.2090  175.0700  145.7410 C   0  0  0  0  0  2  0  0  0  0  0  0
  190.0670  175.1570  144.4890 C   0  0  0  0  0  2  0  0  0  0  0  0
  192.0830  176.6740  144.6670 C   0  0  0  0  0  0  0  0  0  0  0  0
  191.4400  177.6490  144.1960 O   0  0  0  0  0  0  0  0  0  0  0  0
  193.5120  176.8460  145.0400 C   0  0  0  0  0  1  0  0  0  0  0  0
  191.4540  175.4040  144.8510 N   0  0  0  0  0  2  0  0  0  0  0  0
  1 14  1  0  0  0  0
  1  2  2  0  0  0  0
  2 19  1  0  0  0  0
  3  7  1  0  0  0  0
  4  1  1  0  0  0  0
  5 20  1  6  0  0  0
  5 18  1  0  0  0  0
  5 16  1  0  0  0  0
  6 13  2  0  0  0  0
  6  9  1  0  0  0  0
  8  4  1  0  0  0  0
  8 15  1  0  0  0  0
  9  8  2  0  0  0  0
 10 16  1  0  0  0  0
 10 11  2  0  0  0  0
 12  2  1  0  0  0  0
 12  5  1  0  0  0  0
 13 17  1  0  0  0  0
 14  3  2  0  0  0  0
 15 14  1  0  0  0  0
 16 18  1  1  0  0  0
 17  4  2  0  0  0  0
 19  7  2  0  0  0  0
 19 10  1  0  0  0  0
 21 25  1  0  0  0  0
 21 20  1  0  0  0  0
 22 25  1  0  0  0  0
 22 24  1  0  0  0  0
 23 22  2  0  0  0  0
M  END
>  <MODEL>
1

>  <REMARK>
 VINA RESULT:      -7.6      0.000      0.000
  Name = 
  3 active torsions:
  status: ('A' for Active; 'I' for Inactive)
    1  A    between atoms: C_6  and  C_15
    2  A    between atoms: C_15  and  C_25
    3  A    between atoms: N_21  and  C_25
                            x       y       z     vdW  Elec       q    Type
                         _______ _______ _______ _____ _____    ______ ____

>  <TORSDO>
F 3

$$$$
=
 OpenBabel11052417303D

 25 29  0  0  1  0  0  0  0  0999 V2000
  188.4230  176.3000  144.7330 C   0  0  0  0  0  0  0  0  0  0  0  0
  187.3910  177.0280  145.3180 C   0  0  0  0  0  0  0  0  0  0  0  0
  189.8750  176.7370  146.5590 N   0  0  0  0  0  0  0  0  0  0  0  0
  188.5430  175.5890  143.5620 C   0  0  0  0  0  0  0  0  0  0  0  0
  185.1850  178.2610  145.1870 C   0  0  2  0  0  0  0  0  0  0  0  0
  189.4270  174.0470  141.4410 C   0  0  0  0  0  3  0  0  0  0  0  0
  188.9010  177.4420  147.1490 N   0  0  0  0  0  0  0  0  0  0  0  0
  189.8300  175.0840  143.5630 C   0  0  0  0  0  0  0  0  0  0  0  0
  190.3050  174.3050  142.5100 C   0  0  0  0  0  3  0  0  0  0  0  0
  186.6410  178.4140  147.2560 C   0  0  0  0  0  0  0  0  0  0  0  0
  186.7830  178.7030  148.4740 O   0  0  0  0  0  0  0  0  0  0  0  0
  186.0240  177.0730  144.7070 C   0  0  0  0  0  2  0  0  0  0  0  0
  188.1120  174.5650  141.4450 C   0  0  0  0  0  3  0  0  0  0  0  0
  189.6390  176.1690  145.3550 C   0  0  0  0  0  0  0  0  0  0  0  0
  190.4810  175.4420  144.6510 O   0  0  0  0  0  0  0  0  0  0  0  0
  185.4500  178.9580  146.5210 C   0  0  2  0  0  3  0  0  0  0  0  0
  187.6530  175.3500  142.5170 C   0  0  0  0  0  3  0  0  0  0  0  0
  184.3650  177.8970  146.4070 C   0  0  0  0  0  2  0  0  0  0  0  0
  187.6660  177.6110  146.5740 C   0  0  0  0  0  0  0  0  0  0  0  0
  184.3670  179.0290  144.1690 C   0  0  0  0  0  2  0  0  0  0  0  0
  184.2770  178.2470  142.8690 C   0  0  0  0  0  2  0  0  0  0  0  0
  182.6440  178.1970  140.9390 C   0  0  0  0  0  0  0  0  0  0  0  0
  183.5700  177.9900  140.1100 O   0  0  0  0  0  0  0  0  0  0  0  0
  181.2410  178.3060  140.4620 C   0  0  0  0  0  1  0  0  0  0  0  0
  182.9270  178.3220  142.3340 N   0  0  0  0  0  2  0  0  0  0  0  0
  1  2  2  0  0  0  0
  1 14  1  0  0  0  0
  2 19  1  0  0  0  0
  3  7  1  0  0  0  0
  4  8  1  0  0  0  0
  4  1  1  0  0  0  0
  5 20  1  6  0  0  0
  5 18  1  0  0  0  0
  5 16  1  0  0  0  0
  6 13  2  0  0  0  0
  6  9  1  0  0  0  0
  8 15  1  0  0  0  0
  9  8  2  0  0  0  0
 10 11  2  0  0  0  0
 12  5  1  0  0  0  0
 12  2  1  0  0  0  0
 13 17  1  0  0  0  0
 14  3  2  0  0  0  0
 15 14  1  0  0  0  0
 16 18  1  1  0  0  0
 16 10  1  0  0  0  0
 17  4  2  0  0  0  0
 19  7  2  0  0  0  0
 19 10  1  0  0  0  0
 21 20  1  0  0  0  0
 22 25  1  0  0  0  0
 23 22  2  0  0  0  0
 24 22  1  0  0  0  0
 25 21  1  0  0  0  0
M  END
>  <MODEL>
2

>  <REMARK>
 VINA RESULT:      -7.6      2.152      6.022
  Name = 
  3 active torsions:
  status: ('A' for Active; 'I' for Inactive)
    1  A    between atoms: C_6  and  C_15
    2  A    between atoms: C_15  and  C_25
    3  A    between atoms: N_21  and  C_25
                            x       y       z     vdW  Elec       q    Type
                         _______ _______ _______ _____ _____    ______ ____

>  <TORSDO>
F 3

$$$$
=
 OpenBabel11052417303D

 25 29  0  0  1  0  0  0  0  0999 V2000
  187.0090  177.1140  143.0410 C   0  0  0  0  0  0  0  0  0  0  0  0
  187.6940  176.0230  142.5130 C   0  0  0  0  0  0  0  0  0  0  0  0
  186.4650  177.9200  140.8760 N   0  0  0  0  0  0  0  0  0  0  0  0
  186.7390  177.5410  144.3190 C   0  0  0  0  0  0  0  0  0  0  0  0
  189.3400  174.1120  142.7290 C   0  0  2  0  0  0  0  0  0  0  0  0
  185.8740  178.9200  146.5580 C   0  0  0  0  0  3  0  0  0  0  0  0
  187.1140  176.8800  140.3370 N   0  0  0  0  0  0  0  0  0  0  0  0
  186.0000  178.7010  144.1760 C   0  0  0  0  0  0  0  0  0  0  0  0
  185.5500  179.4180  145.2820 C   0  0  0  0  0  3  0  0  0  0  0  0
  188.4520  174.8160  140.4610 C   0  0  0  0  0  0  0  0  0  0  0  0
  188.2630  174.5770  139.2390 O   0  0  0  0  0  0  0  0  0  0  0  0
  188.2400  174.9430  143.3970 C   0  0  0  0  0  2  0  0  0  0  0  0
  186.6280  177.7330  146.7000 C   0  0  0  0  0  3  0  0  0  0  0  0
  186.4130  178.0390  142.2220 C   0  0  0  0  0  0  0  0  0  0  0  0
  185.8100  178.9910  142.9030 O   0  0  0  0  0  0  0  0  0  0  0  0
  189.4580  173.9910  141.2100 C   0  0  2  0  0  3  0  0  0  0  0  0
  187.0730  177.0250  145.5690 C   0  0  0  0  0  3  0  0  0  0  0  0
  188.7630  172.9060  142.0190 C   0  0  0  0  0  2  0  0  0  0  0  0
  187.7330  175.9250  141.1060 C   0  0  0  0  0  0  0  0  0  0  0  0
  190.5700  173.7530  143.5370 C   0  0  0  0  0  2  0  0  0  0  0  0
  190.1970  173.5500  144.9970 C   0  0  0  0  0  2  0  0  0  0  0  0
  190.2220  175.0920  147.0010 C   0  0  0  0  0  0  0  0  0  0  0  0
  189.1020  174.6670  147.3910 O   0  0  0  0  0  0  0  0  0  0  0  0
  190.9190  176.1480  147.7800 C   0  0  0  0  0  1  0  0  0  0  0  0
  190.8310  174.5680  145.8200 N   0  0  0  0  0  2  0  0  0  0  0  0
  1  4  1  0  0  0  0
  2  1  2  0  0  0  0
  2 12  1  0  0  0  0
  3 14  2  0  0  0  0
  4 17  1  0  0  0  0
  5 12  1  0  0  0  0
  5 20  1  1  0  0  0
  6 13  1  0  0  0  0
  7  3  1  0  0  0  0
  7 19  2  0  0  0  0
  8  4  2  0  0  0  0
  8  9  1  0  0  0  0
  9  6  2  0  0  0  0
 10 19  1  0  0  0  0
 10 16  1  0  0  0  0
 11 10  2  0  0  0  0
 14 15  1  0  0  0  0
 14  1  1  0  0  0  0
 15  8  1  0  0  0  0
 16 18  1  1  0  0  0
 16  5  1  0  0  0  0
 17 13  2  0  0  0  0
 18  5  1  0  0  0  0
 19  2  1  0  0  0  0
 20 21  1  0  0  0  0
 21 25  1  0  0  0  0
 22 23  2  0  0  0  0
 22 24  1  0  0  0  0
 25 22  1  0  0  0  0
M  END
>  <MODEL>
3

>  <REMARK>
 VINA RESULT:      -7.5      2.848      4.901
  Name = 
  3 active torsions:
  status: ('A' for Active; 'I' for Inactive)
    1  A    between atoms: C_6  and  C_15
    2  A    between atoms: C_15  and  C_25
    3  A    between atoms: N_21  and  C_25
                            x       y       z     vdW  Elec       q    Type
                         _______ _______ _______ _____ _____    ______ ____

>  <TORSDO>
F 3

$$$$
=
 OpenBabel11052417303D

 25 29  0  0  1  0  0  0  0  0999 V2000
  185.6360  177.8670  143.7010 C   0  0  0  0  0  0  0  0  0  0  0  0
  186.4260  177.5890  144.8130 C   0  0  0  0  0  0  0  0  0  0  0  0
  183.8750  178.6970  145.0600 N   0  0  0  0  0  0  0  0  0  0  0  0
  185.8180  177.7310  142.3450 C   0  0  0  0  0  0  0  0  0  0  0  0
  188.3770  176.4170  145.9200 C   0  0  2  0  0  0  0  0  0  0  0  0
  185.5420  177.7210  139.5910 C   0  0  0  0  0  3  0  0  0  0  0  0
  184.6120  178.4430  146.1490 N   0  0  0  0  0  0  0  0  0  0  0  0
  184.6540  178.1990  141.7640 C   0  0  0  0  0  0  0  0  0  0  0  0
  184.4830  178.2070  140.3820 C   0  0  0  0  0  3  0  0  0  0  0  0
  186.6260  177.6190  147.3030 C   0  0  0  0  0  0  0  0  0  0  0  0
  186.2560  178.1330  148.3920 O   0  0  0  0  0  0  0  0  0  0  0  0
  187.8390  177.1150  144.6670 C   0  0  0  0  0  2  0  0  0  0  0  0
  186.7300  177.2440  140.1890 C   0  0  0  0  0  3  0  0  0  0  0  0
  184.3830  178.4090  143.8400 C   0  0  0  0  0  0  0  0  0  0  0  0
  183.7950  178.6060  142.6780 O   0  0  0  0  0  0  0  0  0  0  0  0
  187.7990  176.6820  147.3090 C   0  0  2  0  0  3  0  0  0  0  0  0
  186.8810  177.2450  141.5870 C   0  0  0  0  0  3  0  0  0  0  0  0
  189.0580  177.4010  146.8470 C   0  0  0  0  0  2  0  0  0  0  0  0
  185.8690  177.8990  146.0720 C   0  0  0  0  0  0  0  0  0  0  0  0
  189.1890  175.1490  145.7520 C   0  0  0  0  0  2  0  0  0  0  0  0
  189.9750  175.1980  144.4520 C   0  0  0  0  0  2  0  0  0  0  0  0
  189.2030  173.3680  142.8870 C   0  0  0  0  0  0  0  0  0  0  0  0
  188.2800  174.0950  142.4300 O   0  0  0  0  0  0  0  0  0  0  0  0
  189.3700  171.9830  142.3740 C   0  0  0  0  0  1  0  0  0  0  0  0
  190.0930  173.8620  143.8900 N   0  0  0  0  0  2  0  0  0  0  0  0
  1 14  1  0  0  0  0
  1  2  2  0  0  0  0
  2 19  1  0  0  0  0
  3  7  1  0  0  0  0
  4  1  1  0  0  0  0
  5 20  1  6  0  0  0
  5 18  1  0  0  0  0
  5 16  1  0  0  0  0
  6 13  2  0  0  0  0
  6  9  1  0  0  0  0
  8  4  1  0  0  0  0
  8 15  1  0  0  0  0
  9  8  2  0  0  0  0
 10 16  1  0  0  0  0
 10 11  2  0  0  0  0
 12  2  1  0  0  0  0
 12  5  1  0  0  0  0
 13 17  1  0  0  0  0
 14  3  2  0  0  0  0
 15 14  1  0  0  0  0
 16 18  1  1  0  0  0
 17  4  2  0  0  0  0
 19  7  2  0  0  0  0
 19 10  1  0  0  0  0
 21 20  1  0  0  0  0
 22 25  1  0  0  0  0
 23 22  2  0  0  0  0
 24 22  1  0  0  0  0
 25 21  1  0  0  0  0
M  END
>  <MODEL>
4

>  <REMARK>
 VINA RESULT:      -7.4      1.460      2.014
  Name = 
  3 active torsions:
  status: ('A' for Active; 'I' for Inactive)
    1  A    between atoms: C_6  and  C_15
    2  A    between atoms: C_15  and  C_25
    3  A    between atoms: N_21  and  C_25
                            x       y       z     vdW  Elec       q    Type
                         _______ _______ _______ _____ _____    ______ ____

>  <TORSDO>
F 3

$$$$
=
 OpenBabel11052417303D

 25 29  0  0  1  0  0  0  0  0999 V2000
  186.1770  177.1840  143.9040 C   0  0  0  0  0  0  0  0  0  0  0  0
  187.1320  176.4230  143.2360 C   0  0  0  0  0  0  0  0  0  0  0  0
  185.1850  177.8760  141.8620 N   0  0  0  0  0  0  0  0  0  0  0  0
  185.9050  177.4210  145.2310 C   0  0  0  0  0  0  0  0  0  0  0  0
  189.3360  175.1800  143.1660 C   0  0  2  0  0  0  0  0  0  0  0  0
  184.8520  178.2930  147.6370 C   0  0  0  0  0  3  0  0  0  0  0  0
  186.0890  177.1520  141.1910 N   0  0  0  0  0  0  0  0  0  0  0  0
  184.8100  178.2650  145.2420 C   0  0  0  0  0  0  0  0  0  0  0  0
  184.2570  178.7220  146.4360 C   0  0  0  0  0  3  0  0  0  0  0  0
  188.0460  175.6650  141.0390 C   0  0  0  0  0  0  0  0  0  0  0  0
  187.8300  175.4450  139.8180 O   0  0  0  0  0  0  0  0  0  0  0  0
  188.0930  175.5470  143.9820 C   0  0  0  0  0  2  0  0  0  0  0  0
  185.9700  177.4290  147.6210 C   0  0  0  0  0  3  0  0  0  0  0  0
  185.2290  177.8940  143.2140 C   0  0  0  0  0  0  0  0  0  0  0  0
  184.4110  178.5440  144.0170 O   0  0  0  0  0  0  0  0  0  0  0  0
  189.3390  175.1920  141.6390 C   0  0  2  0  0  3  0  0  0  0  0  0
  186.5140  176.9810  146.4050 C   0  0  0  0  0  3  0  0  0  0  0  0
  189.1300  173.8910  142.4000 C   0  0  0  0  0  2  0  0  0  0  0  0
  187.0640  176.4240  141.8270 C   0  0  0  0  0  0  0  0  0  0  0  0
  190.6880  175.2170  143.8500 C   0  0  0  0  0  2  0  0  0  0  0  0
  190.6190  176.0730  145.1040 C   0  0  0  0  0  2  0  0  0  0  0  0
  192.8600  176.1050  146.2750 C   0  0  0  0  0  0  0  0  0  0  0  0
  192.6070  175.0260  146.8740 O   0  0  0  0  0  0  0  0  0  0  0  0
  194.1570  176.7900  146.5120 C   0  0  0  0  0  1  0  0  0  0  0  0
  191.9160  176.6760  145.3680 N   0  0  0  0  0  2  0  0  0  0  0  0
  1  4  1  0  0  0  0
  2  1  2  0  0  0  0
  2 12  1  0  0  0  0
  3 14  2  0  0  0  0
  4  8  2  0  0  0  0
  4 17  1  0  0  0  0
  5 20  1  1  0  0  0
  5 12  1  0  0  0  0
  7 19  2  0  0  0  0
  7  3  1  0  0  0  0
  8  9  1  0  0  0  0
  9  6  2  0  0  0  0
 10 16  1  0  0  0  0
 10 19  1  0  0  0  0
 11 10  2  0  0  0  0
 13  6  1  0  0  0  0
 14  1  1  0  0  0  0
 14 15  1  0  0  0  0
 15  8  1  0  0  0  0
 16 18  1  6  0  0  0
 16  5  1  0  0  0  0
 17 13  2  0  0  0  0
 18  5  1  0  0  0  0
 19  2  1  0  0  0  0
 20 21  1  0  0  0  0
 21 25  1  0  0  0  0
 22 24  1  0  0  0  0
 22 23  2  0  0  0  0
 25 22  1  0  0  0  0
M  END
>  <MODEL>
5

>  <REMARK>
 VINA RESULT:      -7.3      2.320      4.526
  Name = 
  3 active torsions:
  status: ('A' for Active; 'I' for Inactive)
    1  A    between atoms: C_6  and  C_15
    2  A    between atoms: C_15  and  C_25
    3  A    between atoms: N_21  and  C_25
                            x       y       z     vdW  Elec       q    Type
                         _______ _______ _______ _____ _____    ______ ____

>  <TORSDO>
F 3

$$$$
=
 OpenBabel11052417303D

 25 29  0  0  1  0  0  0  0  0999 V2000
  186.7120  177.7180  143.8960 C   0  0  0  0  0  0  0  0  0  0  0  0
  188.0450  177.5330  144.2520 C   0  0  0  0  0  0  0  0  0  0  0  0
  186.0250  177.7380  146.1680 N   0  0  0  0  0  0  0  0  0  0  0  0
  186.0570  177.8570  142.6950 C   0  0  0  0  0  0  0  0  0  0  0  0
  190.4240  176.8720  143.6990 C   0  0  2  0  0  0  0  0  0  0  0  0
  184.1800  178.1850  140.6880 C   0  0  0  0  0  3  0  0  0  0  0  0
  187.2980  177.5620  146.5420 N   0  0  0  0  0  0  0  0  0  0  0  0
  184.7220  178.0220  143.0150 C   0  0  0  0  0  0  0  0  0  0  0  0
  183.7530  178.1890  142.0290 C   0  0  0  0  0  3  0  0  0  0  0  0
  189.7000  177.2400  146.1000 C   0  0  0  0  0  0  0  0  0  0  0  0
  189.9860  177.4380  147.3100 O   0  0  0  0  0  0  0  0  0  0  0  0
  189.1360  177.5510  143.2250 C   0  0  0  0  0  2  0  0  0  0  0  0
  185.5450  178.0170  140.3650 C   0  0  0  0  0  3  0  0  0  0  0  0
  185.7310  177.8140  144.8500 C   0  0  0  0  0  0  0  0  0  0  0  0
  184.5380  177.9940  144.3210 O   0  0  0  0  0  0  0  0  0  0  0  0
  190.7690  176.7260  145.1800 C   0  0  2  0  0  3  0  0  0  0  0  0
  186.5070  177.8490  141.3760 C   0  0  0  0  0  3  0  0  0  0  0  0
  191.3580  177.8640  144.3590 C   0  0  0  0  0  2  0  0  0  0  0  0
  188.3210  177.4550  145.6330 C   0  0  0  0  0  0  0  0  0  0  0  0
  191.1610  175.9620  142.7360 C   0  0  0  0  0  2  0  0  0  0  0  0
  190.4490  174.6240  142.6300 C   0  0  0  0  0  2  0  0  0  0  0  0
  188.7250  174.3830  140.7950 C   0  0  0  0  0  0  0  0  0  0  0  0
  187.7850  174.6540  141.5900 O   0  0  0  0  0  0  0  0  0  0  0  0
  188.4210  174.0850  139.3710 C   0  0  0  0  0  1  0  0  0  0  0  0
  190.0800  174.3640  141.2470 N   0  0  0  0  0  2  0  0  0  0  0  0
  1  2  2  0  0  0  0
  1 14  1  0  0  0  0
  2 19  1  0  0  0  0
  3  7  1  0  0  0  0
  4  8  1  0  0  0  0
  4  1  1  0  0  0  0
  5 20  1  6  0  0  0
  5 18  1  0  0  0  0
  5 16  1  0  0  0  0
  6  9  1  0  0  0  0
  8 15  1  0  0  0  0
  9  8  2  0  0  0  0
 10 11  2  0  0  0  0
 12  5  1  0  0  0  0
 12  2  1  0  0  0  0
 13  6  2  0  0  0  0
 13 17  1  0  0  0  0
 14  3  2  0  0  0  0
 15 14  1  0  0  0  0
 16 18  1  6  0  0  0
 16 10  1  0  0  0  0
 17  4  2  0  0  0  0
 19 10  1  0  0  0  0
 19  7  2  0  0  0  0
 21 20  1  0  0  0  0
 22 25  1  0  0  0  0
 22 23  2  0  0  0  0
 24 22  1  0  0  0  0
 25 21  1  0  0  0  0
M  END
>  <MODEL>
6

>  <REMARK>
 VINA RESULT:      -7.3      2.226      3.275
  Name = 
  3 active torsions:
  status: ('A' for Active; 'I' for Inactive)
    1  A    between atoms: C_6  and  C_15
    2  A    between atoms: C_15  and  C_25
    3  A    between atoms: N_21  and  C_25
                            x       y       z     vdW  Elec       q    Type
                         _______ _______ _______ _____ _____    ______ ____

>  <TORSDO>
F 3

$$$$
=
 OpenBabel11052417303D

 25 29  0  0  1  0  0  0  0  0999 V2000
  186.7330  176.8920  144.3080 C   0  0  0  0  0  0  0  0  0  0  0  0
  187.8950  176.2300  143.9220 C   0  0  0  0  0  0  0  0  0  0  0  0
  185.8810  176.8530  142.0930 N   0  0  0  0  0  0  0  0  0  0  0  0
  186.2590  177.3640  145.5100 C   0  0  0  0  0  0  0  0  0  0  0  0
  190.2930  175.5280  144.3230 C   0  0  2  0  0  0  0  0  0  0  0  0
  184.7670  178.5130  147.5370 C   0  0  0  0  0  3  0  0  0  0  0  0
  186.9870  176.2130  141.6910 N   0  0  0  0  0  0  0  0  0  0  0  0
  185.0250  177.9220  145.2300 C   0  0  0  0  0  0  0  0  0  0  0  0
  184.2500  178.5080  146.2280 C   0  0  0  0  0  3  0  0  0  0  0  0
  189.2040  175.2060  142.0580 C   0  0  0  0  0  0  0  0  0  0  0  0
  189.1870  174.6670  140.9190 O   0  0  0  0  0  0  0  0  0  0  0  0
  188.9120  175.7870  144.9310 C   0  0  0  0  0  2  0  0  0  0  0  0
  186.0280  177.9400  147.8190 C   0  0  0  0  0  3  0  0  0  0  0  0
  185.7540  177.1930  143.3960 C   0  0  0  0  0  0  0  0  0  0  0  0
  184.7320  177.8120  143.9500 O   0  0  0  0  0  0  0  0  0  0  0  0
  190.4810  175.1860  142.8460 C   0  0  2  0  0  3  0  0  0  0  0  0
  186.7950  177.3550  146.7960 C   0  0  0  0  0  3  0  0  0  0  0  0
  190.4440  174.0840  143.8940 C   0  0  0  0  0  2  0  0  0  0  0  0
  188.0010  175.8890  142.5570 C   0  0  0  0  0  0  0  0  0  0  0  0
  191.5170  176.0230  145.0670 C   0  0  0  0  0  2  0  0  0  0  0  0
  191.9120  175.0290  146.1470 C   0  0  0  0  0  2  0  0  0  0  0  0
  194.4320  175.2480  146.1630 C   0  0  0  0  0  0  0  0  0  0  0  0
  194.3680  176.3940  146.6820 O   0  0  0  0  0  0  0  0  0  0  0  0
  195.7580  174.6580  145.8440 C   0  0  0  0  0  1  0  0  0  0  0  0
  193.2440  174.5060  145.8810 N   0  0  0  0  0  2  0  0  0  0  0  0
  1  4  1  0  0  0  0
  2  1  2  0  0  0  0
  2 12  1  0  0  0  0
  3 14  2  0  0  0  0
  4 17  1  0  0  0  0
  5 12  1  0  0  0  0
  5 20  1  1  0  0  0
  6 13  1  0  0  0  0
  7  3  1  0  0  0  0
  7 19  2  0  0  0  0
  8  4  2  0  0  0  0
  8  9  1  0  0  0  0
  9  6  2  0  0  0  0
 10 19  1  0  0  0  0
 10 16  1  0  0  0  0
 11 10  2  0  0  0  0
 14 15  1  0  0  0  0
 14  1  1  0  0  0  0
 15  8  1  0  0  0  0
 16 18  1  1  0  0  0
 16  5  1  0  0  0  0
 17 13  2  0  0  0  0
 18  5  1  0  0  0  0
 19  2  1  0  0  0  0
 20 21  1  0  0  0  0
 22 23  2  0  0  0  0
 24 22  1  0  0  0  0
 25 21  1  0  0  0  0
 25 22  1  0  0  0  0
M  END
>  <MODEL>
7

>  <REMARK>
 VINA RESULT:      -7.3      2.438      4.551
  Name = 
  3 active torsions:
  status: ('A' for Active; 'I' for Inactive)
    1  A    between atoms: C_6  and  C_15
    2  A    between atoms: C_15  and  C_25
    3  A    between atoms: N_21  and  C_25
                            x       y       z     vdW  Elec       q    Type
                         _______ _______ _______ _____ _____    ______ ____

>  <TORSDO>
F 3

$$$$
=
 OpenBabel11052417303D

 25 29  0  0  1  0  0  0  0  0999 V2000
  186.5840  176.8380  144.7480 C   0  0  0  0  0  0  0  0  0  0  0  0
  187.7650  176.1180  144.8980 C   0  0  0  0  0  0  0  0  0  0  0  0
  186.2770  176.9760  147.0980 N   0  0  0  0  0  0  0  0  0  0  0  0
  185.8820  177.3040  143.6610 C   0  0  0  0  0  0  0  0  0  0  0  0
  189.5820  174.6090  143.9880 C   0  0  2  0  0  0  0  0  0  0  0  0
  184.0410  178.4800  141.9620 C   0  0  0  0  0  3  0  0  0  0  0  0
  187.4110  176.2870  147.2750 N   0  0  0  0  0  0  0  0  0  0  0  0
  184.7830  177.9610  144.1800 C   0  0  0  0  0  0  0  0  0  0  0  0
  183.8370  178.5630  143.3520 C   0  0  0  0  0  3  0  0  0  0  0  0
  189.3980  175.0720  146.4730 C   0  0  0  0  0  0  0  0  0  0  0  0
  189.9010  175.0610  147.6280 O   0  0  0  0  0  0  0  0  0  0  0  0
  188.6230  175.7720  143.7190 C   0  0  0  0  0  2  0  0  0  0  0  0
  185.1680  177.8080  141.4360 C   0  0  0  0  0  3  0  0  0  0  0  0
  185.8620  177.2500  145.8400 C   0  0  0  0  0  0  0  0  0  0  0  0
  184.7820  177.9210  145.4980 O   0  0  0  0  0  0  0  0  0  0  0  0
  190.0370  174.2410  145.3990 C   0  0  2  0  0  3  0  0  0  0  0  0
  186.1090  177.2060  142.2900 C   0  0  0  0  0  3  0  0  0  0  0  0
  190.9150  175.1050  144.5070 C   0  0  0  0  0  2  0  0  0  0  0  0
  188.1720  175.8460  146.2220 C   0  0  0  0  0  0  0  0  0  0  0  0
  189.7550  173.5490  142.9190 C   0  0  0  0  0  2  0  0  0  0  0  0
  188.6370  173.6500  141.8950 C   0  0  0  0  0  2  0  0  0  0  0  0
  188.7820  173.3940  139.3830 C   0  0  0  0  0  0  0  0  0  0  0  0
  187.9130  172.4820  139.3870 O   0  0  0  0  0  0  0  0  0  0  0  0
  189.3970  173.8170  138.0980 C   0  0  0  0  0  1  0  0  0  0  0  0
  189.1810  174.0280  140.5990 N   0  0  0  0  0  2  0  0  0  0  0  0
  1  2  2  0  0  0  0
  1 14  1  0  0  0  0
  2 19  1  0  0  0  0
  3  7  1  0  0  0  0
  4  8  1  0  0  0  0
  4  1  1  0  0  0  0
  5 20  1  6  0  0  0
  5 18  1  0  0  0  0
  5 16  1  0  0  0  0
  6  9  1  0  0  0  0
  8 15  1  0  0  0  0
  9  8  2  0  0  0  0
 10 11  2  0  0  0  0
 12  5  1  0  0  0  0
 12  2  1  0  0  0  0
 13  6  2  0  0  0  0
 13 17  1  0  0  0  0
 14  3  2  0  0  0  0
 15 14  1  0  0  0  0
 16 18  1  6  0  0  0
 16 10  1  0  0  0  0
 17  4  2  0  0  0  0
 19 10  1  0  0  0  0
 19  7  2  0  0  0  0
 21 20  1  0  0  0  0
 22 23  2  0  0  0  0
 22 25  1  0  0  0  0
 24 22  1  0  0  0  0
 25 21  1  0  0  0  0
M  END
>  <MODEL>
8

>  <REMARK>
 VINA RESULT:      -7.0      2.869      4.005
  Name = 
  3 active torsions:
  status: ('A' for Active; 'I' for Inactive)
    1  A    between atoms: C_6  and  C_15
    2  A    between atoms: C_15  and  C_25
    3  A    between atoms: N_21  and  C_25
                            x       y       z     vdW  Elec       q    Type
                         _______ _______ _______ _____ _____    ______ ____

>  <TORSDO>
F 3

$$$$
=
 OpenBabel11052417303D

 25 29  0  0  1  0  0  0  0  0999 V2000
  189.6270  176.0030  144.1000 C   0  0  0  0  0  0  0  0  0  0  0  0
  188.5260  176.5320  143.4310 C   0  0  0  0  0  0  0  0  0  0  0  0
  190.2900  174.7590  142.1910 N   0  0  0  0  0  0  0  0  0  0  0  0
  190.1370  176.1590  145.3680 C   0  0  0  0  0  0  0  0  0  0  0  0
  186.2740  177.6860  143.4180 C   0  0  2  0  0  0  0  0  0  0  0  0
  191.6400  176.0240  147.6870 C   0  0  0  0  0  3  0  0  0  0  0  0
  189.2420  175.2520  141.5190 N   0  0  0  0  0  0  0  0  0  0  0  0
  191.2660  175.3620  145.4160 C   0  0  0  0  0  0  0  0  0  0  0  0
  192.0430  175.2720  146.5680 C   0  0  0  0  0  3  0  0  0  0  0  0
  187.2030  176.6190  141.3150 C   0  0  0  0  0  0  0  0  0  0  0  0
  187.1920  176.4790  140.0630 O   0  0  0  0  0  0  0  0  0  0  0  0
  187.6590  177.5790  144.0620 C   0  0  0  0  0  2  0  0  0  0  0  0
  190.4870  176.8390  147.6330 C   0  0  0  0  0  3  0  0  0  0  0  0
  190.4820  175.1300  143.4770 C   0  0  0  0  0  0  0  0  0  0  0  0
  191.4630  174.7460  144.2670 O   0  0  0  0  0  0  0  0  0  0  0  0
  186.0080  177.2350  141.9830 C   0  0  2  0  0  3  0  0  0  0  0  0
  189.7160  176.9140  146.4600 C   0  0  0  0  0  3  0  0  0  0  0  0
  186.2680  178.7010  142.2940 C   0  0  0  0  0  2  0  0  0  0  0  0
  188.3510  176.1260  142.0910 C   0  0  0  0  0  0  0  0  0  0  0  0
  185.0650  177.8370  144.3180 C   0  0  0  0  0  2  0  0  0  0  0  0
  184.9820  179.2580  144.8510 C   0  0  0  0  0  2  0  0  0  0  0  0
  185.6900  178.9970  147.2640 C   0  0  0  0  0  0  0  0  0  0  0  0
  184.6210  178.3950  147.5530 O   0  0  0  0  0  0  0  0  0  0  0  0
  186.7050  179.2410  148.3220 C   0  0  0  0  0  1  0  0  0  0  0  0
  185.9390  179.4430  145.9300 N   0  0  0  0  0  2  0  0  0  0  0  0
  1  4  1  0  0  0  0
  2 12  1  0  0  0  0
  2  1  2  0  0  0  0
  3 14  2  0  0  0  0
  4  8  2  0  0  0  0
  4 17  1  0  0  0  0
  5 12  1  0  0  0  0
  5 20  1  1  0  0  0
  7 19  2  0  0  0  0
  7  3  1  0  0  0  0
  8  9  1  0  0  0  0
  9  6  2  0  0  0  0
 10 16  1  0  0  0  0
 10 19  1  0  0  0  0
 11 10  2  0  0  0  0
 13  6  1  0  0  0  0
 14  1  1  0  0  0  0
 14 15  1  0  0  0  0
 15  8  1  0  0  0  0
 16 18  1  6  0  0  0
 16  5  1  0  0  0  0
 17 13  2  0  0  0  0
 18  5  1  0  0  0  0
 19  2  1  0  0  0  0
 20 21  1  0  0  0  0
 21 25  1  0  0  0  0
 22 23  2  0  0  0  0
 22 24  1  0  0  0  0
 25 22  1  0  0  0  0
M  END
>  <MODEL>
9

>  <REMARK>
 VINA RESULT:      -7.0      2.048      6.833
  Name = 
  3 active torsions:
  status: ('A' for Active; 'I' for Inactive)
    1  A    between atoms: C_6  and  C_15
    2  A    between atoms: C_15  and  C_25
    3  A    between atoms: N_21  and  C_25
                            x       y       z     vdW  Elec       q    Type
                         _______ _______ _______ _____ _____    ______ ____

>  <TORSDO>
F 3

$$$$
