=
 OpenBabel11052419013D

 34 38  0  0  1  0  0  0  0  0999 V2000
  185.6310  177.9680  144.0340 C   0  0  0  0  0  0  0  0  0  0  0  0
  186.0320  177.4150  146.3650 C   0  0  0  0  0  0  0  0  0  0  0  0
  187.6120  176.5410  144.5310 C   0  0  0  0  0  0  0  0  0  0  0  0
  189.8760  175.6750  144.6950 C   0  0  0  0  0  0  0  0  0  0  0  0
  184.5460  178.7640  144.4080 C   0  0  0  0  0  3  0  0  0  0  0  0
  184.9390  178.2090  146.7260 C   0  0  0  0  0  3  0  0  0  0  0  0
  189.1490  177.3950  146.3770 C   0  0  0  0  0  2  0  0  0  0  0  0
  186.4420  177.3500  145.0100 C   0  0  0  0  0  0  0  0  0  0  0  0
  190.3490  176.9110  147.1850 C   0  0  0  0  0  2  0  0  0  0  0  0
  191.1590  175.4830  145.4510 C   0  0  0  0  0  2  0  0  0  0  0  0
  184.2130  178.9010  145.7560 C   0  0  0  0  0  3  0  0  0  0  0  0
  187.5180  175.9480  143.2470 C   0  0  0  0  0  0  0  0  0  0  0  0
  185.9030  177.7300  142.5810 C   0  0  0  0  0  2  0  0  0  0  0  0
  186.6280  176.5930  147.3640 N   0  0  0  0  0  1  0  0  0  0  0  0
  189.7000  175.0160  143.5240 N   0  0  0  0  0  0  0  0  0  0  0  0
  188.5700  175.1270  142.7770 C   0  0  0  0  0  0  0  0  0  0  0  0
  191.4690  176.6500  146.2810 N   0  0  0  0  0  0  0  0  0  0  0  0
  188.8410  176.4680  145.2260 C   0  0  0  0  0  0  0  0  0  0  0  0
  186.3220  176.2720  142.3840 C   0  0  0  0  0  2  0  0  0  0  0  0
  188.1060  174.4040  139.0900 C   0  0  0  0  0  0  0  0  0  0  0  0
  188.4680  173.0570  139.0130 C   0  0  0  0  0  3  0  0  0  0  0  0
  188.5140  174.3870  141.4900 C   0  0  0  0  0  0  0  0  0  0  0  0
  188.8620  172.3740  140.1670 C   0  0  0  0  0  3  0  0  0  0  0  0
  188.1340  175.0660  140.3210 C   0  0  0  0  0  3  0  0  0  0  0  0
  188.8890  173.0380  141.3970 C   0  0  0  0  0  3  0  0  0  0  0  0
  187.7200  175.0840  137.9440 O   0  0  0  0  0  1  0  0  0  0  0  0
  192.6820  176.3920  147.0620 C   0  0  0  0  0  2  0  0  0  0  0  0
  193.6590  175.4260  146.3720 C   0  0  0  0  0  2  0  0  0  0  0  0
  195.0320  177.4540  145.8300 F   0  0  0  0  0  0  0  0  0  0  0  0
  194.4840  174.1220  143.2660 O   0  0  0  0  0  0  0  0  0  0  0  0
  194.9220  175.6510  143.8420 P   0  0  0  0  0  0  0  0  0  0  0  0
  195.8520  175.3950  145.3070 O   0  0  0  0  0  0  0  0  0  0  0  0
  194.7590  176.1250  145.5700 C   0  0  1  0  0  3  0  0  0  0  0  0
  195.7770  176.4740  142.9060 O   0  0  0  0  0  0  0  0  0  0  0  0
  1  5  2  0  0  0  0
  1  8  1  0  0  0  0
  2  6  1  0  0  0  0
  2 14  1  0  0  0  0
  3  8  1  0  0  0  0
  3 18  1  0  0  0  0
  4 18  2  0  0  0  0
  4 10  1  0  0  0  0
  5 11  1  0  0  0  0
  7  9  1  0  0  0  0
  8  2  2  0  0  0  0
 10 17  1  0  0  0  0
 11  6  2  0  0  0  0
 12  3  2  0  0  0  0
 13  1  1  0  0  0  0
 15  4  1  0  0  0  0
 16 12  1  0  0  0  0
 16 15  2  0  0  0  0
 17 27  1  0  0  0  0
 17  9  1  0  0  0  0
 18  7  1  0  0  0  0
 19 13  1  0  0  0  0
 19 12  1  0  0  0  0
 20 24  1  0  0  0  0
 21 20  2  0  0  0  0
 21 23  1  0  0  0  0
 22 16  1  0  0  0  0
 23 25  2  0  0  0  0
 24 22  2  0  0  0  0
 25 22  1  0  0  0  0
 26 20  1  0  0  0  0
 28 27  1  0  0  0  0
 30 31  2  0  0  0  0
 31 32  1  0  0  0  0
 32 33  1  0  0  0  0
 33 29  1  1  0  0  0
 33 28  1  0  0  0  0
 34 31  2  0  0  0  0
M  END
>  <MODEL>
1

>  <REMARK>
 VINA RESULT:      -9.1      0.000      0.000
  Name = 
  4 active torsions:
  status: ('A' for Active; 'I' for Inactive)
    1  A    between atoms: C_3  and  C_13
    2  A    between atoms: C_3  and  N_29
    3  A    between atoms: C_12  and  C_28
    4  A    between atoms: C_13  and  C_33
                            x       y       z     vdW  Elec       q    Type
                         _______ _______ _______ _____ _____    ______ ____

>  <TORSDO>
F 4

$$$$
=
 OpenBabel11052419013D

 34 38  0  0  1  0  0  0  0  0999 V2000
  186.5570  176.7640  144.4450 C   0  0  0  0  0  0  0  0  0  0  0  0
  187.7440  176.2190  146.4940 C   0  0  0  0  0  0  0  0  0  0  0  0
  188.8310  175.7770  144.2040 C   0  0  0  0  0  0  0  0  0  0  0  0
  191.1620  175.4110  143.6220 C   0  0  0  0  0  0  0  0  0  0  0  0
  185.5040  177.2940  145.1950 C   0  0  0  0  0  3  0  0  0  0  0  0
  186.6790  176.7450  147.2330 C   0  0  0  0  0  3  0  0  0  0  0  0
  190.6600  176.8670  145.6070 C   0  0  0  0  0  2  0  0  0  0  0  0
  187.7290  176.2970  145.0790 C   0  0  0  0  0  0  0  0  0  0  0  0
  192.1180  176.6210  145.9820 C   0  0  0  0  0  2  0  0  0  0  0  0
  192.6260  175.4690  143.9530 C   0  0  0  0  0  2  0  0  0  0  0  0
  185.5750  177.3030  146.5880 C   0  0  0  0  0  3  0  0  0  0  0  0
  188.4710  175.2290  142.9480 C   0  0  0  0  0  0  0  0  0  0  0  0
  186.4170  176.6480  142.9600 C   0  0  0  0  0  2  0  0  0  0  0  0
  188.7600  175.5050  147.1910 N   0  0  0  0  0  1  0  0  0  0  0  0
  190.7710  174.7770  142.4890 N   0  0  0  0  0  0  0  0  0  0  0  0
  189.4680  174.6720  142.1140 C   0  0  0  0  0  0  0  0  0  0  0  0
  192.9400  176.6420  144.7730 N   0  0  0  0  0  0  0  0  0  0  0  0
  190.2030  175.9420  144.5060 C   0  0  0  0  0  0  0  0  0  0  0  0
  187.0300  175.3230  142.5030 C   0  0  0  0  0  2  0  0  0  0  0  0
  188.2440  174.0870  138.5810 C   0  0  0  0  0  0  0  0  0  0  0  0
  188.6500  172.7700  138.3490 C   0  0  0  0  0  3  0  0  0  0  0  0
  189.1690  173.9890  140.8300 C   0  0  0  0  0  0  0  0  0  0  0  0
  189.3230  172.0630  139.3490 C   0  0  0  0  0  3  0  0  0  0  0  0
  188.5070  174.6930  139.8120 C   0  0  0  0  0  3  0  0  0  0  0  0
  189.5850  172.6710  140.5800 C   0  0  0  0  0  3  0  0  0  0  0  0
  187.5800  174.7920  137.5870 O   0  0  0  0  0  1  0  0  0  0  0  0
  194.3590  176.6200  145.1420 C   0  0  0  0  0  2  0  0  0  0  0  0
  194.7570  175.3820  145.9630 C   0  0  0  0  0  2  0  0  0  0  0  0
  196.8240  175.2860  144.5450 F   0  0  0  0  0  0  0  0  0  0  0  0
  194.5860  171.9210  145.8270 O   0  0  0  0  0  0  0  0  0  0  0  0
  195.7150  172.8850  145.0170 P   0  0  0  0  0  0  0  0  0  0  0  0
  196.5820  173.7910  146.2460 O   0  0  0  0  0  0  0  0  0  0  0  0
  195.9630  174.6270  145.4000 C   0  0  1  0  0  3  0  0  0  0  0  0
  196.7440  172.1330  144.2060 O   0  0  0  0  0  0  0  0  0  0  0  0
  1  8  2  0  0  0  0
  1  5  1  0  0  0  0
  2 14  1  0  0  0  0
  2  6  2  0  0  0  0
  3 18  1  0  0  0  0
  3  8  1  0  0  0  0
  4 10  1  0  0  0  0
  4 18  2  0  0  0  0
  5 11  2  0  0  0  0
  7  9  1  0  0  0  0
  8  2  1  0  0  0  0
 10 17  1  0  0  0  0
 11  6  1  0  0  0  0
 12  3  2  0  0  0  0
 13  1  1  0  0  0  0
 15  4  1  0  0  0  0
 16 15  2  0  0  0  0
 16 12  1  0  0  0  0
 17 27  1  0  0  0  0
 17  9  1  0  0  0  0
 18  7  1  0  0  0  0
 19 12  1  0  0  0  0
 19 13  1  0  0  0  0
 20 24  1  0  0  0  0
 21 20  2  0  0  0  0
 21 23  1  0  0  0  0
 22 16  1  0  0  0  0
 23 25  2  0  0  0  0
 24 22  2  0  0  0  0
 25 22  1  0  0  0  0
 26 20  1  0  0  0  0
 27 28  1  0  0  0  0
 31 30  2  0  0  0  0
 31 32  1  0  0  0  0
 33 29  1  1  0  0  0
 33 28  1  0  0  0  0
 33 32  1  0  0  0  0
 34 31  2  0  0  0  0
M  END
>  <MODEL>
2

>  <REMARK>
 VINA RESULT:      -8.8      1.699      1.992
  Name = 
  4 active torsions:
  status: ('A' for Active; 'I' for Inactive)
    1  A    between atoms: C_3  and  C_13
    2  A    between atoms: C_3  and  N_29
    3  A    between atoms: C_12  and  C_28
    4  A    between atoms: C_13  and  C_33
                            x       y       z     vdW  Elec       q    Type
                         _______ _______ _______ _____ _____    ______ ____

>  <TORSDO>
F 4

$$$$
=
 OpenBabel11052419013D

 34 38  0  0  1  0  0  0  0  0999 V2000
  191.7630  176.3210  145.5570 C   0  0  0  0  0  0  0  0  0  0  0  0
  191.9740  173.9740  144.9640 C   0  0  0  0  0  0  0  0  0  0  0  0
  189.9030  175.3180  144.2360 C   0  0  0  0  0  0  0  0  0  0  0  0
  188.2620  174.8520  142.5060 C   0  0  0  0  0  0  0  0  0  0  0  0
  193.0270  176.2860  146.1500 C   0  0  0  0  0  3  0  0  0  0  0  0
  193.2350  173.9500  145.5680 C   0  0  0  0  0  3  0  0  0  0  0  0
  190.6040  174.0090  142.1640 C   0  0  0  0  0  2  0  0  0  0  0  0
  191.2530  175.1910  144.8810 C   0  0  0  0  0  0  0  0  0  0  0  0
  189.9750  173.0940  141.1180 C   0  0  0  0  0  2  0  0  0  0  0  0
  187.8180  174.1060  141.2800 C   0  0  0  0  0  2  0  0  0  0  0  0
  193.7710  175.1060  146.1370 C   0  0  0  0  0  3  0  0  0  0  0  0
  188.9920  176.2450  144.7990 C   0  0  0  0  0  0  0  0  0  0  0  0
  190.9230  177.5530  145.6840 C   0  0  0  0  0  2  0  0  0  0  0  0
  191.3980  172.7370  144.5570 N   0  0  0  0  0  1  0  0  0  0  0  0
  187.3730  175.6490  143.1460 N   0  0  0  0  0  0  0  0  0  0  0  0
  187.6870  176.3570  144.2640 C   0  0  0  0  0  0  0  0  0  0  0  0
  188.9460  173.8310  140.3860 N   0  0  0  0  0  0  0  0  0  0  0  0
  189.5590  174.6740  143.0250 C   0  0  0  0  0  0  0  0  0  0  0  0
  189.4680  177.1440  145.9150 C   0  0  0  0  0  2  0  0  0  0  0  0
  185.4020  179.3250  144.8110 C   0  0  0  0  0  0  0  0  0  0  0  0
  184.6060  178.8840  145.8710 C   0  0  0  0  0  3  0  0  0  0  0  0
  186.6360  177.2270  144.8510 C   0  0  0  0  0  0  0  0  0  0  0  0
  184.8140  177.6150  146.4180 C   0  0  0  0  0  3  0  0  0  0  0  0
  186.4070  178.4990  144.3010 C   0  0  0  0  0  3  0  0  0  0  0  0
  185.8200  176.7910  145.9070 C   0  0  0  0  0  3  0  0  0  0  0  0
  185.1930  180.5830  144.2630 O   0  0  0  0  0  1  0  0  0  0  0  0
  188.4870  173.0340  139.2450 C   0  0  0  0  0  2  0  0  0  0  0  0
  188.3570  173.8450  137.9450 C   0  0  0  0  0  2  0  0  0  0  0  0
  190.8550  173.7730  137.7230 F   0  0  0  0  0  0  0  0  0  0  0  0
  188.1880  175.2920  134.7980 O   0  0  0  0  0  0  0  0  0  0  0  0
  189.6090  174.9120  135.6330 P   0  0  0  0  0  0  0  0  0  0  0  0
  189.5710  173.1830  135.9370 O   0  0  0  0  0  0  0  0  0  0  0  0
  189.6280  173.8590  137.0940 C   0  0  1  0  0  3  0  0  0  0  0  0
  190.8930  175.2090  134.8950 O   0  0  0  0  0  0  0  0  0  0  0  0
  1 13  1  0  0  0  0
  1  5  1  0  0  0  0
  2  6  2  0  0  0  0
  3 12  1  0  0  0  0
  3  8  1  0  0  0  0
  4 18  1  0  0  0  0
  4 15  2  0  0  0  0
  6 11  1  0  0  0  0
  7 18  1  0  0  0  0
  8  2  1  0  0  0  0
  8  1  2  0  0  0  0
  9  7  1  0  0  0  0
 10  4  1  0  0  0  0
 11  5  2  0  0  0  0
 12 19  1  0  0  0  0
 13 19  1  0  0  0  0
 14  2  1  0  0  0  0
 15 16  1  0  0  0  0
 16 12  2  0  0  0  0
 16 22  1  0  0  0  0
 17  9  1  0  0  0  0
 17 10  1  0  0  0  0
 18  3  2  0  0  0  0
 20 21  1  0  0  0  0
 21 23  2  0  0  0  0
 22 25  2  0  0  0  0
 24 20  2  0  0  0  0
 24 22  1  0  0  0  0
 25 23  1  0  0  0  0
 26 20  1  0  0  0  0
 27 17  1  0  0  0  0
 28 27  1  0  0  0  0
 30 31  2  0  0  0  0
 31 32  1  0  0  0  0
 32 33  1  0  0  0  0
 33 29  1  1  0  0  0
 33 28  1  0  0  0  0
 34 31  2  0  0  0  0
M  END
>  <MODEL>
3

>  <REMARK>
 VINA RESULT:      -8.6      4.115      7.551
  Name = 
  4 active torsions:
  status: ('A' for Active; 'I' for Inactive)
    1  A    between atoms: C_3  and  C_13
    2  A    between atoms: C_3  and  N_29
    3  A    between atoms: C_12  and  C_28
    4  A    between atoms: C_13  and  C_33
                            x       y       z     vdW  Elec       q    Type
                         _______ _______ _______ _____ _____    ______ ____

>  <TORSDO>
F 4

$$$$
=
 OpenBabel11052419013D

 34 38  0  0  1  0  0  0  0  0999 V2000
  187.2460  177.5490  145.9870 C   0  0  0  0  0  0  0  0  0  0  0  0
  186.5440  178.4180  143.8290 C   0  0  0  0  0  0  0  0  0  0  0  0
  188.5710  176.8420  143.9990 C   0  0  0  0  0  0  0  0  0  0  0  0
  189.6750  175.5190  142.2860 C   0  0  0  0  0  0  0  0  0  0  0  0
  186.1640  178.1870  146.5970 C   0  0  0  0  0  3  0  0  0  0  0  0
  185.4680  179.0580  144.4540 C   0  0  0  0  0  3  0  0  0  0  0  0
  187.2160  175.9660  142.0260 C   0  0  0  0  0  2  0  0  0  0  0  0
  187.4050  177.5840  144.5840 C   0  0  0  0  0  0  0  0  0  0  0  0
  187.4380  175.5630  140.5710 C   0  0  0  0  0  2  0  0  0  0  0  0
  189.7030  174.8940  140.9210 C   0  0  0  0  0  2  0  0  0  0  0  0
  185.2640  178.9240  145.8280 C   0  0  0  0  0  3  0  0  0  0  0  0
  189.7210  176.6800  144.8120 C   0  0  0  0  0  0  0  0  0  0  0  0
  188.2720  176.8650  146.8350 C   0  0  0  0  0  2  0  0  0  0  0  0
  186.8120  178.7260  142.4650 N   0  0  0  0  0  1  0  0  0  0  0  0
  190.8010  175.4970  143.0400 N   0  0  0  0  0  0  0  0  0  0  0  0
  190.8670  176.0410  144.2840 C   0  0  0  0  0  0  0  0  0  0  0  0
  188.3700  174.4390  140.5160 N   0  0  0  0  0  0  0  0  0  0  0  0
  188.5230  176.1820  142.7500 C   0  0  0  0  0  0  0  0  0  0  0  0
  189.6600  177.1320  146.2520 C   0  0  0  0  0  2  0  0  0  0  0  0
  194.2570  176.9060  145.7290 C   0  0  0  0  0  0  0  0  0  0  0  0
  194.5470  175.7680  146.4860 C   0  0  0  0  0  3  0  0  0  0  0  0
  192.1470  175.9160  145.0280 C   0  0  0  0  0  0  0  0  0  0  0  0
  193.6380  174.7070  146.5250 C   0  0  0  0  0  3  0  0  0  0  0  0
  193.0620  176.9810  145.0090 C   0  0  0  0  0  3  0  0  0  0  0  0
  192.4430  174.7840  145.8040 C   0  0  0  0  0  3  0  0  0  0  0  0
  195.1570  177.9620  145.6940 O   0  0  0  0  0  1  0  0  0  0  0  0
  188.4240  173.9100  139.1500 C   0  0  0  0  0  2  0  0  0  0  0  0
  188.3700  172.3750  139.0860 C   0  0  0  0  0  2  0  0  0  0  0  0
  189.6340  171.1070  137.3300 F   0  0  0  0  0  0  0  0  0  0  0  0
  190.7790  171.4380  141.3980 O   0  0  0  0  0  0  0  0  0  0  0  0
  190.7190  170.9440  139.7810 P   0  0  0  0  0  0  0  0  0  0  0  0
  190.7920  172.4000  138.8040 O   0  0  0  0  0  0  0  0  0  0  0  0
  189.6550  171.7310  138.5610 C   0  0  1  0  0  3  0  0  0  0  0  0
  191.8510  170.0480  139.3360 O   0  0  0  0  0  0  0  0  0  0  0  0
  1  5  1  0  0  0  0
  1 13  1  0  0  0  0
  2  6  2  0  0  0  0
  2  8  1  0  0  0  0
  3  8  1  0  0  0  0
  3 12  1  0  0  0  0
  4 18  1  0  0  0  0
  4 15  2  0  0  0  0
  6 11  1  0  0  0  0
  7 18  1  0  0  0  0
  8  1  2  0  0  0  0
  9  7  1  0  0  0  0
 10  4  1  0  0  0  0
 11  5  2  0  0  0  0
 12 19  1  0  0  0  0
 14  2  1  0  0  0  0
 15 16  1  0  0  0  0
 16 12  2  0  0  0  0
 16 22  1  0  0  0  0
 17  9  1  0  0  0  0
 17 10  1  0  0  0  0
 18  3  2  0  0  0  0
 19 13  1  0  0  0  0
 20 21  1  0  0  0  0
 21 23  2  0  0  0  0
 22 25  2  0  0  0  0
 24 22  1  0  0  0  0
 24 20  2  0  0  0  0
 25 23  1  0  0  0  0
 26 20  1  0  0  0  0
 27 17  1  0  0  0  0
 28 27  1  0  0  0  0
 31 30  2  0  0  0  0
 32 31  1  0  0  0  0
 33 29  1  6  0  0  0
 33 32  1  0  0  0  0
 33 28  1  0  0  0  0
 34 31  2  0  0  0  0
M  END
>  <MODEL>
4

>  <REMARK>
 VINA RESULT:      -8.6      3.228      6.475
  Name = 
  4 active torsions:
  status: ('A' for Active; 'I' for Inactive)
    1  A    between atoms: C_3  and  C_13
    2  A    between atoms: C_3  and  N_29
    3  A    between atoms: C_12  and  C_28
    4  A    between atoms: C_13  and  C_33
                            x       y       z     vdW  Elec       q    Type
                         _______ _______ _______ _____ _____    ______ ____

>  <TORSDO>
F 4

$$$$
=
 OpenBabel11052419013D

 34 38  0  0  1  0  0  0  0  0999 V2000
  191.6760  176.3530  145.1440 C   0  0  0  0  0  0  0  0  0  0  0  0
  191.7740  173.9380  144.8920 C   0  0  0  0  0  0  0  0  0  0  0  0
  189.8110  175.2710  143.8970 C   0  0  0  0  0  0  0  0  0  0  0  0
  188.2080  174.6510  142.1790 C   0  0  0  0  0  0  0  0  0  0  0  0
  192.9150  176.3370  145.7900 C   0  0  0  0  0  3  0  0  0  0  0  0
  193.0100  173.9350  145.5470 C   0  0  0  0  0  3  0  0  0  0  0  0
  190.5080  173.6480  142.0580 C   0  0  0  0  0  2  0  0  0  0  0  0
  191.1270  175.1670  144.6100 C   0  0  0  0  0  0  0  0  0  0  0  0
  189.8650  172.6290  141.1230 C   0  0  0  0  0  2  0  0  0  0  0  0
  187.7650  173.7630  141.0510 C   0  0  0  0  0  2  0  0  0  0  0  0
  193.5910  175.1310  145.9720 C   0  0  0  0  0  3  0  0  0  0  0  0
  188.9340  176.3130  144.2860 C   0  0  0  0  0  0  0  0  0  0  0  0
  190.9040  177.6320  145.0630 C   0  0  0  0  0  2  0  0  0  0  0  0
  191.1430  172.6870  144.6370 N   0  0  0  0  0  1  0  0  0  0  0  0
  187.3430  175.5750  142.6640 N   0  0  0  0  0  0  0  0  0  0  0  0
  187.6570  176.4160  143.6850 C   0  0  0  0  0  0  0  0  0  0  0  0
  188.9060  173.3070  140.2530 N   0  0  0  0  0  0  0  0  0  0  0  0
  189.4730  174.4810  142.7730 C   0  0  0  0  0  0  0  0  0  0  0  0
  189.4210  177.3360  145.2860 C   0  0  0  0  0  2  0  0  0  0  0  0
  184.8760  178.0760  145.6440 C   0  0  0  0  0  0  0  0  0  0  0  0
  184.7470  179.2990  144.9820 C   0  0  0  0  0  3  0  0  0  0  0  0
  186.6380  177.4130  144.1010 C   0  0  0  0  0  0  0  0  0  0  0  0
  185.5660  179.5890  143.8870 C   0  0  0  0  0  3  0  0  0  0  0  0
  185.8190  177.1420  145.2080 C   0  0  0  0  0  3  0  0  0  0  0  0
  186.5090  178.6520  143.4530 C   0  0  0  0  0  3  0  0  0  0  0  0
  184.0670  177.7900  146.7350 O   0  0  0  0  0  1  0  0  0  0  0  0
  188.4430  172.3820  139.2150 C   0  0  0  0  0  2  0  0  0  0  0  0
  189.5860  171.6290  138.5130 C   0  0  0  0  0  2  0  0  0  0  0  0
  189.3630  170.9240  136.1170 F   0  0  0  0  0  0  0  0  0  0  0  0
  191.7270  174.1610  137.4970 O   0  0  0  0  0  0  0  0  0  0  0  0
  191.0500  172.9800  136.4940 P   0  0  0  0  0  0  0  0  0  0  0  0
  189.3070  173.1430  136.6230 O   0  0  0  0  0  0  0  0  0  0  0  0
  189.6910  171.9200  137.0150 C   0  0  1  0  0  3  0  0  0  0  0  0
  191.4030  173.0960  135.0290 O   0  0  0  0  0  0  0  0  0  0  0  0
  1  5  1  0  0  0  0
  2  6  2  0  0  0  0
  3 12  1  0  0  0  0
  3  8  1  0  0  0  0
  4 15  2  0  0  0  0
  4 18  1  0  0  0  0
  5 11  2  0  0  0  0
  6 11  1  0  0  0  0
  7 18  1  0  0  0  0
  8  2  1  0  0  0  0
  8  1  2  0  0  0  0
  9  7  1  0  0  0  0
 10  4  1  0  0  0  0
 12 19  1  0  0  0  0
 13  1  1  0  0  0  0
 13 19  1  0  0  0  0
 14  2  1  0  0  0  0
 15 16  1  0  0  0  0
 16 22  1  0  0  0  0
 16 12  2  0  0  0  0
 17 10  1  0  0  0  0
 17  9  1  0  0  0  0
 18  3  2  0  0  0  0
 20 26  1  0  0  0  0
 21 20  2  0  0  0  0
 22 24  2  0  0  0  0
 23 21  1  0  0  0  0
 24 20  1  0  0  0  0
 25 23  2  0  0  0  0
 25 22  1  0  0  0  0
 27 17  1  0  0  0  0
 28 27  1  0  0  0  0
 31 32  1  0  0  0  0
 31 30  2  0  0  0  0
 32 33  1  0  0  0  0
 33 29  1  6  0  0  0
 33 28  1  0  0  0  0
 34 31  2  0  0  0  0
M  END
>  <MODEL>
5

>  <REMARK>
 VINA RESULT:      -8.6      3.872      7.519
  Name = 
  4 active torsions:
  status: ('A' for Active; 'I' for Inactive)
    1  A    between atoms: C_3  and  C_13
    2  A    between atoms: C_3  and  N_29
    3  A    between atoms: C_12  and  C_28
    4  A    between atoms: C_13  and  C_33
                            x       y       z     vdW  Elec       q    Type
                         _______ _______ _______ _____ _____    ______ ____

>  <TORSDO>
F 4

$$$$
=
 OpenBabel11052419013D

 34 38  0  0  1  0  0  0  0  0999 V2000
  191.2750  173.4030  140.0560 C   0  0  0  0  0  0  0  0  0  0  0  0
  188.8810  173.0040  140.1750 C   0  0  0  0  0  0  0  0  0  0  0  0
  189.9940  174.7120  141.7450 C   0  0  0  0  0  0  0  0  0  0  0  0
  189.0160  176.5240  143.0350 C   0  0  0  0  0  0  0  0  0  0  0  0
  191.3690  172.5190  138.9790 C   0  0  0  0  0  3  0  0  0  0  0  0
  188.9900  172.1150  139.1010 C   0  0  0  0  0  3  0  0  0  0  0  0
  187.8980  175.8770  140.8800 C   0  0  0  0  0  2  0  0  0  0  0  0
  190.0190  173.7240  140.6160 C   0  0  0  0  0  0  0  0  0  0  0  0
  186.6990  176.6400  141.4330 C   0  0  0  0  0  2  0  0  0  0  0  0
  187.8800  177.4580  143.3400 C   0  0  0  0  0  2  0  0  0  0  0  0
  190.2240  171.8910  138.4890 C   0  0  0  0  0  3  0  0  0  0  0  0
  191.1480  174.8040  142.5620 C   0  0  0  0  0  0  0  0  0  0  0  0
  192.5230  173.9740  140.6520 C   0  0  0  0  0  2  0  0  0  0  0  0
  187.6430  173.0650  140.8760 N   0  0  0  0  0  1  0  0  0  0  0  0
  190.0810  176.4930  143.8720 N   0  0  0  0  0  0  0  0  0  0  0  0
  191.1510  175.6770  143.6760 C   0  0  0  0  0  0  0  0  0  0  0  0
  187.1640  177.8430  142.1200 N   0  0  0  0  0  0  0  0  0  0  0  0
  188.9480  175.6440  141.9380 C   0  0  0  0  0  0  0  0  0  0  0  0
  192.3770  174.0150  142.1740 C   0  0  0  0  0  2  0  0  0  0  0  0
  194.1390  177.0280  145.5660 C   0  0  0  0  0  0  0  0  0  0  0  0
  194.3690  176.0170  146.5020 C   0  0  0  0  0  3  0  0  0  0  0  0
  192.2760  175.7630  144.6420 C   0  0  0  0  0  0  0  0  0  0  0  0
  193.5520  174.8840  146.5190 C   0  0  0  0  0  3  0  0  0  0  0  0
  193.0950  176.9030  144.6450 C   0  0  0  0  0  3  0  0  0  0  0  0
  192.5090  174.7610  145.5970 C   0  0  0  0  0  3  0  0  0  0  0  0
  194.9460  178.1570  145.5520 O   0  0  0  0  0  1  0  0  0  0  0  0
  186.0170  178.6870  142.4680 C   0  0  0  0  0  2  0  0  0  0  0  0
  185.2190  178.1660  143.6740 C   0  0  0  0  0  2  0  0  0  0  0  0
  185.5660  180.4520  144.6480 F   0  0  0  0  0  0  0  0  0  0  0  0
  185.2880  176.8620  146.8870 O   0  0  0  0  0  0  0  0  0  0  0  0
  185.5470  178.4820  146.4740 P   0  0  0  0  0  0  0  0  0  0  0  0
  184.0960  179.0350  145.6560 O   0  0  0  0  0  0  0  0  0  0  0  0
  185.1590  179.1470  144.8470 C   0  0  1  0  0  3  0  0  0  0  0  0
  185.7880  179.4150  147.6380 O   0  0  0  0  0  0  0  0  0  0  0  0
  1  8  1  0  0  0  0
  1 13  1  0  0  0  0
  2  8  2  0  0  0  0
  2 14  1  0  0  0  0
  3 18  2  0  0  0  0
  3 12  1  0  0  0  0
  4 10  1  0  0  0  0
  4 15  2  0  0  0  0
  5  1  2  0  0  0  0
  6  2  1  0  0  0  0
  7  9  1  0  0  0  0
  7 18  1  0  0  0  0
  8  3  1  0  0  0  0
  9 17  1  0  0  0  0
 11  5  1  0  0  0  0
 11  6  2  0  0  0  0
 12 16  2  0  0  0  0
 13 19  1  0  0  0  0
 16 15  1  0  0  0  0
 16 22  1  0  0  0  0
 17 27  1  0  0  0  0
 17 10  1  0  0  0  0
 18  4  1  0  0  0  0
 19 12  1  0  0  0  0
 20 21  1  0  0  0  0
 21 23  2  0  0  0  0
 22 24  1  0  0  0  0
 22 25  2  0  0  0  0
 24 20  2  0  0  0  0
 25 23  1  0  0  0  0
 26 20  1  0  0  0  0
 27 28  1  0  0  0  0
 28 33  1  0  0  0  0
 31 30  2  0  0  0  0
 31 34  2  0  0  0  0
 32 31  1  0  0  0  0
 33 29  1  6  0  0  0
 33 32  1  0  0  0  0
M  END
>  <MODEL>
6

>  <REMARK>
 VINA RESULT:      -8.5      4.281      8.092
  Name = 
  4 active torsions:
  status: ('A' for Active; 'I' for Inactive)
    1  A    between atoms: C_3  and  C_13
    2  A    between atoms: C_3  and  N_29
    3  A    between atoms: C_12  and  C_28
    4  A    between atoms: C_13  and  C_33
                            x       y       z     vdW  Elec       q    Type
                         _______ _______ _______ _____ _____    ______ ____

>  <TORSDO>
F 4

$$$$
=
 OpenBabel11052419013D

 34 38  0  0  1  0  0  0  0  0999 V2000
  187.4530  177.8500  144.8250 C   0  0  0  0  0  0  0  0  0  0  0  0
  187.0050  178.1920  142.4610 C   0  0  0  0  0  0  0  0  0  0  0  0
  188.9240  176.6500  143.2120 C   0  0  0  0  0  0  0  0  0  0  0  0
  190.1170  174.9240  141.9870 C   0  0  0  0  0  0  0  0  0  0  0  0
  186.3510  178.6450  145.1500 C   0  0  0  0  0  3  0  0  0  0  0  0
  185.9090  178.9920  142.8000 C   0  0  0  0  0  3  0  0  0  0  0  0
  187.7210  175.3600  141.3720 C   0  0  0  0  0  2  0  0  0  0  0  0
  187.7460  177.5410  143.4790 C   0  0  0  0  0  0  0  0  0  0  0  0
  188.0590  174.6130  140.0860 C   0  0  0  0  0  2  0  0  0  0  0  0
  190.2430  173.9880  140.8200 C   0  0  0  0  0  2  0  0  0  0  0  0
  185.5670  179.1990  144.1370 C   0  0  0  0  0  3  0  0  0  0  0  0
  189.9800  176.6580  144.1560 C   0  0  0  0  0  0  0  0  0  0  0  0
  188.3570  177.3640  145.9140 C   0  0  0  0  0  2  0  0  0  0  0  0
  187.4180  178.1550  141.0990 N   0  0  0  0  0  1  0  0  0  0  0  0
  191.1630  175.0540  142.8390 N   0  0  0  0  0  0  0  0  0  0  0  0
  191.1380  175.8800  143.9180 C   0  0  0  0  0  0  0  0  0  0  0  0
  188.9340  173.4840  140.3970 N   0  0  0  0  0  0  0  0  0  0  0  0
  188.9610  175.7090  142.1570 C   0  0  0  0  0  0  0  0  0  0  0  0
  189.8060  177.4450  145.4340 C   0  0  0  0  0  2  0  0  0  0  0  0
  194.2610  177.1100  145.6680 C   0  0  0  0  0  0  0  0  0  0  0  0
  194.5590  176.0380  146.5130 C   0  0  0  0  0  3  0  0  0  0  0  0
  192.3330  175.9050  144.8010 C   0  0  0  0  0  0  0  0  0  0  0  0
  193.7440  174.9030  146.5130 C   0  0  0  0  0  3  0  0  0  0  0  0
  193.1510  177.0450  144.8220 C   0  0  0  0  0  3  0  0  0  0  0  0
  192.6350  174.8400  145.6650 C   0  0  0  0  0  3  0  0  0  0  0  0
  195.0670  178.2400  145.6720 O   0  0  0  0  0  1  0  0  0  0  0  0
  189.0910  172.6400  139.2080 C   0  0  0  0  0  2  0  0  0  0  0  0
  188.5650  173.2950  137.9210 C   0  0  0  0  0  2  0  0  0  0  0  0
  189.7380  174.9160  136.4080 F   0  0  0  0  0  0  0  0  0  0  0  0
  189.8980  170.6940  136.0540 O   0  0  0  0  0  0  0  0  0  0  0  0
  190.0780  172.3420  135.7180 P   0  0  0  0  0  0  0  0  0  0  0  0
  190.8550  173.0630  137.1170 O   0  0  0  0  0  0  0  0  0  0  0  0
  189.6590  173.6300  136.9040 C   0  0  1  0  0  3  0  0  0  0  0  0
  190.9310  172.6670  134.5150 O   0  0  0  0  0  0  0  0  0  0  0  0
  1  5  1  0  0  0  0
  1 13  1  0  0  0  0
  2  6  2  0  0  0  0
  2  8  1  0  0  0  0
  3  8  1  0  0  0  0
  3 12  1  0  0  0  0
  4 18  1  0  0  0  0
  4 15  2  0  0  0  0
  6 11  1  0  0  0  0
  7 18  1  0  0  0  0
  8  1  2  0  0  0  0
  9 17  1  0  0  0  0
  9  7  1  0  0  0  0
 10  4  1  0  0  0  0
 11  5  2  0  0  0  0
 12 19  1  0  0  0  0
 14  2  1  0  0  0  0
 15 16  1  0  0  0  0
 16 12  2  0  0  0  0
 16 22  1  0  0  0  0
 17 10  1  0  0  0  0
 18  3  2  0  0  0  0
 19 13  1  0  0  0  0
 20 26  1  0  0  0  0
 20 21  1  0  0  0  0
 21 23  2  0  0  0  0
 22 24  1  0  0  0  0
 22 25  2  0  0  0  0
 24 20  2  0  0  0  0
 25 23  1  0  0  0  0
 27 17  1  0  0  0  0
 28 27  1  0  0  0  0
 31 30  2  0  0  0  0
 31 32  1  0  0  0  0
 33 29  1  1  0  0  0
 33 32  1  0  0  0  0
 33 28  1  0  0  0  0
 34 31  2  0  0  0  0
M  END
>  <MODEL>
7

>  <REMARK>
 VINA RESULT:      -8.4      3.384      6.966
  Name = 
  4 active torsions:
  status: ('A' for Active; 'I' for Inactive)
    1  A    between atoms: C_3  and  C_13
    2  A    between atoms: C_3  and  N_29
    3  A    between atoms: C_12  and  C_28
    4  A    between atoms: C_13  and  C_33
                            x       y       z     vdW  Elec       q    Type
                         _______ _______ _______ _____ _____    ______ ____

>  <TORSDO>
F 4

$$$$
=
 OpenBabel11052419013D

 34 38  0  0  1  0  0  0  0  0999 V2000
  187.1260  177.6180  143.9200 C   0  0  0  0  0  0  0  0  0  0  0  0
  187.6950  177.0050  146.2010 C   0  0  0  0  0  0  0  0  0  0  0  0
  189.0520  176.0680  144.2250 C   0  0  0  0  0  0  0  0  0  0  0  0
  191.2640  175.0650  144.1800 C   0  0  0  0  0  0  0  0  0  0  0  0
  186.1290  178.4720  144.3970 C   0  0  0  0  0  3  0  0  0  0  0  0
  186.6890  177.8580  146.6660 C   0  0  0  0  0  3  0  0  0  0  0  0
  190.7940  176.7980  145.9370 C   0  0  0  0  0  2  0  0  0  0  0  0
  187.9800  176.9370  144.8150 C   0  0  0  0  0  0  0  0  0  0  0  0
  192.0290  176.2310  146.6300 C   0  0  0  0  0  2  0  0  0  0  0  0
  192.5950  174.7840  144.8170 C   0  0  0  0  0  2  0  0  0  0  0  0
  185.9240  178.6070  145.7700 C   0  0  0  0  0  3  0  0  0  0  0  0
  188.8100  175.5020  142.9490 C   0  0  0  0  0  0  0  0  0  0  0  0
  187.2540  177.3870  142.4470 C   0  0  0  0  0  2  0  0  0  0  0  0
  188.3250  176.1340  147.1350 N   0  0  0  0  0  1  0  0  0  0  0  0
  190.9470  174.4360  143.0220 N   0  0  0  0  0  0  0  0  0  0  0  0
  189.7650  174.6270  142.3780 C   0  0  0  0  0  0  0  0  0  0  0  0
  193.0470  175.9170  145.6290 N   0  0  0  0  0  0  0  0  0  0  0  0
  190.3300  175.9100  144.8090 C   0  0  0  0  0  0  0  0  0  0  0  0
  187.5650  175.9110  142.1980 C   0  0  0  0  0  2  0  0  0  0  0  0
  190.4320  173.1580  138.9540 C   0  0  0  0  0  0  0  0  0  0  0  0
  189.2290  172.5030  138.6820 C   0  0  0  0  0  3  0  0  0  0  0  0
  189.5500  173.9120  141.0940 C   0  0  0  0  0  0  0  0  0  0  0  0
  188.1880  172.5410  139.6140 C   0  0  0  0  0  3  0  0  0  0  0  0
  190.5930  173.8540  140.1560 C   0  0  0  0  0  3  0  0  0  0  0  0
  188.3510  173.2380  140.8150 C   0  0  0  0  0  3  0  0  0  0  0  0
  191.4680  173.1160  138.0320 O   0  0  0  0  0  1  0  0  0  0  0  0
  194.3050  175.5750  146.2970 C   0  0  0  0  0  2  0  0  0  0  0  0
  195.3910  175.0710  145.3320 C   0  0  0  0  0  2  0  0  0  0  0  0
  195.7040  177.4580  144.6270 F   0  0  0  0  0  0  0  0  0  0  0  0
  195.6040  174.1320  142.0010 O   0  0  0  0  0  0  0  0  0  0  0  0
  195.6240  175.7200  142.5810 P   0  0  0  0  0  0  0  0  0  0  0  0
  196.9960  175.8460  143.6680 O   0  0  0  0  0  0  0  0  0  0  0  0
  195.8570  176.1200  144.3200 C   0  0  1  0  0  3  0  0  0  0  0  0
  195.7870  176.7910  141.5270 O   0  0  0  0  0  0  0  0  0  0  0  0
  1  5  2  0  0  0  0
  1  8  1  0  0  0  0
  2  6  1  0  0  0  0
  2 14  1  0  0  0  0
  3 18  1  0  0  0  0
  3  8  1  0  0  0  0
  4 18  2  0  0  0  0
  4 10  1  0  0  0  0
  5 11  1  0  0  0  0
  7  9  1  0  0  0  0
  8  2  2  0  0  0  0
 10 17  1  0  0  0  0
 11  6  2  0  0  0  0
 12  3  2  0  0  0  0
 13  1  1  0  0  0  0
 15  4  1  0  0  0  0
 16 12  1  0  0  0  0
 16 15  2  0  0  0  0
 17 27  1  0  0  0  0
 17  9  1  0  0  0  0
 18  7  1  0  0  0  0
 19 13  1  0  0  0  0
 19 12  1  0  0  0  0
 20 24  1  0  0  0  0
 21 20  2  0  0  0  0
 21 23  1  0  0  0  0
 22 16  1  0  0  0  0
 23 25  2  0  0  0  0
 24 22  2  0  0  0  0
 25 22  1  0  0  0  0
 26 20  1  0  0  0  0
 28 27  1  0  0  0  0
 30 31  2  0  0  0  0
 31 32  1  0  0  0  0
 32 33  1  0  0  0  0
 33 29  1  1  0  0  0
 33 28  1  0  0  0  0
 34 31  2  0  0  0  0
M  END
>  <MODEL>
8

>  <REMARK>
 VINA RESULT:      -8.3      1.500      1.804
  Name = 
  4 active torsions:
  status: ('A' for Active; 'I' for Inactive)
    1  A    between atoms: C_3  and  C_13
    2  A    between atoms: C_3  and  N_29
    3  A    between atoms: C_12  and  C_28
    4  A    between atoms: C_13  and  C_33
                            x       y       z     vdW  Elec       q    Type
                         _______ _______ _______ _____ _____    ______ ____

>  <TORSDO>
F 4

$$$$
=
 OpenBabel11052419013D

 34 38  0  0  1  0  0  0  0  0999 V2000
  191.9320  174.0310  144.6180 C   0  0  0  0  0  0  0  0  0  0  0  0
  191.7460  176.4480  144.7870 C   0  0  0  0  0  0  0  0  0  0  0  0
  190.4520  175.1680  142.9680 C   0  0  0  0  0  0  0  0  0  0  0  0
  188.5350  175.8470  141.6380 C   0  0  0  0  0  0  0  0  0  0  0  0
  192.7490  174.0140  145.7510 C   0  0  0  0  0  3  0  0  0  0  0  0
  192.5720  176.4170  145.9160 C   0  0  0  0  0  3  0  0  0  0  0  0
  188.7670  176.8110  143.9470 C   0  0  0  0  0  2  0  0  0  0  0  0
  191.3490  175.2360  144.1690 C   0  0  0  0  0  0  0  0  0  0  0  0
  187.7700  177.8580  143.4600 C   0  0  0  0  0  2  0  0  0  0  0  0
  187.3740  176.7620  141.3750 C   0  0  0  0  0  2  0  0  0  0  0  0
  193.0520  175.2040  146.4110 C   0  0  0  0  0  3  0  0  0  0  0  0
  190.6900  174.1340  142.0290 C   0  0  0  0  0  0  0  0  0  0  0  0
  191.7150  172.7670  143.8470 C   0  0  0  0  0  2  0  0  0  0  0  0
  191.4290  177.7140  144.2180 N   0  0  0  0  0  1  0  0  0  0  0  0
  188.8720  174.9300  140.6990 N   0  0  0  0  0  0  0  0  0  0  0  0
  189.9090  174.0640  140.8500 C   0  0  0  0  0  0  0  0  0  0  0  0
  186.7570  177.2130  142.6260 N   0  0  0  0  0  0  0  0  0  0  0  0
  189.3080  175.9840  142.8070 C   0  0  0  0  0  0  0  0  0  0  0  0
  191.7280  173.0850  142.3520 C   0  0  0  0  0  2  0  0  0  0  0  0
  191.4630  172.3790  137.8390 C   0  0  0  0  0  0  0  0  0  0  0  0
  190.7140  171.2040  137.7470 C   0  0  0  0  0  3  0  0  0  0  0  0
  190.1540  173.0780  139.7670 C   0  0  0  0  0  0  0  0  0  0  0  0
  189.6910  170.9560  138.6670 C   0  0  0  0  0  3  0  0  0  0  0  0
  191.1880  173.3070  138.8460 C   0  0  0  0  0  3  0  0  0  0  0  0
  189.4170  171.8860  139.6730 C   0  0  0  0  0  3  0  0  0  0  0  0
  192.4830  172.6230  136.9290 O   0  0  0  0  0  1  0  0  0  0  0  0
  185.6830  178.1650  142.3310 C   0  0  0  0  0  2  0  0  0  0  0  0
  184.5180  178.1020  143.3330 C   0  0  0  0  0  2  0  0  0  0  0  0
  185.1380  180.3470  144.2630 F   0  0  0  0  0  0  0  0  0  0  0  0
  184.8160  176.7750  146.5230 O   0  0  0  0  0  0  0  0  0  0  0  0
  185.1550  178.3730  146.0840 P   0  0  0  0  0  0  0  0  0  0  0  0
  183.6740  179.0410  145.4190 O   0  0  0  0  0  0  0  0  0  0  0  0
  184.6540  179.0760  144.5040 C   0  0  1  0  0  3  0  0  0  0  0  0
  185.5850  179.2770  147.2150 O   0  0  0  0  0  0  0  0  0  0  0  0
  1  5  1  0  0  0  0
  2  6  2  0  0  0  0
  3  8  1  0  0  0  0
  4 18  2  0  0  0  0
  5 11  2  0  0  0  0
  6 11  1  0  0  0  0
  8  1  2  0  0  0  0
  8  2  1  0  0  0  0
  9  7  1  0  0  0  0
 10  4  1  0  0  0  0
 10 17  1  0  0  0  0
 12 19  1  0  0  0  0
 12  3  2  0  0  0  0
 13  1  1  0  0  0  0
 14  2  1  0  0  0  0
 15 16  2  0  0  0  0
 15  4  1  0  0  0  0
 16 12  1  0  0  0  0
 17  9  1  0  0  0  0
 18  3  1  0  0  0  0
 18  7  1  0  0  0  0
 19 13  1  0  0  0  0
 20 24  1  0  0  0  0
 21 20  2  0  0  0  0
 21 23  1  0  0  0  0
 22 16  1  0  0  0  0
 23 25  2  0  0  0  0
 24 22  2  0  0  0  0
 25 22  1  0  0  0  0
 26 20  1  0  0  0  0
 27 17  1  0  0  0  0
 27 28  1  0  0  0  0
 28 33  1  0  0  0  0
 31 30  2  0  0  0  0
 31 34  2  0  0  0  0
 32 31  1  0  0  0  0
 33 29  1  6  0  0  0
 33 32  1  0  0  0  0
M  END
>  <MODEL>
9

>  <REMARK>
 VINA RESULT:      -8.2      4.359      6.968
  Name = 
  4 active torsions:
  status: ('A' for Active; 'I' for Inactive)
    1  A    between atoms: C_3  and  C_13
    2  A    between atoms: C_3  and  N_29
    3  A    between atoms: C_12  and  C_28
    4  A    between atoms: C_13  and  C_33
                            x       y       z     vdW  Elec       q    Type
                         _______ _______ _______ _____ _____    ______ ____

>  <TORSDO>
F 4

$$$$
