=
 OpenBabel11052419043D

 32 37  0  0  1  0  0  0  0  0999 V2000
  189.5620  174.6120  144.5210 C   0  0  1  0  0  3  0  0  0  0  0  0
  187.9430  176.3430  144.1910 C   0  0  1  0  0  3  0  0  0  0  0  0
  190.7920  174.0970  145.2890 C   0  0  0  0  0  2  0  0  0  0  0  0
  189.0830  175.9190  145.0100 N   0  0  1  0  0  0  0  0  0  0  0  0
  187.4180  177.6820  144.6920 C   0  0  1  0  0  3  0  0  0  0  0  0
  186.1730  177.5280  139.7630 C   0  0  0  0  0  3  0  0  0  0  0  0
  188.3490  176.4820  142.7200 C   0  0  1  0  0  3  0  0  0  0  0  0
  185.2270  178.4710  141.7830 C   0  0  0  0  0  3  0  0  0  0  0  0
  186.2480  177.8870  142.5380 C   0  0  0  0  0  0  0  0  0  0  0  0
  188.5620  175.7900  146.3890 C   0  0  2  0  0  3  0  0  0  0  0  0
  186.2850  178.0860  143.9250 O   0  0  0  0  0  0  0  0  0  0  0  0
  188.2100  177.0600  146.9050 O   0  0  0  0  0  0  0  0  0  0  0  0
  189.5460  175.1160  147.3510 C   0  0  0  0  0  2  0  0  0  0  0  0
  188.7260  175.1690  142.2000 N   0  0  0  0  0  2  0  0  0  0  0  0
  189.8210  174.6050  142.9940 C   0  0  1  0  0  3  0  0  0  0  0  0
  187.2270  177.0870  141.9060 C   0  0  0  0  0  0  0  0  0  0  0  0
  187.0990  177.5730  146.1860 C   0  0  2  0  0  3  0  0  0  0  0  0
  191.2470  175.1430  146.7120 S   0  0  0  0  0  0  0  0  0  0  0  0
  185.1890  178.2910  140.3980 C   0  0  0  0  0  3  0  0  0  0  0  0
  187.1930  176.9340  140.5130 C   0  0  0  0  0  3  0  0  0  0  0  0
  193.2460  174.6560  141.2160 C   0  0  0  0  0  0  0  0  0  0  0  0
  194.0180  173.9150  140.3800 F   0  0  0  0  0  0  0  0  0  0  0  0
  192.9280  176.6330  142.5150 N   0  0  0  0  0  0  0  0  0  0  0  0
  191.1920  174.9830  142.4780 C   0  0  0  0  0  0  0  0  0  0  0  0
  193.7090  175.8890  141.6890 C   0  0  0  0  0  0  0  0  0  0  0  0
  191.7020  176.2090  142.9140 C   0  0  0  0  0  3  0  0  0  0  0  0
  191.9830  174.1910  141.6150 C   0  0  0  0  0  0  0  0  0  0  0  0
  191.5210  172.8730  141.0940 C   0  0  0  0  0  1  0  0  0  0  0  0
  195.9120  176.4140  142.3470 O   0  0  0  0  0  1  0  0  0  0  0  0
  195.0350  176.4170  141.2630 C   0  0  0  0  0  2  0  0  0  0  0  0
  185.8150  176.7910  146.4730 C   0  0  0  0  0  2  0  0  0  0  0  0
  184.8090  177.6670  146.8820 O   0  0  0  0  0  1  0  0  0  0  0  0
  1  4  1  0  0  0  0
  1  3  1  1  0  0  0
  2  5  1  0  0  0  0
  2  4  1  0  0  0  0
  3 18  1  0  0  0  0
  4 10  1  0  0  0  0
  5 17  1  0  0  0  0
  6 19  2  0  0  0  0
  6 20  1  0  0  0  0
  7  2  1  0  0  0  0
  8  9  2  0  0  0  0
  9 11  1  0  0  0  0
 10 12  1  0  0  0  0
 10 13  1  0  0  0  0
 11  5  1  0  0  0  0
 14  7  1  0  0  0  0
 14 15  1  0  0  0  0
 15  1  1  0  0  0  0
 16  9  1  0  0  0  0
 16  7  1  0  0  0  0
 17 31  1  0  0  0  0
 17 12  1  0  0  0  0
 18 13  1  0  0  0  0
 19  8  1  0  0  0  0
 20 16  2  0  0  0  0
 21 27  2  0  0  0  0
 21 25  1  0  0  0  0
 22 21  1  0  0  0  0
 23 26  1  0  0  0  0
 24 26  2  0  0  0  0
 24 15  1  0  0  0  0
 25 23  2  0  0  0  0
 27 24  1  0  0  0  0
 28 27  1  0  0  0  0
 30 25  1  0  0  0  0
 30 29  1  0  0  0  0
 31 32  1  0  0  0  0
M  END
>  <MODEL>
1

>  <REMARK>
 VINA RESULT:      -7.8      0.000      0.000
  Name = 
  3 active torsions:
  status: ('A' for Active; 'I' for Inactive)
    1  A    between atoms: C_13  and  C_29
    2  A    between atoms: C_16  and  C_27
    3  A    between atoms: CA_19  and  C_26
                            x       y       z     vdW  Elec       q    Type
                         _______ _______ _______ _____ _____    ______ ____

>  <TORSDO>
F 3

$$$$
=
 OpenBabel11052419043D

 32 37  0  0  1  0  0  0  0  0999 V2000
  190.6700  176.6590  144.4050 C   0  0  1  0  0  3  0  0  0  0  0  0
  190.8700  174.5130  143.3680 C   0  0  1  0  0  3  0  0  0  0  0  0
  190.6450  177.4920  145.6980 C   0  0  0  0  0  2  0  0  0  0  0  0
  190.9080  175.2230  144.6490 N   0  0  1  0  0  0  0  0  0  0  0  0
  191.1360  173.0290  143.5930 C   0  0  1  0  0  3  0  0  0  0  0  0
  188.3440  173.2480  139.3470 C   0  0  0  0  0  3  0  0  0  0  0  0
  189.5070  174.6810  142.6890 C   0  0  1  0  0  3  0  0  0  0  0  0
  190.0970  171.8260  140.2240 C   0  0  0  0  0  3  0  0  0  0  0  0
  190.2110  172.6500  141.3460 C   0  0  0  0  0  0  0  0  0  0  0  0
  192.2710  175.0150  145.1860 C   0  0  2  0  0  3  0  0  0  0  0  0
  191.1380  172.3330  142.3480 O   0  0  0  0  0  0  0  0  0  0  0  0
  192.4640  173.6560  145.5310 O   0  0  0  0  0  0  0  0  0  0  0  0
  192.5870  175.8890  146.4040 C   0  0  0  0  0  2  0  0  0  0  0  0
  189.3100  176.0890  142.3500 N   0  0  0  0  0  2  0  0  0  0  0  0
  189.4010  176.9180  143.5560 C   0  0  1  0  0  3  0  0  0  0  0  0
  189.4050  173.8060  141.4590 C   0  0  0  0  0  0  0  0  0  0  0  0
  192.4540  172.8620  144.3550 C   0  0  2  0  0  3  0  0  0  0  0  0
  191.0780  176.5320  147.1870 S   0  0  0  0  0  0  0  0  0  0  0  0
  189.1660  172.1250  139.2260 C   0  0  0  0  0  3  0  0  0  0  0  0
  188.4580  174.0820  140.4640 C   0  0  0  0  0  3  0  0  0  0  0  0
  185.8280  178.0000  144.5320 C   0  0  0  0  0  0  0  0  0  0  0  0
  184.7890  178.7550  144.0870 F   0  0  0  0  0  0  0  0  0  0  0  0
  186.7620  176.5520  146.1830 N   0  0  0  0  0  0  0  0  0  0  0  0
  188.0730  177.1050  144.2560 C   0  0  0  0  0  0  0  0  0  0  0  0
  185.7270  177.3150  145.7480 C   0  0  0  0  0  0  0  0  0  0  0  0
  187.9140  176.4390  145.4740 C   0  0  0  0  0  3  0  0  0  0  0  0
  187.0080  177.9030  143.7790 C   0  0  0  0  0  0  0  0  0  0  0  0
  187.0840  178.6470  142.4890 C   0  0  0  0  0  1  0  0  0  0  0  0
  184.4980  178.5180  147.3630 O   0  0  0  0  0  1  0  0  0  0  0  0
  184.4760  177.3810  146.5560 C   0  0  0  0  0  2  0  0  0  0  0  0
  193.6890  173.1040  143.4840 C   0  0  0  0  0  2  0  0  0  0  0  0
  194.8400  172.7490  144.1870 O   0  0  0  0  0  1  0  0  0  0  0  0
  1  4  1  0  0  0  0
  1  3  1  1  0  0  0
  2  5  1  0  0  0  0
  2  4  1  0  0  0  0
  3 18  1  0  0  0  0
  4 10  1  0  0  0  0
  5 17  1  0  0  0  0
  6 20  1  0  0  0  0
  7  2  1  0  0  0  0
  8  9  2  0  0  0  0
  9 16  1  0  0  0  0
  9 11  1  0  0  0  0
 10 12  1  0  0  0  0
 10 13  1  0  0  0  0
 11  5  1  0  0  0  0
 13 18  1  0  0  0  0
 14  7  1  0  0  0  0
 14 15  1  0  0  0  0
 15 24  1  0  0  0  0
 15  1  1  0  0  0  0
 16  7  1  0  0  0  0
 17 12  1  0  0  0  0
 19  6  2  0  0  0  0
 19  8  1  0  0  0  0
 20 16  2  0  0  0  0
 21 25  1  0  0  0  0
 22 21  1  0  0  0  0
 24 26  2  0  0  0  0
 25 23  2  0  0  0  0
 25 30  1  0  0  0  0
 26 23  1  0  0  0  0
 27 24  1  0  0  0  0
 27 21  2  0  0  0  0
 28 27  1  0  0  0  0
 30 29  1  0  0  0  0
 31 32  1  0  0  0  0
 31 17  1  0  0  0  0
M  END
>  <MODEL>
2

>  <REMARK>
 VINA RESULT:      -6.9      3.150      6.757
  Name = 
  3 active torsions:
  status: ('A' for Active; 'I' for Inactive)
    1  A    between atoms: C_13  and  C_29
    2  A    between atoms: C_16  and  C_27
    3  A    between atoms: CA_19  and  C_26
                            x       y       z     vdW  Elec       q    Type
                         _______ _______ _______ _____ _____    ______ ____

>  <TORSDO>
F 3

$$$$
=
 OpenBabel11052419043D

 32 37  0  0  1  0  0  0  0  0999 V2000
  190.3130  174.6660  144.8960 C   0  0  1  0  0  3  0  0  0  0  0  0
  189.1790  175.1380  142.8430 C   0  0  1  0  0  3  0  0  0  0  0  0
  190.9620  175.1960  146.1870 C   0  0  0  0  0  2  0  0  0  0  0  0
  189.7300  175.7360  144.0630 N   0  0  1  0  0  0  0  0  0  0  0  0
  188.5510  176.2220  141.9760 C   0  0  1  0  0  3  0  0  0  0  0  0
  189.9320  172.5600  138.7280 C   0  0  0  0  0  3  0  0  0  0  0  0
  190.2730  174.4250  142.0410 C   0  0  1  0  0  3  0  0  0  0  0  0
  188.1580  174.2030  138.8700 C   0  0  0  0  0  3  0  0  0  0  0  0
  188.6290  174.6090  140.1210 C   0  0  0  0  0  0  0  0  0  0  0  0
  188.5830  176.3580  144.7610 C   0  0  2  0  0  3  0  0  0  0  0  0
  187.9790  175.6470  140.8030 O   0  0  0  0  0  0  0  0  0  0  0  0
  188.0930  177.4600  144.0190 O   0  0  0  0  0  0  0  0  0  0  0  0
  188.9130  176.8220  146.1830 C   0  0  0  0  0  2  0  0  0  0  0  0
  190.7840  173.2990  142.8210 N   0  0  0  0  0  2  0  0  0  0  0  0
  191.3010  173.7690  144.1090 C   0  0  1  0  0  3  0  0  0  0  0  0
  189.7450  173.9640  140.7000 C   0  0  0  0  0  0  0  0  0  0  0  0
  187.5220  176.9980  142.8050 C   0  0  2  0  0  3  0  0  0  0  0  0
  190.7050  176.9830  146.4450 S   0  0  0  0  0  0  0  0  0  0  0  0
  188.8080  173.1800  138.1750 C   0  0  0  0  0  3  0  0  0  0  0  0
  190.4040  172.9560  139.9830 C   0  0  0  0  0  3  0  0  0  0  0  0
  195.1440  173.8160  144.4500 C   0  0  0  0  0  0  0  0  0  0  0  0
  196.1800  173.0560  144.8920 F   0  0  0  0  0  0  0  0  0  0  0  0
  194.3500  175.8330  143.4490 N   0  0  0  0  0  0  0  0  0  0  0  0
  192.7650  174.1460  144.0660 C   0  0  0  0  0  0  0  0  0  0  0  0
  195.3870  175.0810  143.9020 C   0  0  0  0  0  0  0  0  0  0  0  0
  193.0670  175.3980  143.5230 C   0  0  0  0  0  3  0  0  0  0  0  0
  193.8270  173.3430  144.5410 C   0  0  0  0  0  0  0  0  0  0  0  0
  193.6030  171.9920  145.1310 C   0  0  0  0  0  1  0  0  0  0  0  0
  196.7840  176.7320  142.9600 O   0  0  0  0  0  1  0  0  0  0  0  0
  196.7780  175.5980  143.7710 C   0  0  0  0  0  2  0  0  0  0  0  0
  186.2240  176.2200  143.0360 C   0  0  0  0  0  2  0  0  0  0  0  0
  185.1350  177.0890  142.9730 O   0  0  0  0  0  1  0  0  0  0  0  0
  1  3  1  1  0  0  0
  2  4  1  0  0  0  0
  3 18  1  0  0  0  0
  4 10  1  0  0  0  0
  4  1  1  0  0  0  0
  5 17  1  0  0  0  0
  5  2  1  0  0  0  0
  6 20  1  0  0  0  0
  7 14  1  0  0  0  0
  7  2  1  0  0  0  0
  8  9  2  0  0  0  0
  9 16  1  0  0  0  0
  9 11  1  0  0  0  0
 10 13  1  0  0  0  0
 11  5  1  0  0  0  0
 12 10  1  0  0  0  0
 13 18  1  0  0  0  0
 14 15  1  0  0  0  0
 15  1  1  0  0  0  0
 16  7  1  0  0  0  0
 17 31  1  0  0  0  0
 17 12  1  0  0  0  0
 19  6  2  0  0  0  0
 19  8  1  0  0  0  0
 20 16  2  0  0  0  0
 21 27  1  0  0  0  0
 21 22  1  0  0  0  0
 23 26  2  0  0  0  0
 23 25  1  0  0  0  0
 24 15  1  0  0  0  0
 24 27  2  0  0  0  0
 25 21  2  0  0  0  0
 26 24  1  0  0  0  0
 27 28  1  0  0  0  0
 29 30  1  0  0  0  0
 30 25  1  0  0  0  0
 32 31  1  0  0  0  0
M  END
>  <MODEL>
3

>  <REMARK>
 VINA RESULT:      -6.8      2.471      3.582
  Name = 
  3 active torsions:
  status: ('A' for Active; 'I' for Inactive)
    1  A    between atoms: C_13  and  C_29
    2  A    between atoms: C_16  and  C_27
    3  A    between atoms: CA_19  and  C_26
                            x       y       z     vdW  Elec       q    Type
                         _______ _______ _______ _____ _____    ______ ____

>  <TORSDO>
F 3

$$$$
=
 OpenBabel11052419043D

 32 37  0  0  1  0  0  0  0  0999 V2000
  188.0220  175.6810  144.6150 C   0  0  1  0  0  3  0  0  0  0  0  0
  187.1580  176.7440  142.6530 C   0  0  1  0  0  3  0  0  0  0  0  0
  188.6460  175.8210  146.0140 C   0  0  0  0  0  2  0  0  0  0  0  0
  187.7040  176.9810  143.9930 N   0  0  1  0  0  0  0  0  0  0  0  0
  186.8020  178.0730  141.9990 C   0  0  1  0  0  3  0  0  0  0  0  0
  187.7810  174.9130  138.1360 C   0  0  0  0  0  3  0  0  0  0  0  0
  188.1720  176.0070  141.7720 C   0  0  1  0  0  3  0  0  0  0  0  0
  186.3160  176.8010  138.5310 C   0  0  0  0  0  3  0  0  0  0  0  0
  186.7470  176.8630  139.8590 C   0  0  0  0  0  0  0  0  0  0  0  0
  186.6310  177.6620  144.7510 C   0  0  2  0  0  3  0  0  0  0  0  0
  186.2350  177.8520  140.7080 O   0  0  0  0  0  0  0  0  0  0  0  0
  186.4030  178.9570  144.2280 O   0  0  0  0  0  0  0  0  0  0  0  0
  186.9200  177.7720  146.2510 C   0  0  0  0  0  2  0  0  0  0  0  0
  188.4130  174.6760  142.3270 N   0  0  0  0  0  2  0  0  0  0  0  0
  188.8980  174.7830  143.7060 C   0  0  1  0  0  3  0  0  0  0  0  0
  187.6820  175.9200  140.3430 C   0  0  0  0  0  0  0  0  0  0  0  0
  185.8610  178.8540  142.9210 C   0  0  2  0  0  3  0  0  0  0  0  0
  188.6850  177.5400  146.6210 S   0  0  0  0  0  0  0  0  0  0  0  0
  186.8310  175.8270  137.6710 C   0  0  0  0  0  3  0  0  0  0  0  0
  188.2100  174.9630  139.4650 C   0  0  0  0  0  3  0  0  0  0  0  0
  192.6430  174.0670  144.2970 C   0  0  0  0  0  0  0  0  0  0  0  0
  193.4830  173.0800  144.7040 F   0  0  0  0  0  0  0  0  0  0  0  0
  192.3130  176.2970  143.5140 N   0  0  0  0  0  0  0  0  0  0  0  0
  190.4040  174.8810  143.8070 C   0  0  0  0  0  0  0  0  0  0  0  0
  193.1550  175.3170  143.9330 C   0  0  0  0  0  0  0  0  0  0  0  0
  190.9710  176.1070  143.4490 C   0  0  0  0  0  3  0  0  0  0  0  0
  191.2590  173.8430  144.2420 C   0  0  0  0  0  0  0  0  0  0  0  0
  190.7460  172.5000  144.6390 C   0  0  0  0  0  1  0  0  0  0  0  0
  194.9000  176.6230  144.8350 O   0  0  0  0  0  1  0  0  0  0  0  0
  194.6220  175.5740  143.9590 C   0  0  0  0  0  2  0  0  0  0  0  0
  184.4320  178.3040  142.9310 C   0  0  0  0  0  2  0  0  0  0  0  0
  183.6490  179.0390  143.8210 O   0  0  0  0  0  1  0  0  0  0  0  0
  1  3  1  1  0  0  0
  2  4  1  0  0  0  0
  3 18  1  0  0  0  0
  4  1  1  0  0  0  0
  4 10  1  0  0  0  0
  5  2  1  0  0  0  0
  5 17  1  0  0  0  0
  6 20  1  0  0  0  0
  7 14  1  0  0  0  0
  7  2  1  0  0  0  0
  8  9  2  0  0  0  0
  9 16  1  0  0  0  0
  9 11  1  0  0  0  0
 10 13  1  0  0  0  0
 11  5  1  0  0  0  0
 12 10  1  0  0  0  0
 13 18  1  0  0  0  0
 14 15  1  0  0  0  0
 15 24  1  0  0  0  0
 15  1  1  0  0  0  0
 16  7  1  0  0  0  0
 17 31  1  0  0  0  0
 17 12  1  0  0  0  0
 19  6  2  0  0  0  0
 19  8  1  0  0  0  0
 20 16  2  0  0  0  0
 21 22  1  0  0  0  0
 23 25  1  0  0  0  0
 24 27  2  0  0  0  0
 25 30  1  0  0  0  0
 25 21  2  0  0  0  0
 26 23  2  0  0  0  0
 26 24  1  0  0  0  0
 27 21  1  0  0  0  0
 27 28  1  0  0  0  0
 30 29  1  0  0  0  0
 31 32  1  0  0  0  0
M  END
>  <MODEL>
4

>  <REMARK>
 VINA RESULT:      -6.8      2.057      2.918
  Name = 
  3 active torsions:
  status: ('A' for Active; 'I' for Inactive)
    1  A    between atoms: C_13  and  C_29
    2  A    between atoms: C_16  and  C_27
    3  A    between atoms: CA_19  and  C_26
                            x       y       z     vdW  Elec       q    Type
                         _______ _______ _______ _____ _____    ______ ____

>  <TORSDO>
F 3

$$$$
=
 OpenBabel11052419043D

 32 37  0  0  1  0  0  0  0  0999 V2000
  190.3930  173.2560  143.0560 C   0  0  1  0  0  3  0  0  0  0  0  0
  192.3640  174.1980  142.0800 C   0  0  1  0  0  3  0  0  0  0  0  0
  188.9110  172.8720  142.9040 C   0  0  0  0  0  2  0  0  0  0  0  0
  190.9700  173.8250  141.8220 N   0  0  1  0  0  0  0  0  0  0  0  0
  192.9880  174.7680  140.8120 C   0  0  1  0  0  3  0  0  0  0  0  0
  195.5780  176.8950  144.6370 C   0  0  0  0  0  3  0  0  0  0  0  0
  192.4530  175.2430  143.1960 C   0  0  1  0  0  3  0  0  0  0  0  0
  196.0580  176.1900  142.3700 C   0  0  0  0  0  3  0  0  0  0  0  0
  194.7600  175.6880  142.2470 C   0  0  0  0  0  0  0  0  0  0  0  0
  191.0180  172.7960  140.7590 C   0  0  2  0  0  3  0  0  0  0  0  0
  194.3560  175.1000  141.0410 O   0  0  0  0  0  0  0  0  0  0  0  0
  191.4610  173.3650  139.5410 O   0  0  0  0  0  0  0  0  0  0  0  0
  189.6740  172.1000  140.5240 C   0  0  0  0  0  2  0  0  0  0  0  0
  191.9780  174.6530  144.4460 N   0  0  0  0  0  2  0  0  0  0  0  0
  190.6030  174.1700  144.2880 C   0  0  1  0  0  3  0  0  0  0  0  0
  193.8670  175.7590  143.3410 C   0  0  0  0  0  0  0  0  0  0  0  0
  192.8170  173.7620  139.6690 C   0  0  2  0  0  3  0  0  0  0  0  0
  188.2850  173.0580  141.2010 S   0  0  0  0  0  0  0  0  0  0  0  0
  196.4670  176.7920  143.5640 C   0  0  0  0  0  3  0  0  0  0  0  0
  194.2800  176.3870  144.5240 C   0  0  0  0  0  3  0  0  0  0  0  0
  187.9870  176.3930  146.0520 C   0  0  0  0  0  0  0  0  0  0  0  0
  187.3970  176.5810  147.2610 F   0  0  0  0  0  0  0  0  0  0  0  0
  188.2360  177.0190  143.7620 N   0  0  0  0  0  0  0  0  0  0  0  0
  189.5600  175.2150  144.6170 C   0  0  0  0  0  0  0  0  0  0  0  0
  187.6340  177.2020  144.9660 C   0  0  0  0  0  0  0  0  0  0  0  0
  189.1730  176.0560  143.5700 C   0  0  0  0  0  3  0  0  0  0  0  0
  188.9510  175.3880  145.8810 C   0  0  0  0  0  0  0  0  0  0  0  0
  189.3040  174.5420  147.0580 C   0  0  0  0  0  1  0  0  0  0  0  0
  186.3170  178.8280  143.8770 O   0  0  0  0  0  1  0  0  0  0  0  0
  186.6310  178.2920  145.1250 C   0  0  0  0  0  2  0  0  0  0  0  0
  193.7630  172.5620  139.7750 C   0  0  0  0  0  2  0  0  0  0  0  0
  194.7310  172.6330  138.7740 O   0  0  0  0  0  1  0  0  0  0  0  0
  1  3  1  6  0  0  0
  1 15  1  0  0  0  0
  2  7  1  0  0  0  0
  4  2  1  0  0  0  0
  4  1  1  0  0  0  0
  5 11  1  0  0  0  0
  5  2  1  0  0  0  0
  7 16  1  0  0  0  0
  7 14  1  0  0  0  0
  8 19  1  0  0  0  0
  9  8  2  0  0  0  0
  9 16  1  0  0  0  0
 10  4  1  0  0  0  0
 11  9  1  0  0  0  0
 12 17  1  0  0  0  0
 12 10  1  0  0  0  0
 13 10  1  0  0  0  0
 13 18  1  0  0  0  0
 15 14  1  0  0  0  0
 15 24  1  0  0  0  0
 16 20  2  0  0  0  0
 17 31  1  0  0  0  0
 17  5  1  0  0  0  0
 18  3  1  0  0  0  0
 19  6  2  0  0  0  0
 20  6  1  0  0  0  0
 21 22  1  0  0  0  0
 23 25  1  0  0  0  0
 24 27  2  0  0  0  0
 25 30  1  0  0  0  0
 25 21  2  0  0  0  0
 26 23  2  0  0  0  0
 26 24  1  0  0  0  0
 27 21  1  0  0  0  0
 27 28  1  0  0  0  0
 29 30  1  0  0  0  0
 32 31  1  0  0  0  0
M  END
>  <MODEL>
5

>  <REMARK>
 VINA RESULT:      -6.7      3.108      7.773
  Name = 
  3 active torsions:
  status: ('A' for Active; 'I' for Inactive)
    1  A    between atoms: C_13  and  C_29
    2  A    between atoms: C_16  and  C_27
    3  A    between atoms: CA_19  and  C_26
                            x       y       z     vdW  Elec       q    Type
                         _______ _______ _______ _____ _____    ______ ____

>  <TORSDO>
F 3

$$$$
=
 OpenBabel11052419043D

 32 37  0  0  1  0  0  0  0  0999 V2000
  191.4660  172.8160  144.2050 C   0  0  1  0  0  3  0  0  0  0  0  0
  190.5820  174.9700  144.7530 C   0  0  1  0  0  3  0  0  0  0  0  0
  192.6940  171.9490  143.8750 C   0  0  0  0  0  2  0  0  0  0  0  0
  191.8150  174.2200  144.4970 N   0  0  1  0  0  0  0  0  0  0  0  0
  190.9190  176.4200  145.0790 C   0  0  1  0  0  3  0  0  0  0  0  0
  186.2240  176.5560  143.1270 C   0  0  0  0  0  3  0  0  0  0  0  0
  189.6550  174.9330  143.5330 C   0  0  1  0  0  3  0  0  0  0  0  0
  187.4730  177.8050  144.7840 C   0  0  0  0  0  3  0  0  0  0  0  0
  188.5590  176.9410  144.6240 C   0  0  0  0  0  0  0  0  0  0  0  0
  192.6030  174.3010  145.7470 C   0  0  2  0  0  3  0  0  0  0  0  0
  189.7280  177.1520  145.3670 O   0  0  0  0  0  0  0  0  0  0  0  0
  193.0390  175.6300  145.9710 O   0  0  0  0  0  0  0  0  0  0  0  0
  193.8180  173.3690  145.7630 C   0  0  0  0  0  2  0  0  0  0  0  0
  189.2230  173.5560  143.3000 N   0  0  0  0  0  2  0  0  0  0  0  0
  190.3870  172.6870  143.1020 C   0  0  1  0  0  3  0  0  0  0  0  0
  188.4680  175.8500  143.7290 C   0  0  0  0  0  0  0  0  0  0  0  0
  191.9180  176.4570  146.2400 C   0  0  2  0  0  3  0  0  0  0  0  0
  194.2780  172.8250  144.0900 S   0  0  0  0  0  0  0  0  0  0  0  0
  186.3070  177.6130  144.0380 C   0  0  0  0  0  3  0  0  0  0  0  0
  187.3040  175.6820  142.9670 C   0  0  0  0  0  3  0  0  0  0  0  0
  191.3000  171.4320  139.5690 C   0  0  0  0  0  0  0  0  0  0  0  0
  191.3480  170.2960  138.8260 F   0  0  0  0  0  0  0  0  0  0  0  0
  191.6220  173.7910  139.7470 N   0  0  0  0  0  0  0  0  0  0  0  0
  190.8190  172.5860  141.6560 C   0  0  0  0  0  0  0  0  0  0  0  0
  191.6840  172.6550  139.0050 C   0  0  0  0  0  0  0  0  0  0  0  0
  191.2080  173.7790  141.0400 C   0  0  0  0  0  3  0  0  0  0  0  0
  190.8700  171.3900  140.9030 C   0  0  0  0  0  0  0  0  0  0  0  0
  190.4710  170.0710  141.4740 C   0  0  0  0  0  1  0  0  0  0  0  0
  191.2810  173.5940  136.8790 O   0  0  0  0  0  1  0  0  0  0  0  0
  192.1210  172.7320  137.5830 C   0  0  0  0  0  2  0  0  0  0  0  0
  191.2810  176.1430  147.5950 C   0  0  0  0  0  2  0  0  0  0  0  0
  191.5650  177.1660  148.5000 O   0  0  0  0  0  1  0  0  0  0  0  0
  1  3  1  6  0  0  0
  1  4  1  0  0  0  0
  2  5  1  0  0  0  0
  3 18  1  0  0  0  0
  4  2  1  0  0  0  0
  4 10  1  0  0  0  0
  5 11  1  0  0  0  0
  5 17  1  0  0  0  0
  6 19  1  0  0  0  0
  7 16  1  0  0  0  0
  7  2  1  0  0  0  0
  9  8  1  0  0  0  0
  9 11  1  0  0  0  0
 10 13  1  0  0  0  0
 10 12  1  0  0  0  0
 12 17  1  0  0  0  0
 14  7  1  0  0  0  0
 15 14  1  0  0  0  0
 15  1  1  0  0  0  0
 16  9  2  0  0  0  0
 17 31  1  0  0  0  0
 18 13  1  0  0  0  0
 19  8  2  0  0  0  0
 20  6  2  0  0  0  0
 20 16  1  0  0  0  0
 21 27  1  0  0  0  0
 22 21  1  0  0  0  0
 23 26  2  0  0  0  0
 24 15  1  0  0  0  0
 25 21  2  0  0  0  0
 25 23  1  0  0  0  0
 26 24  1  0  0  0  0
 27 28  1  0  0  0  0
 27 24  2  0  0  0  0
 29 30  1  0  0  0  0
 30 25  1  0  0  0  0
 31 32  1  0  0  0  0
M  END
>  <MODEL>
6

>  <REMARK>
 VINA RESULT:      -6.4      2.887      4.140
  Name = 
  3 active torsions:
  status: ('A' for Active; 'I' for Inactive)
    1  A    between atoms: C_13  and  C_29
    2  A    between atoms: C_16  and  C_27
    3  A    between atoms: CA_19  and  C_26
                            x       y       z     vdW  Elec       q    Type
                         _______ _______ _______ _____ _____    ______ ____

>  <TORSDO>
F 3

$$$$
=
 OpenBabel11052419043D

 32 37  0  0  1  0  0  0  0  0999 V2000
  192.8860  174.0970  142.5810 C   0  0  1  0  0  3  0  0  0  0  0  0
  190.9980  174.9890  143.7480 C   0  0  1  0  0  3  0  0  0  0  0  0
  193.4630  173.0030  141.6650 C   0  0  0  0  0  2  0  0  0  0  0  0
  191.4420  173.9310  142.8360 N   0  0  1  0  0  0  0  0  0  0  0  0
  189.5030  174.8510  144.0090 C   0  0  1  0  0  3  0  0  0  0  0  0
  191.3630  177.1660  148.1380 C   0  0  0  0  0  3  0  0  0  0  0  0
  191.7490  174.9130  145.0810 C   0  0  1  0  0  3  0  0  0  0  0  0
  189.2870  177.2020  146.8910 C   0  0  0  0  0  3  0  0  0  0  0  0
  189.8330  176.3250  145.9500 C   0  0  0  0  0  0  0  0  0  0  0  0
  190.6760  174.1290  141.5850 C   0  0  2  0  0  3  0  0  0  0  0  0
  189.0530  175.8980  144.8670 O   0  0  0  0  0  0  0  0  0  0  0  0
  189.3030  173.8580  141.7990 O   0  0  0  0  0  0  0  0  0  0  0  0
  191.1790  173.2710  140.4200 C   0  0  0  0  0  2  0  0  0  0  0  0
  193.1680  175.1790  144.8490 N   0  0  0  0  0  2  0  0  0  0  0  0
  193.7120  174.2190  143.8850 C   0  0  1  0  0  3  0  0  0  0  0  0
  191.1700  175.8860  146.0840 C   0  0  0  0  0  0  0  0  0  0  0  0
  188.7570  174.8330  142.6720 C   0  0  2  0  0  3  0  0  0  0  0  0
  192.1960  171.8780  140.9930 S   0  0  0  0  0  0  0  0  0  0  0  0
  190.0510  177.6220  147.9830 C   0  0  0  0  0  3  0  0  0  0  0  0
  191.9180  176.2950  147.1960 C   0  0  0  0  0  3  0  0  0  0  0  0
  195.9460  171.5960  145.6240 C   0  0  0  0  0  0  0  0  0  0  0  0
  197.1910  171.4410  146.1440 F   0  0  0  0  0  0  0  0  0  0  0  0
  193.7890  170.6950  145.1410 N   0  0  0  0  0  0  0  0  0  0  0  0
  194.2570  172.9640  144.5310 C   0  0  0  0  0  0  0  0  0  0  0  0
  195.0380  170.5320  145.6490 C   0  0  0  0  0  0  0  0  0  0  0  0
  193.3900  171.8700  144.5890 C   0  0  0  0  0  3  0  0  0  0  0  0
  195.5610  172.8210  145.0580 C   0  0  0  0  0  0  0  0  0  0  0  0
  196.5530  173.9340  145.0450 C   0  0  0  0  0  1  0  0  0  0  0  0
  194.6400  169.0090  147.4060 O   0  0  0  0  0  1  0  0  0  0  0  0
  195.4120  169.2280  146.2660 C   0  0  0  0  0  2  0  0  0  0  0  0
  188.6670  176.2120  142.0130 C   0  0  0  0  0  2  0  0  0  0  0  0
  187.8160  176.1540  140.9080 O   0  0  0  0  0  1  0  0  0  0  0  0
  1  3  1  1  0  0  0
  1  4  1  0  0  0  0
  1 15  1  0  0  0  0
  2  5  1  0  0  0  0
  2  7  1  0  0  0  0
  4  2  1  0  0  0  0
  5 11  1  0  0  0  0
  7 16  1  0  0  0  0
  8 19  2  0  0  0  0
  9 16  2  0  0  0  0
  9  8  1  0  0  0  0
 10 12  1  0  0  0  0
 10  4  1  0  0  0  0
 11  9  1  0  0  0  0
 12 17  1  0  0  0  0
 13 18  1  0  0  0  0
 13 10  1  0  0  0  0
 14  7  1  0  0  0  0
 15 24  1  0  0  0  0
 15 14  1  0  0  0  0
 16 20  1  0  0  0  0
 17  5  1  0  0  0  0
 18  3  1  0  0  0  0
 19  6  1  0  0  0  0
 20  6  2  0  0  0  0
 21 25  1  0  0  0  0
 21 22  1  0  0  0  0
 23 25  2  0  0  0  0
 24 26  2  0  0  0  0
 24 27  1  0  0  0  0
 25 30  1  0  0  0  0
 26 23  1  0  0  0  0
 27 21  2  0  0  0  0
 28 27  1  0  0  0  0
 30 29  1  0  0  0  0
 31 17  1  0  0  0  0
 32 31  1  0  0  0  0
M  END
>  <MODEL>
7

>  <REMARK>
 VINA RESULT:      -6.4      4.038      6.152
  Name = 
  3 active torsions:
  status: ('A' for Active; 'I' for Inactive)
    1  A    between atoms: C_13  and  C_29
    2  A    between atoms: C_16  and  C_27
    3  A    between atoms: CA_19  and  C_26
                            x       y       z     vdW  Elec       q    Type
                         _______ _______ _______ _____ _____    ______ ____

>  <TORSDO>
F 3

$$$$
=
 OpenBabel11052419043D

 32 37  0  0  1  0  0  0  0  0999 V2000
  192.7370  175.9300  143.9270 C   0  0  1  0  0  3  0  0  0  0  0  0
  192.9380  173.6170  143.3490 C   0  0  1  0  0  3  0  0  0  0  0  0
  192.8050  177.0200  145.0110 C   0  0  0  0  0  2  0  0  0  0  0  0
  193.0750  174.5880  144.4400 N   0  0  1  0  0  0  0  0  0  0  0  0
  193.3040  172.2250  143.8490 C   0  0  1  0  0  3  0  0  0  0  0  0
  190.0690  171.4460  140.0030 C   0  0  0  0  0  3  0  0  0  0  0  0
  191.5040  173.5960  142.8120 C   0  0  1  0  0  3  0  0  0  0  0  0
  191.9780  170.2960  140.9510 C   0  0  0  0  0  3  0  0  0  0  0  0
  192.1670  171.3450  141.8540 C   0  0  0  0  0  0  0  0  0  0  0  0
  194.4970  174.5390  144.8470 C   0  0  2  0  0  3  0  0  0  0  0  0
  193.2100  171.2780  142.7870 O   0  0  0  0  0  0  0  0  0  0  0  0
  194.7960  173.2920  145.4460 O   0  0  0  0  0  0  0  0  0  0  0  0
  194.8930  175.6630  145.8100 C   0  0  0  0  0  2  0  0  0  0  0  0
  191.1980  174.8930  142.2090 N   0  0  0  0  0  2  0  0  0  0  0  0
  191.3720  175.9630  143.1960 C   0  0  1  0  0  3  0  0  0  0  0  0
  191.3180  172.4750  141.8130 C   0  0  0  0  0  0  0  0  0  0  0  0
  194.7030  172.2640  144.4730 C   0  0  2  0  0  3  0  0  0  0  0  0
  193.4440  176.4160  146.6080 S   0  0  0  0  0  0  0  0  0  0  0  0
  190.9320  170.3470  140.0270 C   0  0  0  0  0  3  0  0  0  0  0  0
  190.2570  172.5030  140.8980 C   0  0  0  0  0  3  0  0  0  0  0  0
  188.0190  177.3920  144.4610 C   0  0  0  0  0  0  0  0  0  0  0  0
  187.0580  178.2940  144.1310 F   0  0  0  0  0  0  0  0  0  0  0  0
  188.8590  175.7320  145.9570 N   0  0  0  0  0  0  0  0  0  0  0  0
  190.1190  176.2580  143.9880 C   0  0  0  0  0  0  0  0  0  0  0  0
  187.9020  176.6420  145.6370 C   0  0  0  0  0  0  0  0  0  0  0  0
  189.9470  175.5320  145.1700 C   0  0  0  0  0  3  0  0  0  0  0  0
  189.1350  177.2080  143.6310 C   0  0  0  0  0  0  0  0  0  0  0  0
  189.2290  178.0250  142.3870 C   0  0  0  0  0  1  0  0  0  0  0  0
  186.9140  177.8790  147.3850 O   0  0  0  0  0  1  0  0  0  0  0  0
  186.7160  176.8000  146.5240 C   0  0  0  0  0  2  0  0  0  0  0  0
  195.8240  172.3490  143.4340 C   0  0  0  0  0  2  0  0  0  0  0  0
  197.0600  172.1760  144.0570 O   0  0  0  0  0  1  0  0  0  0  0  0
  1  4  1  0  0  0  0
  1  3  1  1  0  0  0
  2  5  1  0  0  0  0
  2  4  1  0  0  0  0
  3 18  1  0  0  0  0
  4 10  1  0  0  0  0
  5 17  1  0  0  0  0
  6 19  2  0  0  0  0
  6 20  1  0  0  0  0
  7  2  1  0  0  0  0
  8  9  2  0  0  0  0
  9 11  1  0  0  0  0
 10 12  1  0  0  0  0
 10 13  1  0  0  0  0
 11  5  1  0  0  0  0
 13 18  1  0  0  0  0
 14  7  1  0  0  0  0
 14 15  1  0  0  0  0
 15  1  1  0  0  0  0
 15 24  1  0  0  0  0
 16  9  1  0  0  0  0
 16  7  1  0  0  0  0
 17 12  1  0  0  0  0
 19  8  1  0  0  0  0
 20 16  2  0  0  0  0
 21 25  1  0  0  0  0
 22 21  1  0  0  0  0
 24 26  2  0  0  0  0
 25 23  2  0  0  0  0
 25 30  1  0  0  0  0
 26 23  1  0  0  0  0
 27 24  1  0  0  0  0
 27 21  2  0  0  0  0
 28 27  1  0  0  0  0
 30 29  1  0  0  0  0
 31 32  1  0  0  0  0
 31 17  1  0  0  0  0
M  END
>  <MODEL>
8

>  <REMARK>
 VINA RESULT:      -6.4      3.128      7.279
  Name = 
  3 active torsions:
  status: ('A' for Active; 'I' for Inactive)
    1  A    between atoms: C_13  and  C_29
    2  A    between atoms: C_16  and  C_27
    3  A    between atoms: CA_19  and  C_26
                            x       y       z     vdW  Elec       q    Type
                         _______ _______ _______ _____ _____    ______ ____

>  <TORSDO>
F 3

$$$$
=
 OpenBabel11052419043D

 32 37  0  0  1  0  0  0  0  0999 V2000
  189.3000  173.9570  142.8660 C   0  0  1  0  0  3  0  0  0  0  0  0
  191.5480  174.7590  143.0290 C   0  0  1  0  0  3  0  0  0  0  0  0
  188.0500  173.7280  141.9980 C   0  0  0  0  0  2  0  0  0  0  0  0
  190.4260  174.5390  142.1110 N   0  0  1  0  0  0  0  0  0  0  0  0
  192.7320  175.3400  142.2660 C   0  0  1  0  0  3  0  0  0  0  0  0
  193.3040  176.9740  147.0480 C   0  0  0  0  0  3  0  0  0  0  0  0
  191.1540  175.7230  144.1530 C   0  0  1  0  0  3  0  0  0  0  0  0
  194.7650  176.3620  145.2160 C   0  0  0  0  0  3  0  0  0  0  0  0
  193.6560  175.9970  144.4480 C   0  0  0  0  0  0  0  0  0  0  0  0
  190.9150  173.5760  141.1000 C   0  0  2  0  0  3  0  0  0  0  0  0
  193.8420  175.5240  143.1420 O   0  0  0  0  0  0  0  0  0  0  0  0
  191.9180  174.1700  140.2960 O   0  0  0  0  0  0  0  0  0  0  0  0
  189.8080  173.0280  140.1930 C   0  0  0  0  0  2  0  0  0  0  0  0
  190.1080  175.1070  144.9680 N   0  0  0  0  0  2  0  0  0  0  0  0
  188.9490  174.7710  144.1360 C   0  0  1  0  0  3  0  0  0  0  0  0
  192.3560  176.0890  144.9950 C   0  0  0  0  0  0  0  0  0  0  0  0
  193.0690  174.4250  141.0840 C   0  0  2  0  0  3  0  0  0  0  0  0
  188.3220  174.0750  140.2290 S   0  0  0  0  0  0  0  0  0  0  0  0
  194.5890  176.8490  146.5140 C   0  0  0  0  0  3  0  0  0  0  0  0
  192.1900  176.6020  146.2890 C   0  0  0  0  0  3  0  0  0  0  0  0
  186.3340  177.5030  144.9030 C   0  0  0  0  0  0  0  0  0  0  0  0
  185.6780  178.0820  145.9420 F   0  0  0  0  0  0  0  0  0  0  0  0
  186.7550  177.3570  142.5580 N   0  0  0  0  0  0  0  0  0  0  0  0
  187.9370  175.8900  144.0380 C   0  0  0  0  0  0  0  0  0  0  0  0
  186.0870  177.9300  143.5930 C   0  0  0  0  0  0  0  0  0  0  0  0
  187.6560  176.3610  142.7520 C   0  0  0  0  0  3  0  0  0  0  0  0
  187.2580  176.4730  145.1320 C   0  0  0  0  0  0  0  0  0  0  0  0
  187.4960  176.0410  146.5400 C   0  0  0  0  0  1  0  0  0  0  0  0
  185.6030  180.2190  143.8880 O   0  0  0  0  0  1  0  0  0  0  0  0
  185.1280  179.0370  143.3220 C   0  0  0  0  0  2  0  0  0  0  0  0
  193.7790  173.1360  141.5030 C   0  0  0  0  0  2  0  0  0  0  0  0
  195.1030  173.1610  141.0660 O   0  0  0  0  0  1  0  0  0  0  0  0
  1  3  1  6  0  0  0
  1 15  1  0  0  0  0
  2  7  1  0  0  0  0
  4  1  1  0  0  0  0
  4  2  1  0  0  0  0
  5  2  1  0  0  0  0
  5 11  1  0  0  0  0
  7 14  1  0  0  0  0
  7 16  1  0  0  0  0
  8 19  2  0  0  0  0
  9 16  2  0  0  0  0
  9  8  1  0  0  0  0
 10  4  1  0  0  0  0
 11  9  1  0  0  0  0
 12 17  1  0  0  0  0
 12 10  1  0  0  0  0
 13 18  1  0  0  0  0
 13 10  1  0  0  0  0
 15 14  1  0  0  0  0
 16 20  1  0  0  0  0
 17 31  1  0  0  0  0
 17  5  1  0  0  0  0
 18  3  1  0  0  0  0
 19  6  1  0  0  0  0
 20  6  2  0  0  0  0
 21 27  1  0  0  0  0
 21 22  1  0  0  0  0
 23 26  2  0  0  0  0
 23 25  1  0  0  0  0
 24 15  1  0  0  0  0
 24 27  2  0  0  0  0
 25 21  2  0  0  0  0
 26 24  1  0  0  0  0
 27 28  1  0  0  0  0
 30 25  1  0  0  0  0
 30 29  1  0  0  0  0
 32 31  1  0  0  0  0
M  END
>  <MODEL>
9

>  <REMARK>
 VINA RESULT:      -6.2      3.219      7.641
  Name = 
  3 active torsions:
  status: ('A' for Active; 'I' for Inactive)
    1  A    between atoms: C_13  and  C_29
    2  A    between atoms: C_16  and  C_27
    3  A    between atoms: CA_19  and  C_26
                            x       y       z     vdW  Elec       q    Type
                         _______ _______ _______ _____ _____    ______ ____

>  <TORSDO>
F 3

$$$$
