=
 OpenBabel11052421313D

 32 36  0  0  1  0  0  0  0  0999 V2000
  192.1090  170.3800  142.6610 C   0  0  1  0  0  3  0  0  0  0  0  0
  189.4220  174.6240  143.7520 C   0  0  0  0  0  0  0  0  0  0  0  0
  191.2150  176.2400  147.8920 C   0  0  0  0  0  3  0  0  0  0  0  0
  190.4050  177.3290  147.8210 N   0  0  0  0  0  0  0  0  0  0  0  0
  190.1840  172.5370  142.7810 C   0  0  0  0  0  0  0  0  0  0  0  0
  191.1300  173.3150  144.8810 C   0  0  0  0  0  3  0  0  0  0  0  0
  191.9360  171.1340  143.9840 C   0  0  0  0  0  2  0  0  0  0  0  0
  191.1810  175.2980  146.9140 N   0  0  0  0  0  0  0  0  0  0  0  0
  190.3080  174.4490  144.8380 C   0  0  0  0  0  0  0  0  0  0  0  0
  190.3410  175.4200  145.8490 C   0  0  0  0  0  0  0  0  0  0  0  0
  188.6230  176.6740  144.6670 C   0  0  0  0  0  0  0  0  0  0  0  0
  190.7580  170.2230  141.9650 C   0  0  0  0  0  2  0  0  0  0  0  0
  191.0860  172.3670  143.8550 C   0  0  0  0  0  0  0  0  0  0  0  0
  190.1510  171.5830  141.6220 C   0  0  0  0  0  2  0  0  0  0  0  0
  189.5490  177.4960  146.7800 C   0  0  0  0  0  3  0  0  0  0  0  0
  189.4930  176.5430  145.7590 C   0  0  0  0  0  0  0  0  0  0  0  0
  187.7730  177.8260  144.5590 N   0  0  0  0  0  2  0  0  0  0  0  0
  189.3710  173.6730  142.7310 C   0  0  0  0  0  3  0  0  0  0  0  0
  188.6190  175.7190  143.6950 N   0  0  0  0  0  0  0  0  0  0  0  0
  185.3130  177.9740  143.9510 C   0  0  1  0  0  3  0  0  0  0  0  0
  186.9960  178.2280  142.2520 C   0  0  0  0  0  0  0  0  0  0  0  0
  185.9290  178.3260  141.4870 C   0  0  0  0  0  3  0  0  0  0  0  0
  184.3900  178.0830  142.3720 S   0  0  0  0  0  0  0  0  0  0  0  0
  188.6190  178.4110  141.6130 Cl  0  0  0  0  0  0  0  0  0  0  0  0
  186.7330  177.9740  143.6220 N   0  0  0  0  0  0  0  0  0  0  0  0
  184.9670  179.1660  144.8360 C   0  0  0  0  0  2  0  0  0  0  0  0
  185.4780  180.3390  144.3080 F   0  0  0  0  0  0  0  0  0  0  0  0
  194.1810  171.5070  142.2460 C   0  0  0  0  0  3  0  0  0  0  0  0
  193.0550  171.0650  141.7900 N   0  0  0  0  0  0  0  0  0  0  0  0
  195.1300  172.1970  141.3720 C   0  0  0  0  0  0  0  0  0  0  0  0
  196.2860  171.7330  141.1840 O   0  0  0  0  0  0  0  0  0  0  0  0
  194.7240  173.4570  140.6980 C   0  0  0  0  0  1  0  0  0  0  0  0
  1 29  1  6  0  0  0
  1  7  1  0  0  0  0
  2  9  1  0  0  0  0
  4  3  1  0  0  0  0
  5 13  2  0  0  0  0
  8  3  2  0  0  0  0
  9  6  2  0  0  0  0
  9 10  1  0  0  0  0
 10  8  1  0  0  0  0
 11 16  1  0  0  0  0
 12  1  1  0  0  0  0
 13  7  1  0  0  0  0
 13  6  1  0  0  0  0
 14 12  1  0  0  0  0
 14  5  1  0  0  0  0
 15  4  2  0  0  0  0
 16 10  2  0  0  0  0
 16 15  1  0  0  0  0
 17 11  1  0  0  0  0
 18  5  1  0  0  0  0
 18  2  2  0  0  0  0
 19  2  1  0  0  0  0
 19 11  2  0  0  0  0
 20 26  1  1  0  0  0
 21 25  1  0  0  0  0
 22 21  2  0  0  0  0
 22 23  1  0  0  0  0
 23 20  1  0  0  0  0
 24 21  1  0  0  0  0
 25 20  1  0  0  0  0
 25 17  1  0  0  0  0
 27 26  1  0  0  0  0
 29 28  2  0  0  0  0
 30 28  1  0  0  0  0
 31 30  2  0  0  0  0
 32 30  1  0  0  0  0
M  END
>  <MODEL>
1

>  <REMARK>
 VINA RESULT:      -7.1      0.000      0.000
  Name = 
  4 active torsions:
  status: ('A' for Active; 'I' for Inactive)
    1  A    between atoms: C_1  and  C_10
    2  A    between atoms: C_2  and  N_24
    3  A    between atoms: C_6  and  C_7
    4  A    between atoms: N_27  and  N_32
                            x       y       z     vdW  Elec       q    Type
                         _______ _______ _______ _____ _____    ______ ____

>  <TORSDO>
F 4

$$$$
=
 OpenBabel11052421313D

 32 36  0  0  1  0  0  0  0  0999 V2000
  195.9020  175.8870  144.1120 C   0  0  1  0  0  3  0  0  0  0  0  0
  190.7750  176.1570  143.8480 C   0  0  0  0  0  0  0  0  0  0  0  0
  189.5550  173.5460  140.0200 C   0  0  0  0  0  3  0  0  0  0  0  0
  188.2410  173.7440  140.3000 N   0  0  0  0  0  0  0  0  0  0  0  0
  193.1000  176.5430  144.4180 C   0  0  0  0  0  0  0  0  0  0  0  0
  192.5350  175.2060  142.4680 C   0  0  0  0  0  3  0  0  0  0  0  0
  194.9500  175.5940  142.9480 C   0  0  0  0  0  2  0  0  0  0  0  0
  190.5130  174.0870  140.8170 N   0  0  0  0  0  0  0  0  0  0  0  0
  191.1710  175.3920  142.7290 C   0  0  0  0  0  0  0  0  0  0  0  0
  190.1820  174.8350  141.9050 C   0  0  0  0  0  0  0  0  0  0  0  0
  188.4740  175.8250  143.3280 C   0  0  0  0  0  0  0  0  0  0  0  0
  195.5050  177.1930  144.7990 C   0  0  0  0  0  2  0  0  0  0  0  0
  193.5010  175.7630  143.3110 C   0  0  0  0  0  0  0  0  0  0  0  0
  194.0980  177.1010  145.3910 C   0  0  0  0  0  2  0  0  0  0  0  0
  187.8590  174.4830  141.3730 C   0  0  0  0  0  3  0  0  0  0  0  0
  188.8230  175.0520  142.2100 C   0  0  0  0  0  0  0  0  0  0  0  0
  187.0920  176.0300  143.6570 N   0  0  0  0  0  2  0  0  0  0  0  0
  191.7400  176.7200  144.6860 C   0  0  0  0  0  3  0  0  0  0  0  0
  189.4560  176.3450  144.1150 N   0  0  0  0  0  0  0  0  0  0  0  0
  186.4200  176.6110  146.0350 C   0  0  1  0  0  3  0  0  0  0  0  0
  186.3810  178.2980  144.3210 C   0  0  0  0  0  0  0  0  0  0  0  0
  185.9270  179.0240  145.3200 C   0  0  0  0  0  3  0  0  0  0  0  0
  185.6940  178.0920  146.8330 S   0  0  0  0  0  0  0  0  0  0  0  0
  186.6740  178.9800  142.7320 Cl  0  0  0  0  0  0  0  0  0  0  0  0
  186.6210  176.9340  144.6280 N   0  0  0  0  0  0  0  0  0  0  0  0
  187.7460  176.2610  146.7020 C   0  0  0  0  0  2  0  0  0  0  0  0
  188.4680  177.4040  146.9950 F   0  0  0  0  0  0  0  0  0  0  0  0
  195.8740  173.5580  144.6720 C   0  0  0  0  0  3  0  0  0  0  0  0
  195.9090  174.7880  145.0690 N   0  0  0  0  0  0  0  0  0  0  0  0
  195.8780  172.4550  145.6330 C   0  0  0  0  0  0  0  0  0  0  0  0
  196.8380  172.3050  146.4340 O   0  0  0  0  0  0  0  0  0  0  0  0
  194.7370  171.5040  145.6640 C   0  0  0  0  0  1  0  0  0  0  0  0
  1 12  1  0  0  0  0
  1 29  1  1  0  0  0
  2 19  1  0  0  0  0
  2 18  1  0  0  0  0
  3  4  2  0  0  0  0
  3  8  1  0  0  0  0
  4 15  1  0  0  0  0
  5 18  2  0  0  0  0
  5 14  1  0  0  0  0
  6  9  1  0  0  0  0
  6 13  2  0  0  0  0
  7 13  1  0  0  0  0
  7  1  1  0  0  0  0
  8 10  2  0  0  0  0
  9  2  2  0  0  0  0
 10 16  1  0  0  0  0
 10  9  1  0  0  0  0
 11 17  1  0  0  0  0
 11 19  2  0  0  0  0
 12 14  1  0  0  0  0
 13  5  1  0  0  0  0
 15 16  2  0  0  0  0
 16 11  1  0  0  0  0
 17 25  1  0  0  0  0
 20 26  1  1  0  0  0
 20 23  1  0  0  0  0
 21 25  1  0  0  0  0
 21 22  2  0  0  0  0
 22 23  1  0  0  0  0
 24 21  1  0  0  0  0
 25 20  1  0  0  0  0
 26 27  1  0  0  0  0
 28 29  2  0  0  0  0
 28 30  1  0  0  0  0
 30 32  1  0  0  0  0
 30 31  2  0  0  0  0
M  END
>  <MODEL>
2

>  <REMARK>
 VINA RESULT:      -7.0      3.238      4.966
  Name = 
  4 active torsions:
  status: ('A' for Active; 'I' for Inactive)
    1  A    between atoms: C_1  and  C_10
    2  A    between atoms: C_2  and  N_24
    3  A    between atoms: C_6  and  C_7
    4  A    between atoms: N_27  and  N_32
                            x       y       z     vdW  Elec       q    Type
                         _______ _______ _______ _____ _____    ______ ____

>  <TORSDO>
F 4

$$$$
=
 OpenBabel11052421313D

 32 36  0  0  1  0  0  0  0  0999 V2000
  186.9660  177.6450  143.0680 C   0  0  1  0  0  3  0  0  0  0  0  0
  190.7860  174.2970  143.8550 C   0  0  0  0  0  0  0  0  0  0  0  0
  194.2500  176.8000  146.0240 C   0  0  0  0  0  3  0  0  0  0  0  0
  194.9890  175.6680  146.1570 N   0  0  0  0  0  0  0  0  0  0  0  0
  188.7560  175.3720  143.0800 C   0  0  0  0  0  0  0  0  0  0  0  0
  190.4800  176.6860  144.1790 C   0  0  0  0  0  3  0  0  0  0  0  0
  188.4500  177.8840  143.3680 C   0  0  0  0  0  2  0  0  0  0  0  0
  193.0310  176.7550  145.4250 N   0  0  0  0  0  0  0  0  0  0  0  0
  191.2670  175.5380  144.3310 C   0  0  0  0  0  0  0  0  0  0  0  0
  192.5260  175.5850  144.9470 C   0  0  0  0  0  0  0  0  0  0  0  0
  192.7670  173.1910  144.5820 C   0  0  0  0  0  0  0  0  0  0  0  0
  186.8120  176.5610  142.0030 C   0  0  0  0  0  2  0  0  0  0  0  0
  189.2230  176.6110  143.5710 C   0  0  0  0  0  0  0  0  0  0  0  0
  187.3850  175.2280  142.4840 C   0  0  0  0  0  2  0  0  0  0  0  0
  194.5300  174.4760  145.6960 C   0  0  0  0  0  3  0  0  0  0  0  0
  193.2800  174.4000  145.0760 C   0  0  0  0  0  0  0  0  0  0  0  0
  193.5200  171.9770  144.7310 N   0  0  0  0  0  2  0  0  0  0  0  0
  189.5350  174.2230  143.2410 C   0  0  0  0  0  3  0  0  0  0  0  0
  191.5370  173.1740  143.9980 N   0  0  0  0  0  0  0  0  0  0  0  0
  192.5950  170.6200  142.7950 C   0  0  1  0  0  3  0  0  0  0  0  0
  193.5370  169.5100  144.7090 C   0  0  0  0  0  0  0  0  0  0  0  0
  193.1640  168.4460  144.0300 C   0  0  0  0  0  3  0  0  0  0  0  0
  192.2890  168.8350  142.5150 S   0  0  0  0  0  0  0  0  0  0  0  0
  194.3950  169.3870  146.2340 Cl  0  0  0  0  0  0  0  0  0  0  0  0
  193.2020  170.7530  144.1140 N   0  0  0  0  0  0  0  0  0  0  0  0
  193.5280  171.1610  141.7170 C   0  0  0  0  0  2  0  0  0  0  0  0
  193.1420  172.4300  141.3210 F   0  0  0  0  0  0  0  0  0  0  0  0
  186.1030  178.1180  145.2520 C   0  0  0  0  0  3  0  0  0  0  0  0
  186.2410  177.2790  144.2780 N   0  0  0  0  0  0  0  0  0  0  0  0
  185.3770  177.7490  146.4680 C   0  0  0  0  0  0  0  0  0  0  0  0
  184.1410  177.9680  146.5710 O   0  0  0  0  0  0  0  0  0  0  0  0
  186.1080  177.1070  147.5910 C   0  0  0  0  0  1  0  0  0  0  0  0
  1  7  1  0  0  0  0
  1 29  1  1  0  0  0
  2 19  1  0  0  0  0
  2  9  1  0  0  0  0
  3  4  1  0  0  0  0
  5 18  1  0  0  0  0
  5 13  2  0  0  0  0
  6  9  2  0  0  0  0
  7 13  1  0  0  0  0
  8  3  2  0  0  0  0
  9 10  1  0  0  0  0
 10 16  2  0  0  0  0
 10  8  1  0  0  0  0
 11 17  1  0  0  0  0
 11 16  1  0  0  0  0
 12 14  1  0  0  0  0
 12  1  1  0  0  0  0
 13  6  1  0  0  0  0
 14  5  1  0  0  0  0
 15  4  2  0  0  0  0
 16 15  1  0  0  0  0
 18  2  2  0  0  0  0
 19 11  2  0  0  0  0
 20 26  1  6  0  0  0
 20 25  1  0  0  0  0
 21 24  1  0  0  0  0
 22 21  2  0  0  0  0
 23 20  1  0  0  0  0
 23 22  1  0  0  0  0
 25 21  1  0  0  0  0
 25 17  1  0  0  0  0
 27 26  1  0  0  0  0
 28 30  1  0  0  0  0
 29 28  2  0  0  0  0
 30 31  2  0  0  0  0
 30 32  1  0  0  0  0
M  END
>  <MODEL>
3

>  <REMARK>
 VINA RESULT:      -6.7      4.933      8.366
  Name = 
  4 active torsions:
  status: ('A' for Active; 'I' for Inactive)
    1  A    between atoms: C_1  and  C_10
    2  A    between atoms: C_2  and  N_24
    3  A    between atoms: C_6  and  C_7
    4  A    between atoms: N_27  and  N_32
                            x       y       z     vdW  Elec       q    Type
                         _______ _______ _______ _____ _____    ______ ____

>  <TORSDO>
F 4

$$$$
=
 OpenBabel11052421313D

 32 36  0  0  1  0  0  0  0  0999 V2000
  190.3080  172.4970  138.6070 C   0  0  1  0  0  3  0  0  0  0  0  0
  188.8320  175.5540  142.4670 C   0  0  0  0  0  0  0  0  0  0  0  0
  192.5360  175.6510  145.5060 C   0  0  0  0  0  3  0  0  0  0  0  0
  191.8810  176.5550  146.2800 N   0  0  0  0  0  0  0  0  0  0  0  0
  188.8600  174.1430  140.4960 C   0  0  0  0  0  0  0  0  0  0  0  0
  190.7670  174.1590  142.0020 C   0  0  0  0  0  3  0  0  0  0  0  0
  190.8620  172.6400  140.0290 C   0  0  0  0  0  2  0  0  0  0  0  0
  191.9560  175.1720  144.3740 N   0  0  0  0  0  0  0  0  0  0  0  0
  190.1190  175.0920  142.8220 C   0  0  0  0  0  0  0  0  0  0  0  0
  190.7160  175.5840  143.9920 C   0  0  0  0  0  0  0  0  0  0  0  0
  188.7410  176.9470  144.3980 C   0  0  0  0  0  0  0  0  0  0  0  0
  188.7820  172.4380  138.6410 C   0  0  0  0  0  2  0  0  0  0  0  0
  190.1550  173.6930  140.8350 C   0  0  0  0  0  0  0  0  0  0  0  0
  188.1910  173.7250  139.2170 C   0  0  0  0  0  2  0  0  0  0  0  0
  190.6420  176.9960  145.9420 C   0  0  0  0  0  3  0  0  0  0  0  0
  190.0220  176.5220  144.7830 C   0  0  0  0  0  0  0  0  0  0  0  0
  188.0390  177.9190  145.1870 N   0  0  0  0  0  2  0  0  0  0  0  0
  188.2160  175.0820  141.3060 C   0  0  0  0  0  3  0  0  0  0  0  0
  188.1910  176.4600  143.2520 N   0  0  0  0  0  0  0  0  0  0  0  0
  186.2010  179.2070  144.0010 C   0  0  1  0  0  3  0  0  0  0  0  0
  185.6540  177.6700  145.7680 C   0  0  0  0  0  0  0  0  0  0  0  0
  184.4410  178.1110  145.5100 C   0  0  0  0  0  3  0  0  0  0  0  0
  184.3990  179.4040  144.2710 S   0  0  0  0  0  0  0  0  0  0  0  0
  185.9550  176.4160  146.9560 Cl  0  0  0  0  0  0  0  0  0  0  0  0
  186.6890  178.2750  145.0100 N   0  0  0  0  0  0  0  0  0  0  0  0
  186.4590  178.6660  142.5990 C   0  0  0  0  0  2  0  0  0  0  0  0
  185.4620  177.7840  142.2200 F   0  0  0  0  0  0  0  0  0  0  0  0
  192.0180  173.8480  137.6120 C   0  0  0  0  0  3  0  0  0  0  0  0
  190.7580  173.5930  137.7590 N   0  0  0  0  0  0  0  0  0  0  0  0
  192.4690  174.9510  136.7630 C   0  0  0  0  0  0  0  0  0  0  0  0
  191.7470  175.3750  135.8220 O   0  0  0  0  0  0  0  0  0  0  0  0
  193.7930  175.5760  137.0150 C   0  0  0  0  0  1  0  0  0  0  0  0
  1 29  1  6  0  0  0
  1 12  1  0  0  0  0
  1  7  1  0  0  0  0
  2  9  1  0  0  0  0
  2 19  1  0  0  0  0
  3  4  1  0  0  0  0
  5 13  2  0  0  0  0
  5 18  1  0  0  0  0
  6  9  2  0  0  0  0
  7 13  1  0  0  0  0
  8  3  2  0  0  0  0
  9 10  1  0  0  0  0
 10  8  1  0  0  0  0
 10 16  2  0  0  0  0
 11 16  1  0  0  0  0
 11 17  1  0  0  0  0
 12 14  1  0  0  0  0
 13  6  1  0  0  0  0
 14  5  1  0  0  0  0
 15  4  2  0  0  0  0
 16 15  1  0  0  0  0
 18  2  2  0  0  0  0
 19 11  2  0  0  0  0
 20 26  1  6  0  0  0
 20 23  1  0  0  0  0
 20 25  1  0  0  0  0
 21 24  1  0  0  0  0
 22 21  2  0  0  0  0
 23 22  1  0  0  0  0
 25 17  1  0  0  0  0
 25 21  1  0  0  0  0
 27 26  1  0  0  0  0
 28 29  2  0  0  0  0
 30 32  1  0  0  0  0
 30 28  1  0  0  0  0
 31 30  2  0  0  0  0
M  END
>  <MODEL>
4

>  <REMARK>
 VINA RESULT:      -6.5      3.049      3.651
  Name = 
  4 active torsions:
  status: ('A' for Active; 'I' for Inactive)
    1  A    between atoms: C_1  and  C_10
    2  A    between atoms: C_2  and  N_24
    3  A    between atoms: C_6  and  C_7
    4  A    between atoms: N_27  and  N_32
                            x       y       z     vdW  Elec       q    Type
                         _______ _______ _______ _____ _____    ______ ____

>  <TORSDO>
F 4

$$$$
=
 OpenBabel11052421313D

 32 36  0  0  1  0  0  0  0  0999 V2000
  187.8980  177.0550  146.4540 C   0  0  1  0  0  3  0  0  0  0  0  0
  191.9370  174.8780  144.1370 C   0  0  0  0  0  0  0  0  0  0  0  0
  190.2890  170.7780  142.2830 C   0  0  0  0  0  3  0  0  0  0  0  0
  191.4990  170.5460  141.7120 N   0  0  0  0  0  0  0  0  0  0  0  0
  190.5230  176.3000  145.4990 C   0  0  0  0  0  0  0  0  0  0  0  0
  189.6360  174.2330  144.5780 C   0  0  0  0  0  3  0  0  0  0  0  0
  188.1270  175.6060  146.0100 C   0  0  0  0  0  2  0  0  0  0  0  0
  190.0860  171.8980  143.0250 N   0  0  0  0  0  0  0  0  0  0  0  0
  190.8720  173.9640  143.9760 C   0  0  0  0  0  0  0  0  0  0  0  0
  191.0830  172.8060  143.2120 C   0  0  0  0  0  0  0  0  0  0  0  0
  193.3780  173.5120  142.8190 C   0  0  0  0  0  0  0  0  0  0  0  0
  189.1390  177.5880  147.1660 C   0  0  0  0  0  2  0  0  0  0  0  0
  189.4490  175.4000  145.3250 C   0  0  0  0  0  0  0  0  0  0  0  0
  190.3510  177.5990  146.2320 C   0  0  0  0  0  2  0  0  0  0  0  0
  192.5250  171.4210  141.8700 C   0  0  0  0  0  3  0  0  0  0  0  0
  192.3450  172.5820  142.6270 C   0  0  0  0  0  0  0  0  0  0  0  0
  194.6590  173.3000  142.2070 N   0  0  0  0  0  2  0  0  0  0  0  0
  191.7530  176.0390  144.8900 C   0  0  0  0  0  3  0  0  0  0  0  0
  193.1420  174.6320  143.5570 N   0  0  0  0  0  0  0  0  0  0  0  0
  196.3960  175.0420  141.5790 C   0  0  1  0  0  3  0  0  0  0  0  0
  196.4800  173.9710  143.7300 C   0  0  0  0  0  0  0  0  0  0  0  0
  197.5580  174.7180  143.8410 C   0  0  0  0  0  3  0  0  0  0  0  0
  197.9410  175.6450  142.3570 S   0  0  0  0  0  0  0  0  0  0  0  0
  195.9100  172.9580  145.0440 Cl  0  0  0  0  0  0  0  0  0  0  0  0
  195.8160  174.0540  142.4800 N   0  0  0  0  0  0  0  0  0  0  0  0
  195.4340  176.2060  141.3670 C   0  0  0  0  0  2  0  0  0  0  0  0
  196.1240  177.4010  141.2490 F   0  0  0  0  0  0  0  0  0  0  0  0
  186.3400  178.2900  145.1180 C   0  0  0  0  0  3  0  0  0  0  0  0
  187.5570  177.9010  145.3180 N   0  0  0  0  0  0  0  0  0  0  0  0
  185.9970  179.1380  143.9750 C   0  0  0  0  0  0  0  0  0  0  0  0
  185.3860  180.2260  144.1430 O   0  0  0  0  0  0  0  0  0  0  0  0
  186.3770  178.7090  142.6050 C   0  0  0  0  0  1  0  0  0  0  0  0
  1 29  1  6  0  0  0
  1 12  1  0  0  0  0
  2 18  1  0  0  0  0
  3  8  1  0  0  0  0
  4 15  1  0  0  0  0
  4  3  2  0  0  0  0
  5 14  1  0  0  0  0
  6 13  2  0  0  0  0
  7  1  1  0  0  0  0
  8 10  2  0  0  0  0
  9  2  2  0  0  0  0
  9  6  1  0  0  0  0
 10  9  1  0  0  0  0
 11 19  2  0  0  0  0
 13  5  1  0  0  0  0
 13  7  1  0  0  0  0
 14 12  1  0  0  0  0
 15 16  2  0  0  0  0
 16 11  1  0  0  0  0
 16 10  1  0  0  0  0
 17 25  1  0  0  0  0
 17 11  1  0  0  0  0
 18  5  2  0  0  0  0
 19  2  1  0  0  0  0
 20 26  1  1  0  0  0
 20 23  1  0  0  0  0
 20 25  1  0  0  0  0
 21 22  2  0  0  0  0
 21 24  1  0  0  0  0
 23 22  1  0  0  0  0
 25 21  1  0  0  0  0
 27 26  1  0  0  0  0
 28 29  2  0  0  0  0
 30 31  2  0  0  0  0
 30 28  1  0  0  0  0
 32 30  1  0  0  0  0
M  END
>  <MODEL>
5

>  <REMARK>
 VINA RESULT:      -6.5      4.833      8.720
  Name = 
  4 active torsions:
  status: ('A' for Active; 'I' for Inactive)
    1  A    between atoms: C_1  and  C_10
    2  A    between atoms: C_2  and  N_24
    3  A    between atoms: C_6  and  C_7
    4  A    between atoms: N_27  and  N_32
                            x       y       z     vdW  Elec       q    Type
                         _______ _______ _______ _____ _____    ______ ____

>  <TORSDO>
F 4

$$$$
=
 OpenBabel11052421313D

 32 36  0  0  1  0  0  0  0  0999 V2000
  191.6710  173.8140  145.0140 C   0  0  1  0  0  3  0  0  0  0  0  0
  187.2810  176.3140  144.0610 C   0  0  0  0  0  0  0  0  0  0  0  0
  185.8610  178.0570  148.2930 C   0  0  0  0  0  3  0  0  0  0  0  0
  184.8200  178.6860  147.6880 N   0  0  0  0  0  0  0  0  0  0  0  0
  189.2370  174.8920  143.8800 C   0  0  0  0  0  0  0  0  0  0  0  0
  188.5620  175.7550  146.0490 C   0  0  0  0  0  3  0  0  0  0  0  0
  190.5540  174.2590  145.9650 C   0  0  0  0  0  2  0  0  0  0  0  0
  186.7300  177.3130  147.5600 N   0  0  0  0  0  0  0  0  0  0  0  0
  187.4790  176.4160  145.4560 C   0  0  0  0  0  0  0  0  0  0  0  0
  186.5800  177.1820  146.2130 C   0  0  0  0  0  0  0  0  0  0  0  0
  185.3420  177.6930  144.1810 C   0  0  0  0  0  0  0  0  0  0  0  0
  191.0710  173.1670  143.7670 C   0  0  0  0  0  2  0  0  0  0  0  0
  189.4500  175.0070  145.2710 C   0  0  0  0  0  0  0  0  0  0  0  0
  190.2020  174.1590  142.9930 C   0  0  0  0  0  2  0  0  0  0  0  0
  184.6270  178.5850  146.3470 C   0  0  0  0  0  3  0  0  0  0  0  0
  185.5050  177.8270  145.5680 C   0  0  0  0  0  0  0  0  0  0  0  0
  184.2630  178.3660  143.5160 N   0  0  0  0  0  2  0  0  0  0  0  0
  188.1630  175.5600  143.2840 C   0  0  0  0  0  3  0  0  0  0  0  0
  186.2360  176.9510  143.4710 N   0  0  0  0  0  0  0  0  0  0  0  0
  182.5230  177.9120  141.7250 C   0  0  1  0  0  3  0  0  0  0  0  0
  184.8240  178.2500  141.1160 C   0  0  0  0  0  0  0  0  0  0  0  0
  184.3380  178.0120  139.9170 C   0  0  0  0  0  3  0  0  0  0  0  0
  182.5960  177.5920  139.9220 S   0  0  0  0  0  0  0  0  0  0  0  0
  186.5090  178.6660  141.3720 Cl  0  0  0  0  0  0  0  0  0  0  0  0
  183.8870  178.1550  142.1760 N   0  0  0  0  0  0  0  0  0  0  0  0
  181.6410  179.1260  141.9990 C   0  0  0  0  0  2  0  0  0  0  0  0
  180.3710  178.7360  142.3880 F   0  0  0  0  0  0  0  0  0  0  0  0
  193.6640  175.1240  145.2290 C   0  0  0  0  0  3  0  0  0  0  0  0
  192.5240  174.9370  144.6480 N   0  0  0  0  0  0  0  0  0  0  0  0
  194.5190  176.2540  144.8630 C   0  0  0  0  0  0  0  0  0  0  0  0
  195.2060  176.2250  143.8080 O   0  0  0  0  0  0  0  0  0  0  0  0
  194.5740  177.4480  145.7450 C   0  0  0  0  0  1  0  0  0  0  0  0
  1 29  1  6  0  0  0
  1  7  1  0  0  0  0
  2  9  1  0  0  0  0
  4  3  1  0  0  0  0
  5 13  2  0  0  0  0
  8  3  2  0  0  0  0
  9  6  2  0  0  0  0
  9 10  1  0  0  0  0
 10  8  1  0  0  0  0
 11 16  1  0  0  0  0
 12  1  1  0  0  0  0
 13  7  1  0  0  0  0
 13  6  1  0  0  0  0
 14 12  1  0  0  0  0
 14  5  1  0  0  0  0
 15  4  2  0  0  0  0
 16 10  2  0  0  0  0
 16 15  1  0  0  0  0
 17 11  1  0  0  0  0
 18  5  1  0  0  0  0
 18  2  2  0  0  0  0
 19  2  1  0  0  0  0
 19 11  2  0  0  0  0
 20 26  1  6  0  0  0
 20 25  1  0  0  0  0
 21 24  1  0  0  0  0
 21 25  1  0  0  0  0
 22 23  1  0  0  0  0
 22 21  2  0  0  0  0
 23 20  1  0  0  0  0
 25 17  1  0  0  0  0
 26 27  1  0  0  0  0
 29 28  2  0  0  0  0
 30 28  1  0  0  0  0
 30 32  1  0  0  0  0
 31 30  2  0  0  0  0
M  END
>  <MODEL>
6

>  <REMARK>
 VINA RESULT:      -6.3      2.854      4.104
  Name = 
  4 active torsions:
  status: ('A' for Active; 'I' for Inactive)
    1  A    between atoms: C_1  and  C_10
    2  A    between atoms: C_2  and  N_24
    3  A    between atoms: C_6  and  C_7
    4  A    between atoms: N_27  and  N_32
                            x       y       z     vdW  Elec       q    Type
                         _______ _______ _______ _____ _____    ______ ____

>  <TORSDO>
F 4

$$$$
=
 OpenBabel11052421313D

 32 36  0  0  1  0  0  0  0  0999 V2000
  186.6380  178.5970  142.3960 C   0  0  1  0  0  3  0  0  0  0  0  0
  190.4000  175.0950  142.3490 C   0  0  0  0  0  0  0  0  0  0  0  0
  193.8050  176.8410  145.2340 C   0  0  0  0  0  3  0  0  0  0  0  0
  194.5300  175.7030  145.0720 N   0  0  0  0  0  0  0  0  0  0  0  0
  188.4080  176.3780  141.8360 C   0  0  0  0  0  0  0  0  0  0  0  0
  190.1020  177.3070  143.3100 C   0  0  0  0  0  3  0  0  0  0  0  0
  188.1120  178.7170  142.7970 C   0  0  0  0  0  2  0  0  0  0  0  0
  192.6080  176.9840  144.6070 N   0  0  0  0  0  0  0  0  0  0  0  0
  190.8740  176.1470  143.1640 C   0  0  0  0  0  0  0  0  0  0  0  0
  192.1110  176.0000  143.8090 C   0  0  0  0  0  0  0  0  0  0  0  0
  192.3450  173.7960  142.8040 C   0  0  0  0  0  0  0  0  0  0  0  0
  186.5130  177.8520  141.0690 C   0  0  0  0  0  2  0  0  0  0  0  0
  188.8670  177.4240  142.6650 C   0  0  0  0  0  0  0  0  0  0  0  0
  187.0580  176.4270  141.1810 C   0  0  0  0  0  2  0  0  0  0  0  0
  194.0770  174.6930  144.2860 C   0  0  0  0  0  3  0  0  0  0  0  0
  192.8500  174.8130  143.6290 C   0  0  0  0  0  0  0  0  0  0  0  0
  193.0820  172.5750  142.6360 N   0  0  0  0  0  2  0  0  0  0  0  0
  189.1710  175.2150  141.6980 C   0  0  0  0  0  3  0  0  0  0  0  0
  191.1370  173.9620  142.1990 N   0  0  0  0  0  0  0  0  0  0  0  0
  192.0140  170.3670  141.9850 C   0  0  1  0  0  3  0  0  0  0  0  0
  193.1220  171.7090  140.3260 C   0  0  0  0  0  0  0  0  0  0  0  0
  192.7900  170.6890  139.5630 C   0  0  0  0  0  3  0  0  0  0  0  0
  191.9990  169.3540  140.4580 S   0  0  0  0  0  0  0  0  0  0  0  0
  193.9240  173.1300  139.6840 Cl  0  0  0  0  0  0  0  0  0  0  0  0
  192.7760  171.5750  141.6950 N   0  0  0  0  0  0  0  0  0  0  0  0
  190.5860  170.7150  142.3900 C   0  0  0  0  0  2  0  0  0  0  0  0
  189.8840  171.2420  141.3190 F   0  0  0  0  0  0  0  0  0  0  0  0
  185.9810  178.2670  144.6760 C   0  0  0  0  0  3  0  0  0  0  0  0
  185.8680  177.9240  143.4340 N   0  0  0  0  0  0  0  0  0  0  0  0
  185.2100  177.5880  145.7180 C   0  0  0  0  0  0  0  0  0  0  0  0
  185.5050  176.4170  146.0770 O   0  0  0  0  0  0  0  0  0  0  0  0
  184.0680  178.2890  146.3600 C   0  0  0  0  0  1  0  0  0  0  0  0
  1  7  1  0  0  0  0
  1 29  1  1  0  0  0
  2  9  1  0  0  0  0
  4  3  1  0  0  0  0
  5 13  2  0  0  0  0
  8  3  2  0  0  0  0
  9  6  2  0  0  0  0
  9 10  1  0  0  0  0
 10  8  1  0  0  0  0
 11 16  1  0  0  0  0
 12 14  1  0  0  0  0
 12  1  1  0  0  0  0
 13  7  1  0  0  0  0
 13  6  1  0  0  0  0
 14  5  1  0  0  0  0
 15  4  2  0  0  0  0
 16 10  2  0  0  0  0
 16 15  1  0  0  0  0
 17 11  1  0  0  0  0
 18  5  1  0  0  0  0
 18  2  2  0  0  0  0
 19  2  1  0  0  0  0
 19 11  2  0  0  0  0
 20 26  1  6  0  0  0
 21 25  1  0  0  0  0
 22 21  2  0  0  0  0
 22 23  1  0  0  0  0
 23 20  1  0  0  0  0
 24 21  1  0  0  0  0
 25 20  1  0  0  0  0
 25 17  1  0  0  0  0
 27 26  1  0  0  0  0
 28 30  1  0  0  0  0
 29 28  2  0  0  0  0
 30 31  2  0  0  0  0
 30 32  1  0  0  0  0
M  END
>  <MODEL>
7

>  <REMARK>
 VINA RESULT:      -6.2      4.377      8.041
  Name = 
  4 active torsions:
  status: ('A' for Active; 'I' for Inactive)
    1  A    between atoms: C_1  and  C_10
    2  A    between atoms: C_2  and  N_24
    3  A    between atoms: C_6  and  C_7
    4  A    between atoms: N_27  and  N_32
                            x       y       z     vdW  Elec       q    Type
                         _______ _______ _______ _____ _____    ______ ____

>  <TORSDO>
F 4

$$$$
=
 OpenBabel11052421313D

 32 36  0  0  1  0  0  0  0  0999 V2000
  188.0420  177.0500  146.3800 C   0  0  1  0  0  3  0  0  0  0  0  0
  191.9910  174.9150  143.8750 C   0  0  0  0  0  0  0  0  0  0  0  0
  190.2900  170.8140  142.0710 C   0  0  0  0  0  3  0  0  0  0  0  0
  191.4760  170.5940  141.4460 N   0  0  0  0  0  0  0  0  0  0  0  0
  190.6280  176.3190  145.3060 C   0  0  0  0  0  0  0  0  0  0  0  0
  189.7160  174.2510  144.4130 C   0  0  0  0  0  3  0  0  0  0  0  0
  188.2620  175.6050  145.9180 C   0  0  0  0  0  2  0  0  0  0  0  0
  190.1130  171.9280  142.8280 N   0  0  0  0  0  0  0  0  0  0  0  0
  190.9260  173.9950  143.7550 C   0  0  0  0  0  0  0  0  0  0  0  0
  191.1100  172.8430  142.9760 C   0  0  0  0  0  0  0  0  0  0  0  0
  193.3810  173.5670  142.4860 C   0  0  0  0  0  0  0  0  0  0  0  0
  189.3110  177.5880  147.0400 C   0  0  0  0  0  2  0  0  0  0  0  0
  189.5540  175.4120  145.1750 C   0  0  0  0  0  0  0  0  0  0  0  0
  190.4790  177.6130  146.0540 C   0  0  0  0  0  2  0  0  0  0  0  0
  192.5020  171.4760  141.5630 C   0  0  0  0  0  3  0  0  0  0  0  0
  192.3480  172.6310  142.3350 C   0  0  0  0  0  0  0  0  0  0  0  0
  194.6350  173.3680  141.8170 N   0  0  0  0  0  2  0  0  0  0  0  0
  191.8320  176.0710  144.6420 C   0  0  0  0  0  3  0  0  0  0  0  0
  193.1700  174.6810  143.2410 N   0  0  0  0  0  0  0  0  0  0  0  0
  196.6270  174.0410  143.2390 C   0  0  1  0  0  3  0  0  0  0  0  0
  196.3180  175.0050  141.0580 C   0  0  0  0  0  0  0  0  0  0  0  0
  197.4000  175.6650  141.4120 C   0  0  0  0  0  3  0  0  0  0  0  0
  197.9390  175.3110  143.0840 S   0  0  0  0  0  0  0  0  0  0  0  0
  195.5880  175.1950  139.4750 Cl  0  0  0  0  0  0  0  0  0  0  0  0
  195.7980  174.1280  142.0440 N   0  0  0  0  0  0  0  0  0  0  0  0
  197.2570  172.6570  143.3570 C   0  0  0  0  0  2  0  0  0  0  0  0
  196.5090  171.8440  144.1900 F   0  0  0  0  0  0  0  0  0  0  0  0
  186.3980  178.0890  144.9830 C   0  0  0  0  0  3  0  0  0  0  0  0
  187.6460  177.9000  145.2650 N   0  0  0  0  0  0  0  0  0  0  0  0
  186.0010  178.9410  143.8610 C   0  0  0  0  0  0  0  0  0  0  0  0
  185.4480  180.0550  144.0640 O   0  0  0  0  0  0  0  0  0  0  0  0
  186.2530  178.4870  142.4700 C   0  0  0  0  0  1  0  0  0  0  0  0
  1 29  1  6  0  0  0
  1 12  1  0  0  0  0
  2 18  1  0  0  0  0
  3  8  1  0  0  0  0
  4 15  1  0  0  0  0
  4  3  2  0  0  0  0
  5 14  1  0  0  0  0
  6 13  2  0  0  0  0
  7  1  1  0  0  0  0
  8 10  2  0  0  0  0
  9  2  2  0  0  0  0
  9  6  1  0  0  0  0
 10  9  1  0  0  0  0
 11 19  2  0  0  0  0
 13  5  1  0  0  0  0
 13  7  1  0  0  0  0
 14 12  1  0  0  0  0
 15 16  2  0  0  0  0
 16 11  1  0  0  0  0
 16 10  1  0  0  0  0
 17 25  1  0  0  0  0
 17 11  1  0  0  0  0
 18  5  2  0  0  0  0
 19  2  1  0  0  0  0
 20 26  1  6  0  0  0
 21 22  2  0  0  0  0
 21 25  1  0  0  0  0
 22 23  1  0  0  0  0
 23 20  1  0  0  0  0
 24 21  1  0  0  0  0
 25 20  1  0  0  0  0
 26 27  1  0  0  0  0
 28 29  2  0  0  0  0
 30 31  2  0  0  0  0
 30 28  1  0  0  0  0
 32 30  1  0  0  0  0
M  END
>  <MODEL>
8

>  <REMARK>
 VINA RESULT:      -6.1      4.905      8.845
  Name = 
  4 active torsions:
  status: ('A' for Active; 'I' for Inactive)
    1  A    between atoms: C_1  and  C_10
    2  A    between atoms: C_2  and  N_24
    3  A    between atoms: C_6  and  C_7
    4  A    between atoms: N_27  and  N_32
                            x       y       z     vdW  Elec       q    Type
                         _______ _______ _______ _____ _____    ______ ____

>  <TORSDO>
F 4

$$$$
=
 OpenBabel11052421313D

 32 36  0  0  1  0  0  0  0  0999 V2000
  187.4920  177.6900  142.7060 C   0  0  1  0  0  3  0  0  0  0  0  0
  191.3490  174.2930  142.7820 C   0  0  0  0  0  0  0  0  0  0  0  0
  194.9220  176.4710  145.1170 C   0  0  0  0  0  3  0  0  0  0  0  0
  195.6680  175.3380  145.0400 N   0  0  0  0  0  0  0  0  0  0  0  0
  189.2810  175.4550  142.2830 C   0  0  0  0  0  0  0  0  0  0  0  0
  191.0600  176.6040  143.4750 C   0  0  0  0  0  3  0  0  0  0  0  0
  188.9900  177.8930  142.9600 C   0  0  0  0  0  2  0  0  0  0  0  0
  193.6740  176.5060  144.5830 N   0  0  0  0  0  0  0  0  0  0  0  0
  191.8540  175.4520  143.4120 C   0  0  0  0  0  0  0  0  0  0  0  0
  193.1450  175.4160  143.9620 C   0  0  0  0  0  0  0  0  0  0  0  0
  193.3660  173.1060  143.2300 C   0  0  0  0  0  0  0  0  0  0  0  0
  187.2830  176.7760  141.5000 C   0  0  0  0  0  2  0  0  0  0  0  0
  189.7730  176.6100  142.9300 C   0  0  0  0  0  0  0  0  0  0  0  0
  187.8800  175.3910  141.7450 C   0  0  0  0  0  2  0  0  0  0  0  0
  195.1850  174.2250  144.4300 C   0  0  0  0  0  3  0  0  0  0  0  0
  193.9040  174.2320  143.8720 C   0  0  0  0  0  0  0  0  0  0  0  0
  194.1260  171.8910  143.1550 N   0  0  0  0  0  2  0  0  0  0  0  0
  190.0670  174.3010  142.2290 C   0  0  0  0  0  3  0  0  0  0  0  0
  192.1070  173.1670  142.7140 N   0  0  0  0  0  0  0  0  0  0  0  0
  193.8230  170.7200  140.9230 C   0  0  1  0  0  3  0  0  0  0  0  0
  193.4210  169.5330  142.9750 C   0  0  0  0  0  0  0  0  0  0  0  0
  193.1010  168.5760  142.1300 C   0  0  0  0  0  3  0  0  0  0  0  0
  193.1650  169.0880  140.4140 S   0  0  0  0  0  0  0  0  0  0  0  0
  193.4170  169.2810  144.7110 Cl  0  0  0  0  0  0  0  0  0  0  0  0
  193.7760  170.7700  142.3790 N   0  0  0  0  0  0  0  0  0  0  0  0
  195.2560  170.8790  140.4250 C   0  0  0  0  0  2  0  0  0  0  0  0
  196.0780  169.9090  140.9710 F   0  0  0  0  0  0  0  0  0  0  0  0
  187.1110  177.5780  145.0680 C   0  0  0  0  0  3  0  0  0  0  0  0
  186.8330  177.1400  143.8840 N   0  0  0  0  0  0  0  0  0  0  0  0
  186.4510  177.0240  146.2510 C   0  0  0  0  0  0  0  0  0  0  0  0
  187.1180  176.4360  147.1430 O   0  0  0  0  0  0  0  0  0  0  0  0
  184.9790  177.1580  146.3990 C   0  0  0  0  0  1  0  0  0  0  0  0
  1  7  1  0  0  0  0
  1 29  1  1  0  0  0
  2  9  1  0  0  0  0
  4  3  1  0  0  0  0
  5 13  2  0  0  0  0
  8  3  2  0  0  0  0
  9  6  2  0  0  0  0
  9 10  1  0  0  0  0
 10  8  1  0  0  0  0
 11 16  1  0  0  0  0
 12 14  1  0  0  0  0
 12  1  1  0  0  0  0
 13  7  1  0  0  0  0
 13  6  1  0  0  0  0
 14  5  1  0  0  0  0
 15  4  2  0  0  0  0
 16 10  2  0  0  0  0
 16 15  1  0  0  0  0
 17 11  1  0  0  0  0
 18  5  1  0  0  0  0
 18  2  2  0  0  0  0
 19  2  1  0  0  0  0
 19 11  2  0  0  0  0
 20 26  1  1  0  0  0
 20 25  1  0  0  0  0
 21 24  1  0  0  0  0
 22 21  2  0  0  0  0
 23 20  1  0  0  0  0
 23 22  1  0  0  0  0
 25 21  1  0  0  0  0
 25 17  1  0  0  0  0
 26 27  1  0  0  0  0
 28 30  1  0  0  0  0
 29 28  2  0  0  0  0
 30 32  1  0  0  0  0
 30 31  2  0  0  0  0
M  END
>  <MODEL>
9

>  <REMARK>
 VINA RESULT:      -6.0      5.080      8.554
  Name = 
  4 active torsions:
  status: ('A' for Active; 'I' for Inactive)
    1  A    between atoms: C_1  and  C_10
    2  A    between atoms: C_2  and  N_24
    3  A    between atoms: C_6  and  C_7
    4  A    between atoms: N_27  and  N_32
                            x       y       z     vdW  Elec       q    Type
                         _______ _______ _______ _____ _____    ______ ____

>  <TORSDO>
F 4

$$$$
