=
 OpenBabel11052417553D

 31 34  0  0  1  0  0  0  0  0999 V2000
  188.7770  173.5190  140.8790 C   0  0  0  0  0  0  0  0  0  0  0  0
  188.2640  175.6360  143.9830 C   0  0  1  0  0  3  0  0  0  0  0  0
  187.5730  176.8880  143.4950 C   0  0  0  0  0  0  0  0  0  0  0  0
  186.8810  178.6900  142.2030 N   0  0  0  0  0  0  0  0  0  0  0  0
  188.9530  174.8900  142.8730 C   0  0  0  0  0  0  0  0  0  0  0  0
  190.1600  173.5900  140.7040 C   0  0  0  0  0  3  0  0  0  0  0  0
  187.7710  177.5360  142.1540 C   0  0  0  0  0  3  0  0  0  0  0  0
  190.5180  176.5330  144.6950 C   0  0  1  0  0  3  0  0  0  0  0  0
  187.9790  172.7890  139.9550 N   0  0  0  0  0  1  0  0  0  0  0  0
  187.0730  176.4260  146.4510 C   0  0  0  0  0  2  0  0  0  0  0  0
  186.3000  178.7090  143.3520 C   0  0  0  0  0  0  0  0  0  0  0  0
  191.2530  175.6420  143.6850 C   0  0  0  0  0  2  0  0  0  0  0  0
  189.2040  175.8980  145.1800 C   0  0  1  0  0  3  0  0  0  0  0  0
  188.1760  174.1660  141.9600 C   0  0  0  0  0  3  0  0  0  0  0  0
  185.3600  179.7130  143.7230 N   0  0  0  0  0  1  0  0  0  0  0  0
  190.3510  174.9690  142.6890 C   0  0  0  0  0  0  0  0  0  0  0  0
  190.9440  174.3070  141.6100 C   0  0  0  0  0  3  0  0  0  0  0  0
  188.5580  176.7300  146.3000 C   0  0  0  0  0  2  0  0  0  0  0  0
  186.2200  177.3810  145.6090 C   0  0  0  0  0  2  0  0  0  0  0  0
  186.7050  177.6070  144.1980 C   0  0  2  0  0  3  0  0  0  0  0  0
  191.4110  176.9210  145.7940 N   0  0  0  0  0  2  0  0  0  0  0  0
  192.2160  175.7850  146.2420 C   0  0  2  0  0  3  0  0  0  0  0  0
  191.2770  176.1850  148.3720 O   0  0  0  0  0  0  0  0  0  0  0  0
  191.7480  175.3670  147.5990 C   0  0  0  0  0  3  0  0  0  0  0  0
  193.6870  176.1940  146.2870 C   0  0  0  0  0  2  0  0  0  0  0  0
  195.7060  174.8930  146.0830 O   0  0  0  0  0  1  0  0  0  0  0  0
  194.5770  175.3320  145.3900 C   0  0  2  0  0  3  0  0  0  0  0  0
  194.9930  176.0590  144.1200 C   0  0  0  0  0  2  0  0  0  0  0  0
  196.3230  175.6350  143.7130 N   0  0  0  0  0  0  0  0  0  0  0  0
  197.0050  176.8120  143.2020 C   0  0  0  0  0  1  0  0  0  0  0  0
  196.1500  174.7400  142.5840 C   0  0  0  0  0  1  0  0  0  0  0  0
  1 14  1  0  0  0  0
  2  5  1  6  0  0  0
  2 13  1  0  0  0  0
  3  2  1  0  0  0  0
  3 20  1  0  0  0  0
  4 11  2  0  0  0  0
  6  1  2  0  0  0  0
  6 17  1  0  0  0  0
  7  4  1  0  0  0  0
  7  3  2  0  0  0  0
  8 13  1  0  0  0  0
  8 21  1  1  0  0  0
  9  1  1  0  0  0  0
 11 15  1  0  0  0  0
 11 20  1  0  0  0  0
 12  8  1  0  0  0  0
 13 18  1  1  0  0  0
 14  5  2  0  0  0  0
 16  5  1  0  0  0  0
 16 12  1  0  0  0  0
 17 16  2  0  0  0  0
 18 10  1  0  0  0  0
 19 10  1  0  0  0  0
 20 19  1  1  0  0  0
 21 22  1  0  0  0  0
 22 25  1  1  0  0  0
 22 24  1  0  0  0  0
 24 23  2  0  0  0  0
 27 26  1  1  0  0  0
 27 25  1  0  0  0  0
 28 27  1  0  0  0  0
 29 28  1  0  0  0  0
 30 29  1  0  0  0  0
 31 29  1  0  0  0  0
M  END
>  <MODEL>
1

>  <REMARK>
 VINA RESULT:      -7.1      0.000      0.000
  Name = 
  7 active torsions:
  status: ('A' for Active; 'I' for Inactive)
    1  A    between atoms: N_1  and  C_24
    2  A    between atoms: C_7  and  CA_9
    3  A    between atoms: C_7  and  C_19
    4  A    between atoms: CA_9  and  C_22
    5  A    between atoms: CA_9  and  N_23
    6  A    between atoms: C_15  and  N_23
    7  A    between atoms: C_19  and  C_24
                            x       y       z     vdW  Elec       q    Type
                         _______ _______ _______ _____ _____    ______ ____

>  <TORSDO>
F 7

$$$$
=
 OpenBabel11052417553D

 31 34  0  0  1  0  0  0  0  0999 V2000
  190.5310  172.3720  140.6530 C   0  0  0  0  0  0  0  0  0  0  0  0
  190.4850  175.5680  142.6930 C   0  0  1  0  0  3  0  0  0  0  0  0
  190.3910  175.1140  144.1310 C   0  0  0  0  0  0  0  0  0  0  0  0
  189.8950  173.9240  146.0630 N   0  0  0  0  0  0  0  0  0  0  0  0
  190.0610  174.4970  141.7250 C   0  0  0  0  0  0  0  0  0  0  0  0
  189.2780  172.4010  140.0380 C   0  0  0  0  0  3  0  0  0  0  0  0
  189.6790  173.8870  144.6210 C   0  0  0  0  0  3  0  0  0  0  0  0
  188.2380  176.6760  142.3520 C   0  0  1  0  0  3  0  0  0  0  0  0
  191.4100  171.2760  140.4270 N   0  0  0  0  0  1  0  0  0  0  0  0
  191.5520  177.9100  143.9230 C   0  0  0  0  0  2  0  0  0  0  0  0
  190.5830  174.9760  146.3450 C   0  0  0  0  0  0  0  0  0  0  0  0
  187.8630  175.6960  141.2330 C   0  0  0  0  0  2  0  0  0  0  0  0
  189.7570  176.9050  142.4370 C   0  0  1  0  0  3  0  0  0  0  0  0
  190.9220  173.4160  141.4920 C   0  0  0  0  0  3  0  0  0  0  0  0
  190.9710  175.3090  147.6740 N   0  0  0  0  0  1  0  0  0  0  0  0
  188.7910  174.5210  141.1090 C   0  0  0  0  0  0  0  0  0  0  0  0
  188.4150  173.4750  140.2600 C   0  0  0  0  0  3  0  0  0  0  0  0
  190.1030  178.0010  143.4590 C   0  0  0  0  0  2  0  0  0  0  0  0
  191.6790  177.0550  145.1870 C   0  0  0  0  0  2  0  0  0  0  0  0
  190.9120  175.7560  145.1720 C   0  0  2  0  0  3  0  0  0  0  0  0
  187.4730  177.9240  142.2310 N   0  0  0  0  0  2  0  0  0  0  0  0
  186.0890  177.7340  142.6630 C   0  0  2  0  0  3  0  0  0  0  0  0
  185.6270  178.3730  140.4380 O   0  0  0  0  0  0  0  0  0  0  0  0
  185.1770  178.1000  141.5370 C   0  0  0  0  0  3  0  0  0  0  0  0
  185.8140  178.6150  143.8810 C   0  0  0  0  0  2  0  0  0  0  0  0
  183.9870  179.0780  145.3830 O   0  0  0  0  0  1  0  0  0  0  0  0
  184.7260  178.0510  144.7950 C   0  0  2  0  0  3  0  0  0  0  0  0
  185.2940  177.1350  145.8700 C   0  0  0  0  0  2  0  0  0  0  0  0
  186.4980  177.7190  146.4400 N   0  0  0  0  0  0  0  0  0  0  0  0
  187.5020  176.6700  146.4780 C   0  0  0  0  0  1  0  0  0  0  0  0
  186.1930  178.0440  147.8220 C   0  0  0  0  0  1  0  0  0  0  0  0
  1 14  1  0  0  0  0
  2  5  1  6  0  0  0
  2  3  1  0  0  0  0
  3  7  2  0  0  0  0
  3 20  1  0  0  0  0
  4 11  2  0  0  0  0
  6 17  1  0  0  0  0
  6  1  2  0  0  0  0
  7  4  1  0  0  0  0
  8 21  1  6  0  0  0
  8 13  1  0  0  0  0
  9  1  1  0  0  0  0
 10 19  1  0  0  0  0
 11 15  1  0  0  0  0
 12  8  1  0  0  0  0
 13  2  1  0  0  0  0
 13 18  1  1  0  0  0
 14  5  2  0  0  0  0
 16 12  1  0  0  0  0
 16  5  1  0  0  0  0
 17 16  2  0  0  0  0
 18 10  1  0  0  0  0
 20 19  1  1  0  0  0
 20 11  1  0  0  0  0
 21 22  1  0  0  0  0
 22 24  1  6  0  0  0
 22 25  1  0  0  0  0
 23 24  2  0  0  0  0
 25 27  1  0  0  0  0
 27 26  1  1  0  0  0
 27 28  1  0  0  0  0
 28 29  1  0  0  0  0
 29 30  1  0  0  0  0
 29 31  1  0  0  0  0
M  END
>  <MODEL>
2

>  <REMARK>
 VINA RESULT:      -7.0      3.652      6.771
  Name = 
  7 active torsions:
  status: ('A' for Active; 'I' for Inactive)
    1  A    between atoms: N_1  and  C_24
    2  A    between atoms: C_7  and  CA_9
    3  A    between atoms: C_7  and  C_19
    4  A    between atoms: CA_9  and  C_22
    5  A    between atoms: CA_9  and  N_23
    6  A    between atoms: C_15  and  N_23
    7  A    between atoms: C_19  and  C_24
                            x       y       z     vdW  Elec       q    Type
                         _______ _______ _______ _____ _____    ______ ____

>  <TORSDO>
F 7

$$$$
=
 OpenBabel11052417553D

 31 34  0  0  1  0  0  0  0  0999 V2000
  190.9250  177.0140  147.9980 C   0  0  0  0  0  0  0  0  0  0  0  0
  188.6380  177.3480  144.9910 C   0  0  1  0  0  3  0  0  0  0  0  0
  187.2470  177.4640  145.5670 C   0  0  0  0  0  0  0  0  0  0  0  0
  185.3690  177.2430  146.9170 N   0  0  0  0  0  0  0  0  0  0  0  0
  189.6180  176.7590  145.9700 C   0  0  0  0  0  0  0  0  0  0  0  0
  191.3350  175.6830  147.9050 C   0  0  0  0  0  3  0  0  0  0  0  0
  186.7590  176.8080  146.8270 C   0  0  0  0  0  2  0  0  0  0  0  0
  188.5350  175.1000  143.8390 C   0  0  1  0  0  3  0  0  0  0  0  0
  191.3750  177.8240  149.0770 N   0  0  0  0  0  1  0  0  0  0  0  0
  187.3930  178.6400  142.7740 C   0  0  0  0  0  2  0  0  0  0  0  0
  185.1080  177.9880  145.8990 C   0  0  0  0  0  0  0  0  0  0  0  0
  189.6620  174.5370  144.7140 C   0  0  0  0  0  2  0  0  0  0  0  0
  188.6650  176.6180  143.6300 C   0  0  1  0  0  3  0  0  0  0  0  0
  190.0700  177.5500  147.0340 C   0  0  0  0  0  3  0  0  0  0  0  0
  183.8310  178.5810  145.6860 N   0  0  0  0  0  1  0  0  0  0  0  0
  190.0260  175.4100  145.8820 C   0  0  0  0  0  0  0  0  0  0  0  0
  190.8930  174.8870  146.8470 C   0  0  0  0  0  3  0  0  0  0  0  0
  187.6200  177.1400  142.6310 C   0  0  0  0  0  2  0  0  0  0  0  0
  186.2400  178.9400  143.7360 C   0  0  0  0  0  2  0  0  0  0  0  0
  186.2470  178.1510  145.0220 C   0  0  0  0  0  0  0  0  0  0  0  0
  188.4310  174.3520  142.5790 N   0  0  0  0  0  2  0  0  0  0  0  0
  189.6560  173.5980  142.3130 C   0  0  2  0  0  3  0  0  0  0  0  0
  191.6190  174.5270  141.3840 O   0  0  0  0  0  0  0  0  0  0  0  0
  190.4300  174.2970  141.2420 C   0  0  0  0  0  3  0  0  0  0  0  0
  189.2930  172.1820  141.8730 C   0  0  0  0  0  2  0  0  0  0  0  0
  191.1840  171.6930  143.2860 O   0  0  0  0  0  1  0  0  0  0  0  0
  190.1980  171.1130  142.4870 C   0  0  2  0  0  3  0  0  0  0  0  0
  190.8380  170.2230  141.4310 C   0  0  0  0  0  2  0  0  0  0  0  0
  190.8840  170.9170  140.1530 N   0  0  0  0  0  0  0  0  0  0  0  0
  190.4970  169.9560  139.1350 C   0  0  0  0  0  1  0  0  0  0  0  0
  192.2760  171.2400  139.9030 C   0  0  0  0  0  1  0  0  0  0  0  0
  1  9  1  0  0  0  0
  2  3  1  1  0  0  0
  2  5  1  0  0  0  0
  3  7  1  0  0  0  0
  5 14  1  0  0  0  0
  6  1  1  0  0  0  0
  7  4  1  0  0  0  0
  8 21  1  6  0  0  0
  8 12  1  0  0  0  0
 10 19  1  0  0  0  0
 11  4  2  0  0  0  0
 12 16  1  0  0  0  0
 13 18  1  6  0  0  0
 13  8  1  0  0  0  0
 13  2  1  0  0  0  0
 14  1  2  0  0  0  0
 15 11  1  0  0  0  0
 16  5  2  0  0  0  0
 16 17  1  0  0  0  0
 17  6  2  0  0  0  0
 18 10  1  0  0  0  0
 19 20  1  0  0  0  0
 20  3  2  0  0  0  0
 20 11  1  0  0  0  0
 22 24  1  6  0  0  0
 22 21  1  0  0  0  0
 24 23  2  0  0  0  0
 25 22  1  0  0  0  0
 25 27  1  0  0  0  0
 27 26  1  6  0  0  0
 28 27  1  0  0  0  0
 29 28  1  0  0  0  0
 30 29  1  0  0  0  0
 31 29  1  0  0  0  0
M  END
>  <MODEL>
3

>  <REMARK>
 VINA RESULT:      -6.8      3.399      5.728
  Name = 
  7 active torsions:
  status: ('A' for Active; 'I' for Inactive)
    1  A    between atoms: N_1  and  C_24
    2  A    between atoms: C_7  and  CA_9
    3  A    between atoms: C_7  and  C_19
    4  A    between atoms: CA_9  and  C_22
    5  A    between atoms: CA_9  and  N_23
    6  A    between atoms: C_15  and  N_23
    7  A    between atoms: C_19  and  C_24
                            x       y       z     vdW  Elec       q    Type
                         _______ _______ _______ _____ _____    ______ ____

>  <TORSDO>
F 7

$$$$
=
 OpenBabel11052417553D

 31 34  0  0  1  0  0  0  0  0999 V2000
  190.8910  176.9210  147.8010 C   0  0  0  0  0  0  0  0  0  0  0  0
  188.5970  177.2870  144.8030 C   0  0  1  0  0  3  0  0  0  0  0  0
  187.2110  177.4350  145.3860 C   0  0  0  0  0  0  0  0  0  0  0  0
  185.3360  177.2600  146.7460 N   0  0  0  0  0  0  0  0  0  0  0  0
  189.5680  176.6820  145.7810 C   0  0  0  0  0  0  0  0  0  0  0  0
  191.2730  175.5810  147.7130 C   0  0  0  0  0  3  0  0  0  0  0  0
  186.7150  176.7960  146.6510 C   0  0  0  0  0  2  0  0  0  0  0  0
  188.4410  175.0350  143.6640 C   0  0  1  0  0  3  0  0  0  0  0  0
  191.3630  177.7270  148.8740 N   0  0  0  0  0  1  0  0  0  0  0  0
  187.3680  178.5930  142.5860 C   0  0  0  0  0  2  0  0  0  0  0  0
  185.0850  178.0050  145.7250 C   0  0  0  0  0  0  0  0  0  0  0  0
  189.5600  174.4540  144.5370 C   0  0  0  0  0  2  0  0  0  0  0  0
  188.6010  176.5500  143.4470 C   0  0  1  0  0  3  0  0  0  0  0  0
  190.0420  177.4700  146.8380 C   0  0  0  0  0  3  0  0  0  0  0  0
  183.8190  178.6230  145.5150 N   0  0  0  0  0  1  0  0  0  0  0  0
  189.9490  175.3250  145.6980 C   0  0  0  0  0  0  0  0  0  0  0  0
  190.8090  174.7890  146.6610 C   0  0  0  0  0  3  0  0  0  0  0  0
  187.5620  177.0880  142.4490 C   0  0  0  0  0  2  0  0  0  0  0  0
  186.2260  178.9220  143.5530 C   0  0  0  0  0  2  0  0  0  0  0  0
  186.2230  178.1390  144.8430 C   0  0  0  0  0  0  0  0  0  0  0  0
  188.3150  174.2830  142.4080 N   0  0  0  0  0  2  0  0  0  0  0  0
  189.5690  173.6090  142.0730 C   0  0  2  0  0  3  0  0  0  0  0  0
  189.1850  173.7080  139.7450 O   0  0  0  0  0  0  0  0  0  0  0  0
  189.9430  173.9560  140.6680 C   0  0  0  0  0  3  0  0  0  0  0  0
  189.3850  172.1000  142.2190 C   0  0  0  0  0  2  0  0  0  0  0  0
  190.5370  170.0050  141.9050 O   0  0  0  0  0  1  0  0  0  0  0  0
  190.7100  171.3380  142.2810 C   0  0  2  0  0  3  0  0  0  0  0  0
  191.3550  171.4130  143.6570 C   0  0  0  0  0  2  0  0  0  0  0  0
  192.4580  172.3600  143.6420 N   0  0  0  0  0  0  0  0  0  0  0  0
  193.1610  172.1730  142.3840 C   0  0  0  0  0  1  0  0  0  0  0  0
  193.3760  171.9500  144.6890 C   0  0  0  0  0  1  0  0  0  0  0  0
  1  9  1  0  0  0  0
  2  3  1  1  0  0  0
  2  5  1  0  0  0  0
  3  7  1  0  0  0  0
  5 14  1  0  0  0  0
  6  1  1  0  0  0  0
  7  4  1  0  0  0  0
  8 21  1  6  0  0  0
  8 12  1  0  0  0  0
 10 19  1  0  0  0  0
 11  4  2  0  0  0  0
 12 16  1  0  0  0  0
 13 18  1  6  0  0  0
 13  8  1  0  0  0  0
 13  2  1  0  0  0  0
 14  1  2  0  0  0  0
 15 11  1  0  0  0  0
 16  5  2  0  0  0  0
 16 17  1  0  0  0  0
 17  6  2  0  0  0  0
 18 10  1  0  0  0  0
 19 20  1  0  0  0  0
 20  3  2  0  0  0  0
 20 11  1  0  0  0  0
 22 24  1  6  0  0  0
 22 25  1  0  0  0  0
 22 21  1  0  0  0  0
 23 24  2  0  0  0  0
 25 27  1  0  0  0  0
 27 26  1  1  0  0  0
 27 28  1  0  0  0  0
 29 28  1  0  0  0  0
 29 31  1  0  0  0  0
 30 29  1  0  0  0  0
M  END
>  <MODEL>
4

>  <REMARK>
 VINA RESULT:      -6.7      3.316      5.450
  Name = 
  7 active torsions:
  status: ('A' for Active; 'I' for Inactive)
    1  A    between atoms: N_1  and  C_24
    2  A    between atoms: C_7  and  CA_9
    3  A    between atoms: C_7  and  C_19
    4  A    between atoms: CA_9  and  C_22
    5  A    between atoms: CA_9  and  N_23
    6  A    between atoms: C_15  and  N_23
    7  A    between atoms: C_19  and  C_24
                            x       y       z     vdW  Elec       q    Type
                         _______ _______ _______ _____ _____    ______ ____

>  <TORSDO>
F 7

$$$$
=
 OpenBabel11052417553D

 31 34  0  0  1  0  0  0  0  0999 V2000
  190.5970  175.6550  147.0700 C   0  0  0  0  0  0  0  0  0  0  0  0
  189.5070  175.0690  143.4850 C   0  0  1  0  0  3  0  0  0  0  0  0
  190.7910  174.8920  142.7090 C   0  0  0  0  0  0  0  0  0  0  0  0
  192.9870  175.0540  141.9700 N   0  0  0  0  0  0  0  0  0  0  0  0
  189.7260  175.7530  144.8080 C   0  0  0  0  0  0  0  0  0  0  0  0
  190.2850  177.0040  147.2520 C   0  0  0  0  0  3  0  0  0  0  0  0
  192.1000  175.5670  143.0070 C   0  0  0  0  0  2  0  0  0  0  0  0
  188.6430  177.2600  142.5660 C   0  0  1  0  0  3  0  0  0  0  0  0
  191.2030  174.9170  148.1230 N   0  0  0  0  0  1  0  0  0  0  0  0
  188.4410  173.6190  141.2720 C   0  0  0  0  0  2  0  0  0  0  0  0
  192.3150  174.2550  141.2150 C   0  0  0  0  0  0  0  0  0  0  0  0
  188.6920  177.9230  143.9490 C   0  0  0  0  0  2  0  0  0  0  0  0
  188.3940  175.7450  142.6570 C   0  0  1  0  0  3  0  0  0  0  0  0
  190.3180  175.0320  145.8520 C   0  0  0  0  0  3  0  0  0  0  0  0
  192.8910  173.5800  140.1020 N   0  0  0  0  0  1  0  0  0  0  0  0
  189.4190  177.1190  144.9900 C   0  0  0  0  0  0  0  0  0  0  0  0
  189.6920  177.7300  146.2170 C   0  0  0  0  0  3  0  0  0  0  0  0
  188.1980  175.1240  141.2640 C   0  0  0  0  0  2  0  0  0  0  0  0
  189.8970  173.2890  140.9280 C   0  0  0  0  0  2  0  0  0  0  0  0
  190.9360  174.1270  141.6320 C   0  0  0  0  0  0  0  0  0  0  0  0
  187.6880  177.9510  141.6900 N   0  0  0  0  0  2  0  0  0  0  0  0
  186.3160  177.7630  142.1590 C   0  0  2  0  0  3  0  0  0  0  0  0
  184.7720  178.6380  140.6010 O   0  0  0  0  0  0  0  0  0  0  0  0
  185.4100  177.6680  140.9740 C   0  0  0  0  0  3  0  0  0  0  0  0
  185.9180  178.9440  143.0420 C   0  0  0  0  0  2  0  0  0  0  0  0
  183.6620  179.0410  143.8870 O   0  0  0  0  0  1  0  0  0  0  0  0
  184.9430  178.5570  144.1560 C   0  0  2  0  0  3  0  0  0  0  0  0
  185.4080  179.0410  145.5220 C   0  0  0  0  0  2  0  0  0  0  0  0
  186.0720  177.9630  146.2360 N   0  0  0  0  0  0  0  0  0  0  0  0
  185.2120  176.7970  146.1390 C   0  0  0  0  0  1  0  0  0  0  0  0
  186.0950  178.3400  147.6370 C   0  0  0  0  0  1  0  0  0  0  0  0
  1  6  1  0  0  0  0
  1  9  1  0  0  0  0
  2  3  1  6  0  0  0
  2  5  1  0  0  0  0
  3  7  1  0  0  0  0
  4  7  1  0  0  0  0
  5 16  2  0  0  0  0
  5 14  1  0  0  0  0
  8 21  1  6  0  0  0
  8 13  1  0  0  0  0
  8 12  1  0  0  0  0
 11 20  1  0  0  0  0
 11  4  2  0  0  0  0
 12 16  1  0  0  0  0
 13 18  1  6  0  0  0
 13  2  1  0  0  0  0
 14  1  2  0  0  0  0
 15 11  1  0  0  0  0
 16 17  1  0  0  0  0
 17  6  2  0  0  0  0
 18 10  1  0  0  0  0
 19 10  1  0  0  0  0
 19 20  1  0  0  0  0
 20  3  2  0  0  0  0
 21 22  1  0  0  0  0
 22 24  1  6  0  0  0
 22 25  1  0  0  0  0
 23 24  2  0  0  0  0
 25 27  1  0  0  0  0
 27 26  1  6  0  0  0
 27 28  1  0  0  0  0
 28 29  1  0  0  0  0
 29 31  1  0  0  0  0
 30 29  1  0  0  0  0
M  END
>  <MODEL>
5

>  <REMARK>
 VINA RESULT:      -6.6      3.643      7.695
  Name = 
  7 active torsions:
  status: ('A' for Active; 'I' for Inactive)
    1  A    between atoms: N_1  and  C_24
    2  A    between atoms: C_7  and  CA_9
    3  A    between atoms: C_7  and  C_19
    4  A    between atoms: CA_9  and  C_22
    5  A    between atoms: CA_9  and  N_23
    6  A    between atoms: C_15  and  N_23
    7  A    between atoms: C_19  and  C_24
                            x       y       z     vdW  Elec       q    Type
                         _______ _______ _______ _____ _____    ______ ____

>  <TORSDO>
F 7

$$$$
=
 OpenBabel11052417553D

 31 34  0  0  1  0  0  0  0  0999 V2000
  195.8430  174.2300  144.0230 C   0  0  0  0  0  0  0  0  0  0  0  0
  192.1060  173.7080  144.4110 C   0  0  1  0  0  3  0  0  0  0  0  0
  191.5810  173.5730  143.0010 C   0  0  0  0  0  0  0  0  0  0  0  0
  191.2700  173.7900  140.7090 N   0  0  0  0  0  0  0  0  0  0  0  0
  193.4600  174.3650  144.4580 C   0  0  0  0  0  0  0  0  0  0  0  0
  195.9890  175.5690  144.3920 C   0  0  0  0  0  3  0  0  0  0  0  0
  192.1320  174.2630  141.7860 C   0  0  0  0  0  3  0  0  0  0  0  0
  191.0850  175.9050  145.1350 C   0  0  1  0  0  3  0  0  0  0  0  0
  196.9760  173.4780  143.6090 N   0  0  0  0  0  1  0  0  0  0  0  0
  189.7050  172.2930  145.0130 C   0  0  0  0  0  2  0  0  0  0  0  0
  190.3870  172.9970  141.2120 C   0  0  0  0  0  0  0  0  0  0  0  0
  192.4650  176.5360  145.3600 C   0  0  0  0  0  2  0  0  0  0  0  0
  191.0980  174.3840  145.3640 C   0  0  1  0  0  3  0  0  0  0  0  0
  194.5830  173.6310  144.0560 C   0  0  0  0  0  3  0  0  0  0  0  0
  189.3890  172.3580  140.4230 N   0  0  0  0  0  1  0  0  0  0  0  0
  193.6080  175.7210  144.8230 C   0  0  0  0  0  0  0  0  0  0  0  0
  194.8770  176.3080  144.7970 C   0  0  0  0  0  3  0  0  0  0  0  0
  189.6810  173.7920  145.2830 C   0  0  0  0  0  2  0  0  0  0  0  0
  189.6330  171.9960  143.5120 C   0  0  0  0  0  2  0  0  0  0  0  0
  190.5350  172.8350  142.6410 C   0  0  2  0  0  3  0  0  0  0  0  0
  190.0590  176.6000  145.9240 N   0  0  0  0  0  2  0  0  0  0  0  0
  189.2830  177.5130  145.0870 C   0  0  2  0  0  3  0  0  0  0  0  0
  187.5730  177.1310  146.6700 O   0  0  0  0  0  0  0  0  0  0  0  0
  187.8590  177.4900  145.5400 C   0  0  0  0  0  3  0  0  0  0  0  0
  189.3860  177.0740  143.6280 C   0  0  0  0  0  2  0  0  0  0  0  0
  188.0900  175.2360  142.7590 O   0  0  0  0  0  1  0  0  0  0  0  0
  188.0520  176.6010  143.0480 C   0  0  2  0  0  3  0  0  0  0  0  0
  187.6520  177.3870  141.8080 C   0  0  0  0  0  2  0  0  0  0  0  0
  186.2090  177.5630  141.7710 N   0  0  0  0  0  0  0  0  0  0  0  0
  185.8600  177.9160  140.4060 C   0  0  0  0  0  1  0  0  0  0  0  0
  185.9080  178.7260  142.5850 C   0  0  0  0  0  1  0  0  0  0  0  0
  1 14  2  0  0  0  0
  1  6  1  0  0  0  0
  2  3  1  6  0  0  0
  2  5  1  0  0  0  0
  2 13  1  0  0  0  0
  4 11  2  0  0  0  0
  4  7  1  0  0  0  0
  5 16  2  0  0  0  0
  6 17  2  0  0  0  0
  7  3  2  0  0  0  0
  8 12  1  0  0  0  0
  8 13  1  0  0  0  0
  8 21  1  1  0  0  0
  9  1  1  0  0  0  0
 10 18  1  0  0  0  0
 11 20  1  0  0  0  0
 13 18  1  6  0  0  0
 14  5  1  0  0  0  0
 15 11  1  0  0  0  0
 16 12  1  0  0  0  0
 17 16  1  0  0  0  0
 19 10  1  0  0  0  0
 20  3  1  0  0  0  0
 20 19  1  1  0  0  0
 22 25  1  6  0  0  0
 22 24  1  0  0  0  0
 22 21  1  0  0  0  0
 24 23  2  0  0  0  0
 27 26  1  6  0  0  0
 27 25  1  0  0  0  0
 28 27  1  0  0  0  0
 29 28  1  0  0  0  0
 29 31  1  0  0  0  0
 30 29  1  0  0  0  0
M  END
>  <MODEL>
6

>  <REMARK>
 VINA RESULT:      -6.4      2.300      6.568
  Name = 
  7 active torsions:
  status: ('A' for Active; 'I' for Inactive)
    1  A    between atoms: N_1  and  C_24
    2  A    between atoms: C_7  and  CA_9
    3  A    between atoms: C_7  and  C_19
    4  A    between atoms: CA_9  and  C_22
    5  A    between atoms: CA_9  and  N_23
    6  A    between atoms: C_15  and  N_23
    7  A    between atoms: C_19  and  C_24
                            x       y       z     vdW  Elec       q    Type
                         _______ _______ _______ _____ _____    ______ ____

>  <TORSDO>
F 7

$$$$
=
 OpenBabel11052417553D

 31 34  0  0  1  0  0  0  0  0999 V2000
  191.1920  177.1660  148.1980 C   0  0  0  0  0  0  0  0  0  0  0  0
  192.4930  174.7300  145.5990 C   0  0  1  0  0  3  0  0  0  0  0  0
  193.8030  175.3180  145.1320 C   0  0  0  0  0  0  0  0  0  0  0  0
  195.4970  176.7910  144.5350 N   0  0  0  0  0  0  0  0  0  0  0  0
  191.6150  175.7500  146.2750 C   0  0  0  0  0  0  0  0  0  0  0  0
  190.1040  177.7420  147.5390 C   0  0  0  0  0  3  0  0  0  0  0  0
  194.1260  176.7810  145.0330 C   0  0  0  0  0  2  0  0  0  0  0  0
  191.0560  174.9590  143.5310 C   0  0  1  0  0  3  0  0  0  0  0  0
  191.5370  177.5940  149.5100 N   0  0  0  0  0  1  0  0  0  0  0  0
  193.6800  172.3300  144.6160 C   0  0  0  0  0  2  0  0  0  0  0  0
  195.8780  175.5730  144.3660 C   0  0  0  0  0  0  0  0  0  0  0  0
  190.0510  175.8590  144.2610 C   0  0  0  0  0  2  0  0  0  0  0  0
  191.7450  173.9670  144.4840 C   0  0  1  0  0  3  0  0  0  0  0  0
  191.9440  176.1740  147.5690 C   0  0  0  0  0  3  0  0  0  0  0  0
  197.1760  175.2320  143.8890 N   0  0  0  0  0  1  0  0  0  0  0  0
  190.5200  176.3390  145.6060 C   0  0  0  0  0  0  0  0  0  0  0  0
  189.7660  177.3230  146.2510 C   0  0  0  0  0  3  0  0  0  0  0  0
  192.6330  172.9740  143.7150 C   0  0  0  0  0  2  0  0  0  0  0  0
  194.9930  173.1180  144.5960 C   0  0  0  0  0  2  0  0  0  0  0  0
  194.8530  174.6150  144.7180 C   0  0  0  0  0  0  0  0  0  0  0  0
  190.4270  174.3060  142.3760 N   0  0  0  0  0  2  0  0  0  0  0  0
  188.9720  174.2700  142.5210 C   0  0  2  0  0  3  0  0  0  0  0  0
  189.3270  171.9350  142.5430 O   0  0  0  0  0  0  0  0  0  0  0  0
  188.5410  172.8520  142.7160 C   0  0  0  0  0  3  0  0  0  0  0  0
  188.3250  174.8570  141.2680 C   0  0  0  0  0  2  0  0  0  0  0  0
  188.4040  177.2380  141.6380 O   0  0  0  0  0  1  0  0  0  0  0  0
  187.5440  176.1430  141.5440 C   0  0  2  0  0  3  0  0  0  0  0  0
  186.6900  176.0410  142.8000 C   0  0  0  0  0  2  0  0  0  0  0  0
  186.3690  177.3690  143.2970 N   0  0  0  0  0  0  0  0  0  0  0  0
  186.2130  177.2560  144.7370 C   0  0  0  0  0  1  0  0  0  0  0  0
  185.0610  177.7090  142.7690 C   0  0  0  0  0  1  0  0  0  0  0  0
  1  9  1  0  0  0  0
  2  3  1  6  0  0  0
  2  5  1  0  0  0  0
  4  7  1  0  0  0  0
  5 14  2  0  0  0  0
  6  1  2  0  0  0  0
  7  3  1  0  0  0  0
  8 21  1  6  0  0  0
  8 12  1  0  0  0  0
  8 13  1  0  0  0  0
 11  4  2  0  0  0  0
 11 20  1  0  0  0  0
 12 16  1  0  0  0  0
 13 18  1  6  0  0  0
 13  2  1  0  0  0  0
 14  1  1  0  0  0  0
 15 11  1  0  0  0  0
 16 17  2  0  0  0  0
 16  5  1  0  0  0  0
 17  6  1  0  0  0  0
 18 10  1  0  0  0  0
 19 10  1  0  0  0  0
 19 20  1  0  0  0  0
 20  3  2  0  0  0  0
 21 22  1  0  0  0  0
 22 25  1  6  0  0  0
 22 24  1  0  0  0  0
 23 24  2  0  0  0  0
 25 27  1  0  0  0  0
 27 26  1  1  0  0  0
 27 28  1  0  0  0  0
 28 29  1  0  0  0  0
 29 30  1  0  0  0  0
 31 29  1  0  0  0  0
M  END
>  <MODEL>
7

>  <REMARK>
 VINA RESULT:      -6.4      2.583      7.809
  Name = 
  7 active torsions:
  status: ('A' for Active; 'I' for Inactive)
    1  A    between atoms: N_1  and  C_24
    2  A    between atoms: C_7  and  CA_9
    3  A    between atoms: C_7  and  C_19
    4  A    between atoms: CA_9  and  C_22
    5  A    between atoms: CA_9  and  N_23
    6  A    between atoms: C_15  and  N_23
    7  A    between atoms: C_19  and  C_24
                            x       y       z     vdW  Elec       q    Type
                         _______ _______ _______ _____ _____    ______ ____

>  <TORSDO>
F 7

$$$$
=
 OpenBabel11052417553D

 31 34  0  0  1  0  0  0  0  0999 V2000
  186.1680  178.7420  143.3500 C   0  0  0  0  0  0  0  0  0  0  0  0
  188.5560  175.8490  143.9100 C   0  0  1  0  0  3  0  0  0  0  0  0
  189.9030  176.4920  144.1450 C   0  0  0  0  0  0  0  0  0  0  0  0
  191.7260  177.9300  144.0800 N   0  0  0  0  0  0  0  0  0  0  0  0
  187.5880  176.7790  143.2280 C   0  0  0  0  0  0  0  0  0  0  0  0
  185.8830  178.6240  141.9880 C   0  0  0  0  0  3  0  0  0  0  0  0
  190.3870  177.7720  143.5250 C   0  0  0  0  0  3  0  0  0  0  0  0
  188.9140  174.6950  141.6890 C   0  0  1  0  0  3  0  0  0  0  0  0
  185.5970  179.8010  144.1080 N   0  0  0  0  0  1  0  0  0  0  0  0
  189.7850  173.7000  145.3250 C   0  0  0  0  0  2  0  0  0  0  0  0
  191.9680  176.9280  144.8540 C   0  0  0  0  0  0  0  0  0  0  0  0
  187.8020  175.5130  141.0210 C   0  0  0  0  0  2  0  0  0  0  0  0
  188.6590  174.4870  143.1920 C   0  0  1  0  0  3  0  0  0  0  0  0
  187.0170  177.8220  143.9670 C   0  0  0  0  0  3  0  0  0  0  0  0
  193.1960  176.7790  145.5590 N   0  0  0  0  0  1  0  0  0  0  0  0
  187.3060  176.6660  141.8490 C   0  0  0  0  0  0  0  0  0  0  0  0
  186.4450  177.5850  141.2440 C   0  0  0  0  0  3  0  0  0  0  0  0
  189.7000  173.5400  143.8120 C   0  0  0  0  0  2  0  0  0  0  0  0
  190.8600  174.7180  145.7190 C   0  0  0  0  0  2  0  0  0  0  0  0
  190.8620  175.9990  144.9220 C   0  0  2  0  0  3  0  0  0  0  0  0
  189.1440  173.4390  140.9630 N   0  0  0  0  0  2  0  0  0  0  0  0
  190.0980  173.6310  139.8720 C   0  0  2  0  0  3  0  0  0  0  0  0
  188.4740  173.1140  138.2360 O   0  0  0  0  0  0  0  0  0  0  0  0
  189.5990  172.9090  138.6620 C   0  0  0  0  0  3  0  0  0  0  0  0
  191.4630  173.0890  140.2920 C   0  0  0  0  0  2  0  0  0  0  0  0
  193.7740  173.6310  139.8750 O   0  0  0  0  0  1  0  0  0  0  0  0
  192.5550  174.1600  140.3000 C   0  0  2  0  0  3  0  0  0  0  0  0
  192.7160  174.8080  141.6680 C   0  0  0  0  0  2  0  0  0  0  0  0
  194.0570  174.5720  142.1790 N   0  0  0  0  0  0  0  0  0  0  0  0
  193.9100  173.9410  143.4790 C   0  0  0  0  0  1  0  0  0  0  0  0
  194.6470  175.8760  142.4220 C   0  0  0  0  0  1  0  0  0  0  0  0
  1 14  1  0  0  0  0
  1  9  1  0  0  0  0
  2  5  1  6  0  0  0
  2  3  1  0  0  0  0
  3 20  1  0  0  0  0
  4 11  2  0  0  0  0
  5 14  2  0  0  0  0
  6  1  2  0  0  0  0
  7  4  1  0  0  0  0
  7  3  2  0  0  0  0
  8 21  1  6  0  0  0
  8 13  1  0  0  0  0
 10 19  1  0  0  0  0
 11 20  1  0  0  0  0
 11 15  1  0  0  0  0
 12  8  1  0  0  0  0
 12 16  1  0  0  0  0
 13 18  1  1  0  0  0
 13  2  1  0  0  0  0
 16  5  1  0  0  0  0
 17 16  2  0  0  0  0
 17  6  1  0  0  0  0
 18 10  1  0  0  0  0
 20 19  1  6  0  0  0
 22 24  1  6  0  0  0
 22 25  1  0  0  0  0
 22 21  1  0  0  0  0
 23 24  2  0  0  0  0
 25 27  1  0  0  0  0
 27 26  1  1  0  0  0
 27 28  1  0  0  0  0
 28 29  1  0  0  0  0
 29 31  1  0  0  0  0
 29 30  1  0  0  0  0
M  END
>  <MODEL>
8

>  <REMARK>
 VINA RESULT:      -6.4      2.740      5.599
  Name = 
  7 active torsions:
  status: ('A' for Active; 'I' for Inactive)
    1  A    between atoms: N_1  and  C_24
    2  A    between atoms: C_7  and  CA_9
    3  A    between atoms: C_7  and  C_19
    4  A    between atoms: CA_9  and  C_22
    5  A    between atoms: CA_9  and  N_23
    6  A    between atoms: C_15  and  N_23
    7  A    between atoms: C_19  and  C_24
                            x       y       z     vdW  Elec       q    Type
                         _______ _______ _______ _____ _____    ______ ____

>  <TORSDO>
F 7

$$$$
=
 OpenBabel11052417553D

 31 34  0  0  1  0  0  0  0  0999 V2000
  191.3110  171.6070  141.4620 C   0  0  0  0  0  0  0  0  0  0  0  0
  192.5960  174.2640  143.8440 C   0  0  1  0  0  3  0  0  0  0  0  0
  193.7070  173.5930  144.6170 C   0  0  0  0  0  0  0  0  0  0  0  0
  195.0260  172.0300  145.7180 N   0  0  0  0  0  0  0  0  0  0  0  0
  191.6730  173.2710  143.1900 C   0  0  0  0  0  0  0  0  0  0  0  0
  190.0570  171.3140  142.0020 C   0  0  0  0  0  3  0  0  0  0  0  0
  193.7650  172.1400  144.9930 C   0  0  0  0  0  3  0  0  0  0  0  0
  190.8500  174.6080  145.6410 C   0  0  1  0  0  3  0  0  0  0  0  0
  191.7710  170.9090  140.3120 N   0  0  0  0  0  1  0  0  0  0  0  0
  194.0040  176.6130  144.6400 C   0  0  0  0  0  2  0  0  0  0  0  0
  195.5740  173.1940  145.7630 C   0  0  0  0  0  0  0  0  0  0  0  0
  189.8300  173.7390  144.8940 C   0  0  0  0  0  2  0  0  0  0  0  0
  191.8280  175.3090  144.6820 C   0  0  1  0  0  3  0  0  0  0  0  0
  192.1150  172.5830  142.0540 C   0  0  0  0  0  3  0  0  0  0  0  0
  196.8250  173.4320  146.4010 N   0  0  0  0  0  1  0  0  0  0  0  0
  190.4080  172.9680  143.7400 C   0  0  0  0  0  0  0  0  0  0  0  0
  189.6060  171.9980  143.1320 C   0  0  0  0  0  3  0  0  0  0  0  0
  192.7430  176.2900  145.4330 C   0  0  0  0  0  2  0  0  0  0  0  0
  195.1520  175.6670  145.0090 C   0  0  0  0  0  2  0  0  0  0  0  0
  194.7850  174.2060  145.0950 C   0  0  2  0  0  3  0  0  0  0  0  0
  190.1730  175.5360  146.5550 N   0  0  0  0  0  2  0  0  0  0  0  0
  188.9970  176.1320  145.9220 C   0  0  2  0  0  3  0  0  0  0  0  0
  189.4030  177.9030  144.4130 O   0  0  0  0  0  0  0  0  0  0  0  0
  189.3030  177.5540  145.5780 C   0  0  0  0  0  3  0  0  0  0  0  0
  187.8130  176.0580  146.8850 C   0  0  0  0  0  2  0  0  0  0  0  0
  186.2770  177.5990  147.9220 O   0  0  0  0  0  1  0  0  0  0  0  0
  186.8170  177.2040  146.6980 C   0  0  2  0  0  3  0  0  0  0  0  0
  185.7020  176.8440  145.7270 C   0  0  0  0  0  2  0  0  0  0  0  0
  185.9060  177.5210  144.4560 N   0  0  0  0  0  0  0  0  0  0  0  0
  184.6750  178.2280  144.1490 C   0  0  0  0  0  1  0  0  0  0  0  0
  186.0470  176.4870  143.4480 C   0  0  0  0  0  1  0  0  0  0  0  0
  1  6  2  0  0  0  0
  1 14  1  0  0  0  0
  2  5  1  1  0  0  0
  2  3  1  0  0  0  0
  2 13  1  0  0  0  0
  3  7  2  0  0  0  0
  3 20  1  0  0  0  0
  4 11  2  0  0  0  0
  5 16  1  0  0  0  0
  6 17  1  0  0  0  0
  7  4  1  0  0  0  0
  8 21  1  6  0  0  0
  9  1  1  0  0  0  0
 10 19  1  0  0  0  0
 10 18  1  0  0  0  0
 11 15  1  0  0  0  0
 12  8  1  0  0  0  0
 13 18  1  1  0  0  0
 13  8  1  0  0  0  0
 14  5  2  0  0  0  0
 16 12  1  0  0  0  0
 17 16  2  0  0  0  0
 20 19  1  1  0  0  0
 20 11  1  0  0  0  0
 22 24  1  1  0  0  0
 22 21  1  0  0  0  0
 22 25  1  0  0  0  0
 23 24  2  0  0  0  0
 27 25  1  0  0  0  0
 27 26  1  1  0  0  0
 28 27  1  0  0  0  0
 29 28  1  0  0  0  0
 30 29  1  0  0  0  0
 31 29  1  0  0  0  0
M  END
>  <MODEL>
9

>  <REMARK>
 VINA RESULT:      -6.3      2.598      7.205
  Name = 
  7 active torsions:
  status: ('A' for Active; 'I' for Inactive)
    1  A    between atoms: N_1  and  C_24
    2  A    between atoms: C_7  and  CA_9
    3  A    between atoms: C_7  and  C_19
    4  A    between atoms: CA_9  and  C_22
    5  A    between atoms: CA_9  and  N_23
    6  A    between atoms: C_15  and  N_23
    7  A    between atoms: C_19  and  C_24
                            x       y       z     vdW  Elec       q    Type
                         _______ _______ _______ _____ _____    ______ ____

>  <TORSDO>
F 7

$$$$
