=
 OpenBabel11052420153D

 34 38  0  0  1  0  0  0  0  0999 V2000
  186.4670  177.1030  144.3730 C   0  0  1  0  0  3  0  0  0  0  0  0
  184.8490  178.1120  141.1860 C   0  0  0  0  0  3  0  0  0  0  0  0
  184.2950  178.5280  143.3640 C   0  0  0  0  0  3  0  0  0  0  0  0
  187.7120  176.1780  146.3830 C   0  0  0  0  0  0  0  0  0  0  0  0
  187.6970  176.3840  144.9000 C   0  0  0  0  0  3  0  0  0  0  0  0
  185.7260  177.5850  146.6130 C   0  0  0  0  0  0  0  0  0  0  0  0
  184.8670  178.1870  147.5270 O   0  0  0  0  0  1  0  0  0  0  0  0
  186.8230  176.7790  147.1670 C   0  0  0  0  0  3  0  0  0  0  0  0
  184.4630  178.4380  144.7380 C   0  0  0  0  0  0  0  0  0  0  0  0
  185.5510  177.7150  145.2740 C   0  0  0  0  0  0  0  0  0  0  0  0
  183.5270  179.0750  145.5460 O   0  0  0  0  0  1  0  0  0  0  0  0
  185.4730  177.6700  139.9370 C   0  0  0  0  0  3  0  0  0  0  0  0
  186.5700  176.9440  139.7380 C   0  0  0  0  0  0  0  0  0  0  0  0
  187.4170  176.4120  140.8090 C   0  0  0  0  0  3  0  0  0  0  0  0
  185.1710  177.9240  142.4660 C   0  0  0  0  0  0  0  0  0  0  0  0
  187.2940  176.5210  142.1260 C   0  0  0  0  0  3  0  0  0  0  0  0
  186.2820  177.2000  142.9660 C   0  0  0  0  0  0  0  0  0  0  0  0
  186.9730  176.6440  138.3450 C   0  0  0  0  0  0  0  0  0  0  0  0
  187.3690  175.2670  137.9230 C   0  0  0  0  0  1  0  0  0  0  0  0
  186.9890  177.5620  137.4810 O   0  0  0  0  0  0  0  0  0  0  0  0
  188.8370  175.3820  146.9910 C   0  0  0  0  0  2  0  0  0  0  0  0
  191.4750  174.0750  144.6660 C   0  0  0  0  0  2  0  0  0  0  0  0
  191.1990  175.8430  147.0090 C   0  0  0  0  0  2  0  0  0  0  0  0
  194.9560  175.5680  144.9200 C   0  0  0  0  0  0  0  0  0  0  0  0
  193.8660  174.7910  144.5060 C   0  0  0  0  0  3  0  0  0  0  0  0
  192.6390  174.8780  145.1710 C   0  0  0  0  0  0  0  0  0  0  0  0
  193.5790  176.5420  146.6680 C   0  0  0  0  0  3  0  0  0  0  0  0
  192.4890  175.7760  146.2440 C   0  0  0  0  0  0  0  0  0  0  0  0
  194.8050  176.4430  146.0050 C   0  0  0  0  0  3  0  0  0  0  0  0
  190.0730  175.3740  146.1950 N   0  0  0  0  0  0  0  0  0  0  0  0
  190.3490  174.0240  145.6960 C   0  0  0  0  0  2  0  0  0  0  0  0
  196.2450  175.4640  144.2170 C   0  0  0  0  0  0  0  0  0  0  0  0
  196.9280  174.4070  144.2880 O   0  0  0  0  0  1  0  0  0  0  0  0
  196.7220  176.5310  143.4660 O   0  0  0  0  0  0  0  0  0  0  0  0
  1  5  1  6  0  0  0
  1 10  1  0  0  0  0
  2 15  1  0  0  0  0
  3  9  1  0  0  0  0
  4 21  1  0  0  0  0
  4  8  1  0  0  0  0
  5  4  2  0  0  0  0
  6  8  2  0  0  0  0
  6  7  1  0  0  0  0
  9 10  2  0  0  0  0
  9 11  1  0  0  0  0
 10  6  1  0  0  0  0
 12  2  2  0  0  0  0
 13 12  1  0  0  0  0
 13 14  2  0  0  0  0
 14 16  1  0  0  0  0
 15 17  1  0  0  0  0
 15  3  2  0  0  0  0
 16 17  2  0  0  0  0
 17  1  1  0  0  0  0
 18 13  1  0  0  0  0
 19 18  1  0  0  0  0
 20 18  2  0  0  0  0
 22 26  1  0  0  0  0
 22 31  1  0  0  0  0
 24 29  1  0  0  0  0
 25 24  2  0  0  0  0
 25 26  1  0  0  0  0
 26 28  2  0  0  0  0
 28 27  1  0  0  0  0
 28 23  1  0  0  0  0
 29 27  2  0  0  0  0
 30 21  1  0  0  0  0
 30 23  1  0  0  0  0
 31 30  1  0  0  0  0
 32 33  1  0  0  0  0
 32 24  1  0  0  0  0
 34 32  2  0  0  0  0
M  END
>  <MODEL>
1

>  <REMARK>
 VINA RESULT:      -8.9      0.000      0.000
  Name = 
  4 active torsions:
  status: ('A' for Active; 'I' for Inactive)
    1  A    between atoms: C_3  and  C_25
    2  A    between atoms: C_7  and  C_11
    3  A    between atoms: C_8  and  C_18
    4  A    between atoms: C_18  and  N_30
                            x       y       z     vdW  Elec       q    Type
                         _______ _______ _______ _____ _____    ______ ____

>  <TORSDO>
F 4

$$$$
=
 OpenBabel11052420153D

 34 38  0  0  1  0  0  0  0  0999 V2000
  187.2040  176.9630  144.0530 C   0  0  1  0  0  3  0  0  0  0  0  0
  186.3330  177.6570  140.5100 C   0  0  0  0  0  3  0  0  0  0  0  0
  185.8420  178.7800  142.4380 C   0  0  0  0  0  3  0  0  0  0  0  0
  187.8470  176.1840  146.3830 C   0  0  0  0  0  0  0  0  0  0  0  0
  188.0130  176.0000  144.9060 C   0  0  0  0  0  3  0  0  0  0  0  0
  186.5650  178.2310  145.9980 C   0  0  0  0  0  0  0  0  0  0  0  0
  185.9530  179.3140  146.6190 O   0  0  0  0  0  1  0  0  0  0  0  0
  187.2150  177.2460  146.8740 C   0  0  0  0  0  3  0  0  0  0  0  0
  185.8690  178.9850  143.8110 C   0  0  0  0  0  0  0  0  0  0  0  0
  186.5450  178.0730  144.6500 C   0  0  0  0  0  0  0  0  0  0  0  0
  185.2080  180.1020  144.3100 O   0  0  0  0  0  1  0  0  0  0  0  0
  186.8140  176.7170  139.4950 C   0  0  0  0  0  3  0  0  0  0  0  0
  187.5470  175.6140  139.6280 C   0  0  0  0  0  0  0  0  0  0  0  0
  188.0430  175.0970  140.9060 C   0  0  0  0  0  3  0  0  0  0  0  0
  186.4680  177.6920  141.8360 C   0  0  0  0  0  0  0  0  0  0  0  0
  187.8840  175.5720  142.1360 C   0  0  0  0  0  3  0  0  0  0  0  0
  187.1680  176.7630  142.6450 C   0  0  0  0  0  0  0  0  0  0  0  0
  187.8920  174.8470  138.4090 C   0  0  0  0  0  0  0  0  0  0  0  0
  188.6900  173.5860  138.4770 C   0  0  0  0  0  1  0  0  0  0  0  0
  187.5120  175.2540  137.2780 O   0  0  0  0  0  0  0  0  0  0  0  0
  188.5230  175.2120  147.3130 C   0  0  0  0  0  2  0  0  0  0  0  0
  192.0210  176.5650  147.3380 C   0  0  0  0  0  2  0  0  0  0  0  0
  190.4160  174.4690  146.0260 C   0  0  0  0  0  2  0  0  0  0  0  0
  194.6790  174.6370  145.4330 C   0  0  0  0  0  0  0  0  0  0  0  0
  194.0440  175.6010  146.2280 C   0  0  0  0  0  3  0  0  0  0  0  0
  192.6630  175.5520  146.4350 C   0  0  0  0  0  0  0  0  0  0  0  0
  192.5380  173.5530  145.0620 C   0  0  0  0  0  3  0  0  0  0  0  0
  191.9080  174.5080  145.8650 C   0  0  0  0  0  0  0  0  0  0  0  0
  193.9170  173.6140  144.8520 C   0  0  0  0  0  3  0  0  0  0  0  0
  189.9900  175.2050  147.2210 N   0  0  0  0  0  0  0  0  0  0  0  0
  190.5040  176.5760  147.1690 C   0  0  0  0  0  2  0  0  0  0  0  0
  196.1340  174.7010  145.2180 C   0  0  0  0  0  0  0  0  0  0  0  0
  196.6140  175.4400  144.3160 O   0  0  0  0  0  0  0  0  0  0  0  0
  196.9940  173.9480  146.0070 O   0  0  0  0  0  1  0  0  0  0  0  0
  1 10  1  0  0  0  0
  1  5  1  6  0  0  0
  2 15  1  0  0  0  0
  3  9  1  0  0  0  0
  4  8  1  0  0  0  0
  4 21  1  0  0  0  0
  5  4  2  0  0  0  0
  6  7  1  0  0  0  0
  6  8  2  0  0  0  0
  9 11  1  0  0  0  0
  9 10  2  0  0  0  0
 10  6  1  0  0  0  0
 12 13  1  0  0  0  0
 12  2  2  0  0  0  0
 13 14  2  0  0  0  0
 14 16  1  0  0  0  0
 15  3  2  0  0  0  0
 15 17  1  0  0  0  0
 16 17  2  0  0  0  0
 17  1  1  0  0  0  0
 18 19  1  0  0  0  0
 18 13  1  0  0  0  0
 20 18  2  0  0  0  0
 23 30  1  0  0  0  0
 24 25  1  0  0  0  0
 25 26  2  0  0  0  0
 26 22  1  0  0  0  0
 27 28  2  0  0  0  0
 28 23  1  0  0  0  0
 28 26  1  0  0  0  0
 29 27  1  0  0  0  0
 29 24  2  0  0  0  0
 30 21  1  0  0  0  0
 31 30  1  0  0  0  0
 31 22  1  0  0  0  0
 32 24  1  0  0  0  0
 32 34  1  0  0  0  0
 33 32  2  0  0  0  0
M  END
>  <MODEL>
2

>  <REMARK>
 VINA RESULT:      -8.5      1.251      1.910
  Name = 
  4 active torsions:
  status: ('A' for Active; 'I' for Inactive)
    1  A    between atoms: C_3  and  C_25
    2  A    between atoms: C_7  and  C_11
    3  A    between atoms: C_8  and  C_18
    4  A    between atoms: C_18  and  N_30
                            x       y       z     vdW  Elec       q    Type
                         _______ _______ _______ _____ _____    ______ ____

>  <TORSDO>
F 4

$$$$
=
 OpenBabel11052420153D

 34 38  0  0  1  0  0  0  0  0999 V2000
  187.8290  177.5740  144.6200 C   0  0  1  0  0  3  0  0  0  0  0  0
  184.2760  178.6540  144.6450 C   0  0  0  0  0  3  0  0  0  0  0  0
  185.8480  178.5840  146.3010 C   0  0  0  0  0  3  0  0  0  0  0  0
  190.1850  176.6690  144.3390 C   0  0  0  0  0  0  0  0  0  0  0  0
  188.9130  177.0930  143.6710 C   0  0  0  0  0  3  0  0  0  0  0  0
  189.3580  177.5150  146.4790 C   0  0  0  0  0  0  0  0  0  0  0  0
  189.6960  177.7470  147.8080 O   0  0  0  0  0  1  0  0  0  0  0  0
  190.3950  176.9140  145.6280 C   0  0  0  0  0  3  0  0  0  0  0  0
  187.1090  178.3260  146.8220 C   0  0  0  0  0  0  0  0  0  0  0  0
  188.1260  177.8050  145.9930 C   0  0  0  0  0  0  0  0  0  0  0  0
  187.3160  178.5900  148.1720 O   0  0  0  0  0  1  0  0  0  0  0  0
  183.5310  178.5710  143.3870 C   0  0  0  0  0  3  0  0  0  0  0  0
  183.9260  178.1640  142.1830 C   0  0  0  0  0  0  0  0  0  0  0  0
  185.2770  177.6880  141.8710 C   0  0  0  0  0  3  0  0  0  0  0  0
  185.5340  178.3520  144.9650 C   0  0  0  0  0  0  0  0  0  0  0  0
  186.3380  177.5590  142.6590 C   0  0  0  0  0  3  0  0  0  0  0  0
  186.5330  177.8420  144.0990 C   0  0  0  0  0  0  0  0  0  0  0  0
  182.9450  178.1870  141.0740 C   0  0  0  0  0  0  0  0  0  0  0  0
  181.5060  178.5100  141.3080 C   0  0  0  0  0  1  0  0  0  0  0  0
  183.3160  177.9310  139.8970 O   0  0  0  0  0  0  0  0  0  0  0  0
  191.2820  176.0770  143.4950 C   0  0  0  0  0  2  0  0  0  0  0  0
  194.4650  174.9100  145.1000 C   0  0  0  0  0  2  0  0  0  0  0  0
  192.1180  173.8280  143.6820 C   0  0  0  0  0  2  0  0  0  0  0  0
  194.9800  171.1700  145.4990 C   0  0  0  0  0  0  0  0  0  0  0  0
  195.1790  172.5570  145.5530 C   0  0  0  0  0  3  0  0  0  0  0  0
  194.2530  173.4290  144.9740 C   0  0  0  0  0  0  0  0  0  0  0  0
  192.9020  171.5300  144.2930 C   0  0  0  0  0  3  0  0  0  0  0  0
  193.0960  172.9120  144.3600 C   0  0  0  0  0  0  0  0  0  0  0  0
  193.8370  170.6630  144.8650 C   0  0  0  0  0  3  0  0  0  0  0  0
  192.1960  175.1870  144.2260 N   0  0  0  0  0  0  0  0  0  0  0  0
  193.5710  175.6820  144.1320 C   0  0  0  0  0  2  0  0  0  0  0  0
  195.9650  170.2600  146.1070 C   0  0  0  0  0  0  0  0  0  0  0  0
  195.5870  169.3160  146.8520 O   0  0  0  0  0  1  0  0  0  0  0  0
  197.3220  170.4330  145.8650 O   0  0  0  0  0  0  0  0  0  0  0  0
  1  5  1  6  0  0  0
  1 10  1  0  0  0  0
  2 15  1  0  0  0  0
  3  9  1  0  0  0  0
  4  8  1  0  0  0  0
  5  4  2  0  0  0  0
  6  7  1  0  0  0  0
  8  6  2  0  0  0  0
  9 11  1  0  0  0  0
 10  6  1  0  0  0  0
 10  9  2  0  0  0  0
 12  2  2  0  0  0  0
 13 12  1  0  0  0  0
 14 13  2  0  0  0  0
 14 16  1  0  0  0  0
 15  3  2  0  0  0  0
 16 17  2  0  0  0  0
 17  1  1  0  0  0  0
 17 15  1  0  0  0  0
 18 19  1  0  0  0  0
 18 13  1  0  0  0  0
 20 18  2  0  0  0  0
 21 30  1  0  0  0  0
 21  4  1  0  0  0  0
 23 30  1  0  0  0  0
 23 28  1  0  0  0  0
 24 25  1  0  0  0  0
 24 32  1  0  0  0  0
 26 22  1  0  0  0  0
 26 25  2  0  0  0  0
 27 28  2  0  0  0  0
 27 29  1  0  0  0  0
 28 26  1  0  0  0  0
 29 24  2  0  0  0  0
 31 30  1  0  0  0  0
 31 22  1  0  0  0  0
 32 33  1  0  0  0  0
 34 32  2  0  0  0  0
M  END
>  <MODEL>
3

>  <REMARK>
 VINA RESULT:      -8.3      2.698      4.096
  Name = 
  4 active torsions:
  status: ('A' for Active; 'I' for Inactive)
    1  A    between atoms: C_3  and  C_25
    2  A    between atoms: C_7  and  C_11
    3  A    between atoms: C_8  and  C_18
    4  A    between atoms: C_18  and  N_30
                            x       y       z     vdW  Elec       q    Type
                         _______ _______ _______ _____ _____    ______ ____

>  <TORSDO>
F 4

$$$$
=
 OpenBabel11052420153D

 34 38  0  0  1  0  0  0  0  0999 V2000
  194.3300  173.6010  143.7180 C   0  0  0  0  0  0  0  0  0  0  0  0
  197.2470  171.9100  145.2740 C   0  0  0  0  0  3  0  0  0  0  0  0
  197.1040  173.7550  143.9350 C   0  0  0  0  0  3  0  0  0  0  0  0
  192.1790  174.4800  142.6920 C   0  0  0  0  0  0  0  0  0  0  0  0
  192.8120  173.5410  143.6730 C   0  0  0  0  0  3  0  0  0  0  0  0
  194.3480  175.5300  142.2770 C   0  0  0  0  0  0  0  0  0  0  0  0
  194.9900  176.5720  141.6160 O   0  0  0  0  0  1  0  0  0  0  0  0
  192.8940  175.4250  142.0900 C   0  0  0  0  0  3  0  0  0  0  0  0
  196.4330  174.7000  143.1710 C   0  0  0  0  0  0  0  0  0  0  0  0
  195.0290  174.6380  143.0390 C   0  0  2  0  0  3  0  0  0  0  0  0
  197.1930  175.6860  142.5510 O   0  0  0  0  0  1  0  0  0  0  0  0
  196.9870  170.7240  146.0930 C   0  0  0  0  0  3  0  0  0  0  0  0
  195.8370  170.1260  146.3940 C   0  0  0  0  0  0  0  0  0  0  0  0
  194.5230  170.5740  145.9280 C   0  0  0  0  0  3  0  0  0  0  0  0
  196.4400  172.7250  144.5940 C   0  0  0  0  0  0  0  0  0  0  0  0
  194.1990  171.6020  145.1520 C   0  0  0  0  0  3  0  0  0  0  0  0
  195.0290  172.6370  144.4960 C   0  0  0  0  0  0  0  0  0  0  0  0
  195.8740  168.9240  147.2590 C   0  0  0  0  0  0  0  0  0  0  0  0
  197.1640  168.3080  147.6920 C   0  0  0  0  0  1  0  0  0  0  0  0
  194.7990  168.3930  147.6490 O   0  0  0  0  0  0  0  0  0  0  0  0
  190.6880  174.4210  142.4950 C   0  0  0  0  0  2  0  0  0  0  0  0
  189.0100  175.5600  145.6510 C   0  0  0  0  0  2  0  0  0  0  0  0
  188.7060  175.7680  142.7260 C   0  0  0  0  0  2  0  0  0  0  0  0
  186.1870  178.0790  145.3460 C   0  0  0  0  0  0  0  0  0  0  0  0
  187.1360  177.1990  145.8830 C   0  0  0  0  0  3  0  0  0  0  0  0
  187.9650  176.4500  145.0440 C   0  0  0  0  0  0  0  0  0  0  0  0
  186.9120  177.4720  143.1090 C   0  0  0  0  0  3  0  0  0  0  0  0
  187.8670  176.6050  143.6470 C   0  0  0  0  0  0  0  0  0  0  0  0
  186.0800  178.2100  143.9540 C   0  0  0  0  0  3  0  0  0  0  0  0
  189.9220  175.2960  143.3950 N   0  0  0  0  0  0  0  0  0  0  0  0
  189.5680  174.5790  144.6230 C   0  0  0  0  0  2  0  0  0  0  0  0
  185.3150  178.8590  146.2390 C   0  0  0  0  0  0  0  0  0  0  0  0
  185.7650  179.3330  147.3170 O   0  0  0  0  0  1  0  0  0  0  0  0
  183.9860  179.0820  145.9030 O   0  0  0  0  0  0  0  0  0  0  0  0
  1 17  2  0  0  0  0
  2 12  1  0  0  0  0
  3 15  1  0  0  0  0
  4  5  2  0  0  0  0
  5  1  1  0  0  0  0
  7  6  1  0  0  0  0
  8  6  2  0  0  0  0
  8  4  1  0  0  0  0
  9  3  2  0  0  0  0
 10  6  1  6  0  0  0
 10  9  1  0  0  0  0
 10  1  1  0  0  0  0
 11  9  1  0  0  0  0
 12 13  2  0  0  0  0
 13 18  1  0  0  0  0
 14 13  1  0  0  0  0
 15  2  2  0  0  0  0
 16 14  2  0  0  0  0
 17 15  1  0  0  0  0
 17 16  1  0  0  0  0
 18 20  2  0  0  0  0
 18 19  1  0  0  0  0
 21  4  1  0  0  0  0
 21 30  1  0  0  0  0
 23 30  1  0  0  0  0
 23 28  1  0  0  0  0
 24 25  1  0  0  0  0
 24 32  1  0  0  0  0
 26 22  1  0  0  0  0
 26 25  2  0  0  0  0
 27 28  2  0  0  0  0
 27 29  1  0  0  0  0
 28 26  1  0  0  0  0
 29 24  2  0  0  0  0
 30 31  1  0  0  0  0
 31 22  1  0  0  0  0
 32 33  1  0  0  0  0
 34 32  2  0  0  0  0
M  END
>  <MODEL>
4

>  <REMARK>
 VINA RESULT:      -8.3      3.193     10.481
  Name = 
  4 active torsions:
  status: ('A' for Active; 'I' for Inactive)
    1  A    between atoms: C_3  and  C_25
    2  A    between atoms: C_7  and  C_11
    3  A    between atoms: C_8  and  C_18
    4  A    between atoms: C_18  and  N_30
                            x       y       z     vdW  Elec       q    Type
                         _______ _______ _______ _____ _____    ______ ____

>  <TORSDO>
F 4

$$$$
=
 OpenBabel11052420153D

 34 38  0  0  1  0  0  0  0  0999 V2000
  190.9820  176.2670  144.5080 C   0  0  1  0  0  3  0  0  0  0  0  0
  194.0480  174.9180  146.1120 C   0  0  0  0  0  3  0  0  0  0  0  0
  191.8710  174.9640  146.8050 C   0  0  0  0  0  3  0  0  0  0  0  0
  189.0820  177.3720  143.2360 C   0  0  0  0  0  0  0  0  0  0  0  0
  190.5070  176.9110  143.2170 C   0  0  0  0  0  3  0  0  0  0  0  0
  188.7440  176.2810  145.3980 C   0  0  0  0  0  0  0  0  0  0  0  0
  187.7980  175.9600  146.3650 O   0  0  0  0  0  1  0  0  0  0  0  0
  188.2660  177.0320  144.2290 C   0  0  0  0  0  3  0  0  0  0  0  0
  190.5240  175.2730  146.6830 C   0  0  0  0  0  0  0  0  0  0  0  0
  190.0500  175.9400  145.5330 C   0  0  0  0  0  0  0  0  0  0  0  0
  189.6810  174.9070  147.7280 O   0  0  0  0  0  1  0  0  0  0  0  0
  195.3110  175.0540  145.3840 C   0  0  0  0  0  3  0  0  0  0  0  0
  195.5600  175.5940  144.1940 C   0  0  0  0  0  0  0  0  0  0  0  0
  194.5440  176.1980  143.3280 C   0  0  0  0  0  3  0  0  0  0  0  0
  192.8000  175.2880  145.8200 C   0  0  0  0  0  0  0  0  0  0  0  0
  193.2370  176.3390  143.5200 C   0  0  0  0  0  3  0  0  0  0  0  0
  192.3610  175.9470  144.6460 C   0  0  0  0  0  0  0  0  0  0  0  0
  196.9560  175.5920  143.6970 C   0  0  0  0  0  0  0  0  0  0  0  0
  197.8190  174.3770  143.7920 C   0  0  0  0  0  1  0  0  0  0  0  0
  197.4430  176.6320  143.1780 O   0  0  0  0  0  0  0  0  0  0  0  0
  188.5480  178.1190  142.0420 C   0  0  0  0  0  2  0  0  0  0  0  0
  185.4580  177.5900  139.9820 C   0  0  0  0  0  2  0  0  0  0  0  0
  186.2780  178.7110  142.5820 C   0  0  0  0  0  2  0  0  0  0  0  0
  182.1030  178.3050  141.6070 C   0  0  0  0  0  0  0  0  0  0  0  0
  183.0790  177.9330  140.6730 C   0  0  0  0  0  3  0  0  0  0  0  0
  184.4380  178.0520  140.9810 C   0  0  0  0  0  0  0  0  0  0  0  0
  183.8540  178.9050  143.1790 C   0  0  0  0  0  3  0  0  0  0  0  0
  184.8270  178.5200  142.2510 C   0  0  0  0  0  0  0  0  0  0  0  0
  182.4990  178.7920  142.8600 C   0  0  0  0  0  3  0  0  0  0  0  0
  187.1310  177.8590  141.7480 N   0  0  0  0  0  0  0  0  0  0  0  0
  186.8510  178.1090  140.3320 C   0  0  0  0  0  2  0  0  0  0  0  0
  180.6750  178.1810  141.2690 C   0  0  0  0  0  0  0  0  0  0  0  0
  180.2690  178.4450  140.1060 O   0  0  0  0  0  0  0  0  0  0  0  0
  179.7610  177.7710  142.2310 O   0  0  0  0  0  1  0  0  0  0  0  0
  1  5  1  6  0  0  0
  1 17  1  0  0  0  0
  1 10  1  0  0  0  0
  4  8  1  0  0  0  0
  5  4  2  0  0  0  0
  6 10  1  0  0  0  0
  6  7  1  0  0  0  0
  8  6  2  0  0  0  0
  9  3  1  0  0  0  0
  9 11  1  0  0  0  0
 10  9  2  0  0  0  0
 12  2  2  0  0  0  0
 13 12  1  0  0  0  0
 14 16  1  0  0  0  0
 14 13  2  0  0  0  0
 15  2  1  0  0  0  0
 15  3  2  0  0  0  0
 16 17  2  0  0  0  0
 17 15  1  0  0  0  0
 18 19  1  0  0  0  0
 18 13  1  0  0  0  0
 20 18  2  0  0  0  0
 21  4  1  0  0  0  0
 22 31  1  0  0  0  0
 22 26  1  0  0  0  0
 24 29  1  0  0  0  0
 25 26  1  0  0  0  0
 25 24  2  0  0  0  0
 26 28  2  0  0  0  0
 28 23  1  0  0  0  0
 28 27  1  0  0  0  0
 29 27  2  0  0  0  0
 30 21  1  0  0  0  0
 30 23  1  0  0  0  0
 31 30  1  0  0  0  0
 32 24  1  0  0  0  0
 32 34  1  0  0  0  0
 33 32  2  0  0  0  0
M  END
>  <MODEL>
5

>  <REMARK>
 VINA RESULT:      -8.0      2.653      9.658
  Name = 
  4 active torsions:
  status: ('A' for Active; 'I' for Inactive)
    1  A    between atoms: C_3  and  C_25
    2  A    between atoms: C_7  and  C_11
    3  A    between atoms: C_8  and  C_18
    4  A    between atoms: C_18  and  N_30
                            x       y       z     vdW  Elec       q    Type
                         _______ _______ _______ _____ _____    ______ ____

>  <TORSDO>
F 4

$$$$
=
 OpenBabel11052420153D

 34 38  0  0  1  0  0  0  0  0999 V2000
  187.4580  175.8700  142.3810 C   0  0  0  0  0  0  0  0  0  0  0  0
  185.6680  178.9580  143.4050 C   0  0  0  0  0  3  0  0  0  0  0  0
  186.1990  178.1290  141.3440 C   0  0  0  0  0  3  0  0  0  0  0  0
  188.8070  173.7570  141.9750 C   0  0  0  0  0  0  0  0  0  0  0  0
  188.0740  174.6100  142.9650 C   0  0  0  0  0  3  0  0  0  0  0  0
  187.9870  175.1530  140.1430 C   0  0  0  0  0  0  0  0  0  0  0  0
  187.9390  175.2880  138.7600 O   0  0  0  0  0  1  0  0  0  0  0  0
  188.7180  173.9920  140.6710 C   0  0  0  0  0  3  0  0  0  0  0  0
  186.7570  177.2060  140.4700 C   0  0  0  0  0  0  0  0  0  0  0  0
  187.4070  176.0580  140.9710 C   0  0  2  0  0  3  0  0  0  0  0  0
  186.6520  177.4630  139.1070 O   0  0  0  0  0  1  0  0  0  0  0  0
  185.4910  179.1960  144.8400 C   0  0  0  0  0  3  0  0  0  0  0  0
  185.8710  178.4640  145.8830 C   0  0  0  0  0  0  0  0  0  0  0  0
  186.5900  177.1910  145.7850 C   0  0  0  0  0  3  0  0  0  0  0  0
  186.2510  177.9700  142.7260 C   0  0  0  0  0  0  0  0  0  0  0  0
  187.0010  176.5260  144.7110 C   0  0  0  0  0  3  0  0  0  0  0  0
  186.8840  176.8240  143.2660 C   0  0  0  0  0  0  0  0  0  0  0  0
  185.5530  178.9560  147.2430 C   0  0  0  0  0  0  0  0  0  0  0  0
  186.5150  179.7970  148.0170 C   0  0  0  0  0  1  0  0  0  0  0  0
  184.4480  178.6680  147.7760 O   0  0  0  0  0  0  0  0  0  0  0  0
  189.5430  172.5420  142.4740 C   0  0  0  0  0  2  0  0  0  0  0  0
  193.2140  171.7840  142.6110 C   0  0  0  0  0  2  0  0  0  0  0  0
  191.1670  173.3230  144.0710 C   0  0  0  0  0  2  0  0  0  0  0  0
  195.3310  173.7210  145.0970 C   0  0  0  0  0  0  0  0  0  0  0  0
  194.9410  172.8330  144.0860 C   0  0  0  0  0  3  0  0  0  0  0  0
  193.5930  172.7010  143.7380 C   0  0  0  0  0  0  0  0  0  0  0  0
  193.0100  174.3660  145.4060 C   0  0  0  0  0  3  0  0  0  0  0  0
  192.6250  173.4900  144.3880 C   0  0  0  0  0  0  0  0  0  0  0  0
  194.3570  174.4860  145.7550 C   0  0  0  0  0  3  0  0  0  0  0  0
  190.9740  172.7630  142.7290 N   0  0  0  0  0  0  0  0  0  0  0  0
  191.7140  171.5040  142.6060 C   0  0  0  0  0  2  0  0  0  0  0  0
  196.7520  173.8470  145.4600 C   0  0  0  0  0  0  0  0  0  0  0  0
  197.1930  173.3120  146.5130 O   0  0  0  0  0  1  0  0  0  0  0  0
  197.6230  174.5570  144.6430 O   0  0  0  0  0  0  0  0  0  0  0  0
  1  5  1  0  0  0  0
  1 17  2  0  0  0  0
  2 12  1  0  0  0  0
  3 15  1  0  0  0  0
  4 21  1  0  0  0  0
  4  5  2  0  0  0  0
  6  8  2  0  0  0  0
  7  6  1  0  0  0  0
  8  4  1  0  0  0  0
  9 10  1  0  0  0  0
  9  3  2  0  0  0  0
 10  6  1  1  0  0  0
 10  1  1  0  0  0  0
 11  9  1  0  0  0  0
 12 13  2  0  0  0  0
 13 18  1  0  0  0  0
 14 13  1  0  0  0  0
 15 17  1  0  0  0  0
 15  2  2  0  0  0  0
 16 14  2  0  0  0  0
 17 16  1  0  0  0  0
 18 20  2  0  0  0  0
 18 19  1  0  0  0  0
 21 30  1  0  0  0  0
 22 26  1  0  0  0  0
 23 28  1  0  0  0  0
 24 32  1  0  0  0  0
 24 29  1  0  0  0  0
 25 24  2  0  0  0  0
 26 25  1  0  0  0  0
 26 28  2  0  0  0  0
 27 29  2  0  0  0  0
 28 27  1  0  0  0  0
 30 23  1  0  0  0  0
 31 22  1  0  0  0  0
 31 30  1  0  0  0  0
 32 33  1  0  0  0  0
 34 32  2  0  0  0  0
M  END
>  <MODEL>
6

>  <REMARK>
 VINA RESULT:      -7.9      2.036      5.231
  Name = 
  4 active torsions:
  status: ('A' for Active; 'I' for Inactive)
    1  A    between atoms: C_3  and  C_25
    2  A    between atoms: C_7  and  C_11
    3  A    between atoms: C_8  and  C_18
    4  A    between atoms: C_18  and  N_30
                            x       y       z     vdW  Elec       q    Type
                         _______ _______ _______ _____ _____    ______ ____

>  <TORSDO>
F 4

$$$$
=
 OpenBabel11052420153D

 34 38  0  0  1  0  0  0  0  0999 V2000
  192.0790  171.8090  142.7580 C   0  0  0  0  0  0  0  0  0  0  0  0
  193.3020  168.4790  143.8550 C   0  0  0  0  0  3  0  0  0  0  0  0
  191.9790  169.1030  142.1000 C   0  0  0  0  0  3  0  0  0  0  0  0
  191.3000  174.1840  142.3090 C   0  0  0  0  0  0  0  0  0  0  0  0
  192.2060  173.2860  143.0930 C   0  0  0  0  0  3  0  0  0  0  0  0
  190.6360  172.3030  140.8950 C   0  0  0  0  0  0  0  0  0  0  0  0
  189.9020  171.9390  139.7710 O   0  0  0  0  0  1  0  0  0  0  0  0
  190.6160  173.7250  141.2660 C   0  0  0  0  0  3  0  0  0  0  0  0
  191.2920  170.0160  141.3110 C   0  0  0  0  0  0  0  0  0  0  0  0
  191.3210  171.3910  141.6290 C   0  0  2  0  0  3  0  0  0  0  0  0
  190.5850  169.5220  140.2200 O   0  0  0  0  0  1  0  0  0  0  0  0
  194.1510  168.4250  145.0470 C   0  0  0  0  0  3  0  0  0  0  0  0
  194.5830  169.4060  145.8350 C   0  0  0  0  0  0  0  0  0  0  0  0
  194.2670  170.8230  145.6440 C   0  0  0  0  0  3  0  0  0  0  0  0
  192.7140  169.4910  143.2160 C   0  0  0  0  0  0  0  0  0  0  0  0
  193.5280  171.4130  144.7110 C   0  0  0  0  0  3  0  0  0  0  0  0
  192.7770  170.8640  143.5600 C   0  0  0  0  0  0  0  0  0  0  0  0
  195.4430  169.0550  146.9890 C   0  0  0  0  0  0  0  0  0  0  0  0
  196.9160  169.3050  146.9730 C   0  0  0  0  0  1  0  0  0  0  0  0
  194.9370  168.5320  148.0180 O   0  0  0  0  0  0  0  0  0  0  0  0
  191.2740  175.6520  142.6420 C   0  0  0  0  0  2  0  0  0  0  0  0
  188.3530  177.9970  142.8480 C   0  0  0  0  0  2  0  0  0  0  0  0
  189.7940  176.0280  144.5030 C   0  0  0  0  0  2  0  0  0  0  0  0
  186.1130  177.7700  145.9050 C   0  0  0  0  0  0  0  0  0  0  0  0
  186.6480  178.1620  144.6700 C   0  0  0  0  0  3  0  0  0  0  0  0
  187.8370  177.5980  144.2010 C   0  0  0  0  0  0  0  0  0  0  0  0
  187.9610  176.2220  146.1970 C   0  0  0  0  0  3  0  0  0  0  0  0
  188.4860  176.6050  144.9600 C   0  0  0  0  0  0  0  0  0  0  0  0
  186.7770  176.7970  146.6650 C   0  0  0  0  0  3  0  0  0  0  0  0
  189.9550  176.1580  143.0510 N   0  0  0  0  0  0  0  0  0  0  0  0
  189.8040  177.5620  142.6590 C   0  0  0  0  0  2  0  0  0  0  0  0
  184.8620  178.3750  146.3920 C   0  0  0  0  0  0  0  0  0  0  0  0
  184.6640  178.5210  147.6280 O   0  0  0  0  0  1  0  0  0  0  0  0
  183.8880  178.7920  145.4940 O   0  0  0  0  0  0  0  0  0  0  0  0
  1  5  1  0  0  0  0
  1 17  2  0  0  0  0
  2 12  1  0  0  0  0
  3 15  1  0  0  0  0
  4 21  1  0  0  0  0
  4  5  2  0  0  0  0
  6  8  2  0  0  0  0
  7  6  1  0  0  0  0
  8  4  1  0  0  0  0
  9 10  1  0  0  0  0
  9  3  2  0  0  0  0
 10  6  1  1  0  0  0
 10  1  1  0  0  0  0
 11  9  1  0  0  0  0
 12 13  2  0  0  0  0
 13 18  1  0  0  0  0
 14 13  1  0  0  0  0
 15 17  1  0  0  0  0
 15  2  2  0  0  0  0
 16 14  2  0  0  0  0
 17 16  1  0  0  0  0
 18 20  2  0  0  0  0
 19 18  1  0  0  0  0
 21 30  1  0  0  0  0
 22 26  1  0  0  0  0
 23 28  1  0  0  0  0
 24 32  1  0  0  0  0
 24 29  1  0  0  0  0
 25 24  2  0  0  0  0
 26 25  1  0  0  0  0
 26 28  2  0  0  0  0
 27 29  2  0  0  0  0
 28 27  1  0  0  0  0
 30 23  1  0  0  0  0
 31 22  1  0  0  0  0
 31 30  1  0  0  0  0
 32 33  1  0  0  0  0
 34 32  2  0  0  0  0
M  END
>  <MODEL>
7

>  <REMARK>
 VINA RESULT:      -7.8      4.209      9.977
  Name = 
  4 active torsions:
  status: ('A' for Active; 'I' for Inactive)
    1  A    between atoms: C_3  and  C_25
    2  A    between atoms: C_7  and  C_11
    3  A    between atoms: C_8  and  C_18
    4  A    between atoms: C_18  and  N_30
                            x       y       z     vdW  Elec       q    Type
                         _______ _______ _______ _____ _____    ______ ____

>  <TORSDO>
F 4

$$$$
=
 OpenBabel11052420153D

 34 38  0  0  1  0  0  0  0  0999 V2000
  194.5300  175.3870  141.2010 C   0  0  1  0  0  3  0  0  0  0  0  0
  197.5470  175.5530  139.0430 C   0  0  0  0  0  3  0  0  0  0  0  0
  197.2110  176.1440  141.2240 C   0  0  0  0  0  3  0  0  0  0  0  0
  192.2970  175.2650  142.4050 C   0  0  0  0  0  0  0  0  0  0  0  0
  193.0900  174.9000  141.1880 C   0  0  0  0  0  3  0  0  0  0  0  0
  194.3220  176.1010  143.4920 C   0  0  0  0  0  0  0  0  0  0  0  0
  194.8390  176.6090  144.6780 O   0  0  0  0  0  1  0  0  0  0  0  0
  192.8880  175.7760  143.4800 C   0  0  0  0  0  3  0  0  0  0  0  0
  196.4560  176.3000  142.3780 C   0  0  0  0  0  0  0  0  0  0  0  0
  195.0930  175.9320  142.3890 C   0  0  0  0  0  0  0  0  0  0  0  0
  197.0890  176.8320  143.4970 O   0  0  0  0  0  1  0  0  0  0  0  0
  197.4210  175.0840  137.6610 C   0  0  0  0  0  3  0  0  0  0  0  0
  196.3690  174.5810  137.0200 C   0  0  0  0  0  0  0  0  0  0  0  0
  195.0460  174.3910  137.6200 C   0  0  0  0  0  3  0  0  0  0  0  0
  196.6750  175.6250  140.0490 C   0  0  0  0  0  0  0  0  0  0  0  0
  194.6210  174.6600  138.8490 C   0  0  0  0  0  3  0  0  0  0  0  0
  195.3140  175.2330  140.0250 C   0  0  0  0  0  0  0  0  0  0  0  0
  196.5320  174.1830  135.6030 C   0  0  0  0  0  0  0  0  0  0  0  0
  197.8280  174.3620  134.8830 C   0  0  0  0  0  1  0  0  0  0  0  0
  195.5630  173.6800  134.9730 O   0  0  0  0  0  0  0  0  0  0  0  0
  190.8310  174.9220  142.4410 C   0  0  0  0  0  2  0  0  0  0  0  0
  189.0650  175.3940  145.7170 C   0  0  0  0  0  2  0  0  0  0  0  0
  188.9220  176.3080  142.9180 C   0  0  0  0  0  2  0  0  0  0  0  0
  186.4120  178.1020  145.9240 C   0  0  0  0  0  0  0  0  0  0  0  0
  187.2800  177.0570  146.2680 C   0  0  0  0  0  3  0  0  0  0  0  0
  188.1050  176.4720  145.3040 C   0  0  0  0  0  0  0  0  0  0  0  0
  187.2130  177.9920  143.6330 C   0  0  0  0  0  3  0  0  0  0  0  0
  188.0870  176.9590  143.9820 C   0  0  0  0  0  0  0  0  0  0  0  0
  186.3830  178.5650  144.6010 C   0  0  0  0  0  3  0  0  0  0  0  0
  190.0730  175.6100  143.4970 N   0  0  0  0  0  0  0  0  0  0  0  0
  189.6160  174.6480  144.5040 C   0  0  0  0  0  2  0  0  0  0  0  0
  185.5430  178.7060  146.9470 C   0  0  0  0  0  0  0  0  0  0  0  0
  186.0030  179.5570  147.7550 O   0  0  0  0  0  1  0  0  0  0  0  0
  184.2040  178.3440  147.0320 O   0  0  0  0  0  0  0  0  0  0  0  0
  1  5  1  1  0  0  0
  1 10  1  0  0  0  0
  2 15  1  0  0  0  0
  3  9  1  0  0  0  0
  4 21  1  0  0  0  0
  4  8  1  0  0  0  0
  5  4  2  0  0  0  0
  6  7  1  0  0  0  0
  8  6  2  0  0  0  0
  9 10  2  0  0  0  0
  9 11  1  0  0  0  0
 10  6  1  0  0  0  0
 12  2  2  0  0  0  0
 13 14  2  0  0  0  0
 13 12  1  0  0  0  0
 14 16  1  0  0  0  0
 15  3  2  0  0  0  0
 16 17  2  0  0  0  0
 17 15  1  0  0  0  0
 17  1  1  0  0  0  0
 18 13  1  0  0  0  0
 19 18  1  0  0  0  0
 20 18  2  0  0  0  0
 21 30  1  0  0  0  0
 23 30  1  0  0  0  0
 23 28  1  0  0  0  0
 24 25  1  0  0  0  0
 24 32  1  0  0  0  0
 26 22  1  0  0  0  0
 26 25  2  0  0  0  0
 27 28  2  0  0  0  0
 27 29  1  0  0  0  0
 28 26  1  0  0  0  0
 29 24  2  0  0  0  0
 30 31  1  0  0  0  0
 31 22  1  0  0  0  0
 32 34  2  0  0  0  0
 32 33  1  0  0  0  0
M  END
>  <MODEL>
8

>  <REMARK>
 VINA RESULT:      -7.8      4.140      9.404
  Name = 
  4 active torsions:
  status: ('A' for Active; 'I' for Inactive)
    1  A    between atoms: C_3  and  C_25
    2  A    between atoms: C_7  and  C_11
    3  A    between atoms: C_8  and  C_18
    4  A    between atoms: C_18  and  N_30
                            x       y       z     vdW  Elec       q    Type
                         _______ _______ _______ _____ _____    ______ ____

>  <TORSDO>
F 4

$$$$
=
 OpenBabel11052420153D

 34 38  0  0  1  0  0  0  0  0999 V2000
  187.8880  177.4440  144.8400 C   0  0  1  0  0  3  0  0  0  0  0  0
  184.4270  178.7880  144.8700 C   0  0  0  0  0  3  0  0  0  0  0  0
  186.0150  178.6590  146.5070 C   0  0  0  0  0  3  0  0  0  0  0  0
  190.1660  176.3540  144.5630 C   0  0  0  0  0  0  0  0  0  0  0  0
  188.9190  176.8490  143.8960 C   0  0  0  0  0  3  0  0  0  0  0  0
  189.4370  177.3350  146.6810 C   0  0  0  0  0  0  0  0  0  0  0  0
  189.8110  177.5880  147.9960 O   0  0  0  0  0  1  0  0  0  0  0  0
  190.4130  176.6280  145.8400 C   0  0  0  0  0  3  0  0  0  0  0  0
  187.2600  178.3240  147.0220 C   0  0  0  0  0  0  0  0  0  0  0  0
  188.2230  177.7000  146.2000 C   0  0  0  0  0  0  0  0  0  0  0  0
  187.5070  178.6200  148.3590 O   0  0  0  0  0  1  0  0  0  0  0  0
  183.6600  178.7160  143.6250 C   0  0  0  0  0  3  0  0  0  0  0  0
  184.0050  178.2380  142.4320 C   0  0  0  0  0  0  0  0  0  0  0  0
  185.3110  177.6520  142.1210 C   0  0  0  0  0  3  0  0  0  0  0  0
  185.6640  178.4030  145.1850 C   0  0  0  0  0  0  0  0  0  0  0  0
  186.3710  177.4710  142.9000 C   0  0  0  0  0  3  0  0  0  0  0  0
  186.6090  177.7890  144.3260 C   0  0  0  0  0  0  0  0  0  0  0  0
  183.0110  178.2970  141.3350 C   0  0  0  0  0  0  0  0  0  0  0  0
  181.5600  178.5220  141.6040 C   0  0  0  0  0  1  0  0  0  0  0  0
  183.3830  178.1550  140.1390 O   0  0  0  0  0  0  0  0  0  0  0  0
  191.2020  175.6510  143.7270 C   0  0  0  0  0  2  0  0  0  0  0  0
  189.2900  172.8630  142.1010 C   0  0  0  0  0  2  0  0  0  0  0  0
  191.6950  174.5120  141.6650 C   0  0  0  0  0  2  0  0  0  0  0  0
  190.3140  171.8230  138.5960 C   0  0  0  0  0  0  0  0  0  0  0  0
  189.6370  171.8940  139.8220 C   0  0  0  0  0  3  0  0  0  0  0  0
  190.0710  172.7690  140.8220 C   0  0  0  0  0  0  0  0  0  0  0  0
  191.8610  173.5290  139.3680 C   0  0  0  0  0  3  0  0  0  0  0  0
  191.1770  173.6080  140.5840 C   0  0  0  0  0  0  0  0  0  0  0  0
  191.4280  172.6450  138.3770 C   0  0  0  0  0  3  0  0  0  0  0  0
  190.6490  174.8250  142.6440 N   0  0  0  0  0  0  0  0  0  0  0  0
  190.0880  173.5850  143.1850 C   0  0  0  0  0  2  0  0  0  0  0  0
  189.8520  170.8940  137.5520 C   0  0  0  0  0  0  0  0  0  0  0  0
  189.7180  169.6660  137.8040 O   0  0  0  0  0  1  0  0  0  0  0  0
  189.5590  171.3620  136.2770 O   0  0  0  0  0  0  0  0  0  0  0  0
  1  5  1  6  0  0  0
  1 10  1  0  0  0  0
  2 15  1  0  0  0  0
  3  9  1  0  0  0  0
  4  8  1  0  0  0  0
  5  4  2  0  0  0  0
  6  7  1  0  0  0  0
  8  6  2  0  0  0  0
  9 11  1  0  0  0  0
 10  6  1  0  0  0  0
 10  9  2  0  0  0  0
 12  2  2  0  0  0  0
 13 12  1  0  0  0  0
 14 13  2  0  0  0  0
 14 16  1  0  0  0  0
 15  3  2  0  0  0  0
 16 17  2  0  0  0  0
 17  1  1  0  0  0  0
 17 15  1  0  0  0  0
 18 19  1  0  0  0  0
 18 13  1  0  0  0  0
 20 18  2  0  0  0  0
 21  4  1  0  0  0  0
 22 31  1  0  0  0  0
 23 30  1  0  0  0  0
 24 25  1  0  0  0  0
 25 26  2  0  0  0  0
 26 22  1  0  0  0  0
 27 28  2  0  0  0  0
 28 26  1  0  0  0  0
 28 23  1  0  0  0  0
 29 24  2  0  0  0  0
 29 27  1  0  0  0  0
 30 31  1  0  0  0  0
 30 21  1  0  0  0  0
 32 33  1  0  0  0  0
 32 24  1  0  0  0  0
 34 32  2  0  0  0  0
M  END
>  <MODEL>
9

>  <REMARK>
 VINA RESULT:      -7.8      3.447      5.617
  Name = 
  4 active torsions:
  status: ('A' for Active; 'I' for Inactive)
    1  A    between atoms: C_3  and  C_25
    2  A    between atoms: C_7  and  C_11
    3  A    between atoms: C_8  and  C_18
    4  A    between atoms: C_18  and  N_30
                            x       y       z     vdW  Elec       q    Type
                         _______ _______ _______ _____ _____    ______ ____

>  <TORSDO>
F 4

$$$$
