=
 OpenBabel11052417243D

 30 30  0  0  1  0  0  0  0  0999 V2000
  190.6000  176.7530  144.4100 C   0  0  2  0  0  3  0  0  0  0  0  0
  192.6220  172.8590  144.9370 O   0  0  0  0  0  1  0  0  0  0  0  0
  189.4680  174.6810  146.7190 O   0  0  0  0  0  1  0  0  0  0  0  0
  190.4120  173.7790  144.6640 C   0  0  2  0  0  3  0  0  0  0  0  0
  191.6820  176.4540  145.4330 C   0  0  0  0  0  2  0  0  0  0  0  0
  190.4340  178.2580  144.3100 C   0  0  0  0  0  1  0  0  0  0  0  0
  191.7940  173.9170  145.3320 C   0  0  2  0  0  3  0  0  0  0  0  0
  192.4880  175.2430  144.9920 C   0  0  2  0  0  3  0  0  0  0  0  0
  189.3460  174.6680  145.3270 C   0  0  2  0  0  3  0  0  0  0  0  0
  193.8450  175.3110  145.6700 C   0  0  0  0  0  1  0  0  0  0  0  0
  189.2590  176.1020  144.7740 C   0  0  2  0  0  3  0  0  0  0  0  0
  188.2620  176.2210  143.6090 C   0  0  1  0  0  3  0  0  0  0  0  0
  188.1120  175.0130  142.9250 O   0  0  0  0  0  1  0  0  0  0  0  0
  186.9000  176.8250  143.9870 C   0  0  2  0  0  3  0  0  0  0  0  0
  187.5910  178.4680  141.9630 O   0  0  0  0  0  0  0  0  0  0  0  0
  186.1440  179.3890  143.7120 O   0  0  0  0  0  0  0  0  0  0  0  0
  186.4490  178.1660  142.8940 S   0  0  0  0  0  0  0  0  0  0  0  0
  185.0100  177.7160  141.9380 C   0  0  0  0  0  3  0  0  0  0  0  0
  183.7570  178.2660  142.5880 C   0  0  0  0  0  1  0  0  0  0  0  0
  185.1300  178.2590  140.5280 C   0  0  0  0  0  1  0  0  0  0  0  0
  186.8070  177.2700  145.4400 C   0  0  0  0  0  2  0  0  0  0  0  0
  185.5380  176.7380  146.0750 C   0  0  0  0  0  2  0  0  0  0  0  0
  185.4940  178.9380  147.2010 C   0  0  0  0  0  1  0  0  0  0  0  0
  184.6570  177.8980  146.4870 C   0  0  0  0  0  2  0  0  0  0  0  0
  189.9290  172.3340  144.7080 C   0  0  0  0  0  2  0  0  0  0  0  0
  189.2900  171.9510  143.3880 C   0  0  0  0  0  2  0  0  0  0  0  0
  191.0340  172.3430  141.4080 C   0  0  0  0  0  0  0  0  0  0  0  0
  190.2440  172.1670  142.3010 C   0  0  0  0  0  0  0  0  0  0  0  0
  191.9940  172.5550  140.3260 C   0  0  0  0  0  2  0  0  0  0  0  0
  192.7360  171.4050  140.1360 F   0  0  0  0  0  0  0  0  0  0  0  0
  1  6  1  1  0  0  0
  1 11  1  0  0  0  0
  1  5  1  0  0  0  0
  4 25  1  1  0  0  0
  4  9  1  0  0  0  0
  4  7  1  0  0  0  0
  7  2  1  6  0  0  0
  8  7  1  0  0  0  0
  8  5  1  0  0  0  0
  8 10  1  1  0  0  0
  9  3  1  1  0  0  0
 11 12  1  6  0  0  0
 11  9  1  0  0  0  0
 12 13  1  1  0  0  0
 12 14  1  0  0  0  0
 14 21  1  1  0  0  0
 15 17  2  0  0  0  0
 17 16  2  0  0  0  0
 17 14  1  0  0  0  0
 18 19  1  0  0  0  0
 18 17  1  0  0  0  0
 20 18  1  0  0  0  0
 21 22  1  0  0  0  0
 22 24  1  0  0  0  0
 24 23  1  0  0  0  0
 26 25  1  0  0  0  0
 27 28  3  0  0  0  0
 28 26  1  0  0  0  0
 29 27  1  0  0  0  0
 30 29  1  0  0  0  0
M  END
>  <MODEL>
1

>  <REMARK>
 VINA RESULT:      -6.2      0.000      0.000
  Name = 
  11 active torsions:
  status: ('A' for Active; 'I' for Inactive)
    1  A    between atoms: C_1  and  C_4
    2  A    between atoms: C_1  and  C_29
    3  A    between atoms: C_4  and  C_5
    4  A    between atoms: C_4  and  S_12
    5  A    between atoms: C_5  and  C_21
    6  A    between atoms: C_10  and  C_16
    7  A    between atoms: C_11  and  C_24
    8  A    between atoms: S_12  and  C_13
    9  A    between atoms: C_15  and  C_24
   10  A    between atoms: C_15  and  C_25
   11  A    between atoms: C_17  and  C_21
                            x       y       z     vdW  Elec       q    Type
                         _______ _______ _______ _____ _____    ______ ____

>  <TORSDO>
F 11

$$$$
=
 OpenBabel11052417243D

 30 30  0  0  1  0  0  0  0  0999 V2000
  188.5980  175.5800  146.1360 C   0  0  2  0  0  3  0  0  0  0  0  0
  186.2330  178.7420  144.1530 O   0  0  0  0  0  1  0  0  0  0  0  0
  190.1910  178.1460  144.8000 O   0  0  0  0  0  1  0  0  0  0  0  0
  188.1470  177.3330  143.7560 C   0  0  2  0  0  3  0  0  0  0  0  0
  188.1500  176.8790  146.7810 C   0  0  0  0  0  2  0  0  0  0  0  0
  189.0570  174.6320  147.2290 C   0  0  0  0  0  1  0  0  0  0  0  0
  187.3780  178.2140  144.7620 C   0  0  2  0  0  3  0  0  0  0  0  0
  186.9610  177.4470  146.0230 C   0  0  2  0  0  3  0  0  0  0  0  0
  189.5830  177.0320  144.2170 C   0  0  2  0  0  3  0  0  0  0  0  0
  186.2010  178.3650  146.9640 C   0  0  0  0  0  1  0  0  0  0  0  0
  189.7290  175.7940  145.1210 C   0  0  2  0  0  3  0  0  0  0  0  0
  189.9910  174.5090  144.3180 C   0  0  1  0  0  3  0  0  0  0  0  0
  189.4230  174.5650  143.0440 O   0  0  0  0  0  1  0  0  0  0  0  0
  191.4650  174.0780  144.2570 C   0  0  2  0  0  3  0  0  0  0  0  0
  190.3530  171.6240  144.1560 O   0  0  0  0  0  0  0  0  0  0  0  0
  192.7540  171.7480  144.6250 O   0  0  0  0  0  0  0  0  0  0  0  0
  191.6290  172.3490  143.8300 S   0  0  0  0  0  0  0  0  0  0  0  0
  191.9750  172.1820  142.0860 C   0  0  0  0  0  3  0  0  0  0  0  0
  190.7370  171.7110  141.3510 C   0  0  0  0  0  1  0  0  0  0  0  0
  192.4300  173.5100  141.5150 C   0  0  0  0  0  1  0  0  0  0  0  0
  192.2500  174.3880  145.5250 C   0  0  0  0  0  2  0  0  0  0  0  0
  193.4430  175.2670  145.2060 C   0  0  0  0  0  2  0  0  0  0  0  0
  192.4680  176.3930  147.1780 C   0  0  0  0  0  1  0  0  0  0  0  0
  193.3020  176.5880  145.9310 C   0  0  0  0  0  2  0  0  0  0  0  0
  188.2100  178.0010  142.3870 C   0  0  0  0  0  2  0  0  0  0  0  0
  187.6130  177.0940  141.3300 C   0  0  0  0  0  2  0  0  0  0  0  0
  185.1260  177.8830  140.7780 C   0  0  0  0  0  0  0  0  0  0  0  0
  186.2480  177.5240  141.0290 C   0  0  0  0  0  0  0  0  0  0  0  0
  183.7640  178.3200  140.4720 C   0  0  0  0  0  2  0  0  0  0  0  0
  182.9250  177.9780  141.5160 F   0  0  0  0  0  0  0  0  0  0  0  0
  1  5  1  0  0  0  0
  1  6  1  1  0  0  0
  4 25  1  6  0  0  0
  4  9  1  0  0  0  0
  4  7  1  0  0  0  0
  7  2  1  6  0  0  0
  7  8  1  0  0  0  0
  8  5  1  0  0  0  0
  8 10  1  1  0  0  0
  9  3  1  1  0  0  0
  9 11  1  0  0  0  0
 11 12  1  6  0  0  0
 11  1  1  0  0  0  0
 12 13  1  6  0  0  0
 14 12  1  0  0  0  0
 14 21  1  1  0  0  0
 17 15  2  0  0  0  0
 17 14  1  0  0  0  0
 17 16  2  0  0  0  0
 18 17  1  0  0  0  0
 19 18  1  0  0  0  0
 20 18  1  0  0  0  0
 22 21  1  0  0  0  0
 22 24  1  0  0  0  0
 24 23  1  0  0  0  0
 26 25  1  0  0  0  0
 27 28  3  0  0  0  0
 28 26  1  0  0  0  0
 29 27  1  0  0  0  0
 29 30  1  0  0  0  0
M  END
>  <MODEL>
2

>  <REMARK>
 VINA RESULT:      -6.1      3.014      7.029
  Name = 
  11 active torsions:
  status: ('A' for Active; 'I' for Inactive)
    1  A    between atoms: C_1  and  C_4
    2  A    between atoms: C_1  and  C_29
    3  A    between atoms: C_4  and  C_5
    4  A    between atoms: C_4  and  S_12
    5  A    between atoms: C_5  and  C_21
    6  A    between atoms: C_10  and  C_16
    7  A    between atoms: C_11  and  C_24
    8  A    between atoms: S_12  and  C_13
    9  A    between atoms: C_15  and  C_24
   10  A    between atoms: C_15  and  C_25
   11  A    between atoms: C_17  and  C_21
                            x       y       z     vdW  Elec       q    Type
                         _______ _______ _______ _____ _____    ______ ____

>  <TORSDO>
F 11

$$$$
=
 OpenBabel11052417243D

 30 30  0  0  1  0  0  0  0  0999 V2000
  192.2260  175.1370  143.8990 C   0  0  2  0  0  3  0  0  0  0  0  0
  191.6920  176.6090  148.0310 O   0  0  0  0  0  1  0  0  0  0  0  0
  190.3350  177.7990  144.4000 O   0  0  0  0  0  1  0  0  0  0  0  0
  190.3930  176.0400  146.0830 C   0  0  2  0  0  3  0  0  0  0  0  0
  193.0320  176.2470  144.5490 C   0  0  0  0  0  2  0  0  0  0  0  0
  192.9430  174.6960  142.6370 C   0  0  0  0  0  1  0  0  0  0  0  0
  191.6620  176.7210  146.6360 C   0  0  2  0  0  3  0  0  0  0  0  0
  192.9530  176.1240  146.0620 C   0  0  2  0  0  3  0  0  0  0  0  0
  190.0980  176.4410  144.6280 C   0  0  2  0  0  3  0  0  0  0  0  0
  194.1610  176.8290  146.6530 C   0  0  0  0  0  1  0  0  0  0  0  0
  190.7950  175.5780  143.5610 C   0  0  2  0  0  3  0  0  0  0  0  0
  189.9420  174.3730  143.1310 C   0  0  1  0  0  3  0  0  0  0  0  0
  189.5820  173.5740  144.2190 O   0  0  0  0  0  1  0  0  0  0  0  0
  188.7210  174.7250  142.2670 C   0  0  2  0  0  3  0  0  0  0  0  0
  188.2700  174.7200  139.6080 O   0  0  0  0  0  0  0  0  0  0  0  0
  187.7770  172.6570  140.8340 O   0  0  0  0  0  0  0  0  0  0  0  0
  188.7230  173.8200  140.7250 S   0  0  0  0  0  0  0  0  0  0  0  0
  190.3670  173.2200  140.3720 C   0  0  0  0  0  3  0  0  0  0  0  0
  190.4530  171.7340  140.6570 C   0  0  0  0  0  1  0  0  0  0  0  0
  190.7150  173.4780  138.9190 C   0  0  0  0  0  1  0  0  0  0  0  0
  188.5610  176.2180  142.0060 C   0  0  0  0  0  2  0  0  0  0  0  0
  187.1750  176.6790  142.4080 C   0  0  0  0  0  2  0  0  0  0  0  0
  185.8480  178.6250  143.1590 C   0  0  0  0  0  1  0  0  0  0  0  0
  187.2490  178.1010  142.9220 C   0  0  0  0  0  2  0  0  0  0  0  0
  189.1770  176.3850  146.9350 C   0  0  0  0  0  2  0  0  0  0  0  0
  187.9090  175.8910  146.2670 C   0  0  0  0  0  2  0  0  0  0  0  0
  185.9090  177.5820  146.7760 C   0  0  0  0  0  0  0  0  0  0  0  0
  186.8140  176.8190  146.5490 C   0  0  0  0  0  0  0  0  0  0  0  0
  184.8110  178.5090  147.0490 C   0  0  0  0  0  2  0  0  0  0  0  0
  183.7740  178.2650  146.1690 F   0  0  0  0  0  0  0  0  0  0  0  0
  1  6  1  6  0  0  0
  1  5  1  0  0  0  0
  4  7  1  0  0  0  0
  4 25  1  1  0  0  0
  5  8  1  0  0  0  0
  7  2  1  1  0  0  0
  8  7  1  0  0  0  0
  8 10  1  1  0  0  0
  9  3  1  1  0  0  0
  9  4  1  0  0  0  0
 11 12  1  1  0  0  0
 11  1  1  0  0  0  0
 11  9  1  0  0  0  0
 12 13  1  1  0  0  0
 14 21  1  6  0  0  0
 14 12  1  0  0  0  0
 15 17  2  0  0  0  0
 17 16  2  0  0  0  0
 17 14  1  0  0  0  0
 18 19  1  0  0  0  0
 18 17  1  0  0  0  0
 20 18  1  0  0  0  0
 21 22  1  0  0  0  0
 22 24  1  0  0  0  0
 24 23  1  0  0  0  0
 26 28  1  0  0  0  0
 26 25  1  0  0  0  0
 27 29  1  0  0  0  0
 28 27  3  0  0  0  0
 30 29  1  0  0  0  0
M  END
>  <MODEL>
3

>  <REMARK>
 VINA RESULT:      -5.9      3.241      5.698
  Name = 
  11 active torsions:
  status: ('A' for Active; 'I' for Inactive)
    1  A    between atoms: C_1  and  C_4
    2  A    between atoms: C_1  and  C_29
    3  A    between atoms: C_4  and  C_5
    4  A    between atoms: C_4  and  S_12
    5  A    between atoms: C_5  and  C_21
    6  A    between atoms: C_10  and  C_16
    7  A    between atoms: C_11  and  C_24
    8  A    between atoms: S_12  and  C_13
    9  A    between atoms: C_15  and  C_24
   10  A    between atoms: C_15  and  C_25
   11  A    between atoms: C_17  and  C_21
                            x       y       z     vdW  Elec       q    Type
                         _______ _______ _______ _____ _____    ______ ____

>  <TORSDO>
F 11

$$$$
=
 OpenBabel11052417243D

 30 30  0  0  1  0  0  0  0  0999 V2000
  191.3800  174.3790  142.3310 C   0  0  2  0  0  3  0  0  0  0  0  0
  187.6780  175.9470  140.4990 O   0  0  0  0  0  1  0  0  0  0  0  0
  188.7720  174.9540  144.2750 O   0  0  0  0  0  1  0  0  0  0  0  0
  189.1630  176.3860  142.3450 C   0  0  2  0  0  3  0  0  0  0  0  0
  190.1930  173.5420  141.8900 C   0  0  0  0  0  2  0  0  0  0  0  0
  192.5620  173.4560  142.5630 C   0  0  0  0  0  1  0  0  0  0  0  0
  188.4230  175.3240  141.5070 C   0  0  2  0  0  3  0  0  0  0  0  0
  189.3750  174.3070  140.8630 C   0  0  2  0  0  3  0  0  0  0  0  0
  189.6870  175.8230  143.6760 C   0  0  2  0  0  3  0  0  0  0  0  0
  188.5870  173.2990  140.0450 C   0  0  0  0  0  1  0  0  0  0  0  0
  191.0850  175.1810  143.6060 C   0  0  2  0  0  3  0  0  0  0  0  0
  192.2100  176.1910  143.8860 C   0  0  1  0  0  3  0  0  0  0  0  0
  191.8560  177.4860  143.5000 O   0  0  0  0  0  1  0  0  0  0  0  0
  192.7560  176.1640  145.3220 C   0  0  2  0  0  3  0  0  0  0  0  0
  195.1000  175.4620  146.4550 O   0  0  0  0  0  0  0  0  0  0  0  0
  194.9070  177.7510  145.6030 O   0  0  0  0  0  0  0  0  0  0  0  0
  194.5370  176.3160  145.3520 S   0  0  0  0  0  0  0  0  0  0  0  0
  195.2210  175.7890  143.7890 C   0  0  0  0  0  3  0  0  0  0  0  0
  196.3520  176.7090  143.3770 C   0  0  0  0  0  1  0  0  0  0  0  0
  195.7370  174.3680  143.8970 C   0  0  0  0  0  1  0  0  0  0  0  0
  192.3130  174.9480  146.1260 C   0  0  0  0  0  2  0  0  0  0  0  0
  191.7630  175.3760  147.4710 C   0  0  0  0  0  2  0  0  0  0  0  0
  189.7420  176.7730  147.2050 C   0  0  0  0  0  1  0  0  0  0  0  0
  190.2500  175.3640  147.4230 C   0  0  0  0  0  2  0  0  0  0  0  0
  188.2520  177.5700  142.6470 C   0  0  0  0  0  2  0  0  0  0  0  0
  188.2340  177.8540  144.1350 C   0  0  0  0  0  2  0  0  0  0  0  0
  185.7560  178.4970  144.8870 C   0  0  0  0  0  0  0  0  0  0  0  0
  186.8770  178.2080  144.5490 C   0  0  0  0  0  0  0  0  0  0  0  0
  184.3960  178.8470  145.2940 C   0  0  0  0  0  2  0  0  0  0  0  0
  184.0680  178.1560  146.4450 F   0  0  0  0  0  0  0  0  0  0  0  0
  1  6  1  1  0  0  0
  1 11  1  0  0  0  0
  4 25  1  1  0  0  0
  4  9  1  0  0  0  0
  5  1  1  0  0  0  0
  7  2  1  6  0  0  0
  7  4  1  0  0  0  0
  8 10  1  1  0  0  0
  8  7  1  0  0  0  0
  8  5  1  0  0  0  0
  9  3  1  6  0  0  0
 11  9  1  0  0  0  0
 11 12  1  6  0  0  0
 12 13  1  1  0  0  0
 12 14  1  0  0  0  0
 14 17  1  0  0  0  0
 14 21  1  6  0  0  0
 17 16  2  0  0  0  0
 17 15  2  0  0  0  0
 18 20  1  0  0  0  0
 18 17  1  0  0  0  0
 19 18  1  0  0  0  0
 21 22  1  0  0  0  0
 23 24  1  0  0  0  0
 24 22  1  0  0  0  0
 25 26  1  0  0  0  0
 26 28  1  0  0  0  0
 27 29  1  0  0  0  0
 28 27  3  0  0  0  0
 29 30  1  0  0  0  0
M  END
>  <MODEL>
4

>  <REMARK>
 VINA RESULT:      -5.9      3.705      7.348
  Name = 
  11 active torsions:
  status: ('A' for Active; 'I' for Inactive)
    1  A    between atoms: C_1  and  C_4
    2  A    between atoms: C_1  and  C_29
    3  A    between atoms: C_4  and  C_5
    4  A    between atoms: C_4  and  S_12
    5  A    between atoms: C_5  and  C_21
    6  A    between atoms: C_10  and  C_16
    7  A    between atoms: C_11  and  C_24
    8  A    between atoms: S_12  and  C_13
    9  A    between atoms: C_15  and  C_24
   10  A    between atoms: C_15  and  C_25
   11  A    between atoms: C_17  and  C_21
                            x       y       z     vdW  Elec       q    Type
                         _______ _______ _______ _____ _____    ______ ____

>  <TORSDO>
F 11

$$$$
=
 OpenBabel11052417243D

 30 30  0  0  1  0  0  0  0  0999 V2000
  188.6530  175.5320  146.2400 C   0  0  2  0  0  3  0  0  0  0  0  0
  186.2290  178.5400  144.0940 O   0  0  0  0  0  1  0  0  0  0  0  0
  190.2010  178.0320  144.7350 O   0  0  0  0  0  1  0  0  0  0  0  0
  188.1570  177.1330  143.7630 C   0  0  2  0  0  3  0  0  0  0  0  0
  188.1940  176.8620  146.8100 C   0  0  0  0  0  2  0  0  0  0  0  0
  189.1340  174.6580  147.3830 C   0  0  0  0  0  1  0  0  0  0  0  0
  187.3870  178.0640  144.7220 C   0  0  2  0  0  3  0  0  0  0  0  0
  186.9910  177.3700  146.0310 C   0  0  2  0  0  3  0  0  0  0  0  0
  189.6010  176.8780  144.2270 C   0  0  2  0  0  3  0  0  0  0  0  0
  186.2280  178.3330  146.9230 C   0  0  0  0  0  1  0  0  0  0  0  0
  189.7720  175.6990  145.2030 C   0  0  2  0  0  3  0  0  0  0  0  0
  190.0420  174.3710  144.4760 C   0  0  1  0  0  3  0  0  0  0  0  0
  189.1800  174.1830  143.3940 O   0  0  0  0  0  1  0  0  0  0  0  0
  191.5080  174.1470  144.0700 C   0  0  2  0  0  3  0  0  0  0  0  0
  190.8160  171.5690  144.4540 O   0  0  0  0  0  0  0  0  0  0  0  0
  193.2080  172.0800  144.3190 O   0  0  0  0  0  0  0  0  0  0  0  0
  191.8500  172.4180  143.7690 S   0  0  0  0  0  0  0  0  0  0  0  0
  191.8190  172.0870  142.0150 C   0  0  0  0  0  3  0  0  0  0  0  0
  190.5290  171.3870  141.6380 C   0  0  0  0  0  1  0  0  0  0  0  0
  191.9390  173.3830  141.2370 C   0  0  0  0  0  1  0  0  0  0  0  0
  192.5140  174.7230  145.0580 C   0  0  0  0  0  2  0  0  0  0  0  0
  193.3130  175.8360  144.4090 C   0  0  0  0  0  2  0  0  0  0  0  0
  193.0640  176.4850  146.7810 C   0  0  0  0  0  1  0  0  0  0  0  0
  193.7120  176.8480  145.4620 C   0  0  0  0  0  2  0  0  0  0  0  0
  188.1990  177.7180  142.3560 C   0  0  0  0  0  2  0  0  0  0  0  0
  187.1300  177.0840  141.4890 C   0  0  0  0  0  2  0  0  0  0  0  0
  188.1550  174.9790  140.2100 C   0  0  0  0  0  0  0  0  0  0  0  0
  187.6890  175.9280  140.7890 C   0  0  0  0  0  0  0  0  0  0  0  0
  188.7210  173.8290  139.5070 C   0  0  0  0  0  2  0  0  0  0  0  0
  187.9000  172.7310  139.6840 F   0  0  0  0  0  0  0  0  0  0  0  0
  1  5  1  0  0  0  0
  1  6  1  1  0  0  0
  4 25  1  6  0  0  0
  4  9  1  0  0  0  0
  4  7  1  0  0  0  0
  7  2  1  6  0  0  0
  7  8  1  0  0  0  0
  8  5  1  0  0  0  0
  8 10  1  1  0  0  0
  9  3  1  1  0  0  0
  9 11  1  0  0  0  0
 11 12  1  6  0  0  0
 11  1  1  0  0  0  0
 12 13  1  6  0  0  0
 14 12  1  0  0  0  0
 14 21  1  1  0  0  0
 17 14  1  0  0  0  0
 17 16  2  0  0  0  0
 17 15  2  0  0  0  0
 18 17  1  0  0  0  0
 19 18  1  0  0  0  0
 20 18  1  0  0  0  0
 22 21  1  0  0  0  0
 22 24  1  0  0  0  0
 24 23  1  0  0  0  0
 26 25  1  0  0  0  0
 27 28  3  0  0  0  0
 28 26  1  0  0  0  0
 29 30  1  0  0  0  0
 29 27  1  0  0  0  0
M  END
>  <MODEL>
5

>  <REMARK>
 VINA RESULT:      -5.9      2.469      6.363
  Name = 
  11 active torsions:
  status: ('A' for Active; 'I' for Inactive)
    1  A    between atoms: C_1  and  C_4
    2  A    between atoms: C_1  and  C_29
    3  A    between atoms: C_4  and  C_5
    4  A    between atoms: C_4  and  S_12
    5  A    between atoms: C_5  and  C_21
    6  A    between atoms: C_10  and  C_16
    7  A    between atoms: C_11  and  C_24
    8  A    between atoms: S_12  and  C_13
    9  A    between atoms: C_15  and  C_24
   10  A    between atoms: C_15  and  C_25
   11  A    between atoms: C_17  and  C_21
                            x       y       z     vdW  Elec       q    Type
                         _______ _______ _______ _____ _____    ______ ____

>  <TORSDO>
F 11

$$$$
=
 OpenBabel11052417243D

 30 30  0  0  1  0  0  0  0  0999 V2000
  186.9100  176.9530  144.5080 C   0  0  2  0  0  3  0  0  0  0  0  0
  187.8240  179.0400  148.2940 O   0  0  0  0  0  1  0  0  0  0  0  0
  188.1880  175.2120  147.0070 O   0  0  0  0  0  1  0  0  0  0  0  0
  188.8460  177.5380  146.7110 C   0  0  2  0  0  3  0  0  0  0  0  0
  185.9990  177.0160  145.7200 C   0  0  0  0  0  2  0  0  0  0  0  0
  186.0990  176.4700  143.3200 C   0  0  0  0  0  1  0  0  0  0  0  0
  187.5750  177.9140  147.5000 C   0  0  2  0  0  3  0  0  0  0  0  0
  186.3760  178.2060  146.5880 C   0  0  2  0  0  3  0  0  0  0  0  0
  188.7720  176.1200  146.1200 C   0  0  2  0  0  3  0  0  0  0  0  0
  185.1640  178.5800  147.4230 C   0  0  0  0  0  1  0  0  0  0  0  0
  188.1130  176.0270  144.7320 C   0  0  2  0  0  3  0  0  0  0  0  0
  189.1320  176.1730  143.5880 C   0  0  1  0  0  3  0  0  0  0  0  0
  190.1520  177.0720  143.9100 O   0  0  0  0  0  1  0  0  0  0  0  0
  189.6990  174.8460  143.0600 C   0  0  2  0  0  3  0  0  0  0  0  0
  188.2150  175.4700  140.8970 O   0  0  0  0  0  0  0  0  0  0  0  0
  187.7330  173.3440  142.0120 O   0  0  0  0  0  0  0  0  0  0  0  0
  188.8250  174.2910  141.6020 S   0  0  0  0  0  0  0  0  0  0  0  0
  189.9520  173.4580  140.4950 C   0  0  0  0  0  3  0  0  0  0  0  0
  190.0850  172.0010  140.8860 C   0  0  0  0  0  1  0  0  0  0  0  0
  189.4490  173.5570  139.0690 C   0  0  0  0  0  1  0  0  0  0  0  0
  189.7480  173.7380  144.1040 C   0  0  0  0  0  2  0  0  0  0  0  0
  191.1260  173.6620  144.7300 C   0  0  0  0  0  2  0  0  0  0  0  0
  193.0770  173.0330  143.3490 C   0  0  0  0  0  1  0  0  0  0  0  0
  192.1560  174.1680  143.7420 C   0  0  0  0  0  2  0  0  0  0  0  0
  190.0820  177.6260  147.5990 C   0  0  0  0  0  2  0  0  0  0  0  0
  190.7990  176.2920  147.6380 C   0  0  0  0  0  2  0  0  0  0  0  0
  193.1910  176.5310  146.4830 C   0  0  0  0  0  0  0  0  0  0  0  0
  192.1090  176.4210  147.0030 C   0  0  0  0  0  0  0  0  0  0  0  0
  194.5040  176.6670  145.8530 C   0  0  0  0  0  2  0  0  0  0  0  0
  194.3650  176.6010  144.4800 F   0  0  0  0  0  0  0  0  0  0  0  0
  1  6  1  6  0  0  0
  1 11  1  0  0  0  0
  1  5  1  0  0  0  0
  4  7  1  0  0  0  0
  4 25  1  1  0  0  0
  5  8  1  0  0  0  0
  7  2  1  6  0  0  0
  8 10  1  1  0  0  0
  8  7  1  0  0  0  0
  9  4  1  0  0  0  0
  9  3  1  1  0  0  0
 11 12  1  6  0  0  0
 11  9  1  0  0  0  0
 12 13  1  1  0  0  0
 14 12  1  0  0  0  0
 14 21  1  1  0  0  0
 15 17  2  0  0  0  0
 17 16  2  0  0  0  0
 17 14  1  0  0  0  0
 18 19  1  0  0  0  0
 18 17  1  0  0  0  0
 20 18  1  0  0  0  0
 21 22  1  0  0  0  0
 23 24  1  0  0  0  0
 24 22  1  0  0  0  0
 25 26  1  0  0  0  0
 27 28  3  0  0  0  0
 28 26  1  0  0  0  0
 29 27  1  0  0  0  0
 30 29  1  0  0  0  0
M  END
>  <MODEL>
6

>  <REMARK>
 VINA RESULT:      -5.7      2.583      6.144
  Name = 
  11 active torsions:
  status: ('A' for Active; 'I' for Inactive)
    1  A    between atoms: C_1  and  C_4
    2  A    between atoms: C_1  and  C_29
    3  A    between atoms: C_4  and  C_5
    4  A    between atoms: C_4  and  S_12
    5  A    between atoms: C_5  and  C_21
    6  A    between atoms: C_10  and  C_16
    7  A    between atoms: C_11  and  C_24
    8  A    between atoms: S_12  and  C_13
    9  A    between atoms: C_15  and  C_24
   10  A    between atoms: C_15  and  C_25
   11  A    between atoms: C_17  and  C_21
                            x       y       z     vdW  Elec       q    Type
                         _______ _______ _______ _____ _____    ______ ____

>  <TORSDO>
F 11

$$$$
=
 OpenBabel11052417243D

 30 30  0  0  1  0  0  0  0  0999 V2000
  188.0970  178.3380  142.8430 C   0  0  2  0  0  3  0  0  0  0  0  0
  185.6780  178.5280  146.5360 O   0  0  0  0  0  1  0  0  0  0  0  0
  186.6870  175.5660  143.9560 O   0  0  0  0  0  1  0  0  0  0  0  0
  187.4580  177.2380  145.5490 C   0  0  2  0  0  3  0  0  0  0  0  0
  186.5870  178.4950  142.9000 C   0  0  0  0  0  2  0  0  0  0  0  0
  188.5640  178.6770  141.4400 C   0  0  0  0  0  1  0  0  0  0  0  0
  186.1070  177.9500  145.3350 C   0  0  2  0  0  3  0  0  0  0  0  0
  186.1760  179.0400  144.2570 C   0  0  2  0  0  3  0  0  0  0  0  0
  187.8050  176.2760  144.4000 C   0  0  2  0  0  3  0  0  0  0  0  0
  184.8210  179.7090  144.1030 C   0  0  0  0  0  1  0  0  0  0  0  0
  188.5490  176.9200  143.2160 C   0  0  2  0  0  3  0  0  0  0  0  0
  190.0770  176.8620  143.3820 C   0  0  1  0  0  3  0  0  0  0  0  0
  190.5290  177.7460  144.3640 O   0  0  0  0  0  1  0  0  0  0  0  0
  190.6470  175.4510  143.5930 C   0  0  2  0  0  3  0  0  0  0  0  0
  192.7840  176.6310  142.4490 O   0  0  0  0  0  0  0  0  0  0  0  0
  192.6090  174.1960  142.2510 O   0  0  0  0  0  0  0  0  0  0  0  0
  192.3810  175.3700  143.1610 S   0  0  0  0  0  0  0  0  0  0  0  0
  193.3690  175.1820  144.6360 C   0  0  0  0  0  3  0  0  0  0  0  0
  193.6930  176.5390  145.2250 C   0  0  0  0  0  1  0  0  0  0  0  0
  192.6230  174.3490  145.6610 C   0  0  0  0  0  1  0  0  0  0  0  0
  189.8690  174.3580  142.8720 C   0  0  0  0  0  2  0  0  0  0  0  0
  189.6290  173.1820  143.7970 C   0  0  0  0  0  2  0  0  0  0  0  0
  189.7000  172.2330  141.5160 C   0  0  0  0  0  1  0  0  0  0  0  0
  189.4350  171.9260  142.9740 C   0  0  0  0  0  2  0  0  0  0  0  0
  187.4540  176.4490  146.8540 C   0  0  0  0  0  2  0  0  0  0  0  0
  188.5890  175.4450  146.8660 C   0  0  0  0  0  2  0  0  0  0  0  0
  190.7790  176.5860  147.8760 C   0  0  0  0  0  0  0  0  0  0  0  0
  189.7910  176.0700  147.4160 C   0  0  0  0  0  0  0  0  0  0  0  0
  191.9770  177.2120  148.4350 C   0  0  0  0  0  2  0  0  0  0  0  0
  191.6280  177.9750  149.5320 F   0  0  0  0  0  0  0  0  0  0  0  0
  1  6  1  6  0  0  0
  1  5  1  0  0  0  0
  1 11  1  0  0  0  0
  4 25  1  1  0  0  0
  5  8  1  0  0  0  0
  7  4  1  0  0  0  0
  7  2  1  1  0  0  0
  8 10  1  6  0  0  0
  8  7  1  0  0  0  0
  9  3  1  6  0  0  0
  9  4  1  0  0  0  0
 11 12  1  1  0  0  0
 11  9  1  0  0  0  0
 12 14  1  0  0  0  0
 12 13  1  1  0  0  0
 14 21  1  6  0  0  0
 15 17  2  0  0  0  0
 16 17  2  0  0  0  0
 17 14  1  0  0  0  0
 17 18  1  0  0  0  0
 18 19  1  0  0  0  0
 18 20  1  0  0  0  0
 21 22  1  0  0  0  0
 23 24  1  0  0  0  0
 24 22  1  0  0  0  0
 25 26  1  0  0  0  0
 26 28  1  0  0  0  0
 27 29  1  0  0  0  0
 28 27  3  0  0  0  0
 29 30  1  0  0  0  0
M  END
>  <MODEL>
7

>  <REMARK>
 VINA RESULT:      -5.6      3.211      6.988
  Name = 
  11 active torsions:
  status: ('A' for Active; 'I' for Inactive)
    1  A    between atoms: C_1  and  C_4
    2  A    between atoms: C_1  and  C_29
    3  A    between atoms: C_4  and  C_5
    4  A    between atoms: C_4  and  S_12
    5  A    between atoms: C_5  and  C_21
    6  A    between atoms: C_10  and  C_16
    7  A    between atoms: C_11  and  C_24
    8  A    between atoms: S_12  and  C_13
    9  A    between atoms: C_15  and  C_24
   10  A    between atoms: C_15  and  C_25
   11  A    between atoms: C_17  and  C_21
                            x       y       z     vdW  Elec       q    Type
                         _______ _______ _______ _____ _____    ______ ____

>  <TORSDO>
F 11

$$$$
=
 OpenBabel11052417243D

 30 30  0  0  1  0  0  0  0  0999 V2000
  191.9250  175.4740  143.4980 C   0  0  2  0  0  3  0  0  0  0  0  0
  192.0290  176.5020  147.7950 O   0  0  0  0  0  1  0  0  0  0  0  0
  190.6680  178.3720  144.4630 O   0  0  0  0  0  1  0  0  0  0  0  0
  190.4940  176.4420  145.9390 C   0  0  2  0  0  3  0  0  0  0  0  0
  192.9910  176.3160  144.1770 C   0  0  0  0  0  2  0  0  0  0  0  0
  192.4360  175.0600  142.1310 C   0  0  0  0  0  1  0  0  0  0  0  0
  191.9140  176.7890  146.4290 C   0  0  2  0  0  3  0  0  0  0  0  0
  193.0060  176.0260  145.6680 C   0  0  2  0  0  3  0  0  0  0  0  0
  190.1750  177.0690  144.5710 C   0  0  2  0  0  3  0  0  0  0  0  0
  194.3760  176.4020  146.2050 C   0  0  0  0  0  1  0  0  0  0  0  0
  190.5950  176.2240  143.3540 C   0  0  2  0  0  3  0  0  0  0  0  0
  189.4800  175.2720  142.8900 C   0  0  1  0  0  3  0  0  0  0  0  0
  188.5120  175.0790  143.8780 O   0  0  0  0  0  1  0  0  0  0  0  0
  188.8400  175.6400  141.5420 C   0  0  2  0  0  3  0  0  0  0  0  0
  187.0420  177.3260  140.4490 O   0  0  0  0  0  0  0  0  0  0  0  0
  188.9390  178.3250  141.6330 O   0  0  0  0  0  0  0  0  0  0  0  0
  187.9530  177.1910  141.6370 S   0  0  0  0  0  0  0  0  0  0  0  0
  186.9850  177.2480  143.1360 C   0  0  0  0  0  3  0  0  0  0  0  0
  186.9630  178.6580  143.6900 C   0  0  0  0  0  1  0  0  0  0  0  0
  185.5660  176.7910  142.8580 C   0  0  0  0  0  1  0  0  0  0  0  0
  187.9440  174.5510  140.9680 C   0  0  0  0  0  2  0  0  0  0  0  0
  188.7190  173.6900  139.9900 C   0  0  0  0  0  2  0  0  0  0  0  0
  189.6110  173.7900  137.6880 C   0  0  0  0  0  1  0  0  0  0  0  0
  188.4460  174.1620  138.5780 C   0  0  0  0  0  2  0  0  0  0  0  0
  189.4440  176.9110  146.9400 C   0  0  0  0  0  2  0  0  0  0  0  0
  188.3270  175.8930  147.0490 C   0  0  0  0  0  2  0  0  0  0  0  0
  185.9750  177.1090  146.7290 C   0  0  0  0  0  0  0  0  0  0  0  0
  187.0380  176.5600  146.8770 C   0  0  0  0  0  0  0  0  0  0  0  0
  184.6860  177.7770  146.5480 C   0  0  0  0  0  2  0  0  0  0  0  0
  184.4440  178.6090  147.6240 F   0  0  0  0  0  0  0  0  0  0  0  0
  1  6  1  6  0  0  0
  1  5  1  0  0  0  0
  4  7  1  0  0  0  0
  4 25  1  1  0  0  0
  5  8  1  0  0  0  0
  7  2  1  1  0  0  0
  8 10  1  1  0  0  0
  8  7  1  0  0  0  0
  9  3  1  6  0  0  0
  9  4  1  0  0  0  0
 11 12  1  1  0  0  0
 11  1  1  0  0  0  0
 11  9  1  0  0  0  0
 12 13  1  1  0  0  0
 14 21  1  1  0  0  0
 14 17  1  0  0  0  0
 14 12  1  0  0  0  0
 15 17  2  0  0  0  0
 16 17  2  0  0  0  0
 17 18  1  0  0  0  0
 18 19  1  0  0  0  0
 20 18  1  0  0  0  0
 22 21  1  0  0  0  0
 23 24  1  0  0  0  0
 24 22  1  0  0  0  0
 25 26  1  0  0  0  0
 27 28  3  0  0  0  0
 28 26  1  0  0  0  0
 29 27  1  0  0  0  0
 29 30  1  0  0  0  0
M  END
>  <MODEL>
8

>  <REMARK>
 VINA RESULT:      -5.5      3.317      5.633
  Name = 
  11 active torsions:
  status: ('A' for Active; 'I' for Inactive)
    1  A    between atoms: C_1  and  C_4
    2  A    between atoms: C_1  and  C_29
    3  A    between atoms: C_4  and  C_5
    4  A    between atoms: C_4  and  S_12
    5  A    between atoms: C_5  and  C_21
    6  A    between atoms: C_10  and  C_16
    7  A    between atoms: C_11  and  C_24
    8  A    between atoms: S_12  and  C_13
    9  A    between atoms: C_15  and  C_24
   10  A    between atoms: C_15  and  C_25
   11  A    between atoms: C_17  and  C_21
                            x       y       z     vdW  Elec       q    Type
                         _______ _______ _______ _____ _____    ______ ____

>  <TORSDO>
F 11

$$$$
=
 OpenBabel11052417243D

 30 30  0  0  1  0  0  0  0  0999 V2000
  189.0040  175.2530  145.4050 C   0  0  2  0  0  3  0  0  0  0  0  0
  186.0120  178.3300  144.3560 O   0  0  0  0  0  1  0  0  0  0  0  0
  190.0540  178.3010  144.6860 O   0  0  0  0  0  1  0  0  0  0  0  0
  188.0900  177.4140  143.5510 C   0  0  2  0  0  3  0  0  0  0  0  0
  188.4050  176.2630  146.3680 C   0  0  0  0  0  2  0  0  0  0  0  0
  189.6940  174.1690  146.2120 C   0  0  0  0  0  1  0  0  0  0  0  0
  187.2720  177.8830  144.7710 C   0  0  2  0  0  3  0  0  0  0  0  0
  187.0840  176.7770  145.8190 C   0  0  2  0  0  3  0  0  0  0  0  0
  189.5880  177.2680  143.8690 C   0  0  2  0  0  3  0  0  0  0  0  0
  186.2630  177.2980  146.9860 C   0  0  0  0  0  1  0  0  0  0  0  0
  190.0020  175.8970  144.4330 C   0  0  2  0  0  3  0  0  0  0  0  0
  190.4030  174.9040  143.3290 C   0  0  1  0  0  3  0  0  0  0  0  0
  190.1910  175.4310  142.0520 O   0  0  0  0  0  1  0  0  0  0  0  0
  191.8200  174.3250  143.4680 C   0  0  2  0  0  3  0  0  0  0  0  0
  192.6780  176.7800  142.7530 O   0  0  0  0  0  0  0  0  0  0  0  0
  194.3850  175.0830  143.2080 O   0  0  0  0  0  0  0  0  0  0  0  0
  193.0460  175.6170  143.6330 S   0  0  0  0  0  0  0  0  0  0  0  0
  193.1320  176.1630  145.3300 C   0  0  0  0  0  3  0  0  0  0  0  0
  193.2070  174.9690  146.2600 C   0  0  0  0  0  1  0  0  0  0  0  0
  194.3500  177.0410  145.5340 C   0  0  0  0  0  1  0  0  0  0  0  0
  192.2060  173.3670  142.3480 C   0  0  0  0  0  2  0  0  0  0  0  0
  192.4160  171.9700  142.8970 C   0  0  0  0  0  2  0  0  0  0  0  0
  190.4390  170.7800  142.0140 C   0  0  0  0  0  1  0  0  0  0  0  0
  191.0770  171.3640  143.2560 C   0  0  0  0  0  2  0  0  0  0  0  0
  187.9370  178.3880  142.3880 C   0  0  0  0  0  2  0  0  0  0  0  0
  187.5000  177.6510  141.1380 C   0  0  0  0  0  2  0  0  0  0  0  0
  184.8950  178.0600  140.7320 C   0  0  0  0  0  0  0  0  0  0  0  0
  186.0720  177.8730  140.9130 C   0  0  0  0  0  0  0  0  0  0  0  0
  183.4670  178.2880  140.5130 C   0  0  0  0  0  2  0  0  0  0  0  0
  182.7920  178.1590  141.7110 F   0  0  0  0  0  0  0  0  0  0  0  0
  1  6  1  1  0  0  0
  1  5  1  0  0  0  0
  4 25  1  6  0  0  0
  4  9  1  0  0  0  0
  4  7  1  0  0  0  0
  7  2  1  6  0  0  0
  7  8  1  0  0  0  0
  8  5  1  0  0  0  0
  8 10  1  1  0  0  0
  9 11  1  0  0  0  0
  9  3  1  1  0  0  0
 11 12  1  6  0  0  0
 11  1  1  0  0  0  0
 12 13  1  6  0  0  0
 12 14  1  0  0  0  0
 14 21  1  6  0  0  0
 14 17  1  0  0  0  0
 15 17  2  0  0  0  0
 16 17  2  0  0  0  0
 17 18  1  0  0  0  0
 18 20  1  0  0  0  0
 18 19  1  0  0  0  0
 21 22  1  0  0  0  0
 22 24  1  0  0  0  0
 23 24  1  0  0  0  0
 26 25  1  0  0  0  0
 27 28  3  0  0  0  0
 28 26  1  0  0  0  0
 29 27  1  0  0  0  0
 29 30  1  0  0  0  0
M  END
>  <MODEL>
9

>  <REMARK>
 VINA RESULT:      -5.5      3.170      7.334
  Name = 
  11 active torsions:
  status: ('A' for Active; 'I' for Inactive)
    1  A    between atoms: C_1  and  C_4
    2  A    between atoms: C_1  and  C_29
    3  A    between atoms: C_4  and  C_5
    4  A    between atoms: C_4  and  S_12
    5  A    between atoms: C_5  and  C_21
    6  A    between atoms: C_10  and  C_16
    7  A    between atoms: C_11  and  C_24
    8  A    between atoms: S_12  and  C_13
    9  A    between atoms: C_15  and  C_24
   10  A    between atoms: C_15  and  C_25
   11  A    between atoms: C_17  and  C_21
                            x       y       z     vdW  Elec       q    Type
                         _______ _______ _______ _____ _____    ______ ____

>  <TORSDO>
F 11

$$$$
