=
 OpenBabel11052418363D

 34 38  0  0  1  0  0  0  0  0999 V2000
  185.1840  177.7110  142.6710 C   0  0  2  0  0  3  0  0  0  0  0  0
  184.8950  177.5120  145.1970 C   0  0  1  0  0  3  0  0  0  0  0  0
  187.1910  177.4170  144.1700 C   0  0  1  0  0  3  0  0  0  0  0  0
  189.1580  177.1110  145.7150 C   0  0  2  0  0  3  0  0  0  0  0  0
  184.1070  178.6650  145.7890 C   0  0  0  0  0  1  0  0  0  0  0  0
  186.8920  177.5780  146.6660 N   0  0  0  0  0  2  0  0  0  0  0  0
  185.7900  178.0240  144.0510 C   0  0  1  0  0  3  0  0  0  0  0  0
  188.1140  177.8340  143.0230 C   0  0  1  0  0  3  0  0  0  0  0  0
  186.1190  178.1540  141.5410 C   0  0  0  0  0  2  0  0  0  0  0  0
  185.6940  176.8090  146.3060 C   0  0  0  0  0  2  0  0  0  0  0  0
  190.1000  177.5010  144.5710 C   0  0  0  0  0  2  0  0  0  0  0  0
  189.5080  177.1950  143.1890 C   0  0  1  0  0  3  0  0  0  0  0  0
  187.8020  177.8070  145.5260 C   0  0  2  0  0  3  0  0  0  0  0  0
  187.4850  177.4920  141.6720 C   0  0  0  0  0  2  0  0  0  0  0  0
  188.5260  173.6150  142.2840 C   0  0  0  0  0  0  0  0  0  0  0  0
  189.7780  172.9940  142.2670 C   0  0  0  0  0  3  0  0  0  0  0  0
  189.5790  175.7270  142.8560 C   0  0  0  0  0  0  0  0  0  0  0  0
  190.9300  173.7350  142.5450 C   0  0  0  0  0  3  0  0  0  0  0  0
  188.4260  174.9770  142.5790 C   0  0  0  0  0  3  0  0  0  0  0  0
  190.8290  175.0980  142.8400 C   0  0  0  0  0  3  0  0  0  0  0  0
  187.4100  172.8980  142.0090 F   0  0  0  0  0  0  0  0  0  0  0  0
  183.3350  178.2840  141.0280 C   0  0  0  0  0  1  0  0  0  0  0  0
  183.7960  178.3270  142.4780 C   0  0  0  0  0  2  0  0  0  0  0  0
  189.8200  177.5100  147.0250 C   0  0  0  0  0  2  0  0  0  0  0  0
  190.6390  176.4200  147.5240 N   0  0  0  0  0  2  0  0  0  0  0  0
  192.3680  175.2610  146.4750 C   0  0  0  0  0  3  0  0  0  0  0  0
  191.9740  176.3060  147.1240 N   0  0  0  0  0  0  0  0  0  0  0  0
  193.4610  172.5430  145.2360 Cl  0  0  0  0  0  0  0  0  0  0  0  0
  193.7920  175.1290  146.0490 C   0  0  1  0  0  3  0  0  0  0  0  0
  193.9060  174.2180  144.8190 C   0  0  1  0  0  3  0  0  0  0  0  0
  195.7740  175.6010  144.0530 N   0  0  0  0  0  2  0  0  0  0  0  0
  195.3080  176.6900  144.8580 C   0  0  0  0  0  3  0  0  0  0  0  0
  194.3680  176.4950  145.7840 C   0  0  0  0  0  3  0  0  0  0  0  0
  195.3440  174.2290  144.3090 C   0  0  0  0  0  2  0  0  0  0  0  0
  1 23  1  6  0  0  0
  1  7  1  0  0  0  0
  2  5  1  1  0  0  0
  2 10  1  0  0  0  0
  3 13  1  0  0  0  0
  4 24  1  0  0  0  0
  7  3  1  0  0  0  0
  7  2  1  0  0  0  0
  8 12  1  0  0  0  0
  8  3  1  0  0  0  0
  9 14  1  0  0  0  0
  9  1  1  0  0  0  0
 10  6  1  0  0  0  0
 11  4  1  0  0  0  0
 12 11  1  0  0  0  0
 13  4  1  0  0  0  0
 13  6  1  0  0  0  0
 14  8  1  0  0  0  0
 15 19  1  0  0  0  0
 16 15  2  0  0  0  0
 16 18  1  0  0  0  0
 17 12  1  0  0  0  0
 18 20  2  0  0  0  0
 19 17  2  0  0  0  0
 20 17  1  0  0  0  0
 21 15  1  0  0  0  0
 22 23  1  0  0  0  0
 24 25  1  0  0  0  0
 26 27  2  0  0  0  0
 27 25  1  0  0  0  0
 29 26  1  0  0  0  0
 30 28  1  0  0  0  0
 30 29  1  0  0  0  0
 31 34  1  0  0  0  0
 31 32  1  0  0  0  0
 32 33  2  0  0  0  0
 33 29  1  0  0  0  0
 34 30  1  0  0  0  0
M  END
>  <MODEL>
1

>  <REMARK>
 VINA RESULT:      -8.8      0.000      0.000
  Name = 
  6 active torsions:
  status: ('A' for Active; 'I' for Inactive)
    1  A    between atoms: C_1  and  C_19
    2  A    between atoms: C_3  and  C_13
    3  A    between atoms: C_5  and  C_18
    4  A    between atoms: C_12  and  C_28
    5  A    between atoms: N_17  and  N_29
    6  A    between atoms: C_18  and  N_29
                            x       y       z     vdW  Elec       q    Type
                         _______ _______ _______ _____ _____    ______ ____

>  <TORSDO>
F 6

$$$$
=
 OpenBabel11052418363D

 34 38  0  0  1  0  0  0  0  0999 V2000
  186.7870  178.2770  145.2650 C   0  0  2  0  0  3  0  0  0  0  0  0
  187.1960  178.3570  142.7490 C   0  0  1  0  0  3  0  0  0  0  0  0
  188.1960  176.5130  144.1400 C   0  0  1  0  0  3  0  0  0  0  0  0
  189.6040  174.7850  142.9640 C   0  0  2  0  0  3  0  0  0  0  0  0
  185.9090  178.4250  141.9480 C   0  0  0  0  0  1  0  0  0  0  0  0
  188.2820  176.4320  141.6230 N   0  0  0  0  0  2  0  0  0  0  0  0
  186.9980  177.4530  143.9820 C   0  0  1  0  0  3  0  0  0  0  0  0
  188.0940  175.6300  145.3850 C   0  0  1  0  0  3  0  0  0  0  0  0
  186.6690  177.3690  146.4930 C   0  0  0  0  0  2  0  0  0  0  0  0
  188.3440  177.8830  141.8430 C   0  0  0  0  0  2  0  0  0  0  0  0
  189.5350  173.8980  144.2120 C   0  0  0  0  0  2  0  0  0  0  0  0
  189.3230  174.7070  145.4980 C   0  0  1  0  0  3  0  0  0  0  0  0
  188.3380  175.6500  142.8750 C   0  0  2  0  0  3  0  0  0  0  0  0
  187.9020  176.4850  146.6380 C   0  0  0  0  0  2  0  0  0  0  0  0
  192.5310  176.7830  145.5300 C   0  0  0  0  0  0  0  0  0  0  0  0
  192.9490  176.6030  146.8520 C   0  0  0  0  0  3  0  0  0  0  0  0
  190.5900  175.3860  145.9520 C   0  0  0  0  0  0  0  0  0  0  0  0
  192.1920  175.8160  147.7240 C   0  0  0  0  0  3  0  0  0  0  0  0
  191.3560  176.1750  145.0810 C   0  0  0  0  0  3  0  0  0  0  0  0
  191.0160  175.2080  147.2730 C   0  0  0  0  0  3  0  0  0  0  0  0
  193.2630  177.5500  144.6870 F   0  0  0  0  0  0  0  0  0  0  0  0
  184.3510  178.6390  145.8850 C   0  0  0  0  0  1  0  0  0  0  0  0
  185.5760  179.2090  145.1800 C   0  0  0  0  0  2  0  0  0  0  0  0
  189.7560  173.8790  141.7520 C   0  0  0  0  0  2  0  0  0  0  0  0
  191.0690  174.0520  141.1590 N   0  0  0  0  0  2  0  0  0  0  0  0
  193.2270  174.5760  141.8650 C   0  0  0  0  0  3  0  0  0  0  0  0
  191.9910  174.9280  141.7390 N   0  0  0  0  0  0  0  0  0  0  0  0
  194.4670  173.9620  144.7290 Cl  0  0  0  0  0  0  0  0  0  0  0  0
  194.2160  175.5030  142.4890 C   0  0  1  0  0  3  0  0  0  0  0  0
  195.2450  174.7190  143.3150 C   0  0  1  0  0  3  0  0  0  0  0  0
  196.9230  176.3820  142.6770 N   0  0  0  0  0  2  0  0  0  0  0  0
  196.1400  176.7460  141.5350 C   0  0  0  0  0  3  0  0  0  0  0  0
  194.8780  176.3300  141.4170 C   0  0  0  0  0  3  0  0  0  0  0  0
  196.3340  175.6690  143.8070 C   0  0  0  0  0  2  0  0  0  0  0  0
  1 23  1  6  0  0  0
  1  9  1  0  0  0  0
  2  5  1  6  0  0  0
  2  7  1  0  0  0  0
  3  8  1  0  0  0  0
  4 11  1  0  0  0  0
  6 10  1  0  0  0  0
  6 13  1  0  0  0  0
  7  3  1  0  0  0  0
  7  1  1  0  0  0  0
  8 12  1  0  0  0  0
  8 14  1  0  0  0  0
  9 14  1  0  0  0  0
 10  2  1  0  0  0  0
 11 12  1  0  0  0  0
 12 17  1  0  0  0  0
 13  4  1  0  0  0  0
 13  3  1  0  0  0  0
 15 16  1  0  0  0  0
 16 18  2  0  0  0  0
 17 20  2  0  0  0  0
 19 15  2  0  0  0  0
 19 17  1  0  0  0  0
 20 18  1  0  0  0  0
 21 15  1  0  0  0  0
 23 22  1  0  0  0  0
 24  4  1  0  0  0  0
 25 27  1  0  0  0  0
 25 24  1  0  0  0  0
 26 29  1  0  0  0  0
 27 26  2  0  0  0  0
 29 30  1  0  0  0  0
 30 34  1  0  0  0  0
 30 28  1  0  0  0  0
 31 34  1  0  0  0  0
 32 31  1  0  0  0  0
 33 32  2  0  0  0  0
 33 29  1  0  0  0  0
M  END
>  <MODEL>
2

>  <REMARK>
 VINA RESULT:      -8.7      2.650      4.441
  Name = 
  6 active torsions:
  status: ('A' for Active; 'I' for Inactive)
    1  A    between atoms: C_1  and  C_19
    2  A    between atoms: C_3  and  C_13
    3  A    between atoms: C_5  and  C_18
    4  A    between atoms: C_12  and  C_28
    5  A    between atoms: N_17  and  N_29
    6  A    between atoms: C_18  and  N_29
                            x       y       z     vdW  Elec       q    Type
                         _______ _______ _______ _____ _____    ______ ____

>  <TORSDO>
F 6

$$$$
=
 OpenBabel11052418363D

 34 38  0  0  1  0  0  0  0  0999 V2000
  186.8110  178.2510  145.2310 C   0  0  2  0  0  3  0  0  0  0  0  0
  187.2120  178.3700  142.7150 C   0  0  1  0  0  3  0  0  0  0  0  0
  188.2160  176.5040  144.0750 C   0  0  1  0  0  3  0  0  0  0  0  0
  189.6190  174.7940  142.8680 C   0  0  2  0  0  3  0  0  0  0  0  0
  185.9230  178.4510  141.9200 C   0  0  0  0  0  1  0  0  0  0  0  0
  188.2940  176.4620  141.5570 N   0  0  0  0  0  2  0  0  0  0  0  0
  187.0170  177.4470  143.9350 C   0  0  1  0  0  3  0  0  0  0  0  0
  188.1180  175.6020  145.3070 C   0  0  1  0  0  3  0  0  0  0  0  0
  186.6970  177.3240  146.4460 C   0  0  0  0  0  2  0  0  0  0  0  0
  188.3560  177.9090  141.7980 C   0  0  0  0  0  2  0  0  0  0  0  0
  189.5540  173.8880  144.1030 C   0  0  0  0  0  2  0  0  0  0  0  0
  189.3470  174.6770  145.4010 C   0  0  1  0  0  3  0  0  0  0  0  0
  188.3530  175.6610  142.7960 C   0  0  2  0  0  3  0  0  0  0  0  0
  187.9300  176.4380  146.5730 C   0  0  0  0  0  2  0  0  0  0  0  0
  192.5370  176.7790  145.4640 C   0  0  0  0  0  0  0  0  0  0  0  0
  192.9790  176.5500  146.7700 C   0  0  0  0  0  3  0  0  0  0  0  0
  190.6150  175.3490  145.8620 C   0  0  0  0  0  0  0  0  0  0  0  0
  192.2440  175.7210  147.6220 C   0  0  0  0  0  3  0  0  0  0  0  0
  191.3600  176.1790  145.0100 C   0  0  0  0  0  3  0  0  0  0  0  0
  191.0650  175.1210  147.1670 C   0  0  0  0  0  3  0  0  0  0  0  0
  193.2480  177.5870  144.6410 F   0  0  0  0  0  0  0  0  0  0  0  0
  184.3320  178.5340  145.7020 C   0  0  0  0  0  1  0  0  0  0  0  0
  185.6000  179.1850  145.1650 C   0  0  0  0  0  2  0  0  0  0  0  0
  189.7670  173.9060  141.6410 C   0  0  0  0  0  2  0  0  0  0  0  0
  191.1060  174.0260  141.0950 N   0  0  0  0  0  2  0  0  0  0  0  0
  193.0870  174.5220  142.2170 C   0  0  0  0  0  3  0  0  0  0  0  0
  192.2120  173.6420  141.8590 N   0  0  0  0  0  0  0  0  0  0  0  0
  195.8950  175.9670  141.8380 Cl  0  0  0  0  0  0  0  0  0  0  0  0
  194.2740  174.1200  143.0280 C   0  0  1  0  0  3  0  0  0  0  0  0
  195.1570  175.3380  143.3330 C   0  0  1  0  0  3  0  0  0  0  0  0
  195.7000  174.3170  145.4900 N   0  0  0  0  0  2  0  0  0  0  0  0
  194.5070  173.5270  145.4260 C   0  0  0  0  0  3  0  0  0  0  0  0
  193.8140  173.4370  144.2900 C   0  0  0  0  0  3  0  0  0  0  0  0
  196.2700  174.9310  144.2940 C   0  0  0  0  0  2  0  0  0  0  0  0
  1 23  1  6  0  0  0
  1  9  1  0  0  0  0
  2  5  1  6  0  0  0
  2  7  1  0  0  0  0
  3  8  1  0  0  0  0
  4 11  1  0  0  0  0
  6 10  1  0  0  0  0
  6 13  1  0  0  0  0
  7  3  1  0  0  0  0
  7  1  1  0  0  0  0
  8 12  1  0  0  0  0
  8 14  1  0  0  0  0
  9 14  1  0  0  0  0
 10  2  1  0  0  0  0
 11 12  1  0  0  0  0
 12 17  1  0  0  0  0
 13  4  1  0  0  0  0
 13  3  1  0  0  0  0
 15 16  1  0  0  0  0
 16 18  2  0  0  0  0
 17 20  2  0  0  0  0
 19 15  2  0  0  0  0
 19 17  1  0  0  0  0
 20 18  1  0  0  0  0
 21 15  1  0  0  0  0
 23 22  1  0  0  0  0
 24  4  1  0  0  0  0
 25 24  1  0  0  0  0
 25 27  1  0  0  0  0
 26 29  1  0  0  0  0
 27 26  2  0  0  0  0
 28 30  1  0  0  0  0
 29 30  1  0  0  0  0
 29 33  1  0  0  0  0
 30 34  1  0  0  0  0
 32 31  1  0  0  0  0
 33 32  2  0  0  0  0
 34 31  1  0  0  0  0
M  END
>  <MODEL>
3

>  <REMARK>
 VINA RESULT:      -8.5      2.652      4.479
  Name = 
  6 active torsions:
  status: ('A' for Active; 'I' for Inactive)
    1  A    between atoms: C_1  and  C_19
    2  A    between atoms: C_3  and  C_13
    3  A    between atoms: C_5  and  C_18
    4  A    between atoms: C_12  and  C_28
    5  A    between atoms: N_17  and  N_29
    6  A    between atoms: C_18  and  N_29
                            x       y       z     vdW  Elec       q    Type
                         _______ _______ _______ _____ _____    ______ ____

>  <TORSDO>
F 6

$$$$
=
 OpenBabel11052418363D

 34 38  0  0  1  0  0  0  0  0999 V2000
  186.0170  177.8540  143.4270 C   0  0  2  0  0  3  0  0  0  0  0  0
  186.2210  177.4290  145.9330 C   0  0  1  0  0  3  0  0  0  0  0  0
  188.2320  177.1970  144.4380 C   0  0  1  0  0  3  0  0  0  0  0  0
  190.4160  176.5280  145.5030 C   0  0  2  0  0  3  0  0  0  0  0  0
  185.7190  178.5940  146.7670 C   0  0  0  0  0  1  0  0  0  0  0  0
  188.4650  177.1330  146.9460 N   0  0  0  0  0  2  0  0  0  0  0  0
  186.9230  177.9580  144.6670 C   0  0  1  0  0  3  0  0  0  0  0  0
  188.9500  177.6280  143.1580 C   0  0  1  0  0  3  0  0  0  0  0  0
  186.7530  178.3090  142.1630 C   0  0  0  0  0  2  0  0  0  0  0  0
  187.1330  176.5360  146.7900 C   0  0  0  0  0  2  0  0  0  0  0  0
  191.1500  176.9300  144.2180 C   0  0  0  0  0  2  0  0  0  0  0  0
  190.2570  176.8330  142.9750 C   0  0  1  0  0  3  0  0  0  0  0  0
  189.1480  177.3800  145.6600 C   0  0  2  0  0  3  0  0  0  0  0  0
  188.0240  177.4950  141.9490 C   0  0  0  0  0  2  0  0  0  0  0  0
  188.6730  173.4930  142.0080 C   0  0  0  0  0  0  0  0  0  0  0  0
  189.8090  172.7430  141.6920 C   0  0  0  0  0  3  0  0  0  0  0  0
  190.0770  175.4070  142.5210 C   0  0  0  0  0  0  0  0  0  0  0  0
  191.0780  173.3200  141.7910 C   0  0  0  0  0  3  0  0  0  0  0  0
  188.8050  174.8210  142.4220 C   0  0  0  0  0  3  0  0  0  0  0  0
  191.2100  174.6490  142.2060 C   0  0  0  0  0  3  0  0  0  0  0  0
  187.4430  172.9340  141.9060 F   0  0  0  0  0  0  0  0  0  0  0  0
  183.7050  178.3090  142.4800 C   0  0  0  0  0  1  0  0  0  0  0  0
  184.7070  178.6300  143.5820 C   0  0  0  0  0  2  0  0  0  0  0  0
  191.3740  176.7180  146.6700 C   0  0  0  0  0  2  0  0  0  0  0  0
  191.8930  175.4350  147.1050 N   0  0  0  0  0  2  0  0  0  0  0  0
  193.9780  175.2640  146.0790 C   0  0  0  0  0  3  0  0  0  0  0  0
  192.8180  174.7480  146.3140 N   0  0  0  0  0  0  0  0  0  0  0  0
  194.4180  176.0610  143.0300 Cl  0  0  0  0  0  0  0  0  0  0  0  0
  194.9700  174.5400  145.2310 C   0  0  1  0  0  3  0  0  0  0  0  0
  195.6190  175.4970  144.2210 C   0  0  1  0  0  3  0  0  0  0  0  0
  197.6890  174.2090  144.4350 N   0  0  0  0  0  2  0  0  0  0  0  0
  197.2620  173.7190  145.7110 C   0  0  0  0  0  3  0  0  0  0  0  0
  195.9990  173.8790  146.1110 C   0  0  0  0  0  3  0  0  0  0  0  0
  196.7390  174.7720  143.4800 C   0  0  0  0  0  2  0  0  0  0  0  0
  1 23  1  1  0  0  0
  1  7  1  0  0  0  0
  2  5  1  1  0  0  0
  2 10  1  0  0  0  0
  3  7  1  0  0  0  0
  3 13  1  0  0  0  0
  4 13  1  0  0  0  0
  4 24  1  0  0  0  0
  7  2  1  0  0  0  0
  8  3  1  0  0  0  0
  9  1  1  0  0  0  0
 10  6  1  0  0  0  0
 11  4  1  0  0  0  0
 12  8  1  0  0  0  0
 12 11  1  0  0  0  0
 13  6  1  0  0  0  0
 14  9  1  0  0  0  0
 14  8  1  0  0  0  0
 15 19  1  0  0  0  0
 16 18  1  0  0  0  0
 16 15  2  0  0  0  0
 17 12  1  0  0  0  0
 18 20  2  0  0  0  0
 19 17  2  0  0  0  0
 20 17  1  0  0  0  0
 21 15  1  0  0  0  0
 22 23  1  0  0  0  0
 24 25  1  0  0  0  0
 26 27  2  0  0  0  0
 27 25  1  0  0  0  0
 28 30  1  0  0  0  0
 29 26  1  0  0  0  0
 29 33  1  0  0  0  0
 30 29  1  0  0  0  0
 31 32  1  0  0  0  0
 32 33  2  0  0  0  0
 34 30  1  0  0  0  0
 34 31  1  0  0  0  0
M  END
>  <MODEL>
4

>  <REMARK>
 VINA RESULT:      -8.3      1.426      1.715
  Name = 
  6 active torsions:
  status: ('A' for Active; 'I' for Inactive)
    1  A    between atoms: C_1  and  C_19
    2  A    between atoms: C_3  and  C_13
    3  A    between atoms: C_5  and  C_18
    4  A    between atoms: C_12  and  C_28
    5  A    between atoms: N_17  and  N_29
    6  A    between atoms: C_18  and  N_29
                            x       y       z     vdW  Elec       q    Type
                         _______ _______ _______ _____ _____    ______ ____

>  <TORSDO>
F 6

$$$$
=
 OpenBabel11052418363D

 34 38  0  0  1  0  0  0  0  0999 V2000
  194.0870  172.9010  143.4730 C   0  0  2  0  0  3  0  0  0  0  0  0
  194.5570  175.0560  144.7540 C   0  0  1  0  0  3  0  0  0  0  0  0
  192.2430  174.0650  144.7410 C   0  0  1  0  0  3  0  0  0  0  0  0
  190.4380  175.2770  146.0150 C   0  0  2  0  0  3  0  0  0  0  0  0
  195.7040  174.9150  145.7370 C   0  0  0  0  0  1  0  0  0  0  0  0
  192.8250  175.9810  146.2690 N   0  0  0  0  0  2  0  0  0  0  0  0
  193.7410  173.7480  144.7110 C   0  0  1  0  0  3  0  0  0  0  0  0
  191.3720  172.8110  144.6340 C   0  0  1  0  0  3  0  0  0  0  0  0
  193.2150  171.6440  143.4000 C   0  0  0  0  0  2  0  0  0  0  0  0
  193.7020  176.2770  145.1300 C   0  0  0  0  0  2  0  0  0  0  0  0
  189.5420  174.0390  145.8960 C   0  0  0  0  0  2  0  0  0  0  0  0
  189.8770  173.1850  144.6670 C   0  0  1  0  0  3  0  0  0  0  0  0
  191.9120  174.8460  146.0230 C   0  0  2  0  0  3  0  0  0  0  0  0
  191.7350  172.0070  143.3860 C   0  0  0  0  0  2  0  0  0  0  0  0
  188.9060  175.7070  141.9660 C   0  0  0  0  0  0  0  0  0  0  0  0
  188.3150  174.8660  141.0190 C   0  0  0  0  0  3  0  0  0  0  0  0
  189.3450  173.7930  143.3950 C   0  0  0  0  0  0  0  0  0  0  0  0
  188.2350  173.4910  141.2580 C   0  0  0  0  0  3  0  0  0  0  0  0
  189.4180  175.1730  143.1510 C   0  0  0  0  0  3  0  0  0  0  0  0
  188.7490  172.9570  142.4440 C   0  0  0  0  0  3  0  0  0  0  0  0
  188.9870  177.0380  141.7310 F   0  0  0  0  0  0  0  0  0  0  0  0
  195.9580  171.5150  144.4850 C   0  0  0  0  0  1  0  0  0  0  0  0
  195.5680  172.5200  143.4090 C   0  0  0  0  0  2  0  0  0  0  0  0
  190.0570  176.0110  147.2920 C   0  0  0  0  0  2  0  0  0  0  0  0
  189.5460  177.3320  146.9750 N   0  0  0  0  0  2  0  0  0  0  0  0
  187.2800  176.9330  146.6030 C   0  0  0  0  0  3  0  0  0  0  0  0
  188.3860  177.4700  146.2070 N   0  0  0  0  0  0  0  0  0  0  0  0
  184.8220  178.6670  147.6390 Cl  0  0  0  0  0  0  0  0  0  0  0  0
  186.0380  177.0700  145.7870 C   0  0  1  0  0  3  0  0  0  0  0  0
  185.4210  178.4630  145.9720 C   0  0  1  0  0  3  0  0  0  0  0  0
  184.6870  178.3720  143.6390 N   0  0  0  0  0  2  0  0  0  0  0  0
  185.6950  177.3960  143.3510 C   0  0  0  0  0  3  0  0  0  0  0  0
  186.3520  176.7890  144.3400 C   0  0  0  0  0  3  0  0  0  0  0  0
  184.2510  178.6340  145.0080 C   0  0  0  0  0  2  0  0  0  0  0  0
  1 23  1  1  0  0  0
  1  7  1  0  0  0  0
  2 10  1  0  0  0  0
  2  5  1  1  0  0  0
  3 13  1  0  0  0  0
  4 13  1  0  0  0  0
  4 24  1  0  0  0  0
  7  3  1  0  0  0  0
  7  2  1  0  0  0  0
  8 12  1  0  0  0  0
  8  3  1  0  0  0  0
  9  1  1  0  0  0  0
 10  6  1  0  0  0  0
 11  4  1  0  0  0  0
 12 11  1  0  0  0  0
 13  6  1  0  0  0  0
 14  9  1  0  0  0  0
 14  8  1  0  0  0  0
 15 19  1  0  0  0  0
 16 18  1  0  0  0  0
 16 15  2  0  0  0  0
 17 12  1  0  0  0  0
 18 20  2  0  0  0  0
 19 17  2  0  0  0  0
 20 17  1  0  0  0  0
 21 15  1  0  0  0  0
 23 22  1  0  0  0  0
 25 24  1  0  0  0  0
 27 26  2  0  0  0  0
 27 25  1  0  0  0  0
 29 30  1  0  0  0  0
 29 26  1  0  0  0  0
 30 28  1  0  0  0  0
 31 34  1  0  0  0  0
 32 31  1  0  0  0  0
 32 33  2  0  0  0  0
 33 29  1  0  0  0  0
 34 30  1  0  0  0  0
M  END
>  <MODEL>
5

>  <REMARK>
 VINA RESULT:      -8.0      2.642      7.718
  Name = 
  6 active torsions:
  status: ('A' for Active; 'I' for Inactive)
    1  A    between atoms: C_1  and  C_19
    2  A    between atoms: C_3  and  C_13
    3  A    between atoms: C_5  and  C_18
    4  A    between atoms: C_12  and  C_28
    5  A    between atoms: N_17  and  N_29
    6  A    between atoms: C_18  and  N_29
                            x       y       z     vdW  Elec       q    Type
                         _______ _______ _______ _____ _____    ______ ____

>  <TORSDO>
F 6

$$$$
=
 OpenBabel11052418363D

 34 38  0  0  1  0  0  0  0  0999 V2000
  185.5960  176.9870  145.2110 C   0  0  2  0  0  3  0  0  0  0  0  0
  187.3140  177.2090  147.0830 C   0  0  1  0  0  3  0  0  0  0  0  0
  188.0640  176.9620  144.6930 C   0  0  1  0  0  3  0  0  0  0  0  0
  190.5420  176.9320  144.2360 C   0  0  2  0  0  3  0  0  0  0  0  0
  187.0880  178.4390  147.9420 C   0  0  0  0  0  1  0  0  0  0  0  0
  189.7060  177.5340  146.5160 N   0  0  0  0  0  2  0  0  0  0  0  0
  186.9790  177.5300  145.6120 C   0  0  1  0  0  3  0  0  0  0  0  0
  187.7600  177.1890  143.2100 C   0  0  1  0  0  3  0  0  0  0  0  0
  185.3090  177.2430  143.7280 C   0  0  0  0  0  2  0  0  0  0  0  0
  188.7550  176.7070  147.2680 C   0  0  0  0  0  2  0  0  0  0  0  0
  190.2560  177.1330  142.7440 C   0  0  0  0  0  2  0  0  0  0  0  0
  188.8790  176.5980  142.3310 C   0  0  1  0  0  3  0  0  0  0  0  0
  189.4230  177.5770  145.0670 C   0  0  2  0  0  3  0  0  0  0  0  0
  186.3870  176.6220  142.8490 C   0  0  0  0  0  2  0  0  0  0  0  0
  189.1670  172.8790  143.1600 C   0  0  0  0  0  0  0  0  0  0  0  0
  188.8600  172.3080  141.9220 C   0  0  0  0  0  3  0  0  0  0  0  0
  188.8700  175.0960  142.2120 C   0  0  0  0  0  0  0  0  0  0  0  0
  188.5600  173.1260  140.8290 C   0  0  0  0  0  3  0  0  0  0  0  0
  189.1740  174.2690  143.3050 C   0  0  0  0  0  3  0  0  0  0  0  0
  188.5670  174.5160  140.9750 C   0  0  0  0  0  3  0  0  0  0  0  0
  189.4520  172.0850  144.2200 F   0  0  0  0  0  0  0  0  0  0  0  0
  184.0700  178.9650  145.6650 C   0  0  0  0  0  1  0  0  0  0  0  0
  184.4630  177.5510  146.0720 C   0  0  0  0  0  2  0  0  0  0  0  0
  191.8990  177.5490  144.5410 C   0  0  0  0  0  2  0  0  0  0  0  0
  192.7180  176.6110  145.2870 N   0  0  0  0  0  2  0  0  0  0  0  0
  194.0410  174.7140  145.0020 C   0  0  0  0  0  3  0  0  0  0  0  0
  192.9150  175.3140  144.8040 N   0  0  0  0  0  0  0  0  0  0  0  0
  196.6660  173.0830  145.7570 Cl  0  0  0  0  0  0  0  0  0  0  0  0
  194.2620  173.3310  144.4860 C   0  0  1  0  0  3  0  0  0  0  0  0
  195.0060  172.4790  145.5230 C   0  0  1  0  0  3  0  0  0  0  0  0
  193.7330  170.5400  144.7410 N   0  0  0  0  0  2  0  0  0  0  0  0
  192.7200  171.4060  144.2170 C   0  0  0  0  0  3  0  0  0  0  0  0
  192.9390  172.7170  144.1070 C   0  0  0  0  0  3  0  0  0  0  0  0
  195.0750  171.0330  145.0390 C   0  0  0  0  0  2  0  0  0  0  0  0
  1  7  1  0  0  0  0
  1 23  1  1  0  0  0
  2 10  1  0  0  0  0
  2  5  1  1  0  0  0
  3 13  1  0  0  0  0
  3  7  1  0  0  0  0
  4 24  1  0  0  0  0
  4 13  1  0  0  0  0
  6 10  1  0  0  0  0
  7  2  1  0  0  0  0
  8  3  1  0  0  0  0
  9  1  1  0  0  0  0
 11  4  1  0  0  0  0
 12 11  1  0  0  0  0
 12  8  1  0  0  0  0
 13  6  1  0  0  0  0
 14  8  1  0  0  0  0
 14  9  1  0  0  0  0
 15 19  1  0  0  0  0
 15 21  1  0  0  0  0
 16 15  2  0  0  0  0
 17 12  1  0  0  0  0
 17 19  2  0  0  0  0
 18 20  2  0  0  0  0
 18 16  1  0  0  0  0
 20 17  1  0  0  0  0
 22 23  1  0  0  0  0
 24 25  1  0  0  0  0
 27 26  2  0  0  0  0
 27 25  1  0  0  0  0
 29 26  1  0  0  0  0
 29 30  1  0  0  0  0
 30 28  1  0  0  0  0
 31 34  1  0  0  0  0
 32 31  1  0  0  0  0
 33 32  2  0  0  0  0
 33 29  1  0  0  0  0
 34 30  1  0  0  0  0
M  END
>  <MODEL>
6

>  <REMARK>
 VINA RESULT:      -8.0      1.965      2.947
  Name = 
  6 active torsions:
  status: ('A' for Active; 'I' for Inactive)
    1  A    between atoms: C_1  and  C_19
    2  A    between atoms: C_3  and  C_13
    3  A    between atoms: C_5  and  C_18
    4  A    between atoms: C_12  and  C_28
    5  A    between atoms: N_17  and  N_29
    6  A    between atoms: C_18  and  N_29
                            x       y       z     vdW  Elec       q    Type
                         _______ _______ _______ _____ _____    ______ ____

>  <TORSDO>
F 6

$$$$
=
 OpenBabel11052418363D

 34 38  0  0  1  0  0  0  0  0999 V2000
  186.7550  178.3090  145.0720 C   0  0  2  0  0  3  0  0  0  0  0  0
  187.1350  178.2060  142.5520 C   0  0  1  0  0  3  0  0  0  0  0  0
  188.1590  176.4730  144.0640 C   0  0  1  0  0  3  0  0  0  0  0  0
  189.5620  174.6690  143.0010 C   0  0  2  0  0  3  0  0  0  0  0  0
  185.8380  178.2100  141.7640 C   0  0  0  0  0  1  0  0  0  0  0  0
  188.2170  176.2080  141.5590 N   0  0  0  0  0  2  0  0  0  0  0  0
  186.9550  177.3940  143.8510 C   0  0  1  0  0  3  0  0  0  0  0  0
  188.0760  175.6840  145.3720 C   0  0  1  0  0  3  0  0  0  0  0  0
  186.6550  177.4940  146.3650 C   0  0  0  0  0  2  0  0  0  0  0  0
  188.2740  177.6710  141.6700 C   0  0  0  0  0  2  0  0  0  0  0  0
  189.5110  173.8760  144.3120 C   0  0  0  0  0  2  0  0  0  0  0  0
  189.3110  174.7770  145.5380 C   0  0  1  0  0  3  0  0  0  0  0  0
  188.2910  175.5200  142.8640 C   0  0  2  0  0  3  0  0  0  0  0  0
  187.8940  176.6280  146.5610 C   0  0  0  0  0  2  0  0  0  0  0  0
  192.5620  176.7760  145.3620 C   0  0  0  0  0  0  0  0  0  0  0  0
  192.9390  176.7860  146.7080 C   0  0  0  0  0  3  0  0  0  0  0  0
  190.5790  175.4920  145.9260 C   0  0  0  0  0  0  0  0  0  0  0  0
  192.1410  176.1500  147.6630 C   0  0  0  0  0  3  0  0  0  0  0  0
  191.3870  176.1300  144.9710 C   0  0  0  0  0  3  0  0  0  0  0  0
  190.9650  175.5040  147.2710 C   0  0  0  0  0  3  0  0  0  0  0  0
  193.3340  177.3970  144.4390 F   0  0  0  0  0  0  0  0  0  0  0  0
  184.3060  178.6730  145.6350 C   0  0  0  0  0  1  0  0  0  0  0  0
  185.5380  179.2280  144.9340 C   0  0  0  0  0  2  0  0  0  0  0  0
  189.7040  173.6760  141.8570 C   0  0  0  0  0  2  0  0  0  0  0  0
  191.0830  173.6240  141.4090 N   0  0  0  0  0  2  0  0  0  0  0  0
  192.7990  173.0370  142.8730 C   0  0  0  0  0  3  0  0  0  0  0  0
  191.9630  172.6840  141.9540 N   0  0  0  0  0  0  0  0  0  0  0  0
  194.3420  173.6390  145.5890 Cl  0  0  0  0  0  0  0  0  0  0  0  0
  193.7450  172.0410  143.4560 C   0  0  1  0  0  3  0  0  0  0  0  0
  193.7010  172.0870  144.9900 C   0  0  1  0  0  3  0  0  0  0  0  0
  194.1160  169.6750  145.0060 N   0  0  0  0  0  2  0  0  0  0  0  0
  193.6160  169.5720  143.6680 C   0  0  0  0  0  3  0  0  0  0  0  0
  193.4180  170.6670  142.9320 C   0  0  0  0  0  3  0  0  0  0  0  0
  194.5510  170.9550  145.5580 C   0  0  0  0  0  2  0  0  0  0  0  0
  1 23  1  6  0  0  0
  1  9  1  0  0  0  0
  2  5  1  6  0  0  0
  2  7  1  0  0  0  0
  3  8  1  0  0  0  0
  4 11  1  0  0  0  0
  6 10  1  0  0  0  0
  6 13  1  0  0  0  0
  7  3  1  0  0  0  0
  7  1  1  0  0  0  0
  8 12  1  0  0  0  0
  8 14  1  0  0  0  0
  9 14  1  0  0  0  0
 10  2  1  0  0  0  0
 11 12  1  0  0  0  0
 12 17  1  0  0  0  0
 13  4  1  0  0  0  0
 13  3  1  0  0  0  0
 15 16  1  0  0  0  0
 16 18  2  0  0  0  0
 17 20  2  0  0  0  0
 19 15  2  0  0  0  0
 19 17  1  0  0  0  0
 20 18  1  0  0  0  0
 21 15  1  0  0  0  0
 23 22  1  0  0  0  0
 24  4  1  0  0  0  0
 25 24  1  0  0  0  0
 25 27  1  0  0  0  0
 26 29  1  0  0  0  0
 27 26  2  0  0  0  0
 29 30  1  0  0  0  0
 30 34  1  0  0  0  0
 30 28  1  0  0  0  0
 31 34  1  0  0  0  0
 32 31  1  0  0  0  0
 33 29  1  0  0  0  0
 33 32  2  0  0  0  0
M  END
>  <MODEL>
7

>  <REMARK>
 VINA RESULT:      -7.9      2.991      4.799
  Name = 
  6 active torsions:
  status: ('A' for Active; 'I' for Inactive)
    1  A    between atoms: C_1  and  C_19
    2  A    between atoms: C_3  and  C_13
    3  A    between atoms: C_5  and  C_18
    4  A    between atoms: C_12  and  C_28
    5  A    between atoms: N_17  and  N_29
    6  A    between atoms: C_18  and  N_29
                            x       y       z     vdW  Elec       q    Type
                         _______ _______ _______ _____ _____    ______ ____

>  <TORSDO>
F 6

$$$$
=
 OpenBabel11052418363D

 34 38  0  0  1  0  0  0  0  0999 V2000
  188.1160  176.9130  146.1340 C   0  0  2  0  0  3  0  0  0  0  0  0
  188.1030  177.5780  143.6720 C   0  0  1  0  0  3  0  0  0  0  0  0
  189.3340  175.5150  144.4250 C   0  0  1  0  0  3  0  0  0  0  0  0
  190.5430  174.1640  142.6750 C   0  0  2  0  0  3  0  0  0  0  0  0
  186.7010  177.7650  143.1230 C   0  0  0  0  0  1  0  0  0  0  0  0
  189.0040  176.0080  141.9760 N   0  0  0  0  0  2  0  0  0  0  0  0
  188.1180  176.4100  144.6790 C   0  0  1  0  0  3  0  0  0  0  0  0
  189.4470  174.3710  145.4340 C   0  0  1  0  0  3  0  0  0  0  0  0
  188.2100  175.7470  147.1240 C   0  0  0  0  0  2  0  0  0  0  0  0
  189.0890  177.3730  142.5110 C   0  0  0  0  0  2  0  0  0  0  0  0
  190.6890  173.0160  143.6800 C   0  0  0  0  0  2  0  0  0  0  0  0
  190.6860  173.5040  145.1350 C   0  0  1  0  0  3  0  0  0  0  0  0
  189.2730  174.9670  142.9900 C   0  0  2  0  0  3  0  0  0  0  0  0
  189.4570  174.9110  146.8640 C   0  0  0  0  0  2  0  0  0  0  0  0
  193.3100  175.8880  146.5590 C   0  0  0  0  0  0  0  0  0  0  0  0
  194.4880  175.2270  146.2030 C   0  0  0  0  0  3  0  0  0  0  0  0
  192.0040  174.1200  145.5260 C   0  0  0  0  0  0  0  0  0  0  0  0
  194.4290  174.0150  145.5090 C   0  0  0  0  0  3  0  0  0  0  0  0
  192.0710  175.3380  146.2200 C   0  0  0  0  0  3  0  0  0  0  0  0
  193.1890  173.4650  145.1700 C   0  0  0  0  0  3  0  0  0  0  0  0
  193.3680  177.0590  147.2370 F   0  0  0  0  0  0  0  0  0  0  0  0
  185.6210  176.9680  146.6040 C   0  0  0  0  0  1  0  0  0  0  0  0
  186.8990  177.7830  146.4600 C   0  0  0  0  0  2  0  0  0  0  0  0
  190.5000  173.5620  141.2780 C   0  0  0  0  0  2  0  0  0  0  0  0
  191.8250  173.1240  140.8810 N   0  0  0  0  0  2  0  0  0  0  0  0
  193.3810  174.7910  140.4000 C   0  0  0  0  0  3  0  0  0  0  0  0
  192.9460  173.8890  141.2150 N   0  0  0  0  0  0  0  0  0  0  0  0
  193.4220  176.6160  143.0050 Cl  0  0  0  0  0  0  0  0  0  0  0  0
  194.5810  175.6080  140.7460 C   0  0  1  0  0  3  0  0  0  0  0  0
  194.7570  175.6910  142.2690 C   0  0  1  0  0  3  0  0  0  0  0  0
  197.1790  175.7160  141.9190 N   0  0  0  0  0  2  0  0  0  0  0  0
  197.0080  175.1040  140.6360 C   0  0  0  0  0  3  0  0  0  0  0  0
  195.7990  175.0260  140.0770 C   0  0  0  0  0  3  0  0  0  0  0  0
  196.0730  176.3920  142.5920 C   0  0  0  0  0  2  0  0  0  0  0  0
  1 23  1  1  0  0  0
  1  9  1  0  0  0  0
  2  5  1  6  0  0  0
  2  7  1  0  0  0  0
  3  7  1  0  0  0  0
  3  8  1  0  0  0  0
  4 13  1  0  0  0  0
  4 11  1  0  0  0  0
  6 10  1  0  0  0  0
  6 13  1  0  0  0  0
  7  1  1  0  0  0  0
  8 14  1  0  0  0  0
 10  2  1  0  0  0  0
 11 12  1  0  0  0  0
 12  8  1  0  0  0  0
 12 17  1  0  0  0  0
 13  3  1  0  0  0  0
 14  9  1  0  0  0  0
 15 21  1  0  0  0  0
 16 15  2  0  0  0  0
 17 19  2  0  0  0  0
 18 16  1  0  0  0  0
 19 15  1  0  0  0  0
 20 18  2  0  0  0  0
 20 17  1  0  0  0  0
 23 22  1  0  0  0  0
 24  4  1  0  0  0  0
 25 27  1  0  0  0  0
 25 24  1  0  0  0  0
 26 29  1  0  0  0  0
 26 27  2  0  0  0  0
 29 30  1  0  0  0  0
 30 34  1  0  0  0  0
 30 28  1  0  0  0  0
 31 34  1  0  0  0  0
 32 31  1  0  0  0  0
 33 32  2  0  0  0  0
 33 29  1  0  0  0  0
M  END
>  <MODEL>
8

>  <REMARK>
 VINA RESULT:      -7.8      3.018      5.217
  Name = 
  6 active torsions:
  status: ('A' for Active; 'I' for Inactive)
    1  A    between atoms: C_1  and  C_19
    2  A    between atoms: C_3  and  C_13
    3  A    between atoms: C_5  and  C_18
    4  A    between atoms: C_12  and  C_28
    5  A    between atoms: N_17  and  N_29
    6  A    between atoms: C_18  and  N_29
                            x       y       z     vdW  Elec       q    Type
                         _______ _______ _______ _____ _____    ______ ____

>  <TORSDO>
F 6

$$$$
=
 OpenBabel11052418363D

 34 38  0  0  1  0  0  0  0  0999 V2000
  192.9940  171.5970  143.3050 C   0  0  2  0  0  3  0  0  0  0  0  0
  190.6970  171.1360  142.2980 C   0  0  1  0  0  3  0  0  0  0  0  0
  191.3260  173.4670  143.0120 C   0  0  1  0  0  3  0  0  0  0  0  0
  189.6160  175.2920  142.7050 C   0  0  2  0  0  3  0  0  0  0  0  0
  190.7770  170.4440  140.9500 C   0  0  0  0  0  1  0  0  0  0  0  0
  189.2190  173.0370  141.6990 N   0  0  0  0  0  2  0  0  0  0  0  0
  191.8510  172.1490  142.4340 C   0  0  1  0  0  3  0  0  0  0  0  0
  192.4350  174.4970  143.2350 C   0  0  1  0  0  3  0  0  0  0  0  0
  194.0990  172.6420  143.4970 C   0  0  0  0  0  2  0  0  0  0  0  0
  189.3140  171.7860  142.4630 C   0  0  0  0  0  2  0  0  0  0  0  0
  190.7080  176.3390  142.9520 C   0  0  0  0  0  2  0  0  0  0  0  0
  191.8550  175.8010  143.8180 C   0  0  1  0  0  3  0  0  0  0  0  0
  190.2390  174.0340  142.0840 C   0  0  2  0  0  3  0  0  0  0  0  0
  193.5410  173.9170  144.1160 C   0  0  0  0  0  2  0  0  0  0  0  0
  190.0310  174.9710  147.0720 C   0  0  0  0  0  0  0  0  0  0  0  0
  190.8130  175.6660  147.9980 C   0  0  0  0  0  3  0  0  0  0  0  0
  191.4770  175.7330  145.2760 C   0  0  0  0  0  0  0  0  0  0  0  0
  191.9250  176.3960  147.5670 C   0  0  0  0  0  3  0  0  0  0  0  0
  190.3600  175.0050  145.7150 C   0  0  0  0  0  3  0  0  0  0  0  0
  192.2540  176.4290  146.2080 C   0  0  0  0  0  3  0  0  0  0  0  0
  188.9570  174.2600  147.4910 F   0  0  0  0  0  0  0  0  0  0  0  0
  194.4790  170.5330  141.5420 C   0  0  0  0  0  1  0  0  0  0  0  0
  193.5870  170.2980  142.7540 C   0  0  0  0  0  2  0  0  0  0  0  0
  188.5680  175.9130  141.7940 C   0  0  0  0  0  2  0  0  0  0  0  0
  187.2440  175.7340  142.3600 N   0  0  0  0  0  2  0  0  0  0  0  0
  187.3240  177.4440  143.9410 C   0  0  0  0  0  3  0  0  0  0  0  0
  186.9450  176.2510  143.6240 N   0  0  0  0  0  0  0  0  0  0  0  0
  185.5670  180.0770  144.2620 Cl  0  0  0  0  0  0  0  0  0  0  0  0
  187.0150  178.0020  145.2900 C   0  0  1  0  0  3  0  0  0  0  0  0
  185.6150  178.6330  145.3060 C   0  0  1  0  0  3  0  0  0  0  0  0
  185.3900  177.9070  147.6330 N   0  0  0  0  0  2  0  0  0  0  0  0
  186.3880  176.9020  147.4250 C   0  0  0  0  0  3  0  0  0  0  0  0
  187.1470  176.9170  146.3270 C   0  0  0  0  0  3  0  0  0  0  0  0
  185.2610  179.0490  146.7310 C   0  0  0  0  0  2  0  0  0  0  0  0
  1 23  1  6  0  0  0
  1  9  1  0  0  0  0
  2  5  1  6  0  0  0
  2  7  1  0  0  0  0
  2 10  1  0  0  0  0
  3  8  1  0  0  0  0
  4 11  1  0  0  0  0
  6 13  1  0  0  0  0
  6 10  1  0  0  0  0
  7  3  1  0  0  0  0
  7  1  1  0  0  0  0
  8 12  1  0  0  0  0
  8 14  1  0  0  0  0
  9 14  1  0  0  0  0
 11 12  1  0  0  0  0
 12 17  1  0  0  0  0
 13  4  1  0  0  0  0
 13  3  1  0  0  0  0
 15 21  1  0  0  0  0
 15 16  1  0  0  0  0
 17 19  1  0  0  0  0
 17 20  2  0  0  0  0
 18 16  2  0  0  0  0
 19 15  2  0  0  0  0
 20 18  1  0  0  0  0
 22 23  1  0  0  0  0
 24 25  1  0  0  0  0
 24  4  1  0  0  0  0
 25 27  1  0  0  0  0
 26 29  1  0  0  0  0
 27 26  2  0  0  0  0
 28 30  1  0  0  0  0
 29 30  1  0  0  0  0
 29 33  1  0  0  0  0
 30 34  1  0  0  0  0
 32 31  1  0  0  0  0
 33 32  2  0  0  0  0
 34 31  1  0  0  0  0
M  END
>  <MODEL>
9

>  <REMARK>
 VINA RESULT:      -7.7      3.396      7.841
  Name = 
  6 active torsions:
  status: ('A' for Active; 'I' for Inactive)
    1  A    between atoms: C_1  and  C_19
    2  A    between atoms: C_3  and  C_13
    3  A    between atoms: C_5  and  C_18
    4  A    between atoms: C_12  and  C_28
    5  A    between atoms: N_17  and  N_29
    6  A    between atoms: C_18  and  N_29
                            x       y       z     vdW  Elec       q    Type
                         _______ _______ _______ _____ _____    ______ ____

>  <TORSDO>
F 6

$$$$
