=
 OpenBabel11052417363D

 25 28  0  0  0  0  0  0  0  0999 V2000
  189.0490  176.7000  144.2710 C   0  0  0  0  0  0  0  0  0  0  0  0
  188.0040  177.6180  144.3630 C   0  0  0  0  0  3  0  0  0  0  0  0
  188.8310  175.8020  141.8950 C   0  0  0  0  0  3  0  0  0  0  0  0
  189.9060  176.4820  145.3670 C   0  0  0  0  0  0  0  0  0  0  0  0
  191.7770  175.8240  147.3370 C   0  0  0  0  0  3  0  0  0  0  0  0
  187.7320  176.4740  141.3770 C   0  0  0  0  0  3  0  0  0  0  0  0
  190.9000  175.5480  145.1260 C   0  0  0  0  0  0  0  0  0  0  0  0
  191.8470  175.1970  146.0850 C   0  0  0  0  0  3  0  0  0  0  0  0
  185.8620  178.0750  141.5120 C   0  0  0  0  0  0  0  0  0  0  0  0
  185.3850  177.9000  140.3240 N   0  0  0  0  0  2  0  0  0  0  0  0
  187.0910  177.9520  143.3790 C   0  0  0  0  0  0  0  0  0  0  0  0
  190.7750  176.7750  147.6030 C   0  0  0  0  0  3  0  0  0  0  0  0
  189.4050  175.9030  143.1600 C   0  0  0  0  0  0  0  0  0  0  0  0
  190.7530  174.9670  143.5660 S   0  0  0  0  0  0  0  0  0  0  0  0
  185.3430  178.9110  142.3810 O   0  0  0  0  0  0  0  0  0  0  0  0
  189.8330  177.1110  146.6180 C   0  0  0  0  0  3  0  0  0  0  0  0
  186.0470  178.8680  143.4910 C   0  0  0  0  0  0  0  0  0  0  0  0
  186.9630  177.4210  142.0320 C   0  0  0  0  0  0  0  0  0  0  0  0
  185.7210  179.6700  144.6330 N   0  0  0  0  0  2  0  0  0  0  0  0
  184.7930  179.2750  145.6840 C   0  0  0  0  0  2  0  0  0  0  0  0
  185.6420  177.3080  146.9990 C   0  0  0  0  0  0  0  0  0  0  0  0
  186.2570  176.8430  147.9960 O   0  0  0  0  0  0  0  0  0  0  0  0
  185.0630  176.4100  146.0560 N   0  0  0  0  0  1  0  0  0  0  0  0
  186.1260  179.6420  147.7740 C   0  0  0  0  0  1  0  0  0  0  0  0
  185.5290  178.7260  146.8150 N   0  0  0  0  0  0  0  0  0  0  0  0
  1  2  2  0  0  0  0
  1  4  1  0  0  0  0
  3 13  2  0  0  0  0
  4 16  1  0  0  0  0
  5 12  1  0  0  0  0
  6  3  1  0  0  0  0
  6 18  2  0  0  0  0
  7  4  2  0  0  0  0
  7  8  1  0  0  0  0
  8  5  2  0  0  0  0
  9 18  1  0  0  0  0
  9 15  1  0  0  0  0
 10  9  2  0  0  0  0
 11 17  2  0  0  0  0
 11  2  1  0  0  0  0
 13 14  1  0  0  0  0
 13  1  1  0  0  0  0
 14  7  1  0  0  0  0
 15 17  1  0  0  0  0
 16 12  2  0  0  0  0
 17 19  1  0  0  0  0
 18 11  1  0  0  0  0
 19 20  1  0  0  0  0
 20 25  1  0  0  0  0
 21 22  2  0  0  0  0
 23 21  1  0  0  0  0
 25 21  1  0  0  0  0
 25 24  1  0  0  0  0
M  END
>  <MODEL>
1

>  <REMARK>
 VINA RESULT:      -7.6      0.000      0.000
  Name = 
  3 active torsions:
  status: ('A' for Active; 'I' for Inactive)
    1  A    between atoms: N_6  and  C_15
    2  A    between atoms: N_6  and  C_23
    3  A    between atoms: C_15  and  N_25
                            x       y       z     vdW  Elec       q    Type
                         _______ _______ _______ _____ _____    ______ ____

>  <TORSDO>
F 3

$$$$
=
 OpenBabel11052417363D

 25 28  0  0  0  0  0  0  0  0999 V2000
  187.1950  176.6160  144.4950 C   0  0  0  0  0  0  0  0  0  0  0  0
  188.3800  175.9620  144.8290 C   0  0  0  0  0  3  0  0  0  0  0  0
  187.0350  176.2800  141.9720 C   0  0  0  0  0  3  0  0  0  0  0  0
  186.4240  177.2480  145.4890 C   0  0  0  0  0  0  0  0  0  0  0  0
  184.6680  178.5840  147.2060 C   0  0  0  0  0  3  0  0  0  0  0  0
  188.1730  175.5520  141.6530 C   0  0  0  0  0  3  0  0  0  0  0  0
  185.2720  177.8490  145.0080 C   0  0  0  0  0  0  0  0  0  0  0  0
  184.3770  178.5230  145.8360 C   0  0  0  0  0  3  0  0  0  0  0  0
  190.2830  174.4050  142.2080 C   0  0  0  0  0  0  0  0  0  0  0  0
  190.6090  174.0340  141.0140 N   0  0  0  0  0  2  0  0  0  0  0  0
  189.2360  175.2870  143.9780 C   0  0  0  0  0  0  0  0  0  0  0  0
  185.8320  177.9810  147.7150 C   0  0  0  0  0  3  0  0  0  0  0  0
  186.6090  176.7420  143.2150 C   0  0  0  0  0  0  0  0  0  0  0  0
  185.1720  177.6210  143.3560 S   0  0  0  0  0  0  0  0  0  0  0  0
  191.0120  174.1440  143.2680 O   0  0  0  0  0  0  0  0  0  0  0  0
  186.7170  177.3070  146.8580 C   0  0  0  0  0  3  0  0  0  0  0  0
  190.4210  174.6450  144.3300 C   0  0  0  0  0  0  0  0  0  0  0  0
  189.1460  175.1160  142.5370 C   0  0  0  0  0  0  0  0  0  0  0  0
  190.9810  174.5260  145.6430 N   0  0  0  0  0  2  0  0  0  0  0  0
  192.4070  174.5470  145.9390 C   0  0  0  0  0  2  0  0  0  0  0  0
  194.0800  176.3600  146.4240 C   0  0  0  0  0  0  0  0  0  0  0  0
  194.3860  177.4390  146.9990 O   0  0  0  0  0  0  0  0  0  0  0  0
  195.0540  175.6950  145.6240 N   0  0  0  0  0  1  0  0  0  0  0  0
  191.7680  176.4930  147.3840 C   0  0  0  0  0  1  0  0  0  0  0  0
  192.7630  175.8090  146.5730 N   0  0  0  0  0  0  0  0  0  0  0  0
  1  2  2  0  0  0  0
  1  4  1  0  0  0  0
  3 13  2  0  0  0  0
  4 16  1  0  0  0  0
  5 12  1  0  0  0  0
  6  3  1  0  0  0  0
  6 18  2  0  0  0  0
  7  4  2  0  0  0  0
  7  8  1  0  0  0  0
  8  5  2  0  0  0  0
  9 18  1  0  0  0  0
  9 15  1  0  0  0  0
 10  9  2  0  0  0  0
 11 17  2  0  0  0  0
 11  2  1  0  0  0  0
 13 14  1  0  0  0  0
 13  1  1  0  0  0  0
 14  7  1  0  0  0  0
 15 17  1  0  0  0  0
 16 12  2  0  0  0  0
 17 19  1  0  0  0  0
 18 11  1  0  0  0  0
 19 20  1  0  0  0  0
 20 25  1  0  0  0  0
 21 25  1  0  0  0  0
 21 22  2  0  0  0  0
 23 21  1  0  0  0  0
 25 24  1  0  0  0  0
M  END
>  <MODEL>
2

>  <REMARK>
 VINA RESULT:      -7.4      4.159      6.129
  Name = 
  3 active torsions:
  status: ('A' for Active; 'I' for Inactive)
    1  A    between atoms: N_6  and  C_15
    2  A    between atoms: N_6  and  C_23
    3  A    between atoms: C_15  and  N_25
                            x       y       z     vdW  Elec       q    Type
                         _______ _______ _______ _____ _____    ______ ____

>  <TORSDO>
F 3

$$$$
=
 OpenBabel11052417363D

 25 28  0  0  0  0  0  0  0  0999 V2000
  186.6890  176.6030  143.5730 C   0  0  0  0  0  0  0  0  0  0  0  0
  187.6660  175.6530  143.8680 C   0  0  0  0  0  3  0  0  0  0  0  0
  186.7900  176.7720  141.0310 C   0  0  0  0  0  3  0  0  0  0  0  0
  185.9390  177.1990  144.6050 C   0  0  0  0  0  0  0  0  0  0  0  0
  184.2810  178.5570  146.4000 C   0  0  0  0  0  3  0  0  0  0  0  0
  187.7910  175.8810  140.6700 C   0  0  0  0  0  3  0  0  0  0  0  0
  185.0020  178.1170  144.1580 C   0  0  0  0  0  0  0  0  0  0  0  0
  184.1620  178.8110  145.0260 C   0  0  0  0  0  3  0  0  0  0  0  0
  189.5400  174.2140  141.1590 C   0  0  0  0  0  0  0  0  0  0  0  0
  189.9350  174.0020  139.9470 N   0  0  0  0  0  2  0  0  0  0  0  0
  188.4720  174.9710  142.9740 C   0  0  0  0  0  0  0  0  0  0  0  0
  185.2260  177.6290  146.8730 C   0  0  0  0  0  3  0  0  0  0  0  0
  186.3100  177.0850  142.3000 C   0  0  0  0  0  0  0  0  0  0  0  0
  185.0720  178.2200  142.4920 S   0  0  0  0  0  0  0  0  0  0  0  0
  190.0600  173.6100  142.2020 O   0  0  0  0  0  0  0  0  0  0  0  0
  186.0610  176.9430  145.9770 C   0  0  0  0  0  3  0  0  0  0  0  0
  189.4490  174.0290  143.2890 C   0  0  0  0  0  0  0  0  0  0  0  0
  188.5350  175.0880  141.5270 C   0  0  0  0  0  0  0  0  0  0  0  0
  189.8010  173.5530  144.5940 N   0  0  0  0  0  2  0  0  0  0  0  0
  190.7580  174.2010  145.4810 C   0  0  0  0  0  2  0  0  0  0  0  0
  190.3160  176.5820  146.1540 C   0  0  0  0  0  0  0  0  0  0  0  0
  189.7410  177.4180  146.9020 O   0  0  0  0  0  0  0  0  0  0  0  0
  191.2040  177.0480  145.1420 N   0  0  0  0  0  1  0  0  0  0  0  0
  189.1630  174.7030  147.3470 C   0  0  0  0  0  1  0  0  0  0  0  0
  190.0760  175.1780  146.3190 N   0  0  0  0  0  0  0  0  0  0  0  0
  1  2  2  0  0  0  0
  1  4  1  0  0  0  0
  3 13  2  0  0  0  0
  4 16  1  0  0  0  0
  5 12  1  0  0  0  0
  6  3  1  0  0  0  0
  6 18  2  0  0  0  0
  7  4  2  0  0  0  0
  7  8  1  0  0  0  0
  8  5  2  0  0  0  0
  9 18  1  0  0  0  0
  9 15  1  0  0  0  0
 10  9  2  0  0  0  0
 11 17  2  0  0  0  0
 11  2  1  0  0  0  0
 13 14  1  0  0  0  0
 13  1  1  0  0  0  0
 14  7  1  0  0  0  0
 15 17  1  0  0  0  0
 16 12  2  0  0  0  0
 17 19  1  0  0  0  0
 18 11  1  0  0  0  0
 19 20  1  0  0  0  0
 20 25  1  0  0  0  0
 21 25  1  0  0  0  0
 21 22  2  0  0  0  0
 23 21  1  0  0  0  0
 25 24  1  0  0  0  0
M  END
>  <MODEL>
3

>  <REMARK>
 VINA RESULT:      -7.3      3.329      5.455
  Name = 
  3 active torsions:
  status: ('A' for Active; 'I' for Inactive)
    1  A    between atoms: N_6  and  C_15
    2  A    between atoms: N_6  and  C_23
    3  A    between atoms: C_15  and  N_25
                            x       y       z     vdW  Elec       q    Type
                         _______ _______ _______ _____ _____    ______ ____

>  <TORSDO>
F 3

$$$$
=
 OpenBabel11052417363D

 25 28  0  0  0  0  0  0  0  0999 V2000
  186.8720  177.6780  143.9240 C   0  0  0  0  0  0  0  0  0  0  0  0
  188.2070  177.3640  143.6760 C   0  0  0  0  0  3  0  0  0  0  0  0
  186.7600  177.7800  146.4700 C   0  0  0  0  0  3  0  0  0  0  0  0
  185.9700  177.8540  142.8570 C   0  0  0  0  0  0  0  0  0  0  0  0
  183.9390  178.2750  140.9830 C   0  0  0  0  0  3  0  0  0  0  0  0
  188.0530  177.4860  146.8790 C   0  0  0  0  0  3  0  0  0  0  0  0
  184.6820  178.1690  143.2570 C   0  0  0  0  0  0  0  0  0  0  0  0
  183.6470  178.3840  142.3500 C   0  0  0  0  0  3  0  0  0  0  0  0
  190.4150  176.9100  146.4760 C   0  0  0  0  0  0  0  0  0  0  0  0
  190.7980  176.8330  147.7080 N   0  0  0  0  0  2  0  0  0  0  0  0
  189.2120  177.1730  144.6070 C   0  0  0  0  0  0  0  0  0  0  0  0
  185.2400  177.9560  140.5560 C   0  0  0  0  0  3  0  0  0  0  0  0
  186.2460  177.8650  145.1770 C   0  0  0  0  0  0  0  0  0  0  0  0
  184.6170  178.2380  144.9260 S   0  0  0  0  0  0  0  0  0  0  0  0
  191.2170  176.6990  145.4580 O   0  0  0  0  0  0  0  0  0  0  0  0
  186.2650  177.7440  141.4910 C   0  0  0  0  0  3  0  0  0  0  0  0
  190.5410  176.8520  144.3400 C   0  0  0  0  0  0  0  0  0  0  0  0
  189.1350  177.2150  146.0580 C   0  0  0  0  0  0  0  0  0  0  0  0
  191.1460  176.6810  143.0530 N   0  0  0  0  0  2  0  0  0  0  0  0
  191.5790  175.4030  142.5050 C   0  0  0  0  0  2  0  0  0  0  0  0
  190.4030  173.4000  143.4660 C   0  0  0  0  0  0  0  0  0  0  0  0
  189.4510  172.5740  143.4380 O   0  0  0  0  0  0  0  0  0  0  0  0
  191.4110  173.2680  144.4640 N   0  0  0  0  0  1  0  0  0  0  0  0
  189.4350  174.5990  141.4890 C   0  0  0  0  0  1  0  0  0  0  0  0
  190.4680  174.4610  142.5030 N   0  0  0  0  0  0  0  0  0  0  0  0
  1 13  1  0  0  0  0
  2  1  2  0  0  0  0
  2 11  1  0  0  0  0
  3  6  1  0  0  0  0
  4  7  1  0  0  0  0
  4  1  1  0  0  0  0
  5  8  1  0  0  0  0
  7 14  1  0  0  0  0
  8  7  2  0  0  0  0
  9 10  2  0  0  0  0
 11 18  1  0  0  0  0
 12  5  2  0  0  0  0
 12 16  1  0  0  0  0
 13  3  2  0  0  0  0
 14 13  1  0  0  0  0
 15  9  1  0  0  0  0
 16  4  2  0  0  0  0
 17 11  2  0  0  0  0
 17 15  1  0  0  0  0
 18  9  1  0  0  0  0
 18  6  2  0  0  0  0
 19 17  1  0  0  0  0
 20 19  1  0  0  0  0
 21 23  1  0  0  0  0
 22 21  2  0  0  0  0
 24 25  1  0  0  0  0
 25 20  1  0  0  0  0
 25 21  1  0  0  0  0
M  END
>  <MODEL>
4

>  <REMARK>
 VINA RESULT:      -7.2      3.696      6.819
  Name = 
  3 active torsions:
  status: ('A' for Active; 'I' for Inactive)
    1  A    between atoms: N_6  and  C_15
    2  A    between atoms: N_6  and  C_23
    3  A    between atoms: C_15  and  N_25
                            x       y       z     vdW  Elec       q    Type
                         _______ _______ _______ _____ _____    ______ ____

>  <TORSDO>
F 3

$$$$
=
 OpenBabel11052417363D

 25 28  0  0  0  0  0  0  0  0999 V2000
  187.8760  177.4260  143.8090 C   0  0  0  0  0  0  0  0  0  0  0  0
  189.2420  177.1630  143.7280 C   0  0  0  0  0  3  0  0  0  0  0  0
  187.4480  177.5220  146.3220 C   0  0  0  0  0  3  0  0  0  0  0  0
  187.1060  177.5700  142.6390 C   0  0  0  0  0  0  0  0  0  0  0  0
  185.3060  177.9170  140.5290 C   0  0  0  0  0  3  0  0  0  0  0  0
  188.6920  177.2750  146.8870 C   0  0  0  0  0  3  0  0  0  0  0  0
  185.7670  177.8370  142.8780 C   0  0  0  0  0  0  0  0  0  0  0  0
  184.8450  178.0140  141.8490 C   0  0  0  0  0  3  0  0  0  0  0  0
  191.1060  176.7880  146.7790 C   0  0  0  0  0  0  0  0  0  0  0  0
  191.3370  176.7250  148.0490 N   0  0  0  0  0  2  0  0  0  0  0  0
  190.1320  177.0090  144.7760 C   0  0  0  0  0  0  0  0  0  0  0  0
  186.6610  177.6470  140.2650 C   0  0  0  0  0  3  0  0  0  0  0  0
  187.0950  177.5880  144.9760 C   0  0  0  0  0  0  0  0  0  0  0  0
  185.4960  177.9010  144.5250 S   0  0  0  0  0  0  0  0  0  0  0  0
  192.0330  176.6090  145.8680 O   0  0  0  0  0  0  0  0  0  0  0  0
  187.5700  177.4730  141.3200 C   0  0  0  0  0  3  0  0  0  0  0  0
  191.4950  176.7380  144.6750 C   0  0  0  0  0  0  0  0  0  0  0  0
  189.8750  177.0460  146.2060 C   0  0  0  0  0  0  0  0  0  0  0  0
  192.2590  176.5910  143.4720 N   0  0  0  0  0  2  0  0  0  0  0  0
  193.1870  175.5000  143.2100 C   0  0  0  0  0  2  0  0  0  0  0  0
  195.5200  176.2000  143.8320 C   0  0  0  0  0  0  0  0  0  0  0  0
  196.6370  176.6890  143.5110 O   0  0  0  0  0  0  0  0  0  0  0  0
  195.2910  175.8120  145.1840 N   0  0  0  0  0  1  0  0  0  0  0  0
  194.7290  176.4240  141.4640 C   0  0  0  0  0  1  0  0  0  0  0  0
  194.4920  176.0350  142.8450 N   0  0  0  0  0  0  0  0  0  0  0  0
  1 13  1  0  0  0  0
  2  1  2  0  0  0  0
  2 11  1  0  0  0  0
  3  6  1  0  0  0  0
  4  7  1  0  0  0  0
  4  1  1  0  0  0  0
  5  8  1  0  0  0  0
  7 14  1  0  0  0  0
  8  7  2  0  0  0  0
  9 10  2  0  0  0  0
 11 18  1  0  0  0  0
 12  5  2  0  0  0  0
 12 16  1  0  0  0  0
 13  3  2  0  0  0  0
 14 13  1  0  0  0  0
 15  9  1  0  0  0  0
 16  4  2  0  0  0  0
 17 11  2  0  0  0  0
 17 15  1  0  0  0  0
 18  9  1  0  0  0  0
 18  6  2  0  0  0  0
 19 17  1  0  0  0  0
 20 19  1  0  0  0  0
 21 23  1  0  0  0  0
 22 21  2  0  0  0  0
 24 25  1  0  0  0  0
 25 20  1  0  0  0  0
 25 21  1  0  0  0  0
M  END
>  <MODEL>
5

>  <REMARK>
 VINA RESULT:      -7.0      4.776      7.585
  Name = 
  3 active torsions:
  status: ('A' for Active; 'I' for Inactive)
    1  A    between atoms: N_6  and  C_15
    2  A    between atoms: N_6  and  C_23
    3  A    between atoms: C_15  and  N_25
                            x       y       z     vdW  Elec       q    Type
                         _______ _______ _______ _____ _____    ______ ____

>  <TORSDO>
F 3

$$$$
=
 OpenBabel11052417363D

 25 28  0  0  0  0  0  0  0  0999 V2000
  185.9380  177.4260  143.8410 C   0  0  0  0  0  0  0  0  0  0  0  0
  186.8770  176.5990  143.2260 C   0  0  0  0  0  3  0  0  0  0  0  0
  184.7090  178.4790  141.8700 C   0  0  0  0  0  3  0  0  0  0  0  0
  185.8650  177.5020  145.2450 C   0  0  0  0  0  0  0  0  0  0  0  0
  185.4530  177.8750  147.9850 C   0  0  0  0  0  3  0  0  0  0  0  0
  185.3310  177.9370  140.7540 C   0  0  0  0  0  3  0  0  0  0  0  0
  184.8790  178.3580  145.7100 C   0  0  0  0  0  0  0  0  0  0  0  0
  184.6490  178.5670  147.0680 C   0  0  0  0  0  3  0  0  0  0  0  0
  186.9930  176.5010  139.6350 C   0  0  0  0  0  0  0  0  0  0  0  0
  186.6890  176.7880  138.4120 N   0  0  0  0  0  2  0  0  0  0  0  0
  187.0650  176.4050  141.8700 C   0  0  0  0  0  0  0  0  0  0  0  0
  186.4580  177.0020  147.5340 C   0  0  0  0  0  3  0  0  0  0  0  0
  184.9760  178.2520  143.2190 C   0  0  0  0  0  0  0  0  0  0  0  0
  184.0760  179.0410  144.4140 S   0  0  0  0  0  0  0  0  0  0  0  0
  187.9490  175.6640  139.9630 O   0  0  0  0  0  0  0  0  0  0  0  0
  186.6700  176.8090  146.1590 C   0  0  0  0  0  3  0  0  0  0  0  0
  188.0150  175.5790  141.2730 C   0  0  0  0  0  0  0  0  0  0  0  0
  186.3720  177.0240  140.7530 C   0  0  0  0  0  0  0  0  0  0  0  0
  188.9700  174.7420  141.9370 N   0  0  0  0  0  2  0  0  0  0  0  0
  190.2820  175.1830  142.3910 C   0  0  0  0  0  2  0  0  0  0  0  0
  190.3970  176.8490  144.2700 C   0  0  0  0  0  0  0  0  0  0  0  0
  190.3820  177.1090  145.5030 O   0  0  0  0  0  0  0  0  0  0  0  0
  190.5750  177.9110  143.3360 N   0  0  0  0  0  1  0  0  0  0  0  0
  190.0460  174.4180  144.7660 C   0  0  0  0  0  1  0  0  0  0  0  0
  190.2350  175.4990  143.8120 N   0  0  0  0  0  0  0  0  0  0  0  0
  1  4  1  0  0  0  0
  2  1  2  0  0  0  0
  3 13  2  0  0  0  0
  4  7  2  0  0  0  0
  4 16  1  0  0  0  0
  6  3  1  0  0  0  0
  7  8  1  0  0  0  0
  8  5  2  0  0  0  0
  9 15  1  0  0  0  0
  9 18  1  0  0  0  0
 10  9  2  0  0  0  0
 11  2  1  0  0  0  0
 12  5  1  0  0  0  0
 13  1  1  0  0  0  0
 13 14  1  0  0  0  0
 14  7  1  0  0  0  0
 15 17  1  0  0  0  0
 16 12  2  0  0  0  0
 17 11  2  0  0  0  0
 17 19  1  0  0  0  0
 18  6  2  0  0  0  0
 18 11  1  0  0  0  0
 19 20  1  0  0  0  0
 20 25  1  0  0  0  0
 21 22  2  0  0  0  0
 23 21  1  0  0  0  0
 25 21  1  0  0  0  0
 25 24  1  0  0  0  0
M  END
>  <MODEL>
6

>  <REMARK>
 VINA RESULT:      -7.0      3.300      5.228
  Name = 
  3 active torsions:
  status: ('A' for Active; 'I' for Inactive)
    1  A    between atoms: N_6  and  C_15
    2  A    between atoms: N_6  and  C_23
    3  A    between atoms: C_15  and  N_25
                            x       y       z     vdW  Elec       q    Type
                         _______ _______ _______ _____ _____    ______ ____

>  <TORSDO>
F 3

$$$$
=
 OpenBabel11052417363D

 25 28  0  0  0  0  0  0  0  0999 V2000
  187.3090  176.5460  144.9680 C   0  0  0  0  0  0  0  0  0  0  0  0
  187.9420  175.9960  143.8540 C   0  0  0  0  0  3  0  0  0  0  0  0
  188.7020  175.6740  146.9190 C   0  0  0  0  0  3  0  0  0  0  0  0
  186.1760  177.3670  144.8120 C   0  0  0  0  0  0  0  0  0  0  0  0
  183.9300  179.0310  144.8520 C   0  0  0  0  0  3  0  0  0  0  0  0
  189.6820  174.8970  146.3160 C   0  0  0  0  0  3  0  0  0  0  0  0
  185.6620  177.8450  146.0060 C   0  0  0  0  0  0  0  0  0  0  0  0
  184.5450  178.6750  146.0610 C   0  0  0  0  0  3  0  0  0  0  0  0
  190.8110  173.8920  144.3690 C   0  0  0  0  0  0  0  0  0  0  0  0
  191.7260  173.2390  145.0050 N   0  0  0  0  0  2  0  0  0  0  0  0
  189.0640  175.1860  143.8390 C   0  0  0  0  0  0  0  0  0  0  0  0
  184.4370  178.5560  143.6290 C   0  0  0  0  0  3  0  0  0  0  0  0
  187.6670  176.3950  146.3270 C   0  0  0  0  0  0  0  0  0  0  0  0
  186.5810  177.2740  147.2790 S   0  0  0  0  0  0  0  0  0  0  0  0
  190.6950  173.8820  143.0610 O   0  0  0  0  0  0  0  0  0  0  0  0
  185.5650  177.7210  143.6020 C   0  0  0  0  0  3  0  0  0  0  0  0
  189.6780  174.6390  142.7140 C   0  0  0  0  0  0  0  0  0  0  0  0
  189.8400  174.6790  144.9580 C   0  0  0  0  0  0  0  0  0  0  0  0
  189.2940  174.8230  141.3460 N   0  0  0  0  0  2  0  0  0  0  0  0
  188.4330  173.9170  140.5990 C   0  0  0  0  0  2  0  0  0  0  0  0
  188.8270  173.8060  138.1180 C   0  0  0  0  0  0  0  0  0  0  0  0
  189.4360  173.3170  137.1290 O   0  0  0  0  0  0  0  0  0  0  0  0
  187.8130  174.7830  137.9000 N   0  0  0  0  0  1  0  0  0  0  0  0
  190.1920  172.3900  139.6730 C   0  0  0  0  0  1  0  0  0  0  0  0
  189.1520  173.3830  139.4500 N   0  0  0  0  0  0  0  0  0  0  0  0
  1 13  1  0  0  0  0
  2  1  2  0  0  0  0
  4  1  1  0  0  0  0
  4  7  1  0  0  0  0
  5  8  1  0  0  0  0
  6  3  1  0  0  0  0
  7  8  2  0  0  0  0
  7 14  1  0  0  0  0
  9 18  1  0  0  0  0
  9 10  2  0  0  0  0
 11  2  1  0  0  0  0
 11 18  1  0  0  0  0
 12  5  2  0  0  0  0
 13  3  2  0  0  0  0
 13 14  1  0  0  0  0
 15  9  1  0  0  0  0
 16 12  1  0  0  0  0
 16  4  2  0  0  0  0
 17 15  1  0  0  0  0
 17 11  2  0  0  0  0
 18  6  2  0  0  0  0
 19 17  1  0  0  0  0
 20 19  1  0  0  0  0
 21 25  1  0  0  0  0
 22 21  2  0  0  0  0
 23 21  1  0  0  0  0
 25 24  1  0  0  0  0
 25 20  1  0  0  0  0
M  END
>  <MODEL>
7

>  <REMARK>
 VINA RESULT:      -6.8      3.900      7.242
  Name = 
  3 active torsions:
  status: ('A' for Active; 'I' for Inactive)
    1  A    between atoms: N_6  and  C_15
    2  A    between atoms: N_6  and  C_23
    3  A    between atoms: C_15  and  N_25
                            x       y       z     vdW  Elec       q    Type
                         _______ _______ _______ _____ _____    ______ ____

>  <TORSDO>
F 3

$$$$
=
 OpenBabel11052417363D

 25 28  0  0  0  0  0  0  0  0999 V2000
  192.0800  176.2690  144.7220 C   0  0  0  0  0  0  0  0  0  0  0  0
  190.8330  176.3800  144.1070 C   0  0  0  0  0  3  0  0  0  0  0  0
  191.4980  176.1460  147.2010 C   0  0  0  0  0  3  0  0  0  0  0  0
  193.2570  176.2470  143.9500 C   0  0  0  0  0  0  0  0  0  0  0  0
  195.7660  176.1680  142.7190 C   0  0  0  0  0  3  0  0  0  0  0  0
  190.1130  176.2350  147.2300 C   0  0  0  0  0  3  0  0  0  0  0  0
  194.4170  176.1260  144.6980 C   0  0  0  0  0  0  0  0  0  0  0  0
  195.6820  176.0840  144.1170 C   0  0  0  0  0  3  0  0  0  0  0  0
  187.8950  176.4510  146.1760 C   0  0  0  0  0  0  0  0  0  0  0  0
  187.1800  176.4500  147.2530 N   0  0  0  0  0  2  0  0  0  0  0  0
  189.5930  176.4020  144.7190 C   0  0  0  0  0  0  0  0  0  0  0  0
  194.6010  176.2920  141.9420 C   0  0  0  0  0  3  0  0  0  0  0  0
  192.3550  176.1600  146.1030 C   0  0  0  0  0  0  0  0  0  0  0  0
  194.0280  176.0420  146.3200 S   0  0  0  0  0  0  0  0  0  0  0  0
  187.3840  176.5530  144.9720 O   0  0  0  0  0  0  0  0  0  0  0  0
  193.3380  176.3320  142.5530 C   0  0  0  0  0  3  0  0  0  0  0  0
  188.3570  176.5210  144.0880 C   0  0  0  0  0  0  0  0  0  0  0  0
  189.2720  176.3500  146.1360 C   0  0  0  0  0  0  0  0  0  0  0  0
  188.1130  176.6170  142.6800 N   0  0  0  0  0  2  0  0  0  0  0  0
  188.0320  177.8680  141.9370 C   0  0  0  0  0  2  0  0  0  0  0  0
  185.9430  177.9150  140.5390 C   0  0  0  0  0  0  0  0  0  0  0  0
  184.7450  178.2690  140.3760 O   0  0  0  0  0  0  0  0  0  0  0  0
  186.5990  177.1810  139.5090 N   0  0  0  0  0  1  0  0  0  0  0  0
  185.9650  178.9870  142.8050 C   0  0  0  0  0  1  0  0  0  0  0  0
  186.6370  178.2450  141.7510 N   0  0  0  0  0  0  0  0  0  0  0  0
  1 13  1  0  0  0  0
  2 11  1  0  0  0  0
  2  1  2  0  0  0  0
  3  6  1  0  0  0  0
  4  7  1  0  0  0  0
  4  1  1  0  0  0  0
  5  8  1  0  0  0  0
  7 14  1  0  0  0  0
  8  7  2  0  0  0  0
  9 10  2  0  0  0  0
 11 18  1  0  0  0  0
 12 16  1  0  0  0  0
 12  5  2  0  0  0  0
 13 14  1  0  0  0  0
 13  3  2  0  0  0  0
 15  9  1  0  0  0  0
 16  4  2  0  0  0  0
 17 11  2  0  0  0  0
 17 15  1  0  0  0  0
 18  9  1  0  0  0  0
 18  6  2  0  0  0  0
 19 17  1  0  0  0  0
 20 19  1  0  0  0  0
 21 25  1  0  0  0  0
 22 21  2  0  0  0  0
 23 21  1  0  0  0  0
 25 20  1  0  0  0  0
 25 24  1  0  0  0  0
M  END
>  <MODEL>
8

>  <REMARK>
 VINA RESULT:      -6.7      2.671      5.223
  Name = 
  3 active torsions:
  status: ('A' for Active; 'I' for Inactive)
    1  A    between atoms: N_6  and  C_15
    2  A    between atoms: N_6  and  C_23
    3  A    between atoms: C_15  and  N_25
                            x       y       z     vdW  Elec       q    Type
                         _______ _______ _______ _____ _____    ______ ____

>  <TORSDO>
F 3

$$$$
=
 OpenBabel11052417363D

 25 28  0  0  0  0  0  0  0  0999 V2000
  187.0050  176.8810  142.7840 C   0  0  0  0  0  0  0  0  0  0  0  0
  187.3670  176.5050  144.0770 C   0  0  0  0  0  3  0  0  0  0  0  0
  185.5990  178.9760  143.1570 C   0  0  0  0  0  3  0  0  0  0  0  0
  187.4350  176.1270  141.6760 C   0  0  0  0  0  0  0  0  0  0  0  0
  188.1210  174.8660  139.2770 C   0  0  0  0  0  3  0  0  0  0  0  0
  185.5880  179.1360  144.5360 C   0  0  0  0  0  3  0  0  0  0  0  0
  187.0040  176.6260  140.4570 C   0  0  0  0  0  0  0  0  0  0  0  0
  187.3270  176.0220  139.2440 C   0  0  0  0  0  3  0  0  0  0  0  0
  186.1920  178.4870  146.8360 C   0  0  0  0  0  0  0  0  0  0  0  0
  185.5660  179.4280  147.4620 N   0  0  0  0  0  2  0  0  0  0  0  0
  187.0390  177.1420  145.2600 C   0  0  0  0  0  0  0  0  0  0  0  0
  188.5680  174.3430  140.5030 C   0  0  0  0  0  3  0  0  0  0  0  0
  186.2210  177.9890  142.3940 C   0  0  0  0  0  0  0  0  0  0  0  0
  186.0870  178.0000  140.7090 S   0  0  0  0  0  0  0  0  0  0  0  0
  186.8850  177.5540  147.4450 O   0  0  0  0  0  0  0  0  0  0  0  0
  188.2280  174.9720  141.7110 C   0  0  0  0  0  3  0  0  0  0  0  0
  187.4030  176.7470  146.5450 C   0  0  0  0  0  0  0  0  0  0  0  0
  186.2210  178.3260  145.4640 C   0  0  0  0  0  0  0  0  0  0  0  0
  188.2120  175.6210  146.9050 N   0  0  0  0  0  2  0  0  0  0  0  0
  189.6680  175.6200  146.9240 C   0  0  0  0  0  2  0  0  0  0  0  0
  190.7600  176.0140  144.6930 C   0  0  0  0  0  0  0  0  0  0  0  0
  191.1750  175.5750  143.5870 O   0  0  0  0  0  0  0  0  0  0  0  0
  190.8720  177.4050  144.9780 N   0  0  0  0  0  1  0  0  0  0  0  0
  190.0740  173.6990  145.3660 C   0  0  0  0  0  1  0  0  0  0  0  0
  190.1810  175.1200  145.6550 N   0  0  0  0  0  0  0  0  0  0  0  0
  1  2  2  0  0  0  0
  2 11  1  0  0  0  0
  3  6  1  0  0  0  0
  4 16  1  0  0  0  0
  4  1  1  0  0  0  0
  5 12  1  0  0  0  0
  6 18  2  0  0  0  0
  7 14  1  0  0  0  0
  7  4  2  0  0  0  0
  8  5  2  0  0  0  0
  8  7  1  0  0  0  0
  9 15  1  0  0  0  0
  9 10  2  0  0  0  0
 11 18  1  0  0  0  0
 11 17  2  0  0  0  0
 12 16  2  0  0  0  0
 13  1  1  0  0  0  0
 13  3  2  0  0  0  0
 14 13  1  0  0  0  0
 17 19  1  0  0  0  0
 17 15  1  0  0  0  0
 18  9  1  0  0  0  0
 19 20  1  0  0  0  0
 21 23  1  0  0  0  0
 21 25  1  0  0  0  0
 22 21  2  0  0  0  0
 24 25  1  0  0  0  0
 25 20  1  0  0  0  0
M  END
>  <MODEL>
9

>  <REMARK>
 VINA RESULT:      -6.7      2.821      5.734
  Name = 
  3 active torsions:
  status: ('A' for Active; 'I' for Inactive)
    1  A    between atoms: N_6  and  C_15
    2  A    between atoms: N_6  and  C_23
    3  A    between atoms: C_15  and  N_25
                            x       y       z     vdW  Elec       q    Type
                         _______ _______ _______ _____ _____    ______ ____

>  <TORSDO>
F 3

$$$$
