=
 OpenBabel11052419503D

 55 61  0  0  1  0  0  0  0  0999 V2000
  192.1920  173.1630  143.2480 C   0  0  1  0  0  3  0  0  0  0  0  0
  193.0180  175.2300  142.2670 O   0  0  0  0  0  0  0  0  0  0  0  0
  192.5190  175.2680  144.5970 C   0  0  1  0  0  3  0  0  0  0  0  0
  193.3860  176.4910  142.7550 C   0  0  0  0  0  2  0  0  0  0  0  0
  192.1540  174.6940  143.2420 C   0  0  2  0  0  3  0  0  0  0  0  0
  193.4110  176.4320  144.2670 C   0  0  0  0  0  2  0  0  0  0  0  0
  191.2600  175.7390  145.3040 C   0  0  0  0  0  2  0  0  0  0  0  0
  191.4670  175.7290  146.8110 C   0  0  0  0  0  2  0  0  0  0  0  0
  190.2710  175.1040  147.5070 C   0  0  0  0  0  2  0  0  0  0  0  0
  189.5540  174.1440  146.5720 C   0  0  0  0  0  1  0  0  0  0  0  0
  192.9590  172.6750  144.4660 C   0  0  0  0  0  2  0  0  0  0  0  0
  194.8210  168.9440  146.2950 C   0  0  0  0  0  2  0  0  0  0  0  0
  196.0950  168.8240  147.1140 C   0  0  0  0  0  2  0  0  0  0  0  0
  196.0370  171.0650  146.2590 C   0  0  2  0  0  3  0  0  0  0  0  0
  196.9950  169.9420  146.6370 C   0  0  2  0  0  3  0  0  0  0  0  0
  197.7180  169.4970  145.5280 O   0  0  0  0  0  1  0  0  0  0  0  0
  194.6870  170.4120  145.9380 C   0  0  1  0  0  3  0  0  0  0  0  0
  195.4520  172.8730  144.6010 C   0  0  2  0  0  3  0  0  0  0  0  0
  196.5720  171.9820  145.1510 C   0  0  0  0  0  2  0  0  0  0  0  0
  194.3070  170.5590  144.4660 C   0  0  0  0  0  2  0  0  0  0  0  0
  194.2750  172.0360  144.0470 C   0  0  1  0  0  3  0  0  0  0  0  0
  197.0310  174.8180  144.1470 C   0  0  0  0  0  1  0  0  0  0  0  0
  196.0010  173.8510  143.5460 C   0  0  1  0  0  3  0  0  0  0  0  0
  196.4730  173.0990  142.2790 C   0  0  2  0  0  3  0  0  0  0  0  0
  197.6180  173.7990  141.5690 C   0  0  0  0  0  2  0  0  0  0  0  0
  196.2140  173.8620  140.9900 C   0  0  1  0  0  3  0  0  0  0  0  0
  194.8390  172.3910  139.4750 C   0  0  0  0  0  0  0  0  0  0  0  0
  194.7800  171.4750  138.3880 N   0  0  0  0  0  1  0  0  0  0  0  0
  196.0990  172.9160  139.8910 N   0  0  0  0  0  2  0  0  0  0  0  0
  193.7790  172.7320  140.0630 O   0  0  0  0  0  0  0  0  0  0  0  0
  190.7940  172.5480  143.2180 C   0  0  0  0  0  2  0  0  0  0  0  0
  190.5770  171.7880  141.9200 C   0  0  1  0  0  3  0  0  0  0  0  0
  190.9400  170.3210  142.0920 C   0  0  0  0  0  2  0  0  0  0  0  0
  192.1940  170.0670  141.5360 O   0  0  0  0  0  1  0  0  0  0  0  0
  189.1280  171.9160  141.5000 C   0  0  0  0  0  2  0  0  0  0  0  0
  188.4750  173.0260  142.2960 C   0  0  0  0  0  2  0  0  0  0  0  0
  188.2180  174.2280  141.4000 C   0  0  0  0  0  2  0  0  0  0  0  0
  186.8390  177.3970  141.8300 C   0  0  1  0  0  0  0  0  0  0  0  0
  189.0310  176.5390  141.7870 C   0  0  0  0  0  2  0  0  0  0  0  0
  188.1760  175.2150  143.6950 C   0  0  0  0  0  1  0  0  0  0  0  0
  188.0020  175.5010  142.2110 C   0  0  2  0  0  0  0  0  0  0  0  0
  188.6300  179.0310  142.0480 F   0  0  0  0  0  0  0  0  0  0  0  0
  188.2270  177.7870  141.5950 C   0  0  2  0  0  0  0  0  0  0  0  0
  187.2890  177.7690  140.5430 O   0  0  0  0  0  0  0  0  0  0  0  0
  186.7030  176.0060  141.9730 O   0  0  0  0  0  0  0  0  0  0  0  0
  184.4460  177.7970  142.1630 O   0  0  0  0  0  1  0  0  0  0  0  0
  185.7280  178.3050  142.3950 C   0  0  1  0  0  3  0  0  0  0  0  0
  185.8990  178.6750  143.8780 C   0  0  1  0  0  3  0  0  0  0  0  0
  185.5170  180.1210  144.1510 C   0  0  0  0  0  1  0  0  0  0  0  0
  183.9190  177.9700  146.8480 O   0  0  0  0  0  1  0  0  0  0  0  0
  185.1070  178.3300  146.2150 C   0  0  1  0  0  3  0  0  0  0  0  0
  185.9240  177.0840  145.9380 C   0  0  1  0  0  3  0  0  0  0  0  0
  185.1190  177.7470  144.8140 C   0  0  2  0  0  3  0  0  0  0  0  0
  187.4070  177.4310  145.9620 C   0  0  0  0  0  2  0  0  0  0  0  0
  187.7880  177.8980  147.3520 C   0  0  0  0  0  1  0  0  0  0  0  0
  1 31  1  1  0  0  0
  1 11  1  0  0  0  0
  2  4  1  0  0  0  0
  2  5  1  0  0  0  0
  3  7  1  6  0  0  0
  4  6  1  0  0  0  0
  5  1  1  1  0  0  0
  5  3  1  0  0  0  0
  6  3  1  0  0  0  0
  7  8  1  0  0  0  0
  8  9  1  0  0  0  0
 10  9  1  0  0  0  0
 12 13  1  0  0  0  0
 14 19  1  6  0  0  0
 14 15  1  0  0  0  0
 15 16  1  6  0  0  0
 15 13  1  0  0  0  0
 17 20  1  6  0  0  0
 17 14  1  0  0  0  0
 17 12  1  0  0  0  0
 18 23  1  6  0  0  0
 18 19  1  0  0  0  0
 21 11  1  1  0  0  0
 21 20  1  0  0  0  0
 21 18  1  0  0  0  0
 23 22  1  1  0  0  0
 24 23  1  1  0  0  0
 25 24  1  0  0  0  0
 26 29  1  6  0  0  0
 26 25  1  0  0  0  0
 26 24  1  0  0  0  0
 27 29  1  0  0  0  0
 27 30  2  0  0  0  0
 28 27  1  0  0  0  0
 32 35  1  1  0  0  0
 32 33  1  0  0  0  0
 32 31  1  0  0  0  0
 34 33  1  0  0  0  0
 35 36  1  0  0  0  0
 37 41  1  0  0  0  0
 37 36  1  0  0  0  0
 38 45  1  0  0  0  0
 38 47  1  1  0  0  0
 39 41  1  0  0  0  0
 41 40  1  1  0  0  0
 43 39  1  0  0  0  0
 43 38  1  0  0  0  0
 43 42  1  1  0  0  0
 44 43  1  0  0  0  0
 44 38  1  0  0  0  0
 45 41  1  0  0  0  0
 47 46  1  1  0  0  0
 47 48  1  0  0  0  0
 48 49  1  6  0  0  0
 51 50  1  1  0  0  0
 52 54  1  6  0  0  0
 52 51  1  0  0  0  0
 53 48  1  6  0  0  0
 53 52  1  0  0  0  0
 53 51  1  0  0  0  0
 54 55  1  0  0  0  0
M  END
>  <MODEL>
1

>  <REMARK>
 VINA RESULT:      -6.4      0.000      0.000
  Name = 
  20 active torsions:
  status: ('A' for Active; 'I' for Inactive)
    1  A    between atoms: C_1  and  C_38
    2  A    between atoms: C_2  and  C_19
    3  A    between atoms: C_2  and  C_28
    4  A    between atoms: C_2  and  C_44
    5  A    between atoms: C_4  and  C_40
    6  A    between atoms: C_5  and  C_40
    7  A    between atoms: C_5  and  C_46
    8  A    between atoms: C_6  and  C_14
    9  A    between atoms: C_6  and  C_46
   10  A    between atoms: C_8  and  C_22
   11  A    between atoms: C_13  and  C_52
   12  A    between atoms: C_19  and  C_40
   13  A    between atoms: C_21  and  C_38
   14  A    between atoms: C_21  and  C_42
   15  A    between atoms: C_27  and  C_31
   16  A    between atoms: C_28  and  C_49
   17  A    between atoms: C_31  and  C_51
   18  A    between atoms: N_32  and  C_48
   19  A    between atoms: C_33  and  C_52
   20  A    between atoms: C_35  and  C_51
                            x       y       z     vdW  Elec       q    Type
                         _______ _______ _______ _____ _____    ______ ____

>  <TORSDO>
F 20

$$$$
=
 OpenBabel11052419503D

 55 61  0  0  1  0  0  0  0  0999 V2000
  190.5740  175.8250  144.2930 C   0  0  1  0  0  3  0  0  0  0  0  0
  191.3560  175.9330  146.5940 O   0  0  0  0  0  0  0  0  0  0  0  0
  189.0960  175.2560  146.2550 C   0  0  1  0  0  3  0  0  0  0  0  0
  190.8260  175.5950  147.8470 C   0  0  0  0  0  2  0  0  0  0  0  0
  190.2380  176.1200  145.7580 C   0  0  2  0  0  3  0  0  0  0  0  0
  189.5310  174.8430  147.6330 C   0  0  0  0  0  2  0  0  0  0  0  0
  187.8240  176.0830  146.3190 C   0  0  0  0  0  2  0  0  0  0  0  0
  188.1420  177.5070  146.7500 C   0  0  0  0  0  2  0  0  0  0  0  0
  186.9410  178.1350  147.4340 C   0  0  0  0  0  2  0  0  0  0  0  0
  185.6500  177.5840  146.8520 C   0  0  0  0  0  1  0  0  0  0  0  0
  190.4420  177.0960  143.4710 C   0  0  0  0  0  2  0  0  0  0  0  0
  186.5360  179.4130  143.1390 C   0  0  0  0  0  2  0  0  0  0  0  0
  185.1140  178.9030  143.2990 C   0  0  0  0  0  2  0  0  0  0  0  0
  186.5390  176.9730  143.2850 C   0  0  2  0  0  3  0  0  0  0  0  0
  185.1510  177.4510  142.8780 C   0  0  2  0  0  3  0  0  0  0  0  0
  184.9740  177.3780  141.4950 O   0  0  0  0  0  1  0  0  0  0  0  0
  187.4400  178.2120  143.3440 C   0  0  1  0  0  3  0  0  0  0  0  0
  188.5800  175.6320  142.6550 C   0  0  2  0  0  3  0  0  0  0  0  0
  187.0820  175.8410  142.4040 C   0  0  0  0  0  2  0  0  0  0  0  0
  188.5280  178.1890  142.2720 C   0  0  0  0  0  2  0  0  0  0  0  0
  189.3900  176.9230  142.3860 C   0  0  1  0  0  3  0  0  0  0  0  0
  189.1440  173.1500  142.6560 C   0  0  0  0  0  1  0  0  0  0  0  0
  189.1120  174.4440  141.8330 C   0  0  1  0  0  3  0  0  0  0  0  0
  188.3820  174.3360  140.4720 C   0  0  2  0  0  3  0  0  0  0  0  0
  188.1980  172.9000  140.0140 C   0  0  0  0  0  2  0  0  0  0  0  0
  189.2540  173.7760  139.3590 C   0  0  1  0  0  3  0  0  0  0  0  0
  189.4980  174.0820  136.8700 C   0  0  0  0  0  0  0  0  0  0  0  0
  188.9660  174.5640  135.6420 N   0  0  0  0  0  1  0  0  0  0  0  0
  188.7600  174.2570  138.0790 N   0  0  0  0  0  2  0  0  0  0  0  0
  190.6180  173.5060  136.8830 O   0  0  0  0  0  0  0  0  0  0  0  0
  191.9700  175.2260  144.1270 C   0  0  0  0  0  2  0  0  0  0  0  0
  192.9890  176.3200  143.8610 C   0  0  1  0  0  3  0  0  0  0  0  0
  193.9940  176.4030  145.0000 C   0  0  0  0  0  2  0  0  0  0  0  0
  194.0050  177.6900  145.5400 O   0  0  0  0  0  1  0  0  0  0  0  0
  193.7060  176.0330  142.5590 C   0  0  0  0  0  2  0  0  0  0  0  0
  195.2000  176.0450  142.8000 C   0  0  0  0  0  2  0  0  0  0  0  0
  195.8980  175.1420  141.7940 C   0  0  0  0  0  2  0  0  0  0  0  0
  195.1930  172.4000  143.8210 C   0  0  1  0  0  0  0  0  0  0  0  0
  196.8980  174.0220  143.7670 C   0  0  0  0  0  2  0  0  0  0  0  0
  197.2570  173.0640  141.5130 C   0  0  0  0  0  1  0  0  0  0  0  0
  196.2620  173.7930  142.4030 C   0  0  2  0  0  0  0  0  0  0  0  0
  196.8520  172.2640  145.5970 F   0  0  0  0  0  0  0  0  0  0  0  0
  196.1990  173.0460  144.6610 C   0  0  2  0  0  0  0  0  0  0  0  0
  194.8230  173.2690  144.8720 O   0  0  0  0  0  0  0  0  0  0  0  0
  195.0960  173.0070  142.5580 O   0  0  0  0  0  0  0  0  0  0  0  0
  193.7860  170.8240  145.0600 O   0  0  0  0  0  1  0  0  0  0  0  0
  194.6700  170.9590  143.9840 C   0  0  1  0  0  3  0  0  0  0  0  0
  194.0600  170.3530  142.7080 C   0  0  1  0  0  3  0  0  0  0  0  0
  194.6880  169.0140  142.3580 C   0  0  0  0  0  1  0  0  0  0  0  0
  190.9120  168.6730  141.9940 O   0  0  0  0  0  1  0  0  0  0  0  0
  192.0390  169.3980  141.6080 C   0  0  1  0  0  3  0  0  0  0  0  0
  191.7270  170.8800  141.6790 C   0  0  1  0  0  3  0  0  0  0  0  0
  192.5380  170.2050  142.7920 C   0  0  2  0  0  3  0  0  0  0  0  0
  192.5550  171.6240  140.6390 C   0  0  0  0  0  2  0  0  0  0  0  0
  192.3710  173.1160  140.8300 C   0  0  0  0  0  1  0  0  0  0  0  0
  1 11  1  6  0  0  0
  2  4  1  0  0  0  0
  3  7  1  1  0  0  0
  3  6  1  0  0  0  0
  5  1  1  6  0  0  0
  5  3  1  0  0  0  0
  5  2  1  0  0  0  0
  6  4  1  0  0  0  0
  7  8  1  0  0  0  0
  8  9  1  0  0  0  0
 10  9  1  0  0  0  0
 12 13  1  0  0  0  0
 12 17  1  0  0  0  0
 14 19  1  6  0  0  0
 14 17  1  0  0  0  0
 15 16  1  6  0  0  0
 15 14  1  0  0  0  0
 15 13  1  0  0  0  0
 17 20  1  6  0  0  0
 18 23  1  6  0  0  0
 19 18  1  0  0  0  0
 20 21  1  0  0  0  0
 21 18  1  0  0  0  0
 21 11  1  1  0  0  0
 23 22  1  1  0  0  0
 24 23  1  1  0  0  0
 25 24  1  0  0  0  0
 26 29  1  6  0  0  0
 26 25  1  0  0  0  0
 26 24  1  0  0  0  0
 27 30  2  0  0  0  0
 27 29  1  0  0  0  0
 28 27  1  0  0  0  0
 31  1  1  0  0  0  0
 32 35  1  6  0  0  0
 32 31  1  0  0  0  0
 32 33  1  0  0  0  0
 33 34  1  0  0  0  0
 35 36  1  0  0  0  0
 37 41  1  0  0  0  0
 37 36  1  0  0  0  0
 38 47  1  1  0  0  0
 38 43  1  0  0  0  0
 38 44  1  0  0  0  0
 39 43  1  0  0  0  0
 41 40  1  6  0  0  0
 41 45  1  0  0  0  0
 41 39  1  0  0  0  0
 43 44  1  0  0  0  0
 43 42  1  1  0  0  0
 45 38  1  0  0  0  0
 47 46  1  1  0  0  0
 48 49  1  1  0  0  0
 48 47  1  0  0  0  0
 51 52  1  0  0  0  0
 51 50  1  1  0  0  0
 51 53  1  0  0  0  0
 52 54  1  6  0  0  0
 52 53  1  0  0  0  0
 53 48  1  6  0  0  0
 54 55  1  0  0  0  0
M  END
>  <MODEL>
2

>  <REMARK>
 VINA RESULT:      -6.2      2.780      9.091
  Name = 
  20 active torsions:
  status: ('A' for Active; 'I' for Inactive)
    1  A    between atoms: C_1  and  C_38
    2  A    between atoms: C_2  and  C_19
    3  A    between atoms: C_2  and  C_28
    4  A    between atoms: C_2  and  C_44
    5  A    between atoms: C_4  and  C_40
    6  A    between atoms: C_5  and  C_40
    7  A    between atoms: C_5  and  C_46
    8  A    between atoms: C_6  and  C_14
    9  A    between atoms: C_6  and  C_46
   10  A    between atoms: C_8  and  C_22
   11  A    between atoms: C_13  and  C_52
   12  A    between atoms: C_19  and  C_40
   13  A    between atoms: C_21  and  C_38
   14  A    between atoms: C_21  and  C_42
   15  A    between atoms: C_27  and  C_31
   16  A    between atoms: C_28  and  C_49
   17  A    between atoms: C_31  and  C_51
   18  A    between atoms: N_32  and  C_48
   19  A    between atoms: C_33  and  C_52
   20  A    between atoms: C_35  and  C_51
                            x       y       z     vdW  Elec       q    Type
                         _______ _______ _______ _____ _____    ______ ____

>  <TORSDO>
F 20

$$$$
=
 OpenBabel11052419503D

 55 61  0  0  1  0  0  0  0  0999 V2000
  194.1640  172.0480  142.6880 C   0  0  1  0  0  3  0  0  0  0  0  0
  194.1880  169.6220  142.5110 O   0  0  0  0  0  0  0  0  0  0  0  0
  193.7240  170.5400  144.6610 C   0  0  1  0  0  3  0  0  0  0  0  0
  193.8950  168.5540  143.3700 C   0  0  0  0  0  2  0  0  0  0  0  0
  194.4810  170.7080  143.3580 C   0  0  2  0  0  3  0  0  0  0  0  0
  193.2650  169.1090  144.6290 C   0  0  0  0  0  2  0  0  0  0  0  0
  194.6650  170.7780  145.8290 C   0  0  0  0  0  2  0  0  0  0  0  0
  195.7100  169.6750  145.8960 C   0  0  0  0  0  2  0  0  0  0  0  0
  197.0800  170.2590  146.1900 C   0  0  0  0  0  2  0  0  0  0  0  0
  197.6790  170.8680  144.9320 C   0  0  0  0  0  1  0  0  0  0  0  0
  195.2590  172.3960  141.6940 C   0  0  0  0  0  2  0  0  0  0  0  0
  195.0270  174.4450  145.7540 C   0  0  0  0  0  2  0  0  0  0  0  0
  194.3450  175.7520  146.1190 C   0  0  0  0  0  2  0  0  0  0  0  0
  194.2830  175.5900  143.7260 C   0  0  2  0  0  3  0  0  0  0  0  0
  194.3820  176.5970  144.8650 C   0  0  2  0  0  3  0  0  0  0  0  0
  195.5930  177.2920  144.8250 O   0  0  0  0  0  1  0  0  0  0  0  0
  194.7970  174.2500  144.2670 C   0  0  1  0  0  3  0  0  0  0  0  0
  195.1160  174.8850  141.4520 C   0  0  2  0  0  3  0  0  0  0  0  0
  194.9710  176.0530  142.4350 C   0  0  0  0  0  2  0  0  0  0  0  0
  196.0940  173.8100  143.5910 C   0  0  0  0  0  2  0  0  0  0  0  0
  195.9190  173.7140  142.0680 C   0  0  1  0  0  3  0  0  0  0  0  0
  197.0840  174.6890  139.8500 C   0  0  0  0  0  1  0  0  0  0  0  0
  195.7320  175.3620  140.1250 C   0  0  1  0  0  3  0  0  0  0  0  0
  194.7090  175.2680  138.9680 C   0  0  2  0  0  3  0  0  0  0  0  0
  193.4640  174.4830  139.3430 C   0  0  0  0  0  2  0  0  0  0  0  0
  194.5160  173.8560  138.4410 C   0  0  1  0  0  3  0  0  0  0  0  0
  194.9750  173.7660  135.9650 C   0  0  0  0  0  0  0  0  0  0  0  0
  194.4870  173.8270  134.6310 N   0  0  0  0  0  1  0  0  0  0  0  0
  194.0700  173.9190  137.0580 N   0  0  0  0  0  2  0  0  0  0  0  0
  196.2020  173.5780  136.1740 O   0  0  0  0  0  0  0  0  0  0  0  0
  192.8010  172.0430  141.9980 C   0  0  0  0  0  2  0  0  0  0  0  0
  191.9140  173.1380  142.5660 C   0  0  1  0  0  3  0  0  0  0  0  0
  190.8490  173.5410  141.5580 C   0  0  0  0  0  2  0  0  0  0  0  0
  190.7340  172.5700  140.5630 O   0  0  0  0  0  1  0  0  0  0  0  0
  191.2600  172.6440  143.8390 C   0  0  0  0  0  2  0  0  0  0  0  0
  191.4190  173.6930  144.9200 C   0  0  0  0  0  2  0  0  0  0  0  0
  190.1090  173.8680  145.6720 C   0  0  0  0  0  2  0  0  0  0  0  0
  189.3450  176.6380  143.7060 C   0  0  1  0  0  0  0  0  0  0  0  0
  190.6600  176.2850  145.6260 C   0  0  0  0  0  2  0  0  0  0  0  0
  188.4860  175.5510  146.5530 C   0  0  0  0  0  1  0  0  0  0  0  0
  189.5360  175.2690  145.4890 C   0  0  2  0  0  0  0  0  0  0  0  0
  190.5560  178.5770  144.5420 F   0  0  0  0  0  0  0  0  0  0  0  0
  190.4660  177.1990  144.4570 C   0  0  2  0  0  0  0  0  0  0  0  0
  190.6580  176.6300  143.1820 O   0  0  0  0  0  0  0  0  0  0  0  0
  188.9550  175.3840  144.2050 O   0  0  0  0  0  0  0  0  0  0  0  0
  188.2870  177.0060  141.5280 O   0  0  0  0  0  1  0  0  0  0  0  0
  188.3350  177.4370  142.8580 C   0  0  1  0  0  3  0  0  0  0  0  0
  186.9180  177.5070  143.4520 C   0  0  1  0  0  3  0  0  0  0  0  0
  186.1800  176.1840  143.3180 C   0  0  0  0  0  1  0  0  0  0  0  0
  185.6890  177.4170  146.8760 O   0  0  0  0  0  1  0  0  0  0  0  0
  185.5420  177.7050  145.5200 C   0  0  1  0  0  3  0  0  0  0  0  0
  185.9850  179.1310  145.2600 C   0  0  1  0  0  3  0  0  0  0  0  0
  186.9110  177.9570  144.9160 C   0  0  2  0  0  3  0  0  0  0  0  0
  185.2020  179.7020  144.0850 C   0  0  0  0  0  2  0  0  0  0  0  0
  183.7900  179.1500  144.1110 C   0  0  0  0  0  1  0  0  0  0  0  0
  1 11  1  6  0  0  0
  2  5  1  0  0  0  0
  2  4  1  0  0  0  0
  3  7  1  1  0  0  0
  4  6  1  0  0  0  0
  5  1  1  6  0  0  0
  5  3  1  0  0  0  0
  6  3  1  0  0  0  0
  7  8  1  0  0  0  0
  8  9  1  0  0  0  0
 10  9  1  0  0  0  0
 12 13  1  0  0  0  0
 14 19  1  6  0  0  0
 14 17  1  0  0  0  0
 14 15  1  0  0  0  0
 15 16  1  6  0  0  0
 15 13  1  0  0  0  0
 17 20  1  6  0  0  0
 17 12  1  0  0  0  0
 18 23  1  6  0  0  0
 18 21  1  0  0  0  0
 18 19  1  0  0  0  0
 21 11  1  1  0  0  0
 21 20  1  0  0  0  0
 23 22  1  6  0  0  0
 24 25  1  0  0  0  0
 24 23  1  1  0  0  0
 26 29  1  6  0  0  0
 26 24  1  0  0  0  0
 26 25  1  0  0  0  0
 27 30  2  0  0  0  0
 27 29  1  0  0  0  0
 28 27  1  0  0  0  0
 31 32  1  0  0  0  0
 31  1  1  0  0  0  0
 32 33  1  6  0  0  0
 32 35  1  0  0  0  0
 34 33  1  0  0  0  0
 35 36  1  0  0  0  0
 36 37  1  0  0  0  0
 38 47  1  6  0  0  0
 38 45  1  0  0  0  0
 38 43  1  0  0  0  0
 41 39  1  0  0  0  0
 41 37  1  0  0  0  0
 41 40  1  1  0  0  0
 43 42  1  1  0  0  0
 43 39  1  0  0  0  0
 44 38  1  0  0  0  0
 44 43  1  0  0  0  0
 45 41  1  0  0  0  0
 47 46  1  6  0  0  0
 47 48  1  0  0  0  0
 48 49  1  1  0  0  0
 51 50  1  1  0  0  0
 52 54  1  6  0  0  0
 52 51  1  0  0  0  0
 53 48  1  6  0  0  0
 53 52  1  0  0  0  0
 53 51  1  0  0  0  0
 54 55  1  0  0  0  0
M  END
>  <MODEL>
3

>  <REMARK>
 VINA RESULT:      -6.0      2.072      4.675
  Name = 
  20 active torsions:
  status: ('A' for Active; 'I' for Inactive)
    1  A    between atoms: C_1  and  C_38
    2  A    between atoms: C_2  and  C_19
    3  A    between atoms: C_2  and  C_28
    4  A    between atoms: C_2  and  C_44
    5  A    between atoms: C_4  and  C_40
    6  A    between atoms: C_5  and  C_40
    7  A    between atoms: C_5  and  C_46
    8  A    between atoms: C_6  and  C_14
    9  A    between atoms: C_6  and  C_46
   10  A    between atoms: C_8  and  C_22
   11  A    between atoms: C_13  and  C_52
   12  A    between atoms: C_19  and  C_40
   13  A    between atoms: C_21  and  C_38
   14  A    between atoms: C_21  and  C_42
   15  A    between atoms: C_27  and  C_31
   16  A    between atoms: C_28  and  C_49
   17  A    between atoms: C_31  and  C_51
   18  A    between atoms: N_32  and  C_48
   19  A    between atoms: C_33  and  C_52
   20  A    between atoms: C_35  and  C_51
                            x       y       z     vdW  Elec       q    Type
                         _______ _______ _______ _____ _____    ______ ____

>  <TORSDO>
F 20

$$$$
=
 OpenBabel11052419503D

 55 61  0  0  1  0  0  0  0  0999 V2000
  192.8640  172.4410  141.5210 C   0  0  1  0  0  3  0  0  0  0  0  0
  193.0240  174.8600  141.3170 O   0  0  0  0  0  0  0  0  0  0  0  0
  194.4860  173.8120  142.8800 C   0  0  1  0  0  3  0  0  0  0  0  0
  193.8610  175.8540  141.8410 C   0  0  0  0  0  2  0  0  0  0  0  0
  193.1230  173.7810  142.2160 C   0  0  2  0  0  3  0  0  0  0  0  0
  195.0110  175.1840  142.5600 C   0  0  0  0  0  2  0  0  0  0  0  0
  194.3240  173.6350  144.3800 C   0  0  0  0  0  2  0  0  0  0  0  0
  195.1070  174.7060  145.1240 C   0  0  0  0  0  2  0  0  0  0  0  0
  196.1740  174.0720  145.9990 C   0  0  0  0  0  2  0  0  0  0  0  0
  197.4580  173.8730  145.2100 C   0  0  0  0  0  1  0  0  0  0  0  0
  194.1690  171.6770  141.3790 C   0  0  0  0  0  2  0  0  0  0  0  0
  196.8920  174.3320  138.8760 C   0  0  0  0  0  2  0  0  0  0  0  0
  196.5270  175.2300  137.7060 C   0  0  0  0  0  2  0  0  0  0  0  0
  194.5730  173.9340  138.2130 C   0  0  2  0  0  3  0  0  0  0  0  0
  195.3210  174.5880  137.0580 C   0  0  2  0  0  3  0  0  0  0  0  0
  195.7600  173.6360  136.1340 O   0  0  0  0  0  1  0  0  0  0  0  0
  195.6000  173.6760  139.3230 C   0  0  1  0  0  3  0  0  0  0  0  0
  193.3120  171.9110  139.0370 C   0  0  2  0  0  3  0  0  0  0  0  0
  193.7680  172.6950  137.8000 C   0  0  0  0  0  2  0  0  0  0  0  0
  195.8280  172.1860  139.5670 C   0  0  0  0  0  2  0  0  0  0  0  0
  194.5120  171.4730  139.9110 C   0  0  1  0  0  3  0  0  0  0  0  0
  192.8780  169.4200  139.3310 C   0  0  0  0  0  1  0  0  0  0  0  0
  192.4360  170.7120  138.6310 C   0  0  1  0  0  3  0  0  0  0  0  0
  190.9310  171.0480  138.7700 C   0  0  2  0  0  3  0  0  0  0  0  0
  190.0390  170.0830  138.0080 C   0  0  0  0  0  2  0  0  0  0  0  0
  190.2840  171.4810  137.4640 C   0  0  1  0  0  3  0  0  0  0  0  0
  189.1410  173.7280  137.4910 C   0  0  0  0  0  0  0  0  0  0  0  0
  187.9900  174.5070  137.7900 N   0  0  0  0  0  1  0  0  0  0  0  0
  189.1360  172.3250  137.7590 N   0  0  0  0  0  2  0  0  0  0  0  0
  190.1580  174.2790  136.9950 O   0  0  0  0  0  0  0  0  0  0  0  0
  191.8280  171.5940  142.2590 C   0  0  0  0  0  2  0  0  0  0  0  0
  190.7930  172.4840  142.9250 C   0  0  1  0  0  3  0  0  0  0  0  0
  189.3900  172.0920  142.4890 C   0  0  0  0  0  2  0  0  0  0  0  0
  189.0900  172.6690  141.2550 O   0  0  0  0  0  1  0  0  0  0  0  0
  190.9190  172.3620  144.4290 C   0  0  0  0  0  2  0  0  0  0  0  0
  190.0700  173.4280  145.0890 C   0  0  0  0  0  2  0  0  0  0  0  0
  190.9040  174.6730  145.3480 C   0  0  0  0  0  2  0  0  0  0  0  0
  188.5140  176.3490  143.4490 C   0  0  1  0  0  0  0  0  0  0  0  0
  190.8500  176.5170  143.6910 C   0  0  0  0  0  2  0  0  0  0  0  0
  190.2230  176.9750  146.0410 C   0  0  0  0  0  1  0  0  0  0  0  0
  190.1710  175.9420  144.9260 C   0  0  2  0  0  0  0  0  0  0  0  0
  189.6190  177.9880  142.0290 F   0  0  0  0  0  0  0  0  0  0  0  0
  189.7150  176.8190  142.7620 C   0  0  2  0  0  0  0  0  0  0  0  0
  188.9900  175.7090  142.2830 O   0  0  0  0  0  0  0  0  0  0  0  0
  188.8250  175.6380  144.6200 O   0  0  0  0  0  0  0  0  0  0  0  0
  186.1240  175.9710  143.0750 O   0  0  0  0  0  1  0  0  0  0  0  0
  187.0990  176.9450  143.3060 C   0  0  1  0  0  3  0  0  0  0  0  0
  186.6750  177.8650  144.4640 C   0  0  1  0  0  3  0  0  0  0  0  0
  186.2110  179.2260  143.9680 C   0  0  0  0  0  1  0  0  0  0  0  0
  183.6690  178.0030  146.5090 O   0  0  0  0  0  1  0  0  0  0  0  0
  185.0070  178.3040  146.2620 C   0  0  1  0  0  3  0  0  0  0  0  0
  185.8820  177.2190  146.8580 C   0  0  1  0  0  3  0  0  0  0  0  0
  185.5940  177.2420  145.3510 C   0  0  2  0  0  3  0  0  0  0  0  0
  187.2230  177.8130  147.2680 C   0  0  0  0  0  2  0  0  0  0  0  0
  186.9910  178.9240  148.2720 C   0  0  0  0  0  1  0  0  0  0  0  0
  1 11  1  1  0  0  0
  1 31  1  0  0  0  0
  2  4  1  0  0  0  0
  2  5  1  0  0  0  0
  3  7  1  1  0  0  0
  4  6  1  0  0  0  0
  5  1  1  6  0  0  0
  5  3  1  0  0  0  0
  6  3  1  0  0  0  0
  7  8  1  0  0  0  0
  8  9  1  0  0  0  0
 10  9  1  0  0  0  0
 13 12  1  0  0  0  0
 14 19  1  6  0  0  0
 14 17  1  0  0  0  0
 15 16  1  6  0  0  0
 15 13  1  0  0  0  0
 15 14  1  0  0  0  0
 17 12  1  6  0  0  0
 17 20  1  0  0  0  0
 18 23  1  6  0  0  0
 18 21  1  0  0  0  0
 19 18  1  0  0  0  0
 20 21  1  0  0  0  0
 21 11  1  1  0  0  0
 23 22  1  1  0  0  0
 24 23  1  6  0  0  0
 25 24  1  0  0  0  0
 26 29  1  1  0  0  0
 26 25  1  0  0  0  0
 26 24  1  0  0  0  0
 27 29  1  0  0  0  0
 27 28  1  0  0  0  0
 30 27  2  0  0  0  0
 32 31  1  6  0  0  0
 32 35  1  0  0  0  0
 33 32  1  0  0  0  0
 34 33  1  0  0  0  0
 35 36  1  0  0  0  0
 36 37  1  0  0  0  0
 38 47  1  6  0  0  0
 38 45  1  0  0  0  0
 39 41  1  0  0  0  0
 41 37  1  0  0  0  0
 41 40  1  1  0  0  0
 43 42  1  6  0  0  0
 43 38  1  0  0  0  0
 43 39  1  0  0  0  0
 44 43  1  0  0  0  0
 44 38  1  0  0  0  0
 45 41  1  0  0  0  0
 47 46  1  1  0  0  0
 47 48  1  0  0  0  0
 48 49  1  6  0  0  0
 51 50  1  1  0  0  0
 51 52  1  0  0  0  0
 52 54  1  6  0  0  0
 53 48  1  6  0  0  0
 53 51  1  0  0  0  0
 53 52  1  0  0  0  0
 54 55  1  0  0  0  0
M  END
>  <MODEL>
4

>  <REMARK>
 VINA RESULT:      -6.0      2.705      5.263
  Name = 
  20 active torsions:
  status: ('A' for Active; 'I' for Inactive)
    1  A    between atoms: C_1  and  C_38
    2  A    between atoms: C_2  and  C_19
    3  A    between atoms: C_2  and  C_28
    4  A    between atoms: C_2  and  C_44
    5  A    between atoms: C_4  and  C_40
    6  A    between atoms: C_5  and  C_40
    7  A    between atoms: C_5  and  C_46
    8  A    between atoms: C_6  and  C_14
    9  A    between atoms: C_6  and  C_46
   10  A    between atoms: C_8  and  C_22
   11  A    between atoms: C_13  and  C_52
   12  A    between atoms: C_19  and  C_40
   13  A    between atoms: C_21  and  C_38
   14  A    between atoms: C_21  and  C_42
   15  A    between atoms: C_27  and  C_31
   16  A    between atoms: C_28  and  C_49
   17  A    between atoms: C_31  and  C_51
   18  A    between atoms: N_32  and  C_48
   19  A    between atoms: C_33  and  C_52
   20  A    between atoms: C_35  and  C_51
                            x       y       z     vdW  Elec       q    Type
                         _______ _______ _______ _____ _____    ______ ____

>  <TORSDO>
F 20

$$$$
=
 OpenBabel11052419503D

 55 61  0  0  1  0  0  0  0  0999 V2000
  193.8300  171.9030  140.1720 C   0  0  1  0  0  3  0  0  0  0  0  0
  191.7440  171.6940  138.9370 O   0  0  0  0  0  0  0  0  0  0  0  0
  192.9310  169.6780  139.3960 C   0  0  1  0  0  3  0  0  0  0  0  0
  190.9600  170.6290  138.4730 C   0  0  0  0  0  2  0  0  0  0  0  0
  193.0380  171.1600  139.0910 C   0  0  2  0  0  3  0  0  0  0  0  0
  191.5080  169.3420  139.0500 C   0  0  0  0  0  2  0  0  0  0  0  0
  193.8960  168.9070  138.5120 C   0  0  0  0  0  2  0  0  0  0  0  0
  194.4430  169.8100  137.4160 C   0  0  0  0  0  2  0  0  0  0  0  0
  195.9460  169.6350  137.2860 C   0  0  0  0  0  2  0  0  0  0  0  0
  196.6600  170.2770  138.4640 C   0  0  0  0  0  1  0  0  0  0  0  0
  193.2390  173.2870  140.3790 C   0  0  0  0  0  2  0  0  0  0  0  0
  194.5210  174.7870  136.2760 C   0  0  0  0  0  2  0  0  0  0  0  0
  195.8620  174.6200  135.5820 C   0  0  0  0  0  2  0  0  0  0  0  0
  196.1510  173.8390  137.8310 C   0  0  2  0  0  3  0  0  0  0  0  0
  196.8880  174.5280  136.6890 C   0  0  2  0  0  3  0  0  0  0  0  0
  197.2830  175.8190  137.0460 O   0  0  0  0  0  1  0  0  0  0  0  0
  194.6550  174.1000  137.6210 C   0  0  1  0  0  3  0  0  0  0  0  0
  195.6970  173.7650  140.3100 C   0  0  2  0  0  3  0  0  0  0  0  0
  196.6700  174.2300  139.2210 C   0  0  0  0  0  2  0  0  0  0  0  0
  194.0600  174.9790  138.7190 C   0  0  0  0  0  2  0  0  0  0  0  0
  194.2830  174.3590  140.1070 C   0  0  1  0  0  3  0  0  0  0  0  0
  197.7800  174.2210  141.7010 C   0  0  0  0  0  1  0  0  0  0  0  0
  196.2510  174.0840  141.7110 C   0  0  1  0  0  3  0  0  0  0  0  0
  195.4930  175.2690  142.3560 C   0  0  2  0  0  3  0  0  0  0  0  0
  196.2370  176.5860  142.2260 C   0  0  0  0  0  2  0  0  0  0  0  0
  196.2050  175.8600  143.5620 C   0  0  1  0  0  3  0  0  0  0  0  0
  194.8990  175.9530  145.7150 C   0  0  0  0  0  0  0  0  0  0  0  0
  193.9400  176.6110  146.5320 N   0  0  0  0  0  1  0  0  0  0  0  0
  195.2240  176.4890  144.4330 N   0  0  0  0  0  2  0  0  0  0  0  0
  195.4550  174.9010  146.1270 O   0  0  0  0  0  0  0  0  0  0  0  0
  193.8690  171.1370  141.4930 C   0  0  0  0  0  2  0  0  0  0  0  0
  192.9290  171.7730  142.5030 C   0  0  1  0  0  3  0  0  0  0  0  0
  191.8310  170.8000  142.9000 C   0  0  0  0  0  2  0  0  0  0  0  0
  190.6300  171.1490  142.2820 O   0  0  0  0  0  1  0  0  0  0  0  0
  193.7160  172.1910  143.7270 C   0  0  0  0  0  2  0  0  0  0  0  0
  192.8260  173.0120  144.6360 C   0  0  0  0  0  2  0  0  0  0  0  0
  192.2180  174.1720  143.8620 C   0  0  0  0  0  2  0  0  0  0  0  0
  190.1030  175.6980  146.1690 C   0  0  1  0  0  0  0  0  0  0  0  0
  190.4010  173.4910  145.4060 C   0  0  0  0  0  2  0  0  0  0  0  0
  189.8270  174.5350  143.2370 C   0  0  0  0  0  1  0  0  0  0  0  0
  190.8300  174.5300  144.3800 C   0  0  2  0  0  0  0  0  0  0  0  0
  188.7160  174.0040  147.2330 F   0  0  0  0  0  0  0  0  0  0  0  0
  189.8810  174.3050  146.5500 C   0  0  2  0  0  0  0  0  0  0  0  0
  190.8250  175.1020  147.2280 O   0  0  0  0  0  0  0  0  0  0  0  0
  190.8610  175.8050  144.9920 O   0  0  0  0  0  0  0  0  0  0  0  0
  189.9850  177.9100  147.2130 O   0  0  0  0  0  1  0  0  0  0  0  0
  189.2380  176.9010  146.5970 C   0  0  1  0  0  3  0  0  0  0  0  0
  188.3630  177.4870  145.4770 C   0  0  1  0  0  3  0  0  0  0  0  0
  189.1940  177.9670  144.2970 C   0  0  0  0  0  1  0  0  0  0  0  0
  185.8940  176.2970  143.0840 O   0  0  0  0  0  1  0  0  0  0  0  0
  186.3570  177.2160  144.0240 C   0  0  1  0  0  3  0  0  0  0  0  0
  185.8450  176.8280  145.3970 C   0  0  1  0  0  3  0  0  0  0  0  0
  187.2900  176.5090  144.9900 C   0  0  2  0  0  3  0  0  0  0  0  0
  185.6760  178.0790  146.2490 C   0  0  0  0  0  2  0  0  0  0  0  0
  184.2430  178.5610  146.1500 C   0  0  0  0  0  1  0  0  0  0  0  0
  1 11  1  1  0  0  0
  1 31  1  0  0  0  0
  2  5  1  0  0  0  0
  3  7  1  6  0  0  0
  4  2  1  0  0  0  0
  4  6  1  0  0  0  0
  5  3  1  0  0  0  0
  5  1  1  1  0  0  0
  6  3  1  0  0  0  0
  8  7  1  0  0  0  0
  9  8  1  0  0  0  0
  9 10  1  0  0  0  0
 13 12  1  0  0  0  0
 13 15  1  0  0  0  0
 14 19  1  1  0  0  0
 15 16  1  1  0  0  0
 15 14  1  0  0  0  0
 17 12  1  6  0  0  0
 17 14  1  0  0  0  0
 17 20  1  0  0  0  0
 18 23  1  1  0  0  0
 19 18  1  0  0  0  0
 20 21  1  0  0  0  0
 21 18  1  0  0  0  0
 21 11  1  6  0  0  0
 23 22  1  6  0  0  0
 24 23  1  6  0  0  0
 24 26  1  0  0  0  0
 25 24  1  0  0  0  0
 25 26  1  0  0  0  0
 26 29  1  1  0  0  0
 27 30  2  0  0  0  0
 27 28  1  0  0  0  0
 29 27  1  0  0  0  0
 32 31  1  6  0  0  0
 32 33  1  0  0  0  0
 32 35  1  0  0  0  0
 34 33  1  0  0  0  0
 35 36  1  0  0  0  0
 37 41  1  0  0  0  0
 37 36  1  0  0  0  0
 38 43  1  0  0  0  0
 38 47  1  1  0  0  0
 38 44  1  0  0  0  0
 39 43  1  0  0  0  0
 41 40  1  6  0  0  0
 41 45  1  0  0  0  0
 41 39  1  0  0  0  0
 43 44  1  0  0  0  0
 43 42  1  1  0  0  0
 45 38  1  0  0  0  0
 47 46  1  6  0  0  0
 48 49  1  6  0  0  0
 48 47  1  0  0  0  0
 51 50  1  6  0  0  0
 51 53  1  0  0  0  0
 51 52  1  0  0  0  0
 52 54  1  1  0  0  0
 53 52  1  0  0  0  0
 53 48  1  1  0  0  0
 55 54  1  0  0  0  0
M  END
>  <MODEL>
5

>  <REMARK>
 VINA RESULT:      -5.8      3.095      6.643
  Name = 
  20 active torsions:
  status: ('A' for Active; 'I' for Inactive)
    1  A    between atoms: C_1  and  C_38
    2  A    between atoms: C_2  and  C_19
    3  A    between atoms: C_2  and  C_28
    4  A    between atoms: C_2  and  C_44
    5  A    between atoms: C_4  and  C_40
    6  A    between atoms: C_5  and  C_40
    7  A    between atoms: C_5  and  C_46
    8  A    between atoms: C_6  and  C_14
    9  A    between atoms: C_6  and  C_46
   10  A    between atoms: C_8  and  C_22
   11  A    between atoms: C_13  and  C_52
   12  A    between atoms: C_19  and  C_40
   13  A    between atoms: C_21  and  C_38
   14  A    between atoms: C_21  and  C_42
   15  A    between atoms: C_27  and  C_31
   16  A    between atoms: C_28  and  C_49
   17  A    between atoms: C_31  and  C_51
   18  A    between atoms: N_32  and  C_48
   19  A    between atoms: C_33  and  C_52
   20  A    between atoms: C_35  and  C_51
                            x       y       z     vdW  Elec       q    Type
                         _______ _______ _______ _____ _____    ______ ____

>  <TORSDO>
F 20

$$$$
=
 OpenBabel11052419503D

 55 61  0  0  1  0  0  0  0  0999 V2000
  192.9450  172.9890  142.6230 C   0  0  1  0  0  3  0  0  0  0  0  0
  193.1300  175.3610  142.1180 O   0  0  0  0  0  0  0  0  0  0  0  0
  194.9980  174.3380  143.1880 C   0  0  1  0  0  3  0  0  0  0  0  0
  194.1410  176.3280  142.2130 C   0  0  0  0  0  2  0  0  0  0  0  0
  193.4900  174.3590  143.0390 C   0  0  2  0  0  3  0  0  0  0  0  0
  195.4390  175.6320  142.5610 C   0  0  0  0  0  2  0  0  0  0  0  0
  195.3630  174.3030  144.6610 C   0  0  0  0  0  2  0  0  0  0  0  0
  194.2010  174.8070  145.5040 C   0  0  0  0  0  2  0  0  0  0  0  0
  194.5700  176.1090  146.1920 C   0  0  0  0  0  2  0  0  0  0  0  0
  193.6870  177.2420  145.6950 C   0  0  0  0  0  1  0  0  0  0  0  0
  194.0970  172.0190  142.4240 C   0  0  0  0  0  2  0  0  0  0  0  0
  191.8100  173.7120  138.8690 C   0  0  0  0  0  2  0  0  0  0  0  0
  190.6150  173.1210  138.1410 C   0  0  0  0  0  2  0  0  0  0  0  0
  191.4040  171.4320  139.6510 C   0  0  2  0  0  3  0  0  0  0  0  0
  190.7450  171.6210  138.2900 C   0  0  2  0  0  3  0  0  0  0  0  0
  191.5560  171.1350  137.2620 O   0  0  0  0  0  1  0  0  0  0  0  0
  192.1680  172.7240  139.9630 C   0  0  1  0  0  3  0  0  0  0  0  0
  193.1330  170.1920  141.0060 C   0  0  2  0  0  3  0  0  0  0  0  0
  192.2550  170.1580  139.7490 C   0  0  0  0  0  2  0  0  0  0  0  0
  193.6800  172.5100  139.9990 C   0  0  0  0  0  2  0  0  0  0  0  0
  194.0620  171.4290  141.0220 C   0  0  1  0  0  3  0  0  0  0  0  0
  195.4260  169.0920  140.8940 C   0  0  0  0  0  1  0  0  0  0  0  0
  193.9280  168.8820  141.1520 C   0  0  1  0  0  3  0  0  0  0  0  0
  193.5880  168.1670  142.4820 C   0  0  2  0  0  3  0  0  0  0  0  0
  192.2520  168.6000  143.0600 C   0  0  0  0  0  2  0  0  0  0  0  0
  193.5460  169.1020  143.6800 C   0  0  1  0  0  3  0  0  0  0  0  0
  194.4190  168.9500  146.0390 C   0  0  0  0  0  0  0  0  0  0  0  0
  194.6710  168.1660  147.1980 N   0  0  0  0  0  1  0  0  0  0  0  0
  193.8330  168.3440  144.8870 N   0  0  0  0  0  2  0  0  0  0  0  0
  194.7150  170.1740  146.0350 O   0  0  0  0  0  0  0  0  0  0  0  0
  191.9460  172.4300  143.6340 C   0  0  0  0  0  2  0  0  0  0  0  0
  190.6660  173.2480  143.6250 C   0  0  1  0  0  3  0  0  0  0  0  0
  189.7090  172.7330  142.5610 C   0  0  0  0  0  2  0  0  0  0  0  0
  189.7990  171.3440  142.4630 O   0  0  0  0  0  1  0  0  0  0  0  0
  190.0120  173.1730  144.9880 C   0  0  0  0  0  2  0  0  0  0  0  0
  189.7030  174.5750  145.4710 C   0  0  0  0  0  2  0  0  0  0  0  0
  190.5830  175.5810  144.7450 C   0  0  0  0  0  2  0  0  0  0  0  0
  187.9940  177.1330  143.0080 C   0  0  1  0  0  0  0  0  0  0  0  0
  190.3400  177.3260  143.0000 C   0  0  0  0  0  2  0  0  0  0  0  0
  189.9510  177.9160  145.3710 C   0  0  0  0  0  1  0  0  0  0  0  0
  189.7970  176.8200  144.3280 C   0  0  2  0  0  0  0  0  0  0  0  0
  188.9310  178.6930  141.3910 F   0  0  0  0  0  0  0  0  0  0  0  0
  189.1140  177.5690  142.1760 C   0  0  2  0  0  0  0  0  0  0  0  0
  188.3560  176.4300  141.8370 O   0  0  0  0  0  0  0  0  0  0  0  0
  188.4300  176.4920  144.1790 O   0  0  0  0  0  0  0  0  0  0  0  0
  185.5970  176.7470  142.6880 O   0  0  0  0  0  1  0  0  0  0  0  0
  186.5660  177.7130  142.9760 C   0  0  1  0  0  3  0  0  0  0  0  0
  186.1730  178.5100  144.2320 C   0  0  1  0  0  3  0  0  0  0  0  0
  185.8480  179.9590  143.9070 C   0  0  0  0  0  1  0  0  0  0  0  0
  183.3360  178.6170  146.5080 O   0  0  0  0  0  1  0  0  0  0  0  0
  184.7000  178.6990  146.2320 C   0  0  1  0  0  3  0  0  0  0  0  0
  185.3260  177.3280  146.3920 C   0  0  1  0  0  3  0  0  0  0  0  0
  185.0060  177.8760  144.9950 C   0  0  2  0  0  3  0  0  0  0  0  0
  186.7780  177.4790  146.8270 C   0  0  0  0  0  2  0  0  0  0  0  0
  187.2100  176.2290  147.5670 C   0  0  0  0  0  1  0  0  0  0  0  0
  1 11  1  1  0  0  0
  1 31  1  0  0  0  0
  2  4  1  0  0  0  0
  2  5  1  0  0  0  0
  3  7  1  1  0  0  0
  4  6  1  0  0  0  0
  5  1  1  6  0  0  0
  5  3  1  0  0  0  0
  6  3  1  0  0  0  0
  7  8  1  0  0  0  0
  8  9  1  0  0  0  0
 10  9  1  0  0  0  0
 13 15  1  0  0  0  0
 13 12  1  0  0  0  0
 14 19  1  6  0  0  0
 14 17  1  0  0  0  0
 15 16  1  6  0  0  0
 15 14  1  0  0  0  0
 17 12  1  6  0  0  0
 17 20  1  0  0  0  0
 18 21  1  0  0  0  0
 18 23  1  6  0  0  0
 19 18  1  0  0  0  0
 20 21  1  0  0  0  0
 21 11  1  1  0  0  0
 23 22  1  1  0  0  0
 24 23  1  6  0  0  0
 24 25  1  0  0  0  0
 24 26  1  0  0  0  0
 25 26  1  0  0  0  0
 26 29  1  1  0  0  0
 27 28  1  0  0  0  0
 29 27  1  0  0  0  0
 30 27  2  0  0  0  0
 32 33  1  6  0  0  0
 32 31  1  0  0  0  0
 32 35  1  0  0  0  0
 34 33  1  0  0  0  0
 35 36  1  0  0  0  0
 37 36  1  0  0  0  0
 38 47  1  1  0  0  0
 38 45  1  0  0  0  0
 39 41  1  0  0  0  0
 41 37  1  0  0  0  0
 41 40  1  1  0  0  0
 43 42  1  6  0  0  0
 43 39  1  0  0  0  0
 43 38  1  0  0  0  0
 44 43  1  0  0  0  0
 44 38  1  0  0  0  0
 45 41  1  0  0  0  0
 47 46  1  1  0  0  0
 47 48  1  0  0  0  0
 48 49  1  6  0  0  0
 51 52  1  0  0  0  0
 51 50  1  1  0  0  0
 52 54  1  6  0  0  0
 53 48  1  6  0  0  0
 53 51  1  0  0  0  0
 53 52  1  0  0  0  0
 54 55  1  0  0  0  0
M  END
>  <MODEL>
6

>  <REMARK>
 VINA RESULT:      -5.7      2.534      4.925
  Name = 
  20 active torsions:
  status: ('A' for Active; 'I' for Inactive)
    1  A    between atoms: C_1  and  C_38
    2  A    between atoms: C_2  and  C_19
    3  A    between atoms: C_2  and  C_28
    4  A    between atoms: C_2  and  C_44
    5  A    between atoms: C_4  and  C_40
    6  A    between atoms: C_5  and  C_40
    7  A    between atoms: C_5  and  C_46
    8  A    between atoms: C_6  and  C_14
    9  A    between atoms: C_6  and  C_46
   10  A    between atoms: C_8  and  C_22
   11  A    between atoms: C_13  and  C_52
   12  A    between atoms: C_19  and  C_40
   13  A    between atoms: C_21  and  C_38
   14  A    between atoms: C_21  and  C_42
   15  A    between atoms: C_27  and  C_31
   16  A    between atoms: C_28  and  C_49
   17  A    between atoms: C_31  and  C_51
   18  A    between atoms: N_32  and  C_48
   19  A    between atoms: C_33  and  C_52
   20  A    between atoms: C_35  and  C_51
                            x       y       z     vdW  Elec       q    Type
                         _______ _______ _______ _____ _____    ______ ____

>  <TORSDO>
F 20

$$$$
=
 OpenBabel11052419503D

 55 61  0  0  1  0  0  0  0  0999 V2000
  191.7190  172.5300  142.8020 C   0  0  1  0  0  3  0  0  0  0  0  0
  190.2290  171.9760  144.6430 O   0  0  0  0  0  0  0  0  0  0  0  0
  191.1080  174.1910  144.5970 C   0  0  1  0  0  3  0  0  0  0  0  0
  189.6410  172.6830  145.7000 C   0  0  0  0  0  2  0  0  0  0  0  0
  191.3600  172.7310  144.2770 C   0  0  2  0  0  3  0  0  0  0  0  0
  189.9020  174.1590  145.4950 C   0  0  0  0  0  2  0  0  0  0  0  0
  192.3080  174.7650  145.3290 C   0  0  0  0  0  2  0  0  0  0  0  0
  192.4080  176.2630  145.0830 C   0  0  0  0  0  2  0  0  0  0  0  0
  191.7960  176.6230  143.7410 C   0  0  0  0  0  2  0  0  0  0  0  0
  191.5190  178.1160  143.6650 C   0  0  0  0  0  1  0  0  0  0  0  0
  192.7500  171.4210  142.6720 C   0  0  0  0  0  2  0  0  0  0  0  0
  195.3280  175.1200  143.3140 C   0  0  0  0  0  2  0  0  0  0  0  0
  195.4130  176.3760  142.4640 C   0  0  0  0  0  2  0  0  0  0  0  0
  194.0870  174.8010  141.2320 C   0  0  2  0  0  3  0  0  0  0  0  0
  195.0850  175.9390  141.0530 C   0  0  2  0  0  3  0  0  0  0  0  0
  196.2560  175.4950  140.4360 O   0  0  0  0  0  1  0  0  0  0  0  0
  194.3210  174.2150  142.6300 C   0  0  1  0  0  3  0  0  0  0  0  0
  193.3480  172.5050  140.4940 C   0  0  2  0  0  3  0  0  0  0  0  0
  194.1280  173.7660  140.1000 C   0  0  0  0  0  2  0  0  0  0  0  0
  194.8540  172.7850  142.5770 C   0  0  0  0  0  2  0  0  0  0  0  0
  193.9060  171.8690  141.7900 C   0  0  1  0  0  3  0  0  0  0  0  0
  194.1420  170.2400  139.6460 C   0  0  0  0  0  1  0  0  0  0  0  0
  193.3180  171.4960  139.3320 C   0  0  1  0  0  3  0  0  0  0  0  0
  191.8680  171.2260  138.8640 C   0  0  2  0  0  3  0  0  0  0  0  0
  191.3890  169.8250  139.2020 C   0  0  0  0  0  2  0  0  0  0  0  0
  191.7680  170.1740  137.7720 C   0  0  1  0  0  3  0  0  0  0  0  0
  190.5230  171.3580  135.9290 C   0  0  0  0  0  0  0  0  0  0  0  0
  189.3200  171.5430  135.1920 N   0  0  0  0  0  1  0  0  0  0  0  0
  190.5620  170.4080  136.9930 N   0  0  0  0  0  2  0  0  0  0  0  0
  191.5430  172.0350  135.6390 O   0  0  0  0  0  0  0  0  0  0  0  0
  190.4940  172.2190  141.9430 C   0  0  0  0  0  2  0  0  0  0  0  0
  189.8450  173.5050  141.4600 C   0  0  1  0  0  3  0  0  0  0  0  0
  189.8180  173.5530  139.9400 C   0  0  0  0  0  2  0  0  0  0  0  0
  188.6610  172.9380  139.4600 O   0  0  0  0  0  1  0  0  0  0  0  0
  188.4350  173.5920  142.0050 C   0  0  0  0  0  2  0  0  0  0  0  0
  188.1890  174.9900  142.5320 C   0  0  0  0  0  2  0  0  0  0  0  0
  188.5850  176.0190  141.4840 C   0  0  0  0  0  2  0  0  0  0  0  0
  185.9590  177.9210  142.7520 C   0  0  1  0  0  0  0  0  0  0  0  0
  186.8370  177.5390  140.6010 C   0  0  0  0  0  2  0  0  0  0  0  0
  188.8680  178.4960  141.6420 C   0  0  0  0  0  1  0  0  0  0  0  0
  187.8710  177.3480  141.7010 C   0  0  2  0  0  0  0  0  0  0  0  0
  184.7810  178.9940  140.9120 F   0  0  0  0  0  0  0  0  0  0  0  0
  185.6030  177.9660  141.3350 C   0  0  2  0  0  0  0  0  0  0  0  0
  185.0300  177.0100  142.1980 O   0  0  0  0  0  0  0  0  0  0  0  0
  187.2230  177.3440  142.9570 O   0  0  0  0  0  0  0  0  0  0  0  0
  184.0030  178.6150  144.0530 O   0  0  0  0  0  1  0  0  0  0  0  0
  185.3730  178.8200  143.8590 C   0  0  1  0  0  3  0  0  0  0  0  0
  186.1220  178.7480  145.2010 C   0  0  1  0  0  3  0  0  0  0  0  0
  185.6210  179.7900  146.1880 C   0  0  0  0  0  1  0  0  0  0  0  0
  185.9220  176.4810  148.0400 O   0  0  0  0  0  1  0  0  0  0  0  0
  186.5870  177.4280  147.2620 C   0  0  1  0  0  3  0  0  0  0  0  0
  187.4080  176.7190  146.2030 C   0  0  1  0  0  3  0  0  0  0  0  0
  186.0620  177.3580  145.8400 C   0  0  2  0  0  3  0  0  0  0  0  0
  188.6330  177.5570  145.8630 C   0  0  0  0  0  2  0  0  0  0  0  0
  189.5930  177.5370  147.0360 C   0  0  0  0  0  1  0  0  0  0  0  0
  1 31  1  6  0  0  0
  2  4  1  0  0  0  0
  3  7  1  1  0  0  0
  3  6  1  0  0  0  0
  5  1  1  6  0  0  0
  5  3  1  0  0  0  0
  5  2  1  0  0  0  0
  6  4  1  0  0  0  0
  8  7  1  0  0  0  0
  9  8  1  0  0  0  0
 10  9  1  0  0  0  0
 11  1  1  0  0  0  0
 13 12  1  0  0  0  0
 14 19  1  6  0  0  0
 14 17  1  0  0  0  0
 15 16  1  1  0  0  0
 15 14  1  0  0  0  0
 15 13  1  0  0  0  0
 17 20  1  6  0  0  0
 17 12  1  0  0  0  0
 18 23  1  6  0  0  0
 18 21  1  0  0  0  0
 19 18  1  0  0  0  0
 21 20  1  0  0  0  0
 21 11  1  1  0  0  0
 23 22  1  1  0  0  0
 24 25  1  0  0  0  0
 24 23  1  1  0  0  0
 26 29  1  6  0  0  0
 26 24  1  0  0  0  0
 26 25  1  0  0  0  0
 27 29  1  0  0  0  0
 28 27  1  0  0  0  0
 30 27  2  0  0  0  0
 32 33  1  6  0  0  0
 32 31  1  0  0  0  0
 32 35  1  0  0  0  0
 34 33  1  0  0  0  0
 35 36  1  0  0  0  0
 37 41  1  0  0  0  0
 37 36  1  0  0  0  0
 38 45  1  0  0  0  0
 38 47  1  1  0  0  0
 39 43  1  0  0  0  0
 39 41  1  0  0  0  0
 41 40  1  6  0  0  0
 41 45  1  0  0  0  0
 43 42  1  6  0  0  0
 43 44  1  0  0  0  0
 43 38  1  0  0  0  0
 44 38  1  0  0  0  0
 47 46  1  1  0  0  0
 47 48  1  0  0  0  0
 48 49  1  1  0  0  0
 51 50  1  1  0  0  0
 52 54  1  6  0  0  0
 52 51  1  0  0  0  0
 53 48  1  6  0  0  0
 53 52  1  0  0  0  0
 53 51  1  0  0  0  0
 54 55  1  0  0  0  0
M  END
>  <MODEL>
7

>  <REMARK>
 VINA RESULT:      -5.7      2.788      4.402
  Name = 
  20 active torsions:
  status: ('A' for Active; 'I' for Inactive)
    1  A    between atoms: C_1  and  C_38
    2  A    between atoms: C_2  and  C_19
    3  A    between atoms: C_2  and  C_28
    4  A    between atoms: C_2  and  C_44
    5  A    between atoms: C_4  and  C_40
    6  A    between atoms: C_5  and  C_40
    7  A    between atoms: C_5  and  C_46
    8  A    between atoms: C_6  and  C_14
    9  A    between atoms: C_6  and  C_46
   10  A    between atoms: C_8  and  C_22
   11  A    between atoms: C_13  and  C_52
   12  A    between atoms: C_19  and  C_40
   13  A    between atoms: C_21  and  C_38
   14  A    between atoms: C_21  and  C_42
   15  A    between atoms: C_27  and  C_31
   16  A    between atoms: C_28  and  C_49
   17  A    between atoms: C_31  and  C_51
   18  A    between atoms: N_32  and  C_48
   19  A    between atoms: C_33  and  C_52
   20  A    between atoms: C_35  and  C_51
                            x       y       z     vdW  Elec       q    Type
                         _______ _______ _______ _____ _____    ______ ____

>  <TORSDO>
F 20

$$$$
=
 OpenBabel11052419503D

 55 61  0  0  1  0  0  0  0  0999 V2000
  191.5560  174.4350  143.2570 C   0  0  1  0  0  3  0  0  0  0  0  0
  193.2420  175.4960  141.8630 O   0  0  0  0  0  0  0  0  0  0  0  0
  193.9040  173.5400  143.0530 C   0  0  1  0  0  3  0  0  0  0  0  0
  194.5560  175.1940  141.4780 C   0  0  0  0  0  2  0  0  0  0  0  0
  193.0340  174.7810  143.0580 C   0  0  2  0  0  3  0  0  0  0  0  0
  194.8790  173.7890  141.9360 C   0  0  0  0  0  2  0  0  0  0  0  0
  194.6270  173.4210  144.3830 C   0  0  0  0  0  2  0  0  0  0  0  0
  194.2310  172.1300  145.0840 C   0  0  0  0  0  2  0  0  0  0  0  0
  194.3530  170.9510  144.1350 C   0  0  0  0  0  2  0  0  0  0  0  0
  193.5280  169.7770  144.6370 C   0  0  0  0  0  1  0  0  0  0  0  0
  190.7150  175.6970  143.1550 C   0  0  0  0  0  2  0  0  0  0  0  0
  186.6150  177.2390  141.9170 C   0  0  0  0  0  2  0  0  0  0  0  0
  185.7830  178.3400  142.5530 C   0  0  0  0  0  2  0  0  0  0  0  0
  187.6320  177.9350  144.0270 C   0  0  2  0  0  3  0  0  0  0  0  0
  186.1650  178.3470  144.0160 C   0  0  2  0  0  3  0  0  0  0  0  0
  185.3720  177.4180  144.6930 O   0  0  0  0  0  1  0  0  0  0  0  0
  187.8830  177.1390  142.7410 C   0  0  1  0  0  3  0  0  0  0  0  0
  189.4280  176.5480  145.1280 C   0  0  2  0  0  3  0  0  0  0  0  0
  188.0560  177.2100  145.3110 C   0  0  0  0  0  2  0  0  0  0  0  0
  188.2100  175.6740  143.0210 C   0  0  0  0  0  2  0  0  0  0  0  0
  189.4270  175.5450  143.9500 C   0  0  1  0  0  3  0  0  0  0  0  0
  188.9330  174.7800  146.8910 C   0  0  0  0  0  1  0  0  0  0  0  0
  189.8940  175.8870  146.4380 C   0  0  1  0  0  3  0  0  0  0  0  0
  191.3810  175.4680  146.3530 C   0  0  2  0  0  3  0  0  0  0  0  0
  191.9530  175.0460  147.6960 C   0  0  0  0  0  2  0  0  0  0  0  0
  192.3180  176.3990  147.1050 C   0  0  1  0  0  3  0  0  0  0  0  0
  193.9720  177.0350  145.3130 C   0  0  0  0  0  0  0  0  0  0  0  0
  195.2850  176.9370  144.7750 N   0  0  0  0  0  1  0  0  0  0  0  0
  193.6430  176.3260  146.5080 N   0  0  0  0  0  2  0  0  0  0  0  0
  193.1090  177.7440  144.7330 O   0  0  0  0  0  0  0  0  0  0  0  0
  191.0660  173.3870  142.2590 C   0  0  0  0  0  2  0  0  0  0  0  0
  191.0640  172.0080  142.8960 C   0  0  1  0  0  3  0  0  0  0  0  0
  190.6570  172.0940  144.3580 C   0  0  0  0  0  2  0  0  0  0  0  0
  189.2770  171.9330  144.4860 O   0  0  0  0  0  1  0  0  0  0  0  0
  190.1030  171.1100  142.1450 C   0  0  0  0  0  2  0  0  0  0  0  0
  190.8370  169.8650  141.6910 C   0  0  0  0  0  2  0  0  0  0  0  0
  192.1120  170.2500  140.9560 C   0  0  0  0  0  2  0  0  0  0  0  0
  190.5630  171.5370  138.1160 C   0  0  1  0  0  0  0  0  0  0  0  0
  190.7300  169.3970  139.0820 C   0  0  0  0  0  2  0  0  0  0  0  0
  193.1450  169.8080  138.7240 C   0  0  0  0  0  1  0  0  0  0  0  0
  191.9000  170.3000  139.4470 C   0  0  2  0  0  0  0  0  0  0  0  0
  189.3410  169.7600  136.9890 F   0  0  0  0  0  0  0  0  0  0  0  0
  189.9000  170.2360  138.1610 C   0  0  2  0  0  0  0  0  0  0  0  0
  189.3000  171.3780  138.7300 O   0  0  0  0  0  0  0  0  0  0  0  0
  191.6100  171.6250  139.0480 O   0  0  0  0  0  0  0  0  0  0  0  0
  189.6220  173.5370  137.0610 O   0  0  0  0  0  1  0  0  0  0  0  0
  190.5620  172.5110  136.9200 C   0  0  1  0  0  3  0  0  0  0  0  0
  191.9430  173.0910  136.5690 C   0  0  1  0  0  3  0  0  0  0  0  0
  192.2020  173.0750  135.0710 C   0  0  0  0  0  1  0  0  0  0  0  0
  193.2260  176.4910  136.3890 O   0  0  0  0  0  1  0  0  0  0  0  0
  193.3970  175.1120  136.5050 C   0  0  1  0  0  3  0  0  0  0  0  0
  193.3990  174.7310  137.9720 C   0  0  1  0  0  3  0  0  0  0  0  0
  192.1470  174.5080  137.1140 C   0  0  2  0  0  3  0  0  0  0  0  0
  194.2690  173.4980  138.1770 C   0  0  0  0  0  2  0  0  0  0  0  0
  195.7280  173.9100  138.1750 C   0  0  0  0  0  1  0  0  0  0  0  0
  1 31  1  6  0  0  0
  2  5  1  0  0  0  0
  3  5  1  0  0  0  0
  3  7  1  1  0  0  0
  4  2  1  0  0  0  0
  4  6  1  0  0  0  0
  5  1  1  6  0  0  0
  6  3  1  0  0  0  0
  7  8  1  0  0  0  0
  9 10  1  0  0  0  0
  9  8  1  0  0  0  0
 11  1  1  0  0  0  0
 12 13  1  0  0  0  0
 13 15  1  0  0  0  0
 14 19  1  1  0  0  0
 15 14  1  0  0  0  0
 15 16  1  1  0  0  0
 17 12  1  6  0  0  0
 17 20  1  0  0  0  0
 17 14  1  0  0  0  0
 18 19  1  0  0  0  0
 18 23  1  1  0  0  0
 20 21  1  0  0  0  0
 21 11  1  6  0  0  0
 21 18  1  0  0  0  0
 23 22  1  6  0  0  0
 24 23  1  1  0  0  0
 24 26  1  0  0  0  0
 24 25  1  0  0  0  0
 26 29  1  6  0  0  0
 26 25  1  0  0  0  0
 27 29  1  0  0  0  0
 28 27  1  0  0  0  0
 30 27  2  0  0  0  0
 31 32  1  0  0  0  0
 32 35  1  6  0  0  0
 32 33  1  0  0  0  0
 33 34  1  0  0  0  0
 36 35  1  0  0  0  0
 37 36  1  0  0  0  0
 38 47  1  6  0  0  0
 38 43  1  0  0  0  0
 38 44  1  0  0  0  0
 38 45  1  0  0  0  0
 39 41  1  0  0  0  0
 41 40  1  6  0  0  0
 41 37  1  0  0  0  0
 43 42  1  6  0  0  0
 43 44  1  0  0  0  0
 43 39  1  0  0  0  0
 45 41  1  0  0  0  0
 47 46  1  1  0  0  0
 48 49  1  6  0  0  0
 48 47  1  0  0  0  0
 51 50  1  1  0  0  0
 51 53  1  0  0  0  0
 51 52  1  0  0  0  0
 52 54  1  6  0  0  0
 53 48  1  6  0  0  0
 53 52  1  0  0  0  0
 55 54  1  0  0  0  0
M  END
>  <MODEL>
8

>  <REMARK>
 VINA RESULT:      -5.6      3.186      8.466
  Name = 
  20 active torsions:
  status: ('A' for Active; 'I' for Inactive)
    1  A    between atoms: C_1  and  C_38
    2  A    between atoms: C_2  and  C_19
    3  A    between atoms: C_2  and  C_28
    4  A    between atoms: C_2  and  C_44
    5  A    between atoms: C_4  and  C_40
    6  A    between atoms: C_5  and  C_40
    7  A    between atoms: C_5  and  C_46
    8  A    between atoms: C_6  and  C_14
    9  A    between atoms: C_6  and  C_46
   10  A    between atoms: C_8  and  C_22
   11  A    between atoms: C_13  and  C_52
   12  A    between atoms: C_19  and  C_40
   13  A    between atoms: C_21  and  C_38
   14  A    between atoms: C_21  and  C_42
   15  A    between atoms: C_27  and  C_31
   16  A    between atoms: C_28  and  C_49
   17  A    between atoms: C_31  and  C_51
   18  A    between atoms: N_32  and  C_48
   19  A    between atoms: C_33  and  C_52
   20  A    between atoms: C_35  and  C_51
                            x       y       z     vdW  Elec       q    Type
                         _______ _______ _______ _____ _____    ______ ____

>  <TORSDO>
F 20

$$$$
=
 OpenBabel11052419503D

 55 61  0  0  1  0  0  0  0  0999 V2000
  193.7150  173.5630  143.8610 C   0  0  1  0  0  3  0  0  0  0  0  0
  196.1110  173.1690  144.0100 O   0  0  0  0  0  0  0  0  0  0  0  0
  195.4020  174.9860  142.6420 C   0  0  1  0  0  3  0  0  0  0  0  0
  197.2620  173.8220  143.5490 C   0  0  0  0  0  2  0  0  0  0  0  0
  195.0760  173.5990  143.1580 C   0  0  2  0  0  3  0  0  0  0  0  0
  196.8570  175.1620  142.9760 C   0  0  0  0  0  2  0  0  0  0  0  0
  195.1860  175.0330  141.1390 C   0  0  0  0  0  2  0  0  0  0  0  0
  196.3570  175.7270  140.4600 C   0  0  0  0  0  2  0  0  0  0  0  0
  196.8820  174.8820  139.3130 C   0  0  0  0  0  2  0  0  0  0  0  0
  195.9650  174.9980  138.1050 C   0  0  0  0  0  1  0  0  0  0  0  0
  192.9790  172.2880  143.4860 C   0  0  0  0  0  2  0  0  0  0  0  0
  189.3820  174.8560  142.3900 C   0  0  0  0  0  2  0  0  0  0  0  0
  187.9990  174.4120  141.9480 C   0  0  0  0  0  2  0  0  0  0  0  0
  189.3740  172.4460  141.9830 C   0  0  2  0  0  3  0  0  0  0  0  0
  188.1980  173.0840  141.2520 C   0  0  2  0  0  3  0  0  0  0  0  0
  188.5030  173.3200  139.9100 O   0  0  0  0  0  1  0  0  0  0  0  0
  190.1820  173.5870  142.6130 C   0  0  1  0  0  3  0  0  0  0  0  0
  191.5280  171.1500  141.7900 C   0  0  2  0  0  3  0  0  0  0  0  0
  190.2010  171.4980  141.1050 C   0  0  0  0  0  2  0  0  0  0  0  0
  191.5690  173.7270  141.9900 C   0  0  0  0  0  2  0  0  0  0  0  0
  192.3610  172.4160  142.1010 C   0  0  1  0  0  3  0  0  0  0  0  0
  192.3190  168.7390  141.5860 C   0  0  0  0  0  1  0  0  0  0  0  0
  192.3260  170.1360  140.9510 C   0  0  1  0  0  3  0  0  0  0  0  0
  191.8970  170.1800  139.4650 C   0  0  2  0  0  3  0  0  0  0  0  0
  193.0280  169.8320  138.5130 C   0  0  0  0  0  2  0  0  0  0  0  0
  192.5820  171.2770  138.6670 C   0  0  1  0  0  3  0  0  0  0  0  0
  191.1680  172.9520  137.4240 C   0  0  0  0  0  0  0  0  0  0  0  0
  190.3560  173.2660  136.2990 N   0  0  0  0  0  1  0  0  0  0  0  0
  191.7380  171.6480  137.5430 N   0  0  0  0  0  2  0  0  0  0  0  0
  191.3780  173.8240  138.3070 O   0  0  0  0  0  0  0  0  0  0  0  0
  193.8430  173.6770  145.3790 C   0  0  0  0  0  2  0  0  0  0  0  0
  193.4720  175.0770  145.8390 C   0  0  1  0  0  3  0  0  0  0  0  0
  194.7190  175.8720  146.1920 C   0  0  0  0  0  2  0  0  0  0  0  0
  194.3660  177.1310  146.6780 O   0  0  0  0  0  1  0  0  0  0  0  0
  192.7060  175.7800  144.7380 C   0  0  0  0  0  2  0  0  0  0  0  0
  191.3780  176.2610  145.2840 C   0  0  0  0  0  2  0  0  0  0  0  0
  190.5820  175.0860  145.8300 C   0  0  0  0  0  2  0  0  0  0  0  0
  187.5790  176.8460  145.9120 C   0  0  1  0  0  0  0  0  0  0  0  0
  189.5640  176.9040  147.1740 C   0  0  0  0  0  2  0  0  0  0  0  0
  188.9320  174.5560  147.6300 C   0  0  0  0  0  1  0  0  0  0  0  0
  189.3120  175.5450  146.5390 C   0  0  2  0  0  0  0  0  0  0  0  0
  187.6900  178.5480  147.6470 F   0  0  0  0  0  0  0  0  0  0  0  0
  188.3710  177.7160  146.7770 C   0  0  2  0  0  0  0  0  0  0  0  0
  188.2330  177.9890  145.4010 O   0  0  0  0  0  0  0  0  0  0  0  0
  188.2560  175.6540  145.6050 O   0  0  0  0  0  0  0  0  0  0  0  0
  185.3960  177.3440  146.9060 O   0  0  0  0  0  1  0  0  0  0  0  0
  186.0450  176.8780  145.7580 C   0  0  1  0  0  3  0  0  0  0  0  0
  185.5450  177.6340  144.5140 C   0  0  1  0  0  3  0  0  0  0  0  0
  185.5630  179.1410  144.7200 C   0  0  0  0  0  1  0  0  0  0  0  0
  187.7250  178.4160  141.7080 O   0  0  0  0  0  1  0  0  0  0  0  0
  186.5180  178.5170  142.3980 C   0  0  1  0  0  3  0  0  0  0  0  0
  185.5760  177.4290  141.9190 C   0  0  1  0  0  3  0  0  0  0  0  0
  186.3270  177.2750  143.2480 C   0  0  2  0  0  3  0  0  0  0  0  0
  184.1360  177.9110  142.0440 C   0  0  0  0  0  2  0  0  0  0  0  0
  183.6430  178.3660  140.6850 C   0  0  0  0  0  1  0  0  0  0  0  0
  1 11  1  1  0  0  0
  1 31  1  0  0  0  0
  3  7  1  6  0  0  0
  3  6  1  0  0  0  0
  3  5  1  0  0  0  0
  4  2  1  0  0  0  0
  5  1  1  1  0  0  0
  5  2  1  0  0  0  0
  6  4  1  0  0  0  0
  8  7  1  0  0  0  0
  9  8  1  0  0  0  0
 10  9  1  0  0  0  0
 12 17  1  0  0  0  0
 13 12  1  0  0  0  0
 14 19  1  6  0  0  0
 14 17  1  0  0  0  0
 15 16  1  6  0  0  0
 15 13  1  0  0  0  0
 15 14  1  0  0  0  0
 17 20  1  6  0  0  0
 18 23  1  6  0  0  0
 18 21  1  0  0  0  0
 19 18  1  0  0  0  0
 20 21  1  0  0  0  0
 21 11  1  1  0  0  0
 23 22  1  1  0  0  0
 24 23  1  1  0  0  0
 25 26  1  0  0  0  0
 25 24  1  0  0  0  0
 26 29  1  6  0  0  0
 26 24  1  0  0  0  0
 27 29  1  0  0  0  0
 27 30  2  0  0  0  0
 28 27  1  0  0  0  0
 31 32  1  0  0  0  0
 32 35  1  6  0  0  0
 32 33  1  0  0  0  0
 33 34  1  0  0  0  0
 35 36  1  0  0  0  0
 36 37  1  0  0  0  0
 37 41  1  0  0  0  0
 38 47  1  1  0  0  0
 38 43  1  0  0  0  0
 41 39  1  0  0  0  0
 41 40  1  1  0  0  0
 43 39  1  0  0  0  0
 43 42  1  1  0  0  0
 44 38  1  0  0  0  0
 44 43  1  0  0  0  0
 45 38  1  0  0  0  0
 45 41  1  0  0  0  0
 47 46  1  1  0  0  0
 48 49  1  1  0  0  0
 48 47  1  0  0  0  0
 51 50  1  6  0  0  0
 51 53  1  0  0  0  0
 52 54  1  1  0  0  0
 52 51  1  0  0  0  0
 52 53  1  0  0  0  0
 53 48  1  1  0  0  0
 55 54  1  0  0  0  0
M  END
>  <MODEL>
9

>  <REMARK>
 VINA RESULT:      -5.6      2.506      6.088
  Name = 
  20 active torsions:
  status: ('A' for Active; 'I' for Inactive)
    1  A    between atoms: C_1  and  C_38
    2  A    between atoms: C_2  and  C_19
    3  A    between atoms: C_2  and  C_28
    4  A    between atoms: C_2  and  C_44
    5  A    between atoms: C_4  and  C_40
    6  A    between atoms: C_5  and  C_40
    7  A    between atoms: C_5  and  C_46
    8  A    between atoms: C_6  and  C_14
    9  A    between atoms: C_6  and  C_46
   10  A    between atoms: C_8  and  C_22
   11  A    between atoms: C_13  and  C_52
   12  A    between atoms: C_19  and  C_40
   13  A    between atoms: C_21  and  C_38
   14  A    between atoms: C_21  and  C_42
   15  A    between atoms: C_27  and  C_31
   16  A    between atoms: C_28  and  C_49
   17  A    between atoms: C_31  and  C_51
   18  A    between atoms: N_32  and  C_48
   19  A    between atoms: C_33  and  C_52
   20  A    between atoms: C_35  and  C_51
                            x       y       z     vdW  Elec       q    Type
                         _______ _______ _______ _____ _____    ______ ____

>  <TORSDO>
F 20

$$$$
