=
 OpenBabel11052418143D

 28 31  0  0  1  0  0  0  0  0999 V2000
  191.6860  176.0080  144.0700 C   0  0  0  0  0  0  0  0  0  0  0  0
  187.7040  177.6960  146.2970 C   0  0  0  0  0  2  0  0  0  0  0  0
  188.1560  175.7800  140.8070 O   0  0  0  0  0  0  0  0  0  0  0  0
  186.2070  176.5970  144.5890 C   0  0  2  0  0  3  0  0  0  0  0  0
  188.3510  177.8190  143.9010 C   0  0  1  0  0  3  0  0  0  0  0  0
  185.1810  177.3750  146.4360 C   0  0  2  0  0  3  0  0  0  0  0  0
  187.6650  176.9410  144.9590 C   0  0  1  0  0  3  0  0  0  0  0  0
  186.0300  176.3520  143.0940 C   0  0  0  0  0  2  0  0  0  0  0  0
  185.3390  177.5980  145.0510 O   0  0  0  0  0  0  0  0  0  0  0  0
  189.8870  175.8220  142.4330 C   0  0  0  0  0  0  0  0  0  0  0  0
  189.8760  177.7800  144.0390 C   0  0  0  0  0  2  0  0  0  0  0  0
  186.5050  177.4410  142.3370 O   0  0  0  0  0  0  0  0  0  0  0  0
  191.6960  174.2060  142.4440 C   0  0  0  0  0  3  0  0  0  0  0  0
  188.6230  176.3130  141.8490 C   0  0  0  0  0  0  0  0  0  0  0  0
  190.5000  174.6790  141.9060 C   0  0  0  0  0  3  0  0  0  0  0  0
  184.2840  178.4460  147.0200 C   0  0  0  0  0  1  0  0  0  0  0  0
  186.5190  177.3480  147.2040 C   0  0  0  0  0  2  0  0  0  0  0  0
  187.9130  177.5000  142.4580 C   0  0  2  0  0  3  0  0  0  0  0  0
  192.2890  174.8710  143.5170 C   0  0  0  0  0  3  0  0  0  0  0  0
  190.4770  176.4930  143.5270 C   0  0  0  0  0  0  0  0  0  0  0  0
  192.3690  176.7200  145.2030 C   0  0  0  0  0  2  0  0  0  0  0  0
  192.8070  175.7690  146.2830 C   0  0  0  0  0  3  0  0  0  0  0  0
  192.0140  175.3550  147.2780 C   0  0  0  0  0  3  0  0  0  0  0  0
  190.5990  175.8180  147.4290 C   0  0  0  0  0  2  0  0  0  0  0  0
  189.6430  174.6440  147.3430 C   0  0  0  0  0  2  0  0  0  0  0  0
  189.3240  174.3320  145.8910 C   0  0  0  0  0  2  0  0  0  0  0  0
  189.3790  172.5900  144.2740 F   0  0  0  0  0  0  0  0  0  0  0  0
  189.8250  172.9460  145.5350 C   0  0  0  0  0  2  0  0  0  0  0  0
  1 21  1  0  0  0  0
  2 17  1  0  0  0  0
  3 14  2  0  0  0  0
  4  8  1  6  0  0  0
  4  7  1  0  0  0  0
  4  9  1  0  0  0  0
  5 11  1  6  0  0  0
  5  7  1  0  0  0  0
  6 16  1  1  0  0  0
  6 17  1  0  0  0  0
  7  2  1  1  0  0  0
  9  6  1  0  0  0  0
 10 20  2  0  0  0  0
 12 18  1  0  0  0  0
 12  8  1  0  0  0  0
 13 19  1  0  0  0  0
 14 10  1  0  0  0  0
 15 10  1  0  0  0  0
 15 13  2  0  0  0  0
 18 14  1  1  0  0  0
 18  5  1  0  0  0  0
 19  1  2  0  0  0  0
 20 11  1  0  0  0  0
 20  1  1  0  0  0  0
 21 22  1  0  0  0  0
 22 23  2  0  0  0  0
 23 24  1  0  0  0  0
 25 24  1  0  0  0  0
 26 25  1  0  0  0  0
 27 28  1  0  0  0  0
 28 26  1  0  0  0  0
M  END
>  <MODEL>
1

>  <REMARK>
 VINA RESULT:      -7.1      0.000      0.000
  Name = 
  6 active torsions:
  status: ('A' for Active; 'I' for Inactive)
    1  A    between atoms: C_1  and  C_2
    2  A    between atoms: C_2  and  C_3
    3  A    between atoms: C_6  and  C_7
    4  A    between atoms: C_6  and  C_11
    5  A    between atoms: C_7  and  C_28
    6  A    between atoms: C_8  and  C_11
                            x       y       z     vdW  Elec       q    Type
                         _______ _______ _______ _____ _____    ______ ____

>  <TORSDO>
F 6

$$$$
=
 OpenBabel11052418143D

 28 31  0  0  1  0  0  0  0  0999 V2000
  189.9130  174.7500  142.4100 C   0  0  0  0  0  0  0  0  0  0  0  0
  187.1790  176.9870  145.7550 C   0  0  0  0  0  2  0  0  0  0  0  0
  186.5490  177.1670  139.9580 O   0  0  0  0  0  0  0  0  0  0  0  0
  185.2950  177.2870  144.1030 C   0  0  2  0  0  3  0  0  0  0  0  0
  187.7350  177.6890  143.4360 C   0  0  1  0  0  3  0  0  0  0  0  0
  184.7850  177.6940  146.2590 C   0  0  2  0  0  3  0  0  0  0  0  0
  186.7640  176.8500  144.2810 C   0  0  1  0  0  3  0  0  0  0  0  0
  184.9780  177.6900  142.6680 C   0  0  0  0  0  2  0  0  0  0  0  0
  184.9810  178.3140  145.0060 O   0  0  0  0  0  0  0  0  0  0  0  0
  188.1680  175.9150  141.1640 C   0  0  0  0  0  0  0  0  0  0  0  0
  189.0860  176.9860  143.2660 C   0  0  0  0  0  2  0  0  0  0  0  0
  185.8650  178.6840  142.2080 O   0  0  0  0  0  0  0  0  0  0  0  0
  189.0640  173.8170  140.3350 C   0  0  0  0  0  3  0  0  0  0  0  0
  187.2390  177.0510  141.0070 C   0  0  0  0  0  0  0  0  0  0  0  0
  188.1890  174.8950  140.2040 C   0  0  0  0  0  3  0  0  0  0  0  0
  184.4810  178.7480  147.3020 C   0  0  0  0  0  1  0  0  0  0  0  0
  185.9940  176.8510  146.7150 C   0  0  0  0  0  2  0  0  0  0  0  0
  187.1550  178.1180  142.0750 C   0  0  2  0  0  3  0  0  0  0  0  0
  189.9270  173.7490  141.4290 C   0  0  0  0  0  3  0  0  0  0  0  0
  189.0310  175.8440  142.2800 C   0  0  0  0  0  0  0  0  0  0  0  0
  190.8790  174.6630  143.5570 C   0  0  0  0  0  2  0  0  0  0  0  0
  190.6860  173.4070  144.3610 C   0  0  0  0  0  3  0  0  0  0  0  0
  189.9730  173.3480  145.4920 C   0  0  0  0  0  3  0  0  0  0  0  0
  189.3040  174.5460  146.0880 C   0  0  0  0  0  2  0  0  0  0  0  0
  190.0830  175.0480  147.2890 C   0  0  0  0  0  2  0  0  0  0  0  0
  190.7620  176.3660  146.9610 C   0  0  0  0  0  2  0  0  0  0  0  0
  192.5820  174.8420  147.0850 F   0  0  0  0  0  0  0  0  0  0  0  0
  192.2550  176.1560  146.8000 C   0  0  0  0  0  2  0  0  0  0  0  0
  1 21  1  0  0  0  0
  2 17  1  0  0  0  0
  3 14  2  0  0  0  0
  4  8  1  6  0  0  0
  4  7  1  0  0  0  0
  4  9  1  0  0  0  0
  5 11  1  6  0  0  0
  5  7  1  0  0  0  0
  6 17  1  0  0  0  0
  6 16  1  1  0  0  0
  7  2  1  1  0  0  0
  9  6  1  0  0  0  0
 10 20  2  0  0  0  0
 12  8  1  0  0  0  0
 13 19  1  0  0  0  0
 14 10  1  0  0  0  0
 15 13  2  0  0  0  0
 15 10  1  0  0  0  0
 18 14  1  6  0  0  0
 18 12  1  0  0  0  0
 18  5  1  0  0  0  0
 19  1  2  0  0  0  0
 20  1  1  0  0  0  0
 20 11  1  0  0  0  0
 21 22  1  0  0  0  0
 22 23  2  0  0  0  0
 23 24  1  0  0  0  0
 24 25  1  0  0  0  0
 26 25  1  0  0  0  0
 28 26  1  0  0  0  0
 28 27  1  0  0  0  0
M  END
>  <MODEL>
2

>  <REMARK>
 VINA RESULT:      -7.1      1.515      2.376
  Name = 
  6 active torsions:
  status: ('A' for Active; 'I' for Inactive)
    1  A    between atoms: C_1  and  C_2
    2  A    between atoms: C_2  and  C_3
    3  A    between atoms: C_6  and  C_7
    4  A    between atoms: C_6  and  C_11
    5  A    between atoms: C_7  and  C_28
    6  A    between atoms: C_8  and  C_11
                            x       y       z     vdW  Elec       q    Type
                         _______ _______ _______ _____ _____    ______ ____

>  <TORSDO>
F 6

$$$$
=
 OpenBabel11052418143D

 28 31  0  0  1  0  0  0  0  0999 V2000
  188.4440  177.0460  144.8920 C   0  0  0  0  0  0  0  0  0  0  0  0
  192.8570  175.5270  146.2620 C   0  0  0  0  0  2  0  0  0  0  0  0
  190.1080  174.3790  141.2470 O   0  0  0  0  0  0  0  0  0  0  0  0
  193.4930  175.0220  143.8720 C   0  0  2  0  0  3  0  0  0  0  0  0
  191.1830  174.4160  144.7990 C   0  0  1  0  0  3  0  0  0  0  0  0
  195.1840  175.0120  145.3600 C   0  0  2  0  0  3  0  0  0  0  0  0
  192.3420  175.4250  144.8170 C   0  0  1  0  0  3  0  0  0  0  0  0
  192.9900  174.3910  142.5790 C   0  0  0  0  0  2  0  0  0  0  0  0
  194.3960  174.1790  144.5380 O   0  0  0  0  0  0  0  0  0  0  0  0
  189.3090  175.7550  143.0110 C   0  0  0  0  0  0  0  0  0  0  0  0
  189.8960  175.0250  145.3640 C   0  0  0  0  0  2  0  0  0  0  0  0
  192.1380  173.3000  142.8400 O   0  0  0  0  0  0  0  0  0  0  0  0
  187.8350  177.6420  142.6190 C   0  0  0  0  0  3  0  0  0  0  0  0
  190.1260  174.6460  142.4790 C   0  0  0  0  0  0  0  0  0  0  0  0
  188.6140  176.5930  142.1310 C   0  0  0  0  0  3  0  0  0  0  0  0
  196.1610  174.1650  146.1480 C   0  0  0  0  0  1  0  0  0  0  0  0
  194.3480  175.8730  146.3310 C   0  0  0  0  0  2  0  0  0  0  0  0
  190.9400  173.7830  143.4150 C   0  0  2  0  0  3  0  0  0  0  0  0
  187.7450  177.8630  143.9930 C   0  0  0  0  0  3  0  0  0  0  0  0
  189.2320  175.9820  144.4030 C   0  0  0  0  0  0  0  0  0  0  0  0
  188.2980  177.2910  146.3670 C   0  0  0  0  0  2  0  0  0  0  0  0
  187.1500  176.5170  146.9550 C   0  0  0  0  0  3  0  0  0  0  0  0
  185.9460  177.0450  147.2040 C   0  0  0  0  0  3  0  0  0  0  0  0
  185.6220  178.4810  146.9390 C   0  0  0  0  0  2  0  0  0  0  0  0
  184.3710  178.5960  146.0880 C   0  0  0  0  0  2  0  0  0  0  0  0
  184.6700  179.3730  144.8190 C   0  0  0  0  0  2  0  0  0  0  0  0
  184.5980  177.4220  143.4630 F   0  0  0  0  0  0  0  0  0  0  0  0
  184.0440  178.6800  143.6240 C   0  0  0  0  0  2  0  0  0  0  0  0
  1 21  1  0  0  0  0
  2 17  1  0  0  0  0
  3 14  2  0  0  0  0
  4  8  1  6  0  0  0
  4  9  1  0  0  0  0
  4  7  1  0  0  0  0
  5  7  1  0  0  0  0
  5 11  1  6  0  0  0
  6 16  1  1  0  0  0
  6 17  1  0  0  0  0
  7  2  1  1  0  0  0
  8 12  1  0  0  0  0
  9  6  1  0  0  0  0
 10 20  2  0  0  0  0
 12 18  1  0  0  0  0
 13 19  1  0  0  0  0
 14 10  1  0  0  0  0
 15 13  2  0  0  0  0
 15 10  1  0  0  0  0
 18 14  1  6  0  0  0
 18  5  1  0  0  0  0
 19  1  2  0  0  0  0
 20  1  1  0  0  0  0
 20 11  1  0  0  0  0
 21 22  1  0  0  0  0
 22 23  2  0  0  0  0
 24 23  1  0  0  0  0
 25 24  1  0  0  0  0
 26 25  1  0  0  0  0
 27 28  1  0  0  0  0
 28 26  1  0  0  0  0
M  END
>  <MODEL>
3

>  <REMARK>
 VINA RESULT:      -6.7      2.627      6.313
  Name = 
  6 active torsions:
  status: ('A' for Active; 'I' for Inactive)
    1  A    between atoms: C_1  and  C_2
    2  A    between atoms: C_2  and  C_3
    3  A    between atoms: C_6  and  C_7
    4  A    between atoms: C_6  and  C_11
    5  A    between atoms: C_7  and  C_28
    6  A    between atoms: C_8  and  C_11
                            x       y       z     vdW  Elec       q    Type
                         _______ _______ _______ _____ _____    ______ ____

>  <TORSDO>
F 6

$$$$
=
 OpenBabel11052418143D

 28 31  0  0  1  0  0  0  0  0999 V2000
  189.6620  177.1640  146.3540 C   0  0  0  0  0  0  0  0  0  0  0  0
  188.2570  174.8050  142.3390 C   0  0  0  0  0  2  0  0  0  0  0  0
  193.7140  175.7660  144.1640 O   0  0  0  0  0  0  0  0  0  0  0  0
  190.5040  173.6720  142.1440 C   0  0  2  0  0  3  0  0  0  0  0  0
  190.3050  176.1530  142.7500 C   0  0  1  0  0  3  0  0  0  0  0  0
  188.8710  172.8450  140.8320 C   0  0  2  0  0  3  0  0  0  0  0  0
  189.6910  174.7520  142.8890 C   0  0  1  0  0  3  0  0  0  0  0  0
  192.0070  173.9110  142.2340 C   0  0  0  0  0  2  0  0  0  0  0  0
  190.0780  173.5780  140.8100 O   0  0  0  0  0  0  0  0  0  0  0  0
  191.7180  176.3970  145.2870 C   0  0  0  0  0  0  0  0  0  0  0  0
  189.7780  177.1090  143.8240 C   0  0  0  0  0  2  0  0  0  0  0  0
  192.3470  175.2040  141.7890 O   0  0  0  0  0  0  0  0  0  0  0  0
  191.5870  176.5610  147.7050 C   0  0  0  0  0  3  0  0  0  0  0  0
  192.4930  176.0670  144.0750 C   0  0  0  0  0  0  0  0  0  0  0  0
  192.3040  176.2500  146.5510 C   0  0  0  0  0  3  0  0  0  0  0  0
  188.3230  172.7360  139.4240 C   0  0  0  0  0  1  0  0  0  0  0  0
  187.8010  173.4650  141.7550 C   0  0  0  0  0  2  0  0  0  0  0  0
  191.8450  176.1510  142.7120 C   0  0  2  0  0  3  0  0  0  0  0  0
  190.2750  177.0230  147.6060 C   0  0  0  0  0  3  0  0  0  0  0  0
  190.3850  176.8530  145.1830 C   0  0  0  0  0  0  0  0  0  0  0  0
  188.2590  177.6970  146.2830 C   0  0  0  0  0  2  0  0  0  0  0  0
  187.2360  176.5960  146.3450 C   0  0  0  0  0  3  0  0  0  0  0  0
  185.9240  176.8070  146.5090 C   0  0  0  0  0  3  0  0  0  0  0  0
  185.3390  178.1750  146.6670 C   0  0  0  0  0  2  0  0  0  0  0  0
  184.6360  178.6030  145.3930 C   0  0  0  0  0  2  0  0  0  0  0  0
  185.4940  179.5970  144.6290 C   0  0  0  0  0  2  0  0  0  0  0  0
  186.6790  178.0050  143.3210 F   0  0  0  0  0  0  0  0  0  0  0  0
  185.7940  179.0660  143.2410 C   0  0  0  0  0  2  0  0  0  0  0  0
  1 19  1  0  0  0  0
  4  8  1  6  0  0  0
  4  7  1  0  0  0  0
  5  7  1  0  0  0  0
  5 11  1  1  0  0  0
  6 16  1  6  0  0  0
  6 17  1  0  0  0  0
  7  2  1  6  0  0  0
  9  6  1  0  0  0  0
  9  4  1  0  0  0  0
 10 15  2  0  0  0  0
 11 20  1  0  0  0  0
 12  8  1  0  0  0  0
 14  3  2  0  0  0  0
 14 10  1  0  0  0  0
 15 13  1  0  0  0  0
 17  2  1  0  0  0  0
 18 12  1  6  0  0  0
 18  5  1  0  0  0  0
 18 14  1  0  0  0  0
 19 13  2  0  0  0  0
 20 10  1  0  0  0  0
 20  1  2  0  0  0  0
 21 22  1  0  0  0  0
 21  1  1  0  0  0  0
 22 23  2  0  0  0  0
 23 24  1  0  0  0  0
 25 24  1  0  0  0  0
 26 25  1  0  0  0  0
 28 27  1  0  0  0  0
 28 26  1  0  0  0  0
M  END
>  <MODEL>
4

>  <REMARK>
 VINA RESULT:      -6.6      2.633      5.782
  Name = 
  6 active torsions:
  status: ('A' for Active; 'I' for Inactive)
    1  A    between atoms: C_1  and  C_2
    2  A    between atoms: C_2  and  C_3
    3  A    between atoms: C_6  and  C_7
    4  A    between atoms: C_6  and  C_11
    5  A    between atoms: C_7  and  C_28
    6  A    between atoms: C_8  and  C_11
                            x       y       z     vdW  Elec       q    Type
                         _______ _______ _______ _____ _____    ______ ____

>  <TORSDO>
F 6

$$$$
=
 OpenBabel11052418143D

 28 31  0  0  1  0  0  0  0  0999 V2000
  189.1700  176.0440  146.4200 C   0  0  0  0  0  0  0  0  0  0  0  0
  186.2620  176.7000  142.5760 C   0  0  0  0  0  2  0  0  0  0  0  0
  186.0900  179.5230  147.6780 O   0  0  0  0  0  0  0  0  0  0  0  0
  185.5680  178.9780  143.4120 C   0  0  2  0  0  3  0  0  0  0  0  0
  185.7730  176.9760  144.9980 C   0  0  1  0  0  3  0  0  0  0  0  0
  184.9950  178.4960  141.2880 C   0  0  2  0  0  3  0  0  0  0  0  0
  186.3350  177.6840  143.7550 C   0  0  1  0  0  3  0  0  0  0  0  0
  185.1380  179.7460  144.6570 C   0  0  0  0  0  2  0  0  0  0  0  0
  184.4720  178.6880  142.5850 O   0  0  0  0  0  0  0  0  0  0  0  0
  187.6580  177.8570  147.0390 C   0  0  0  0  0  0  0  0  0  0  0  0
  186.7800  175.9810  145.5830 C   0  0  0  0  0  2  0  0  0  0  0  0
  184.3960  178.9280  145.5320 O   0  0  0  0  0  0  0  0  0  0  0  0
  189.9300  177.8190  147.8930 C   0  0  0  0  0  3  0  0  0  0  0  0
  186.3390  178.5140  146.9640 C   0  0  0  0  0  0  0  0  0  0  0  0
  188.6790  178.4300  147.8080 C   0  0  0  0  0  3  0  0  0  0  0  0
  183.8710  178.1360  140.3390 C   0  0  0  0  0  1  0  0  0  0  0  0
  186.0880  177.4080  141.2290 C   0  0  0  0  0  2  0  0  0  0  0  0
  185.2550  177.9450  146.0770 C   0  0  2  0  0  3  0  0  0  0  0  0
  190.1710  176.6280  147.2080 C   0  0  0  0  0  3  0  0  0  0  0  0
  187.9020  176.6580  146.3330 C   0  0  0  0  0  0  0  0  0  0  0  0
  189.4530  174.7440  145.7230 C   0  0  0  0  0  2  0  0  0  0  0  0
  189.2510  174.8460  144.2370 C   0  0  0  0  0  3  0  0  0  0  0  0
  190.2510  174.9410  143.3530 C   0  0  0  0  0  3  0  0  0  0  0  0
  191.6900  174.9760  143.7630 C   0  0  0  0  0  2  0  0  0  0  0  0
  192.3420  176.2680  143.3080 C   0  0  0  0  0  2  0  0  0  0  0  0
  192.0460  177.3810  144.2980 C   0  0  0  0  0  2  0  0  0  0  0  0
  189.8430  178.2640  144.1750 F   0  0  0  0  0  0  0  0  0  0  0  0
  191.1230  178.4050  143.6680 C   0  0  0  0  0  2  0  0  0  0  0  0
  1 19  1  0  0  0  0
  4  7  1  0  0  0  0
  4  8  1  1  0  0  0
  5 11  1  1  0  0  0
  5 18  1  0  0  0  0
  6 16  1  6  0  0  0
  6  9  1  0  0  0  0
  7  2  1  6  0  0  0
  7  5  1  0  0  0  0
  8 12  1  0  0  0  0
  9  4  1  0  0  0  0
 10 15  2  0  0  0  0
 11 20  1  0  0  0  0
 14 10  1  0  0  0  0
 14  3  2  0  0  0  0
 15 13  1  0  0  0  0
 17  6  1  0  0  0  0
 17  2  1  0  0  0  0
 18 12  1  6  0  0  0
 18 14  1  0  0  0  0
 19 13  2  0  0  0  0
 20  1  2  0  0  0  0
 20 10  1  0  0  0  0
 21  1  1  0  0  0  0
 22 21  1  0  0  0  0
 23 24  1  0  0  0  0
 23 22  2  0  0  0  0
 25 24  1  0  0  0  0
 25 26  1  0  0  0  0
 28 27  1  0  0  0  0
 28 26  1  0  0  0  0
M  END
>  <MODEL>
5

>  <REMARK>
 VINA RESULT:      -6.4      2.128      4.911
  Name = 
  6 active torsions:
  status: ('A' for Active; 'I' for Inactive)
    1  A    between atoms: C_1  and  C_2
    2  A    between atoms: C_2  and  C_3
    3  A    between atoms: C_6  and  C_7
    4  A    between atoms: C_6  and  C_11
    5  A    between atoms: C_7  and  C_28
    6  A    between atoms: C_8  and  C_11
                            x       y       z     vdW  Elec       q    Type
                         _______ _______ _______ _____ _____    ______ ____

>  <TORSDO>
F 6

$$$$
=
 OpenBabel11052418143D

 28 31  0  0  1  0  0  0  0  0999 V2000
  193.3920  176.1420  144.0580 C   0  0  0  0  0  0  0  0  0  0  0  0
  188.7290  176.9600  142.9420 C   0  0  0  0  0  2  0  0  0  0  0  0
  190.9150  175.3770  148.1140 O   0  0  0  0  0  0  0  0  0  0  0  0
  188.1350  177.2600  145.3760 C   0  0  2  0  0  3  0  0  0  0  0  0
  189.7090  175.3920  144.6040 C   0  0  1  0  0  3  0  0  0  0  0  0
  186.5600  177.8950  143.8970 C   0  0  2  0  0  3  0  0  0  0  0  0
  189.2410  176.8400  144.3860 C   0  0  1  0  0  3  0  0  0  0  0  0
  188.3500  176.6800  146.7700 C   0  0  0  0  0  2  0  0  0  0  0  0
  186.8720  176.9190  144.8680 O   0  0  0  0  0  0  0  0  0  0  0  0
  192.1520  175.8220  146.1350 C   0  0  0  0  0  0  0  0  0  0  0  0
  191.0700  175.1350  143.9510 C   0  0  0  0  0  2  0  0  0  0  0  0
  188.4890  175.2790  146.7240 O   0  0  0  0  0  0  0  0  0  0  0  0
  194.4170  176.6920  146.1890 C   0  0  0  0  0  3  0  0  0  0  0  0
  190.9300  175.4090  146.8530 C   0  0  0  0  0  0  0  0  0  0  0  0
  193.2540  176.3030  146.8530 C   0  0  0  0  0  3  0  0  0  0  0  0
  185.2210  177.5700  143.2680 C   0  0  0  0  0  1  0  0  0  0  0  0
  187.6310  178.0180  142.7930 C   0  0  0  0  0  2  0  0  0  0  0  0
  189.7090  174.9610  146.0830 C   0  0  2  0  0  3  0  0  0  0  0  0
  194.4870  176.6060  144.7990 C   0  0  0  0  0  3  0  0  0  0  0  0
  192.2140  175.7440  144.7260 C   0  0  0  0  0  0  0  0  0  0  0  0
  193.5150  176.0290  142.5650 C   0  0  0  0  0  2  0  0  0  0  0  0
  194.7980  175.3610  142.1550 C   0  0  0  0  0  3  0  0  0  0  0  0
  194.9240  174.0420  141.9670 C   0  0  0  0  0  3  0  0  0  0  0  0
  193.7910  173.0850  142.1680 C   0  0  0  0  0  2  0  0  0  0  0  0
  194.1420  172.0610  143.2300 C   0  0  0  0  0  2  0  0  0  0  0  0
  193.2400  172.2300  144.4400 C   0  0  0  0  0  2  0  0  0  0  0  0
  195.1120  173.4420  145.2640 F   0  0  0  0  0  0  0  0  0  0  0  0
  194.0640  172.6260  145.6500 C   0  0  0  0  0  2  0  0  0  0  0  0
  1 20  2  0  0  0  0
  1 19  1  0  0  0  0
  4  8  1  1  0  0  0
  5 11  1  1  0  0  0
  5 18  1  0  0  0  0
  6 16  1  6  0  0  0
  6  9  1  0  0  0  0
  7  2  1  6  0  0  0
  7  5  1  0  0  0  0
  7  4  1  0  0  0  0
  9  4  1  0  0  0  0
 10 15  2  0  0  0  0
 10 14  1  0  0  0  0
 11 20  1  0  0  0  0
 12  8  1  0  0  0  0
 13 15  1  0  0  0  0
 14  3  2  0  0  0  0
 17  2  1  0  0  0  0
 17  6  1  0  0  0  0
 18 12  1  1  0  0  0
 18 14  1  0  0  0  0
 19 13  2  0  0  0  0
 20 10  1  0  0  0  0
 21  1  1  0  0  0  0
 22 21  1  0  0  0  0
 23 22  2  0  0  0  0
 23 24  1  0  0  0  0
 24 25  1  0  0  0  0
 25 26  1  0  0  0  0
 26 28  1  0  0  0  0
 27 28  1  0  0  0  0
M  END
>  <MODEL>
6

>  <REMARK>
 VINA RESULT:      -6.2      2.594      4.544
  Name = 
  6 active torsions:
  status: ('A' for Active; 'I' for Inactive)
    1  A    between atoms: C_1  and  C_2
    2  A    between atoms: C_2  and  C_3
    3  A    between atoms: C_6  and  C_7
    4  A    between atoms: C_6  and  C_11
    5  A    between atoms: C_7  and  C_28
    6  A    between atoms: C_8  and  C_11
                            x       y       z     vdW  Elec       q    Type
                         _______ _______ _______ _____ _____    ______ ____

>  <TORSDO>
F 6

$$$$
=
 OpenBabel11052418143D

 28 31  0  0  1  0  0  0  0  0999 V2000
  187.9620  176.2260  144.9840 C   0  0  0  0  0  0  0  0  0  0  0  0
  189.0750  173.9280  140.8440 C   0  0  0  0  0  2  0  0  0  0  0  0
  192.4990  174.7050  145.5020 O   0  0  0  0  0  0  0  0  0  0  0  0
  190.9930  172.7230  141.9560 C   0  0  2  0  0  3  0  0  0  0  0  0
  190.5420  175.2080  142.3890 C   0  0  1  0  0  3  0  0  0  0  0  0
  190.3980  171.9540  139.9250 C   0  0  2  0  0  3  0  0  0  0  0  0
  189.9260  173.8260  142.1200 C   0  0  1  0  0  3  0  0  0  0  0  0
  192.1750  172.9130  142.9020 C   0  0  0  0  0  2  0  0  0  0  0  0
  191.4130  172.6470  140.6190 O   0  0  0  0  0  0  0  0  0  0  0  0
  190.2370  175.3970  145.2820 C   0  0  0  0  0  0  0  0  0  0  0  0
  189.5150  176.1760  142.9840 C   0  0  0  0  0  2  0  0  0  0  0  0
  192.7400  174.1950  142.7620 O   0  0  0  0  0  0  0  0  0  0  0  0
  188.7390  175.5570  147.1840 C   0  0  0  0  0  3  0  0  0  0  0  0
  191.5610  175.0460  144.7320 C   0  0  0  0  0  0  0  0  0  0  0  0
  189.9830  175.2260  146.6490 C   0  0  0  0  0  3  0  0  0  0  0  0
  190.7600  171.8680  138.4570 C   0  0  0  0  0  1  0  0  0  0  0  0
  189.0060  172.6050  140.0750 C   0  0  0  0  0  2  0  0  0  0  0  0
  191.8210  175.1550  143.2470 C   0  0  2  0  0  3  0  0  0  0  0  0
  187.7360  176.0610  146.3570 C   0  0  0  0  0  3  0  0  0  0  0  0
  189.2210  175.8950  144.4380 C   0  0  0  0  0  0  0  0  0  0  0  0
  186.8710  176.8040  144.1280 C   0  0  0  0  0  2  0  0  0  0  0  0
  186.9820  178.2990  144.0080 C   0  0  0  0  0  3  0  0  0  0  0  0
  185.9410  179.1340  144.1120 C   0  0  0  0  0  3  0  0  0  0  0  0
  184.5420  178.6570  144.3430 C   0  0  0  0  0  2  0  0  0  0  0  0
  184.0730  179.0400  145.7340 C   0  0  0  0  0  2  0  0  0  0  0  0
  184.4410  177.9550  146.7290 C   0  0  0  0  0  2  0  0  0  0  0  0
  185.9150  179.7290  147.3040 F   0  0  0  0  0  0  0  0  0  0  0  0
  185.5080  178.4610  147.6800 C   0  0  0  0  0  2  0  0  0  0  0  0
  1 19  1  0  0  0  0
  4  7  1  0  0  0  0
  4  8  1  1  0  0  0
  5 11  1  1  0  0  0
  5 18  1  0  0  0  0
  6 16  1  6  0  0  0
  6 17  1  0  0  0  0
  6  9  1  0  0  0  0
  7  2  1  6  0  0  0
  7  5  1  0  0  0  0
  9  4  1  0  0  0  0
 10 15  2  0  0  0  0
 11 20  1  0  0  0  0
 12  8  1  0  0  0  0
 14 10  1  0  0  0  0
 14  3  2  0  0  0  0
 15 13  1  0  0  0  0
 17  2  1  0  0  0  0
 18 12  1  6  0  0  0
 18 14  1  0  0  0  0
 19 13  2  0  0  0  0
 20  1  2  0  0  0  0
 20 10  1  0  0  0  0
 21  1  1  0  0  0  0
 22 23  2  0  0  0  0
 22 21  1  0  0  0  0
 23 24  1  0  0  0  0
 24 25  1  0  0  0  0
 25 26  1  0  0  0  0
 26 28  1  0  0  0  0
 27 28  1  0  0  0  0
M  END
>  <MODEL>
7

>  <REMARK>
 VINA RESULT:      -5.9      3.003      6.686
  Name = 
  6 active torsions:
  status: ('A' for Active; 'I' for Inactive)
    1  A    between atoms: C_1  and  C_2
    2  A    between atoms: C_2  and  C_3
    3  A    between atoms: C_6  and  C_7
    4  A    between atoms: C_6  and  C_11
    5  A    between atoms: C_7  and  C_28
    6  A    between atoms: C_8  and  C_11
                            x       y       z     vdW  Elec       q    Type
                         _______ _______ _______ _____ _____    ______ ____

>  <TORSDO>
F 6

$$$$
=
 OpenBabel11052418143D

 28 31  0  0  1  0  0  0  0  0999 V2000
  189.1190  177.3440  145.5700 C   0  0  0  0  0  0  0  0  0  0  0  0
  188.6490  174.5020  141.6500 C   0  0  0  0  0  2  0  0  0  0  0  0
  193.4870  175.4960  144.7540 O   0  0  0  0  0  0  0  0  0  0  0  0
  190.7760  173.2670  142.2150 C   0  0  2  0  0  3  0  0  0  0  0  0
  190.6110  175.8140  142.4300 C   0  0  1  0  0  3  0  0  0  0  0  0
  189.4900  172.3280  140.6220 C   0  0  2  0  0  3  0  0  0  0  0  0
  189.8790  174.4710  142.5720 C   0  0  1  0  0  3  0  0  0  0  0  0
  192.2160  173.4570  142.6790 C   0  0  0  0  0  2  0  0  0  0  0  0
  190.7110  173.0030  140.8380 O   0  0  0  0  0  0  0  0  0  0  0  0
  191.3190  176.3560  145.2060 C   0  0  0  0  0  0  0  0  0  0  0  0
  189.8930  176.9310  143.1940 C   0  0  0  0  0  2  0  0  0  0  0  0
  192.7570  174.6610  142.1860 O   0  0  0  0  0  0  0  0  0  0  0  0
  190.5680  176.8620  147.4570 C   0  0  0  0  0  3  0  0  0  0  0  0
  192.3590  175.8300  144.3000 C   0  0  0  0  0  0  0  0  0  0  0  0
  191.5390  176.3640  146.5890 C   0  0  0  0  0  3  0  0  0  0  0  0
  189.3260  172.0450  139.1440 C   0  0  0  0  0  1  0  0  0  0  0  0
  188.2640  173.1120  141.1360 C   0  0  0  0  0  2  0  0  0  0  0  0
  192.1020  175.7470  142.8130 C   0  0  2  0  0  3  0  0  0  0  0  0
  189.3670  177.3560  146.9490 C   0  0  0  0  0  3  0  0  0  0  0  0
  190.0990  176.8440  144.6870 C   0  0  0  0  0  0  0  0  0  0  0  0
  187.8280  177.9150  145.0550 C   0  0  0  0  0  2  0  0  0  0  0  0
  186.6670  176.9910  145.2980 C   0  0  0  0  0  3  0  0  0  0  0  0
  185.9510  176.4210  144.3220 C   0  0  0  0  0  3  0  0  0  0  0  0
  186.2250  176.6650  142.8710 C   0  0  0  0  0  2  0  0  0  0  0  0
  185.2520  177.6840  142.3100 C   0  0  0  0  0  2  0  0  0  0  0  0
  185.5280  177.9160  140.8350 C   0  0  0  0  0  2  0  0  0  0  0  0
  187.0500  176.5550  139.6180 F   0  0  0  0  0  0  0  0  0  0  0  0
  186.9780  177.6010  140.5210 C   0  0  0  0  0  2  0  0  0  0  0  0
  1 19  1  0  0  0  0
  4  7  1  0  0  0  0
  4  8  1  6  0  0  0
  5  7  1  0  0  0  0
  5 18  1  0  0  0  0
  5 11  1  1  0  0  0
  6 16  1  6  0  0  0
  6  9  1  0  0  0  0
  6 17  1  0  0  0  0
  7  2  1  6  0  0  0
  9  4  1  0  0  0  0
 10 15  2  0  0  0  0
 11 20  1  0  0  0  0
 12  8  1  0  0  0  0
 14  3  2  0  0  0  0
 14 10  1  0  0  0  0
 15 13  1  0  0  0  0
 17  2  1  0  0  0  0
 18 12  1  1  0  0  0
 18 14  1  0  0  0  0
 19 13  2  0  0  0  0
 20 10  1  0  0  0  0
 20  1  2  0  0  0  0
 21 22  1  0  0  0  0
 21  1  1  0  0  0  0
 23 22  2  0  0  0  0
 24 23  1  0  0  0  0
 25 24  1  0  0  0  0
 26 25  1  0  0  0  0
 27 28  1  0  0  0  0
 28 26  1  0  0  0  0
M  END
>  <MODEL>
8

>  <REMARK>
 VINA RESULT:      -5.9      2.876      6.188
  Name = 
  6 active torsions:
  status: ('A' for Active; 'I' for Inactive)
    1  A    between atoms: C_1  and  C_2
    2  A    between atoms: C_2  and  C_3
    3  A    between atoms: C_6  and  C_7
    4  A    between atoms: C_6  and  C_11
    5  A    between atoms: C_7  and  C_28
    6  A    between atoms: C_8  and  C_11
                            x       y       z     vdW  Elec       q    Type
                         _______ _______ _______ _____ _____    ______ ____

>  <TORSDO>
F 6

$$$$
=
 OpenBabel11052418143D

 28 31  0  0  1  0  0  0  0  0999 V2000
  189.5980  176.9150  146.6690 C   0  0  0  0  0  0  0  0  0  0  0  0
  186.9990  177.1540  142.5640 C   0  0  0  0  0  2  0  0  0  0  0  0
  185.4050  178.9430  147.8820 O   0  0  0  0  0  0  0  0  0  0  0  0
  185.4870  178.9170  143.5510 C   0  0  2  0  0  3  0  0  0  0  0  0
  186.2310  176.8780  144.9120 C   0  0  1  0  0  3  0  0  0  0  0  0
  185.3090  178.6050  141.3280 C   0  0  2  0  0  3  0  0  0  0  0  0
  186.6210  177.9130  143.8460 C   0  0  1  0  0  3  0  0  0  0  0  0
  184.7090  179.3000  144.8050 C   0  0  0  0  0  2  0  0  0  0  0  0
  184.6380  178.4120  142.5550 O   0  0  0  0  0  0  0  0  0  0  0  0
  187.5040  178.0080  147.2780 C   0  0  0  0  0  0  0  0  0  0  0  0
  187.4630  176.1940  145.5120 C   0  0  0  0  0  2  0  0  0  0  0  0
  184.2210  178.1580  145.4720 O   0  0  0  0  0  0  0  0  0  0  0  0
  189.5620  178.5930  148.4230 C   0  0  0  0  0  3  0  0  0  0  0  0
  186.0510  178.1950  147.0990 C   0  0  0  0  0  0  0  0  0  0  0  0
  188.1900  178.7610  148.2390 C   0  0  0  0  0  3  0  0  0  0  0  0
  184.4690  178.0430  140.2000 C   0  0  0  0  0  1  0  0  0  0  0  0
  186.7120  177.9630  141.2950 C   0  0  0  0  0  2  0  0  0  0  0  0
  185.3150  177.4430  146.0140 C   0  0  2  0  0  3  0  0  0  0  0  0
  190.2610  177.6690  147.6470 C   0  0  0  0  0  3  0  0  0  0  0  0
  188.2090  177.0810  146.4800 C   0  0  0  0  0  0  0  0  0  0  0  0
  190.3760  175.9050  145.8740 C   0  0  0  0  0  2  0  0  0  0  0  0
  191.3730  176.5580  144.9570 C   0  0  0  0  0  3  0  0  0  0  0  0
  192.6940  176.5640  145.1760 C   0  0  0  0  0  3  0  0  0  0  0  0
  193.3160  175.9310  146.3810 C   0  0  0  0  0  2  0  0  0  0  0  0
  194.8060  175.7410  146.1720 C   0  0  0  0  0  2  0  0  0  0  0  0
  195.0880  174.3440  145.6460 C   0  0  0  0  0  2  0  0  0  0  0  0
  197.0160  173.7400  146.8980 F   0  0  0  0  0  0  0  0  0  0  0  0
  196.5820  174.0860  145.6310 C   0  0  0  0  0  2  0  0  0  0  0  0
  1 19  1  0  0  0  0
  4  7  1  0  0  0  0
  4  8  1  1  0  0  0
  5 11  1  1  0  0  0
  5 18  1  0  0  0  0
  6 16  1  6  0  0  0
  6  9  1  0  0  0  0
  7  2  1  6  0  0  0
  7  5  1  0  0  0  0
  8 12  1  0  0  0  0
  9  4  1  0  0  0  0
 10 15  2  0  0  0  0
 11 20  1  0  0  0  0
 14 10  1  0  0  0  0
 14  3  2  0  0  0  0
 15 13  1  0  0  0  0
 17  6  1  0  0  0  0
 17  2  1  0  0  0  0
 18 12  1  6  0  0  0
 18 14  1  0  0  0  0
 19 13  2  0  0  0  0
 20  1  2  0  0  0  0
 20 10  1  0  0  0  0
 21  1  1  0  0  0  0
 22 23  2  0  0  0  0
 22 21  1  0  0  0  0
 23 24  1  0  0  0  0
 25 24  1  0  0  0  0
 26 25  1  0  0  0  0
 28 26  1  0  0  0  0
 28 27  1  0  0  0  0
M  END
>  <MODEL>
9

>  <REMARK>
 VINA RESULT:      -5.8      2.554      5.084
  Name = 
  6 active torsions:
  status: ('A' for Active; 'I' for Inactive)
    1  A    between atoms: C_1  and  C_2
    2  A    between atoms: C_2  and  C_3
    3  A    between atoms: C_6  and  C_7
    4  A    between atoms: C_6  and  C_11
    5  A    between atoms: C_7  and  C_28
    6  A    between atoms: C_8  and  C_11
                            x       y       z     vdW  Elec       q    Type
                         _______ _______ _______ _____ _____    ______ ____

>  <TORSDO>
F 6

$$$$
