=
 OpenBabel11052417243D

 25 27  0  0  1  0  0  0  0  0999 V2000
  189.0290  176.2640  143.9800 C   0  0  0  0  0  0  0  0  0  0  0  0
  187.9340  177.0420  143.5500 C   0  0  0  0  0  0  0  0  0  0  0  0
  189.2230  175.3150  141.7500 C   0  0  0  0  0  3  0  0  0  0  0  0
  188.1400  176.0810  141.3210 C   0  0  0  0  0  3  0  0  0  0  0  0
  186.3940  177.7240  141.7780 C   0  0  0  0  0  0  0  0  0  0  0  0
  185.7930  177.6510  140.1270 Cl  0  0  0  0  0  0  0  0  0  0  0  0
  187.2770  177.9120  144.4320 C   0  0  0  0  0  3  0  0  0  0  0  0
  189.6650  175.4060  143.0700 C   0  0  0  0  0  3  0  0  0  0  0  0
  185.7570  178.5830  142.6770 C   0  0  0  0  0  3  0  0  0  0  0  0
  186.1940  178.6820  144.0060 C   0  0  0  0  0  0  0  0  0  0  0  0
  187.4860  176.9480  142.2060 C   0  0  0  0  0  0  0  0  0  0  0  0
  189.5300  176.3490  145.4000 C   0  0  2  0  0  3  0  0  0  0  0  0
  190.8980  175.6080  147.8070 C   0  0  0  0  0  2  0  0  0  0  0  0
  191.0290  176.5640  145.4880 C   0  0  0  0  0  0  0  0  0  0  0  0
  191.8150  176.0030  146.6450 C   0  0  0  0  0  2  0  0  0  0  0  0
  189.7350  174.7920  147.3160 C   0  0  0  0  0  3  0  0  0  0  0  0
  191.6050  177.2410  144.6500 O   0  0  0  0  0  0  0  0  0  0  0  0
  189.0950  175.1420  146.1950 C   0  0  0  0  0  3  0  0  0  0  0  0
  185.5690  179.5350  144.9190 O   0  0  0  0  0  0  0  0  0  0  0  0
  184.4460  179.1400  145.6950 C   0  0  0  0  0  2  0  0  0  0  0  0
  184.8950  178.7420  147.0900 C   0  0  2  0  0  3  0  0  0  0  0  0
  186.0030  179.5820  147.5150 N   0  0  0  0  0  1  0  0  0  0  0  0
  185.3060  177.3080  147.1100 C   0  0  0  0  0  0  0  0  0  0  0  0
  186.3100  176.8940  147.9740 O   0  0  0  0  0  1  0  0  0  0  0  0
  184.7420  176.4670  146.3590 O   0  0  0  0  0  0  0  0  0  0  0  0
  2  1  1  0  0  0  0
  2  7  1  0  0  0  0
  3  8  1  0  0  0  0
  4  3  2  0  0  0  0
  4 11  1  0  0  0  0
  5 11  1  0  0  0  0
  5  9  2  0  0  0  0
  6  5  1  0  0  0  0
  8  1  2  0  0  0  0
  9 10  1  0  0  0  0
 10  7  2  0  0  0  0
 10 19  1  0  0  0  0
 11  2  2  0  0  0  0
 12  1  1  6  0  0  0
 12 14  1  0  0  0  0
 12 18  1  0  0  0  0
 14 15  1  0  0  0  0
 15 13  1  0  0  0  0
 16 13  1  0  0  0  0
 17 14  2  0  0  0  0
 18 16  2  0  0  0  0
 19 20  1  0  0  0  0
 20 21  1  0  0  0  0
 21 23  1  0  0  0  0
 21 22  1  6  0  0  0
 23 24  1  0  0  0  0
 25 23  2  0  0  0  0
M  END
>  <MODEL>
1

>  <REMARK>
 VINA RESULT:      -7.2      0.000      0.000
  Name = 
  5 active torsions:
  status: ('A' for Active; 'I' for Inactive)
    1  A    between atoms: C_1  and  C_5
    2  A    between atoms: C_2  and  C_21
    3  A    between atoms: O_6  and  C_15
    4  A    between atoms: O_6  and  C_23
    5  A    between atoms: C_15  and  C_21
                            x       y       z     vdW  Elec       q    Type
                         _______ _______ _______ _____ _____    ______ ____

>  <TORSDO>
F 5

$$$$
=
 OpenBabel11052417243D

 25 27  0  0  1  0  0  0  0  0999 V2000
  188.1080  176.0540  145.7390 C   0  0  0  0  0  0  0  0  0  0  0  0
  188.4820  175.6700  144.4350 C   0  0  0  0  0  0  0  0  0  0  0  0
  189.5560  174.3290  146.6550 C   0  0  0  0  0  3  0  0  0  0  0  0
  189.9270  173.9460  145.3670 C   0  0  0  0  0  3  0  0  0  0  0  0
  189.7730  174.2220  142.9480 C   0  0  0  0  0  0  0  0  0  0  0  0
  190.9060  172.9100  142.6530 Cl  0  0  0  0  0  0  0  0  0  0  0  0
  187.9580  176.3280  143.3120 C   0  0  0  0  0  3  0  0  0  0  0  0
  188.6520  175.3760  146.8400 C   0  0  0  0  0  3  0  0  0  0  0  0
  189.2370  174.8930  141.8460 C   0  0  0  0  0  3  0  0  0  0  0  0
  188.3290  175.9480  142.0210 C   0  0  0  0  0  0  0  0  0  0  0  0
  189.4010  174.6050  144.2490 C   0  0  0  0  0  0  0  0  0  0  0  0
  187.1380  177.1870  145.9660 C   0  0  2  0  0  3  0  0  0  0  0  0
  185.0480  178.7200  147.1890 C   0  0  0  0  0  2  0  0  0  0  0  0
  187.4530  177.9960  147.2100 C   0  0  0  0  0  0  0  0  0  0  0  0
  186.3460  178.6470  147.9990 C   0  0  0  0  0  2  0  0  0  0  0  0
  184.7400  177.3940  146.5520 C   0  0  0  0  0  3  0  0  0  0  0  0
  188.6110  178.1740  147.5530 O   0  0  0  0  0  0  0  0  0  0  0  0
  185.7160  176.6810  145.9780 C   0  0  0  0  0  3  0  0  0  0  0  0
  187.7820  176.6310  140.9320 O   0  0  0  0  0  0  0  0  0  0  0  0
  187.1580  177.9010  141.0570 C   0  0  0  0  0  2  0  0  0  0  0  0
  185.6620  177.7240  141.2540 C   0  0  2  0  0  3  0  0  0  0  0  0
  184.9430  178.2570  140.1080 N   0  0  0  0  0  1  0  0  0  0  0  0
  185.2210  178.4160  142.5000 C   0  0  0  0  0  0  0  0  0  0  0  0
  183.9690  178.1390  143.0320 O   0  0  0  0  0  0  0  0  0  0  0  0
  185.9780  179.2390  143.0800 O   0  0  0  0  0  1  0  0  0  0  0  0
  1  8  1  0  0  0  0
  2  1  2  0  0  0  0
  3  8  2  0  0  0  0
  4  3  1  0  0  0  0
  5 11  1  0  0  0  0
  6  5  1  0  0  0  0
  7  2  1  0  0  0  0
  9 10  1  0  0  0  0
  9  5  2  0  0  0  0
 10  7  2  0  0  0  0
 11  2  1  0  0  0  0
 11  4  2  0  0  0  0
 12  1  1  1  0  0  0
 12 18  1  0  0  0  0
 12 14  1  0  0  0  0
 13 15  1  0  0  0  0
 14 17  2  0  0  0  0
 14 15  1  0  0  0  0
 16 13  1  0  0  0  0
 18 16  2  0  0  0  0
 19 20  1  0  0  0  0
 19 10  1  0  0  0  0
 20 21  1  0  0  0  0
 21 22  1  6  0  0  0
 21 23  1  0  0  0  0
 23 24  2  0  0  0  0
 23 25  1  0  0  0  0
M  END
>  <MODEL>
2

>  <REMARK>
 VINA RESULT:      -7.2      2.804      4.941
  Name = 
  5 active torsions:
  status: ('A' for Active; 'I' for Inactive)
    1  A    between atoms: C_1  and  C_5
    2  A    between atoms: C_2  and  C_21
    3  A    between atoms: O_6  and  C_15
    4  A    between atoms: O_6  and  C_23
    5  A    between atoms: C_15  and  C_21
                            x       y       z     vdW  Elec       q    Type
                         _______ _______ _______ _____ _____    ______ ____

>  <TORSDO>
F 5

$$$$
=
 OpenBabel11052417243D

 25 27  0  0  1  0  0  0  0  0999 V2000
  186.3630  177.5040  143.8330 C   0  0  0  0  0  0  0  0  0  0  0  0
  185.6950  177.6550  142.6000 C   0  0  0  0  0  0  0  0  0  0  0  0
  188.4060  176.9240  142.6480 C   0  0  0  0  0  3  0  0  0  0  0  0
  187.7480  177.0710  141.4270 C   0  0  0  0  0  3  0  0  0  0  0  0
  185.7290  177.5860  140.1570 C   0  0  0  0  0  0  0  0  0  0  0  0
  186.5430  177.3280  138.6200 Cl  0  0  0  0  0  0  0  0  0  0  0  0
  184.3430  178.0210  142.5540 C   0  0  0  0  0  3  0  0  0  0  0  0
  187.7180  177.1390  143.8420 C   0  0  0  0  0  3  0  0  0  0  0  0
  184.3810  177.9510  140.1380 C   0  0  0  0  0  3  0  0  0  0  0  0
  183.6810  178.1710  141.3340 C   0  0  0  0  0  0  0  0  0  0  0  0
  186.3970  177.4360  141.3860 C   0  0  0  0  0  0  0  0  0  0  0  0
  185.6450  177.7370  145.1380 C   0  0  2  0  0  3  0  0  0  0  0  0
  185.2620  178.2910  147.9240 C   0  0  0  0  0  2  0  0  0  0  0  0
  185.7440  179.1710  145.6210 C   0  0  0  0  0  0  0  0  0  0  0  0
  185.7550  179.4820  147.0960 C   0  0  0  0  0  2  0  0  0  0  0  0
  185.9410  177.0220  147.4910 C   0  0  0  0  0  3  0  0  0  0  0  0
  185.7600  180.0920  144.8200 O   0  0  0  0  0  0  0  0  0  0  0  0
  186.1160  176.7620  146.1900 C   0  0  0  0  0  3  0  0  0  0  0  0
  182.3330  178.5360  141.3360 O   0  0  0  0  0  0  0  0  0  0  0  0
  181.3690  177.9170  140.4950 C   0  0  0  0  0  2  0  0  0  0  0  0
  180.0570  178.6800  140.5640 C   0  0  2  0  0  3  0  0  0  0  0  0
  180.3160  180.1060  140.6870 N   0  0  0  0  0  1  0  0  0  0  0  0
  179.2470  178.2080  141.7250 C   0  0  0  0  0  0  0  0  0  0  0  0
  179.2580  178.9310  142.9090 O   0  0  0  0  0  1  0  0  0  0  0  0
  178.5440  177.1660  141.6360 O   0  0  0  0  0  0  0  0  0  0  0  0
  1  8  1  0  0  0  0
  2  1  2  0  0  0  0
  3  8  2  0  0  0  0
  4  3  1  0  0  0  0
  5 11  1  0  0  0  0
  6  5  1  0  0  0  0
  7  2  1  0  0  0  0
  9  5  2  0  0  0  0
  9 10  1  0  0  0  0
 10 19  1  0  0  0  0
 10  7  2  0  0  0  0
 11  4  2  0  0  0  0
 11  2  1  0  0  0  0
 12  1  1  6  0  0  0
 12 14  1  0  0  0  0
 12 18  1  0  0  0  0
 14 15  1  0  0  0  0
 15 13  1  0  0  0  0
 16 13  1  0  0  0  0
 17 14  2  0  0  0  0
 18 16  2  0  0  0  0
 20 21  1  0  0  0  0
 20 19  1  0  0  0  0
 21 22  1  1  0  0  0
 21 23  1  0  0  0  0
 23 24  1  0  0  0  0
 25 23  2  0  0  0  0
M  END
>  <MODEL>
3

>  <REMARK>
 VINA RESULT:      -7.1      3.736      5.285
  Name = 
  5 active torsions:
  status: ('A' for Active; 'I' for Inactive)
    1  A    between atoms: C_1  and  C_5
    2  A    between atoms: C_2  and  C_21
    3  A    between atoms: O_6  and  C_15
    4  A    between atoms: O_6  and  C_23
    5  A    between atoms: C_15  and  C_21
                            x       y       z     vdW  Elec       q    Type
                         _______ _______ _______ _____ _____    ______ ____

>  <TORSDO>
F 5

$$$$
=
 OpenBabel11052417243D

 25 27  0  0  1  0  0  0  0  0999 V2000
  187.7360  176.7730  144.2300 C   0  0  0  0  0  0  0  0  0  0  0  0
  189.0820  176.4090  144.0170 C   0  0  0  0  0  0  0  0  0  0  0  0
  187.0730  175.4040  142.3330 C   0  0  0  0  0  3  0  0  0  0  0  0
  188.4030  175.0430  142.1180 C   0  0  0  0  0  3  0  0  0  0  0  0
  190.7600  175.1750  142.7390 C   0  0  0  0  0  0  0  0  0  0  0  0
  191.2370  174.0970  141.4340 Cl  0  0  0  0  0  0  0  0  0  0  0  0
  190.1000  176.8990  144.8470 C   0  0  0  0  0  3  0  0  0  0  0  0
  186.7420  176.2630  143.3810 C   0  0  0  0  0  3  0  0  0  0  0  0
  191.7550  175.6760  143.5800 C   0  0  0  0  0  3  0  0  0  0  0  0
  191.4320  176.5390  144.6380 C   0  0  0  0  0  0  0  0  0  0  0  0
  189.4170  175.5360  142.9500 C   0  0  0  0  0  0  0  0  0  0  0  0
  187.3510  177.6940  145.3590 C   0  0  2  0  0  3  0  0  0  0  0  0
  185.7010  179.0140  147.2960 C   0  0  0  0  0  2  0  0  0  0  0  0
  186.9670  176.9520  146.6250 C   0  0  0  0  0  0  0  0  0  0  0  0
  185.9400  177.5260  147.5670 C   0  0  0  0  0  2  0  0  0  0  0  0
  185.4920  179.2630  145.8290 C   0  0  0  0  0  3  0  0  0  0  0  0
  187.5260  175.9070  146.9220 O   0  0  0  0  0  0  0  0  0  0  0  0
  186.2650  178.6500  144.9260 C   0  0  0  0  0  3  0  0  0  0  0  0
  192.4140  177.0510  145.4900 O   0  0  0  0  0  0  0  0  0  0  0  0
  193.0000  176.2860  146.5330 C   0  0  0  0  0  2  0  0  0  0  0  0
  194.5100  176.2580  146.3680 C   0  0  2  0  0  3  0  0  0  0  0  0
  194.9380  177.3530  145.5130 N   0  0  0  0  0  1  0  0  0  0  0  0
  194.9410  174.9550  145.7810 C   0  0  0  0  0  0  0  0  0  0  0  0
  194.0370  173.9050  145.7070 O   0  0  0  0  0  1  0  0  0  0  0  0
  196.1120  174.8040  145.3420 O   0  0  0  0  0  0  0  0  0  0  0  0
  2  1  1  0  0  0  0
  2  7  1  0  0  0  0
  3  8  1  0  0  0  0
  4  3  2  0  0  0  0
  4 11  1  0  0  0  0
  5 11  1  0  0  0  0
  5  9  2  0  0  0  0
  6  5  1  0  0  0  0
  8  1  2  0  0  0  0
  9 10  1  0  0  0  0
 10  7  2  0  0  0  0
 10 19  1  0  0  0  0
 11  2  2  0  0  0  0
 12  1  1  6  0  0  0
 12 14  1  0  0  0  0
 13 15  1  0  0  0  0
 14 17  2  0  0  0  0
 14 15  1  0  0  0  0
 16 13  1  0  0  0  0
 18 12  1  0  0  0  0
 18 16  2  0  0  0  0
 19 20  1  0  0  0  0
 21 22  1  6  0  0  0
 21 20  1  0  0  0  0
 23 21  1  0  0  0  0
 24 23  1  0  0  0  0
 25 23  2  0  0  0  0
M  END
>  <MODEL>
4

>  <REMARK>
 VINA RESULT:      -7.0      2.998      6.327
  Name = 
  5 active torsions:
  status: ('A' for Active; 'I' for Inactive)
    1  A    between atoms: C_1  and  C_5
    2  A    between atoms: C_2  and  C_21
    3  A    between atoms: O_6  and  C_15
    4  A    between atoms: O_6  and  C_23
    5  A    between atoms: C_15  and  C_21
                            x       y       z     vdW  Elec       q    Type
                         _______ _______ _______ _____ _____    ______ ____

>  <TORSDO>
F 5

$$$$
=
 OpenBabel11052417243D

 25 27  0  0  1  0  0  0  0  0999 V2000
  188.9960  176.2860  146.0830 C   0  0  0  0  0  0  0  0  0  0  0  0
  189.7790  175.3090  145.4330 C   0  0  0  0  0  0  0  0  0  0  0  0
  190.8550  176.7770  147.5710 C   0  0  0  0  0  3  0  0  0  0  0  0
  191.6320  175.8120  146.9320 C   0  0  0  0  0  3  0  0  0  0  0  0
  191.8900  174.0960  145.2150 C   0  0  0  0  0  0  0  0  0  0  0  0
  193.5450  173.7560  145.7030 Cl  0  0  0  0  0  0  0  0  0  0  0  0
  189.2610  174.5660  144.3620 C   0  0  0  0  0  3  0  0  0  0  0  0
  189.5460  177.0130  147.1490 C   0  0  0  0  0  3  0  0  0  0  0  0
  191.3510  173.3700  144.1510 C   0  0  0  0  0  3  0  0  0  0  0  0
  190.0370  173.6000  143.7190 C   0  0  0  0  0  0  0  0  0  0  0  0
  191.1100  175.0710  145.8640 C   0  0  0  0  0  0  0  0  0  0  0  0
  187.5810  176.5640  145.6420 C   0  0  2  0  0  3  0  0  0  0  0  0
  185.0550  177.9010  145.4300 C   0  0  0  0  0  2  0  0  0  0  0  0
  187.4680  177.7820  144.7450 C   0  0  0  0  0  0  0  0  0  0  0  0
  186.2240  178.6330  144.7640 C   0  0  0  0  0  2  0  0  0  0  0  0
  185.4800  177.2910  146.7360 C   0  0  0  0  0  3  0  0  0  0  0  0
  188.3620  178.0550  143.9600 O   0  0  0  0  0  0  0  0  0  0  0  0
  186.6580  176.6640  146.8330 C   0  0  0  0  0  3  0  0  0  0  0  0
  189.4800  172.8830  142.6570 O   0  0  0  0  0  0  0  0  0  0  0  0
  188.3310  173.3280  141.9490 C   0  0  0  0  0  2  0  0  0  0  0  0
  188.7460  174.2510  140.8160 C   0  0  2  0  0  3  0  0  0  0  0  0
  188.1430  175.5620  140.9960 N   0  0  0  0  0  1  0  0  0  0  0  0
  188.3310  173.6740  139.5040 C   0  0  0  0  0  0  0  0  0  0  0  0
  188.0860  174.5190  138.4310 O   0  0  0  0  0  0  0  0  0  0  0  0
  188.2150  172.4280  139.3570 O   0  0  0  0  0  1  0  0  0  0  0  0
  1  8  1  0  0  0  0
  2 11  1  0  0  0  0
  2  1  2  0  0  0  0
  4  3  1  0  0  0  0
  5  6  1  0  0  0  0
  5 11  1  0  0  0  0
  7  2  1  0  0  0  0
  8  3  2  0  0  0  0
  9  5  2  0  0  0  0
 10  9  1  0  0  0  0
 10  7  2  0  0  0  0
 11  4  2  0  0  0  0
 12  1  1  1  0  0  0
 12 18  1  0  0  0  0
 13 16  1  0  0  0  0
 14 15  1  0  0  0  0
 14 12  1  0  0  0  0
 15 13  1  0  0  0  0
 16 18  2  0  0  0  0
 17 14  2  0  0  0  0
 19 10  1  0  0  0  0
 20 19  1  0  0  0  0
 21 22  1  1  0  0  0
 21 20  1  0  0  0  0
 23 21  1  0  0  0  0
 24 23  2  0  0  0  0
 25 23  1  0  0  0  0
M  END
>  <MODEL>
5

>  <REMARK>
 VINA RESULT:      -6.9      3.911      6.624
  Name = 
  5 active torsions:
  status: ('A' for Active; 'I' for Inactive)
    1  A    between atoms: C_1  and  C_5
    2  A    between atoms: C_2  and  C_21
    3  A    between atoms: O_6  and  C_15
    4  A    between atoms: O_6  and  C_23
    5  A    between atoms: C_15  and  C_21
                            x       y       z     vdW  Elec       q    Type
                         _______ _______ _______ _____ _____    ______ ____

>  <TORSDO>
F 5

$$$$
=
 OpenBabel11052417243D

 25 27  0  0  1  0  0  0  0  0999 V2000
  188.0970  176.9180  145.8900 C   0  0  0  0  0  0  0  0  0  0  0  0
  187.3240  176.9960  144.7130 C   0  0  0  0  0  0  0  0  0  0  0  0
  186.4390  178.2590  147.0590 C   0  0  0  0  0  3  0  0  0  0  0  0
  185.6730  178.3400  145.8960 C   0  0  0  0  0  3  0  0  0  0  0  0
  185.3320  177.7930  143.5420 C   0  0  0  0  0  0  0  0  0  0  0  0
  183.8080  178.6690  143.4850 Cl  0  0  0  0  0  0  0  0  0  0  0  0
  187.7480  176.3720  143.5310 C   0  0  0  0  0  3  0  0  0  0  0  0
  187.6420  177.5530  147.0560 C   0  0  0  0  0  3  0  0  0  0  0  0
  185.7760  177.1620  142.3780 C   0  0  0  0  0  3  0  0  0  0  0  0
  186.9840  176.4490  142.3650 C   0  0  0  0  0  0  0  0  0  0  0  0
  186.1010  177.7150  144.7170 C   0  0  0  0  0  0  0  0  0  0  0  0
  189.3970  176.1560  145.9150 C   0  0  2  0  0  3  0  0  0  0  0  0
  192.0250  175.3680  146.7450 C   0  0  0  0  0  2  0  0  0  0  0  0
  189.5470  175.2800  147.1450 C   0  0  0  0  0  0  0  0  0  0  0  0
  190.9090  175.0140  147.7330 C   0  0  0  0  0  2  0  0  0  0  0  0
  191.7970  176.7270  146.1450 C   0  0  0  0  0  3  0  0  0  0  0  0
  188.5710  174.7360  147.6380 O   0  0  0  0  0  0  0  0  0  0  0  0
  190.5710  177.0920  145.7550 C   0  0  0  0  0  3  0  0  0  0  0  0
  187.4450  175.8120  141.2110 O   0  0  0  0  0  0  0  0  0  0  0  0
  188.5860  174.9650  141.2050 C   0  0  0  0  0  2  0  0  0  0  0  0
  188.1490  173.5100  141.1550 C   0  0  2  0  0  3  0  0  0  0  0  0
  188.5870  172.8180  142.3560 N   0  0  0  0  0  1  0  0  0  0  0  0
  188.7150  172.8430  139.9470 C   0  0  0  0  0  0  0  0  0  0  0  0
  188.1930  173.1350  138.6940 O   0  0  0  0  0  0  0  0  0  0  0  0
  189.6690  172.0270  140.0500 O   0  0  0  0  0  1  0  0  0  0  0  0
  1  8  1  0  0  0  0
  2 11  1  0  0  0  0
  2  1  2  0  0  0  0
  4  3  1  0  0  0  0
  5 11  1  0  0  0  0
  6  5  1  0  0  0  0
  7  2  1  0  0  0  0
  8  3  2  0  0  0  0
  9  5  2  0  0  0  0
 10  9  1  0  0  0  0
 10  7  2  0  0  0  0
 11  4  2  0  0  0  0
 12  1  1  1  0  0  0
 12 14  1  0  0  0  0
 13 15  1  0  0  0  0
 14 17  2  0  0  0  0
 14 15  1  0  0  0  0
 16 13  1  0  0  0  0
 18 12  1  0  0  0  0
 18 16  2  0  0  0  0
 19 10  1  0  0  0  0
 20 19  1  0  0  0  0
 21 20  1  0  0  0  0
 21 22  1  1  0  0  0
 23 25  1  0  0  0  0
 23 21  1  0  0  0  0
 24 23  2  0  0  0  0
M  END
>  <MODEL>
6

>  <REMARK>
 VINA RESULT:      -6.8      3.399      5.336
  Name = 
  5 active torsions:
  status: ('A' for Active; 'I' for Inactive)
    1  A    between atoms: C_1  and  C_5
    2  A    between atoms: C_2  and  C_21
    3  A    between atoms: O_6  and  C_15
    4  A    between atoms: O_6  and  C_23
    5  A    between atoms: C_15  and  C_21
                            x       y       z     vdW  Elec       q    Type
                         _______ _______ _______ _____ _____    ______ ____

>  <TORSDO>
F 5

$$$$
=
 OpenBabel11052417243D

 25 27  0  0  1  0  0  0  0  0999 V2000
  187.7220  177.6810  143.2420 C   0  0  0  0  0  0  0  0  0  0  0  0
  187.3850  177.3880  144.5800 C   0  0  0  0  0  0  0  0  0  0  0  0
  185.7200  179.0460  143.0430 C   0  0  0  0  0  3  0  0  0  0  0  0
  185.3830  178.7580  144.3650 C   0  0  0  0  0  3  0  0  0  0  0  0
  185.8680  177.6400  146.4800 C   0  0  0  0  0  0  0  0  0  0  0  0
  184.4170  178.2850  147.2360 Cl  0  0  0  0  0  0  0  0  0  0  0  0
  188.2040  176.5640  145.3650 C   0  0  0  0  0  3  0  0  0  0  0  0
  186.8810  178.5120  142.4860 C   0  0  0  0  0  3  0  0  0  0  0  0
  186.7000  176.8160  147.2400 C   0  0  0  0  0  3  0  0  0  0  0  0
  187.8700  176.2750  146.6890 C   0  0  0  0  0  0  0  0  0  0  0  0
  186.2030  177.9330  145.1450 C   0  0  0  0  0  0  0  0  0  0  0  0
  188.9750  177.1210  142.6180 C   0  0  2  0  0  3  0  0  0  0  0  0
  191.4420  175.6800  142.3920 C   0  0  0  0  0  2  0  0  0  0  0  0
  188.9320  175.6140  142.4520 C   0  0  0  0  0  0  0  0  0  0  0  0
  190.1980  174.7990  142.5370 C   0  0  0  0  0  2  0  0  0  0  0  0
  191.3500  176.8870  143.2830 C   0  0  0  0  0  3  0  0  0  0  0  0
  187.8800  175.0510  142.1940 O   0  0  0  0  0  0  0  0  0  0  0  0
  190.1980  177.5610  143.3850 C   0  0  0  0  0  3  0  0  0  0  0  0
  188.7150  175.4480  147.4340 O   0  0  0  0  0  0  0  0  0  0  0  0
  189.8800  174.8460  146.8860 C   0  0  0  0  0  2  0  0  0  0  0  0
  191.1180  175.3960  147.5720 C   0  0  2  0  0  3  0  0  0  0  0  0
  190.8790  176.7620  148.0110 N   0  0  0  0  0  1  0  0  0  0  0  0
  192.2840  175.3560  146.6420 C   0  0  0  0  0  0  0  0  0  0  0  0
  193.2170  176.3830  146.6670 O   0  0  0  0  0  1  0  0  0  0  0  0
  192.4360  174.3930  145.8440 O   0  0  0  0  0  0  0  0  0  0  0  0
  1  2  1  0  0  0  0
  2 11  2  0  0  0  0
  2  7  1  0  0  0  0
  3  4  2  0  0  0  0
  4 11  1  0  0  0  0
  5  6  1  0  0  0  0
  5  9  2  0  0  0  0
  7 10  2  0  0  0  0
  8  3  1  0  0  0  0
  8  1  2  0  0  0  0
 10  9  1  0  0  0  0
 10 19  1  0  0  0  0
 11  5  1  0  0  0  0
 12  1  1  1  0  0  0
 12 18  1  0  0  0  0
 13 15  1  0  0  0  0
 13 16  1  0  0  0  0
 14 15  1  0  0  0  0
 14 12  1  0  0  0  0
 16 18  2  0  0  0  0
 17 14  2  0  0  0  0
 20 19  1  0  0  0  0
 20 21  1  0  0  0  0
 21 22  1  6  0  0  0
 23 24  1  0  0  0  0
 23 21  1  0  0  0  0
 25 23  2  0  0  0  0
M  END
>  <MODEL>
7

>  <REMARK>
 VINA RESULT:      -6.7      2.661      5.190
  Name = 
  5 active torsions:
  status: ('A' for Active; 'I' for Inactive)
    1  A    between atoms: C_1  and  C_5
    2  A    between atoms: C_2  and  C_21
    3  A    between atoms: O_6  and  C_15
    4  A    between atoms: O_6  and  C_23
    5  A    between atoms: C_15  and  C_21
                            x       y       z     vdW  Elec       q    Type
                         _______ _______ _______ _____ _____    ______ ____

>  <TORSDO>
F 5

$$$$
=
 OpenBabel11052417243D

 25 27  0  0  1  0  0  0  0  0999 V2000
  187.4550  177.5310  146.4290 C   0  0  0  0  0  0  0  0  0  0  0  0
  186.8530  177.3840  145.1620 C   0  0  0  0  0  0  0  0  0  0  0  0
  185.6150  178.9580  147.1300 C   0  0  0  0  0  3  0  0  0  0  0  0
  185.0180  178.8150  145.8780 C   0  0  0  0  0  3  0  0  0  0  0  0
  185.0240  177.8860  143.6210 C   0  0  0  0  0  0  0  0  0  0  0  0
  183.5000  178.6660  143.2190 Cl  0  0  0  0  0  0  0  0  0  0  0  0
  187.4550  176.6010  144.1660 C   0  0  0  0  0  3  0  0  0  0  0  0
  186.8260  178.3200  147.4030 C   0  0  0  0  0  3  0  0  0  0  0  0
  185.6430  177.1010  142.6460 C   0  0  0  0  0  3  0  0  0  0  0  0
  186.8590  176.4550  142.9120 C   0  0  0  0  0  0  0  0  0  0  0  0
  185.6230  178.0330  144.8850 C   0  0  0  0  0  0  0  0  0  0  0  0
  188.7600  176.8470  146.7520 C   0  0  2  0  0  3  0  0  0  0  0  0
  190.9780  175.0510  146.4960 C   0  0  0  0  0  2  0  0  0  0  0  0
  189.8640  177.1810  145.7670 C   0  0  0  0  0  0  0  0  0  0  0  0
  190.9380  176.1710  145.4510 C   0  0  0  0  0  2  0  0  0  0  0  0
  189.5990  174.5160  146.7600 C   0  0  0  0  0  3  0  0  0  0  0  0
  189.9250  178.2910  145.2610 O   0  0  0  0  0  0  0  0  0  0  0  0
  188.5650  175.3560  146.8830 C   0  0  0  0  0  3  0  0  0  0  0  0
  187.4930  175.6650  141.9490 O   0  0  0  0  0  0  0  0  0  0  0  0
  188.5040  174.7220  142.2750 C   0  0  0  0  0  2  0  0  0  0  0  0
  188.1290  173.3530  141.7330 C   0  0  2  0  0  3  0  0  0  0  0  0
  188.6740  172.3120  142.5880 N   0  0  0  0  0  1  0  0  0  0  0  0
  188.6420  173.1920  140.3410 C   0  0  0  0  0  0  0  0  0  0  0  0
  187.8170  172.6550  139.3630 O   0  0  0  0  0  0  0  0  0  0  0  0
  189.8130  173.5500  140.0430 O   0  0  0  0  0  1  0  0  0  0  0  0
  1  8  1  0  0  0  0
  2  1  2  0  0  0  0
  3  8  2  0  0  0  0
  4  3  1  0  0  0  0
  5 11  1  0  0  0  0
  6  5  1  0  0  0  0
  7  2  1  0  0  0  0
  9 10  1  0  0  0  0
  9  5  2  0  0  0  0
 10  7  2  0  0  0  0
 11  2  1  0  0  0  0
 11  4  2  0  0  0  0
 12  1  1  6  0  0  0
 12 18  1  0  0  0  0
 13 16  1  0  0  0  0
 14 12  1  0  0  0  0
 15 14  1  0  0  0  0
 15 13  1  0  0  0  0
 16 18  2  0  0  0  0
 17 14  2  0  0  0  0
 19 20  1  0  0  0  0
 19 10  1  0  0  0  0
 21 20  1  0  0  0  0
 21 22  1  1  0  0  0
 23 21  1  0  0  0  0
 24 23  2  0  0  0  0
 25 23  1  0  0  0  0
M  END
>  <MODEL>
8

>  <REMARK>
 VINA RESULT:      -6.7      3.279      5.178
  Name = 
  5 active torsions:
  status: ('A' for Active; 'I' for Inactive)
    1  A    between atoms: C_1  and  C_5
    2  A    between atoms: C_2  and  C_21
    3  A    between atoms: O_6  and  C_15
    4  A    between atoms: O_6  and  C_23
    5  A    between atoms: C_15  and  C_21
                            x       y       z     vdW  Elec       q    Type
                         _______ _______ _______ _____ _____    ______ ____

>  <TORSDO>
F 5

$$$$
=
 OpenBabel11052417243D

 25 27  0  0  1  0  0  0  0  0999 V2000
  188.1010  175.8440  142.1990 C   0  0  0  0  0  0  0  0  0  0  0  0
  187.7550  176.5090  143.3940 C   0  0  0  0  0  0  0  0  0  0  0  0
  186.8660  177.5060  140.9240 C   0  0  0  0  0  3  0  0  0  0  0  0
  186.5210  178.1660  142.1040 C   0  0  0  0  0  3  0  0  0  0  0  0
  186.6130  178.3430  144.5360 C   0  0  0  0  0  0  0  0  0  0  0  0
  185.6270  179.7990  144.5380 Cl  0  0  0  0  0  0  0  0  0  0  0  0
  188.1900  176.0280  144.6370 C   0  0  0  0  0  3  0  0  0  0  0  0
  187.6510  176.3530  140.9720 C   0  0  0  0  0  3  0  0  0  0  0  0
  187.0590  177.8440  145.7620 C   0  0  0  0  0  3  0  0  0  0  0  0
  187.8490  176.6870  145.8200 C   0  0  0  0  0  0  0  0  0  0  0  0
  186.9570  177.6810  143.3430 C   0  0  0  0  0  0  0  0  0  0  0  0
  188.9530  174.6000  142.2220 C   0  0  2  0  0  3  0  0  0  0  0  0
  190.6460  172.4940  141.2660 C   0  0  0  0  0  2  0  0  0  0  0  0
  190.4260  174.8870  141.9990 C   0  0  0  0  0  0  0  0  0  0  0  0
  191.3050  173.8770  141.3060 C   0  0  0  0  0  2  0  0  0  0  0  0
  189.2230  172.5940  140.7940 C   0  0  0  0  0  3  0  0  0  0  0  0
  190.9260  175.9150  142.4260 O   0  0  0  0  0  0  0  0  0  0  0  0
  188.4320  173.5750  141.2440 C   0  0  0  0  0  3  0  0  0  0  0  0
  188.3040  176.1720  147.0360 O   0  0  0  0  0  0  0  0  0  0  0  0
  189.1150  175.0080  147.1220 C   0  0  0  0  0  2  0  0  0  0  0  0
  190.5340  175.3930  147.5040 C   0  0  2  0  0  3  0  0  0  0  0  0
  190.6190  176.8290  147.7180 N   0  0  0  0  0  1  0  0  0  0  0  0
  191.4860  174.9790  146.4330 C   0  0  0  0  0  0  0  0  0  0  0  0
  192.8150  175.3730  146.5070 O   0  0  0  0  0  1  0  0  0  0  0  0
  191.0990  174.2670  145.4690 O   0  0  0  0  0  0  0  0  0  0  0  0
  1  2  1  0  0  0  0
  2  7  1  0  0  0  0
  3  8  1  0  0  0  0
  3  4  2  0  0  0  0
  4 11  1  0  0  0  0
  5  6  1  0  0  0  0
  5  9  2  0  0  0  0
  7 10  2  0  0  0  0
  8  1  2  0  0  0  0
  9 10  1  0  0  0  0
 10 19  1  0  0  0  0
 11  2  2  0  0  0  0
 11  5  1  0  0  0  0
 12  1  1  6  0  0  0
 13 15  1  0  0  0  0
 14 12  1  0  0  0  0
 14 17  2  0  0  0  0
 15 14  1  0  0  0  0
 16 18  2  0  0  0  0
 16 13  1  0  0  0  0
 18 12  1  0  0  0  0
 19 20  1  0  0  0  0
 20 21  1  0  0  0  0
 21 22  1  6  0  0  0
 23 24  1  0  0  0  0
 23 21  1  0  0  0  0
 25 23  2  0  0  0  0
M  END
>  <MODEL>
9

>  <REMARK>
 VINA RESULT:      -6.6      2.358      4.746
  Name = 
  5 active torsions:
  status: ('A' for Active; 'I' for Inactive)
    1  A    between atoms: C_1  and  C_5
    2  A    between atoms: C_2  and  C_21
    3  A    between atoms: O_6  and  C_15
    4  A    between atoms: O_6  and  C_23
    5  A    between atoms: C_15  and  C_21
                            x       y       z     vdW  Elec       q    Type
                         _______ _______ _______ _____ _____    ______ ____

>  <TORSDO>
F 5

$$$$
