=
 OpenBabel11052419563D

 37 42  0  0  1  0  0  0  0  0999 V2000
  193.0960  174.4630  143.5860 C   0  0  1  0  0  0  0  0  0  0  0  0
  191.7270  171.6430  141.7970 C   0  0  0  0  0  0  0  0  0  0  0  0
  188.9260  174.1740  142.5210 C   0  0  0  0  0  0  0  0  0  0  0  0
  194.0800  174.1120  144.7480 C   0  0  0  0  0  0  0  0  0  0  0  0
  190.0680  172.8860  140.1770 C   0  0  0  0  0  3  0  0  0  0  0  0
  189.3690  175.3540  143.2820 N   0  0  0  0  0  0  0  0  0  0  0  0
  193.6180  176.0990  146.2050 C   0  0  0  0  0  0  0  0  0  0  0  0
  194.0870  172.7360  145.3770 C   0  0  0  0  0  2  0  0  0  0  0  0
  189.9020  173.0470  142.6070 C   0  0  0  0  0  3  0  0  0  0  0  0
  188.4470  176.4600  143.2040 C   0  0  0  0  0  0  0  0  0  0  0  0
  188.7610  174.1540  138.6350 N   0  0  0  0  0  1  0  0  0  0  0  0
  194.4830  175.1540  145.6340 O   0  0  0  0  0  0  0  0  0  0  0  0
  193.1200  173.5220  142.5120 O   0  0  0  0  0  0  0  0  0  0  0  0
  192.5650  171.4470  140.5400 C   0  0  0  0  0  1  0  0  0  0  0  0
  188.0570  175.7660  140.9240 N   0  0  0  0  0  0  0  0  0  0  0  0
  195.2100  173.1570  144.4320 C   0  0  0  0  0  2  0  0  0  0  0  0
  189.1450  173.8300  139.9680 C   0  0  2  0  0  3  0  0  0  0  0  0
  192.6140  172.2580  142.8970 C   0  0  0  0  0  2  0  0  0  0  0  0
  192.2240  176.0320  146.0780 O   0  0  0  0  0  0  0  0  0  0  0  0
  190.7950  175.7120  143.3490 C   0  0  0  0  0  2  0  0  0  0  0  0
  188.6340  174.6120  141.1070 C   0  0  0  0  0  0  0  0  0  0  0  0
  191.6420  174.6860  144.1260 C   0  0  2  0  0  3  0  0  0  0  0  0
  190.5230  172.5260  141.5450 C   0  0  0  0  0  0  0  0  0  0  0  0
  191.2590  170.2780  142.2660 C   0  0  0  0  0  1  0  0  0  0  0  0
  191.5210  174.8800  145.6370 C   0  0  0  0  0  2  0  0  0  0  0  0
  194.1170  177.0620  146.8410 O   0  0  0  0  0  0  0  0  0  0  0  0
  193.6200  175.7680  142.9900 C   0  0  0  0  0  1  0  0  0  0  0  0
  187.8190  176.6610  142.0290 C   0  0  0  0  0  3  0  0  0  0  0  0
  189.2640  178.1220  144.6620 O   0  0  0  0  0  0  0  0  0  0  0  0
  188.2880  177.3820  144.3590 C   0  0  0  0  0  0  0  0  0  0  0  0
  186.9630  176.9060  146.4580 C   0  0  0  0  0  3  0  0  0  0  0  0
  187.0530  177.4800  145.1790 C   0  0  0  0  0  0  0  0  0  0  0  0
  185.9530  178.1990  144.6850 C   0  0  0  0  0  3  0  0  0  0  0  0
  183.7040  179.0370  144.9380 O   0  0  0  0  0  1  0  0  0  0  0  0
  184.7070  177.7440  146.7090 C   0  0  0  0  0  3  0  0  0  0  0  0
  184.7850  178.3280  145.4420 C   0  0  0  0  0  0  0  0  0  0  0  0
  185.7970  177.0350  147.2180 C   0  0  0  0  0  3  0  0  0  0  0  0
  1 27  1  6  0  0  0
  1 22  1  0  0  0  0
  1  4  1  0  0  0  0
  2 24  1  0  0  0  0
  2 18  1  0  0  0  0
  3  9  2  0  0  0  0
  3  6  1  0  0  0  0
  4  8  1  0  0  0  0
  4 12  1  0  0  0  0
  5 23  2  0  0  0  0
  6 20  1  0  0  0  0
  7 26  2  0  0  0  0
 10  6  1  0  0  0  0
 10 30  1  0  0  0  0
 12  7  1  0  0  0  0
 13 18  1  0  0  0  0
 13  1  1  0  0  0  0
 14  2  1  0  0  0  0
 15 21  2  0  0  0  0
 15 28  1  0  0  0  0
 16  4  1  0  0  0  0
 16  8  1  0  0  0  0
 17 11  1  6  0  0  0
 17  5  1  0  0  0  0
 17 21  1  0  0  0  0
 19  7  1  0  0  0  0
 21  3  1  0  0  0  0
 22 20  1  6  0  0  0
 22 25  1  0  0  0  0
 23  2  1  0  0  0  0
 23  9  1  0  0  0  0
 25 19  1  0  0  0  0
 28 10  2  0  0  0  0
 30 29  2  0  0  0  0
 30 32  1  0  0  0  0
 31 37  1  0  0  0  0
 32 31  2  0  0  0  0
 33 32  1  0  0  0  0
 33 36  2  0  0  0  0
 34 36  1  0  0  0  0
 35 37  2  0  0  0  0
 36 35  1  0  0  0  0
M  END
>  <MODEL>
1

>  <REMARK>
 VINA RESULT:      -9.4      0.000      0.000
  Name = 
  2 active torsions:
  status: ('A' for Active; 'I' for Inactive)
    1  A    between atoms: C_6  and  C_31
    2  A    between atoms: C_14  and  C_31
                            x       y       z     vdW  Elec       q    Type
                         _______ _______ _______ _____ _____    ______ ____

>  <TORSDO>
F 2

$$$$
=
 OpenBabel11052419563D

 37 42  0  0  1  0  0  0  0  0999 V2000
  188.8420  176.7780  143.4050 C   0  0  1  0  0  0  0  0  0  0  0  0
  189.7250  175.4380  146.6380 C   0  0  0  0  0  0  0  0  0  0  0  0
  191.0140  173.0820  143.8880 C   0  0  2  0  0  3  0  0  0  0  0  0
  187.3830  177.3210  143.2740 C   0  0  0  0  0  0  0  0  0  0  0  0
  192.1490  174.5540  146.1250 C   0  0  0  0  0  3  0  0  0  0  0  0
  190.6760  173.5160  142.5220 N   0  0  0  0  0  0  0  0  0  0  0  0
  187.0610  176.8650  140.8310 C   0  0  0  0  0  0  0  0  0  0  0  0
  186.3010  176.8930  144.2420 C   0  0  0  0  0  2  0  0  0  0  0  0
  190.1780  173.7640  144.9210 C   0  0  0  0  0  3  0  0  0  0  0  0
  191.4790  172.8800  141.5080 C   0  0  0  0  0  0  0  0  0  0  0  0
  194.4000  173.9850  145.5750 N   0  0  0  0  0  1  0  0  0  0  0  0
  186.8970  177.6570  141.9770 O   0  0  0  0  0  0  0  0  0  0  0  0
  189.3890  176.9140  144.7170 O   0  0  0  0  0  0  0  0  0  0  0  0
  190.4530  176.5340  147.4050 C   0  0  0  0  0  1  0  0  0  0  0  0
  193.2960  173.0030  143.0950 N   0  0  0  0  0  0  0  0  0  0  0  0
  186.9090  178.2910  144.3350 C   0  0  0  0  0  2  0  0  0  0  0  0
  193.0020  173.9210  145.3130 C   0  0  0  0  0  0  0  0  0  0  0  0
  188.7290  176.0920  145.6600 C   0  0  0  0  0  2  0  0  0  0  0  0
  187.6010  175.5730  140.8660 O   0  0  0  0  0  0  0  0  0  0  0  0
  190.2910  174.9110  142.2530 C   0  0  0  0  0  2  0  0  0  0  0  0
  192.4970  173.2770  144.0880 C   0  0  0  0  0  0  0  0  0  0  0  0
  188.9430  175.3020  142.8880 C   0  0  2  0  0  3  0  0  0  0  0  0
  190.6830  174.5410  145.8840 C   0  0  0  0  0  0  0  0  0  0  0  0
  188.9410  174.6090  147.6380 C   0  0  0  0  0  1  0  0  0  0  0  0
  187.7600  174.8110  142.0550 C   0  0  0  0  0  2  0  0  0  0  0  0
  186.7280  177.3450  139.7170 O   0  0  0  0  0  0  0  0  0  0  0  0
  189.6940  177.6830  142.5170 C   0  0  0  0  0  1  0  0  0  0  0  0
  192.7750  172.6470  141.7990 C   0  0  0  0  0  3  0  0  0  0  0  0
  190.0670  171.6470  140.0800 O   0  0  0  0  0  0  0  0  0  0  0  0
  190.9000  172.5900  140.1700 C   0  0  0  0  0  0  0  0  0  0  0  0
  192.5340  173.8620  138.7210 C   0  0  0  0  0  3  0  0  0  0  0  0
  191.2480  173.3390  138.9350 C   0  0  0  0  0  0  0  0  0  0  0  0
  190.2810  173.4970  137.9290 C   0  0  0  0  0  3  0  0  0  0  0  0
  189.6160  174.3310  135.7650 O   0  0  0  0  0  1  0  0  0  0  0  0
  191.8650  174.7000  136.5520 C   0  0  0  0  0  3  0  0  0  0  0  0
  190.5850  174.1770  136.7470 C   0  0  0  0  0  0  0  0  0  0  0  0
  192.8410  174.5410  137.5390 C   0  0  0  0  0  3  0  0  0  0  0  0
  1 27  1  6  0  0  0
  1 13  1  0  0  0  0
  2 14  1  0  0  0  0
  2 24  1  0  0  0  0
  3 21  1  0  0  0  0
  3  9  1  1  0  0  0
  4  1  1  0  0  0  0
  4  8  1  0  0  0  0
  4 16  1  0  0  0  0
  6  3  1  0  0  0  0
  7 19  1  0  0  0  0
  7 12  1  0  0  0  0
  8 16  1  0  0  0  0
  9 23  2  0  0  0  0
 10 28  2  0  0  0  0
 10  6  1  0  0  0  0
 12  4  1  0  0  0  0
 13 18  1  0  0  0  0
 15 21  2  0  0  0  0
 17 11  1  0  0  0  0
 17  5  2  0  0  0  0
 18  2  1  0  0  0  0
 19 25  1  0  0  0  0
 20  6  1  0  0  0  0
 20 22  1  0  0  0  0
 21 17  1  0  0  0  0
 22 25  1  6  0  0  0
 22  1  1  0  0  0  0
 23  5  1  0  0  0  0
 23  2  1  0  0  0  0
 26  7  2  0  0  0  0
 28 15  1  0  0  0  0
 29 30  2  0  0  0  0
 30 10  1  0  0  0  0
 31 32  1  0  0  0  0
 32 30  1  0  0  0  0
 33 32  2  0  0  0  0
 34 36  1  0  0  0  0
 35 36  2  0  0  0  0
 35 37  1  0  0  0  0
 36 33  1  0  0  0  0
 37 31  2  0  0  0  0
M  END
>  <MODEL>
2

>  <REMARK>
 VINA RESULT:      -9.0      2.985      7.619
  Name = 
  2 active torsions:
  status: ('A' for Active; 'I' for Inactive)
    1  A    between atoms: C_6  and  C_31
    2  A    between atoms: C_14  and  C_31
                            x       y       z     vdW  Elec       q    Type
                         _______ _______ _______ _____ _____    ______ ____

>  <TORSDO>
F 2

$$$$
=
 OpenBabel11052419563D

 37 42  0  0  1  0  0  0  0  0999 V2000
  188.8180  176.9080  143.4620 C   0  0  1  0  0  0  0  0  0  0  0  0
  189.7430  175.4880  146.6490 C   0  0  0  0  0  0  0  0  0  0  0  0
  191.2550  173.3670  143.8220 C   0  0  2  0  0  3  0  0  0  0  0  0
  187.3240  177.3450  143.3260 C   0  0  0  0  0  0  0  0  0  0  0  0
  192.2360  174.8130  146.1470 C   0  0  0  0  0  3  0  0  0  0  0  0
  190.9100  173.8390  142.4700 N   0  0  0  0  0  0  0  0  0  0  0  0
  187.0800  176.9820  140.8580 C   0  0  0  0  0  0  0  0  0  0  0  0
  186.2610  176.7920  144.2500 C   0  0  0  0  0  2  0  0  0  0  0  0
  190.3530  173.9350  144.8670 C   0  0  0  0  0  3  0  0  0  0  0  0
  191.7760  173.3130  141.4450 C   0  0  0  0  0  0  0  0  0  0  0  0
  194.5330  174.4420  145.6190 N   0  0  0  0  0  1  0  0  0  0  0  0
  186.8370  177.7040  142.0360 O   0  0  0  0  0  0  0  0  0  0  0  0
  189.3290  177.0230  144.7910 O   0  0  0  0  0  0  0  0  0  0  0  0
  190.3730  176.5980  147.4800 C   0  0  0  0  0  1  0  0  0  0  0  0
  193.5510  173.4970  143.0740 N   0  0  0  0  0  0  0  0  0  0  0  0
  186.7590  178.2250  144.4190 C   0  0  0  0  0  2  0  0  0  0  0  0
  193.1490  174.2860  145.3250 C   0  0  0  0  0  0  0  0  0  0  0  0
  188.7180  176.1100  145.6810 C   0  0  0  0  0  2  0  0  0  0  0  0
  187.7160  175.7340  140.8460 O   0  0  0  0  0  0  0  0  0  0  0  0
  190.4240  175.2120  142.2570 C   0  0  0  0  0  2  0  0  0  0  0  0
  192.7160  173.6630  144.0610 C   0  0  0  0  0  0  0  0  0  0  0  0
  189.0390  175.4700  142.8810 C   0  0  2  0  0  3  0  0  0  0  0  0
  190.7800  174.7010  145.8750 C   0  0  0  0  0  0  0  0  0  0  0  0
  189.0080  174.5550  147.5930 C   0  0  0  0  0  1  0  0  0  0  0  0
  187.9120  174.9310  142.0010 C   0  0  0  0  0  2  0  0  0  0  0  0
  186.7310  177.4880  139.7610 O   0  0  0  0  0  0  0  0  0  0  0  0
  189.6130  177.9160  142.6350 C   0  0  0  0  0  1  0  0  0  0  0  0
  193.0800  173.1650  141.7520 C   0  0  0  0  0  3  0  0  0  0  0  0
  191.1220  174.0190  139.2940 O   0  0  0  0  0  0  0  0  0  0  0  0
  191.2440  173.0430  140.0830 C   0  0  0  0  0  0  0  0  0  0  0  0
  190.1230  171.5180  138.4080 C   0  0  0  0  0  3  0  0  0  0  0  0
  190.8440  171.6960  139.6010 C   0  0  0  0  0  0  0  0  0  0  0  0
  191.2290  170.5600  140.3310 C   0  0  0  0  0  3  0  0  0  0  0  0
  191.2690  168.1660  140.6260 O   0  0  0  0  0  1  0  0  0  0  0  0
  190.1610  169.1180  138.7070 C   0  0  0  0  0  3  0  0  0  0  0  0
  190.8870  169.2780  139.8900 C   0  0  0  0  0  0  0  0  0  0  0  0
  189.7810  170.2380  137.9650 C   0  0  0  0  0  3  0  0  0  0  0  0
  1 27  1  6  0  0  0
  1 13  1  0  0  0  0
  2 14  1  0  0  0  0
  2 24  1  0  0  0  0
  3 21  1  0  0  0  0
  3  9  1  1  0  0  0
  4  1  1  0  0  0  0
  4  8  1  0  0  0  0
  4 16  1  0  0  0  0
  6  3  1  0  0  0  0
  7 12  1  0  0  0  0
  8 16  1  0  0  0  0
  9 23  2  0  0  0  0
 10 28  2  0  0  0  0
 10  6  1  0  0  0  0
 12  4  1  0  0  0  0
 13 18  1  0  0  0  0
 15 21  2  0  0  0  0
 17 11  1  0  0  0  0
 17  5  2  0  0  0  0
 18  2  1  0  0  0  0
 19  7  1  0  0  0  0
 19 25  1  0  0  0  0
 20  6  1  0  0  0  0
 20 22  1  0  0  0  0
 21 17  1  0  0  0  0
 22 25  1  6  0  0  0
 22  1  1  0  0  0  0
 23  5  1  0  0  0  0
 23  2  1  0  0  0  0
 26  7  2  0  0  0  0
 28 15  1  0  0  0  0
 29 30  2  0  0  0  0
 30 10  1  0  0  0  0
 31 32  1  0  0  0  0
 32 30  1  0  0  0  0
 32 33  2  0  0  0  0
 35 36  2  0  0  0  0
 36 33  1  0  0  0  0
 36 34  1  0  0  0  0
 37 31  2  0  0  0  0
 37 35  1  0  0  0  0
M  END
>  <MODEL>
3

>  <REMARK>
 VINA RESULT:      -8.9      2.732      7.796
  Name = 
  2 active torsions:
  status: ('A' for Active; 'I' for Inactive)
    1  A    between atoms: C_6  and  C_31
    2  A    between atoms: C_14  and  C_31
                            x       y       z     vdW  Elec       q    Type
                         _______ _______ _______ _____ _____    ______ ____

>  <TORSDO>
F 2

$$$$
=
 OpenBabel11052419563D

 37 42  0  0  1  0  0  0  0  0999 V2000
  190.7780  173.3980  142.3480 C   0  0  1  0  0  0  0  0  0  0  0  0
  193.8230  175.3100  142.0330 C   0  0  0  0  0  0  0  0  0  0  0  0
  191.5090  177.0110  144.5890 C   0  0  2  0  0  3  0  0  0  0  0  0
  190.1460  172.9090  141.0060 C   0  0  0  0  0  0  0  0  0  0  0  0
  194.2210  175.9610  144.5510 C   0  0  0  0  0  3  0  0  0  0  0  0
  190.2160  176.3300  144.7710 N   0  0  0  0  0  0  0  0  0  0  0  0
  187.7490  172.8850  141.7390 C   0  0  0  0  0  0  0  0  0  0  0  0
  190.4960  173.5710  139.6910 C   0  0  0  0  0  2  0  0  0  0  0  0
  192.2000  176.5880  143.3350 C   0  0  0  0  0  3  0  0  0  0  0  0
  189.5360  176.7150  145.9830 C   0  0  0  0  0  0  0  0  0  0  0  0
  194.5660  176.3030  146.8880 N   0  0  0  0  0  1  0  0  0  0  0  0
  188.8370  172.3450  141.0370 O   0  0  0  0  0  0  0  0  0  0  0  0
  192.2020  173.5000  142.3080 O   0  0  0  0  0  0  0  0  0  0  0  0
  194.9890  174.3560  142.2560 C   0  0  0  0  0  1  0  0  0  0  0  0
  191.7290  176.8240  146.9900 N   0  0  0  0  0  0  0  0  0  0  0  0
  191.0570  172.1920  140.0340 C   0  0  0  0  0  2  0  0  0  0  0  0
  193.7440  176.3790  145.7280 C   0  0  0  0  0  0  0  0  0  0  0  0
  192.6400  174.5230  141.4360 C   0  0  0  0  0  2  0  0  0  0  0  0
  187.7950  174.1320  142.3760 O   0  0  0  0  0  0  0  0  0  0  0  0
  190.0410  174.9290  144.3540 C   0  0  0  0  0  2  0  0  0  0  0  0
  192.3320  176.7910  145.8350 C   0  0  0  0  0  0  0  0  0  0  0  0
  190.1170  174.7360  142.8280 C   0  0  2  0  0  3  0  0  0  0  0  0
  193.3970  175.9950  143.3150 C   0  0  0  0  0  0  0  0  0  0  0  0
  194.2610  176.3580  141.0270 C   0  0  0  0  0  1  0  0  0  0  0  0
  188.8020  175.1060  142.1430 C   0  0  0  0  0  2  0  0  0  0  0  0
  186.6910  172.2090  141.8180 O   0  0  0  0  0  0  0  0  0  0  0  0
  190.4800  172.2960  143.3630 C   0  0  0  0  0  1  0  0  0  0  0  0
  190.2940  176.9400  147.0740 C   0  0  0  0  0  3  0  0  0  0  0  0
  187.4580  175.9880  146.8250 O   0  0  0  0  0  0  0  0  0  0  0  0
  188.0510  176.7600  146.0230 C   0  0  0  0  0  0  0  0  0  0  0  0
  186.3140  178.5720  145.7220 C   0  0  0  0  0  3  0  0  0  0  0  0
  187.2250  177.6550  145.1710 C   0  0  0  0  0  0  0  0  0  0  0  0
  187.3830  177.6190  143.7770 C   0  0  0  0  0  3  0  0  0  0  0  0
  186.8000  178.4130  141.5740 O   0  0  0  0  0  1  0  0  0  0  0  0
  185.7290  179.3650  143.5130 C   0  0  0  0  0  3  0  0  0  0  0  0
  186.6370  178.4650  142.9510 C   0  0  0  0  0  0  0  0  0  0  0  0
  185.5680  179.4200  144.8990 C   0  0  0  0  0  3  0  0  0  0  0  0
  1 22  1  0  0  0  0
  1 27  1  1  0  0  0
  2 14  1  0  0  0  0
  2 23  1  0  0  0  0
  3  9  1  6  0  0  0
  3  6  1  0  0  0  0
  3 21  1  0  0  0  0
  4 12  1  0  0  0  0
  4  1  1  0  0  0  0
  5 17  2  0  0  0  0
  6 10  1  0  0  0  0
  7 26  2  0  0  0  0
  7 19  1  0  0  0  0
  8 16  1  0  0  0  0
  8  4  1  0  0  0  0
 10 30  1  0  0  0  0
 10 28  2  0  0  0  0
 12  7  1  0  0  0  0
 13  1  1  0  0  0  0
 15 28  1  0  0  0  0
 16  4  1  0  0  0  0
 17 21  1  0  0  0  0
 17 11  1  0  0  0  0
 18  2  1  0  0  0  0
 18 13  1  0  0  0  0
 20  6  1  0  0  0  0
 21 15  2  0  0  0  0
 22 25  1  1  0  0  0
 22 20  1  0  0  0  0
 23  9  2  0  0  0  0
 23  5  1  0  0  0  0
 24  2  1  0  0  0  0
 25 19  1  0  0  0  0
 30 29  2  0  0  0  0
 32 31  1  0  0  0  0
 32 30  1  0  0  0  0
 33 32  2  0  0  0  0
 34 36  1  0  0  0  0
 35 37  1  0  0  0  0
 36 35  2  0  0  0  0
 36 33  1  0  0  0  0
 37 31  2  0  0  0  0
M  END
>  <MODEL>
4

>  <REMARK>
 VINA RESULT:      -8.9      2.636      5.242
  Name = 
  2 active torsions:
  status: ('A' for Active; 'I' for Inactive)
    1  A    between atoms: C_6  and  C_31
    2  A    between atoms: C_14  and  C_31
                            x       y       z     vdW  Elec       q    Type
                         _______ _______ _______ _____ _____    ______ ____

>  <TORSDO>
F 2

$$$$
=
 OpenBabel11052419563D

 37 42  0  0  1  0  0  0  0  0999 V2000
  190.6530  172.6190  142.6360 C   0  0  1  0  0  0  0  0  0  0  0  0
  193.6610  173.3650  144.4860 C   0  0  0  0  0  0  0  0  0  0  0  0
  191.3240  176.4160  144.5710 C   0  0  2  0  0  3  0  0  0  0  0  0
  190.8650  171.9010  141.2650 C   0  0  0  0  0  0  0  0  0  0  0  0
  192.6380  174.6940  146.5120 C   0  0  0  0  0  3  0  0  0  0  0  0
  190.0750  176.2330  143.8130 N   0  0  0  0  0  0  0  0  0  0  0  0
  188.8480  172.8070  140.0840 C   0  0  0  0  0  0  0  0  0  0  0  0
  192.2010  171.9460  140.5570 C   0  0  0  0  0  2  0  0  0  0  0  0
  192.3650  175.4130  144.1960 C   0  0  0  0  0  3  0  0  0  0  0  0
  189.0500  177.1830  144.1670 C   0  0  0  0  0  0  0  0  0  0  0  0
  191.5580  175.7010  148.3870 N   0  0  0  0  0  1  0  0  0  0  0  0
  189.7500  171.7760  140.3850 O   0  0  0  0  0  0  0  0  0  0  0  0
  191.6440  172.2940  143.6110 O   0  0  0  0  0  0  0  0  0  0  0  0
  193.8560  172.2550  145.5110 C   0  0  0  0  0  1  0  0  0  0  0  0
  189.8900  177.0060  146.4250 N   0  0  0  0  0  0  0  0  0  0  0  0
  191.7430  170.6690  141.2580 C   0  0  0  0  0  2  0  0  0  0  0  0
  191.7820  175.6060  146.9840 C   0  0  0  0  0  0  0  0  0  0  0  0
  192.9220  172.7890  143.2620 C   0  0  0  0  0  2  0  0  0  0  0  0
  189.0300  174.1290  140.5090 O   0  0  0  0  0  0  0  0  0  0  0  0
  189.6030  174.8840  143.4590 C   0  0  0  0  0  2  0  0  0  0  0  0
  190.9840  176.4100  146.0410 C   0  0  0  0  0  0  0  0  0  0  0  0
  190.5170  174.1680  142.4450 C   0  0  2  0  0  3  0  0  0  0  0  0
  192.8900  174.5360  145.0570 C   0  0  0  0  0  0  0  0  0  0  0  0
  195.0320  173.8360  144.0410 C   0  0  0  0  0  1  0  0  0  0  0  0
  190.2560  174.6380  141.0150 C   0  0  0  0  0  2  0  0  0  0  0  0
  187.8160  172.5270  139.4210 O   0  0  0  0  0  0  0  0  0  0  0  0
  189.3430  172.0610  143.1890 C   0  0  0  0  0  1  0  0  0  0  0  0
  188.9600  177.5430  145.4630 C   0  0  0  0  0  3  0  0  0  0  0  0
  188.4880  177.7470  141.9490 O   0  0  0  0  0  0  0  0  0  0  0  0
  188.0850  177.6580  143.1410 C   0  0  0  0  0  0  0  0  0  0  0  0
  186.3180  178.6690  144.6380 C   0  0  0  0  0  3  0  0  0  0  0  0
  186.6790  178.0370  143.4370 C   0  0  0  0  0  0  0  0  0  0  0  0
  185.6840  177.7980  142.4760 C   0  0  0  0  0  3  0  0  0  0  0  0
  183.3830  177.9160  141.7580 O   0  0  0  0  0  1  0  0  0  0  0  0
  184.0110  178.7840  143.9190 C   0  0  0  0  0  3  0  0  0  0  0  0
  184.3570  178.1650  142.7150 C   0  0  0  0  0  0  0  0  0  0  0  0
  184.9910  179.0370  144.8800 C   0  0  0  0  0  3  0  0  0  0  0  0
  1 27  1  1  0  0  0
  1 13  1  0  0  0  0
  2 23  1  0  0  0  0
  2 14  1  0  0  0  0
  3  9  1  1  0  0  0
  3 21  1  0  0  0  0
  4  1  1  0  0  0  0
  5 17  2  0  0  0  0
  6 10  1  0  0  0  0
  6  3  1  0  0  0  0
  7 12  1  0  0  0  0
  7 19  1  0  0  0  0
  8 16  1  0  0  0  0
  8  4  1  0  0  0  0
  9 23  2  0  0  0  0
 10 28  2  0  0  0  0
 12  4  1  0  0  0  0
 16  4  1  0  0  0  0
 17 11  1  0  0  0  0
 18 13  1  0  0  0  0
 18  2  1  0  0  0  0
 19 25  1  0  0  0  0
 20  6  1  0  0  0  0
 21 15  2  0  0  0  0
 21 17  1  0  0  0  0
 22 25  1  6  0  0  0
 22  1  1  0  0  0  0
 22 20  1  0  0  0  0
 23  5  1  0  0  0  0
 24  2  1  0  0  0  0
 26  7  2  0  0  0  0
 28 15  1  0  0  0  0
 29 30  2  0  0  0  0
 30 32  1  0  0  0  0
 30 10  1  0  0  0  0
 31 37  1  0  0  0  0
 32 31  2  0  0  0  0
 33 36  2  0  0  0  0
 33 32  1  0  0  0  0
 34 36  1  0  0  0  0
 35 37  2  0  0  0  0
 36 35  1  0  0  0  0
M  END
>  <MODEL>
5

>  <REMARK>
 VINA RESULT:      -8.9      2.362      5.038
  Name = 
  2 active torsions:
  status: ('A' for Active; 'I' for Inactive)
    1  A    between atoms: C_6  and  C_31
    2  A    between atoms: C_14  and  C_31
                            x       y       z     vdW  Elec       q    Type
                         _______ _______ _______ _____ _____    ______ ____

>  <TORSDO>
F 2

$$$$
=
 OpenBabel11052419563D

 37 42  0  0  1  0  0  0  0  0999 V2000
  190.4630  173.4820  143.9230 C   0  0  1  0  0  0  0  0  0  0  0  0
  193.3060  175.5190  144.8170 C   0  0  0  0  0  0  0  0  0  0  0  0
  190.0680  177.4520  145.5630 C   0  0  2  0  0  3  0  0  0  0  0  0
  190.5700  172.7390  142.5520 C   0  0  0  0  0  0  0  0  0  0  0  0
  192.4170  176.5950  147.0480 C   0  0  0  0  0  3  0  0  0  0  0  0
  188.8400  176.7240  145.2010 N   0  0  0  0  0  0  0  0  0  0  0  0
  188.1250  172.6720  142.0030 C   0  0  0  0  0  0  0  0  0  0  0  0
  191.5410  173.2000  141.4870 C   0  0  0  0  0  2  0  0  0  0  0  0
  191.2800  176.8780  144.9070 C   0  0  0  0  0  3  0  0  0  0  0  0
  187.6570  177.2530  145.8330 C   0  0  0  0  0  0  0  0  0  0  0  0
  191.5660  177.3350  149.1510 N   0  0  0  0  0  1  0  0  0  0  0  0
  189.4060  172.1010  142.0340 O   0  0  0  0  0  0  0  0  0  0  0  0
  191.7220  173.6720  144.5700 O   0  0  0  0  0  0  0  0  0  0  0  0
  194.1860  174.6940  145.7470 C   0  0  0  0  0  1  0  0  0  0  0  0
  189.0640  177.6730  147.7510 N   0  0  0  0  0  0  0  0  0  0  0  0
  191.8270  171.9370  142.2960 C   0  0  0  0  0  2  0  0  0  0  0  0
  191.4290  177.1660  147.7430 C   0  0  0  0  0  0  0  0  0  0  0  0
  192.5580  174.5670  143.8630 C   0  0  0  0  0  2  0  0  0  0  0  0
  187.8760  174.0070  142.3520 O   0  0  0  0  0  0  0  0  0  0  0  0
  188.8640  175.2650  145.0040 C   0  0  0  0  0  2  0  0  0  0  0  0
  190.1600  177.4930  147.0690 C   0  0  0  0  0  0  0  0  0  0  0  0
  189.6820  174.8310  143.7730 C   0  0  2  0  0  3  0  0  0  0  0  0
  192.3160  176.3720  145.5820 C   0  0  0  0  0  0  0  0  0  0  0  0
  194.2080  176.4160  143.9910 C   0  0  0  0  0  1  0  0  0  0  0  0
  188.8880  174.9960  142.4780 C   0  0  0  0  0  2  0  0  0  0  0  0
  187.1530  171.9490  141.6690 O   0  0  0  0  0  0  0  0  0  0  0  0
  189.6780  172.5410  144.8340 C   0  0  0  0  0  1  0  0  0  0  0  0
  187.7790  177.7030  147.0970 C   0  0  0  0  0  3  0  0  0  0  0  0
  185.3460  176.7950  145.7750 O   0  0  0  0  0  0  0  0  0  0  0  0
  186.3490  177.2040  145.1290 C   0  0  0  0  0  0  0  0  0  0  0  0
  187.2350  177.9450  142.8810 C   0  0  0  0  0  3  0  0  0  0  0  0
  186.1550  177.6010  143.7100 C   0  0  0  0  0  0  0  0  0  0  0  0
  184.8610  177.5950  143.1640 C   0  0  0  0  0  3  0  0  0  0  0  0
  183.3640  177.9370  141.3030 O   0  0  0  0  0  1  0  0  0  0  0  0
  185.7320  178.2910  141.0170 C   0  0  0  0  0  3  0  0  0  0  0  0
  184.6490  177.9410  141.8270 C   0  0  0  0  0  0  0  0  0  0  0  0
  187.0250  178.2910  141.5430 C   0  0  0  0  0  3  0  0  0  0  0  0
  1 13  1  0  0  0  0
  1 27  1  1  0  0  0
  2 23  1  0  0  0  0
  2 14  1  0  0  0  0
  3  9  1  6  0  0  0
  3 21  1  0  0  0  0
  4  1  1  0  0  0  0
  5 17  2  0  0  0  0
  6  3  1  0  0  0  0
  6 10  1  0  0  0  0
  7 12  1  0  0  0  0
  7 19  1  0  0  0  0
  8 16  1  0  0  0  0
  8  4  1  0  0  0  0
  9 23  2  0  0  0  0
 10 28  2  0  0  0  0
 12  4  1  0  0  0  0
 16  4  1  0  0  0  0
 17 11  1  0  0  0  0
 18 13  1  0  0  0  0
 18  2  1  0  0  0  0
 19 25  1  0  0  0  0
 20  6  1  0  0  0  0
 21 17  1  0  0  0  0
 21 15  2  0  0  0  0
 22 25  1  6  0  0  0
 22  1  1  0  0  0  0
 22 20  1  0  0  0  0
 23  5  1  0  0  0  0
 24  2  1  0  0  0  0
 26  7  2  0  0  0  0
 28 15  1  0  0  0  0
 30 29  2  0  0  0  0
 30 10  1  0  0  0  0
 31 32  1  0  0  0  0
 32 30  1  0  0  0  0
 33 32  2  0  0  0  0
 34 36  1  0  0  0  0
 35 37  1  0  0  0  0
 35 36  2  0  0  0  0
 36 33  1  0  0  0  0
 37 31  2  0  0  0  0
M  END
>  <MODEL>
6

>  <REMARK>
 VINA RESULT:      -8.8      2.722      5.516
  Name = 
  2 active torsions:
  status: ('A' for Active; 'I' for Inactive)
    1  A    between atoms: C_6  and  C_31
    2  A    between atoms: C_14  and  C_31
                            x       y       z     vdW  Elec       q    Type
                         _______ _______ _______ _____ _____    ______ ____

>  <TORSDO>
F 2

$$$$
=
 OpenBabel11052419563D

 37 42  0  0  1  0  0  0  0  0999 V2000
  192.7550  172.9130  143.2350 C   0  0  1  0  0  0  0  0  0  0  0  0
  194.6250  175.5350  144.8650 C   0  0  0  0  0  0  0  0  0  0  0  0
  190.9820  176.6700  144.3980 C   0  0  2  0  0  3  0  0  0  0  0  0
  193.4660  172.2300  142.0240 C   0  0  0  0  0  0  0  0  0  0  0  0
  192.8390  176.3560  146.6140 C   0  0  0  0  0  3  0  0  0  0  0  0
  190.1320  175.6840  143.7070 N   0  0  0  0  0  0  0  0  0  0  0  0
  191.4170  171.6120  140.7210 C   0  0  0  0  0  0  0  0  0  0  0  0
  194.6080  172.9120  141.3020 C   0  0  0  0  0  2  0  0  0  0  0  0
  192.4370  176.3950  144.2070 C   0  0  0  0  0  3  0  0  0  0  0  0
  188.7220  175.9230  143.8880 C   0  0  0  0  0  0  0  0  0  0  0  0
  191.2030  176.8600  148.2770 N   0  0  0  0  0  1  0  0  0  0  0  0
  192.7080  171.3480  141.2010 O   0  0  0  0  0  0  0  0  0  0  0  0
  193.6570  173.3780  144.2410 O   0  0  0  0  0  0  0  0  0  0  0  0
  195.3080  174.9230  146.0810 C   0  0  0  0  0  1  0  0  0  0  0  0
  189.2910  176.6320  146.1260 N   0  0  0  0  0  0  0  0  0  0  0  0
  194.8810  171.7390  142.2400 C   0  0  0  0  0  2  0  0  0  0  0  0
  191.5770  176.6790  146.9140 C   0  0  0  0  0  0  0  0  0  0  0  0
  194.4610  174.4480  143.7850 C   0  0  0  0  0  2  0  0  0  0  0  0
  190.7810  172.8500  140.8830 O   0  0  0  0  0  0  0  0  0  0  0  0
  190.5390  174.2720  143.6240 C   0  0  0  0  0  2  0  0  0  0  0  0
  190.5620  176.7140  145.8470 C   0  0  0  0  0  0  0  0  0  0  0  0
  191.7910  174.0500  142.7540 C   0  0  2  0  0  3  0  0  0  0  0  0
  193.2770  176.1320  145.2120 C   0  0  0  0  0  0  0  0  0  0  0  0
  195.5290  176.6240  144.3180 C   0  0  0  0  0  1  0  0  0  0  0  0
  191.4510  174.0430  141.2640 C   0  0  0  0  0  2  0  0  0  0  0  0
  190.7920  170.6890  140.1390 O   0  0  0  0  0  0  0  0  0  0  0  0
  191.9400  171.8080  143.9040 C   0  0  0  0  0  1  0  0  0  0  0  0
  188.3200  176.3750  145.0920 C   0  0  0  0  0  3  0  0  0  0  0  0
  187.7540  174.3980  142.3730 O   0  0  0  0  0  0  0  0  0  0  0  0
  187.7630  175.5840  142.8040 C   0  0  0  0  0  0  0  0  0  0  0  0
  186.9750  177.0180  140.8770 C   0  0  0  0  0  3  0  0  0  0  0  0
  186.8200  176.5580  142.1960 C   0  0  0  0  0  0  0  0  0  0  0  0
  185.7170  177.0050  142.9390 C   0  0  0  0  0  3  0  0  0  0  0  0
  183.7170  178.3420  143.1370 O   0  0  0  0  0  1  0  0  0  0  0  0
  184.9720  178.3590  141.0780 C   0  0  0  0  0  3  0  0  0  0  0  0
  184.7990  177.9040  142.3870 C   0  0  0  0  0  0  0  0  0  0  0  0
  186.0590  177.9150  140.3220 C   0  0  0  0  0  3  0  0  0  0  0  0
  1 27  1  1  0  0  0
  1 13  1  0  0  0  0
  2 23  1  0  0  0  0
  2 14  1  0  0  0  0
  3  9  1  1  0  0  0
  3 21  1  0  0  0  0
  4 16  1  0  0  0  0
  4  1  1  0  0  0  0
  5 17  2  0  0  0  0
  6 10  1  0  0  0  0
  6  3  1  0  0  0  0
  7 19  1  0  0  0  0
  7 12  1  0  0  0  0
  8  4  1  0  0  0  0
  8 16  1  0  0  0  0
  9 23  2  0  0  0  0
 10 28  2  0  0  0  0
 12  4  1  0  0  0  0
 17 11  1  0  0  0  0
 18 13  1  0  0  0  0
 18  2  1  0  0  0  0
 19 25  1  0  0  0  0
 20  6  1  0  0  0  0
 21 15  2  0  0  0  0
 21 17  1  0  0  0  0
 22 25  1  6  0  0  0
 22  1  1  0  0  0  0
 22 20  1  0  0  0  0
 23  5  1  0  0  0  0
 24  2  1  0  0  0  0
 26  7  2  0  0  0  0
 28 15  1  0  0  0  0
 29 30  2  0  0  0  0
 30 10  1  0  0  0  0
 31 32  1  0  0  0  0
 32 30  1  0  0  0  0
 32 33  2  0  0  0  0
 35 36  2  0  0  0  0
 36 33  1  0  0  0  0
 36 34  1  0  0  0  0
 37 31  2  0  0  0  0
 37 35  1  0  0  0  0
M  END
>  <MODEL>
7

>  <REMARK>
 VINA RESULT:      -8.6      2.414      5.209
  Name = 
  2 active torsions:
  status: ('A' for Active; 'I' for Inactive)
    1  A    between atoms: C_6  and  C_31
    2  A    between atoms: C_14  and  C_31
                            x       y       z     vdW  Elec       q    Type
                         _______ _______ _______ _____ _____    ______ ____

>  <TORSDO>
F 2

$$$$
=
 OpenBabel11052419563D

 37 42  0  0  1  0  0  0  0  0999 V2000
  191.5850  176.1760  145.4700 C   0  0  1  0  0  0  0  0  0  0  0  0
  194.3450  173.8870  145.0520 C   0  0  0  0  0  0  0  0  0  0  0  0
  191.6270  173.0940  142.4520 C   0  0  0  0  0  0  0  0  0  0  0  0
  191.1330  176.4250  146.9440 C   0  0  0  0  0  0  0  0  0  0  0  0
  194.4550  173.7730  142.4260 C   0  0  0  0  0  3  0  0  0  0  0  0
  190.4330  173.9500  142.5550 N   0  0  0  0  0  0  0  0  0  0  0  0
  188.7150  176.9030  146.4890 C   0  0  0  0  0  0  0  0  0  0  0  0
  191.4850  175.4490  148.0460 C   0  0  0  0  0  2  0  0  0  0  0  0
  192.4640  173.1390  143.6880 C   0  0  0  0  0  3  0  0  0  0  0  0
  189.6150  173.9320  141.3680 C   0  0  0  0  0  0  0  0  0  0  0  0
  194.5710  173.9220  140.0470 N   0  0  0  0  0  1  0  0  0  0  0  0
  189.9190  177.1360  147.1710 O   0  0  0  0  0  0  0  0  0  0  0  0
  192.9800  175.8960  145.3390 O   0  0  0  0  0  0  0  0  0  0  0  0
  195.6140  174.7190  144.9160 C   0  0  0  0  0  1  0  0  0  0  0  0
  191.6880  173.7850  140.1360 N   0  0  0  0  0  0  0  0  0  0  0  0
  192.2070  176.7910  147.9460 C   0  0  0  0  0  2  0  0  0  0  0  0
  193.8360  173.6890  141.2450 C   0  0  2  0  0  3  0  0  0  0  0  0
  193.3340  174.6580  145.9240 C   0  0  0  0  0  2  0  0  0  0  0  0
  188.5360  175.8350  145.6010 O   0  0  0  0  0  0  0  0  0  0  0  0
  190.4900  175.2330  143.2750 C   0  0  0  0  0  2  0  0  0  0  0  0
  192.3760  173.4860  141.2020 C   0  0  0  0  0  0  0  0  0  0  0  0
  190.7080  175.0700  144.7910 C   0  0  2  0  0  3  0  0  0  0  0  0
  193.7310  173.5630  143.7070 C   0  0  0  0  0  0  0  0  0  0  0  0
  194.7050  172.5960  145.7630 C   0  0  0  0  0  1  0  0  0  0  0  0
  189.4090  174.7180  145.5160 C   0  0  0  0  0  2  0  0  0  0  0  0
  187.7600  177.7030  146.6660 O   0  0  0  0  0  0  0  0  0  0  0  0
  191.3710  177.5050  144.7490 C   0  0  0  0  0  1  0  0  0  0  0  0
  190.2490  173.8670  140.1800 C   0  0  0  0  0  3  0  0  0  0  0  0
  187.4410  173.0270  141.4600 O   0  0  0  0  0  0  0  0  0  0  0  0
  188.1400  174.0770  141.4750 C   0  0  0  0  0  0  0  0  0  0  0  0
  187.4410  176.3230  140.5490 C   0  0  0  0  0  3  0  0  0  0  0  0
  187.4410  175.3830  141.5930 C   0  0  0  0  0  0  0  0  0  0  0  0
  186.7230  175.6770  142.7630 C   0  0  0  0  0  3  0  0  0  0  0  0
  185.3370  177.1660  144.0600 O   0  0  0  0  0  1  0  0  0  0  0  0
  186.0540  177.8160  141.8520 C   0  0  0  0  0  3  0  0  0  0  0  0
  186.0360  176.8880  142.8950 C   0  0  0  0  0  0  0  0  0  0  0  0
  186.7550  177.5330  140.6770 C   0  0  0  0  0  3  0  0  0  0  0  0
  1 27  1  6  0  0  0
  1  4  1  0  0  0  0
  2 24  1  0  0  0  0
  2 18  1  0  0  0  0
  3  6  1  0  0  0  0
  3  9  2  0  0  0  0
  4 12  1  0  0  0  0
  4 16  1  0  0  0  0
  4  8  1  0  0  0  0
  5 23  2  0  0  0  0
  6 20  1  0  0  0  0
  7 26  2  0  0  0  0
  7 12  1  0  0  0  0
  9 23  1  0  0  0  0
 10 30  1  0  0  0  0
 10  6  1  0  0  0  0
 13  1  1  0  0  0  0
 13 18  1  0  0  0  0
 14  2  1  0  0  0  0
 15 28  1  0  0  0  0
 15 21  2  0  0  0  0
 16  8  1  0  0  0  0
 17 11  1  1  0  0  0
 17  5  1  0  0  0  0
 19  7  1  0  0  0  0
 21 17  1  0  0  0  0
 21  3  1  0  0  0  0
 22 20  1  6  0  0  0
 22  1  1  0  0  0  0
 22 25  1  0  0  0  0
 23  2  1  0  0  0  0
 25 19  1  0  0  0  0
 28 10  2  0  0  0  0
 29 30  2  0  0  0  0
 30 32  1  0  0  0  0
 31 37  2  0  0  0  0
 31 32  1  0  0  0  0
 32 33  2  0  0  0  0
 33 36  1  0  0  0  0
 35 36  2  0  0  0  0
 36 34  1  0  0  0  0
 37 35  1  0  0  0  0
M  END
>  <MODEL>
8

>  <REMARK>
 VINA RESULT:      -8.5      2.278      4.406
  Name = 
  2 active torsions:
  status: ('A' for Active; 'I' for Inactive)
    1  A    between atoms: C_6  and  C_31
    2  A    between atoms: C_14  and  C_31
                            x       y       z     vdW  Elec       q    Type
                         _______ _______ _______ _____ _____    ______ ____

>  <TORSDO>
F 2

$$$$
=
 OpenBabel11052419563D

 37 42  0  0  1  0  0  0  0  0999 V2000
  193.0440  173.9430  142.6200 C   0  0  1  0  0  0  0  0  0  0  0  0
  191.4950  170.9350  141.3620 C   0  0  0  0  0  0  0  0  0  0  0  0
  188.8260  173.6740  141.7560 C   0  0  0  0  0  0  0  0  0  0  0  0
  194.0590  173.7400  143.7900 C   0  0  0  0  0  0  0  0  0  0  0  0
  189.8220  171.9730  139.6170 C   0  0  0  0  0  3  0  0  0  0  0  0
  189.3450  174.9410  142.2990 N   0  0  0  0  0  0  0  0  0  0  0  0
  193.7340  175.9550  144.9180 C   0  0  0  0  0  0  0  0  0  0  0  0
  194.0370  172.4850  144.6350 C   0  0  0  0  0  2  0  0  0  0  0  0
  189.7600  172.5320  141.9920 C   0  0  0  0  0  3  0  0  0  0  0  0
  188.4650  176.0600  142.0720 C   0  0  0  0  0  0  0  0  0  0  0  0
  188.5050  173.0330  137.9320 N   0  0  0  0  0  1  0  0  0  0  0  0
  194.5370  174.8920  144.4800 O   0  0  0  0  0  0  0  0  0  0  0  0
  192.9870  172.8400  141.7140 O   0  0  0  0  0  0  0  0  0  0  0  0
  192.2730  170.5000  140.1270 C   0  0  0  0  0  1  0  0  0  0  0  0
  187.9570  175.0250  139.9490 N   0  0  0  0  0  0  0  0  0  0  0  0
  195.1370  172.6960  143.5980 C   0  0  0  0  0  2  0  0  0  0  0  0
  188.9290  172.9120  139.2870 C   0  0  2  0  0  3  0  0  0  0  0  0
  192.4490  171.6790  142.3160 C   0  0  0  0  0  2  0  0  0  0  0  0
  192.3340  175.9320  144.8500 O   0  0  0  0  0  0  0  0  0  0  0  0
  190.7860  175.2390  142.2580 C   0  0  0  0  0  2  0  0  0  0  0  0
  188.4950  173.8900  140.2990 C   0  0  0  0  0  0  0  0  0  0  0  0
  191.6230  174.3160  143.1640 C   0  0  2  0  0  3  0  0  0  0  0  0
  190.3170  171.8190  141.0090 C   0  0  0  0  0  0  0  0  0  0  0  0
  190.9920  169.6860  142.0620 C   0  0  0  0  0  1  0  0  0  0  0  0
  191.5700  174.7560  144.6270 C   0  0  0  0  0  2  0  0  0  0  0  0
  194.2950  176.9850  145.3710 O   0  0  0  0  0  0  0  0  0  0  0  0
  193.5940  175.1090  141.8020 C   0  0  0  0  0  1  0  0  0  0  0  0
  187.7990  176.0960  140.9010 C   0  0  0  0  0  3  0  0  0  0  0  0
  188.8060  178.3010  142.7170 O   0  0  0  0  0  0  0  0  0  0  0  0
  188.3890  177.1630  143.0650 C   0  0  0  0  0  0  0  0  0  0  0  0
  186.6630  177.6190  144.8550 C   0  0  0  0  0  3  0  0  0  0  0  0
  187.8560  177.0030  144.4430 C   0  0  0  0  0  0  0  0  0  0  0  0
  188.5380  176.1800  145.3540 C   0  0  0  0  0  3  0  0  0  0  0  0
  188.7380  175.1800  147.5410 O   0  0  0  0  0  1  0  0  0  0  0  0
  186.8670  176.6180  147.0480 C   0  0  0  0  0  3  0  0  0  0  0  0
  188.0500  175.9910  146.6500 C   0  0  0  0  0  0  0  0  0  0  0  0
  186.1720  177.4310  146.1490 C   0  0  0  0  0  3  0  0  0  0  0  0
  1 27  1  6  0  0  0
  1 22  1  0  0  0  0
  1  4  1  0  0  0  0
  2 24  1  0  0  0  0
  2 18  1  0  0  0  0
  3  9  2  0  0  0  0
  3  6  1  0  0  0  0
  4 12  1  0  0  0  0
  4  8  1  0  0  0  0
  5 23  2  0  0  0  0
  7 26  2  0  0  0  0
 10  6  1  0  0  0  0
 10 30  1  0  0  0  0
 12  7  1  0  0  0  0
 13 18  1  0  0  0  0
 13  1  1  0  0  0  0
 14  2  1  0  0  0  0
 15 21  2  0  0  0  0
 15 28  1  0  0  0  0
 16  4  1  0  0  0  0
 16  8  1  0  0  0  0
 17 11  1  6  0  0  0
 17  5  1  0  0  0  0
 17 21  1  0  0  0  0
 19  7  1  0  0  0  0
 20  6  1  0  0  0  0
 21  3  1  0  0  0  0
 22 20  1  6  0  0  0
 22 25  1  0  0  0  0
 23  2  1  0  0  0  0
 23  9  1  0  0  0  0
 25 19  1  0  0  0  0
 28 10  2  0  0  0  0
 29 30  2  0  0  0  0
 30 32  1  0  0  0  0
 31 37  1  0  0  0  0
 32 31  2  0  0  0  0
 32 33  1  0  0  0  0
 33 36  2  0  0  0  0
 36 35  1  0  0  0  0
 36 34  1  0  0  0  0
 37 35  2  0  0  0  0
M  END
>  <MODEL>
9

>  <REMARK>
 VINA RESULT:      -8.5      1.423      1.855
  Name = 
  2 active torsions:
  status: ('A' for Active; 'I' for Inactive)
    1  A    between atoms: C_6  and  C_31
    2  A    between atoms: C_14  and  C_31
                            x       y       z     vdW  Elec       q    Type
                         _______ _______ _______ _____ _____    ______ ____

>  <TORSDO>
F 2

$$$$
