=
 OpenBabel11052417413D

 31 37  0  0  1  0  0  0  0  0999 V2000
  191.1070  173.7240  142.1550 C   0  0  0  0  0  0  0  0  0  0  0  0
  190.8860  176.3920  144.8640 C   0  0  1  0  0  3  0  0  0  0  0  0
  192.3800  176.3360  145.1030 C   0  0  0  0  0  0  0  0  0  0  0  0
  194.1850  176.0160  143.4460 C   0  0  0  0  0  3  0  0  0  0  0  0
  190.3690  175.2310  144.0280 C   0  0  2  0  0  0  0  0  0  0  0  0
  189.9290  174.1630  141.3540 C   0  0  0  0  0  2  0  0  0  0  0  0
  193.2440  176.9870  144.0720 C   0  0  0  0  0  2  0  0  0  0  0  0
  188.9550  175.3520  146.0430 C   0  0  1  0  0  3  0  0  0  0  0  0
  192.0070  172.9670  141.6220 N   0  0  0  0  0  2  0  0  0  0  0  0
  191.9890  175.3590  147.3460 C   0  0  0  0  0  2  0  0  0  0  0  0
  195.1300  175.3840  144.1380 C   0  0  0  0  0  3  0  0  0  0  0  0
  189.1810  174.5970  144.7090 C   0  0  1  0  0  3  0  0  0  0  0  0
  190.0670  176.3880  146.1600 C   0  0  2  0  0  0  0  0  0  0  0  0
  188.6220  176.8550  146.1790 C   0  0  1  0  0  3  0  0  0  0  0  0
  191.3030  174.2560  143.4640 N   0  0  0  0  0  2  0  0  0  0  0  0
  195.3140  175.4910  145.5970 C   0  0  0  0  0  3  0  0  0  0  0  0
  188.9860  175.3500  143.3890 C   0  0  2  0  0  3  0  0  0  0  0  0
  188.7290  174.3270  142.2800 C   0  0  0  0  0  2  0  0  0  0  0  0
  190.7870  176.2850  147.4960 C   0  0  0  0  0  2  0  0  0  0  0  0
  192.8980  175.8300  146.2460 C   0  0  0  0  0  0  0  0  0  0  0  0
  194.3480  175.6920  146.5040 C   0  0  0  0  0  3  0  0  0  0  0  0
  188.1840  177.5910  144.9160 C   0  0  0  0  0  2  0  0  0  0  0  0
  186.0100  177.0760  146.0630 C   0  0  0  0  0  2  0  0  0  0  0  0
  184.6610  179.1110  145.6160 C   0  0  0  0  0  1  0  0  0  0  0  0
  186.0450  178.5950  145.9740 C   0  0  2  0  0  3  0  0  0  0  0  0
  186.6690  177.7380  144.8740 C   0  0  1  0  0  0  0  0  0  0  0  0
  185.9130  177.4720  143.5680 C   0  0  2  0  0  3  0  0  0  0  0  0
  185.7870  176.0980  143.3550 O   0  0  0  0  0  1  0  0  0  0  0  0
  186.6260  178.1170  142.3910 C   0  0  0  0  0  2  0  0  0  0  0  0
  186.6260  177.2470  141.3010 O   0  0  0  0  0  0  0  0  0  0  0  0
  185.8890  177.9120  140.3220 C   0  0  0  0  0  1  0  0  0  0  0  0
  1 15  1  0  0  0  0
  2  3  1  1  0  0  0
  2 13  1  0  0  0  0
  3 20  2  0  0  0  0
  4  7  1  0  0  0  0
  4 11  2  0  0  0  0
  5 15  1  6  0  0  0
  5 12  1  0  0  0  0
  5  2  1  0  0  0  0
  6  1  1  0  0  0  0
  6 18  1  0  0  0  0
  7  3  1  0  0  0  0
  8 13  1  0  0  0  0
  8 14  1  0  0  0  0
  9  1  2  0  0  0  0
 10 19  1  0  0  0  0
 11 16  1  0  0  0  0
 12  8  1  0  0  0  0
 13 14  1  0  0  0  0
 13 19  1  0  0  0  0
 16 21  2  0  0  0  0
 17  5  1  0  0  0  0
 17 12  1  0  0  0  0
 18 17  1  0  0  0  0
 20 21  1  0  0  0  0
 20 10  1  0  0  0  0
 22 14  1  0  0  0  0
 24 25  1  0  0  0  0
 25 23  1  0  0  0  0
 26 22  1  0  0  0  0
 26 25  1  0  0  0  0
 26 23  1  0  0  0  0
 27 26  1  0  0  0  0
 28 27  1  0  0  0  0
 29 27  1  0  0  0  0
 30 29  1  0  0  0  0
 31 30  1  0  0  0  0
M  END
>  <MODEL>
1

>  <REMARK>
 VINA RESULT:      -8.2      0.000      0.000
  Name = 
  5 active torsions:
  status: ('A' for Active; 'I' for Inactive)
    1  A    between atoms: O_1  and  C_8
    2  A    between atoms: C_8  and  C_19
    3  A    between atoms: C_9  and  C_22
    4  A    between atoms: C_9  and  C_23
    5  A    between atoms: C_19  and  C_22
                            x       y       z     vdW  Elec       q    Type
                         _______ _______ _______ _____ _____    ______ ____

>  <TORSDO>
F 5

$$$$
=
 OpenBabel11052417413D

 31 37  0  0  1  0  0  0  0  0999 V2000
  191.7720  172.2700  142.3980 C   0  0  0  0  0  0  0  0  0  0  0  0
  190.9520  175.4240  144.3690 C   0  0  1  0  0  3  0  0  0  0  0  0
  192.3800  175.9140  144.2630 C   0  0  0  0  0  0  0  0  0  0  0  0
  193.9410  175.6890  142.3600 C   0  0  0  0  0  3  0  0  0  0  0  0
  190.7900  173.9630  143.9760 C   0  0  2  0  0  0  0  0  0  0  0  0
  190.4200  172.0520  141.8090 C   0  0  0  0  0  2  0  0  0  0  0  0
  192.8010  176.4580  142.9360 C   0  0  0  0  0  2  0  0  0  0  0  0
  189.7100  174.2420  146.1740 C   0  0  1  0  0  3  0  0  0  0  0  0
  192.8080  171.7090  141.8680 N   0  0  0  0  0  2  0  0  0  0  0  0
  192.6750  175.5950  146.7020 C   0  0  0  0  0  2  0  0  0  0  0  0
  195.1340  175.6280  142.9460 C   0  0  0  0  0  3  0  0  0  0  0  0
  190.0170  173.2270  145.0430 C   0  0  1  0  0  3  0  0  0  0  0  0
  190.3710  175.5570  145.7810 C   0  0  2  0  0  0  0  0  0  0  0  0
  188.8710  175.5310  146.0200 C   0  0  1  0  0  3  0  0  0  0  0  0
  191.9320  173.2070  143.4610 N   0  0  0  0  0  2  0  0  0  0  0  0
  195.4580  176.2240  144.2550 C   0  0  0  0  0  3  0  0  0  0  0  0
  189.3870  173.4430  143.6630 C   0  0  2  0  0  3  0  0  0  0  0  0
  189.3780  172.1040  142.9200 C   0  0  0  0  0  2  0  0  0  0  0  0
  191.2490  176.0970  146.9000 C   0  0  0  0  0  2  0  0  0  0  0  0
  193.1940  175.9700  145.3430 C   0  0  0  0  0  0  0  0  0  0  0  0
  194.6150  176.3780  145.2850 C   0  0  0  0  0  3  0  0  0  0  0  0
  188.0310  175.6710  144.7550 C   0  0  0  0  0  2  0  0  0  0  0  0
  188.6190  178.0360  144.1480 C   0  0  0  0  0  2  0  0  0  0  0  0
  186.5660  178.8340  143.0040 C   0  0  0  0  0  1  0  0  0  0  0  0
  187.5110  177.6560  143.1770 C   0  0  2  0  0  3  0  0  0  0  0  0
  187.5220  177.0980  144.5980 C   0  0  1  0  0  0  0  0  0  0  0  0
  186.6390  177.7160  145.6870 C   0  0  2  0  0  3  0  0  0  0  0  0
  187.3820  177.9250  146.8500 O   0  0  0  0  0  1  0  0  0  0  0  0
  185.4460  176.8230  145.9860 C   0  0  0  0  0  2  0  0  0  0  0  0
  184.4660  177.5500  146.6620 O   0  0  0  0  0  0  0  0  0  0  0  0
  184.1290  178.5800  145.7860 C   0  0  0  0  0  1  0  0  0  0  0  0
  1 15  1  0  0  0  0
  2  3  1  1  0  0  0
  2 13  1  0  0  0  0
  3 20  2  0  0  0  0
  4  7  1  0  0  0  0
  4 11  2  0  0  0  0
  5 15  1  6  0  0  0
  5  2  1  0  0  0  0
  5 12  1  0  0  0  0
  6  1  1  0  0  0  0
  6 18  1  0  0  0  0
  7  3  1  0  0  0  0
  9  1  2  0  0  0  0
 10 19  1  0  0  0  0
 11 16  1  0  0  0  0
 12  8  1  0  0  0  0
 13 14  1  0  0  0  0
 13  8  1  0  0  0  0
 13 19  1  0  0  0  0
 14  8  1  0  0  0  0
 16 21  2  0  0  0  0
 17  5  1  0  0  0  0
 17 12  1  0  0  0  0
 18 17  1  0  0  0  0
 20 10  1  0  0  0  0
 21 20  1  0  0  0  0
 22 14  1  0  0  0  0
 23 26  1  0  0  0  0
 24 25  1  0  0  0  0
 25 23  1  0  0  0  0
 25 26  1  0  0  0  0
 26 22  1  0  0  0  0
 26 27  1  0  0  0  0
 27 29  1  0  0  0  0
 27 28  1  0  0  0  0
 29 30  1  0  0  0  0
 31 30  1  0  0  0  0
M  END
>  <MODEL>
2

>  <REMARK>
 VINA RESULT:      -7.6      1.764      2.458
  Name = 
  5 active torsions:
  status: ('A' for Active; 'I' for Inactive)
    1  A    between atoms: O_1  and  C_8
    2  A    between atoms: C_8  and  C_19
    3  A    between atoms: C_9  and  C_22
    4  A    between atoms: C_9  and  C_23
    5  A    between atoms: C_19  and  C_22
                            x       y       z     vdW  Elec       q    Type
                         _______ _______ _______ _____ _____    ______ ____

>  <TORSDO>
F 5

$$$$
=
 OpenBabel11052417413D

 31 37  0  0  1  0  0  0  0  0999 V2000
  186.4660  178.0910  142.2680 C   0  0  0  0  0  0  0  0  0  0  0  0
  187.9880  176.1410  145.1650 C   0  0  1  0  0  3  0  0  0  0  0  0
  187.1170  176.8660  146.1680 C   0  0  0  0  0  0  0  0  0  0  0  0
  184.7710  177.6010  145.9130 C   0  0  0  0  0  3  0  0  0  0  0  0
  187.9910  176.7950  143.7910 C   0  0  2  0  0  0  0  0  0  0  0  0
  186.6570  177.0540  141.2150 C   0  0  0  0  0  2  0  0  0  0  0  0
  185.6790  176.4600  146.2190 C   0  0  0  0  0  2  0  0  0  0  0  0
  190.3470  176.4700  144.4400 C   0  0  1  0  0  3  0  0  0  0  0  0
  185.6110  179.0420  142.0940 N   0  0  0  0  0  2  0  0  0  0  0  0
  189.1180  177.9900  147.1010 C   0  0  0  0  0  2  0  0  0  0  0  0
  184.7040  178.6900  146.6750 C   0  0  0  0  0  3  0  0  0  0  0  0
  189.4110  176.9840  143.3160 C   0  0  1  0  0  3  0  0  0  0  0  0
  189.4550  176.0420  145.5990 C   0  0  2  0  0  0  0  0  0  0  0  0
  190.3920  175.0220  144.9780 C   0  0  1  0  0  3  0  0  0  0  0  0
  187.1320  177.9480  143.5220 N   0  0  0  0  0  2  0  0  0  0  0  0
  185.5610  178.9480  147.8470 C   0  0  0  0  0  3  0  0  0  0  0  0
  188.4970  175.9850  142.5990 C   0  0  2  0  0  3  0  0  0  0  0  0
  188.1050  176.5760  141.2410 C   0  0  0  0  0  2  0  0  0  0  0  0
  189.8900  176.6890  146.9060 C   0  0  0  0  0  2  0  0  0  0  0  0
  187.6360  177.7480  147.0540 C   0  0  0  0  0  0  0  0  0  0  0  0
  186.8240  178.5320  148.0100 C   0  0  0  0  0  3  0  0  0  0  0  0
  189.6910  173.9470  144.1520 C   0  0  0  0  0  2  0  0  0  0  0  0
  192.0790  173.1750  144.0750 C   0  0  0  0  0  2  0  0  0  0  0  0
  191.8620  170.7880  143.4310 C   0  0  0  0  0  1  0  0  0  0  0  0
  191.2720  171.9010  144.2810 C   0  0  2  0  0  3  0  0  0  0  0  0
  190.7070  173.0540  143.4530 C   0  0  1  0  0  0  0  0  0  0  0  0
  190.7640  173.0170  141.9220 C   0  0  2  0  0  3  0  0  0  0  0  0
  191.2670  174.2220  141.4290 O   0  0  0  0  0  1  0  0  0  0  0  0
  189.3870  172.7510  141.3370 C   0  0  0  0  0  2  0  0  0  0  0  0
  189.2280  173.4680  140.1520 O   0  0  0  0  0  0  0  0  0  0  0  0
  188.2930  172.7360  139.4220 C   0  0  0  0  0  1  0  0  0  0  0  0
  1 15  1  0  0  0  0
  2 13  1  0  0  0  0
  2  3  1  1  0  0  0
  3  7  1  0  0  0  0
  3 20  2  0  0  0  0
  4  7  1  0  0  0  0
  4 11  2  0  0  0  0
  5 15  1  6  0  0  0
  5  2  1  0  0  0  0
  6 18  1  0  0  0  0
  6  1  1  0  0  0  0
  8 14  1  0  0  0  0
  8 13  1  0  0  0  0
  9  1  2  0  0  0  0
 11 16  1  0  0  0  0
 12  5  1  0  0  0  0
 12  8  1  0  0  0  0
 13 19  1  0  0  0  0
 14 13  1  0  0  0  0
 16 21  2  0  0  0  0
 17 12  1  0  0  0  0
 17  5  1  0  0  0  0
 18 17  1  0  0  0  0
 19 10  1  0  0  0  0
 20 10  1  0  0  0  0
 20 21  1  0  0  0  0
 22 14  1  0  0  0  0
 23 25  1  0  0  0  0
 24 25  1  0  0  0  0
 26 23  1  0  0  0  0
 26 22  1  0  0  0  0
 26 25  1  0  0  0  0
 27 26  1  0  0  0  0
 28 27  1  0  0  0  0
 29 27  1  0  0  0  0
 30 29  1  0  0  0  0
 31 30  1  0  0  0  0
M  END
>  <MODEL>
3

>  <REMARK>
 VINA RESULT:      -7.6      2.856      6.344
  Name = 
  5 active torsions:
  status: ('A' for Active; 'I' for Inactive)
    1  A    between atoms: O_1  and  C_8
    2  A    between atoms: C_8  and  C_19
    3  A    between atoms: C_9  and  C_22
    4  A    between atoms: C_9  and  C_23
    5  A    between atoms: C_19  and  C_22
                            x       y       z     vdW  Elec       q    Type
                         _______ _______ _______ _____ _____    ______ ____

>  <TORSDO>
F 5

$$$$
=
 OpenBabel11052417413D

 31 37  0  0  1  0  0  0  0  0999 V2000
  191.3090  175.7650  145.7630 C   0  0  0  0  0  0  0  0  0  0  0  0
  188.6820  174.6610  143.2360 C   0  0  1  0  0  3  0  0  0  0  0  0
  189.4190  173.3650  142.9700 C   0  0  0  0  0  0  0  0  0  0  0  0
  190.6560  171.9500  144.5750 C   0  0  0  0  0  3  0  0  0  0  0  0
  189.5150  175.6770  144.0030 C   0  0  2  0  0  0  0  0  0  0  0  0
  190.4200  176.6120  146.6080 C   0  0  0  0  0  2  0  0  0  0  0  0
  189.3180  172.3130  144.0280 C   0  0  0  0  0  2  0  0  0  0  0  0
  188.6130  176.8330  142.0220 C   0  0  1  0  0  3  0  0  0  0  0  0
  192.4330  175.3360  146.2310 N   0  0  0  0  0  2  0  0  0  0  0  0
  189.9500  174.1310  140.6750 C   0  0  0  0  0  2  0  0  0  0  0  0
  191.6120  171.4010  143.8280 C   0  0  0  0  0  3  0  0  0  0  0  0
  189.4700  177.0110  143.3010 C   0  0  1  0  0  3  0  0  0  0  0  0
  188.2170  175.3630  141.9550 C   0  0  2  0  0  0  0  0  0  0  0  0
  187.1250  176.4180  141.9890 C   0  0  1  0  0  3  0  0  0  0  0  0
  190.8480  175.3210  144.4870 N   0  0  0  0  0  2  0  0  0  0  0  0
  191.5110  171.1650  142.3760 C   0  0  0  0  0  3  0  0  0  0  0  0
  188.8000  176.8510  144.6690 C   0  0  2  0  0  3  0  0  0  0  0  0
  189.6520  177.5780  145.7140 C   0  0  0  0  0  2  0  0  0  0  0  0
  188.5600  174.7530  140.6040 C   0  0  0  0  0  2  0  0  0  0  0  0
  190.0330  173.1260  141.7890 C   0  0  0  0  0  0  0  0  0  0  0  0
  190.8210  171.9070  141.5000 C   0  0  0  0  0  3  0  0  0  0  0  0
  186.3530  176.4800  143.3040 C   0  0  0  0  0  2  0  0  0  0  0  0
  185.7230  178.6710  142.2520 C   0  0  0  0  0  2  0  0  0  0  0  0
  183.2420  178.5970  142.2770 C   0  0  0  0  0  1  0  0  0  0  0  0
  184.5040  177.7830  142.0440 C   0  0  2  0  0  3  0  0  0  0  0  0
  185.3660  177.6400  143.2970 C   0  0  1  0  0  0  0  0  0  0  0  0
  184.9320  178.2790  144.6200 C   0  0  2  0  0  3  0  0  0  0  0  0
  185.6140  179.4810  144.8220 O   0  0  0  0  0  1  0  0  0  0  0  0
  185.1870  177.3360  145.7850 C   0  0  0  0  0  2  0  0  0  0  0  0
  186.1560  177.8760  146.6300 O   0  0  0  0  0  0  0  0  0  0  0  0
  186.3080  176.9260  147.6390 C   0  0  0  0  0  1  0  0  0  0  0  0
  1  9  2  0  0  0  0
  1  6  1  0  0  0  0
  2  3  1  6  0  0  0
  2  5  1  0  0  0  0
  3  7  1  0  0  0  0
  5 15  1  1  0  0  0
  5 17  1  0  0  0  0
  7  4  1  0  0  0  0
  8 12  1  0  0  0  0
 10 20  1  0  0  0  0
 11  4  2  0  0  0  0
 12  5  1  0  0  0  0
 12 17  1  0  0  0  0
 13 14  1  0  0  0  0
 13  8  1  0  0  0  0
 13  2  1  0  0  0  0
 14  8  1  0  0  0  0
 14 22  1  0  0  0  0
 15  1  1  0  0  0  0
 16 11  1  0  0  0  0
 17 18  1  0  0  0  0
 18  6  1  0  0  0  0
 19 10  1  0  0  0  0
 19 13  1  0  0  0  0
 20  3  2  0  0  0  0
 21 20  1  0  0  0  0
 21 16  2  0  0  0  0
 23 26  1  0  0  0  0
 25 23  1  0  0  0  0
 25 24  1  0  0  0  0
 25 26  1  0  0  0  0
 26 22  1  0  0  0  0
 26 27  1  0  0  0  0
 27 28  1  0  0  0  0
 27 29  1  0  0  0  0
 29 30  1  0  0  0  0
 30 31  1  0  0  0  0
M  END
>  <MODEL>
4

>  <REMARK>
 VINA RESULT:      -7.2      2.218      4.806
  Name = 
  5 active torsions:
  status: ('A' for Active; 'I' for Inactive)
    1  A    between atoms: O_1  and  C_8
    2  A    between atoms: C_8  and  C_19
    3  A    between atoms: C_9  and  C_22
    4  A    between atoms: C_9  and  C_23
    5  A    between atoms: C_19  and  C_22
                            x       y       z     vdW  Elec       q    Type
                         _______ _______ _______ _____ _____    ______ ____

>  <TORSDO>
F 5

$$$$
=
 OpenBabel11052417413D

 31 37  0  0  1  0  0  0  0  0999 V2000
  186.9170  176.7010  145.9250 C   0  0  0  0  0  0  0  0  0  0  0  0
  189.5300  176.3830  143.1720 C   0  0  1  0  0  3  0  0  0  0  0  0
  188.5620  176.9050  142.1320 C   0  0  0  0  0  0  0  0  0  0  0  0
  186.8440  178.6640  142.3840 C   0  0  0  0  0  3  0  0  0  0  0  0
  188.8550  176.0050  144.4820 C   0  0  2  0  0  0  0  0  0  0  0  0
  187.8570  176.9220  147.0600 C   0  0  0  0  0  2  0  0  0  0  0  0
  188.2880  178.3740  142.1550 C   0  0  0  0  0  2  0  0  0  0  0  0
  190.2380  174.0810  143.8020 C   0  0  1  0  0  3  0  0  0  0  0  0
  185.6750  177.0360  146.0380 N   0  0  0  0  0  2  0  0  0  0  0  0
  188.5130  174.6760  141.0510 C   0  0  0  0  0  2  0  0  0  0  0  0
  185.8930  178.2910  141.5320 C   0  0  0  0  0  3  0  0  0  0  0  0
  189.2870  174.6210  144.9010 C   0  0  1  0  0  3  0  0  0  0  0  0
  190.3000  175.1410  142.7100 C   0  0  2  0  0  0  0  0  0  0  0  0
  191.5870  174.7140  143.3930 C   0  0  1  0  0  3  0  0  0  0  0  0
  187.4250  176.2470  144.6710 N   0  0  0  0  0  2  0  0  0  0  0  0
  186.1230  177.4840  140.3190 C   0  0  0  0  0  3  0  0  0  0  0  0
  189.7230  175.8340  145.7280 C   0  0  2  0  0  3  0  0  0  0  0  0
  188.9300  175.8390  147.0380 C   0  0  0  0  0  2  0  0  0  0  0  0
  190.0040  174.5480  141.3400 C   0  0  0  0  0  2  0  0  0  0  0  0
  188.0650  176.1070  141.1590 C   0  0  0  0  0  0  0  0  0  0  0  0
  187.0680  176.5470  140.1590 C   0  0  0  0  0  3  0  0  0  0  0  0
  192.1790  175.7640  144.3290 C   0  0  0  0  0  2  0  0  0  0  0  0
  193.1940  174.9890  146.4910 C   0  0  0  0  0  2  0  0  0  0  0  0
  194.7100  173.1640  145.7600 C   0  0  0  0  0  1  0  0  0  0  0  0
  193.3470  173.8030  145.5490 C   0  0  2  0  0  3  0  0  0  0  0  0
  193.4290  175.2320  145.0170 C   0  0  1  0  0  0  0  0  0  0  0  0
  194.7870  175.8870  144.7450 C   0  0  2  0  0  3  0  0  0  0  0  0
  194.8560  177.1330  145.3730 O   0  0  0  0  0  1  0  0  0  0  0  0
  195.0220  176.0440  143.2520 C   0  0  0  0  0  2  0  0  0  0  0  0
  196.2560  176.6530  143.0270 O   0  0  0  0  0  0  0  0  0  0  0  0
  197.1920  175.6540  143.2870 C   0  0  0  0  0  1  0  0  0  0  0  0
  1  9  2  0  0  0  0
  1  6  1  0  0  0  0
  2  3  1  6  0  0  0
  2  5  1  0  0  0  0
  3  7  1  0  0  0  0
  5 15  1  1  0  0  0
  5 12  1  0  0  0  0
  5 17  1  0  0  0  0
  7  4  1  0  0  0  0
  8 12  1  0  0  0  0
 10 20  1  0  0  0  0
 10 19  1  0  0  0  0
 11  4  2  0  0  0  0
 12 17  1  0  0  0  0
 13  2  1  0  0  0  0
 13 14  1  0  0  0  0
 13  8  1  0  0  0  0
 14  8  1  0  0  0  0
 14 22  1  0  0  0  0
 15  1  1  0  0  0  0
 16 11  1  0  0  0  0
 17 18  1  0  0  0  0
 18  6  1  0  0  0  0
 19 13  1  0  0  0  0
 20  3  2  0  0  0  0
 21 16  2  0  0  0  0
 21 20  1  0  0  0  0
 22 26  1  0  0  0  0
 25 24  1  0  0  0  0
 25 23  1  0  0  0  0
 26 25  1  0  0  0  0
 26 23  1  0  0  0  0
 27 26  1  0  0  0  0
 27 28  1  0  0  0  0
 29 27  1  0  0  0  0
 30 29  1  0  0  0  0
 30 31  1  0  0  0  0
M  END
>  <MODEL>
5

>  <REMARK>
 VINA RESULT:      -7.1      3.108      7.312
  Name = 
  5 active torsions:
  status: ('A' for Active; 'I' for Inactive)
    1  A    between atoms: O_1  and  C_8
    2  A    between atoms: C_8  and  C_19
    3  A    between atoms: C_9  and  C_22
    4  A    between atoms: C_9  and  C_23
    5  A    between atoms: C_19  and  C_22
                            x       y       z     vdW  Elec       q    Type
                         _______ _______ _______ _____ _____    ______ ____

>  <TORSDO>
F 5

$$$$
=
 OpenBabel11052417413D

 31 37  0  0  1  0  0  0  0  0999 V2000
  192.2580  175.0570  146.2770 C   0  0  0  0  0  0  0  0  0  0  0  0
  188.9240  175.1430  144.4380 C   0  0  1  0  0  3  0  0  0  0  0  0
  189.3750  174.0620  143.4790 C   0  0  0  0  0  0  0  0  0  0  0  0
  190.7870  172.0890  143.9490 C   0  0  0  0  0  3  0  0  0  0  0  0
  190.0650  175.7350  145.2520 C   0  0  2  0  0  0  0  0  0  0  0  0
  191.7550  175.4910  147.6120 C   0  0  0  0  0  2  0  0  0  0  0  0
  189.4160  172.6680  144.0180 C   0  0  0  0  0  2  0  0  0  0  0  0
  188.8350  177.6240  144.2530 C   0  0  1  0  0  3  0  0  0  0  0  0
  193.3950  174.4540  146.1790 N   0  0  0  0  0  2  0  0  0  0  0  0
  189.3750  175.7030  141.6230 C   0  0  0  0  0  2  0  0  0  0  0  0
  191.4230  171.8840  142.7970 C   0  0  0  0  0  3  0  0  0  0  0  0
  190.0200  177.2420  145.1770 C   0  0  1  0  0  3  0  0  0  0  0  0
  188.2350  176.3210  143.7390 C   0  0  2  0  0  0  0  0  0  0  0  0
  187.3500  177.2840  144.5100 C   0  0  1  0  0  3  0  0  0  0  0  0
  191.4160  175.1890  145.1330 N   0  0  0  0  0  2  0  0  0  0  0  0
  190.9050  172.2730  141.4730 C   0  0  0  0  0  3  0  0  0  0  0  0
  189.7250  176.5390  146.5060 C   0  0  2  0  0  3  0  0  0  0  0  0
  190.9180  176.7540  147.4430 C   0  0  0  0  0  2  0  0  0  0  0  0
  188.1170  176.3210  142.2220 C   0  0  0  0  0  2  0  0  0  0  0  0
  189.6120  174.3240  142.1730 C   0  0  0  0  0  0  0  0  0  0  0  0
  190.1160  173.3230  141.2080 C   0  0  0  0  0  3  0  0  0  0  0  0
  186.9740  176.8080  145.9100 C   0  0  0  0  0  2  0  0  0  0  0  0
  186.0220  177.5200  148.1220 C   0  0  0  0  0  2  0  0  0  0  0  0
  186.4910  179.9570  148.1600 C   0  0  0  0  0  1  0  0  0  0  0  0
  187.0460  178.5940  147.7830 C   0  0  2  0  0  3  0  0  0  0  0  0
  186.2480  177.9050  146.6780 C   0  0  1  0  0  0  0  0  0  0  0  0
  185.0230  178.5850  146.0590 C   0  0  2  0  0  3  0  0  0  0  0  0
  183.8820  177.8100  146.2720 O   0  0  0  0  0  1  0  0  0  0  0  0
  185.2260  178.8130  144.5700 C   0  0  0  0  0  2  0  0  0  0  0  0
  183.9900  178.9050  143.9310 O   0  0  0  0  0  0  0  0  0  0  0  0
  184.1450  178.1630  142.7610 C   0  0  0  0  0  1  0  0  0  0  0  0
  1  6  1  0  0  0  0
  2  3  1  6  0  0  0
  2  5  1  0  0  0  0
  3  7  1  0  0  0  0
  4  7  1  0  0  0  0
  5 15  1  6  0  0  0
  5 17  1  0  0  0  0
  8 14  1  0  0  0  0
  8 12  1  0  0  0  0
  9  1  2  0  0  0  0
 10 20  1  0  0  0  0
 10 19  1  0  0  0  0
 11  4  2  0  0  0  0
 12  5  1  0  0  0  0
 12 17  1  0  0  0  0
 13  8  1  0  0  0  0
 13  2  1  0  0  0  0
 13 14  1  0  0  0  0
 14 22  1  0  0  0  0
 15  1  1  0  0  0  0
 16 11  1  0  0  0  0
 17 18  1  0  0  0  0
 18  6  1  0  0  0  0
 19 13  1  0  0  0  0
 20  3  2  0  0  0  0
 21 16  2  0  0  0  0
 21 20  1  0  0  0  0
 22 26  1  0  0  0  0
 25 23  1  0  0  0  0
 25 24  1  0  0  0  0
 26 25  1  0  0  0  0
 26 23  1  0  0  0  0
 27 28  1  0  0  0  0
 27 26  1  0  0  0  0
 29 27  1  0  0  0  0
 30 29  1  0  0  0  0
 31 30  1  0  0  0  0
M  END
>  <MODEL>
6

>  <REMARK>
 VINA RESULT:      -7.1      2.106      4.285
  Name = 
  5 active torsions:
  status: ('A' for Active; 'I' for Inactive)
    1  A    between atoms: O_1  and  C_8
    2  A    between atoms: C_8  and  C_19
    3  A    between atoms: C_9  and  C_22
    4  A    between atoms: C_9  and  C_23
    5  A    between atoms: C_19  and  C_22
                            x       y       z     vdW  Elec       q    Type
                         _______ _______ _______ _____ _____    ______ ____

>  <TORSDO>
F 5

$$$$
=
 OpenBabel11052417413D

 31 37  0  0  1  0  0  0  0  0999 V2000
  188.6310  176.9290  146.5580 C   0  0  0  0  0  0  0  0  0  0  0  0
  190.6480  176.2040  143.4100 C   0  0  1  0  0  3  0  0  0  0  0  0
  189.4690  176.5410  142.5230 C   0  0  0  0  0  0  0  0  0  0  0  0
  187.7610  178.2980  142.8480 C   0  0  0  0  0  3  0  0  0  0  0  0
  190.2680  176.0330  144.8730 C   0  0  2  0  0  0  0  0  0  0  0  0
  189.7700  177.3400  147.4280 C   0  0  0  0  0  2  0  0  0  0  0  0
  189.1410  177.9920  142.3750 C   0  0  0  0  0  2  0  0  0  0  0  0
  191.5710  174.0410  144.2290 C   0  0  1  0  0  3  0  0  0  0  0  0
  187.4240  177.2630  146.8710 N   0  0  0  0  0  2  0  0  0  0  0  0
  189.3020  174.1670  141.8340 C   0  0  0  0  0  2  0  0  0  0  0  0
  186.6750  177.7810  142.2770 C   0  0  0  0  0  3  0  0  0  0  0  0
  190.8370  174.7390  145.4030 C   0  0  1  0  0  3  0  0  0  0  0  0
  191.3650  174.9130  142.9970 C   0  0  2  0  0  0  0  0  0  0  0  0
  192.7800  174.6160  143.4590 C   0  0  1  0  0  3  0  0  0  0  0  0
  188.8960  176.2860  145.3120 N   0  0  0  0  0  2  0  0  0  0  0  0
  186.6930  176.7930  141.1830 C   0  0  0  0  0  3  0  0  0  0  0  0
  191.3760  176.0750  145.9240 C   0  0  2  0  0  3  0  0  0  0  0  0
  190.8630  176.2810  147.3530 C   0  0  0  0  0  2  0  0  0  0  0  0
  190.8260  174.1040  141.8260 C   0  0  0  0  0  2  0  0  0  0  0  0
  188.8220  175.5910  141.8090 C   0  0  0  0  0  0  0  0  0  0  0  0
  187.6260  175.8540  140.9790 C   0  0  0  0  0  3  0  0  0  0  0  0
  193.5010  175.8090  144.0790 C   0  0  0  0  0  2  0  0  0  0  0  0
  194.9470  175.6620  146.1270 C   0  0  0  0  0  2  0  0  0  0  0  0
  196.1890  173.5440  145.7680 C   0  0  0  0  0  1  0  0  0  0  0  0
  194.8390  174.2270  145.6300 C   0  0  2  0  0  3  0  0  0  0  0  0
  194.8530  175.3920  144.6420 C   0  0  1  0  0  0  0  0  0  0  0  0
  196.1390  175.7700  143.9000 C   0  0  2  0  0  3  0  0  0  0  0  0
  196.2990  177.1570  143.8890 O   0  0  0  0  0  1  0  0  0  0  0  0
  196.1170  175.2390  142.4760 C   0  0  0  0  0  2  0  0  0  0  0  0
  195.9650  176.2940  141.5770 O   0  0  0  0  0  0  0  0  0  0  0  0
  195.0080  175.8450  140.6690 C   0  0  0  0  0  1  0  0  0  0  0  0
  1  9  2  0  0  0  0
  1  6  1  0  0  0  0
  2  3  1  6  0  0  0
  2  5  1  0  0  0  0
  5 15  1  1  0  0  0
  5 12  1  0  0  0  0
  5 17  1  0  0  0  0
  7  3  1  0  0  0  0
  7  4  1  0  0  0  0
  8 12  1  0  0  0  0
 11  4  2  0  0  0  0
 12 17  1  0  0  0  0
 13  2  1  0  0  0  0
 13 14  1  0  0  0  0
 13  8  1  0  0  0  0
 14 22  1  0  0  0  0
 14  8  1  0  0  0  0
 15  1  1  0  0  0  0
 16 11  1  0  0  0  0
 17 18  1  0  0  0  0
 18  6  1  0  0  0  0
 19 10  1  0  0  0  0
 19 13  1  0  0  0  0
 20 10  1  0  0  0  0
 20  3  2  0  0  0  0
 21 16  2  0  0  0  0
 21 20  1  0  0  0  0
 22 26  1  0  0  0  0
 25 24  1  0  0  0  0
 25 23  1  0  0  0  0
 26 25  1  0  0  0  0
 26 23  1  0  0  0  0
 27 26  1  0  0  0  0
 28 27  1  0  0  0  0
 29 27  1  0  0  0  0
 30 29  1  0  0  0  0
 31 30  1  0  0  0  0
M  END
>  <MODEL>
7

>  <REMARK>
 VINA RESULT:      -6.9      3.185      7.317
  Name = 
  5 active torsions:
  status: ('A' for Active; 'I' for Inactive)
    1  A    between atoms: O_1  and  C_8
    2  A    between atoms: C_8  and  C_19
    3  A    between atoms: C_9  and  C_22
    4  A    between atoms: C_9  and  C_23
    5  A    between atoms: C_19  and  C_22
                            x       y       z     vdW  Elec       q    Type
                         _______ _______ _______ _____ _____    ______ ____

>  <TORSDO>
F 5

$$$$
=
 OpenBabel11052417413D

 31 37  0  0  1  0  0  0  0  0999 V2000
  190.8970  173.6940  142.3740 C   0  0  0  0  0  0  0  0  0  0  0  0
  190.3520  176.8000  144.5100 C   0  0  1  0  0  3  0  0  0  0  0  0
  191.7660  176.7330  145.0470 C   0  0  0  0  0  0  0  0  0  0  0  0
  193.8260  176.0650  143.8570 C   0  0  0  0  0  3  0  0  0  0  0  0
  189.9240  175.5300  143.7900 C   0  0  2  0  0  0  0  0  0  0  0  0
  189.9260  174.0290  141.2940 C   0  0  0  0  0  2  0  0  0  0  0  0
  192.8530  177.1630  144.1160 C   0  0  0  0  0  2  0  0  0  0  0  0
  188.1660  176.0520  145.4370 C   0  0  1  0  0  3  0  0  0  0  0  0
  191.8270  172.8240  142.1630 N   0  0  0  0  0  2  0  0  0  0  0  0
  190.8900  176.1770  147.2970 C   0  0  0  0  0  2  0  0  0  0  0  0
  194.5770  175.5300  144.8180 C   0  0  0  0  0  3  0  0  0  0  0  0
  188.5870  175.0680  144.3160 C   0  0  1  0  0  3  0  0  0  0  0  0
  189.3040  177.0520  145.6000 C   0  0  2  0  0  0  0  0  0  0  0  0
  187.9180  177.5670  145.2550 C   0  0  1  0  0  3  0  0  0  0  0  0
  190.8780  174.4390  143.5910 N   0  0  0  0  0  2  0  0  0  0  0  0
  194.4870  175.8830  146.2460 C   0  0  0  0  0  3  0  0  0  0  0  0
  188.6990  175.5860  142.8790 C   0  0  2  0  0  3  0  0  0  0  0  0
  188.5860  174.3940  141.9240 C   0  0  0  0  0  2  0  0  0  0  0  0
  189.7490  177.1580  147.0520 C   0  0  0  0  0  2  0  0  0  0  0  0
  192.0220  176.4170  146.3380 C   0  0  0  0  0  0  0  0  0  0  0  0
  193.3830  176.2730  146.8980 C   0  0  0  0  0  3  0  0  0  0  0  0
  187.7780  178.0860  143.8270 C   0  0  0  0  0  2  0  0  0  0  0  0
  186.1700  178.9620  142.1090 C   0  0  0  0  0  2  0  0  0  0  0  0
  184.1300  177.6130  142.5310 C   0  0  0  0  0  1  0  0  0  0  0  0
  185.6470  177.5740  142.4500 C   0  0  2  0  0  3  0  0  0  0  0  0
  186.3280  178.4300  143.5150 C   0  0  1  0  0  0  0  0  0  0  0  0
  185.4970  179.2190  144.5320 C   0  0  2  0  0  3  0  0  0  0  0  0
  185.5660  180.5860  144.2540 O   0  0  0  0  0  1  0  0  0  0  0  0
  185.9790  178.9520  145.9480 C   0  0  0  0  0  2  0  0  0  0  0  0
  184.8870  178.8510  146.8100 O   0  0  0  0  0  0  0  0  0  0  0  0
  184.4460  177.5370  146.6620 C   0  0  0  0  0  1  0  0  0  0  0  0
  1 15  1  0  0  0  0
  2  3  1  1  0  0  0
  2 13  1  0  0  0  0
  3 20  2  0  0  0  0
  4  7  1  0  0  0  0
  4 11  2  0  0  0  0
  5 15  1  6  0  0  0
  5 12  1  0  0  0  0
  5  2  1  0  0  0  0
  6 18  1  0  0  0  0
  6  1  1  0  0  0  0
  7  3  1  0  0  0  0
  8 13  1  0  0  0  0
  9  1  2  0  0  0  0
 11 16  1  0  0  0  0
 12  8  1  0  0  0  0
 13 19  1  0  0  0  0
 14  8  1  0  0  0  0
 14 13  1  0  0  0  0
 16 21  2  0  0  0  0
 17  5  1  0  0  0  0
 17 12  1  0  0  0  0
 18 17  1  0  0  0  0
 19 10  1  0  0  0  0
 20 21  1  0  0  0  0
 20 10  1  0  0  0  0
 22 14  1  0  0  0  0
 23 25  1  0  0  0  0
 23 26  1  0  0  0  0
 25 24  1  0  0  0  0
 25 26  1  0  0  0  0
 26 22  1  0  0  0  0
 26 27  1  0  0  0  0
 27 29  1  0  0  0  0
 28 27  1  0  0  0  0
 29 30  1  0  0  0  0
 31 30  1  0  0  0  0
M  END
>  <MODEL>
8

>  <REMARK>
 VINA RESULT:      -6.9      1.472      2.432
  Name = 
  5 active torsions:
  status: ('A' for Active; 'I' for Inactive)
    1  A    between atoms: O_1  and  C_8
    2  A    between atoms: C_8  and  C_19
    3  A    between atoms: C_9  and  C_22
    4  A    between atoms: C_9  and  C_23
    5  A    between atoms: C_19  and  C_22
                            x       y       z     vdW  Elec       q    Type
                         _______ _______ _______ _____ _____    ______ ____

>  <TORSDO>
F 5

$$$$
=
 OpenBabel11052417413D

 31 37  0  0  1  0  0  0  0  0999 V2000
  186.2120  178.1380  142.3980 C   0  0  0  0  0  0  0  0  0  0  0  0
  188.0550  176.2730  145.1600 C   0  0  1  0  0  3  0  0  0  0  0  0
  187.1740  176.8900  146.2250 C   0  0  0  0  0  0  0  0  0  0  0  0
  184.7600  177.4070  146.1070 C   0  0  0  0  0  3  0  0  0  0  0  0
  187.9260  176.9560  143.8070 C   0  0  2  0  0  0  0  0  0  0  0  0
  186.4430  177.1480  141.3080 C   0  0  0  0  0  2  0  0  0  0  0  0
  185.7850  176.3490  146.3360 C   0  0  0  0  0  2  0  0  0  0  0  0
  190.3330  176.8380  144.3290 C   0  0  1  0  0  3  0  0  0  0  0  0
  185.2640  179.0080  142.2920 N   0  0  0  0  0  2  0  0  0  0  0  0
  189.1080  178.1740  147.0890 C   0  0  0  0  0  2  0  0  0  0  0  0
  184.6320  178.4670  146.9010 C   0  0  0  0  0  3  0  0  0  0  0  0
  189.2960  177.2880  143.2680 C   0  0  1  0  0  3  0  0  0  0  0  0
  189.5450  176.3030  145.5190 C   0  0  2  0  0  0  0  0  0  0  0  0
  190.5390  175.3890  144.8240 C   0  0  1  0  0  3  0  0  0  0  0  0
  186.9520  178.0290  143.6130 N   0  0  0  0  0  2  0  0  0  0  0  0
  185.5210  178.7770  148.0360 C   0  0  0  0  0  3  0  0  0  0  0  0
  188.4430  176.2250  142.5690 C   0  0  2  0  0  3  0  0  0  0  0  0
  187.9280  176.8080  141.2490 C   0  0  0  0  0  2  0  0  0  0  0  0
  189.9860  176.9570  146.8200 C   0  0  0  0  0  2  0  0  0  0  0  0
  187.6540  177.7960  147.1080 C   0  0  0  0  0  0  0  0  0  0  0  0
  186.8240  178.4780  148.1250 C   0  0  0  0  0  3  0  0  0  0  0  0
  189.8990  174.2720  144.0040 C   0  0  0  0  0  2  0  0  0  0  0  0
  190.3530  173.0760  141.8430 C   0  0  0  0  0  2  0  0  0  0  0  0
  192.6600  173.8050  141.2890 C   0  0  0  0  0  1  0  0  0  0  0  0
  191.3160  174.2550  141.8380 C   0  0  2  0  0  3  0  0  0  0  0  0
  190.9410  173.5650  143.1480 C   0  0  1  0  0  0  0  0  0  0  0  0
  191.8790  172.5350  143.7840 C   0  0  2  0  0  3  0  0  0  0  0  0
  191.1430  171.4660  144.3010 O   0  0  0  0  0  1  0  0  0  0  0  0
  192.7130  173.1710  144.8850 C   0  0  0  0  0  2  0  0  0  0  0  0
  194.0370  173.2950  144.4650 O   0  0  0  0  0  0  0  0  0  0  0  0
  194.3510  174.6340  144.6940 C   0  0  0  0  0  1  0  0  0  0  0  0
  1 15  1  0  0  0  0
  2 13  1  0  0  0  0
  2  3  1  1  0  0  0
  3  7  1  0  0  0  0
  3 20  2  0  0  0  0
  4  7  1  0  0  0  0
  4 11  2  0  0  0  0
  5 15  1  6  0  0  0
  5  2  1  0  0  0  0
  6  1  1  0  0  0  0
  8 14  1  0  0  0  0
  8 13  1  0  0  0  0
  9  1  2  0  0  0  0
 10 20  1  0  0  0  0
 11 16  1  0  0  0  0
 12  5  1  0  0  0  0
 12  8  1  0  0  0  0
 13 19  1  0  0  0  0
 14 13  1  0  0  0  0
 16 21  2  0  0  0  0
 17 12  1  0  0  0  0
 17  5  1  0  0  0  0
 18  6  1  0  0  0  0
 18 17  1  0  0  0  0
 19 10  1  0  0  0  0
 20 21  1  0  0  0  0
 22 14  1  0  0  0  0
 23 26  1  0  0  0  0
 24 25  1  0  0  0  0
 25 23  1  0  0  0  0
 25 26  1  0  0  0  0
 26 27  1  0  0  0  0
 26 22  1  0  0  0  0
 27 28  1  0  0  0  0
 27 29  1  0  0  0  0
 30 31  1  0  0  0  0
 30 29  1  0  0  0  0
M  END
>  <MODEL>
9

>  <REMARK>
 VINA RESULT:      -6.9      3.024      6.763
  Name = 
  5 active torsions:
  status: ('A' for Active; 'I' for Inactive)
    1  A    between atoms: O_1  and  C_8
    2  A    between atoms: C_8  and  C_19
    3  A    between atoms: C_9  and  C_22
    4  A    between atoms: C_9  and  C_23
    5  A    between atoms: C_19  and  C_22
                            x       y       z     vdW  Elec       q    Type
                         _______ _______ _______ _____ _____    ______ ____

>  <TORSDO>
F 5

$$$$
