=
 OpenBabel11052417383D

 25 28  0  0  1  0  0  0  0  0999 V2000
  186.2800  177.7060  142.8720 C   0  0  0  0  0  0  0  0  0  0  0  0
  186.5790  177.5610  144.2460 C   0  0  0  0  0  0  0  0  0  0  0  0
  184.0570  178.4160  143.3600 C   0  0  0  0  0  3  0  0  0  0  0  0
  187.1570  177.4010  141.7920 N   0  0  0  0  0  0  0  0  0  0  0  0
  188.2550  176.5650  145.8100 N   0  0  0  0  0  0  0  0  0  0  0  0
  186.6830  176.6490  138.3990 O   0  0  0  0  0  0  0  0  0  0  0  0
  184.3430  178.3310  144.6840 N   0  0  0  0  0  0  0  0  0  0  0  0
  186.6550  177.8660  140.5060 C   0  0  1  0  0  3  0  0  0  0  0  0
  186.9590  176.7130  139.6250 C   0  0  0  0  0  0  0  0  0  0  0  0
  185.7310  178.0780  146.5230 C   0  0  0  0  0  0  0  0  0  0  0  0
  184.5730  178.4940  147.3760 C   0  0  0  0  0  1  0  0  0  0  0  0
  187.7430  176.9610  144.5330 C   0  0  0  0  0  3  0  0  0  0  0  0
  187.6560  175.6790  140.3700 C   0  0  0  0  0  3  0  0  0  0  0  0
  185.0490  178.1290  142.4460 C   0  0  0  0  0  0  0  0  0  0  0  0
  184.8470  178.1510  140.6710 S   0  0  0  0  0  0  0  0  0  0  0  0
  187.0020  178.0640  147.2540 C   0  0  0  0  0  3  0  0  0  0  0  0
  187.7430  176.1060  141.6230 C   0  0  0  0  0  3  0  0  0  0  0  0
  188.1100  177.4110  146.9470 C   0  0  0  0  0  3  0  0  0  0  0  0
  185.5660  177.9590  145.1820 C   0  0  0  0  0  0  0  0  0  0  0  0
  189.2350  174.5820  146.9340 C   0  0  0  0  0  1  0  0  0  0  0  0
  189.3800  175.6130  145.8180 C   0  0  2  0  0  3  0  0  0  0  0  0
  190.7200  176.3290  145.9910 C   0  0  0  0  0  2  0  0  0  0  0  0
  191.4590  176.3880  144.6980 C   0  0  0  0  0  0  0  0  0  0  0  0
  192.6300  177.1290  144.6000 O   0  0  0  0  0  1  0  0  0  0  0  0
  191.0100  175.7870  143.6880 O   0  0  0  0  0  0  0  0  0  0  0  0
  1  2  1  0  0  0  0
  2 12  2  0  0  0  0
  2 19  1  0  0  0  0
  3  7  2  0  0  0  0
  4  1  1  0  0  0  0
  5 21  1  0  0  0  0
  5 18  1  0  0  0  0
  6  9  2  0  0  0  0
  7 19  1  0  0  0  0
  8  9  1  6  0  0  0
  8 15  1  0  0  0  0
  8  4  1  0  0  0  0
  9 13  1  0  0  0  0
 10 16  1  0  0  0  0
 10 11  1  0  0  0  0
 12  5  1  0  0  0  0
 13 17  2  0  0  0  0
 14  1  2  0  0  0  0
 14  3  1  0  0  0  0
 15 14  1  0  0  0  0
 17  4  1  0  0  0  0
 18 16  2  0  0  0  0
 19 10  2  0  0  0  0
 21 22  1  0  0  0  0
 21 20  1  1  0  0  0
 23 22  1  0  0  0  0
 24 23  1  0  0  0  0
 25 23  2  0  0  0  0
M  END
>  <MODEL>
1

>  <REMARK>
 VINA RESULT:      -7.4      0.000      0.000
  Name = 
  3 active torsions:
  status: ('A' for Active; 'I' for Inactive)
    1  A    between atoms: C_2  and  C_15
    2  A    between atoms: N_6  and  C_25
    3  A    between atoms: C_15  and  C_25
                            x       y       z     vdW  Elec       q    Type
                         _______ _______ _______ _____ _____    ______ ____

>  <TORSDO>
F 3

$$$$
=
 OpenBabel11052417383D

 25 28  0  0  1  0  0  0  0  0999 V2000
  189.0870  174.5580  143.1990 C   0  0  0  0  0  0  0  0  0  0  0  0
  188.7150  175.6790  143.9760 C   0  0  0  0  0  0  0  0  0  0  0  0
  191.0050  174.1650  144.5600 C   0  0  0  0  0  3  0  0  0  0  0  0
  188.4160  174.0930  142.0320 N   0  0  0  0  0  0  0  0  0  0  0  0
  187.2160  177.6790  143.9700 N   0  0  0  0  0  0  0  0  0  0  0  0
  189.3620  172.1190  139.2920 O   0  0  0  0  0  0  0  0  0  0  0  0
  190.6350  175.2070  145.3470 N   0  0  0  0  0  0  0  0  0  0  0  0
  188.8940  172.7930  141.5830 C   0  0  1  0  0  3  0  0  0  0  0  0
  188.9730  172.9870  140.1160 C   0  0  0  0  0  0  0  0  0  0  0  0
  189.1990  176.8610  146.1060 C   0  0  0  0  0  0  0  0  0  0  0  0
  190.1330  177.0550  147.2600 C   0  0  0  0  0  1  0  0  0  0  0  0
  187.7210  176.4310  143.4820 C   0  0  0  0  0  3  0  0  0  0  0  0
  188.4980  174.3120  139.7550 C   0  0  0  0  0  3  0  0  0  0  0  0
  190.2030  173.8200  143.4910 C   0  0  0  0  0  0  0  0  0  0  0  0
  190.5490  172.5070  142.3310 S   0  0  0  0  0  0  0  0  0  0  0  0
  187.9140  177.5420  146.2920 C   0  0  0  0  0  3  0  0  0  0  0  0
  188.1950  174.9280  140.8900 C   0  0  0  0  0  3  0  0  0  0  0  0
  187.0410  177.8980  145.3660 C   0  0  0  0  0  3  0  0  0  0  0  0
  189.5070  175.9610  145.1390 C   0  0  0  0  0  0  0  0  0  0  0  0
  185.5960  179.5500  143.7970 C   0  0  0  0  0  1  0  0  0  0  0  0
  186.3740  178.4680  143.0530 C   0  0  2  0  0  3  0  0  0  0  0  0
  185.3770  177.5830  142.3030 C   0  0  0  0  0  2  0  0  0  0  0  0
  185.2950  177.9780  140.8690 C   0  0  0  0  0  0  0  0  0  0  0  0
  186.4060  177.8430  140.0460 O   0  0  0  0  0  0  0  0  0  0  0  0
  184.2270  178.4570  140.4080 O   0  0  0  0  0  1  0  0  0  0  0  0
  1 14  2  0  0  0  0
  1  2  1  0  0  0  0
  2 19  1  0  0  0  0
  3  7  2  0  0  0  0
  4  1  1  0  0  0  0
  5 18  1  0  0  0  0
  6  9  2  0  0  0  0
  8  9  1  6  0  0  0
  8  4  1  0  0  0  0
  8 15  1  0  0  0  0
 10 16  1  0  0  0  0
 10 11  1  0  0  0  0
 12  5  1  0  0  0  0
 12  2  2  0  0  0  0
 13  9  1  0  0  0  0
 13 17  2  0  0  0  0
 14  3  1  0  0  0  0
 15 14  1  0  0  0  0
 17  4  1  0  0  0  0
 18 16  2  0  0  0  0
 19  7  1  0  0  0  0
 19 10  2  0  0  0  0
 21 20  1  1  0  0  0
 21  5  1  0  0  0  0
 22 21  1  0  0  0  0
 23 22  1  0  0  0  0
 24 23  2  0  0  0  0
 25 23  1  0  0  0  0
M  END
>  <MODEL>
2

>  <REMARK>
 VINA RESULT:      -6.8      3.072      5.396
  Name = 
  3 active torsions:
  status: ('A' for Active; 'I' for Inactive)
    1  A    between atoms: C_2  and  C_15
    2  A    between atoms: N_6  and  C_25
    3  A    between atoms: C_15  and  C_25
                            x       y       z     vdW  Elec       q    Type
                         _______ _______ _______ _____ _____    ______ ____

>  <TORSDO>
F 3

$$$$
=
 OpenBabel11052417383D

 25 28  0  0  1  0  0  0  0  0999 V2000
  189.9880  176.0940  145.3000 C   0  0  0  0  0  0  0  0  0  0  0  0
  188.6630  176.5840  145.3000 C   0  0  0  0  0  0  0  0  0  0  0  0
  190.4660  177.1890  147.3640 C   0  0  0  0  0  3  0  0  0  0  0  0
  190.5860  175.3070  144.2750 N   0  0  0  0  0  0  0  0  0  0  0  0
  186.6630  176.8770  143.8290 N   0  0  0  0  0  0  0  0  0  0  0  0
  193.8930  174.6760  143.2930 O   0  0  0  0  0  0  0  0  0  0  0  0
  189.1820  177.6270  147.4050 N   0  0  0  0  0  0  0  0  0  0  0  0
  191.8810  174.7640  144.6590 C   0  0  1  0  0  3  0  0  0  0  0  0
  192.6790  174.9790  143.4290 C   0  0  0  0  0  0  0  0  0  0  0  0
  186.9680  177.7150  146.7230 C   0  0  0  0  0  0  0  0  0  0  0  0
  186.6830  178.5060  147.9610 C   0  0  0  0  0  1  0  0  0  0  0  0
  187.9660  176.3910  144.1710 C   0  0  0  0  0  3  0  0  0  0  0  0
  191.8500  175.5540  142.3830 C   0  0  0  0  0  3  0  0  0  0  0  0
  190.8620  176.3880  146.3120 C   0  0  0  0  0  0  0  0  0  0  0  0
  192.5140  175.7530  146.0740 S   0  0  0  0  0  0  0  0  0  0  0  0
  185.7510  177.2500  146.0490 C   0  0  0  0  0  3  0  0  0  0  0  0
  190.6480  175.7410  142.9120 C   0  0  0  0  0  3  0  0  0  0  0  0
  185.6100  176.8780  144.7890 C   0  0  0  0  0  3  0  0  0  0  0  0
  188.2410  177.3330  146.4500 C   0  0  0  0  0  0  0  0  0  0  0  0
  187.4250  176.3280  141.5320 C   0  0  0  0  0  1  0  0  0  0  0  0
  186.2780  176.8270  142.4070 C   0  0  2  0  0  3  0  0  0  0  0  0
  185.8390  178.1990  141.8950 C   0  0  0  0  0  2  0  0  0  0  0  0
  184.3990  178.1850  141.5130 C   0  0  0  0  0  0  0  0  0  0  0  0
  184.0350  178.1390  140.1730 O   0  0  0  0  0  0  0  0  0  0  0  0
  183.5110  178.2410  142.4030 O   0  0  0  0  0  1  0  0  0  0  0  0
  1  2  1  0  0  0  0
  1 14  2  0  0  0  0
  2 19  1  0  0  0  0
  3  7  2  0  0  0  0
  4  8  1  0  0  0  0
  4  1  1  0  0  0  0
  5 12  1  0  0  0  0
  5 18  1  0  0  0  0
  6  9  2  0  0  0  0
  8  9  1  6  0  0  0
  8 15  1  0  0  0  0
 10 11  1  0  0  0  0
 12  2  2  0  0  0  0
 13 17  2  0  0  0  0
 13  9  1  0  0  0  0
 14  3  1  0  0  0  0
 15 14  1  0  0  0  0
 16 10  1  0  0  0  0
 17  4  1  0  0  0  0
 18 16  2  0  0  0  0
 19 10  2  0  0  0  0
 19  7  1  0  0  0  0
 21 20  1  6  0  0  0
 21  5  1  0  0  0  0
 22 21  1  0  0  0  0
 23 22  1  0  0  0  0
 23 25  1  0  0  0  0
 24 23  2  0  0  0  0
M  END
>  <MODEL>
3

>  <REMARK>
 VINA RESULT:      -6.7      2.785      5.879
  Name = 
  3 active torsions:
  status: ('A' for Active; 'I' for Inactive)
    1  A    between atoms: C_2  and  C_15
    2  A    between atoms: N_6  and  C_25
    3  A    between atoms: C_15  and  C_25
                            x       y       z     vdW  Elec       q    Type
                         _______ _______ _______ _____ _____    ______ ____

>  <TORSDO>
F 3

$$$$
=
 OpenBabel11052417383D

 25 28  0  0  1  0  0  0  0  0999 V2000
  186.9840  176.4500  143.2570 C   0  0  0  0  0  0  0  0  0  0  0  0
  188.1020  175.6090  143.4590 C   0  0  0  0  0  0  0  0  0  0  0  0
  187.3240  176.4480  140.8970 C   0  0  0  0  0  3  0  0  0  0  0  0
  186.1650  177.0090  144.2800 N   0  0  0  0  0  0  0  0  0  0  0  0
  189.6420  174.7600  145.2370 N   0  0  0  0  0  0  0  0  0  0  0  0
  184.0170  179.7740  144.4510 O   0  0  0  0  0  0  0  0  0  0  0  0
  188.3700  175.6000  141.0690 N   0  0  0  0  0  0  0  0  0  0  0  0
  184.9610  177.6410  143.7600 C   0  0  1  0  0  3  0  0  0  0  0  0
  184.8980  178.8840  144.5640 C   0  0  0  0  0  0  0  0  0  0  0  0
  189.7340  174.1620  142.2700 C   0  0  0  0  0  0  0  0  0  0  0  0
  190.3560  173.7640  140.9680 C   0  0  0  0  0  1  0  0  0  0  0  0
  188.4870  175.4420  144.7330 C   0  0  0  0  0  3  0  0  0  0  0  0
  185.9800  178.9130  145.5350 C   0  0  0  0  0  3  0  0  0  0  0  0
  186.6060  176.8520  142.0040 C   0  0  0  0  0  0  0  0  0  0  0  0
  185.2280  177.9880  141.9740 S   0  0  0  0  0  0  0  0  0  0  0  0
  190.1040  173.2710  143.3740 C   0  0  0  0  0  3  0  0  0  0  0  0
  186.6990  177.8170  145.3330 C   0  0  0  0  0  3  0  0  0  0  0  0
  190.0620  173.5220  144.6710 C   0  0  0  0  0  3  0  0  0  0  0  0
  188.7760  175.1220  142.2890 C   0  0  0  0  0  0  0  0  0  0  0  0
  188.9510  174.5430  147.6100 C   0  0  0  0  0  1  0  0  0  0  0  0
  190.0220  175.0260  146.6360 C   0  0  2  0  0  3  0  0  0  0  0  0
  190.2630  176.5160  146.8800 C   0  0  0  0  0  2  0  0  0  0  0  0
  191.5580  176.7340  147.5840 C   0  0  0  0  0  0  0  0  0  0  0  0
  191.5730  177.3070  148.8490 O   0  0  0  0  0  1  0  0  0  0  0  0
  192.6400  176.4240  147.0220 O   0  0  0  0  0  0  0  0  0  0  0  0
  1  2  1  0  0  0  0
  1  4  1  0  0  0  0
  2 12  2  0  0  0  0
  3  7  2  0  0  0  0
  3 14  1  0  0  0  0
  4 17  1  0  0  0  0
  5 21  1  0  0  0  0
  6  9  2  0  0  0  0
  7 19  1  0  0  0  0
  8 15  1  6  0  0  0
  8  4  1  0  0  0  0
  8  9  1  0  0  0  0
  9 13  1  0  0  0  0
 10 19  2  0  0  0  0
 10 16  1  0  0  0  0
 11 10  1  0  0  0  0
 12  5  1  0  0  0  0
 14  1  2  0  0  0  0
 15 14  1  0  0  0  0
 16 18  2  0  0  0  0
 17 13  2  0  0  0  0
 18  5  1  0  0  0  0
 19  2  1  0  0  0  0
 21 22  1  0  0  0  0
 21 20  1  1  0  0  0
 22 23  1  0  0  0  0
 23 24  1  0  0  0  0
 25 23  2  0  0  0  0
M  END
>  <MODEL>
4

>  <REMARK>
 VINA RESULT:      -6.6      2.517      4.630
  Name = 
  3 active torsions:
  status: ('A' for Active; 'I' for Inactive)
    1  A    between atoms: C_2  and  C_15
    2  A    between atoms: N_6  and  C_25
    3  A    between atoms: C_15  and  C_25
                            x       y       z     vdW  Elec       q    Type
                         _______ _______ _______ _____ _____    ______ ____

>  <TORSDO>
F 3

$$$$
=
 OpenBabel11052417383D

 25 28  0  0  1  0  0  0  0  0999 V2000
  188.9390  176.2140  143.7900 C   0  0  0  0  0  0  0  0  0  0  0  0
  187.8610  176.6750  143.0010 C   0  0  0  0  0  0  0  0  0  0  0  0
  189.7570  174.8630  142.0030 C   0  0  0  0  0  3  0  0  0  0  0  0
  189.1750  176.5440  145.1550 N   0  0  0  0  0  0  0  0  0  0  0  0
  185.6660  177.8610  143.1530 N   0  0  0  0  0  0  0  0  0  0  0  0
  190.9790  175.0370  147.7570 O   0  0  0  0  0  0  0  0  0  0  0  0
  188.7570  175.3350  141.2160 N   0  0  0  0  0  0  0  0  0  0  0  0
  190.4800  176.1030  145.6280 C   0  0  1  0  0  3  0  0  0  0  0  0
  190.1500  175.5570  146.9660 C   0  0  0  0  0  0  0  0  0  0  0  0
  186.9910  176.7340  140.6750 C   0  0  0  0  0  0  0  0  0  0  0  0
  187.0610  176.1830  139.2850 C   0  0  0  0  0  1  0  0  0  0  0  0
  186.9190  177.3770  143.6480 C   0  0  0  0  0  3  0  0  0  0  0  0
  188.7380  175.7440  147.2540 C   0  0  0  0  0  3  0  0  0  0  0  0
  189.8650  175.3330  143.2960 C   0  0  0  0  0  0  0  0  0  0  0  0
  191.0890  174.8010  144.4820 S   0  0  0  0  0  0  0  0  0  0  0  0
  186.1450  177.9280  140.7730 C   0  0  0  0  0  3  0  0  0  0  0  0
  188.2030  176.3070  146.1790 C   0  0  0  0  0  3  0  0  0  0  0  0
  185.5670  178.4300  141.8510 C   0  0  0  0  0  3  0  0  0  0  0  0
  187.8230  176.2510  141.6300 C   0  0  0  0  0  0  0  0  0  0  0  0
  183.5100  179.0380  143.5020 C   0  0  0  0  0  1  0  0  0  0  0  0
  184.6680  178.2860  144.1510 C   0  0  2  0  0  3  0  0  0  0  0  0
  185.2900  179.1850  145.2200 C   0  0  0  0  0  2  0  0  0  0  0  0
  185.1050  178.5990  146.5780 C   0  0  0  0  0  0  0  0  0  0  0  0
  185.6730  179.2150  147.6850 O   0  0  0  0  0  1  0  0  0  0  0  0
  184.4550  177.5300  146.7180 O   0  0  0  0  0  0  0  0  0  0  0  0
  1  4  1  0  0  0  0
  2 12  2  0  0  0  0
  2  1  1  0  0  0  0
  3 14  1  0  0  0  0
  4  8  1  0  0  0  0
  4 17  1  0  0  0  0
  5 12  1  0  0  0  0
  5 21  1  0  0  0  0
  7 19  1  0  0  0  0
  7  3  2  0  0  0  0
  8 15  1  6  0  0  0
  8  9  1  0  0  0  0
  9 13  1  0  0  0  0
  9  6  2  0  0  0  0
 10 16  1  0  0  0  0
 10 19  2  0  0  0  0
 11 10  1  0  0  0  0
 14  1  2  0  0  0  0
 14 15  1  0  0  0  0
 16 18  2  0  0  0  0
 17 13  2  0  0  0  0
 18  5  1  0  0  0  0
 19  2  1  0  0  0  0
 21 20  1  6  0  0  0
 21 22  1  0  0  0  0
 22 23  1  0  0  0  0
 23 25  2  0  0  0  0
 23 24  1  0  0  0  0
M  END
>  <MODEL>
5

>  <REMARK>
 VINA RESULT:      -6.6      3.064      6.423
  Name = 
  3 active torsions:
  status: ('A' for Active; 'I' for Inactive)
    1  A    between atoms: C_2  and  C_15
    2  A    between atoms: N_6  and  C_25
    3  A    between atoms: C_15  and  C_25
                            x       y       z     vdW  Elec       q    Type
                         _______ _______ _______ _____ _____    ______ ____

>  <TORSDO>
F 3

$$$$
=
 OpenBabel11052417383D

 25 28  0  0  1  0  0  0  0  0999 V2000
  185.9350  177.3140  143.9820 C   0  0  0  0  0  0  0  0  0  0  0  0
  186.7750  176.7870  142.9760 C   0  0  0  0  0  0  0  0  0  0  0  0
  184.7720  178.6650  142.3980 C   0  0  0  0  0  3  0  0  0  0  0  0
  186.0160  177.0230  145.3740 N   0  0  0  0  0  0  0  0  0  0  0  0
  188.8940  175.5020  142.6420 N   0  0  0  0  0  0  0  0  0  0  0  0
  184.9440  178.6660  148.2810 O   0  0  0  0  0  0  0  0  0  0  0  0
  185.5380  178.1310  141.4120 N   0  0  0  0  0  0  0  0  0  0  0  0
  184.8800  177.5340  146.1280 C   0  0  1  0  0  3  0  0  0  0  0  0
  185.5390  178.0910  147.3330 C   0  0  0  0  0  0  0  0  0  0  0  0
  187.0660  176.6390  140.5130 C   0  0  0  0  0  0  0  0  0  0  0  0
  186.6920  177.1650  139.1630 C   0  0  0  0  0  1  0  0  0  0  0  0
  187.8140  176.0540  143.4040 C   0  0  0  0  0  3  0  0  0  0  0  0
  186.9700  177.8430  147.2860 C   0  0  0  0  0  3  0  0  0  0  0  0
  184.9560  178.2270  143.6940 C   0  0  0  0  0  0  0  0  0  0  0  0
  184.0700  178.8400  145.1180 S   0  0  0  0  0  0  0  0  0  0  0  0
  187.8620  175.4090  140.4460 C   0  0  0  0  0  3  0  0  0  0  0  0
  187.2120  177.2340  146.1320 C   0  0  0  0  0  3  0  0  0  0  0  0
  188.6570  174.9030  141.3720 C   0  0  0  0  0  3  0  0  0  0  0  0
  186.5050  177.1810  141.6230 C   0  0  0  0  0  0  0  0  0  0  0  0
  191.1070  174.3940  142.4700 C   0  0  0  0  0  1  0  0  0  0  0  0
  190.0810  175.0510  143.3890 C   0  0  2  0  0  3  0  0  0  0  0  0
  189.7090  174.0550  144.4890 C   0  0  0  0  0  2  0  0  0  0  0  0
  190.1680  174.5420  145.8210 C   0  0  0  0  0  0  0  0  0  0  0  0
  189.3100  174.4940  146.9120 O   0  0  0  0  0  1  0  0  0  0  0  0
  191.3250  175.0200  145.9510 O   0  0  0  0  0  0  0  0  0  0  0  0
  1  4  1  0  0  0  0
  2 12  2  0  0  0  0
  2  1  1  0  0  0  0
  3 14  1  0  0  0  0
  4  8  1  0  0  0  0
  4 17  1  0  0  0  0
  5 21  1  0  0  0  0
  5 12  1  0  0  0  0
  7 19  1  0  0  0  0
  7  3  2  0  0  0  0
  8 15  1  6  0  0  0
  8  9  1  0  0  0  0
  9  6  2  0  0  0  0
 10 19  2  0  0  0  0
 11 10  1  0  0  0  0
 13  9  1  0  0  0  0
 14  1  2  0  0  0  0
 14 15  1  0  0  0  0
 16 10  1  0  0  0  0
 16 18  2  0  0  0  0
 17 13  2  0  0  0  0
 18  5  1  0  0  0  0
 19  2  1  0  0  0  0
 21 20  1  6  0  0  0
 21 22  1  0  0  0  0
 22 23  1  0  0  0  0
 23 25  2  0  0  0  0
 23 24  1  0  0  0  0
M  END
>  <MODEL>
6

>  <REMARK>
 VINA RESULT:      -6.5      2.514      5.057
  Name = 
  3 active torsions:
  status: ('A' for Active; 'I' for Inactive)
    1  A    between atoms: C_2  and  C_15
    2  A    between atoms: N_6  and  C_25
    3  A    between atoms: C_15  and  C_25
                            x       y       z     vdW  Elec       q    Type
                         _______ _______ _______ _____ _____    ______ ____

>  <TORSDO>
F 3

$$$$
=
 OpenBabel11052417383D

 25 28  0  0  1  0  0  0  0  0999 V2000
  187.8820  176.1160  144.6980 C   0  0  0  0  0  0  0  0  0  0  0  0
  189.1330  175.5020  144.4650 C   0  0  0  0  0  0  0  0  0  0  0  0
  187.4370  176.2530  142.3590 C   0  0  0  0  0  3  0  0  0  0  0  0
  187.3530  176.4740  145.9710 N   0  0  0  0  0  0  0  0  0  0  0  0
  191.2860  174.9120  145.5900 N   0  0  0  0  0  0  0  0  0  0  0  0
  184.9300  178.7660  147.0520 O   0  0  0  0  0  0  0  0  0  0  0  0
  188.6130  175.6180  142.1190 N   0  0  0  0  0  0  0  0  0  0  0  0
  185.9550  176.8780  145.9110 C   0  0  1  0  0  3  0  0  0  0  0  0
  185.9410  178.0600  146.8050 C   0  0  0  0  0  0  0  0  0  0  0  0
  190.5190  174.4340  142.7000 C   0  0  0  0  0  0  0  0  0  0  0  0
  190.7460  174.2040  141.2390 C   0  0  0  0  0  1  0  0  0  0  0  0
  189.9310  175.3720  145.5350 C   0  0  0  0  0  3  0  0  0  0  0  0
  187.2560  178.2680  147.3890 C   0  0  0  0  0  3  0  0  0  0  0  0
  187.0560  176.4760  143.6670 C   0  0  0  0  0  0  0  0  0  0  0  0
  185.5680  177.3250  144.1700 S   0  0  0  0  0  0  0  0  0  0  0  0
  191.3730  173.5980  143.5490 C   0  0  0  0  0  3  0  0  0  0  0  0
  188.0500  177.3380  146.8750 C   0  0  0  0  0  3  0  0  0  0  0  0
  191.7090  173.7960  144.8120 C   0  0  0  0  0  3  0  0  0  0  0  0
  189.4670  175.1900  143.1040 C   0  0  0  0  0  0  0  0  0  0  0  0
  191.1220  175.3780  148.0210 C   0  0  0  0  0  1  0  0  0  0  0  0
  192.0450  175.2020  146.8190 C   0  0  2  0  0  3  0  0  0  0  0  0
  192.8930  176.4660  146.6710 C   0  0  0  0  0  2  0  0  0  0  0  0
  194.1650  176.1690  145.9540 C   0  0  0  0  0  0  0  0  0  0  0  0
  194.4120  176.7400  144.7120 O   0  0  0  0  0  0  0  0  0  0  0  0
  195.0040  175.3810  146.4610 O   0  0  0  0  0  1  0  0  0  0  0  0
  1  4  1  0  0  0  0
  2  1  1  0  0  0  0
  2 12  2  0  0  0  0
  3 14  1  0  0  0  0
  4 17  1  0  0  0  0
  5 21  1  0  0  0  0
  7  3  2  0  0  0  0
  7 19  1  0  0  0  0
  8 15  1  6  0  0  0
  8  4  1  0  0  0  0
  8  9  1  0  0  0  0
  9  6  2  0  0  0  0
  9 13  1  0  0  0  0
 10 19  2  0  0  0  0
 10 16  1  0  0  0  0
 11 10  1  0  0  0  0
 12  5  1  0  0  0  0
 14 15  1  0  0  0  0
 14  1  2  0  0  0  0
 16 18  2  0  0  0  0
 17 13  2  0  0  0  0
 18  5  1  0  0  0  0
 19  2  1  0  0  0  0
 21 20  1  1  0  0  0
 22 21  1  0  0  0  0
 23 25  1  0  0  0  0
 23 22  1  0  0  0  0
 24 23  2  0  0  0  0
M  END
>  <MODEL>
7

>  <REMARK>
 VINA RESULT:      -6.5      2.775      5.262
  Name = 
  3 active torsions:
  status: ('A' for Active; 'I' for Inactive)
    1  A    between atoms: C_2  and  C_15
    2  A    between atoms: N_6  and  C_25
    3  A    between atoms: C_15  and  C_25
                            x       y       z     vdW  Elec       q    Type
                         _______ _______ _______ _____ _____    ______ ____

>  <TORSDO>
F 3

$$$$
=
 OpenBabel11052417383D

 25 28  0  0  1  0  0  0  0  0999 V2000
  191.2540  175.9410  143.7250 C   0  0  0  0  0  0  0  0  0  0  0  0
  189.8710  176.0020  143.4410 C   0  0  0  0  0  0  0  0  0  0  0  0
  191.6340  174.4630  141.8920 C   0  0  0  0  0  3  0  0  0  0  0  0
  191.9100  176.5760  144.8180 N   0  0  0  0  0  0  0  0  0  0  0  0
  187.6820  176.7130  144.4170 N   0  0  0  0  0  0  0  0  0  0  0  0
  194.9300  176.0220  146.5110 O   0  0  0  0  0  0  0  0  0  0  0  0
  190.3170  174.5510  141.5750 N   0  0  0  0  0  0  0  0  0  0  0  0
  193.3620  176.5190  144.7180 C   0  0  1  0  0  3  0  0  0  0  0  0
  193.7490  176.1920  146.1110 C   0  0  0  0  0  0  0  0  0  0  0  0
  188.1730  175.4180  141.7240 C   0  0  0  0  0  0  0  0  0  0  0  0
  187.8350  174.6290  140.4970 C   0  0  0  0  0  1  0  0  0  0  0  0
  189.1090  176.6080  144.3640 C   0  0  0  0  0  3  0  0  0  0  0  0
  192.5730  176.1350  146.9630 C   0  0  0  0  0  3  0  0  0  0  0  0
  192.1100  175.1920  142.9620 C   0  0  0  0  0  0  0  0  0  0  0  0
  193.7980  175.1710  143.5460 S   0  0  0  0  0  0  0  0  0  0  0  0
  187.1440  176.4060  142.0680 C   0  0  0  0  0  3  0  0  0  0  0  0
  191.5260  176.3500  146.1780 C   0  0  0  0  0  3  0  0  0  0  0  0
  186.9260  176.9790  143.2390 C   0  0  0  0  0  3  0  0  0  0  0  0
  189.4120  175.3170  142.2660 C   0  0  0  0  0  0  0  0  0  0  0  0
  187.7670  176.4140  146.8790 C   0  0  0  0  0  1  0  0  0  0  0  0
  187.0850  177.1100  145.7040 C   0  0  2  0  0  3  0  0  0  0  0  0
  185.5900  176.7900  145.7530 C   0  0  0  0  0  2  0  0  0  0  0  0
  184.8080  177.9810  146.1880 C   0  0  0  0  0  0  0  0  0  0  0  0
  184.7190  178.2990  147.5380 O   0  0  0  0  0  1  0  0  0  0  0  0
  184.2060  178.6850  145.3360 O   0  0  0  0  0  0  0  0  0  0  0  0
  1  4  1  0  0  0  0
  2  1  1  0  0  0  0
  2 12  2  0  0  0  0
  3 14  1  0  0  0  0
  4 17  1  0  0  0  0
  5 21  1  0  0  0  0
  7  3  2  0  0  0  0
  7 19  1  0  0  0  0
  8 15  1  6  0  0  0
  8  4  1  0  0  0  0
  8  9  1  0  0  0  0
  9  6  2  0  0  0  0
  9 13  1  0  0  0  0
 10 16  1  0  0  0  0
 10 19  2  0  0  0  0
 11 10  1  0  0  0  0
 12  5  1  0  0  0  0
 14 15  1  0  0  0  0
 14  1  2  0  0  0  0
 16 18  2  0  0  0  0
 17 13  2  0  0  0  0
 18  5  1  0  0  0  0
 19  2  1  0  0  0  0
 21 22  1  0  0  0  0
 21 20  1  1  0  0  0
 22 23  1  0  0  0  0
 23 24  1  0  0  0  0
 25 23  2  0  0  0  0
M  END
>  <MODEL>
8

>  <REMARK>
 VINA RESULT:      -6.5      3.540      6.821
  Name = 
  3 active torsions:
  status: ('A' for Active; 'I' for Inactive)
    1  A    between atoms: C_2  and  C_15
    2  A    between atoms: N_6  and  C_25
    3  A    between atoms: C_15  and  C_25
                            x       y       z     vdW  Elec       q    Type
                         _______ _______ _______ _____ _____    ______ ____

>  <TORSDO>
F 3

$$$$
=
 OpenBabel11052417383D

 25 28  0  0  1  0  0  0  0  0999 V2000
  188.7450  175.8950  145.0760 C   0  0  0  0  0  0  0  0  0  0  0  0
  187.5990  176.7170  145.1590 C   0  0  0  0  0  0  0  0  0  0  0  0
  189.6250  176.8040  147.0980 C   0  0  0  0  0  3  0  0  0  0  0  0
  189.0480  174.9900  144.0190 N   0  0  0  0  0  0  0  0  0  0  0  0
  185.6570  177.5420  143.8180 N   0  0  0  0  0  0  0  0  0  0  0  0
  192.0020  173.5230  142.8300 O   0  0  0  0  0  0  0  0  0  0  0  0
  188.5070  177.5630  147.2190 N   0  0  0  0  0  0  0  0  0  0  0  0
  190.1770  174.1210  144.3220 C   0  0  1  0  0  3  0  0  0  0  0  0
  190.9230  174.1320  143.0420 C   0  0  0  0  0  0  0  0  0  0  0  0
  186.3560  178.2380  146.6800 C   0  0  0  0  0  0  0  0  0  0  0  0
  186.3680  179.0620  147.9300 C   0  0  0  0  0  1  0  0  0  0  0  0
  186.8050  176.7260  144.0780 C   0  0  0  0  0  3  0  0  0  0  0  0
  190.2090  174.9170  142.0480 C   0  0  0  0  0  3  0  0  0  0  0  0
  189.7290  175.9380  146.0280 C   0  0  0  0  0  0  0  0  0  0  0  0
  191.1370  174.8940  145.6870 S   0  0  0  0  0  0  0  0  0  0  0  0
  185.0190  178.1170  146.0900 C   0  0  0  0  0  3  0  0  0  0  0  0
  189.1350  175.4080  142.6530 C   0  0  0  0  0  3  0  0  0  0  0  0
  184.7050  177.8090  144.8430 C   0  0  0  0  0  3  0  0  0  0  0  0
  187.4630  177.5380  146.3280 C   0  0  0  0  0  0  0  0  0  0  0  0
  186.3330  177.8480  141.4500 C   0  0  0  0  0  1  0  0  0  0  0  0
  185.1820  177.6100  142.4240 C   0  0  2  0  0  3  0  0  0  0  0  0
  184.1500  178.7230  142.2350 C   0  0  0  0  0  2  0  0  0  0  0  0
  183.0700  178.2910  141.3040 C   0  0  0  0  0  0  0  0  0  0  0  0
  181.7490  178.2750  141.7320 O   0  0  0  0  0  1  0  0  0  0  0  0
  183.3570  177.9160  140.1380 O   0  0  0  0  0  0  0  0  0  0  0  0
  1  2  1  0  0  0  0
  1 14  2  0  0  0  0
  2 19  1  0  0  0  0
  3  7  2  0  0  0  0
  4  8  1  0  0  0  0
  4  1  1  0  0  0  0
  5 12  1  0  0  0  0
  5 18  1  0  0  0  0
  6  9  2  0  0  0  0
  8  9  1  6  0  0  0
  8 15  1  0  0  0  0
 10 11  1  0  0  0  0
 12  2  2  0  0  0  0
 13 17  2  0  0  0  0
 13  9  1  0  0  0  0
 14  3  1  0  0  0  0
 15 14  1  0  0  0  0
 16 10  1  0  0  0  0
 17  4  1  0  0  0  0
 18 16  2  0  0  0  0
 19 10  2  0  0  0  0
 19  7  1  0  0  0  0
 21 20  1  6  0  0  0
 21  5  1  0  0  0  0
 22 21  1  0  0  0  0
 23 24  1  0  0  0  0
 23 22  1  0  0  0  0
 25 23  2  0  0  0  0
M  END
>  <MODEL>
9

>  <REMARK>
 VINA RESULT:      -6.4      2.760      5.804
  Name = 
  3 active torsions:
  status: ('A' for Active; 'I' for Inactive)
    1  A    between atoms: C_2  and  C_15
    2  A    between atoms: N_6  and  C_25
    3  A    between atoms: C_15  and  C_25
                            x       y       z     vdW  Elec       q    Type
                         _______ _______ _______ _____ _____    ______ ____

>  <TORSDO>
F 3

$$$$
