=
 OpenBabel11052417293D

 25 29  0  0  1  0  0  0  0  0999 V2000
  186.2690  177.8540  143.7340 C   0  0  0  0  0  0  0  0  0  0  0  0
  185.6880  177.8770  142.4630 C   0  0  0  0  0  0  0  0  0  0  0  0
  188.4750  177.5010  142.8010 C   0  0  0  0  0  3  0  0  0  0  0  0
  185.6470  177.7690  145.0760 C   0  0  1  0  0  3  0  0  0  0  0  0
  185.3540  178.3460  147.8890 C   0  0  0  0  0  2  0  0  0  0  0  0
  187.9230  177.5650  141.5120 C   0  0  0  0  0  3  0  0  0  0  0  0
  186.8330  178.0890  145.9610 C   0  0  1  0  0  3  0  0  0  0  0  0
  186.5630  177.5540  147.3490 C   0  0  0  0  0  2  0  0  0  0  0  0
  185.9800  177.7950  140.0450 C   0  0  0  0  0  0  0  0  0  0  0  0
  186.7660  177.6830  138.9450 F   0  0  0  0  0  0  0  0  0  0  0  0
  184.3090  178.0200  142.2900 C   0  0  0  0  0  3  0  0  0  0  0  0
  184.1430  178.3430  146.9210 C   0  0  0  0  0  2  0  0  0  0  0  0
  187.6230  177.6430  143.8960 C   0  0  0  0  0  0  0  0  0  0  0  0
  188.0110  177.5900  145.2630 N   0  0  0  0  0  2  0  0  0  0  0  0
  184.5980  177.9490  139.8860 C   0  0  0  0  0  3  0  0  0  0  0  0
  184.5290  178.7110  145.4740 C   0  0  0  0  0  2  0  0  0  0  0  0
  183.7590  178.0570  141.0020 C   0  0  0  0  0  0  0  0  0  0  0  0
  186.5370  177.7530  141.3310 C   0  0  0  0  0  0  0  0  0  0  0  0
  182.3540  178.2180  140.8050 N   0  0  0  0  0  2  0  0  0  0  0  0
  181.2950  178.9790  142.0020 S   0  0  0  0  0  0  0  0  0  0  0  0
  178.4100  177.3230  140.0410 N   0  0  0  0  0  0  0  0  0  0  0  0
  179.5340  178.0190  140.0840 N   0  0  0  0  0  0  0  0  0  0  0  0
  178.0080  176.9890  141.2590 N   0  0  0  0  0  2  0  0  0  0  0  0
  179.8530  178.1250  141.3820 C   0  0  0  0  0  0  0  0  0  0  0  0
  178.9010  177.4820  142.1400 C   0  0  0  0  0  3  0  0  0  0  0  0
  1 13  1  0  0  0  0
  1  4  1  0  0  0  0
  2  1  2  0  0  0  0
  3 13  2  0  0  0  0
  4 16  1  6  0  0  0
  4  7  1  0  0  0  0
  6  3  1  0  0  0  0
  7  8  1  1  0  0  0
  8  5  1  0  0  0  0
  9 18  1  0  0  0  0
 10  9  1  0  0  0  0
 11  2  1  0  0  0  0
 12  5  1  0  0  0  0
 13 14  1  0  0  0  0
 14  7  1  0  0  0  0
 15  9  2  0  0  0  0
 15 17  1  0  0  0  0
 16 12  1  0  0  0  0
 17 11  2  0  0  0  0
 18  6  2  0  0  0  0
 18  2  1  0  0  0  0
 19 17  1  0  0  0  0
 19 20  1  0  0  0  0
 21 22  2  0  0  0  0
 21 23  1  0  0  0  0
 22 24  1  0  0  0  0
 23 25  1  0  0  0  0
 24 20  1  0  0  0  0
 24 25  2  0  0  0  0
M  END
>  <MODEL>
1

>  <REMARK>
 VINA RESULT:      -8.0      0.000      0.000
  Name = 
  3 active torsions:
  status: ('A' for Active; 'I' for Inactive)
    1  A    between atoms: N_6  and  S_15
    2  A    between atoms: N_6  and  C_23
    3  A    between atoms: S_15  and  C_21
                            x       y       z     vdW  Elec       q    Type
                         _______ _______ _______ _____ _____    ______ ____

>  <TORSDO>
F 3

$$$$
=
 OpenBabel11052417293D

 25 29  0  0  1  0  0  0  0  0999 V2000
  185.6400  177.6810  143.9290 C   0  0  0  0  0  0  0  0  0  0  0  0
  186.2910  177.2590  145.0930 C   0  0  0  0  0  0  0  0  0  0  0  0
  183.8730  178.7310  145.2070 C   0  0  0  0  0  3  0  0  0  0  0  0
  185.8620  177.3070  142.5130 C   0  0  1  0  0  3  0  0  0  0  0  0
  186.0240  177.7420  139.6640 C   0  0  0  0  0  2  0  0  0  0  0  0
  184.5290  178.3580  146.3920 C   0  0  0  0  0  3  0  0  0  0  0  0
  185.0220  178.3510  141.8070 C   0  0  1  0  0  3  0  0  0  0  0  0
  184.6850  177.8490  140.4210 C   0  0  0  0  0  2  0  0  0  0  0  0
  186.3790  177.2330  147.5280 C   0  0  0  0  0  0  0  0  0  0  0  0
  185.8730  177.5710  148.7400 F   0  0  0  0  0  0  0  0  0  0  0  0
  187.4610  176.4970  145.0440 C   0  0  0  0  0  3  0  0  0  0  0  0
  187.0940  176.9230  140.4320 C   0  0  0  0  0  2  0  0  0  0  0  0
  184.4490  178.3740  143.9890 C   0  0  0  0  0  0  0  0  0  0  0  0
  183.9140  178.6580  142.7020 N   0  0  0  0  0  2  0  0  0  0  0  0
  187.5560  176.4790  147.4630 C   0  0  0  0  0  3  0  0  0  0  0  0
  187.2470  177.3650  141.9020 C   0  0  0  0  0  2  0  0  0  0  0  0
  188.0970  176.1050  146.2280 C   0  0  0  0  0  0  0  0  0  0  0  0
  185.7340  177.6260  146.3460 C   0  0  0  0  0  0  0  0  0  0  0  0
  189.3020  175.3390  146.1970 N   0  0  0  0  0  2  0  0  0  0  0  0
  190.5350  175.4310  147.4640 S   0  0  0  0  0  0  0  0  0  0  0  0
  192.6030  177.0740  144.6460 N   0  0  0  0  0  0  0  0  0  0  0  0
  191.4470  176.6990  145.1690 N   0  0  0  0  0  0  0  0  0  0  0  0
  193.6140  176.7530  145.4410 N   0  0  0  0  0  2  0  0  0  0  0  0
  191.7440  176.1210  146.3420 C   0  0  0  0  0  0  0  0  0  0  0  0
  193.1080  176.1440  146.5310 C   0  0  0  0  0  3  0  0  0  0  0  0
  1 13  2  0  0  0  0
  1  2  1  0  0  0  0
  2 18  1  0  0  0  0
  3  6  2  0  0  0  0
  4 16  1  6  0  0  0
  4  1  1  0  0  0  0
  5  8  1  0  0  0  0
  5 12  1  0  0  0  0
  7  8  1  6  0  0  0
  7  4  1  0  0  0  0
  7 14  1  0  0  0  0
  9 10  1  0  0  0  0
 11  2  2  0  0  0  0
 11 17  1  0  0  0  0
 12 16  1  0  0  0  0
 13  3  1  0  0  0  0
 14 13  1  0  0  0  0
 15  9  1  0  0  0  0
 17 15  2  0  0  0  0
 18  6  1  0  0  0  0
 18  9  2  0  0  0  0
 19 17  1  0  0  0  0
 19 20  1  0  0  0  0
 21 22  2  0  0  0  0
 21 23  1  0  0  0  0
 22 24  1  0  0  0  0
 23 25  1  0  0  0  0
 24 25  2  0  0  0  0
 24 20  1  0  0  0  0
M  END
>  <MODEL>
2

>  <REMARK>
 VINA RESULT:      -8.0      4.093      8.733
  Name = 
  3 active torsions:
  status: ('A' for Active; 'I' for Inactive)
    1  A    between atoms: N_6  and  S_15
    2  A    between atoms: N_6  and  C_23
    3  A    between atoms: S_15  and  C_21
                            x       y       z     vdW  Elec       q    Type
                         _______ _______ _______ _____ _____    ______ ____

>  <TORSDO>
F 3

$$$$
=
 OpenBabel11052417293D

 25 29  0  0  1  0  0  0  0  0999 V2000
  187.5070  176.4560  144.5970 C   0  0  0  0  0  0  0  0  0  0  0  0
  186.3720  177.2110  144.9090 C   0  0  0  0  0  0  0  0  0  0  0  0
  188.2140  176.4210  146.9120 C   0  0  0  0  0  3  0  0  0  0  0  0
  188.1140  176.1280  143.2850 C   0  0  1  0  0  3  0  0  0  0  0  0
  189.4710  174.4760  141.3460 C   0  0  0  0  0  2  0  0  0  0  0  0
  187.0590  177.1410  147.2590 C   0  0  0  0  0  3  0  0  0  0  0  0
  189.1080  175.0610  143.6910 C   0  0  1  0  0  3  0  0  0  0  0  0
  190.1790  174.9630  142.6270 C   0  0  0  0  0  2  0  0  0  0  0  0
  184.9920  178.2760  146.6120 C   0  0  0  0  0  0  0  0  0  0  0  0
  184.7370  178.6010  147.9040 F   0  0  0  0  0  0  0  0  0  0  0  0
  185.4820  177.6400  143.9220 C   0  0  0  0  0  3  0  0  0  0  0  0
  188.2310  175.3290  140.9740 C   0  0  0  0  0  2  0  0  0  0  0  0
  188.4160  176.0970  145.5710 C   0  0  0  0  0  0  0  0  0  0  0  0
  189.5320  175.3880  145.0460 N   0  0  0  0  0  2  0  0  0  0  0  0
  184.1040  178.6900  145.6140 C   0  0  0  0  0  3  0  0  0  0  0  0
  187.2750  175.5510  142.1640 C   0  0  0  0  0  2  0  0  0  0  0  0
  184.3450  178.3800  144.2700 C   0  0  0  0  0  0  0  0  0  0  0  0
  186.1350  177.5380  146.2700 C   0  0  0  0  0  0  0  0  0  0  0  0
  183.4160  178.8140  143.2760 N   0  0  0  0  0  2  0  0  0  0  0  0
  183.4750  178.2590  141.5960 S   0  0  0  0  0  0  0  0  0  0  0  0
  179.7310  179.2040  141.6890 N   0  0  0  0  0  0  0  0  0  0  0  0
  180.9480  179.2290  142.2090 N   0  0  0  0  0  2  0  0  0  0  0  0
  179.7120  178.5230  140.5530 N   0  0  0  0  0  0  0  0  0  0  0  0
  181.7240  178.5360  141.3640 C   0  0  0  0  0  0  0  0  0  0  0  0
  180.9620  178.0810  140.3120 C   0  0  0  0  0  3  0  0  0  0  0  0
  1  2  2  0  0  0  0
  1 13  1  0  0  0  0
  2 18  1  0  0  0  0
  3  6  1  0  0  0  0
  4 16  1  6  0  0  0
  4  7  1  0  0  0  0
  4  1  1  0  0  0  0
  5  8  1  0  0  0  0
  7  8  1  6  0  0  0
  7 14  1  0  0  0  0
  9 10  1  0  0  0  0
 11 17  2  0  0  0  0
 11  2  1  0  0  0  0
 12  5  1  0  0  0  0
 12 16  1  0  0  0  0
 13  3  2  0  0  0  0
 14 13  1  0  0  0  0
 15  9  2  0  0  0  0
 17 15  1  0  0  0  0
 18  9  1  0  0  0  0
 18  6  2  0  0  0  0
 19 17  1  0  0  0  0
 20 19  1  0  0  0  0
 21 22  1  0  0  0  0
 23 21  2  0  0  0  0
 24 20  1  0  0  0  0
 24 22  1  0  0  0  0
 25 23  1  0  0  0  0
 25 24  2  0  0  0  0
M  END
>  <MODEL>
3

>  <REMARK>
 VINA RESULT:      -7.8      2.679      4.748
  Name = 
  3 active torsions:
  status: ('A' for Active; 'I' for Inactive)
    1  A    between atoms: N_6  and  S_15
    2  A    between atoms: N_6  and  C_23
    3  A    between atoms: S_15  and  C_21
                            x       y       z     vdW  Elec       q    Type
                         _______ _______ _______ _____ _____    ______ ____

>  <TORSDO>
F 3

$$$$
=
 OpenBabel11052417293D

 25 29  0  0  1  0  0  0  0  0999 V2000
  185.6510  177.6690  143.9540 C   0  0  0  0  0  0  0  0  0  0  0  0
  186.3200  177.2260  145.0990 C   0  0  0  0  0  0  0  0  0  0  0  0
  183.8890  178.6690  145.2770 C   0  0  0  0  0  3  0  0  0  0  0  0
  185.8600  177.3300  142.5260 C   0  0  1  0  0  3  0  0  0  0  0  0
  185.9840  177.8340  139.6870 C   0  0  0  0  0  2  0  0  0  0  0  0
  184.5630  178.2750  146.4450 C   0  0  0  0  0  3  0  0  0  0  0  0
  185.0010  178.3820  141.8560 C   0  0  1  0  0  3  0  0  0  0  0  0
  184.6530  177.9100  140.4620 C   0  0  0  0  0  2  0  0  0  0  0  0
  186.4380  177.1430  147.5320 C   0  0  0  0  0  0  0  0  0  0  0  0
  185.9430  177.4470  148.7580 F   0  0  0  0  0  0  0  0  0  0  0  0
  187.4970  176.4770  145.0180 C   0  0  0  0  0  3  0  0  0  0  0  0
  187.0700  177.0080  140.4230 C   0  0  0  0  0  2  0  0  0  0  0  0
  184.4540  178.3480  144.0440 C   0  0  0  0  0  0  0  0  0  0  0  0
  183.9010  178.6570  142.7700 N   0  0  0  0  0  2  0  0  0  0  0  0
  187.6210  176.4020  147.4360 C   0  0  0  0  0  3  0  0  0  0  0  0
  187.2360  177.4160  141.9010 C   0  0  0  0  0  2  0  0  0  0  0  0
  188.1510  176.0630  146.1850 C   0  0  0  0  0  0  0  0  0  0  0  0
  185.7740  177.5570  146.3670 C   0  0  0  0  0  0  0  0  0  0  0  0
  189.3630  175.3100  146.1220 N   0  0  0  0  0  2  0  0  0  0  0  0
  190.5000  175.4280  144.7710 S   0  0  0  0  0  0  0  0  0  0  0  0
  189.3110  171.9170  143.6880 N   0  0  0  0  0  0  0  0  0  0  0  0
  189.8690  172.7330  144.5680 N   0  0  0  0  0  2  0  0  0  0  0  0
  188.9510  172.5690  142.5930 N   0  0  0  0  0  0  0  0  0  0  0  0
  189.8570  173.9480  144.0010 C   0  0  0  0  0  0  0  0  0  0  0  0
  189.2830  173.8650  142.7530 C   0  0  0  0  0  3  0  0  0  0  0  0
  1 13  2  0  0  0  0
  1  2  1  0  0  0  0
  2 18  1  0  0  0  0
  3  6  2  0  0  0  0
  4 16  1  6  0  0  0
  4  1  1  0  0  0  0
  5 12  1  0  0  0  0
  5  8  1  0  0  0  0
  7  8  1  6  0  0  0
  7  4  1  0  0  0  0
  7 14  1  0  0  0  0
  9 10  1  0  0  0  0
 11  2  2  0  0  0  0
 11 17  1  0  0  0  0
 12 16  1  0  0  0  0
 13  3  1  0  0  0  0
 14 13  1  0  0  0  0
 15  9  1  0  0  0  0
 17 15  2  0  0  0  0
 18  6  1  0  0  0  0
 18  9  2  0  0  0  0
 19 17  1  0  0  0  0
 20 19  1  0  0  0  0
 21 22  1  0  0  0  0
 23 25  1  0  0  0  0
 23 21  2  0  0  0  0
 24 22  1  0  0  0  0
 24 20  1  0  0  0  0
 25 24  2  0  0  0  0
M  END
>  <MODEL>
4

>  <REMARK>
 VINA RESULT:      -7.8      3.985      7.850
  Name = 
  3 active torsions:
  status: ('A' for Active; 'I' for Inactive)
    1  A    between atoms: N_6  and  S_15
    2  A    between atoms: N_6  and  C_23
    3  A    between atoms: S_15  and  C_21
                            x       y       z     vdW  Elec       q    Type
                         _______ _______ _______ _____ _____    ______ ____

>  <TORSDO>
F 3

$$$$
=
 OpenBabel11052417293D

 25 29  0  0  1  0  0  0  0  0999 V2000
  186.9550  176.8160  143.6850 C   0  0  0  0  0  0  0  0  0  0  0  0
  188.1250  176.0510  143.7190 C   0  0  0  0  0  0  0  0  0  0  0  0
  186.9360  176.8170  141.2650 C   0  0  0  0  0  3  0  0  0  0  0  0
  186.2560  177.5540  144.7630 C   0  0  1  0  0  3  0  0  0  0  0  0
  183.9780  178.5690  146.2160 C   0  0  0  0  0  2  0  0  0  0  0  0
  188.0860  176.0110  141.2700 C   0  0  0  0  0  3  0  0  0  0  0  0
  184.9450  177.8810  144.0800 C   0  0  1  0  0  3  0  0  0  0  0  0
  184.3060  179.0540  144.7890 C   0  0  0  0  0  2  0  0  0  0  0  0
  189.8470  174.8370  142.4950 C   0  0  0  0  0  0  0  0  0  0  0  0
  190.4040  174.4100  141.3340 F   0  0  0  0  0  0  0  0  0  0  0  0
  188.7410  175.7050  144.9250 C   0  0  0  0  0  3  0  0  0  0  0  0
  185.1940  177.9310  146.9370 C   0  0  0  0  0  2  0  0  0  0  0  0
  186.3950  177.2100  142.4880 C   0  0  0  0  0  0  0  0  0  0  0  0
  185.2470  178.0330  142.6630 N   0  0  0  0  0  2  0  0  0  0  0  0
  190.4470  174.4900  143.7100 C   0  0  0  0  0  3  0  0  0  0  0  0
  185.9160  176.8760  146.0740 C   0  0  0  0  0  2  0  0  0  0  0  0
  189.9030  174.9240  144.9240 C   0  0  0  0  0  0  0  0  0  0  0  0
  188.6860  175.6230  142.4870 C   0  0  0  0  0  0  0  0  0  0  0  0
  190.5370  174.5480  146.1480 N   0  0  0  0  0  2  0  0  0  0  0  0
  191.2160  175.7250  147.2820 S   0  0  0  0  0  0  0  0  0  0  0  0
  194.5660  174.6900  145.6630 N   0  0  0  0  0  0  0  0  0  0  0  0
  193.3220  174.4240  146.0270 N   0  0  0  0  0  2  0  0  0  0  0  0
  194.9060  175.9280  145.9920 N   0  0  0  0  0  0  0  0  0  0  0  0
  192.8610  175.5420  146.6060 C   0  0  0  0  0  0  0  0  0  0  0  0
  193.8460  176.5020  146.5950 C   0  0  0  0  0  3  0  0  0  0  0  0
  1  2  1  0  0  0  0
  1  4  1  0  0  0  0
  2 11  1  0  0  0  0
  3  6  2  0  0  0  0
  3 13  1  0  0  0  0
  4 16  1  1  0  0  0
  5 12  1  0  0  0  0
  6 18  1  0  0  0  0
  7  4  1  0  0  0  0
  7  8  1  1  0  0  0
  8  5  1  0  0  0  0
  9 15  2  0  0  0  0
 10  9  1  0  0  0  0
 13 14  1  0  0  0  0
 13  1  2  0  0  0  0
 14  7  1  0  0  0  0
 15 17  1  0  0  0  0
 16 12  1  0  0  0  0
 17 11  2  0  0  0  0
 17 19  1  0  0  0  0
 18  9  1  0  0  0  0
 18  2  2  0  0  0  0
 19 20  1  0  0  0  0
 21 23  2  0  0  0  0
 21 22  1  0  0  0  0
 22 24  1  0  0  0  0
 23 25  1  0  0  0  0
 24 20  1  0  0  0  0
 25 24  2  0  0  0  0
M  END
>  <MODEL>
5

>  <REMARK>
 VINA RESULT:      -7.7      4.374      8.573
  Name = 
  3 active torsions:
  status: ('A' for Active; 'I' for Inactive)
    1  A    between atoms: N_6  and  S_15
    2  A    between atoms: N_6  and  C_23
    3  A    between atoms: S_15  and  C_21
                            x       y       z     vdW  Elec       q    Type
                         _______ _______ _______ _____ _____    ______ ____

>  <TORSDO>
F 3

$$$$
=
 OpenBabel11052417293D

 25 29  0  0  1  0  0  0  0  0999 V2000
  186.7290  177.7920  144.1480 C   0  0  0  0  0  0  0  0  0  0  0  0
  188.0370  177.5080  144.5540 C   0  0  0  0  0  0  0  0  0  0  0  0
  185.9930  178.0460  146.4400 C   0  0  0  0  0  3  0  0  0  0  0  0
  186.0810  177.6540  142.8230 C   0  0  1  0  0  3  0  0  0  0  0  0
  184.3170  178.3900  140.6600 C   0  0  0  0  0  2  0  0  0  0  0  0
  187.3080  177.8090  146.8730 C   0  0  0  0  0  3  0  0  0  0  0  0
  184.7910  178.4100  143.0570 C   0  0  1  0  0  3  0  0  0  0  0  0
  183.7700  177.9590  142.0360 C   0  0  0  0  0  2  0  0  0  0  0  0
  189.6430  177.2810  146.3730 C   0  0  0  0  0  0  0  0  0  0  0  0
  189.9570  177.3070  147.6920 F   0  0  0  0  0  0  0  0  0  0  0  0
  189.0410  177.2010  143.6320 C   0  0  0  0  0  3  0  0  0  0  0  0
  185.7720  177.9160  140.4090 C   0  0  0  0  0  2  0  0  0  0  0  0
  185.7310  178.0270  145.0710 C   0  0  0  0  0  0  0  0  0  0  0  0
  184.4610  178.2330  144.4650 N   0  0  0  0  0  2  0  0  0  0  0  0
  190.6400  176.9840  145.4370 C   0  0  0  0  0  3  0  0  0  0  0  0
  186.7200  178.2400  141.5810 C   0  0  0  0  0  2  0  0  0  0  0  0
  190.3450  176.9380  144.0700 C   0  0  0  0  0  0  0  0  0  0  0  0
  188.3340  177.5410  145.9420 C   0  0  0  0  0  0  0  0  0  0  0  0
  191.3860  176.6370  143.1400 N   0  0  0  0  0  2  0  0  0  0  0  0
  192.1830  175.0580  143.0650 S   0  0  0  0  0  0  0  0  0  0  0  0
  195.3120  176.6870  144.6380 N   0  0  0  0  0  0  0  0  0  0  0  0
  194.0510  176.2920  144.7060 N   0  0  0  0  0  2  0  0  0  0  0  0
  195.8330  176.4190  143.4490 N   0  0  0  0  0  0  0  0  0  0  0  0
  193.7690  175.7520  143.5110 C   0  0  0  0  0  0  0  0  0  0  0  0
  194.8810  175.8250  142.7030 C   0  0  0  0  0  3  0  0  0  0  0  0
  1  2  2  0  0  0  0
  1 13  1  0  0  0  0
  2 18  1  0  0  0  0
  3  6  1  0  0  0  0
  4 16  1  6  0  0  0
  4  7  1  0  0  0  0
  4  1  1  0  0  0  0
  5  8  1  0  0  0  0
  7  8  1  6  0  0  0
  7 14  1  0  0  0  0
  9 10  1  0  0  0  0
 11 17  2  0  0  0  0
 11  2  1  0  0  0  0
 12  5  1  0  0  0  0
 12 16  1  0  0  0  0
 13  3  2  0  0  0  0
 14 13  1  0  0  0  0
 15  9  2  0  0  0  0
 17 15  1  0  0  0  0
 18  9  1  0  0  0  0
 18  6  2  0  0  0  0
 19 17  1  0  0  0  0
 20 19  1  0  0  0  0
 20 24  1  0  0  0  0
 21 22  1  0  0  0  0
 23 21  2  0  0  0  0
 24 22  1  0  0  0  0
 25 23  1  0  0  0  0
 25 24  2  0  0  0  0
M  END
>  <MODEL>
6

>  <REMARK>
 VINA RESULT:      -7.6      4.569      9.198
  Name = 
  3 active torsions:
  status: ('A' for Active; 'I' for Inactive)
    1  A    between atoms: N_6  and  S_15
    2  A    between atoms: N_6  and  C_23
    3  A    between atoms: S_15  and  C_21
                            x       y       z     vdW  Elec       q    Type
                         _______ _______ _______ _____ _____    ______ ____

>  <TORSDO>
F 3

$$$$
=
 OpenBabel11052417293D

 25 29  0  0  1  0  0  0  0  0999 V2000
  186.5950  177.7310  144.1100 C   0  0  0  0  0  0  0  0  0  0  0  0
  187.9010  177.3670  144.4560 C   0  0  0  0  0  0  0  0  0  0  0  0
  185.9800  178.0210  146.4330 C   0  0  0  0  0  3  0  0  0  0  0  0
  185.8810  177.6370  142.8150 C   0  0  1  0  0  3  0  0  0  0  0  0
  184.0690  178.4860  140.7340 C   0  0  0  0  0  2  0  0  0  0  0  0
  187.2960  177.7020  146.8050 C   0  0  0  0  0  3  0  0  0  0  0  0
  184.6510  178.4690  143.1080 C   0  0  1  0  0  3  0  0  0  0  0  0
  183.5600  178.0840  142.1340 C   0  0  0  0  0  2  0  0  0  0  0  0
  189.5700  177.0360  146.2000 C   0  0  0  0  0  0  0  0  0  0  0  0
  189.9440  177.0380  147.5040 F   0  0  0  0  0  0  0  0  0  0  0  0
  188.8410  177.0020  143.4890 C   0  0  0  0  0  3  0  0  0  0  0  0
  185.4800  177.9260  140.4170 C   0  0  0  0  0  2  0  0  0  0  0  0
  185.6560  178.0220  145.0770 C   0  0  0  0  0  0  0  0  0  0  0  0
  184.3740  178.3070  144.5290 N   0  0  0  0  0  2  0  0  0  0  0  0
  190.5030  176.6830  145.2200 C   0  0  0  0  0  3  0  0  0  0  0  0
  186.4980  178.1880  141.5460 C   0  0  0  0  0  2  0  0  0  0  0  0
  190.1450  176.6600  143.8670 C   0  0  0  0  0  0  0  0  0  0  0  0
  188.2600  177.3760  145.8290 C   0  0  0  0  0  0  0  0  0  0  0  0
  191.1240  176.2990  142.8910 N   0  0  0  0  0  2  0  0  0  0  0  0
  191.8930  174.7060  142.8410 S   0  0  0  0  0  0  0  0  0  0  0  0
  188.6230  172.6940  142.4190 N   0  0  0  0  0  0  0  0  0  0  0  0
  189.6680  173.0730  143.1370 N   0  0  0  0  0  2  0  0  0  0  0  0
  188.6430  173.2510  141.2160 N   0  0  0  0  0  0  0  0  0  0  0  0
  190.3720  173.9030  142.3530 C   0  0  0  0  0  0  0  0  0  0  0  0
  189.7410  174.0270  141.1360 C   0  0  0  0  0  3  0  0  0  0  0  0
  1  2  2  0  0  0  0
  1 13  1  0  0  0  0
  2 18  1  0  0  0  0
  3  6  1  0  0  0  0
  4 16  1  6  0  0  0
  4  7  1  0  0  0  0
  4  1  1  0  0  0  0
  5  8  1  0  0  0  0
  7  8  1  6  0  0  0
  7 14  1  0  0  0  0
  9 10  1  0  0  0  0
 11 17  2  0  0  0  0
 11  2  1  0  0  0  0
 12  5  1  0  0  0  0
 12 16  1  0  0  0  0
 13  3  2  0  0  0  0
 14 13  1  0  0  0  0
 15  9  2  0  0  0  0
 17 15  1  0  0  0  0
 18  9  1  0  0  0  0
 18  6  2  0  0  0  0
 19 17  1  0  0  0  0
 20 19  1  0  0  0  0
 21 22  1  0  0  0  0
 23 21  2  0  0  0  0
 24 20  1  0  0  0  0
 24 22  1  0  0  0  0
 25 23  1  0  0  0  0
 25 24  2  0  0  0  0
M  END
>  <MODEL>
7

>  <REMARK>
 VINA RESULT:      -7.6      4.259      7.529
  Name = 
  3 active torsions:
  status: ('A' for Active; 'I' for Inactive)
    1  A    between atoms: N_6  and  S_15
    2  A    between atoms: N_6  and  C_23
    3  A    between atoms: S_15  and  C_21
                            x       y       z     vdW  Elec       q    Type
                         _______ _______ _______ _____ _____    ______ ____

>  <TORSDO>
F 3

$$$$
=
 OpenBabel11052417293D

 25 29  0  0  1  0  0  0  0  0999 V2000
  186.4150  177.0250  144.0030 C   0  0  0  0  0  0  0  0  0  0  0  0
  187.5480  176.3140  144.4110 C   0  0  0  0  0  0  0  0  0  0  0  0
  185.7240  177.3880  146.2940 C   0  0  0  0  0  3  0  0  0  0  0  0
  185.8020  177.1700  142.6620 C   0  0  1  0  0  3  0  0  0  0  0  0
  184.4420  178.5440  140.5180 C   0  0  0  0  0  2  0  0  0  0  0  0
  186.8770  176.7170  146.7320 C   0  0  0  0  0  3  0  0  0  0  0  0
  184.8160  178.2900  142.9190 C   0  0  1  0  0  3  0  0  0  0  0  0
  183.7400  178.2450  141.8580 C   0  0  0  0  0  2  0  0  0  0  0  0
  188.9330  175.4890  146.2380 C   0  0  0  0  0  0  0  0  0  0  0  0
  189.1950  175.3460  147.5620 F   0  0  0  0  0  0  0  0  0  0  0  0
  188.4290  175.7450  143.4880 C   0  0  0  0  0  3  0  0  0  0  0  0
  185.6740  177.6380  140.2620 C   0  0  0  0  0  2  0  0  0  0  0  0
  185.5160  177.5230  144.9220 C   0  0  0  0  0  0  0  0  0  0  0  0
  184.4000  178.1590  144.3090 N   0  0  0  0  0  2  0  0  0  0  0  0
  189.8120  174.9330  145.3020 C   0  0  0  0  0  3  0  0  0  0  0  0
  186.6360  177.5800  141.4660 C   0  0  0  0  0  2  0  0  0  0  0  0
  189.5640  175.0530  143.9300 C   0  0  0  0  0  0  0  0  0  0  0  0
  187.7920  176.1790  145.8030 C   0  0  0  0  0  0  0  0  0  0  0  0
  190.4840  174.4790  143.0010 N   0  0  0  0  0  2  0  0  0  0  0  0
  190.7140  172.7320  142.8290 S   0  0  0  0  0  0  0  0  0  0  0  0
  188.1950  172.7840  139.9020 N   0  0  0  0  0  0  0  0  0  0  0  0
  188.4840  172.9090  141.1880 N   0  0  0  0  0  2  0  0  0  0  0  0
  189.2770  172.4900  139.1970 N   0  0  0  0  0  0  0  0  0  0  0  0
  189.8020  172.6860  141.2930 C   0  0  0  0  0  0  0  0  0  0  0  0
  190.3200  172.4180  140.0470 C   0  0  0  0  0  3  0  0  0  0  0  0
  1  2  2  0  0  0  0
  1 13  1  0  0  0  0
  2 18  1  0  0  0  0
  3  6  1  0  0  0  0
  4 16  1  6  0  0  0
  4  7  1  0  0  0  0
  4  1  1  0  0  0  0
  5  8  1  0  0  0  0
  7  8  1  6  0  0  0
  7 14  1  0  0  0  0
  9 10  1  0  0  0  0
 11 17  2  0  0  0  0
 11  2  1  0  0  0  0
 12  5  1  0  0  0  0
 12 16  1  0  0  0  0
 13  3  2  0  0  0  0
 14 13  1  0  0  0  0
 15  9  2  0  0  0  0
 17 15  1  0  0  0  0
 18  9  1  0  0  0  0
 18  6  2  0  0  0  0
 19 17  1  0  0  0  0
 20 19  1  0  0  0  0
 21 22  1  0  0  0  0
 22 24  1  0  0  0  0
 23 21  2  0  0  0  0
 23 25  1  0  0  0  0
 24 20  1  0  0  0  0
 25 24  2  0  0  0  0
M  END
>  <MODEL>
8

>  <REMARK>
 VINA RESULT:      -7.5      4.544      7.594
  Name = 
  3 active torsions:
  status: ('A' for Active; 'I' for Inactive)
    1  A    between atoms: N_6  and  S_15
    2  A    between atoms: N_6  and  C_23
    3  A    between atoms: S_15  and  C_21
                            x       y       z     vdW  Elec       q    Type
                         _______ _______ _______ _____ _____    ______ ____

>  <TORSDO>
F 3

$$$$
=
 OpenBabel11052417293D

 25 29  0  0  1  0  0  0  0  0999 V2000
  191.9960  176.5290  145.1060 C   0  0  0  0  0  0  0  0  0  0  0  0
  190.6580  176.9190  144.9900 C   0  0  0  0  0  0  0  0  0  0  0  0
  191.7890  176.2580  147.5020 C   0  0  0  0  0  3  0  0  0  0  0  0
  193.1060  176.5950  144.1260 C   0  0  1  0  0  3  0  0  0  0  0  0
  195.4950  175.6890  142.7820 C   0  0  0  0  0  2  0  0  0  0  0  0
  190.4310  176.6040  147.4080 C   0  0  0  0  0  3  0  0  0  0  0  0
  194.1490  175.7460  144.8210 C   0  0  1  0  0  3  0  0  0  0  0  0
  195.5120  176.1000  144.2680 C   0  0  0  0  0  2  0  0  0  0  0  0
  188.5070  177.3000  146.0690 C   0  0  0  0  0  0  0  0  0  0  0  0
  187.7160  177.3200  147.1700 F   0  0  0  0  0  0  0  0  0  0  0  0
  190.1050  177.2870  143.7610 C   0  0  0  0  0  3  0  0  0  0  0  0
  194.2840  176.2680  142.0050 C   0  0  0  0  0  2  0  0  0  0  0  0
  192.5500  176.2340  146.3340 C   0  0  0  0  0  0  0  0  0  0  0  0
  193.9350  175.9210  146.2510 N   0  0  0  0  0  2  0  0  0  0  0  0
  187.9640  177.6560  144.8290 C   0  0  0  0  0  3  0  0  0  0  0  0
  192.9410  176.0380  142.7270 C   0  0  0  0  0  2  0  0  0  0  0  0
  188.7570  177.6560  143.6760 C   0  0  0  0  0  0  0  0  0  0  0  0
  189.8570  176.9330  146.1620 C   0  0  0  0  0  0  0  0  0  0  0  0
  188.1710  178.0200  142.4250 N   0  0  0  0  0  2  0  0  0  0  0  0
  187.5640  176.8300  141.2640 S   0  0  0  0  0  0  0  0  0  0  0  0
  184.0950  178.4180  140.6610 N   0  0  0  0  0  0  0  0  0  0  0  0
  185.2720  178.0000  140.2240 N   0  0  0  0  0  0  0  0  0  0  0  0
  183.9760  178.2250  141.9670 N   0  0  0  0  0  2  0  0  0  0  0  0
  185.9170  177.5230  141.2990 C   0  0  0  0  0  0  0  0  0  0  0  0
  185.1150  177.6590  142.4090 C   0  0  0  0  0  3  0  0  0  0  0  0
  1 13  1  0  0  0  0
  2  1  2  0  0  0  0
  2 18  1  0  0  0  0
  4 16  1  6  0  0  0
  4  7  1  0  0  0  0
  4  1  1  0  0  0  0
  5  8  1  0  0  0  0
  6  3  1  0  0  0  0
  7  8  1  6  0  0  0
  7 14  1  0  0  0  0
  9 18  1  0  0  0  0
  9 10  1  0  0  0  0
 11  2  1  0  0  0  0
 12 16  1  0  0  0  0
 12  5  1  0  0  0  0
 13  3  2  0  0  0  0
 14 13  1  0  0  0  0
 15  9  2  0  0  0  0
 17 11  2  0  0  0  0
 17 15  1  0  0  0  0
 18  6  2  0  0  0  0
 19 17  1  0  0  0  0
 20 24  1  0  0  0  0
 20 19  1  0  0  0  0
 21 23  1  0  0  0  0
 22 21  2  0  0  0  0
 22 24  1  0  0  0  0
 23 25  1  0  0  0  0
 24 25  2  0  0  0  0
M  END
>  <MODEL>
9

>  <REMARK>
 VINA RESULT:      -7.4      4.596      7.187
  Name = 
  3 active torsions:
  status: ('A' for Active; 'I' for Inactive)
    1  A    between atoms: N_6  and  S_15
    2  A    between atoms: N_6  and  C_23
    3  A    between atoms: S_15  and  C_21
                            x       y       z     vdW  Elec       q    Type
                         _______ _______ _______ _____ _____    ______ ____

>  <TORSDO>
F 3

$$$$
