=
 OpenBabel11052419003D

 34 38  0  0  1  0  0  0  0  0999 V2000
  185.5310  178.1360  144.9110 C   0  0  0  0  0  0  0  0  0  0  0  0
  186.7980  177.0870  146.6960 C   0  0  0  0  0  0  0  0  0  0  0  0
  187.6360  177.0530  144.3110 C   0  0  0  0  0  0  0  0  0  0  0  0
  189.8230  176.2790  143.5330 C   0  0  0  0  0  0  0  0  0  0  0  0
  184.6540  178.6800  145.8500 C   0  0  0  0  0  3  0  0  0  0  0  0
  185.9030  177.6330  147.6230 C   0  0  0  0  0  3  0  0  0  0  0  0
  189.6930  177.3960  145.7730 C   0  0  0  0  0  2  0  0  0  0  0  0
  186.6950  177.4360  145.3180 C   0  0  0  0  0  0  0  0  0  0  0  0
  190.9900  176.6800  146.1310 C   0  0  0  0  0  2  0  0  0  0  0  0
  191.2400  175.8450  143.7840 C   0  0  0  0  0  2  0  0  0  0  0  0
  184.8610  178.4590  147.2080 C   0  0  0  0  0  3  0  0  0  0  0  0
  187.1950  177.0560  142.9550 C   0  0  0  0  0  0  0  0  0  0  0  0
  185.2150  178.2290  143.5630 C   0  0  0  0  0  3  0  0  0  0  0  0
  187.7590  175.7340  147.2880 Cl  0  0  0  0  0  0  0  0  0  0  0  0
  189.3090  176.1110  142.2550 C   0  0  0  0  0  3  0  0  0  0  0  0
  188.0100  176.5150  141.9340 C   0  0  0  0  0  0  0  0  0  0  0  0
  191.8960  176.6470  144.9070 C   0  0  2  0  0  3  0  0  0  0  0  0
  189.0110  176.7940  144.5660 C   0  0  0  0  0  0  0  0  0  0  0  0
  186.0190  177.6600  142.6340 N   0  0  0  0  0  0  0  0  0  0  0  0
  187.5580  175.1420  138.4280 C   0  0  0  0  0  0  0  0  0  0  0  0
  186.6500  176.0610  137.9030 C   0  0  0  0  0  3  0  0  0  0  0  0
  187.5530  176.3670  140.5250 C   0  0  0  0  0  0  0  0  0  0  0  0
  186.2080  177.0920  138.6720 N   0  0  0  0  0  0  0  0  0  0  0  0
  188.0040  175.2940  139.7400 C   0  0  0  0  0  3  0  0  0  0  0  0
  186.6320  177.2590  139.9530 C   0  0  0  0  0  3  0  0  0  0  0  0
  188.0430  174.0070  137.5980 C   0  0  0  0  0  1  0  0  0  0  0  0
  193.2090  176.1020  145.2400 N   0  0  0  0  0  0  0  0  0  0  0  0
  196.5530  175.8480  143.9760 O   0  0  0  0  0  1  0  0  0  0  0  0
  194.2280  176.1960  144.4430 C   0  0  0  0  0  3  0  0  0  0  0  0
  195.4990  175.6460  144.8000 N   0  0  0  0  0  0  0  0  0  0  0  0
  195.7090  174.9450  146.0610 C   0  0  0  0  0  2  0  0  0  0  0  0
  197.2910  173.4130  147.0020 F   0  0  0  0  0  0  0  0  0  0  0  0
  196.5600  173.6950  145.8620 C   0  0  1  0  0  3  0  0  0  0  0  0
  195.7520  172.6060  145.5370 O   0  0  0  0  0  1  0  0  0  0  0  0
  1  8  1  0  0  0  0
  1  5  2  0  0  0  0
  2 14  1  0  0  0  0
  2  6  1  0  0  0  0
  3 18  1  0  0  0  0
  3  8  1  0  0  0  0
  4 10  1  0  0  0  0
  4 18  2  0  0  0  0
  5 11  1  0  0  0  0
  7  9  1  0  0  0  0
  8  2  2  0  0  0  0
 10 17  1  0  0  0  0
 11  6  2  0  0  0  0
 12  3  2  0  0  0  0
 13  1  1  0  0  0  0
 15  4  1  0  0  0  0
 16 15  2  0  0  0  0
 16 12  1  0  0  0  0
 17 27  1  1  0  0  0
 17  9  1  0  0  0  0
 18  7  1  0  0  0  0
 19 12  1  0  0  0  0
 19 13  2  0  0  0  0
 20 24  1  0  0  0  0
 21 20  2  0  0  0  0
 21 23  1  0  0  0  0
 22 16  1  0  0  0  0
 23 25  2  0  0  0  0
 24 22  2  0  0  0  0
 25 22  1  0  0  0  0
 26 20  1  0  0  0  0
 28 30  1  0  0  0  0
 29 30  1  0  0  0  0
 29 27  2  0  0  0  0
 30 31  1  0  0  0  0
 33 34  1  1  0  0  0
 33 31  1  0  0  0  0
 33 32  1  0  0  0  0
M  END
>  <MODEL>
1

>  <REMARK>
 VINA RESULT:      -8.6      0.000      0.000
  Name = 
  4 active torsions:
  status: ('A' for Active; 'I' for Inactive)
    1  A    between atoms: N_3  and  C_29
    2  A    between atoms: C_12  and  C_28
    3  A    between atoms: C_20  and  C_22
    4  A    between atoms: C_22  and  N_33
                            x       y       z     vdW  Elec       q    Type
                         _______ _______ _______ _____ _____    ______ ____

>  <TORSDO>
F 4

$$$$
=
 OpenBabel11052419003D

 34 38  0  0  1  0  0  0  0  0999 V2000
  191.1750  176.2830  145.6820 C   0  0  0  0  0  0  0  0  0  0  0  0
  191.8690  174.0980  144.8850 C   0  0  0  0  0  0  0  0  0  0  0  0
  189.9360  175.3230  143.8090 C   0  0  0  0  0  0  0  0  0  0  0  0
  188.7470  174.6850  141.7680 C   0  0  0  0  0  0  0  0  0  0  0  0
  192.2890  176.3340  146.5210 C   0  0  0  0  0  3  0  0  0  0  0  0
  192.9750  174.1620  145.7390 C   0  0  0  0  0  3  0  0  0  0  0  0
  191.2010  174.1960  141.9060 C   0  0  0  0  0  2  0  0  0  0  0  0
  191.0080  175.2260  144.7520 C   0  0  0  0  0  0  0  0  0  0  0  0
  190.9790  173.1250  140.8450 C   0  0  0  0  0  2  0  0  0  0  0  0
  188.6090  173.8630  140.5180 C   0  0  0  0  0  2  0  0  0  0  0  0
  193.2090  175.2890  146.5220 C   0  0  0  0  0  3  0  0  0  0  0  0
  188.8950  176.2570  144.0810 C   0  0  0  0  0  0  0  0  0  0  0  0
  190.1890  177.2510  145.8150 C   0  0  0  0  0  3  0  0  0  0  0  0
  191.4530  172.4840  144.3150 Cl  0  0  0  0  0  0  0  0  0  0  0  0
  187.6630  175.4610  142.1580 C   0  0  0  0  0  3  0  0  0  0  0  0
  187.7210  176.2740  143.2930 C   0  0  0  0  0  0  0  0  0  0  0  0
  189.9560  173.6270  139.8350 C   0  0  2  0  0  3  0  0  0  0  0  0
  189.9130  174.6400  142.5610 C   0  0  0  0  0  0  0  0  0  0  0  0
  189.0710  177.1930  145.0530 N   0  0  0  0  0  0  0  0  0  0  0  0
  184.8930  177.9370  145.1950 C   0  0  0  0  0  0  0  0  0  0  0  0
  184.3770  178.7790  144.2100 C   0  0  0  0  0  3  0  0  0  0  0  0
  186.5450  177.1310  143.6080 C   0  0  0  0  0  0  0  0  0  0  0  0
  184.9360  178.7960  142.9710 N   0  0  0  0  0  0  0  0  0  0  0  0
  185.9790  177.1170  144.8920 C   0  0  0  0  0  3  0  0  0  0  0  0
  185.9950  178.0030  142.6560 C   0  0  0  0  0  3  0  0  0  0  0  0
  184.2920  177.9150  146.5550 C   0  0  0  0  0  1  0  0  0  0  0  0
  189.8190  172.6960  138.7190 N   0  0  0  0  0  0  0  0  0  0  0  0
  189.8490  169.1940  137.9550 O   0  0  0  0  0  1  0  0  0  0  0  0
  189.9400  171.4130  138.8590 C   0  0  0  0  0  3  0  0  0  0  0  0
  189.8050  170.5290  137.7420 N   0  0  0  0  0  0  0  0  0  0  0  0
  189.5400  171.0250  136.3970 C   0  0  0  0  0  2  0  0  0  0  0  0
  190.8330  169.8220  134.7780 F   0  0  0  0  0  0  0  0  0  0  0  0
  190.7970  170.9790  135.5350 C   0  0  1  0  0  3  0  0  0  0  0  0
  190.8490  172.0940  134.6970 O   0  0  0  0  0  1  0  0  0  0  0  0
  1 13  1  0  0  0  0
  1  5  2  0  0  0  0
  2  6  1  0  0  0  0
  3 12  1  0  0  0  0
  3  8  1  0  0  0  0
  4 15  2  0  0  0  0
  4 18  1  0  0  0  0
  5 11  1  0  0  0  0
  6 11  2  0  0  0  0
  7 18  1  0  0  0  0
  8  2  2  0  0  0  0
  8  1  1  0  0  0  0
  9  7  1  0  0  0  0
 10  4  1  0  0  0  0
 12 19  1  0  0  0  0
 14  2  1  0  0  0  0
 15 16  1  0  0  0  0
 16 22  1  0  0  0  0
 16 12  2  0  0  0  0
 17 27  1  6  0  0  0
 17 10  1  0  0  0  0
 17  9  1  0  0  0  0
 18  3  2  0  0  0  0
 19 13  2  0  0  0  0
 20 26  1  0  0  0  0
 21 20  2  0  0  0  0
 22 24  2  0  0  0  0
 23 21  1  0  0  0  0
 24 20  1  0  0  0  0
 25 23  2  0  0  0  0
 25 22  1  0  0  0  0
 27 29  2  0  0  0  0
 30 28  1  0  0  0  0
 30 29  1  0  0  0  0
 31 30  1  0  0  0  0
 32 33  1  0  0  0  0
 33 34  1  6  0  0  0
 33 31  1  0  0  0  0
M  END
>  <MODEL>
2

>  <REMARK>
 VINA RESULT:      -8.5      4.516      7.397
  Name = 
  4 active torsions:
  status: ('A' for Active; 'I' for Inactive)
    1  A    between atoms: N_3  and  C_29
    2  A    between atoms: C_12  and  C_28
    3  A    between atoms: C_20  and  C_22
    4  A    between atoms: C_22  and  N_33
                            x       y       z     vdW  Elec       q    Type
                         _______ _______ _______ _____ _____    ______ ____

>  <TORSDO>
F 4

$$$$
=
 OpenBabel11052419003D

 34 38  0  0  1  0  0  0  0  0999 V2000
  191.3060  173.0860  139.7120 C   0  0  0  0  0  0  0  0  0  0  0  0
  188.9740  173.0290  140.3790 C   0  0  0  0  0  0  0  0  0  0  0  0
  190.6810  174.3200  141.7240 C   0  0  0  0  0  0  0  0  0  0  0  0
  190.2370  175.8370  143.5920 C   0  0  0  0  0  0  0  0  0  0  0  0
  190.9840  172.4360  138.5200 C   0  0  0  0  0  3  0  0  0  0  0  0
  188.6700  172.3690  139.1840 C   0  0  0  0  0  3  0  0  0  0  0  0
  188.5650  175.7390  141.7280 C   0  0  0  0  0  2  0  0  0  0  0  0
  190.2940  173.5130  140.6090 C   0  0  0  0  0  0  0  0  0  0  0  0
  187.5350  176.2750  142.7140 C   0  0  0  0  0  2  0  0  0  0  0  0
  189.3050  176.6510  144.4440 C   0  0  0  0  0  2  0  0  0  0  0  0
  189.6600  172.1100  138.2390 C   0  0  0  0  0  3  0  0  0  0  0  0
  192.0610  174.3410  142.0820 C   0  0  0  0  0  0  0  0  0  0  0  0
  192.6430  173.2530  140.0460 C   0  0  0  0  0  3  0  0  0  0  0  0
  187.7560  172.8870  141.6450 Cl  0  0  0  0  0  0  0  0  0  0  0  0
  191.5480  175.6840  144.0270 C   0  0  0  0  0  3  0  0  0  0  0  0
  192.4830  174.9650  143.2780 C   0  0  0  0  0  0  0  0  0  0  0  0
  188.1980  177.3060  143.6180 C   0  0  2  0  0  3  0  0  0  0  0  0
  189.7980  175.1960  142.4140 C   0  0  0  0  0  0  0  0  0  0  0  0
  192.9840  173.8290  141.2230 N   0  0  0  0  0  0  0  0  0  0  0  0
  195.6540  173.7270  144.9490 C   0  0  0  0  0  0  0  0  0  0  0  0
  196.5310  174.7690  144.6490 C   0  0  0  0  0  3  0  0  0  0  0  0
  193.8860  174.9050  143.7730 C   0  0  0  0  0  0  0  0  0  0  0  0
  196.0940  175.8370  143.9300 N   0  0  0  0  0  0  0  0  0  0  0  0
  194.3340  173.7950  144.5060 C   0  0  0  0  0  3  0  0  0  0  0  0
  194.8100  175.9230  143.4900 C   0  0  0  0  0  3  0  0  0  0  0  0
  196.1230  172.5520  145.7300 C   0  0  0  0  0  1  0  0  0  0  0  0
  187.2170  177.9550  144.4820 N   0  0  0  0  0  0  0  0  0  0  0  0
  183.8420  179.1640  144.4970 O   0  0  0  0  0  1  0  0  0  0  0  0
  186.0310  178.2840  144.0720 C   0  0  0  0  0  3  0  0  0  0  0  0
  185.0960  178.9230  144.9440 N   0  0  0  0  0  0  0  0  0  0  0  0
  185.4300  179.2490  146.3260 C   0  0  0  0  0  2  0  0  0  0  0  0
  184.4510  177.0790  146.5830 F   0  0  0  0  0  0  0  0  0  0  0  0
  184.9440  178.1650  147.2820 C   0  0  1  0  0  3  0  0  0  0  0  0
  185.9840  177.7570  148.1180 O   0  0  0  0  0  1  0  0  0  0  0  0
  1 13  2  0  0  0  0
  1  8  1  0  0  0  0
  2  8  1  0  0  0  0
  2 14  1  0  0  0  0
  3 12  1  0  0  0  0
  3 18  1  0  0  0  0
  4 15  1  0  0  0  0
  4 10  1  0  0  0  0
  5  1  1  0  0  0  0
  6  2  2  0  0  0  0
  7 18  1  0  0  0  0
  7  9  1  0  0  0  0
  8  3  2  0  0  0  0
  9 17  1  0  0  0  0
 11  5  2  0  0  0  0
 11  6  1  0  0  0  0
 12 16  1  0  0  0  0
 13 19  1  0  0  0  0
 16 22  1  0  0  0  0
 16 15  2  0  0  0  0
 17 10  1  0  0  0  0
 17 27  1  1  0  0  0
 18  4  2  0  0  0  0
 19 12  2  0  0  0  0
 20 26  1  0  0  0  0
 21 20  1  0  0  0  0
 22 24  1  0  0  0  0
 23 21  2  0  0  0  0
 24 20  2  0  0  0  0
 25 22  2  0  0  0  0
 25 23  1  0  0  0  0
 28 30  1  0  0  0  0
 29 27  2  0  0  0  0
 29 30  1  0  0  0  0
 30 31  1  0  0  0  0
 31 33  1  0  0  0  0
 33 32  1  6  0  0  0
 33 34  1  0  0  0  0
M  END
>  <MODEL>
3

>  <REMARK>
 VINA RESULT:      -8.2      4.435      8.820
  Name = 
  4 active torsions:
  status: ('A' for Active; 'I' for Inactive)
    1  A    between atoms: N_3  and  C_29
    2  A    between atoms: C_12  and  C_28
    3  A    between atoms: C_20  and  C_22
    4  A    between atoms: C_22  and  N_33
                            x       y       z     vdW  Elec       q    Type
                         _______ _______ _______ _____ _____    ______ ____

>  <TORSDO>
F 4

$$$$
=
 OpenBabel11052419003D

 34 38  0  0  1  0  0  0  0  0999 V2000
  192.2340  176.3460  146.0400 C   0  0  0  0  0  0  0  0  0  0  0  0
  192.9170  174.2800  144.9670 C   0  0  0  0  0  0  0  0  0  0  0  0
  190.7420  175.4100  144.3490 C   0  0  0  0  0  0  0  0  0  0  0  0
  189.2440  174.8090  142.5100 C   0  0  0  0  0  0  0  0  0  0  0  0
  193.4780  176.4330  146.6690 C   0  0  0  0  0  3  0  0  0  0  0  0
  194.1550  174.3780  145.6120 C   0  0  0  0  0  3  0  0  0  0  0  0
  191.7100  174.5120  142.1700 C   0  0  0  0  0  2  0  0  0  0  0  0
  191.9720  175.3400  145.0760 C   0  0  0  0  0  0  0  0  0  0  0  0
  191.3700  173.4960  141.0870 C   0  0  0  0  0  2  0  0  0  0  0  0
  188.9370  174.0590  141.2450 C   0  0  0  0  0  2  0  0  0  0  0  0
  194.4510  175.4690  146.4260 C   0  0  0  0  0  3  0  0  0  0  0  0
  189.7070  176.2380  144.8740 C   0  0  0  0  0  0  0  0  0  0  0  0
  191.2260  177.2210  146.4210 C   0  0  0  0  0  3  0  0  0  0  0  0
  192.5150  172.6760  144.3570 Cl  0  0  0  0  0  0  0  0  0  0  0  0
  188.2000  175.4680  143.1450 C   0  0  0  0  0  3  0  0  0  0  0  0
  188.4100  176.2100  144.3110 C   0  0  0  0  0  0  0  0  0  0  0  0
  190.1480  173.9770  140.3170 C   0  0  2  0  0  3  0  0  0  0  0  0
  190.5370  174.8080  143.0770 C   0  0  0  0  0  0  0  0  0  0  0  0
  189.9940  177.1210  145.8680 N   0  0  0  0  0  0  0  0  0  0  0  0
  185.7300  178.8360  144.8620 C   0  0  0  0  0  0  0  0  0  0  0  0
  185.0580  178.2960  145.9580 C   0  0  0  0  0  3  0  0  0  0  0  0
  187.2560  176.9470  144.8950 C   0  0  0  0  0  0  0  0  0  0  0  0
  185.4730  177.1180  146.4950 N   0  0  0  0  0  0  0  0  0  0  0  0
  186.8260  178.1580  144.3300 C   0  0  0  0  0  3  0  0  0  0  0  0
  186.5400  176.4410  145.9910 C   0  0  0  0  0  3  0  0  0  0  0  0
  185.2820  180.1210  144.2640 C   0  0  0  0  0  1  0  0  0  0  0  0
  189.8730  173.1110  139.1740 N   0  0  0  0  0  0  0  0  0  0  0  0
  189.6930  169.6550  138.2420 O   0  0  0  0  0  1  0  0  0  0  0  0
  189.9550  171.8190  139.2400 C   0  0  0  0  0  3  0  0  0  0  0  0
  189.6830  171.0000  138.0990 N   0  0  0  0  0  0  0  0  0  0  0  0
  189.3160  171.5740  136.8100 C   0  0  0  0  0  2  0  0  0  0  0  0
  190.0410  171.1470  134.5670 F   0  0  0  0  0  0  0  0  0  0  0  0
  190.4800  171.5110  135.8270 C   0  0  1  0  0  3  0  0  0  0  0  0
  191.1260  172.7470  135.7630 O   0  0  0  0  0  1  0  0  0  0  0  0
  1 13  1  0  0  0  0
  1  5  2  0  0  0  0
  2  8  2  0  0  0  0
  2  6  1  0  0  0  0
  3 12  1  0  0  0  0
  3  8  1  0  0  0  0
  4 18  1  0  0  0  0
  4 15  2  0  0  0  0
  6 11  2  0  0  0  0
  7 18  1  0  0  0  0
  8  1  1  0  0  0  0
  9  7  1  0  0  0  0
 10  4  1  0  0  0  0
 11  5  1  0  0  0  0
 12 19  1  0  0  0  0
 14  2  1  0  0  0  0
 15 16  1  0  0  0  0
 16 12  2  0  0  0  0
 16 22  1  0  0  0  0
 17 27  1  6  0  0  0
 17  9  1  0  0  0  0
 17 10  1  0  0  0  0
 18  3  2  0  0  0  0
 19 13  2  0  0  0  0
 20 21  1  0  0  0  0
 21 23  2  0  0  0  0
 22 25  2  0  0  0  0
 24 20  2  0  0  0  0
 24 22  1  0  0  0  0
 25 23  1  0  0  0  0
 26 20  1  0  0  0  0
 27 29  2  0  0  0  0
 30 28  1  0  0  0  0
 30 29  1  0  0  0  0
 31 30  1  0  0  0  0
 33 32  1  6  0  0  0
 33 31  1  0  0  0  0
 34 33  1  0  0  0  0
M  END
>  <MODEL>
4

>  <REMARK>
 VINA RESULT:      -8.1      4.418      7.631
  Name = 
  4 active torsions:
  status: ('A' for Active; 'I' for Inactive)
    1  A    between atoms: N_3  and  C_29
    2  A    between atoms: C_12  and  C_28
    3  A    between atoms: C_20  and  C_22
    4  A    between atoms: C_22  and  N_33
                            x       y       z     vdW  Elec       q    Type
                         _______ _______ _______ _____ _____    ______ ____

>  <TORSDO>
F 4

$$$$
=
 OpenBabel11052419003D

 34 38  0  0  1  0  0  0  0  0999 V2000
  194.1120  173.6430  144.0850 C   0  0  0  0  0  0  0  0  0  0  0  0
  193.4790  175.7480  145.1150 C   0  0  0  0  0  0  0  0  0  0  0  0
  191.9070  174.5420  143.5440 C   0  0  0  0  0  0  0  0  0  0  0  0
  189.5720  175.1080  143.0820 C   0  0  0  0  0  0  0  0  0  0  0  0
  195.2580  173.5960  144.8810 C   0  0  0  0  0  3  0  0  0  0  0  0
  194.6370  175.6890  145.8980 C   0  0  0  0  0  3  0  0  0  0  0  0
  190.4470  175.5030  145.3970 C   0  0  0  0  0  2  0  0  0  0  0  0
  193.1320  174.6500  144.2750 C   0  0  0  0  0  0  0  0  0  0  0  0
  189.3250  176.5180  145.5750 C   0  0  0  0  0  2  0  0  0  0  0  0
  188.3070  175.8600  143.3850 C   0  0  0  0  0  2  0  0  0  0  0  0
  195.5020  174.6000  145.8130 C   0  0  0  0  0  3  0  0  0  0  0  0
  191.8810  173.6690  142.4170 C   0  0  0  0  0  0  0  0  0  0  0  0
  193.9730  172.7260  143.0530 C   0  0  0  0  0  3  0  0  0  0  0  0
  192.7390  177.3410  144.9900 Cl  0  0  0  0  0  0  0  0  0  0  0  0
  189.6380  174.4020  141.8880 C   0  0  0  0  0  3  0  0  0  0  0  0
  190.7680  173.6540  141.5460 C   0  0  0  0  0  0  0  0  0  0  0  0
  188.0690  176.0000  144.8880 C   0  0  2  0  0  3  0  0  0  0  0  0
  190.6860  175.1510  143.9460 C   0  0  0  0  0  0  0  0  0  0  0  0
  192.8990  172.7850  142.2300 N   0  0  0  0  0  0  0  0  0  0  0  0
  191.2680  172.6520  137.9220 C   0  0  0  0  0  0  0  0  0  0  0  0
  190.7290  171.3660  137.9310 C   0  0  0  0  0  3  0  0  0  0  0  0
  190.7370  172.8670  140.2830 C   0  0  0  0  0  0  0  0  0  0  0  0
  190.2180  170.8520  139.0820 N   0  0  0  0  0  0  0  0  0  0  0  0
  191.2750  173.3980  139.1000 C   0  0  0  0  0  3  0  0  0  0  0  0
  190.2150  171.5650  140.2410 C   0  0  0  0  0  3  0  0  0  0  0  0
  191.8340  173.2210  136.6710 C   0  0  0  0  0  1  0  0  0  0  0  0
  186.9270  176.8690  145.1560 N   0  0  0  0  0  0  0  0  0  0  0  0
  185.8220  179.4600  147.3730 O   0  0  0  0  0  1  0  0  0  0  0  0
  186.9010  177.7060  146.1460 C   0  0  0  0  0  3  0  0  0  0  0  0
  185.7640  178.5390  146.3830 N   0  0  0  0  0  0  0  0  0  0  0  0
  184.5760  178.4800  145.5390 C   0  0  0  0  0  2  0  0  0  0  0  0
  185.8070  180.2530  144.5000 F   0  0  0  0  0  0  0  0  0  0  0  0
  184.6620  179.4850  144.3950 C   0  0  1  0  0  3  0  0  0  0  0  0
  184.6480  178.8220  143.1670 O   0  0  0  0  0  1  0  0  0  0  0  0
  1  8  1  0  0  0  0
  1  5  2  0  0  0  0
  2  6  1  0  0  0  0
  3 18  1  0  0  0  0
  3  8  1  0  0  0  0
  4 10  1  0  0  0  0
  4 18  2  0  0  0  0
  5 11  1  0  0  0  0
  7  9  1  0  0  0  0
  8  2  2  0  0  0  0
 10 17  1  0  0  0  0
 11  6  2  0  0  0  0
 12  3  2  0  0  0  0
 13  1  1  0  0  0  0
 14  2  1  0  0  0  0
 15  4  1  0  0  0  0
 16 15  2  0  0  0  0
 16 12  1  0  0  0  0
 17 27  1  6  0  0  0
 17  9  1  0  0  0  0
 18  7  1  0  0  0  0
 19 12  1  0  0  0  0
 19 13  2  0  0  0  0
 20 21  2  0  0  0  0
 20 24  1  0  0  0  0
 21 23  1  0  0  0  0
 22 16  1  0  0  0  0
 23 25  2  0  0  0  0
 24 22  2  0  0  0  0
 25 22  1  0  0  0  0
 26 20  1  0  0  0  0
 27 29  2  0  0  0  0
 29 30  1  0  0  0  0
 30 28  1  0  0  0  0
 31 30  1  0  0  0  0
 33 34  1  6  0  0  0
 33 32  1  0  0  0  0
 33 31  1  0  0  0  0
M  END
>  <MODEL>
5

>  <REMARK>
 VINA RESULT:      -8.0      4.721      7.854
  Name = 
  4 active torsions:
  status: ('A' for Active; 'I' for Inactive)
    1  A    between atoms: N_3  and  C_29
    2  A    between atoms: C_12  and  C_28
    3  A    between atoms: C_20  and  C_22
    4  A    between atoms: C_22  and  N_33
                            x       y       z     vdW  Elec       q    Type
                         _______ _______ _______ _____ _____    ______ ____

>  <TORSDO>
F 4

$$$$
=
 OpenBabel11052419003D

 34 38  0  0  1  0  0  0  0  0999 V2000
  195.0410  172.1930  144.8270 C   0  0  0  0  0  0  0  0  0  0  0  0
  194.6980  174.5420  145.3320 C   0  0  0  0  0  0  0  0  0  0  0  0
  192.8740  173.1620  144.2540 C   0  0  0  0  0  0  0  0  0  0  0  0
  190.5590  173.8440  143.8540 C   0  0  0  0  0  0  0  0  0  0  0  0
  196.2570  172.2210  145.5130 C   0  0  0  0  0  3  0  0  0  0  0  0
  195.9230  174.5540  146.0070 C   0  0  0  0  0  3  0  0  0  0  0  0
  191.7030  174.7020  145.9120 C   0  0  0  0  0  2  0  0  0  0  0  0
  194.1740  173.3150  144.8310 C   0  0  0  0  0  0  0  0  0  0  0  0
  190.6950  175.8440  145.9140 C   0  0  0  0  0  2  0  0  0  0  0  0
  189.4010  174.7790  144.0550 C   0  0  0  0  0  2  0  0  0  0  0  0
  196.6800  173.3910  146.1340 C   0  0  0  0  0  3  0  0  0  0  0  0
  192.6570  172.0460  143.3950 C   0  0  0  0  0  0  0  0  0  0  0  0
  194.7180  171.0690  144.0790 C   0  0  0  0  0  3  0  0  0  0  0  0
  194.0850  176.1250  144.8630 Cl  0  0  0  0  0  0  0  0  0  0  0  0
  190.4390  172.8620  142.8790 C   0  0  0  0  0  3  0  0  0  0  0  0
  191.4600  171.9360  142.6490 C   0  0  0  0  0  0  0  0  0  0  0  0
  189.3340  175.3100  145.4870 C   0  0  2  0  0  3  0  0  0  0  0  0
  191.7580  173.9790  144.5850 C   0  0  0  0  0  0  0  0  0  0  0  0
  193.5710  171.0390  143.3580 N   0  0  0  0  0  0  0  0  0  0  0  0
  191.2290  170.1260  139.3240 C   0  0  0  0  0  0  0  0  0  0  0  0
  190.8540  168.8520  139.7470 C   0  0  0  0  0  3  0  0  0  0  0  0
  191.2300  170.8690  141.6370 C   0  0  0  0  0  0  0  0  0  0  0  0
  190.6810  168.6000  141.0720 N   0  0  0  0  0  0  0  0  0  0  0  0
  191.4210  171.1320  140.2710 C   0  0  0  0  0  3  0  0  0  0  0  0
  190.8620  169.5670  142.0110 C   0  0  0  0  0  3  0  0  0  0  0  0
  191.4260  170.4110  137.8780 C   0  0  0  0  0  1  0  0  0  0  0  0
  188.3040  176.3360  145.6160 N   0  0  0  0  0  0  0  0  0  0  0  0
  186.7710  178.4970  148.0290 O   0  0  0  0  0  1  0  0  0  0  0  0
  188.0030  176.8880  146.7500 C   0  0  0  0  0  3  0  0  0  0  0  0
  186.9840  177.8870  146.8410 N   0  0  0  0  0  0  0  0  0  0  0  0
  186.2260  178.3230  145.6740 C   0  0  0  0  0  2  0  0  0  0  0  0
  184.7640  176.6200  146.5100 F   0  0  0  0  0  0  0  0  0  0  0  0
  184.8290  177.7120  145.6640 C   0  0  1  0  0  3  0  0  0  0  0  0
  183.8830  178.6640  146.0460 O   0  0  0  0  0  1  0  0  0  0  0  0
  1  8  1  0  0  0  0
  1  5  2  0  0  0  0
  2  6  1  0  0  0  0
  3 18  1  0  0  0  0
  3  8  1  0  0  0  0
  4 10  1  0  0  0  0
  4 18  2  0  0  0  0
  5 11  1  0  0  0  0
  6 11  2  0  0  0  0
  7  9  1  0  0  0  0
  8  2  2  0  0  0  0
 10 17  1  0  0  0  0
 12  3  2  0  0  0  0
 13  1  1  0  0  0  0
 14  2  1  0  0  0  0
 15  4  1  0  0  0  0
 16 15  2  0  0  0  0
 16 12  1  0  0  0  0
 17 27  1  6  0  0  0
 17  9  1  0  0  0  0
 18  7  1  0  0  0  0
 19 12  1  0  0  0  0
 19 13  2  0  0  0  0
 20 21  2  0  0  0  0
 20 24  1  0  0  0  0
 21 23  1  0  0  0  0
 22 25  1  0  0  0  0
 22 16  1  0  0  0  0
 23 25  2  0  0  0  0
 24 22  2  0  0  0  0
 26 20  1  0  0  0  0
 27 29  2  0  0  0  0
 29 30  1  0  0  0  0
 30 28  1  0  0  0  0
 31 30  1  0  0  0  0
 33 31  1  0  0  0  0
 33 34  1  1  0  0  0
 33 32  1  0  0  0  0
M  END
>  <MODEL>
6

>  <REMARK>
 VINA RESULT:      -7.9      5.272      8.516
  Name = 
  4 active torsions:
  status: ('A' for Active; 'I' for Inactive)
    1  A    between atoms: N_3  and  C_29
    2  A    between atoms: C_12  and  C_28
    3  A    between atoms: C_20  and  C_22
    4  A    between atoms: C_22  and  N_33
                            x       y       z     vdW  Elec       q    Type
                         _______ _______ _______ _____ _____    ______ ____

>  <TORSDO>
F 4

$$$$
=
 OpenBabel11052419003D

 34 38  0  0  1  0  0  0  0  0999 V2000
  186.7110  177.2250  146.7390 C   0  0  0  0  0  0  0  0  0  0  0  0
  185.7220  178.5510  144.9630 C   0  0  0  0  0  0  0  0  0  0  0  0
  187.6440  176.9760  144.4960 C   0  0  0  0  0  0  0  0  0  0  0  0
  188.5450  176.3650  142.3040 C   0  0  0  0  0  0  0  0  0  0  0  0
  185.7010  177.6360  147.6110 C   0  0  0  0  0  3  0  0  0  0  0  0
  184.7230  178.9590  145.8520 C   0  0  0  0  0  3  0  0  0  0  0  0
  186.0820  176.7890  142.4930 C   0  0  0  0  0  2  0  0  0  0  0  0
  186.6730  177.5680  145.3640 C   0  0  0  0  0  0  0  0  0  0  0  0
  186.0830  177.0700  140.9960 C   0  0  0  0  0  2  0  0  0  0  0  0
  188.4680  176.3320  140.8040 C   0  0  0  0  0  2  0  0  0  0  0  0
  184.6870  178.4740  147.1570 C   0  0  0  0  0  3  0  0  0  0  0  0
  188.7970  176.3880  145.0940 C   0  0  0  0  0  0  0  0  0  0  0  0
  187.7970  176.5280  147.2500 C   0  0  0  0  0  3  0  0  0  0  0  0
  185.9120  179.5620  143.5320 Cl  0  0  0  0  0  0  0  0  0  0  0  0
  189.7360  175.9750  142.9030 C   0  0  0  0  0  3  0  0  0  0  0  0
  189.8780  175.9520  144.2930 C   0  0  0  0  0  0  0  0  0  0  0  0
  187.0400  176.1050  140.3080 C   0  0  2  0  0  3  0  0  0  0  0  0
  187.4690  176.8270  143.0930 C   0  0  0  0  0  0  0  0  0  0  0  0
  188.8180  176.1680  146.4360 N   0  0  0  0  0  0  0  0  0  0  0  0
  193.2710  175.8830  145.9850 C   0  0  0  0  0  0  0  0  0  0  0  0
  193.5370  174.5140  145.9790 C   0  0  0  0  0  3  0  0  0  0  0  0
  191.1600  175.4550  144.8620 C   0  0  0  0  0  0  0  0  0  0  0  0
  192.6370  173.6500  145.4370 N   0  0  0  0  0  0  0  0  0  0  0  0
  192.0810  176.3500  145.4300 C   0  0  0  0  0  3  0  0  0  0  0  0
  191.4710  174.0870  144.8900 C   0  0  0  0  0  3  0  0  0  0  0  0
  194.2460  176.8350  146.5800 C   0  0  0  0  0  1  0  0  0  0  0  0
  186.9650  176.2380  138.8560 N   0  0  0  0  0  0  0  0  0  0  0  0
  188.2660  174.8230  135.8300 O   0  0  0  0  0  1  0  0  0  0  0  0
  187.6720  175.5090  138.0490 C   0  0  0  0  0  3  0  0  0  0  0  0
  187.5770  175.6680  136.6310 N   0  0  0  0  0  0  0  0  0  0  0  0
  186.6980  176.6620  136.0250 C   0  0  0  0  0  2  0  0  0  0  0  0
  184.4860  175.9510  136.6040 F   0  0  0  0  0  0  0  0  0  0  0  0
  185.3900  176.0310  135.5610 C   0  0  1  0  0  3  0  0  0  0  0  0
  184.8400  176.7730  134.5140 O   0  0  0  0  0  1  0  0  0  0  0  0
  1 13  1  0  0  0  0
  1  5  2  0  0  0  0
  2  8  2  0  0  0  0
  2  6  1  0  0  0  0
  3 12  1  0  0  0  0
  3  8  1  0  0  0  0
  4 15  2  0  0  0  0
  4 18  1  0  0  0  0
  6 11  2  0  0  0  0
  7 18  1  0  0  0  0
  8  1  1  0  0  0  0
  9  7  1  0  0  0  0
 10  4  1  0  0  0  0
 11  5  1  0  0  0  0
 12 19  1  0  0  0  0
 14  2  1  0  0  0  0
 15 16  1  0  0  0  0
 16 22  1  0  0  0  0
 16 12  2  0  0  0  0
 17 27  1  6  0  0  0
 17 10  1  0  0  0  0
 17  9  1  0  0  0  0
 18  3  2  0  0  0  0
 19 13  2  0  0  0  0
 20 26  1  0  0  0  0
 21 20  1  0  0  0  0
 22 25  2  0  0  0  0
 22 24  1  0  0  0  0
 23 21  2  0  0  0  0
 24 20  2  0  0  0  0
 25 23  1  0  0  0  0
 28 30  1  0  0  0  0
 29 27  2  0  0  0  0
 30 29  1  0  0  0  0
 31 30  1  0  0  0  0
 33 34  1  6  0  0  0
 33 31  1  0  0  0  0
 33 32  1  0  0  0  0
M  END
>  <MODEL>
7

>  <REMARK>
 VINA RESULT:      -7.9      4.697      8.089
  Name = 
  4 active torsions:
  status: ('A' for Active; 'I' for Inactive)
    1  A    between atoms: N_3  and  C_29
    2  A    between atoms: C_12  and  C_28
    3  A    between atoms: C_20  and  C_22
    4  A    between atoms: C_22  and  N_33
                            x       y       z     vdW  Elec       q    Type
                         _______ _______ _______ _____ _____    ______ ____

>  <TORSDO>
F 4

$$$$
=
 OpenBabel11052419003D

 34 38  0  0  1  0  0  0  0  0999 V2000
  188.9680  175.7210  146.0990 C   0  0  0  0  0  0  0  0  0  0  0  0
  187.8170  176.3440  144.0550 C   0  0  0  0  0  0  0  0  0  0  0  0
  189.9790  175.0340  143.9850 C   0  0  0  0  0  0  0  0  0  0  0  0
  191.0140  174.0130  142.0170 C   0  0  0  0  0  0  0  0  0  0  0  0
  187.8850  176.1810  146.8510 C   0  0  0  0  0  3  0  0  0  0  0  0
  186.7450  176.8080  144.8250 C   0  0  0  0  0  3  0  0  0  0  0  0
  188.5120  174.0670  142.1400 C   0  0  0  0  0  2  0  0  0  0  0  0
  188.9050  175.6720  144.6830 C   0  0  0  0  0  0  0  0  0  0  0  0
  188.5010  173.9340  140.6230 C   0  0  0  0  0  2  0  0  0  0  0  0
  190.9770  173.5680  140.5830 C   0  0  0  0  0  2  0  0  0  0  0  0
  186.7590  176.6910  146.2130 C   0  0  0  0  0  3  0  0  0  0  0  0
  191.1980  174.8220  144.6930 C   0  0  0  0  0  0  0  0  0  0  0  0
  190.1400  175.3720  146.7540 C   0  0  0  0  0  3  0  0  0  0  0  0
  187.8720  176.9520  142.4020 Cl  0  0  0  0  0  0  0  0  0  0  0  0
  192.2390  173.9960  142.6720 C   0  0  0  0  0  3  0  0  0  0  0  0
  192.3520  174.3690  144.0140 C   0  0  0  0  0  0  0  0  0  0  0  0
  189.6170  172.9880  140.1970 C   0  0  2  0  0  3  0  0  0  0  0  0
  189.8610  174.4890  142.6770 C   0  0  0  0  0  0  0  0  0  0  0  0
  191.2240  174.9770  146.0440 N   0  0  0  0  0  0  0  0  0  0  0  0
  195.5100  172.8910  145.5060 C   0  0  0  0  0  0  0  0  0  0  0  0
  196.2080  174.0510  145.8390 C   0  0  0  0  0  3  0  0  0  0  0  0
  193.6850  174.2570  144.6670 C   0  0  0  0  0  0  0  0  0  0  0  0
  195.6600  175.2700  145.5870 N   0  0  0  0  0  0  0  0  0  0  0  0
  194.2520  172.9970  144.9160 C   0  0  0  0  0  3  0  0  0  0  0  0
  194.4320  175.3940  145.0130 C   0  0  0  0  0  3  0  0  0  0  0  0
  196.1040  171.5540  145.7730 C   0  0  0  0  0  1  0  0  0  0  0  0
  189.5540  172.7130  138.7650 N   0  0  0  0  0  0  0  0  0  0  0  0
  189.3730  174.3620  135.5870 O   0  0  0  0  0  1  0  0  0  0  0  0
  189.4510  173.6510  137.8750 C   0  0  0  0  0  3  0  0  0  0  0  0
  189.3880  173.3460  136.4800 N   0  0  0  0  0  0  0  0  0  0  0  0
  189.4200  171.9720  135.9900 C   0  0  0  0  0  2  0  0  0  0  0  0
  191.8040  172.1850  136.0630 F   0  0  0  0  0  0  0  0  0  0  0  0
  190.7580  171.6520  135.3330 C   0  0  1  0  0  3  0  0  0  0  0  0
  190.9200  170.2710  135.2150 O   0  0  0  0  0  1  0  0  0  0  0  0
  1 13  1  0  0  0  0
  1  5  2  0  0  0  0
  2  8  2  0  0  0  0
  2  6  1  0  0  0  0
  3  8  1  0  0  0  0
  3 12  1  0  0  0  0
  4 15  2  0  0  0  0
  4 18  1  0  0  0  0
  6 11  2  0  0  0  0
  7 18  1  0  0  0  0
  8  1  1  0  0  0  0
  9  7  1  0  0  0  0
 10  4  1  0  0  0  0
 11  5  1  0  0  0  0
 12 19  1  0  0  0  0
 14  2  1  0  0  0  0
 15 16  1  0  0  0  0
 16 22  1  0  0  0  0
 16 12  2  0  0  0  0
 17 27  1  6  0  0  0
 17 10  1  0  0  0  0
 17  9  1  0  0  0  0
 18  3  2  0  0  0  0
 19 13  2  0  0  0  0
 20 26  1  0  0  0  0
 20 21  1  0  0  0  0
 22 24  1  0  0  0  0
 22 25  2  0  0  0  0
 23 21  2  0  0  0  0
 24 20  2  0  0  0  0
 25 23  1  0  0  0  0
 28 30  1  0  0  0  0
 29 27  2  0  0  0  0
 30 29  1  0  0  0  0
 31 30  1  0  0  0  0
 33 34  1  1  0  0  0
 33 31  1  0  0  0  0
 33 32  1  0  0  0  0
M  END
>  <MODEL>
8

>  <REMARK>
 VINA RESULT:      -7.8      4.278      7.932
  Name = 
  4 active torsions:
  status: ('A' for Active; 'I' for Inactive)
    1  A    between atoms: N_3  and  C_29
    2  A    between atoms: C_12  and  C_28
    3  A    between atoms: C_20  and  C_22
    4  A    between atoms: C_22  and  N_33
                            x       y       z     vdW  Elec       q    Type
                         _______ _______ _______ _____ _____    ______ ____

>  <TORSDO>
F 4

$$$$
=
 OpenBabel11052419003D

 34 38  0  0  1  0  0  0  0  0999 V2000
  192.9070  174.1840  144.5980 C   0  0  0  0  0  0  0  0  0  0  0  0
  191.8870  176.3490  144.9960 C   0  0  0  0  0  0  0  0  0  0  0  0
  190.9650  174.7790  143.2430 C   0  0  0  0  0  0  0  0  0  0  0  0
  188.8870  175.0460  141.9780 C   0  0  0  0  0  0  0  0  0  0  0  0
  193.7320  174.3650  145.7100 C   0  0  0  0  0  3  0  0  0  0  0  0
  192.7270  176.5180  146.1020 C   0  0  0  0  0  3  0  0  0  0  0  0
  188.9420  175.8650  144.3460 C   0  0  0  0  0  2  0  0  0  0  0  0
  191.8790  175.1110  144.2920 C   0  0  0  0  0  0  0  0  0  0  0  0
  187.7820  176.7850  143.9840 C   0  0  0  0  0  2  0  0  0  0  0  0
  187.5630  175.7130  141.7330 C   0  0  0  0  0  2  0  0  0  0  0  0
  193.6160  175.5160  146.4830 C   0  0  0  0  0  3  0  0  0  0  0  0
  191.3440  173.7480  142.3340 C   0  0  0  0  0  0  0  0  0  0  0  0
  193.1500  173.1130  143.7490 C   0  0  0  0  0  3  0  0  0  0  0  0
  191.1640  177.8290  144.3710 Cl  0  0  0  0  0  0  0  0  0  0  0  0
  189.3680  174.1780  141.0060 C   0  0  0  0  0  3  0  0  0  0  0  0
  190.5770  173.4980  141.1720 C   0  0  0  0  0  0  0  0  0  0  0  0
  186.8420  176.0530  143.0360 C   0  0  2  0  0  3  0  0  0  0  0  0
  189.6560  175.3230  143.1280 C   0  0  0  0  0  0  0  0  0  0  0  0
  192.4020  172.9460  142.6320 N   0  0  0  0  0  0  0  0  0  0  0  0
  190.8960  170.3060  139.1490 C   0  0  0  0  0  0  0  0  0  0  0  0
  191.7270  170.7350  138.1150 C   0  0  0  0  0  3  0  0  0  0  0  0
  190.9920  172.5300  140.1200 C   0  0  0  0  0  0  0  0  0  0  0  0
  192.1670  172.0210  138.0870 N   0  0  0  0  0  0  0  0  0  0  0  0
  190.5270  171.2060  140.1480 C   0  0  0  0  0  3  0  0  0  0  0  0
  191.8190  172.9150  139.0530 C   0  0  0  0  0  3  0  0  0  0  0  0
  190.4050  168.9030  139.1850 C   0  0  0  0  0  1  0  0  0  0  0  0
  185.6400  176.8400  142.7770 N   0  0  0  0  0  0  0  0  0  0  0  0
  184.0790  178.8440  140.2480 O   0  0  0  0  0  1  0  0  0  0  0  0
  185.4550  177.4920  141.6710 C   0  0  0  0  0  3  0  0  0  0  0  0
  184.2670  178.2570  141.4520 N   0  0  0  0  0  0  0  0  0  0  0  0
  183.2180  178.3560  142.4610 C   0  0  0  0  0  2  0  0  0  0  0  0
  181.1860  177.5850  141.4550 F   0  0  0  0  0  0  0  0  0  0  0  0
  181.8790  178.7210  141.8290 C   0  0  1  0  0  3  0  0  0  0  0  0
  181.1120  179.4700  142.7230 O   0  0  0  0  0  1  0  0  0  0  0  0
  1  5  2  0  0  0  0
  2  6  1  0  0  0  0
  3  8  1  0  0  0  0
  4 18  2  0  0  0  0
  5 11  1  0  0  0  0
  6 11  2  0  0  0  0
  8  1  1  0  0  0  0
  8  2  2  0  0  0  0
  9  7  1  0  0  0  0
 10  4  1  0  0  0  0
 10 17  1  0  0  0  0
 12 19  1  0  0  0  0
 12  3  2  0  0  0  0
 13  1  1  0  0  0  0
 14  2  1  0  0  0  0
 15 16  2  0  0  0  0
 15  4  1  0  0  0  0
 16 12  1  0  0  0  0
 17 27  1  6  0  0  0
 17  9  1  0  0  0  0
 18  3  1  0  0  0  0
 18  7  1  0  0  0  0
 19 13  2  0  0  0  0
 20 26  1  0  0  0  0
 20 24  1  0  0  0  0
 21 20  2  0  0  0  0
 22 24  2  0  0  0  0
 22 16  1  0  0  0  0
 23 21  1  0  0  0  0
 23 25  2  0  0  0  0
 25 22  1  0  0  0  0
 28 30  1  0  0  0  0
 29 27  2  0  0  0  0
 30 29  1  0  0  0  0
 30 31  1  0  0  0  0
 33 32  1  1  0  0  0
 33 31  1  0  0  0  0
 33 34  1  0  0  0  0
M  END
>  <MODEL>
9

>  <REMARK>
 VINA RESULT:      -7.7      5.603      8.505
  Name = 
  4 active torsions:
  status: ('A' for Active; 'I' for Inactive)
    1  A    between atoms: N_3  and  C_29
    2  A    between atoms: C_12  and  C_28
    3  A    between atoms: C_20  and  C_22
    4  A    between atoms: C_22  and  N_33
                            x       y       z     vdW  Elec       q    Type
                         _______ _______ _______ _____ _____    ______ ____

>  <TORSDO>
F 4

$$$$
