=
 OpenBabel11052417063D

 30 33  0  0  1  0  0  0  0  0999 V2000
  186.9090  176.8520  143.5650 C   0  0  2  0  0  3  0  0  0  0  0  0
  184.2990  178.0540  145.8660 C   0  0  2  0  0  3  0  0  0  0  0  0
  187.3610  177.4010  147.1250 C   0  0  0  0  0  2  0  0  0  0  0  0
  185.4340  177.2360  143.7160 C   0  0  0  0  0  2  0  0  0  0  0  0
  186.4190  178.5820  147.2370 C   0  0  0  0  0  2  0  0  0  0  0  0
  184.1700  179.1660  146.7250 O   0  0  0  0  0  0  0  0  0  0  0  0
  187.5430  176.3270  144.8550 C   0  0  0  0  0  2  0  0  0  0  0  0
  188.0520  177.4420  145.7640 C   0  0  2  0  0  3  0  0  0  0  0  0
  184.9690  178.1120  147.2050 C   0  0  1  0  0  3  0  0  0  0  0  0
  185.3570  179.6140  144.2580 C   0  0  0  0  0  2  0  0  0  0  0  0
  185.1780  178.3590  144.6750 C   0  0  0  0  0  0  0  0  0  0  0  0
  187.7410  177.9200  142.8420 C   0  0  1  0  0  3  0  0  0  0  0  0
  188.9360  177.3450  142.3660 O   0  0  0  0  0  0  0  0  0  0  0  0
  187.9840  177.6790  141.3840 C   0  0  1  0  0  3  0  0  0  0  0  0
  186.8660  176.6720  139.5360 O   0  0  0  0  0  1  0  0  0  0  0  0
  187.3550  176.4060  140.8140 C   0  0  1  0  0  3  0  0  0  0  0  0
  188.3810  175.2880  140.7330 C   0  0  0  0  0  2  0  0  0  0  0  0
  188.9980  173.6730  142.5040 C   0  0  0  0  0  1  0  0  0  0  0  0
  187.9160  174.0860  141.5300 C   0  0  0  0  0  2  0  0  0  0  0  0
  189.5170  177.4240  145.8560 N   0  0  0  0  0  0  0  0  0  0  0  0
  189.8590  177.6570  147.1460 O   0  0  0  0  0  1  0  0  0  0  0  0
  190.1600  175.8240  145.4190 S   0  0  0  0  0  0  0  0  0  0  0  0
  192.8810  173.8560  144.8400 C   0  0  2  0  0  3  0  0  0  0  0  0
  193.2820  174.9070  146.2860 S   0  0  0  0  0  0  0  0  0  0  0  0
  193.7540  172.6200  144.8630 C   0  0  0  0  0  1  0  0  0  0  0  0
  191.6530  176.4800  144.5790 C   0  0  2  0  0  0  0  0  0  0  0  0
  192.8200  176.5370  145.5670 C   0  0  0  0  0  2  0  0  0  0  0  0
  193.0970  174.6040  143.5400 C   0  0  0  0  0  2  0  0  0  0  0  0
  191.3670  177.9000  144.1290 C   0  0  0  0  0  1  0  0  0  0  0  0
  192.0020  175.6490  143.3330 C   0  0  0  0  0  2  0  0  0  0  0  0
  1  4  1  1  0  0  0
  1  7  1  0  0  0  0
  2 11  1  6  0  0  0
  2  6  1  0  0  0  0
  2  9  1  0  0  0  0
  3  5  1  0  0  0  0
  4 11  1  0  0  0  0
  6  9  1  0  0  0  0
  7  8  1  0  0  0  0
  8 20  1  1  0  0  0
  8  3  1  0  0  0  0
  9  5  1  6  0  0  0
 10 11  2  0  0  0  0
 12 13  1  1  0  0  0
 12  1  1  0  0  0  0
 14 16  1  1  0  0  0
 14 13  1  0  0  0  0
 14 12  1  0  0  0  0
 16 15  1  6  0  0  0
 17 16  1  0  0  0  0
 17 19  1  0  0  0  0
 19 18  1  0  0  0  0
 20 21  1  0  0  0  0
 22 20  1  0  0  0  0
 23 25  1  6  0  0  0
 23 24  1  0  0  0  0
 26 29  1  6  0  0  0
 26 22  1  0  0  0  0
 26 27  1  0  0  0  0
 27 24  1  0  0  0  0
 28 23  1  0  0  0  0
 30 28  1  0  0  0  0
 30 26  1  0  0  0  0
M  END
>  <MODEL>
1

>  <REMARK>
 VINA RESULT:      -6.9      0.000      0.000
  Name = 
  7 active torsions:
  status: ('A' for Active; 'I' for Inactive)
    1  A    between atoms: C_1  and  C_4
    2  A    between atoms: S_3  and  N_11
    3  A    between atoms: S_3  and  C_19
    4  A    between atoms: C_8  and  C_9
    5  A    between atoms: C_8  and  C_12
    6  A    between atoms: C_9  and  C_21
    7  A    between atoms: N_11  and  C_25
                            x       y       z     vdW  Elec       q    Type
                         _______ _______ _______ _____ _____    ______ ____

>  <TORSDO>
F 7

$$$$
=
 OpenBabel11052417063D

 30 33  0  0  1  0  0  0  0  0999 V2000
  186.5390  176.9840  143.0960 C   0  0  2  0  0  3  0  0  0  0  0  0
  184.5550  177.9720  146.0350 C   0  0  2  0  0  3  0  0  0  0  0  0
  187.6510  176.7310  146.5420 C   0  0  0  0  0  2  0  0  0  0  0  0
  185.1830  177.4920  143.5940 C   0  0  0  0  0  2  0  0  0  0  0  0
  186.9270  177.9620  147.0460 C   0  0  0  0  0  2  0  0  0  0  0  0
  184.7360  178.8900  147.0910 O   0  0  0  0  0  0  0  0  0  0  0  0
  187.2930  176.1350  144.1220 C   0  0  0  0  0  2  0  0  0  0  0  0
  188.1050  176.9730  145.1050 C   0  0  2  0  0  3  0  0  0  0  0  0
  185.4380  177.6760  147.2080 C   0  0  1  0  0  3  0  0  0  0  0  0
  185.5510  179.7010  144.5660 C   0  0  0  0  0  2  0  0  0  0  0  0
  185.2590  178.4150  144.7730 C   0  0  0  0  0  0  0  0  0  0  0  0
  187.3890  178.0770  142.4340 C   0  0  1  0  0  3  0  0  0  0  0  0
  188.5630  177.5050  141.9040 O   0  0  0  0  0  0  0  0  0  0  0  0
  187.6080  177.9280  140.9600 C   0  0  1  0  0  3  0  0  0  0  0  0
  186.5570  177.0390  139.0150 O   0  0  0  0  0  1  0  0  0  0  0  0
  186.9390  176.7120  140.3150 C   0  0  1  0  0  3  0  0  0  0  0  0
  187.8960  175.5320  140.2720 C   0  0  0  0  0  2  0  0  0  0  0  0
  188.9590  173.8350  138.8180 C   0  0  0  0  0  1  0  0  0  0  0  0
  187.8670  174.8800  138.9050 C   0  0  0  0  0  2  0  0  0  0  0  0
  189.5470  176.7710  144.9090 N   0  0  0  0  0  0  0  0  0  0  0  0
  190.1890  177.8730  145.3650 O   0  0  0  0  0  1  0  0  0  0  0  0
  190.1280  175.3860  145.8620 S   0  0  0  0  0  0  0  0  0  0  0  0
  189.3960  173.3520  143.2280 C   0  0  2  0  0  3  0  0  0  0  0  0
  190.2380  172.3170  144.4820 S   0  0  0  0  0  0  0  0  0  0  0  0
  188.5700  172.4660  142.3210 C   0  0  0  0  0  1  0  0  0  0  0  0
  191.4130  174.8930  144.6510 C   0  0  2  0  0  0  0  0  0  0  0  0
  191.7000  173.3950  144.7810 C   0  0  0  0  0  2  0  0  0  0  0  0
  190.3970  174.1320  142.3980 C   0  0  0  0  0  2  0  0  0  0  0  0
  192.6950  175.6330  144.9810 C   0  0  0  0  0  1  0  0  0  0  0  0
  191.0030  175.2700  143.2170 C   0  0  0  0  0  2  0  0  0  0  0  0
  1  4  1  1  0  0  0
  1  7  1  0  0  0  0
  2 11  1  6  0  0  0
  2  6  1  0  0  0  0
  2  9  1  0  0  0  0
  3  5  1  0  0  0  0
  4 11  1  0  0  0  0
  6  9  1  0  0  0  0
  7  8  1  0  0  0  0
  8 20  1  1  0  0  0
  8  3  1  0  0  0  0
  9  5  1  6  0  0  0
 10 11  2  0  0  0  0
 12 13  1  1  0  0  0
 12  1  1  0  0  0  0
 14 16  1  1  0  0  0
 14 13  1  0  0  0  0
 14 12  1  0  0  0  0
 16 15  1  6  0  0  0
 17 16  1  0  0  0  0
 18 19  1  0  0  0  0
 19 17  1  0  0  0  0
 20 21  1  0  0  0  0
 20 22  1  0  0  0  0
 23 25  1  6  0  0  0
 23 24  1  0  0  0  0
 24 27  1  0  0  0  0
 26 27  1  0  0  0  0
 26 29  1  1  0  0  0
 26 22  1  0  0  0  0
 28 30  1  0  0  0  0
 28 23  1  0  0  0  0
 30 26  1  0  0  0  0
M  END
>  <MODEL>
2

>  <REMARK>
 VINA RESULT:      -6.7      1.269      2.104
  Name = 
  7 active torsions:
  status: ('A' for Active; 'I' for Inactive)
    1  A    between atoms: C_1  and  C_4
    2  A    between atoms: S_3  and  N_11
    3  A    between atoms: S_3  and  C_19
    4  A    between atoms: C_8  and  C_9
    5  A    between atoms: C_8  and  C_12
    6  A    between atoms: C_9  and  C_21
    7  A    between atoms: N_11  and  C_25
                            x       y       z     vdW  Elec       q    Type
                         _______ _______ _______ _____ _____    ______ ____

>  <TORSDO>
F 7

$$$$
=
 OpenBabel11052417063D

 30 33  0  0  1  0  0  0  0  0999 V2000
  190.2530  173.9660  143.4490 C   0  0  2  0  0  3  0  0  0  0  0  0
  190.9960  171.4130  140.9030 C   0  0  2  0  0  3  0  0  0  0  0  0
  188.4720  173.5730  140.3110 C   0  0  0  0  0  2  0  0  0  0  0  0
  191.0990  172.7390  143.0970 C   0  0  0  0  0  2  0  0  0  0  0  0
  189.6630  173.1130  139.4950 C   0  0  0  0  0  2  0  0  0  0  0  0
  191.3620  171.4490  139.5410 O   0  0  0  0  0  0  0  0  0  0  0  0
  188.8870  173.9900  142.7580 C   0  0  0  0  0  2  0  0  0  0  0  0
  188.9430  174.5830  141.3540 C   0  0  2  0  0  3  0  0  0  0  0  0
  189.9980  171.6600  139.8140 C   0  0  1  0  0  3  0  0  0  0  0  0
  192.5090  173.3530  141.2010 C   0  0  0  0  0  2  0  0  0  0  0  0
  191.4750  172.6370  141.6490 C   0  0  0  0  0  0  0  0  0  0  0  0
  191.0310  175.2850  143.3560 C   0  0  1  0  0  3  0  0  0  0  0  0
  190.4380  176.2440  144.2010 O   0  0  0  0  0  0  0  0  0  0  0  0
  191.6850  175.7460  144.6220 C   0  0  1  0  0  3  0  0  0  0  0  0
  192.7510  174.4560  146.3200 O   0  0  0  0  0  1  0  0  0  0  0  0
  191.4990  174.8270  145.8310 C   0  0  1  0  0  3  0  0  0  0  0  0
  190.7240  175.5350  146.9300 C   0  0  0  0  0  2  0  0  0  0  0  0
  188.2530  175.6630  146.9680 C   0  0  0  0  0  1  0  0  0  0  0  0
  189.4490  174.7790  147.2480 C   0  0  0  0  0  2  0  0  0  0  0  0
  188.2240  175.8620  141.2900 N   0  0  0  0  0  0  0  0  0  0  0  0
  187.5160  175.8870  140.1350 O   0  0  0  0  0  1  0  0  0  0  0  0
  187.0610  176.0030  142.6280 S   0  0  0  0  0  0  0  0  0  0  0  0
  185.2780  177.7640  144.9380 C   0  0  2  0  0  3  0  0  0  0  0  0
  184.5910  178.1920  143.2950 S   0  0  0  0  0  0  0  0  0  0  0  0
  184.2380  178.0380  146.0020 C   0  0  0  0  0  1  0  0  0  0  0  0
  187.3720  177.7870  142.9180 C   0  0  2  0  0  0  0  0  0  0  0  0
  186.1690  178.6070  142.4440 C   0  0  0  0  0  2  0  0  0  0  0  0
  186.5300  178.5650  145.2360 C   0  0  0  0  0  2  0  0  0  0  0  0
  188.5680  178.2080  142.0850 C   0  0  0  0  0  1  0  0  0  0  0  0
  187.7020  178.0620  144.3950 C   0  0  0  0  0  2  0  0  0  0  0  0
  1  7  1  6  0  0  0
  2  6  1  6  0  0  0
  2 11  1  0  0  0  0
  3  8  1  0  0  0  0
  4  1  1  0  0  0  0
  5  3  1  0  0  0  0
  6  9  1  0  0  0  0
  8 20  1  1  0  0  0
  8  7  1  0  0  0  0
  9  5  1  1  0  0  0
  9  2  1  0  0  0  0
 10 11  2  0  0  0  0
 11  4  1  0  0  0  0
 12  1  1  0  0  0  0
 12 13  1  1  0  0  0
 12 14  1  0  0  0  0
 13 14  1  0  0  0  0
 14 16  1  1  0  0  0
 16 15  1  1  0  0  0
 16 17  1  0  0  0  0
 17 19  1  0  0  0  0
 18 19  1  0  0  0  0
 20 22  1  0  0  0  0
 21 20  1  0  0  0  0
 22 26  1  0  0  0  0
 23 28  1  0  0  0  0
 23 25  1  1  0  0  0
 24 23  1  0  0  0  0
 26 29  1  6  0  0  0
 26 30  1  0  0  0  0
 27 26  1  0  0  0  0
 27 24  1  0  0  0  0
 30 28  1  0  0  0  0
M  END
>  <MODEL>
3

>  <REMARK>
 VINA RESULT:      -6.6      2.913      7.553
  Name = 
  7 active torsions:
  status: ('A' for Active; 'I' for Inactive)
    1  A    between atoms: C_1  and  C_4
    2  A    between atoms: S_3  and  N_11
    3  A    between atoms: S_3  and  C_19
    4  A    between atoms: C_8  and  C_9
    5  A    between atoms: C_8  and  C_12
    6  A    between atoms: C_9  and  C_21
    7  A    between atoms: N_11  and  C_25
                            x       y       z     vdW  Elec       q    Type
                         _______ _______ _______ _____ _____    ______ ____

>  <TORSDO>
F 7

$$$$
=
 OpenBabel11052417063D

 30 33  0  0  1  0  0  0  0  0999 V2000
  189.4310  176.4850  144.9700 C   0  0  2  0  0  3  0  0  0  0  0  0
  186.6140  178.5340  143.7780 C   0  0  2  0  0  3  0  0  0  0  0  0
  187.6810  175.9970  141.8270 C   0  0  0  0  0  2  0  0  0  0  0  0
  188.5540  177.7100  145.2420 C   0  0  0  0  0  2  0  0  0  0  0  0
  186.3160  176.4270  142.3220 C   0  0  0  0  0  2  0  0  0  0  0  0
  185.2770  178.2670  143.4160 O   0  0  0  0  0  0  0  0  0  0  0  0
  189.5710  176.1460  143.4830 C   0  0  0  0  0  2  0  0  0  0  0  0
  188.4230  175.2900  142.9580 C   0  0  2  0  0  3  0  0  0  0  0  0
  186.2490  177.9450  142.4500 C   0  0  1  0  0  3  0  0  0  0  0  0
  186.2800  176.9050  145.6140 C   0  0  0  0  0  2  0  0  0  0  0  0
  187.1250  177.5600  144.8150 C   0  0  0  0  0  0  0  0  0  0  0  0
  189.0860  175.2840  145.8600 C   0  0  1  0  0  3  0  0  0  0  0  0
  190.1140  174.3240  145.7760 O   0  0  0  0  0  0  0  0  0  0  0  0
  190.0290  175.0240  146.9940 C   0  0  1  0  0  3  0  0  0  0  0  0
  191.1950  176.5620  148.3930 O   0  0  0  0  0  1  0  0  0  0  0  0
  191.1990  176.0030  147.1160 C   0  0  1  0  0  3  0  0  0  0  0  0
  192.5220  175.2910  146.8870 C   0  0  0  0  0  2  0  0  0  0  0  0
  194.8670  175.5460  146.1380 C   0  0  0  0  0  1  0  0  0  0  0  0
  193.5940  176.2850  146.4910 C   0  0  0  0  0  2  0  0  0  0  0  0
  188.8870  173.9440  142.5970 N   0  0  0  0  0  0  0  0  0  0  0  0
  187.7980  173.1680  142.3870 O   0  0  0  0  0  1  0  0  0  0  0  0
  189.8130  173.9790  141.0790 S   0  0  0  0  0  0  0  0  0  0  0  0
  192.8130  175.0660  142.2750 C   0  0  2  0  0  3  0  0  0  0  0  0
  193.1010  174.4850  140.5620 S   0  0  0  0  0  0  0  0  0  0  0  0
  193.9040  176.0410  142.6630 C   0  0  0  0  0  1  0  0  0  0  0  0
  191.0960  172.8010  141.6510 C   0  0  2  0  0  0  0  0  0  0  0  0
  192.2940  172.8370  140.6990 C   0  0  0  0  0  2  0  0  0  0  0  0
  192.7980  173.9080  143.2530 C   0  0  0  0  0  2  0  0  0  0  0  0
  190.5180  171.4000  141.6050 C   0  0  0  0  0  1  0  0  0  0  0  0
  191.5140  173.0940  143.1020 C   0  0  0  0  0  2  0  0  0  0  0  0
  1  7  1  6  0  0  0
  1  4  1  0  0  0  0
  1 12  1  0  0  0  0
  2  6  1  1  0  0  0
  2 11  1  0  0  0  0
  3  5  1  0  0  0  0
  3  8  1  0  0  0  0
  8 20  1  6  0  0  0
  8  7  1  0  0  0  0
  9  5  1  1  0  0  0
  9  6  1  0  0  0  0
  9  2  1  0  0  0  0
 11  4  1  0  0  0  0
 11 10  2  0  0  0  0
 12 13  1  6  0  0  0
 12 14  1  0  0  0  0
 13 14  1  0  0  0  0
 14 16  1  6  0  0  0
 16 15  1  1  0  0  0
 17 16  1  0  0  0  0
 18 19  1  0  0  0  0
 19 17  1  0  0  0  0
 21 20  1  0  0  0  0
 22 26  1  0  0  0  0
 22 20  1  0  0  0  0
 23 25  1  1  0  0  0
 23 28  1  0  0  0  0
 24 27  1  0  0  0  0
 24 23  1  0  0  0  0
 26 29  1  6  0  0  0
 26 30  1  0  0  0  0
 27 26  1  0  0  0  0
 30 28  1  0  0  0  0
M  END
>  <MODEL>
4

>  <REMARK>
 VINA RESULT:      -6.5      2.714      5.258
  Name = 
  7 active torsions:
  status: ('A' for Active; 'I' for Inactive)
    1  A    between atoms: C_1  and  C_4
    2  A    between atoms: S_3  and  N_11
    3  A    between atoms: S_3  and  C_19
    4  A    between atoms: C_8  and  C_9
    5  A    between atoms: C_8  and  C_12
    6  A    between atoms: C_9  and  C_21
    7  A    between atoms: N_11  and  C_25
                            x       y       z     vdW  Elec       q    Type
                         _______ _______ _______ _____ _____    ______ ____

>  <TORSDO>
F 7

$$$$
=
 OpenBabel11052417063D

 30 33  0  0  1  0  0  0  0  0999 V2000
  190.8630  174.3980  143.1830 C   0  0  2  0  0  3  0  0  0  0  0  0
  193.9060  175.6670  144.8200 C   0  0  2  0  0  3  0  0  0  0  0  0
  190.9340  176.9750  145.7400 C   0  0  0  0  0  2  0  0  0  0  0  0
  192.3920  174.3470  143.2240 C   0  0  0  0  0  2  0  0  0  0  0  0
  192.1100  176.4150  146.5130 C   0  0  0  0  0  2  0  0  0  0  0  0
  194.3610  175.7320  146.1550 O   0  0  0  0  0  0  0  0  0  0  0  0
  190.2790  175.7350  143.6490 C   0  0  0  0  0  2  0  0  0  0  0  0
  190.1210  175.8180  145.1640 C   0  0  2  0  0  3  0  0  0  0  0  0
  193.4160  176.7060  145.7820 C   0  0  1  0  0  3  0  0  0  0  0  0
  193.0280  173.4210  145.3910 C   0  0  0  0  0  2  0  0  0  0  0  0
  192.9840  174.4910  144.5940 C   0  0  0  0  0  0  0  0  0  0  0  0
  190.1990  173.1660  143.8140 C   0  0  1  0  0  3  0  0  0  0  0  0
  188.8370  173.1280  143.4540 O   0  0  0  0  0  0  0  0  0  0  0  0
  189.6570  172.1560  142.8510 C   0  0  1  0  0  3  0  0  0  0  0  0
  190.3620  171.3630  140.7160 O   0  0  0  0  0  1  0  0  0  0  0  0
  189.8540  172.4850  141.3690 C   0  0  1  0  0  3  0  0  0  0  0  0
  188.5360  172.8830  140.7270 C   0  0  0  0  0  2  0  0  0  0  0  0
  188.1920  174.0060  138.5490 C   0  0  0  0  0  1  0  0  0  0  0  0
  188.6910  174.1850  139.9670 C   0  0  0  0  0  2  0  0  0  0  0  0
  188.7030  175.8570  145.5470 N   0  0  0  0  0  0  0  0  0  0  0  0
  188.5870  175.2940  146.7740 O   0  0  0  0  0  1  0  0  0  0  0  0
  188.1280  177.5350  145.6780 S   0  0  0  0  0  0  0  0  0  0  0  0
  187.2750  177.4450  142.3800 C   0  0  2  0  0  3  0  0  0  0  0  0
  186.6700  179.0410  143.0430 S   0  0  0  0  0  0  0  0  0  0  0  0
  187.4410  177.5570  140.8800 C   0  0  0  0  0  1  0  0  0  0  0  0
  186.4150  177.1540  145.1440 C   0  0  2  0  0  0  0  0  0  0  0  0
  185.7790  178.3970  144.5190 C   0  0  0  0  0  2  0  0  0  0  0  0
  186.3140  176.3170  142.6990 C   0  0  0  0  0  2  0  0  0  0  0  0
  185.5990  176.7900  146.3700 C   0  0  0  0  0  1  0  0  0  0  0  0
  186.3850  175.9540  144.1820 C   0  0  0  0  0  2  0  0  0  0  0  0
  1  4  1  1  0  0  0
  1  7  1  0  0  0  0
  1 12  1  0  0  0  0
  2 11  1  1  0  0  0
  2  9  1  0  0  0  0
  2  6  1  0  0  0  0
  3  5  1  0  0  0  0
  4 11  1  0  0  0  0
  7  8  1  0  0  0  0
  8 20  1  6  0  0  0
  8  3  1  0  0  0  0
  9  6  1  0  0  0  0
  9  5  1  1  0  0  0
 11 10  2  0  0  0  0
 12 13  1  6  0  0  0
 14 16  1  6  0  0  0
 14 13  1  0  0  0  0
 14 12  1  0  0  0  0
 16 15  1  6  0  0  0
 17 16  1  0  0  0  0
 18 19  1  0  0  0  0
 19 17  1  0  0  0  0
 20 22  1  0  0  0  0
 20 21  1  0  0  0  0
 23 25  1  6  0  0  0
 23 28  1  0  0  0  0
 23 24  1  0  0  0  0
 24 27  1  0  0  0  0
 26 22  1  0  0  0  0
 26 29  1  1  0  0  0
 27 26  1  0  0  0  0
 28 30  1  0  0  0  0
 30 26  1  0  0  0  0
M  END
>  <MODEL>
5

>  <REMARK>
 VINA RESULT:      -6.0      2.470      6.348
  Name = 
  7 active torsions:
  status: ('A' for Active; 'I' for Inactive)
    1  A    between atoms: C_1  and  C_4
    2  A    between atoms: S_3  and  N_11
    3  A    between atoms: S_3  and  C_19
    4  A    between atoms: C_8  and  C_9
    5  A    between atoms: C_8  and  C_12
    6  A    between atoms: C_9  and  C_21
    7  A    between atoms: N_11  and  C_25
                            x       y       z     vdW  Elec       q    Type
                         _______ _______ _______ _____ _____    ______ ____

>  <TORSDO>
F 7

$$$$
=
 OpenBabel11052417063D

 30 33  0  0  1  0  0  0  0  0999 V2000
  193.1710  173.9540  143.2410 C   0  0  2  0  0  3  0  0  0  0  0  0
  192.0380  170.7190  141.8990 C   0  0  2  0  0  3  0  0  0  0  0  0
  189.7050  172.9070  142.9750 C   0  0  0  0  0  2  0  0  0  0  0  0
  193.6020  172.5880  142.7030 C   0  0  0  0  0  2  0  0  0  0  0  0
  189.8680  172.0990  141.7050 C   0  0  0  0  0  2  0  0  0  0  0  0
  191.1970  170.3260  140.8360 O   0  0  0  0  0  0  0  0  0  0  0  0
  191.7970  173.9440  143.9170 C   0  0  0  0  0  2  0  0  0  0  0  0
  190.6470  174.1070  142.9270 C   0  0  2  0  0  3  0  0  0  0  0  0
  190.5450  170.7650  142.0030 C   0  0  1  0  0  3  0  0  0  0  0  0
  192.8930  172.4720  140.3700 C   0  0  0  0  0  2  0  0  0  0  0  0
  192.7220  172.0380  141.6210 C   0  0  0  0  0  0  0  0  0  0  0  0
  193.3680  175.0930  142.2310 C   0  0  1  0  0  3  0  0  0  0  0  0
  193.1600  176.3310  142.8700 O   0  0  0  0  0  0  0  0  0  0  0  0
  194.4930  176.0370  142.5280 C   0  0  1  0  0  3  0  0  0  0  0  0
  196.6570  175.8760  143.5130 O   0  0  0  0  0  1  0  0  0  0  0  0
  195.2990  175.7250  143.7900 C   0  0  1  0  0  3  0  0  0  0  0  0
  194.9130  176.6640  144.9200 C   0  0  0  0  0  2  0  0  0  0  0  0
  193.1490  176.2350  146.6040 C   0  0  0  0  0  1  0  0  0  0  0  0
  194.5520  175.8740  146.1620 C   0  0  0  0  0  2  0  0  0  0  0  0
  189.9610  175.3910  143.1180 N   0  0  0  0  0  0  0  0  0  0  0  0
  189.3010  175.6870  141.9730 O   0  0  0  0  0  1  0  0  0  0  0  0
  188.7480  175.2770  144.4130 S   0  0  0  0  0  0  0  0  0  0  0  0
  186.1950  176.9310  145.9480 C   0  0  2  0  0  3  0  0  0  0  0  0
  186.2300  177.5020  144.2090 S   0  0  0  0  0  0  0  0  0  0  0  0
  184.8150  177.1660  146.5240 C   0  0  0  0  0  1  0  0  0  0  0  0
  188.9260  177.0220  144.9470 C   0  0  2  0  0  0  0  0  0  0  0  0
  188.0200  177.9180  144.0990 C   0  0  0  0  0  2  0  0  0  0  0  0
  187.2240  177.6610  146.7870 C   0  0  0  0  0  2  0  0  0  0  0  0
  190.3570  177.4570  144.7020 C   0  0  0  0  0  1  0  0  0  0  0  0
  188.6340  177.1770  146.4500 C   0  0  0  0  0  2  0  0  0  0  0  0
  1  4  1  6  0  0  0
  1  7  1  0  0  0  0
  2  6  1  6  0  0  0
  2  9  1  0  0  0  0
  5  3  1  0  0  0  0
  6  9  1  0  0  0  0
  8  3  1  0  0  0  0
  8 20  1  1  0  0  0
  8  7  1  0  0  0  0
  9  5  1  6  0  0  0
 10 11  2  0  0  0  0
 11  2  1  0  0  0  0
 11  4  1  0  0  0  0
 12 14  1  0  0  0  0
 12 13  1  1  0  0  0
 12  1  1  0  0  0  0
 14 13  1  0  0  0  0
 14 16  1  1  0  0  0
 16 15  1  6  0  0  0
 16 17  1  0  0  0  0
 17 19  1  0  0  0  0
 19 18  1  0  0  0  0
 20 22  1  0  0  0  0
 21 20  1  0  0  0  0
 22 26  1  0  0  0  0
 23 25  1  1  0  0  0
 23 28  1  0  0  0  0
 24 23  1  0  0  0  0
 26 29  1  6  0  0  0
 26 30  1  0  0  0  0
 27 24  1  0  0  0  0
 27 26  1  0  0  0  0
 30 28  1  0  0  0  0
M  END
>  <MODEL>
6

>  <REMARK>
 VINA RESULT:      -5.9      3.037      7.723
  Name = 
  7 active torsions:
  status: ('A' for Active; 'I' for Inactive)
    1  A    between atoms: C_1  and  C_4
    2  A    between atoms: S_3  and  N_11
    3  A    between atoms: S_3  and  C_19
    4  A    between atoms: C_8  and  C_9
    5  A    between atoms: C_8  and  C_12
    6  A    between atoms: C_9  and  C_21
    7  A    between atoms: N_11  and  C_25
                            x       y       z     vdW  Elec       q    Type
                         _______ _______ _______ _____ _____    ______ ____

>  <TORSDO>
F 7

$$$$
=
 OpenBabel11052417063D

 30 33  0  0  1  0  0  0  0  0999 V2000
  188.8480  176.0040  143.4470 C   0  0  2  0  0  3  0  0  0  0  0  0
  189.2710  173.2090  141.0890 C   0  0  2  0  0  3  0  0  0  0  0  0
  191.9700  175.0910  141.8360 C   0  0  0  0  0  2  0  0  0  0  0  0
  188.1440  174.8940  142.6620 C   0  0  0  0  0  2  0  0  0  0  0  0
  191.7170  173.5980  141.8060 C   0  0  0  0  0  2  0  0  0  0  0  0
  190.0720  172.0480  141.0610 O   0  0  0  0  0  0  0  0  0  0  0  0
  190.1230  176.5210  142.7740 C   0  0  0  0  0  2  0  0  0  0  0  0
  191.3510  175.6770  143.1020 C   0  0  2  0  0  3  0  0  0  0  0  0
  190.7190  173.2480  140.7080 C   0  0  1  0  0  3  0  0  0  0  0  0
  188.9830  172.7650  143.5100 C   0  0  0  0  0  2  0  0  0  0  0  0
  188.9480  173.6390  142.5010 C   0  0  0  0  0  0  0  0  0  0  0  0
  189.0080  175.6830  144.9390 C   0  0  1  0  0  3  0  0  0  0  0  0
  189.1000  176.8820  145.6730 O   0  0  0  0  0  0  0  0  0  0  0  0
  187.9020  176.1590  145.8290 C   0  0  1  0  0  3  0  0  0  0  0  0
  185.5420  176.4150  145.6180 O   0  0  0  0  0  1  0  0  0  0  0  0
  186.7570  176.8890  145.1240 C   0  0  1  0  0  3  0  0  0  0  0  0
  186.8440  178.3870  145.3650 C   0  0  0  0  0  2  0  0  0  0  0  0
  186.2620  178.7110  142.9820 C   0  0  0  0  0  1  0  0  0  0  0  0
  185.9420  179.1300  144.4010 C   0  0  0  0  0  2  0  0  0  0  0  0
  192.3080  176.4310  143.9220 N   0  0  0  0  0  0  0  0  0  0  0  0
  191.7350  177.6120  144.2540 O   0  0  0  0  0  1  0  0  0  0  0  0
  192.6620  175.5690  145.4370 S   0  0  0  0  0  0  0  0  0  0  0  0
  194.9960  173.9470  143.5560 C   0  0  2  0  0  3  0  0  0  0  0  0
  195.1650  173.3230  145.2700 S   0  0  0  0  0  0  0  0  0  0  0  0
  195.5680  172.9290  142.5940 C   0  0  0  0  0  1  0  0  0  0  0  0
  194.4300  176.0530  145.4820 C   0  0  2  0  0  0  0  0  0  0  0  0
  195.2540  174.9430  146.1380 C   0  0  0  0  0  2  0  0  0  0  0  0
  195.7160  175.2690  143.3800 C   0  0  0  0  0  2  0  0  0  0  0  0
  194.5660  177.2930  146.3450 C   0  0  0  0  0  1  0  0  0  0  0  0
  194.9510  176.3940  144.0760 C   0  0  0  0  0  2  0  0  0  0  0  0
  1  4  1  6  0  0  0
  1 12  1  0  0  0  0
  2  6  1  1  0  0  0
  2 11  1  0  0  0  0
  3  8  1  0  0  0  0
  5  3  1  0  0  0  0
  7  8  1  0  0  0  0
  7  1  1  0  0  0  0
  8 20  1  6  0  0  0
  9  6  1  0  0  0  0
  9  2  1  0  0  0  0
  9  5  1  1  0  0  0
 11  4  1  0  0  0  0
 11 10  2  0  0  0  0
 12 13  1  1  0  0  0
 12 14  1  0  0  0  0
 13 14  1  0  0  0  0
 14 16  1  6  0  0  0
 16 17  1  0  0  0  0
 16 15  1  1  0  0  0
 18 19  1  0  0  0  0
 19 17  1  0  0  0  0
 20 21  1  0  0  0  0
 20 22  1  0  0  0  0
 22 26  1  0  0  0  0
 23 25  1  6  0  0  0
 23 24  1  0  0  0  0
 24 27  1  0  0  0  0
 26 27  1  0  0  0  0
 26 29  1  1  0  0  0
 28 23  1  0  0  0  0
 28 30  1  0  0  0  0
 30 26  1  0  0  0  0
M  END
>  <MODEL>
7

>  <REMARK>
 VINA RESULT:      -5.9      2.312      5.434
  Name = 
  7 active torsions:
  status: ('A' for Active; 'I' for Inactive)
    1  A    between atoms: C_1  and  C_4
    2  A    between atoms: S_3  and  N_11
    3  A    between atoms: S_3  and  C_19
    4  A    between atoms: C_8  and  C_9
    5  A    between atoms: C_8  and  C_12
    6  A    between atoms: C_9  and  C_21
    7  A    between atoms: N_11  and  C_25
                            x       y       z     vdW  Elec       q    Type
                         _______ _______ _______ _____ _____    ______ ____

>  <TORSDO>
F 7

$$$$
=
 OpenBabel11052417063D

 30 33  0  0  1  0  0  0  0  0999 V2000
  190.7210  173.9420  142.7640 C   0  0  2  0  0  3  0  0  0  0  0  0
  190.7350  171.4330  140.0710 C   0  0  2  0  0  3  0  0  0  0  0  0
  188.1930  173.6500  140.1750 C   0  0  0  0  0  2  0  0  0  0  0  0
  191.4220  172.7090  142.1880 C   0  0  0  0  0  2  0  0  0  0  0  0
  189.1270  173.1870  139.0760 C   0  0  0  0  0  2  0  0  0  0  0  0
  190.7450  171.4920  138.6610 O   0  0  0  0  0  0  0  0  0  0  0  0
  189.2250  174.0060  142.4440 C   0  0  0  0  0  2  0  0  0  0  0  0
  188.9360  174.6280  141.0810 C   0  0  2  0  0  3  0  0  0  0  0  0
  189.4990  171.7210  139.2750 C   0  0  1  0  0  3  0  0  0  0  0  0
  192.3180  173.3390  140.0070 C   0  0  0  0  0  2  0  0  0  0  0  0
  191.4160  172.6310  140.6910 C   0  0  0  0  0  0  0  0  0  0  0  0
  191.4800  175.2490  142.4980 C   0  0  1  0  0  3  0  0  0  0  0  0
  191.1330  176.2030  143.4750 O   0  0  0  0  0  0  0  0  0  0  0  0
  192.4350  175.6770  143.5690 C   0  0  1  0  0  3  0  0  0  0  0  0
  193.6850  173.9650  144.6590 O   0  0  0  0  0  1  0  0  0  0  0  0
  192.5320  174.7410  144.7760 C   0  0  1  0  0  3  0  0  0  0  0  0
  192.5950  175.5360  146.0690 C   0  0  0  0  0  2  0  0  0  0  0  0
  194.4380  177.1610  146.3660 C   0  0  0  0  0  1  0  0  0  0  0  0
  194.0340  175.7100  146.5120 C   0  0  0  0  0  2  0  0  0  0  0  0
  188.2540  175.9210  141.2230 N   0  0  0  0  0  0  0  0  0  0  0  0
  187.4420  176.0860  140.1510 O   0  0  0  0  0  1  0  0  0  0  0  0
  187.2250  175.9390  142.6740 S   0  0  0  0  0  0  0  0  0  0  0  0
  185.4760  177.5670  145.1030 C   0  0  2  0  0  3  0  0  0  0  0  0
  184.7980  178.1230  143.4950 S   0  0  0  0  0  0  0  0  0  0  0  0
  184.4400  177.7850  146.1850 C   0  0  0  0  0  1  0  0  0  0  0  0
  187.5710  177.6910  143.0880 C   0  0  2  0  0  0  0  0  0  0  0  0
  186.3850  178.5660  142.6750 C   0  0  0  0  0  2  0  0  0  0  0  0
  186.7430  178.3210  145.4560 C   0  0  0  0  0  2  0  0  0  0  0  0
  188.7750  178.1470  142.2860 C   0  0  0  0  0  1  0  0  0  0  0  0
  187.9050  177.8560  144.5810 C   0  0  0  0  0  2  0  0  0  0  0  0
  1  4  1  6  0  0  0
  2  6  1  6  0  0  0
  2 11  1  0  0  0  0
  3  8  1  0  0  0  0
  5  3  1  0  0  0  0
  6  9  1  0  0  0  0
  7  1  1  0  0  0  0
  8 20  1  1  0  0  0
  8  7  1  0  0  0  0
  9  5  1  1  0  0  0
  9  2  1  0  0  0  0
 10 11  2  0  0  0  0
 11  4  1  0  0  0  0
 12  1  1  0  0  0  0
 12 13  1  1  0  0  0
 12 14  1  0  0  0  0
 13 14  1  0  0  0  0
 14 16  1  1  0  0  0
 16 15  1  6  0  0  0
 16 17  1  0  0  0  0
 17 19  1  0  0  0  0
 18 19  1  0  0  0  0
 20 22  1  0  0  0  0
 21 20  1  0  0  0  0
 22 26  1  0  0  0  0
 23 28  1  0  0  0  0
 23 25  1  1  0  0  0
 24 23  1  0  0  0  0
 26 29  1  6  0  0  0
 26 30  1  0  0  0  0
 27 26  1  0  0  0  0
 27 24  1  0  0  0  0
 30 28  1  0  0  0  0
M  END
>  <MODEL>
8

>  <REMARK>
 VINA RESULT:      -5.9      2.927      7.715
  Name = 
  7 active torsions:
  status: ('A' for Active; 'I' for Inactive)
    1  A    between atoms: C_1  and  C_4
    2  A    between atoms: S_3  and  N_11
    3  A    between atoms: S_3  and  C_19
    4  A    between atoms: C_8  and  C_9
    5  A    between atoms: C_8  and  C_12
    6  A    between atoms: C_9  and  C_21
    7  A    between atoms: N_11  and  C_25
                            x       y       z     vdW  Elec       q    Type
                         _______ _______ _______ _____ _____    ______ ____

>  <TORSDO>
F 7

$$$$
=
 OpenBabel11052417063D

 30 33  0  0  1  0  0  0  0  0999 V2000
  190.0690  176.4460  144.5010 C   0  0  2  0  0  3  0  0  0  0  0  0
  186.9760  178.2900  143.7370 C   0  0  2  0  0  3  0  0  0  0  0  0
  188.0640  176.0020  141.5080 C   0  0  0  0  0  2  0  0  0  0  0  0
  189.1180  177.5610  144.9460 C   0  0  0  0  0  2  0  0  0  0  0  0
  186.7230  176.2650  142.1600 C   0  0  0  0  0  2  0  0  0  0  0  0
  185.6380  177.9200  143.4820 O   0  0  0  0  0  0  0  0  0  0  0  0
  190.0890  176.2220  142.9870 C   0  0  0  0  0  2  0  0  0  0  0  0
  188.9750  175.2960  142.5080 C   0  0  2  0  0  3  0  0  0  0  0  0
  186.5330  177.7580  142.4080 C   0  0  1  0  0  3  0  0  0  0  0  0
  186.9740  176.5170  145.4680 C   0  0  0  0  0  2  0  0  0  0  0  0
  187.6720  177.3030  144.6450 C   0  0  0  0  0  0  0  0  0  0  0  0
  189.9240  175.1610  145.3270 C   0  0  1  0  0  3  0  0  0  0  0  0
  191.0950  174.3880  145.2060 O   0  0  0  0  0  0  0  0  0  0  0  0
  190.8940  175.0010  146.4570 C   0  0  1  0  0  3  0  0  0  0  0  0
  191.6720  176.7450  147.8830 O   0  0  0  0  0  1  0  0  0  0  0  0
  191.8870  176.1510  146.6400 C   0  0  1  0  0  3  0  0  0  0  0  0
  193.3170  175.6420  146.5700 C   0  0  0  0  0  2  0  0  0  0  0  0
  194.6550  177.5440  145.7230 C   0  0  0  0  0  1  0  0  0  0  0  0
  194.0230  176.2180  145.3590 C   0  0  0  0  0  2  0  0  0  0  0  0
  189.5190  174.0280  142.0050 N   0  0  0  0  0  0  0  0  0  0  0  0
  188.9060  173.0180  142.6670 O   0  0  0  0  0  1  0  0  0  0  0  0
  189.1570  173.8250  140.2760 S   0  0  0  0  0  0  0  0  0  0  0  0
  189.7540  172.2000  137.3400 C   0  0  2  0  0  3  0  0  0  0  0  0
  189.7030  170.9250  138.6540 S   0  0  0  0  0  0  0  0  0  0  0  0
  189.4590  171.5540  136.0050 C   0  0  0  0  0  1  0  0  0  0  0  0
  190.8380  173.2420  139.8320 C   0  0  2  0  0  0  0  0  0  0  0  0
  190.8730  171.7120  139.8370 C   0  0  0  0  0  2  0  0  0  0  0  0
  191.1090  172.8780  137.2860 C   0  0  0  0  0  2  0  0  0  0  0  0
  191.8090  173.7250  140.8910 C   0  0  0  0  0  1  0  0  0  0  0  0
  191.2880  173.8170  138.4780 C   0  0  0  0  0  2  0  0  0  0  0  0
  1  7  1  6  0  0  0
  1  4  1  0  0  0  0
  1 12  1  0  0  0  0
  2  6  1  1  0  0  0
  2 11  1  0  0  0  0
  3  5  1  0  0  0  0
  3  8  1  0  0  0  0
  8 20  1  6  0  0  0
  8  7  1  0  0  0  0
  9  5  1  1  0  0  0
  9  6  1  0  0  0  0
  9  2  1  0  0  0  0
 11  4  1  0  0  0  0
 11 10  2  0  0  0  0
 12 13  1  6  0  0  0
 12 14  1  0  0  0  0
 13 14  1  0  0  0  0
 14 16  1  6  0  0  0
 16 15  1  1  0  0  0
 17 16  1  0  0  0  0
 19 18  1  0  0  0  0
 19 17  1  0  0  0  0
 20 21  1  0  0  0  0
 22 20  1  0  0  0  0
 23 25  1  6  0  0  0
 23 24  1  0  0  0  0
 24 27  1  0  0  0  0
 26 27  1  0  0  0  0
 26 22  1  0  0  0  0
 26 29  1  1  0  0  0
 28 23  1  0  0  0  0
 28 30  1  0  0  0  0
 30 26  1  0  0  0  0
M  END
>  <MODEL>
9

>  <REMARK>
 VINA RESULT:      -5.9      3.448      6.166
  Name = 
  7 active torsions:
  status: ('A' for Active; 'I' for Inactive)
    1  A    between atoms: C_1  and  C_4
    2  A    between atoms: S_3  and  N_11
    3  A    between atoms: S_3  and  C_19
    4  A    between atoms: C_8  and  C_9
    5  A    between atoms: C_8  and  C_12
    6  A    between atoms: C_9  and  C_21
    7  A    between atoms: N_11  and  C_25
                            x       y       z     vdW  Elec       q    Type
                         _______ _______ _______ _____ _____    ______ ____

>  <TORSDO>
F 7

$$$$
