=
 OpenBabel11052418033D

 28 31  0  0  1  0  0  0  0  0999 V2000
  187.0450  176.3320  141.5720 C   0  0  2  0  0  3  0  0  0  0  0  0
  185.8660  178.1510  142.4020 C   0  0  2  0  0  3  0  0  0  0  0  0
  185.9200  178.2780  140.8710 C   0  0  2  0  0  3  0  0  0  0  0  0
  184.7270  177.8630  140.2700 O   0  0  0  0  0  1  0  0  0  0  0  0
  187.0240  177.3430  140.4550 C   0  0  0  0  0  2  0  0  0  0  0  0
  186.7060  177.0280  142.8240 N   0  0  0  0  0  0  0  0  0  0  0  0
  184.1900  179.0670  143.8420 O   0  0  0  0  0  1  0  0  0  0  0  0
  184.4600  178.0070  142.9770 C   0  0  0  0  0  2  0  0  0  0  0  0
  188.3410  175.5180  141.5940 C   0  0  0  0  0  2  0  0  0  0  0  0
  188.0480  174.0830  141.5770 N   0  0  0  0  0  0  0  0  0  0  0  0
  190.0240  173.0790  140.7010 C   0  0  2  0  0  3  0  0  0  0  0  0
  188.8370  173.5100  142.6610 C   0  0  0  0  0  2  0  0  0  0  0  0
  188.4430  174.1990  139.0860 C   0  0  0  0  0  1  0  0  0  0  0  0
  188.5920  173.4200  140.3910 C   0  0  2  0  0  3  0  0  0  0  0  0
  190.3640  171.7110  140.1460 C   0  0  0  0  0  1  0  0  0  0  0  0
  190.1330  173.0650  142.1490 N   0  0  0  0  0  2  0  0  0  0  0  0
  187.9020  177.6090  143.4470 C   0  0  0  0  0  2  0  0  0  0  0  0
  190.2540  175.9260  144.9690 C   0  0  1  0  0  3  0  0  0  0  0  0
  188.6340  175.5590  146.6150 C   0  0  0  0  0  0  0  0  0  0  0  0
  187.9950  177.2820  144.9420 C   0  0  2  0  0  3  0  0  0  0  0  0
  190.6890  174.9020  146.0380 C   0  0  2  0  0  3  0  0  0  0  0  0
  188.7380  175.9610  145.1960 C   0  0  1  0  0  3  0  0  0  0  0  0
  186.7110  177.0000  147.0920 C   0  0  0  0  0  2  0  0  0  0  0  0
  189.6780  174.9680  147.0800 N   0  0  0  0  0  0  0  0  0  0  0  0
  187.5230  175.8630  147.3990 O   0  0  0  0  0  0  0  0  0  0  0  0
  192.3300  175.1270  146.7130 Cl  0  0  0  0  0  0  0  0  0  0  0  0
  190.8900  177.2980  145.2060 C   0  0  0  0  0  1  0  0  0  0  0  0
  186.6030  177.2320  145.5820 C   0  0  0  0  0  2  0  0  0  0  0  0
  1  9  1  1  0  0  0
  1  6  1  0  0  0  0
  2  6  1  0  0  0  0
  2  8  1  6  0  0  0
  3  4  1  6  0  0  0
  3  2  1  0  0  0  0
  5  3  1  0  0  0  0
  5  1  1  0  0  0  0
  6 17  1  0  0  0  0
  8  7  1  0  0  0  0
 10  9  1  0  0  0  0
 10 12  1  0  0  0  0
 11 15  1  1  0  0  0
 11 16  1  0  0  0  0
 14 13  1  6  0  0  0
 14 11  1  0  0  0  0
 14 10  1  0  0  0  0
 16 12  1  0  0  0  0
 18 22  1  0  0  0  0
 18 27  1  1  0  0  0
 18 21  1  0  0  0  0
 19 24  2  0  0  0  0
 19 25  1  0  0  0  0
 20 17  1  6  0  0  0
 20 22  1  0  0  0  0
 20 28  1  0  0  0  0
 21 26  1  1  0  0  0
 21 24  1  0  0  0  0
 22 19  1  1  0  0  0
 23 25  1  0  0  0  0
 28 23  1  0  0  0  0
M  END
>  <MODEL>
1

>  <REMARK>
 VINA RESULT:      -7.1      0.000      0.000
  Name = 
  5 active torsions:
  status: ('A' for Active; 'I' for Inactive)
    1  A    between atoms: C_1  and  C_2
    2  A    between atoms: C_2  and  N_3
    3  A    between atoms: C_10  and  C_17
    4  A    between atoms: C_16  and  C_20
    5  A    between atoms: C_17  and  N_27
                            x       y       z     vdW  Elec       q    Type
                         _______ _______ _______ _____ _____    ______ ____

>  <TORSDO>
F 5

$$$$
=
 OpenBabel11052418033D

 28 31  0  0  1  0  0  0  0  0999 V2000
  190.2210  174.4560  142.5830 C   0  0  2  0  0  3  0  0  0  0  0  0
  190.0880  176.0190  144.2940 C   0  0  2  0  0  3  0  0  0  0  0  0
  190.9400  174.8400  144.7920 C   0  0  2  0  0  3  0  0  0  0  0  0
  192.3090  175.1220  144.7310 O   0  0  0  0  0  1  0  0  0  0  0  0
  190.6310  173.7220  143.8330 C   0  0  0  0  0  2  0  0  0  0  0  0
  189.5210  175.6860  142.9860 N   0  0  0  0  0  0  0  0  0  0  0  0
  190.5850  177.9690  143.0010 O   0  0  0  0  0  1  0  0  0  0  0  0
  190.8270  177.3520  144.2290 C   0  0  0  0  0  2  0  0  0  0  0  0
  189.4700  173.5540  141.6000 C   0  0  0  0  0  2  0  0  0  0  0  0
  189.8620  173.8570  140.2220 N   0  0  0  0  0  0  0  0  0  0  0  0
  189.3510  171.8710  139.0060 C   0  0  2  0  0  3  0  0  0  0  0  0
  188.6130  174.0310  139.4890 C   0  0  0  0  0  2  0  0  0  0  0  0
  191.4420  171.8970  140.4160 C   0  0  0  0  0  1  0  0  0  0  0  0
  190.4750  172.7070  139.5550 C   0  0  2  0  0  3  0  0  0  0  0  0
  189.7200  171.3400  137.6360 C   0  0  0  0  0  1  0  0  0  0  0  0
  188.2040  172.7560  138.8990 N   0  0  0  0  0  2  0  0  0  0  0  0
  188.0890  175.4340  143.2010 C   0  0  0  0  0  2  0  0  0  0  0  0
  186.1290  176.8820  145.3780 C   0  0  1  0  0  3  0  0  0  0  0  0
  185.0720  177.7970  143.5040 C   0  0  0  0  0  0  0  0  0  0  0  0
  187.2420  176.6960  142.9970 C   0  0  2  0  0  3  0  0  0  0  0  0
  184.8160  177.6180  145.7150 C   0  0  2  0  0  3  0  0  0  0  0  0
  185.9750  176.6830  143.8650 C   0  0  1  0  0  3  0  0  0  0  0  0
  186.1020  178.1860  141.3150 C   0  0  0  0  0  2  0  0  0  0  0  0
  184.4240  178.3020  144.4940 N   0  0  0  0  0  0  0  0  0  0  0  0
  184.9900  178.3020  142.2070 O   0  0  0  0  0  0  0  0  0  0  0  0
  184.8890  178.7520  147.0970 Cl  0  0  0  0  0  0  0  0  0  0  0  0
  187.3570  177.7320  145.7110 C   0  0  0  0  0  1  0  0  0  0  0  0
  186.8650  176.8740  141.5220 C   0  0  0  0  0  2  0  0  0  0  0  0
  1  9  1  6  0  0  0
  1  6  1  0  0  0  0
  1  5  1  0  0  0  0
  2  8  1  6  0  0  0
  2  3  1  0  0  0  0
  3  4  1  6  0  0  0
  5  3  1  0  0  0  0
  6 17  1  0  0  0  0
  6  2  1  0  0  0  0
  7  8  1  0  0  0  0
 10  9  1  0  0  0  0
 11 15  1  6  0  0  0
 11 14  1  0  0  0  0
 12 10  1  0  0  0  0
 14 10  1  0  0  0  0
 14 13  1  1  0  0  0
 16 11  1  0  0  0  0
 16 12  1  0  0  0  0
 18 27  1  6  0  0  0
 18 21  1  0  0  0  0
 19 24  2  0  0  0  0
 20 17  1  6  0  0  0
 20 22  1  0  0  0  0
 21 26  1  1  0  0  0
 22 19  1  6  0  0  0
 22 18  1  0  0  0  0
 23 28  1  0  0  0  0
 23 25  1  0  0  0  0
 24 21  1  0  0  0  0
 25 19  1  0  0  0  0
 28 20  1  0  0  0  0
M  END
>  <MODEL>
2

>  <REMARK>
 VINA RESULT:      -6.9      2.696      5.011
  Name = 
  5 active torsions:
  status: ('A' for Active; 'I' for Inactive)
    1  A    between atoms: C_1  and  C_2
    2  A    between atoms: C_2  and  N_3
    3  A    between atoms: C_10  and  C_17
    4  A    between atoms: C_16  and  C_20
    5  A    between atoms: C_17  and  N_27
                            x       y       z     vdW  Elec       q    Type
                         _______ _______ _______ _____ _____    ______ ____

>  <TORSDO>
F 5

$$$$
=
 OpenBabel11052418033D

 28 31  0  0  1  0  0  0  0  0999 V2000
  190.4050  173.9270  143.1360 C   0  0  2  0  0  3  0  0  0  0  0  0
  189.4060  173.8900  141.0410 C   0  0  2  0  0  3  0  0  0  0  0  0
  190.7480  173.1450  140.9420 C   0  0  2  0  0  3  0  0  0  0  0  0
  190.5780  171.7570  140.9730 O   0  0  0  0  0  1  0  0  0  0  0  0
  191.5050  173.5710  142.1700 C   0  0  0  0  0  2  0  0  0  0  0  0
  189.2910  174.5040  142.3660 N   0  0  0  0  0  0  0  0  0  0  0  0
  187.4370  172.8500  141.9120 O   0  0  0  0  0  1  0  0  0  0  0  0
  188.1810  173.0300  140.7470 C   0  0  0  0  0  2  0  0  0  0  0  0
  190.9120  174.7720  144.3070 C   0  0  0  0  0  2  0  0  0  0  0  0
  192.3760  174.7740  144.3440 N   0  0  0  0  0  0  0  0  0  0  0  0
  192.9250  176.2080  146.1680 C   0  0  2  0  0  3  0  0  0  0  0  0
  192.7390  173.9780  145.5100 C   0  0  0  0  0  2  0  0  0  0  0  0
  192.2170  177.2700  143.9930 C   0  0  0  0  0  1  0  0  0  0  0  0
  192.9200  176.0940  144.6680 C   0  0  2  0  0  3  0  0  0  0  0  0
  194.1920  176.8980  146.6330 C   0  0  0  0  0  1  0  0  0  0  0  0
  192.8910  174.8480  146.6770 N   0  0  0  0  0  2  0  0  0  0  0  0
  189.4720  175.9490  142.1760 C   0  0  0  0  0  2  0  0  0  0  0  0
  187.8960  176.4830  144.9880 C   0  0  1  0  0  3  0  0  0  0  0  0
  186.0220  176.8190  143.6310 C   0  0  0  0  0  0  0  0  0  0  0  0
  188.1670  176.7280  142.3790 C   0  0  2  0  0  3  0  0  0  0  0  0
  186.5780  176.6020  145.7830 C   0  0  2  0  0  3  0  0  0  0  0  0
  187.3640  176.2000  143.5780 C   0  0  1  0  0  3  0  0  0  0  0  0
  186.0480  177.5540  141.2950 C   0  0  0  0  0  2  0  0  0  0  0  0
  185.5760  177.0260  144.8200 N   0  0  0  0  0  0  0  0  0  0  0  0
  185.3340  177.2100  142.4840 O   0  0  0  0  0  0  0  0  0  0  0  0
  186.6170  177.6930  147.2000 Cl  0  0  0  0  0  0  0  0  0  0  0  0
  188.7050  177.7810  145.0360 C   0  0  0  0  0  1  0  0  0  0  0  0
  187.3020  176.6940  141.1140 C   0  0  0  0  0  2  0  0  0  0  0  0
  1  9  1  1  0  0  0
  2  8  1  1  0  0  0
  2  6  1  0  0  0  0
  3  4  1  1  0  0  0
  3  2  1  0  0  0  0
  3  5  1  0  0  0  0
  5  1  1  0  0  0  0
  6  1  1  0  0  0  0
  8  7  1  0  0  0  0
  9 10  1  0  0  0  0
 10 14  1  0  0  0  0
 10 12  1  0  0  0  0
 11 15  1  6  0  0  0
 11 16  1  0  0  0  0
 12 16  1  0  0  0  0
 14 13  1  6  0  0  0
 14 11  1  0  0  0  0
 17  6  1  0  0  0  0
 18 27  1  6  0  0  0
 18 21  1  0  0  0  0
 19 24  2  0  0  0  0
 20 17  1  6  0  0  0
 20 22  1  0  0  0  0
 21 26  1  1  0  0  0
 22 19  1  1  0  0  0
 22 18  1  0  0  0  0
 23 25  1  0  0  0  0
 24 21  1  0  0  0  0
 25 19  1  0  0  0  0
 28 23  1  0  0  0  0
 28 20  1  0  0  0  0
M  END
>  <MODEL>
3

>  <REMARK>
 VINA RESULT:      -6.9      2.907      5.537
  Name = 
  5 active torsions:
  status: ('A' for Active; 'I' for Inactive)
    1  A    between atoms: C_1  and  C_2
    2  A    between atoms: C_2  and  N_3
    3  A    between atoms: C_10  and  C_17
    4  A    between atoms: C_16  and  C_20
    5  A    between atoms: C_17  and  N_27
                            x       y       z     vdW  Elec       q    Type
                         _______ _______ _______ _____ _____    ______ ____

>  <TORSDO>
F 5

$$$$
=
 OpenBabel11052418033D

 28 31  0  0  1  0  0  0  0  0999 V2000
  190.8230  175.0440  143.3980 C   0  0  2  0  0  3  0  0  0  0  0  0
  190.3090  175.6050  145.5910 C   0  0  2  0  0  3  0  0  0  0  0  0
  191.1630  174.3260  145.6140 C   0  0  2  0  0  3  0  0  0  0  0  0
  192.4990  174.5960  145.9290 O   0  0  0  0  0  1  0  0  0  0  0  0
  191.0920  173.8020  144.2050 C   0  0  0  0  0  2  0  0  0  0  0  0
  189.9770  175.9380  144.2040 N   0  0  0  0  0  0  0  0  0  0  0  0
  190.6200  176.7920  147.6440 O   0  0  0  0  0  1  0  0  0  0  0  0
  190.9450  176.8040  146.2870 C   0  0  0  0  0  2  0  0  0  0  0  0
  190.3040  174.7230  141.9940 C   0  0  0  0  0  2  0  0  0  0  0  0
  190.6220  173.3410  141.6320 N   0  0  0  0  0  0  0  0  0  0  0  0
  189.5780  173.0240  139.5120 C   0  0  2  0  0  3  0  0  0  0  0  0
  191.6160  173.4330  140.5700 C   0  0  0  0  0  2  0  0  0  0  0  0
  188.1270  172.9560  141.5730 C   0  0  0  0  0  1  0  0  0  0  0  0
  189.5010  172.6690  140.9720 C   0  0  2  0  0  3  0  0  0  0  0  0
  189.2410  171.8140  138.6640 C   0  0  0  0  0  1  0  0  0  0  0  0
  190.9510  173.4290  139.2660 N   0  0  0  0  0  2  0  0  0  0  0  0
  188.5530  175.6220  144.0260 C   0  0  0  0  0  2  0  0  0  0  0  0
  186.1880  176.8220  145.9360 C   0  0  1  0  0  3  0  0  0  0  0  0
  185.4410  177.8790  143.9900 C   0  0  0  0  0  0  0  0  0  0  0  0
  187.7060  176.8780  143.7840 C   0  0  2  0  0  3  0  0  0  0  0  0
  184.8090  177.4940  146.0960 C   0  0  2  0  0  3  0  0  0  0  0  0
  186.3090  176.7570  144.4090 C   0  0  1  0  0  3  0  0  0  0  0  0
  186.8210  178.4880  142.0590 C   0  0  0  0  0  2  0  0  0  0  0  0
  184.6110  178.2770  144.8880 N   0  0  0  0  0  0  0  0  0  0  0  0
  185.5680  178.4970  142.7470 O   0  0  0  0  0  0  0  0  0  0  0  0
  184.5960  178.4990  147.5610 Cl  0  0  0  0  0  0  0  0  0  0  0  0
  187.3060  177.6650  146.5540 C   0  0  0  0  0  1  0  0  0  0  0  0
  187.5870  177.1810  142.2860 C   0  0  0  0  0  2  0  0  0  0  0  0
  1  9  1  6  0  0  0
  1  6  1  0  0  0  0
  1  5  1  0  0  0  0
  2  3  1  0  0  0  0
  2  8  1  6  0  0  0
  3  4  1  6  0  0  0
  5  3  1  0  0  0  0
  6  2  1  0  0  0  0
  8  7  1  0  0  0  0
 10  9  1  0  0  0  0
 11 15  1  6  0  0  0
 11 14  1  0  0  0  0
 12 10  1  0  0  0  0
 14 13  1  1  0  0  0
 14 10  1  0  0  0  0
 16 11  1  0  0  0  0
 16 12  1  0  0  0  0
 17  6  1  0  0  0  0
 18 21  1  0  0  0  0
 18 27  1  6  0  0  0
 19 24  2  0  0  0  0
 20 17  1  6  0  0  0
 20 22  1  0  0  0  0
 21 26  1  1  0  0  0
 22 19  1  6  0  0  0
 22 18  1  0  0  0  0
 23 28  1  0  0  0  0
 23 25  1  0  0  0  0
 24 21  1  0  0  0  0
 25 19  1  0  0  0  0
 28 20  1  0  0  0  0
M  END
>  <MODEL>
4

>  <REMARK>
 VINA RESULT:      -6.8      2.552      5.140
  Name = 
  5 active torsions:
  status: ('A' for Active; 'I' for Inactive)
    1  A    between atoms: C_1  and  C_2
    2  A    between atoms: C_2  and  N_3
    3  A    between atoms: C_10  and  C_17
    4  A    between atoms: C_16  and  C_20
    5  A    between atoms: C_17  and  N_27
                            x       y       z     vdW  Elec       q    Type
                         _______ _______ _______ _____ _____    ______ ____

>  <TORSDO>
F 5

$$$$
=
 OpenBabel11052418033D

 28 31  0  0  1  0  0  0  0  0999 V2000
  189.9870  175.5750  145.4240 C   0  0  2  0  0  3  0  0  0  0  0  0
  189.8160  176.8050  147.3850 C   0  0  2  0  0  3  0  0  0  0  0  0
  190.9550  175.7860  147.5600 C   0  0  2  0  0  3  0  0  0  0  0  0
  192.2120  176.3720  147.3810 O   0  0  0  0  0  1  0  0  0  0  0  0
  190.7280  174.7780  146.4660 C   0  0  0  0  0  2  0  0  0  0  0  0
  189.1270  176.5470  146.1190 N   0  0  0  0  0  0  0  0  0  0  0  0
  189.8700  178.8090  148.6890 O   0  0  0  0  0  1  0  0  0  0  0  0
  190.2540  178.2640  147.4640 C   0  0  0  0  0  2  0  0  0  0  0  0
  189.2860  174.6800  144.3990 C   0  0  0  0  0  2  0  0  0  0  0  0
  190.1690  174.4120  143.2620 N   0  0  0  0  0  0  0  0  0  0  0  0
  188.7220  173.5560  141.5720 C   0  0  2  0  0  3  0  0  0  0  0  0
  189.8760  175.4530  142.2850 C   0  0  0  0  0  2  0  0  0  0  0  0
  189.4030  172.0130  143.4460 C   0  0  0  0  0  1  0  0  0  0  0  0
  189.8010  173.1850  142.5530 C   0  0  2  0  0  3  0  0  0  0  0  0
  188.9340  172.8220  140.2630 C   0  0  0  0  0  1  0  0  0  0  0  0
  188.8430  174.9880  141.3590 N   0  0  0  0  0  2  0  0  0  0  0  0
  187.8280  175.9530  146.4620 C   0  0  0  0  0  2  0  0  0  0  0  0
  187.0140  177.3940  143.6440 C   0  0  1  0  0  3  0  0  0  0  0  0
  185.9400  178.9670  145.0010 C   0  0  0  0  0  0  0  0  0  0  0  0
  186.6650  176.9210  146.2120 C   0  0  2  0  0  3  0  0  0  0  0  0
  186.5120  178.6300  142.8690 C   0  0  2  0  0  3  0  0  0  0  0  0
  186.9780  177.9170  145.0850 C   0  0  1  0  0  3  0  0  0  0  0  0
  185.0700  178.5690  147.2570 C   0  0  0  0  0  2  0  0  0  0  0  0
  185.6890  179.3750  143.8070 N   0  0  0  0  0  0  0  0  0  0  0  0
  185.2430  179.4190  146.1200 O   0  0  0  0  0  0  0  0  0  0  0  0
  185.6210  178.2930  141.3540 Cl  0  0  0  0  0  0  0  0  0  0  0  0
  186.0850  176.1930  143.4580 C   0  0  0  0  0  1  0  0  0  0  0  0
  186.2940  177.6780  147.4920 C   0  0  0  0  0  2  0  0  0  0  0  0
  1  9  1  1  0  0  0
  1  6  1  0  0  0  0
  1  5  1  0  0  0  0
  2  8  1  6  0  0  0
  2  3  1  0  0  0  0
  3  4  1  6  0  0  0
  5  3  1  0  0  0  0
  6 17  1  0  0  0  0
  6  2  1  0  0  0  0
  8  7  1  0  0  0  0
 10  9  1  0  0  0  0
 11 15  1  6  0  0  0
 11 14  1  0  0  0  0
 12 10  1  0  0  0  0
 14 10  1  0  0  0  0
 14 13  1  1  0  0  0
 16 11  1  0  0  0  0
 16 12  1  0  0  0  0
 18 27  1  1  0  0  0
 18 22  1  0  0  0  0
 19 25  1  0  0  0  0
 20 17  1  1  0  0  0
 20 28  1  0  0  0  0
 21 26  1  6  0  0  0
 21 18  1  0  0  0  0
 21 24  1  0  0  0  0
 22 19  1  6  0  0  0
 22 20  1  0  0  0  0
 23 28  1  0  0  0  0
 24 19  2  0  0  0  0
 25 23  1  0  0  0  0
M  END
>  <MODEL>
5

>  <REMARK>
 VINA RESULT:      -6.8      2.700      5.293
  Name = 
  5 active torsions:
  status: ('A' for Active; 'I' for Inactive)
    1  A    between atoms: C_1  and  C_2
    2  A    between atoms: C_2  and  N_3
    3  A    between atoms: C_10  and  C_17
    4  A    between atoms: C_16  and  C_20
    5  A    between atoms: C_17  and  N_27
                            x       y       z     vdW  Elec       q    Type
                         _______ _______ _______ _____ _____    ______ ____

>  <TORSDO>
F 5

$$$$
=
 OpenBabel11052418033D

 28 31  0  0  1  0  0  0  0  0999 V2000
  187.7180  176.8890  143.7610 C   0  0  2  0  0  3  0  0  0  0  0  0
  186.5490  176.8970  141.7560 C   0  0  2  0  0  3  0  0  0  0  0  0
  185.7030  177.6410  142.8030 C   0  0  2  0  0  3  0  0  0  0  0  0
  185.8090  179.0290  142.6700 O   0  0  0  0  0  1  0  0  0  0  0  0
  186.2970  177.2330  144.1240 C   0  0  0  0  0  2  0  0  0  0  0  0
  187.7150  176.3020  142.4120 N   0  0  0  0  0  0  0  0  0  0  0  0
  186.4780  177.2160  139.3870 O   0  0  0  0  0  1  0  0  0  0  0  0
  186.9860  177.7520  140.5710 C   0  0  0  0  0  2  0  0  0  0  0  0
  188.4100  176.0610  144.8460 C   0  0  0  0  0  2  0  0  0  0  0  0
  189.1670  176.9280  145.7520 N   0  0  0  0  0  0  0  0  0  0  0  0
  191.2910  175.8670  145.9590 C   0  0  2  0  0  3  0  0  0  0  0  0
  190.1470  177.6090  144.9130 C   0  0  0  0  0  2  0  0  0  0  0  0
  189.3530  174.9130  147.2610 C   0  0  0  0  0  1  0  0  0  0  0  0
  190.0040  176.1650  146.6790 C   0  0  2  0  0  3  0  0  0  0  0  0
  192.4640  176.0130  146.9080 C   0  0  0  0  0  1  0  0  0  0  0  0
  191.3960  176.8480  144.8940 N   0  0  0  0  0  2  0  0  0  0  0  0
  187.4730  174.8540  142.4660 C   0  0  0  0  0  2  0  0  0  0  0  0
  190.1940  173.4390  143.5960 C   0  0  1  0  0  3  0  0  0  0  0  0
  190.9360  173.5820  141.3830 C   0  0  0  0  0  0  0  0  0  0  0  0
  188.5140  174.0620  141.6650 C   0  0  2  0  0  3  0  0  0  0  0  0
  191.6840  173.0770  143.4250 C   0  0  2  0  0  3  0  0  0  0  0  0
  189.9170  174.1730  142.2780 C   0  0  1  0  0  3  0  0  0  0  0  0
  189.5160  173.6550  139.3890 C   0  0  0  0  0  2  0  0  0  0  0  0
  191.9080  173.0000  141.9920 N   0  0  0  0  0  0  0  0  0  0  0  0
  190.8080  173.5950  139.9960 O   0  0  0  0  0  0  0  0  0  0  0  0
  192.2220  171.5800  144.2460 Cl  0  0  0  0  0  0  0  0  0  0  0  0
  189.3200  172.1910  143.7390 C   0  0  0  0  0  1  0  0  0  0  0  0
  188.5440  174.5160  140.2010 C   0  0  0  0  0  2  0  0  0  0  0  0
  1  5  1  0  0  0  0
  1  9  1  1  0  0  0
  2  8  1  6  0  0  0
  2  6  1  0  0  0  0
  2  3  1  0  0  0  0
  3  4  1  6  0  0  0
  3  5  1  0  0  0  0
  6 17  1  0  0  0  0
  6  1  1  0  0  0  0
  7  8  1  0  0  0  0
  9 10  1  0  0  0  0
 10 14  1  0  0  0  0
 11 14  1  0  0  0  0
 11 15  1  1  0  0  0
 12 10  1  0  0  0  0
 14 13  1  6  0  0  0
 16 12  1  0  0  0  0
 16 11  1  0  0  0  0
 18 27  1  6  0  0  0
 19 24  2  0  0  0  0
 20 22  1  0  0  0  0
 20 17  1  1  0  0  0
 21 18  1  0  0  0  0
 21 26  1  1  0  0  0
 22 19  1  6  0  0  0
 22 18  1  0  0  0  0
 23 25  1  0  0  0  0
 23 28  1  0  0  0  0
 24 21  1  0  0  0  0
 25 19  1  0  0  0  0
 28 20  1  0  0  0  0
M  END
>  <MODEL>
6

>  <REMARK>
 VINA RESULT:      -6.7      2.264      5.199
  Name = 
  5 active torsions:
  status: ('A' for Active; 'I' for Inactive)
    1  A    between atoms: C_1  and  C_2
    2  A    between atoms: C_2  and  N_3
    3  A    between atoms: C_10  and  C_17
    4  A    between atoms: C_16  and  C_20
    5  A    between atoms: C_17  and  N_27
                            x       y       z     vdW  Elec       q    Type
                         _______ _______ _______ _____ _____    ______ ____

>  <TORSDO>
F 5

$$$$
=
 OpenBabel11052418033D

 28 31  0  0  1  0  0  0  0  0999 V2000
  191.5500  173.9970  142.9150 C   0  0  2  0  0  3  0  0  0  0  0  0
  189.3950  173.9460  142.0530 C   0  0  2  0  0  3  0  0  0  0  0  0
  190.3790  173.7850  140.8830 C   0  0  2  0  0  3  0  0  0  0  0  0
  190.5000  172.4500  140.4820 O   0  0  0  0  0  1  0  0  0  0  0  0
  191.7000  174.2470  141.4370 C   0  0  0  0  0  2  0  0  0  0  0  0
  190.1440  174.2380  143.2770 N   0  0  0  0  0  0  0  0  0  0  0  0
  188.9580  171.9520  143.3010 O   0  0  0  0  0  1  0  0  0  0  0  0
  188.4680  172.7540  142.2700 C   0  0  0  0  0  2  0  0  0  0  0  0
  192.5900  174.7590  143.7400 C   0  0  0  0  0  2  0  0  0  0  0  0
  193.0410  173.9470  144.8730 N   0  0  0  0  0  0  0  0  0  0  0  0
  195.2760  174.6750  145.2750 C   0  0  2  0  0  3  0  0  0  0  0  0
  193.0710  174.8530  146.0150 C   0  0  0  0  0  2  0  0  0  0  0  0
  194.8640  173.1150  143.3370 C   0  0  0  0  0  1  0  0  0  0  0  0
  194.4420  173.5420  144.7410 C   0  0  2  0  0  3  0  0  0  0  0  0
  196.4430  174.1300  146.0730 C   0  0  0  0  0  1  0  0  0  0  0  0
  194.4030  175.4450  146.1440 N   0  0  0  0  0  2  0  0  0  0  0  0
  189.9120  175.6550  143.5840 C   0  0  0  0  0  2  0  0  0  0  0  0
  187.3000  177.6100  143.3920 C   0  0  1  0  0  3  0  0  0  0  0  0
  187.3030  177.4940  145.7270 C   0  0  0  0  0  0  0  0  0  0  0  0
  188.8130  175.8490  144.6360 C   0  0  2  0  0  3  0  0  0  0  0  0
  186.3110  178.5920  144.0550 C   0  0  2  0  0  3  0  0  0  0  0  0
  188.2050  177.2580  144.5790 C   0  0  1  0  0  3  0  0  0  0  0  0
  188.2170  175.6660  147.0780 C   0  0  0  0  0  2  0  0  0  0  0  0
  186.2820  178.2290  145.4620 N   0  0  0  0  0  0  0  0  0  0  0  0
  187.5100  176.9030  146.9720 O   0  0  0  0  0  0  0  0  0  0  0  0
  184.6630  178.6270  143.3600 Cl  0  0  0  0  0  0  0  0  0  0  0  0
  186.5870  176.3730  142.8400 C   0  0  0  0  0  1  0  0  0  0  0  0
  189.3450  175.5640  146.0450 C   0  0  0  0  0  2  0  0  0  0  0  0
  1  6  1  0  0  0  0
  1  9  1  1  0  0  0
  2  8  1  1  0  0  0
  2  6  1  0  0  0  0
  3  4  1  1  0  0  0
  3  5  1  0  0  0  0
  3  2  1  0  0  0  0
  5  1  1  0  0  0  0
  6 17  1  0  0  0  0
  8  7  1  0  0  0  0
  9 10  1  0  0  0  0
 10 12  1  0  0  0  0
 11 15  1  1  0  0  0
 11 16  1  0  0  0  0
 12 16  1  0  0  0  0
 14 13  1  6  0  0  0
 14 10  1  0  0  0  0
 14 11  1  0  0  0  0
 18 27  1  1  0  0  0
 18 21  1  0  0  0  0
 18 22  1  0  0  0  0
 19 25  1  0  0  0  0
 20 17  1  6  0  0  0
 20 28  1  0  0  0  0
 21 26  1  6  0  0  0
 21 24  1  0  0  0  0
 22 20  1  0  0  0  0
 22 19  1  1  0  0  0
 24 19  2  0  0  0  0
 25 23  1  0  0  0  0
 28 23  1  0  0  0  0
M  END
>  <MODEL>
7

>  <REMARK>
 VINA RESULT:      -6.4      3.641      5.735
  Name = 
  5 active torsions:
  status: ('A' for Active; 'I' for Inactive)
    1  A    between atoms: C_1  and  C_2
    2  A    between atoms: C_2  and  N_3
    3  A    between atoms: C_10  and  C_17
    4  A    between atoms: C_16  and  C_20
    5  A    between atoms: C_17  and  N_27
                            x       y       z     vdW  Elec       q    Type
                         _______ _______ _______ _____ _____    ______ ____

>  <TORSDO>
F 5

$$$$
=
 OpenBabel11052418033D

 28 31  0  0  1  0  0  0  0  0999 V2000
  187.7070  176.7240  143.7440 C   0  0  2  0  0  3  0  0  0  0  0  0
  186.7320  176.6010  141.6410 C   0  0  2  0  0  3  0  0  0  0  0  0
  185.6790  177.1420  142.6230 C   0  0  2  0  0  3  0  0  0  0  0  0
  185.5430  178.5310  142.5300 O   0  0  0  0  0  1  0  0  0  0  0  0
  186.2210  176.7960  143.9830 C   0  0  0  0  0  2  0  0  0  0  0  0
  187.9260  176.1980  142.3870 N   0  0  0  0  0  0  0  0  0  0  0  0
  186.2810  177.3530  139.4160 O   0  0  0  0  0  1  0  0  0  0  0  0
  187.1070  177.5650  140.5200 C   0  0  0  0  0  2  0  0  0  0  0  0
  188.4410  175.9910  144.8690 C   0  0  0  0  0  2  0  0  0  0  0  0
  189.1560  176.9430  145.7220 N   0  0  0  0  0  0  0  0  0  0  0  0
  191.3730  176.0770  145.8550 C   0  0  2  0  0  3  0  0  0  0  0  0
  190.0340  177.6870  144.8280 C   0  0  0  0  0  2  0  0  0  0  0  0
  189.5850  174.9870  147.2610 C   0  0  0  0  0  1  0  0  0  0  0  0
  190.0970  176.2780  146.6260 C   0  0  2  0  0  3  0  0  0  0  0  0
  192.5670  176.3470  146.7480 C   0  0  0  0  0  1  0  0  0  0  0  0
  191.3440  177.0380  144.7670 N   0  0  0  0  0  2  0  0  0  0  0  0
  187.9450  174.7290  142.3860 C   0  0  0  0  0  2  0  0  0  0  0  0
  188.3090  172.9730  139.6550 C   0  0  1  0  0  3  0  0  0  0  0  0
  190.2960  172.2370  140.6430 C   0  0  0  0  0  0  0  0  0  0  0  0
  189.2490  174.1670  141.8070 C   0  0  2  0  0  3  0  0  0  0  0  0
  188.9830  171.8160  138.8870 C   0  0  2  0  0  3  0  0  0  0  0  0
  189.0130  172.8730  141.0130 C   0  0  1  0  0  3  0  0  0  0  0  0
  191.6120  173.4540  142.3130 C   0  0  0  0  0  2  0  0  0  0  0  0
  190.2890  171.6450  139.5010 N   0  0  0  0  0  0  0  0  0  0  0  0
  191.4360  172.3370  141.4390 O   0  0  0  0  0  0  0  0  0  0  0  0
  189.1230  172.0320  137.1160 Cl  0  0  0  0  0  0  0  0  0  0  0  0
  188.5670  174.3240  138.9850 C   0  0  0  0  0  1  0  0  0  0  0  0
  190.2830  173.9240  142.9120 C   0  0  0  0  0  2  0  0  0  0  0  0
  1  5  1  0  0  0  0
  1  9  1  1  0  0  0
  2  8  1  6  0  0  0
  2  6  1  0  0  0  0
  2  3  1  0  0  0  0
  3  4  1  1  0  0  0
  3  5  1  0  0  0  0
  6  1  1  0  0  0  0
  7  8  1  0  0  0  0
  9 10  1  0  0  0  0
 10 14  1  0  0  0  0
 11 14  1  0  0  0  0
 11 15  1  1  0  0  0
 12 10  1  0  0  0  0
 14 13  1  6  0  0  0
 16 12  1  0  0  0  0
 16 11  1  0  0  0  0
 17  6  1  0  0  0  0
 18 27  1  6  0  0  0
 18 22  1  0  0  0  0
 19 25  1  0  0  0  0
 20 17  1  1  0  0  0
 20 28  1  0  0  0  0
 21 26  1  6  0  0  0
 21 24  1  0  0  0  0
 21 18  1  0  0  0  0
 22 19  1  6  0  0  0
 22 20  1  0  0  0  0
 23 28  1  0  0  0  0
 24 19  2  0  0  0  0
 25 23  1  0  0  0  0
M  END
>  <MODEL>
8

>  <REMARK>
 VINA RESULT:      -6.4      2.970      5.933
  Name = 
  5 active torsions:
  status: ('A' for Active; 'I' for Inactive)
    1  A    between atoms: C_1  and  C_2
    2  A    between atoms: C_2  and  N_3
    3  A    between atoms: C_10  and  C_17
    4  A    between atoms: C_16  and  C_20
    5  A    between atoms: C_17  and  N_27
                            x       y       z     vdW  Elec       q    Type
                         _______ _______ _______ _____ _____    ______ ____

>  <TORSDO>
F 5

$$$$
=
 OpenBabel11052418033D

 28 31  0  0  1  0  0  0  0  0999 V2000
  188.3670  175.9440  142.7530 C   0  0  2  0  0  3  0  0  0  0  0  0
  189.7540  174.1110  142.4270 C   0  0  2  0  0  3  0  0  0  0  0  0
  188.4130  173.8230  141.7310 C   0  0  2  0  0  3  0  0  0  0  0  0
  188.4850  174.0370  140.3510 O   0  0  0  0  0  1  0  0  0  0  0  0
  187.4580  174.8200  142.3290 C   0  0  0  0  0  2  0  0  0  0  0  0
  189.6450  175.3570  143.1880 N   0  0  0  0  0  0  0  0  0  0  0  0
  191.6730  172.9710  141.5700 O   0  0  0  0  0  1  0  0  0  0  0  0
  190.9560  174.1640  141.4900 C   0  0  0  0  0  2  0  0  0  0  0  0
  187.6950  176.8900  143.7500 C   0  0  0  0  0  2  0  0  0  0  0  0
  186.2380  176.7770  143.6640 N   0  0  0  0  0  0  0  0  0  0  0  0
  185.4200  178.6490  144.8930 C   0  0  2  0  0  3  0  0  0  0  0  0
  185.8170  177.8280  142.7460 C   0  0  0  0  0  2  0  0  0  0  0  0
  186.2640  176.6550  146.1860 C   0  0  0  0  0  1  0  0  0  0  0  0
  185.5780  177.1530  144.9160 C   0  0  2  0  0  3  0  0  0  0  0  0
  184.0710  179.0380  145.4630 C   0  0  0  0  0  1  0  0  0  0  0  0
  185.4950  179.0420  143.4960 N   0  0  0  0  0  2  0  0  0  0  0  0
  189.5970  174.9800  144.6070 C   0  0  0  0  0  2  0  0  0  0  0  0
  192.8440  175.3490  144.5420 C   0  0  1  0  0  3  0  0  0  0  0  0
  192.5870  176.1440  146.7250 C   0  0  0  0  0  0  0  0  0  0  0  0
  190.4480  175.9090  145.4830 C   0  0  2  0  0  3  0  0  0  0  0  0
  194.1830  175.5510  145.2810 C   0  0  2  0  0  3  0  0  0  0  0  0
  191.8580  175.3460  145.7160 C   0  0  1  0  0  3  0  0  0  0  0  0
  190.5720  177.1820  147.6540 C   0  0  0  0  0  2  0  0  0  0  0  0
  193.8510  176.2480  146.5120 N   0  0  0  0  0  0  0  0  0  0  0  0
  191.9400  176.7870  147.7790 O   0  0  0  0  0  0  0  0  0  0  0  0
  195.4550  176.4180  144.3680 Cl  0  0  0  0  0  0  0  0  0  0  0  0
  192.5550  176.4930  143.5670 C   0  0  0  0  0  1  0  0  0  0  0  0
  189.7620  176.1790  146.8270 C   0  0  0  0  0  2  0  0  0  0  0  0
  1  6  1  0  0  0  0
  1  9  1  1  0  0  0
  2  8  1  6  0  0  0
  2  6  1  0  0  0  0
  3  4  1  6  0  0  0
  3  5  1  0  0  0  0
  3  2  1  0  0  0  0
  5  1  1  0  0  0  0
  6 17  1  0  0  0  0
  8  7  1  0  0  0  0
 10  9  1  0  0  0  0
 10 14  1  0  0  0  0
 11 14  1  0  0  0  0
 11 15  1  6  0  0  0
 12 16  1  0  0  0  0
 12 10  1  0  0  0  0
 14 13  1  1  0  0  0
 16 11  1  0  0  0  0
 18 27  1  6  0  0  0
 18 21  1  0  0  0  0
 18 22  1  0  0  0  0
 19 25  1  0  0  0  0
 20 17  1  6  0  0  0
 20 22  1  0  0  0  0
 20 28  1  0  0  0  0
 21 26  1  6  0  0  0
 21 24  1  0  0  0  0
 22 19  1  1  0  0  0
 23 25  1  0  0  0  0
 24 19  2  0  0  0  0
 28 23  1  0  0  0  0
M  END
>  <MODEL>
9

>  <REMARK>
 VINA RESULT:      -6.3      2.834      5.448
  Name = 
  5 active torsions:
  status: ('A' for Active; 'I' for Inactive)
    1  A    between atoms: C_1  and  C_2
    2  A    between atoms: C_2  and  N_3
    3  A    between atoms: C_10  and  C_17
    4  A    between atoms: C_16  and  C_20
    5  A    between atoms: C_17  and  N_27
                            x       y       z     vdW  Elec       q    Type
                         _______ _______ _______ _____ _____    ______ ____

>  <TORSDO>
F 5

$$$$
