=
 OpenBabel11052417073D

 30 33  0  0  1  0  0  0  0  0999 V2000
  187.7550  175.9590  143.5790 C   0  0  2  0  0  3  0  0  0  0  0  0
  189.2610  176.3330  143.7640 C   0  0  1  0  0  0  0  0  0  0  0  0
  187.4870  174.7210  142.7170 C   0  0  0  0  0  2  0  0  0  0  0  0
  190.9740  173.7720  140.9630 S   0  0  0  0  0  0  0  0  0  0  0  0
  191.9860  176.2560  144.6390 C   0  0  2  0  0  3  0  0  0  0  0  0
  189.8500  174.3010  142.2800 C   0  0  2  0  0  3  0  0  0  0  0  0
  188.2670  173.4420  140.7040 C   0  0  0  0  0  2  0  0  0  0  0  0
  191.0040  176.9120  145.6220 C   0  0  0  0  0  2  0  0  0  0  0  0
  188.5330  174.6020  141.6280 C   0  0  1  0  0  3  0  0  0  0  0  0
  190.3840  175.5060  143.0600 C   0  0  2  0  0  3  0  0  0  0  0  0
  189.5540  173.8600  138.6860 N   0  0  0  0  0  1  0  0  0  0  0  0
  189.5670  173.1670  139.9620 C   0  0  1  0  0  3  0  0  0  0  0  0
  189.5800  177.8230  143.7690 C   0  0  0  0  0  2  0  0  0  0  0  0
  189.5730  177.0590  145.0810 C   0  0  1  0  0  3  0  0  0  0  0  0
  190.8930  174.2420  144.9100 O   0  0  0  0  0  1  0  0  0  0  0  0
  191.4420  175.0670  143.9780 N   0  0  0  0  0  0  0  0  0  0  0  0
  193.2870  176.0530  145.1510 O   0  0  0  0  0  0  0  0  0  0  0  0
  194.3380  177.2100  146.8150 O   0  0  0  0  0  1  0  0  0  0  0  0
  193.2930  176.3340  146.5250 C   0  0  0  0  0  2  0  0  0  0  0  0
  186.7490  177.0930  143.2830 C   0  0  2  0  0  3  0  0  0  0  0  0
  185.9200  177.5230  144.5110 C   0  0  0  0  0  3  0  0  0  0  0  0
  186.2930  178.9200  145.0010 C   0  0  0  0  0  2  0  0  0  0  0  0
  185.3960  179.9620  144.3620 C   0  0  0  0  0  1  0  0  0  0  0  0
  186.0080  176.5060  145.6530 C   0  0  0  0  0  2  0  0  0  0  0  0
  186.1120  177.1740  147.0170 C   0  0  0  0  0  1  0  0  0  0  0  0
  185.9250  176.7240  142.2140 O   0  0  0  0  0  0  0  0  0  0  0  0
  185.8510  177.8590  141.4060 C   0  0  0  0  0  2  0  0  0  0  0  0
  184.4260  178.2330  141.2060 C   0  0  0  0  0  0  0  0  0  0  0  0
  183.4980  178.0010  142.2120 O   0  0  0  0  0  1  0  0  0  0  0  0
  184.0660  178.7900  140.1360 O   0  0  0  0  0  0  0  0  0  0  0  0
  1 20  1  6  0  0  0
  1  2  1  0  0  0  0
  2 13  1  6  0  0  0
  2 14  1  0  0  0  0
  3  1  1  0  0  0  0
  5 17  1  1  0  0  0
  5  8  1  0  0  0  0
  6  4  1  6  0  0  0
  6 10  1  0  0  0  0
  9  7  1  6  0  0  0
  9  6  1  0  0  0  0
  9  3  1  0  0  0  0
 10  2  1  0  0  0  0
 10 16  1  1  0  0  0
 12 11  1  6  0  0  0
 12  7  1  0  0  0  0
 12  4  1  0  0  0  0
 14 13  1  6  0  0  0
 14  8  1  0  0  0  0
 16  5  1  0  0  0  0
 16 15  1  0  0  0  0
 17 19  1  0  0  0  0
 19 18  1  0  0  0  0
 20 26  1  6  0  0  0
 20 21  1  0  0  0  0
 21 22  1  0  0  0  0
 21 24  1  0  0  0  0
 23 22  1  0  0  0  0
 24 25  1  0  0  0  0
 27 26  1  0  0  0  0
 28 27  1  0  0  0  0
 28 29  1  0  0  0  0
 30 28  2  0  0  0  0
M  END
>  <MODEL>
1

>  <REMARK>
 VINA RESULT:      -6.5      0.000      0.000
  Name = 
  9 active torsions:
  status: ('A' for Active; 'I' for Inactive)
    1  A    between atoms: C_1  and  C_22
    2  A    between atoms: C_2  and  C_14
    3  A    between atoms: C_3  and  C_19
    4  A    between atoms: C_7  and  O_16
    5  A    between atoms: C_14  and  C_20
    6  A    between atoms: C_14  and  C_22
    7  A    between atoms: O_16  and  C_26
    8  A    between atoms: C_19  and  O_29
    9  A    between atoms: C_22  and  O_29
                            x       y       z     vdW  Elec       q    Type
                         _______ _______ _______ _____ _____    ______ ____

>  <TORSDO>
F 9

$$$$
=
 OpenBabel11052417073D

 30 33  0  0  1  0  0  0  0  0999 V2000
  187.8380  176.5620  144.3330 C   0  0  2  0  0  3  0  0  0  0  0  0
  189.3580  176.5690  144.6980 C   0  0  1  0  0  0  0  0  0  0  0  0
  187.3760  175.3860  143.4670 C   0  0  0  0  0  2  0  0  0  0  0  0
  190.7010  173.5370  142.1790 S   0  0  0  0  0  0  0  0  0  0  0  0
  191.8590  175.8750  145.9080 C   0  0  2  0  0  3  0  0  0  0  0  0
  189.5960  174.3860  143.3350 C   0  0  2  0  0  3  0  0  0  0  0  0
  188.0450  173.8610  141.5900 C   0  0  0  0  0  2  0  0  0  0  0  0
  190.9620  176.7960  146.7480 C   0  0  0  0  0  2  0  0  0  0  0  0
  188.4800  174.9650  142.5190 C   0  0  1  0  0  3  0  0  0  0  0  0
  190.3160  175.4610  144.1540 C   0  0  2  0  0  3  0  0  0  0  0  0
  189.6220  173.8580  139.7410 N   0  0  0  0  0  1  0  0  0  0  0  0
  189.3140  173.2440  141.0210 C   0  0  1  0  0  3  0  0  0  0  0  0
  190.0320  177.9360  144.7160 C   0  0  0  0  0  2  0  0  0  0  0  0
  189.6840  177.2600  146.0300 C   0  0  1  0  0  3  0  0  0  0  0  0
  190.2790  174.2020  146.0760 O   0  0  0  0  0  1  0  0  0  0  0  0
  191.1190  174.8240  145.2040 N   0  0  0  0  0  0  0  0  0  0  0  0
  193.0010  175.3880  146.5810 O   0  0  0  0  0  0  0  0  0  0  0  0
  194.0480  176.7650  145.0910 O   0  0  0  0  0  1  0  0  0  0  0  0
  194.0630  176.2860  146.4000 C   0  0  0  0  0  2  0  0  0  0  0  0
  187.1850  177.8910  143.8940 C   0  0  2  0  0  3  0  0  0  0  0  0
  186.4790  178.6440  145.0410 C   0  0  0  0  0  3  0  0  0  0  0  0
  185.9820  177.7000  146.1330 C   0  0  0  0  0  2  0  0  0  0  0  0
  186.4560  178.1690  147.4940 C   0  0  0  0  0  1  0  0  0  0  0  0
  185.3410  179.5340  144.5340 C   0  0  0  0  0  2  0  0  0  0  0  0
  183.9700  179.0000  144.9230 C   0  0  0  0  0  1  0  0  0  0  0  0
  186.3120  177.6550  142.8250 O   0  0  0  0  0  0  0  0  0  0  0  0
  186.9340  178.2340  141.7180 C   0  0  0  0  0  2  0  0  0  0  0  0
  186.2050  177.8460  140.4810 C   0  0  0  0  0  0  0  0  0  0  0  0
  184.9170  178.3120  140.2590 O   0  0  0  0  0  1  0  0  0  0  0  0
  186.7690  177.1210  139.6200 O   0  0  0  0  0  0  0  0  0  0  0  0
  1 20  1  6  0  0  0
  1  2  1  0  0  0  0
  2 13  1  6  0  0  0
  2 14  1  0  0  0  0
  3  1  1  0  0  0  0
  5 17  1  1  0  0  0
  5  8  1  0  0  0  0
  6  4  1  6  0  0  0
  6 10  1  0  0  0  0
  9  7  1  6  0  0  0
  9  6  1  0  0  0  0
  9  3  1  0  0  0  0
 10  2  1  0  0  0  0
 10 16  1  1  0  0  0
 12 11  1  6  0  0  0
 12  7  1  0  0  0  0
 12  4  1  0  0  0  0
 14 13  1  6  0  0  0
 14  8  1  0  0  0  0
 16  5  1  0  0  0  0
 16 15  1  0  0  0  0
 18 19  1  0  0  0  0
 19 17  1  0  0  0  0
 20 26  1  6  0  0  0
 20 21  1  0  0  0  0
 21 22  1  0  0  0  0
 22 23  1  0  0  0  0
 24 25  1  0  0  0  0
 24 21  1  0  0  0  0
 27 26  1  0  0  0  0
 28 27  1  0  0  0  0
 29 28  1  0  0  0  0
 30 28  2  0  0  0  0
M  END
>  <MODEL>
2

>  <REMARK>
 VINA RESULT:      -6.4      1.193      1.754
  Name = 
  9 active torsions:
  status: ('A' for Active; 'I' for Inactive)
    1  A    between atoms: C_1  and  C_22
    2  A    between atoms: C_2  and  C_14
    3  A    between atoms: C_3  and  C_19
    4  A    between atoms: C_7  and  O_16
    5  A    between atoms: C_14  and  C_20
    6  A    between atoms: C_14  and  C_22
    7  A    between atoms: O_16  and  C_26
    8  A    between atoms: C_19  and  O_29
    9  A    between atoms: C_22  and  O_29
                            x       y       z     vdW  Elec       q    Type
                         _______ _______ _______ _____ _____    ______ ____

>  <TORSDO>
F 9

$$$$
=
 OpenBabel11052417073D

 30 33  0  0  1  0  0  0  0  0999 V2000
  189.4170  175.8730  143.9140 C   0  0  2  0  0  3  0  0  0  0  0  0
  190.8550  176.1910  143.3870 C   0  0  1  0  0  0  0  0  0  0  0  0
  188.7560  174.6320  143.3070 C   0  0  0  0  0  2  0  0  0  0  0  0
  191.0450  173.5170  140.2010 S   0  0  0  0  0  0  0  0  0  0  0  0
  193.6770  176.0220  142.9410 C   0  0  2  0  0  3  0  0  0  0  0  0
  190.6520  174.1130  141.8650 C   0  0  2  0  0  3  0  0  0  0  0  0
  188.5050  173.2890  141.2020 C   0  0  0  0  0  2  0  0  0  0  0  0
  193.2650  176.7330  144.2380 C   0  0  0  0  0  2  0  0  0  0  0  0
  189.1920  174.4530  141.8680 C   0  0  1  0  0  3  0  0  0  0  0  0
  191.5140  175.3080  142.2800 C   0  0  2  0  0  3  0  0  0  0  0  0
  188.7520  173.6220  138.8080 N   0  0  0  0  0  1  0  0  0  0  0  0
  189.3210  172.9510  139.9630 C   0  0  1  0  0  3  0  0  0  0  0  0
  191.1820  177.6680  143.1980 C   0  0  0  0  0  2  0  0  0  0  0  0
  191.7480  176.9270  144.3960 C   0  0  1  0  0  3  0  0  0  0  0  0
  192.7700  174.0570  143.7410 O   0  0  0  0  0  1  0  0  0  0  0  0
  192.8600  174.8440  142.6350 N   0  0  0  0  0  0  0  0  0  0  0  0
  195.0630  175.7770  142.8160 O   0  0  0  0  0  0  0  0  0  0  0  0
  196.9480  176.9280  143.3930 O   0  0  0  0  0  1  0  0  0  0  0  0
  195.7420  176.4140  143.8660 C   0  0  0  0  0  2  0  0  0  0  0  0
  188.4190  177.0410  144.0660 C   0  0  2  0  0  3  0  0  0  0  0  0
  187.8630  177.2000  145.4970 C   0  0  0  0  0  3  0  0  0  0  0  0
  188.7560  176.5340  146.5410 C   0  0  0  0  0  2  0  0  0  0  0  0
  189.6070  177.5710  147.2480 C   0  0  0  0  0  1  0  0  0  0  0  0
  186.4210  176.6970  145.6160 C   0  0  0  0  0  2  0  0  0  0  0  0
  185.7780  177.0890  146.9380 C   0  0  0  0  0  1  0  0  0  0  0  0
  187.3870  176.9020  143.1300 O   0  0  0  0  0  0  0  0  0  0  0  0
  187.4600  178.0500  142.3400 C   0  0  0  0  0  2  0  0  0  0  0  0
  186.1210  178.6930  142.2740 C   0  0  0  0  0  0  0  0  0  0  0  0
  185.3240  178.5250  141.1500 O   0  0  0  0  0  0  0  0  0  0  0  0
  185.6960  179.3630  143.2510 O   0  0  0  0  0  1  0  0  0  0  0  0
  1 20  1  6  0  0  0
  2 13  1  6  0  0  0
  2  1  1  0  0  0  0
  2 14  1  0  0  0  0
  3  1  1  0  0  0  0
  5 17  1  1  0  0  0
  5  8  1  0  0  0  0
  6  4  1  6  0  0  0
  6  9  1  0  0  0  0
  6 10  1  0  0  0  0
  8 14  1  0  0  0  0
  9  7  1  1  0  0  0
  9  3  1  0  0  0  0
 10 16  1  1  0  0  0
 10  2  1  0  0  0  0
 12 11  1  6  0  0  0
 12  4  1  0  0  0  0
 12  7  1  0  0  0  0
 14 13  1  6  0  0  0
 16  5  1  0  0  0  0
 16 15  1  0  0  0  0
 17 19  1  0  0  0  0
 18 19  1  0  0  0  0
 20 26  1  6  0  0  0
 20 21  1  0  0  0  0
 21 24  1  0  0  0  0
 21 22  1  0  0  0  0
 22 23  1  0  0  0  0
 24 25  1  0  0  0  0
 27 26  1  0  0  0  0
 28 27  1  0  0  0  0
 28 30  1  0  0  0  0
 29 28  2  0  0  0  0
M  END
>  <MODEL>
3

>  <REMARK>
 VINA RESULT:      -6.1      1.801      2.348
  Name = 
  9 active torsions:
  status: ('A' for Active; 'I' for Inactive)
    1  A    between atoms: C_1  and  C_22
    2  A    between atoms: C_2  and  C_14
    3  A    between atoms: C_3  and  C_19
    4  A    between atoms: C_7  and  O_16
    5  A    between atoms: C_14  and  C_20
    6  A    between atoms: C_14  and  C_22
    7  A    between atoms: O_16  and  C_26
    8  A    between atoms: C_19  and  O_29
    9  A    between atoms: C_22  and  O_29
                            x       y       z     vdW  Elec       q    Type
                         _______ _______ _______ _____ _____    ______ ____

>  <TORSDO>
F 9

$$$$
=
 OpenBabel11052417073D

 30 33  0  0  1  0  0  0  0  0999 V2000
  188.6300  177.0140  143.4810 C   0  0  2  0  0  3  0  0  0  0  0  0
  188.9770  175.5780  142.9690 C   0  0  1  0  0  0  0  0  0  0  0  0
  189.5930  177.5890  144.5240 C   0  0  0  0  0  2  0  0  0  0  0  0
  191.9610  174.5610  145.6890 S   0  0  0  0  0  0  0  0  0  0  0  0
  190.2910  173.4290  141.6100 C   0  0  2  0  0  3  0  0  0  0  0  0
  191.0170  175.6100  144.5540 C   0  0  2  0  0  3  0  0  0  0  0  0
  191.0340  177.0090  146.4950 C   0  0  0  0  0  2  0  0  0  0  0  0
  189.2900  174.2230  140.7570 C   0  0  0  0  0  2  0  0  0  0  0  0
  190.1410  176.4830  145.4010 C   0  0  1  0  0  3  0  0  0  0  0  0
  190.2010  174.7980  143.5450 C   0  0  2  0  0  3  0  0  0  0  0  0
  191.1850  175.2510  148.1650 N   0  0  0  0  0  1  0  0  0  0  0  0
  191.8430  175.8260  147.0060 C   0  0  1  0  0  3  0  0  0  0  0  0
  187.7890  174.6570  142.7200 C   0  0  0  0  0  2  0  0  0  0  0  0
  188.5020  175.2880  141.5380 C   0  0  1  0  0  3  0  0  0  0  0  0
  191.6070  175.3150  141.8020 O   0  0  0  0  0  1  0  0  0  0  0  0
  191.0920  174.2690  142.5040 N   0  0  0  0  0  0  0  0  0  0  0  0
  191.0700  172.4950  140.8900 O   0  0  0  0  0  0  0  0  0  0  0  0
  189.9370  171.1260  142.3230 O   0  0  0  0  0  1  0  0  0  0  0  0
  190.5320  171.2120  141.0650 C   0  0  0  0  0  2  0  0  0  0  0  0
  187.1580  177.3350  143.8190 C   0  0  2  0  0  3  0  0  0  0  0  0
  186.5030  178.3400  142.8490 C   0  0  0  0  0  3  0  0  0  0  0  0
  185.7160  179.4240  143.5830 C   0  0  0  0  0  2  0  0  0  0  0  0
  184.2410  179.0750  143.6160 C   0  0  0  0  0  1  0  0  0  0  0  0
  185.6250  177.6460  141.8040 C   0  0  0  0  0  2  0  0  0  0  0  0
  186.1530  177.8320  140.3880 C   0  0  0  0  0  1  0  0  0  0  0  0
  187.0650  177.7730  145.1460 O   0  0  0  0  0  0  0  0  0  0  0  0
  186.3810  176.7560  145.8140 C   0  0  0  0  0  2  0  0  0  0  0  0
  185.5060  177.3500  146.8580 C   0  0  0  0  0  0  0  0  0  0  0  0
  186.0440  177.7390  148.0780 O   0  0  0  0  0  1  0  0  0  0  0  0
  184.2820  177.5300  146.6260 O   0  0  0  0  0  0  0  0  0  0  0  0
  1 20  1  1  0  0  0
  1  3  1  0  0  0  0
  2 13  1  1  0  0  0
  2  1  1  0  0  0  0
  2 10  1  0  0  0  0
  4 12  1  0  0  0  0
  5 17  1  6  0  0  0
  5 16  1  0  0  0  0
  6  9  1  0  0  0  0
  6  4  1  1  0  0  0
  7 12  1  0  0  0  0
  8  5  1  0  0  0  0
  9  3  1  6  0  0  0
  9  7  1  0  0  0  0
 10 16  1  6  0  0  0
 10  6  1  0  0  0  0
 12 11  1  1  0  0  0
 14  8  1  6  0  0  0
 14 13  1  0  0  0  0
 14  2  1  0  0  0  0
 15 16  1  0  0  0  0
 17 19  1  0  0  0  0
 19 18  1  0  0  0  0
 20 21  1  6  0  0  0
 20 26  1  0  0  0  0
 21 22  1  0  0  0  0
 22 23  1  0  0  0  0
 24 21  1  0  0  0  0
 25 24  1  0  0  0  0
 26 27  1  0  0  0  0
 27 28  1  0  0  0  0
 28 29  1  0  0  0  0
 30 28  2  0  0  0  0
M  END
>  <MODEL>
4

>  <REMARK>
 VINA RESULT:      -6.0      2.561      5.095
  Name = 
  9 active torsions:
  status: ('A' for Active; 'I' for Inactive)
    1  A    between atoms: C_1  and  C_22
    2  A    between atoms: C_2  and  C_14
    3  A    between atoms: C_3  and  C_19
    4  A    between atoms: C_7  and  O_16
    5  A    between atoms: C_14  and  C_20
    6  A    between atoms: C_14  and  C_22
    7  A    between atoms: O_16  and  C_26
    8  A    between atoms: C_19  and  O_29
    9  A    between atoms: C_22  and  O_29
                            x       y       z     vdW  Elec       q    Type
                         _______ _______ _______ _____ _____    ______ ____

>  <TORSDO>
F 9

$$$$
=
 OpenBabel11052417073D

 30 33  0  0  1  0  0  0  0  0999 V2000
  188.6180  175.7690  145.4210 C   0  0  2  0  0  3  0  0  0  0  0  0
  188.3020  176.5940  144.1310 C   0  0  1  0  0  0  0  0  0  0  0  0
  187.6740  176.0120  146.6020 C   0  0  0  0  0  2  0  0  0  0  0  0
  185.4530  179.2220  145.6530 S   0  0  0  0  0  0  0  0  0  0  0  0
  187.0130  177.5000  141.7410 C   0  0  2  0  0  3  0  0  0  0  0  0
  186.3200  177.6510  145.4080 C   0  0  2  0  0  3  0  0  0  0  0  0
  186.3250  177.7580  147.7990 C   0  0  0  0  0  2  0  0  0  0  0  0
  187.9560  176.3010  141.5580 C   0  0  0  0  0  2  0  0  0  0  0  0
  187.1950  177.4490  146.6080 C   0  0  1  0  0  3  0  0  0  0  0  0
  187.1260  177.6220  144.1070 C   0  0  2  0  0  3  0  0  0  0  0  0
  186.2930  180.1770  148.0180 N   0  0  0  0  0  1  0  0  0  0  0  0
  185.5750  179.0400  147.4700 C   0  0  1  0  0  3  0  0  0  0  0  0
  189.5110  177.1040  143.3550 C   0  0  0  0  0  2  0  0  0  0  0  0
  188.7350  175.9120  142.8250 C   0  0  1  0  0  3  0  0  0  0  0  0
  185.6420  176.2060  143.0710 O   0  0  0  0  0  1  0  0  0  0  0  0
  186.2170  177.4350  142.9690 N   0  0  0  0  0  0  0  0  0  0  0  0
  186.2420  177.8240  140.6020 O   0  0  0  0  0  0  0  0  0  0  0  0
  183.9840  178.1470  140.5010 O   0  0  0  0  0  1  0  0  0  0  0  0
  185.1860  178.6650  140.9820 C   0  0  0  0  0  2  0  0  0  0  0  0
  190.0900  175.6560  145.8750 C   0  0  2  0  0  3  0  0  0  0  0  0
  190.7390  174.2960  145.5430 C   0  0  0  0  0  3  0  0  0  0  0  0
  191.6850  174.3850  144.3480 C   0  0  0  0  0  2  0  0  0  0  0  0
  193.1090  174.0890  144.7780 C   0  0  0  0  0  1  0  0  0  0  0  0
  189.6960  173.1950  145.3280 C   0  0  0  0  0  2  0  0  0  0  0  0
  189.8080  172.5510  143.9540 C   0  0  0  0  0  1  0  0  0  0  0  0
  190.1830  175.9450  147.2420 O   0  0  0  0  0  0  0  0  0  0  0  0
  191.4640  175.5330  147.6110 C   0  0  0  0  0  2  0  0  0  0  0  0
  192.3080  176.7240  147.8910 C   0  0  0  0  0  0  0  0  0  0  0  0
  191.9230  177.6340  148.8670 O   0  0  0  0  0  1  0  0  0  0  0  0
  193.3880  176.8910  147.2670 O   0  0  0  0  0  0  0  0  0  0  0  0
  1 20  1  1  0  0  0
  1  3  1  0  0  0  0
  2 13  1  1  0  0  0
  2  1  1  0  0  0  0
  4 12  1  0  0  0  0
  5 17  1  6  0  0  0
  5 16  1  0  0  0  0
  6  4  1  1  0  0  0
  6  9  1  0  0  0  0
  8  5  1  0  0  0  0
  9  3  1  1  0  0  0
  9  7  1  0  0  0  0
 10 16  1  6  0  0  0
 10  2  1  0  0  0  0
 10  6  1  0  0  0  0
 12  7  1  0  0  0  0
 12 11  1  6  0  0  0
 14  8  1  6  0  0  0
 14 13  1  0  0  0  0
 14  2  1  0  0  0  0
 16 15  1  0  0  0  0
 17 19  1  0  0  0  0
 18 19  1  0  0  0  0
 20 21  1  1  0  0  0
 20 26  1  0  0  0  0
 22 23  1  0  0  0  0
 22 21  1  0  0  0  0
 24 21  1  0  0  0  0
 25 24  1  0  0  0  0
 26 27  1  0  0  0  0
 27 28  1  0  0  0  0
 28 29  1  0  0  0  0
 30 28  2  0  0  0  0
M  END
>  <MODEL>
5

>  <REMARK>
 VINA RESULT:      -6.0      3.042      7.571
  Name = 
  9 active torsions:
  status: ('A' for Active; 'I' for Inactive)
    1  A    between atoms: C_1  and  C_22
    2  A    between atoms: C_2  and  C_14
    3  A    between atoms: C_3  and  C_19
    4  A    between atoms: C_7  and  O_16
    5  A    between atoms: C_14  and  C_20
    6  A    between atoms: C_14  and  C_22
    7  A    between atoms: O_16  and  C_26
    8  A    between atoms: C_19  and  O_29
    9  A    between atoms: C_22  and  O_29
                            x       y       z     vdW  Elec       q    Type
                         _______ _______ _______ _____ _____    ______ ____

>  <TORSDO>
F 9

$$$$
=
 OpenBabel11052417073D

 30 33  0  0  1  0  0  0  0  0999 V2000
  191.6400  175.4860  144.2740 C   0  0  2  0  0  3  0  0  0  0  0  0
  190.3020  175.6580  145.0640 C   0  0  1  0  0  0  0  0  0  0  0  0
  191.4920  175.3560  142.7550 C   0  0  0  0  0  2  0  0  0  0  0  0
  187.5760  174.8390  142.0250 S   0  0  0  0  0  0  0  0  0  0  0  0
  187.9020  176.8150  146.1110 C   0  0  2  0  0  3  0  0  0  0  0  0
  189.0600  175.5270  142.8020 C   0  0  2  0  0  3  0  0  0  0  0  0
  190.0510  174.4160  140.9290 C   0  0  0  0  0  2  0  0  0  0  0  0
  189.1850  177.1750  146.8760 C   0  0  0  0  0  2  0  0  0  0  0  0
  190.2030  174.6390  142.4110 C   0  0  1  0  0  3  0  0  0  0  0  0
  188.9270  175.6420  144.3230 C   0  0  2  0  0  3  0  0  0  0  0  0
  188.3820  172.6700  140.6640 N   0  0  0  0  0  1  0  0  0  0  0  0
  188.5810  174.1080  140.6820 C   0  0  1  0  0  3  0  0  0  0  0  0
  190.2260  174.9410  146.4070 C   0  0  0  0  0  2  0  0  0  0  0  0
  190.4420  176.4430  146.3770 C   0  0  1  0  0  3  0  0  0  0  0  0
  188.7070  177.9280  144.2570 O   0  0  0  0  0  1  0  0  0  0  0  0
  188.0760  176.7910  144.6570 N   0  0  0  0  0  0  0  0  0  0  0  0
  186.7530  177.5320  146.5160 O   0  0  0  0  0  0  0  0  0  0  0  0
  184.4720  177.5600  146.4200 O   0  0  0  0  0  1  0  0  0  0  0  0
  185.6090  176.7780  146.2170 C   0  0  0  0  0  2  0  0  0  0  0  0
  192.7010  174.5140  144.8340 C   0  0  2  0  0  3  0  0  0  0  0  0
  194.0420  175.1940  145.1850 C   0  0  0  0  0  3  0  0  0  0  0  0
  193.9030  176.7090  145.3230 C   0  0  0  0  0  2  0  0  0  0  0  0
  194.0790  177.1260  146.7700 C   0  0  0  0  0  1  0  0  0  0  0  0
  195.1480  174.8390  144.1880 C   0  0  0  0  0  2  0  0  0  0  0  0
  195.4730  175.9920  143.2490 C   0  0  0  0  0  1  0  0  0  0  0  0
  192.8860  173.4530  143.9400 O   0  0  0  0  0  0  0  0  0  0  0  0
  192.4470  172.3210  144.6270 C   0  0  0  0  0  2  0  0  0  0  0  0
  191.2250  171.7860  143.9730 C   0  0  0  0  0  0  0  0  0  0  0  0
  189.9910  171.9090  144.5980 O   0  0  0  0  0  1  0  0  0  0  0  0
  191.3030  171.2510  142.8360 O   0  0  0  0  0  0  0  0  0  0  0  0
  1 20  1  1  0  0  0
  1  2  1  0  0  0  0
  2 14  1  0  0  0  0
  2 13  1  1  0  0  0
  3  1  1  0  0  0  0
  5 17  1  6  0  0  0
  5  8  1  0  0  0  0
  6  4  1  1  0  0  0
  6 10  1  0  0  0  0
  9  7  1  6  0  0  0
  9  3  1  0  0  0  0
  9  6  1  0  0  0  0
 10 16  1  6  0  0  0
 10  2  1  0  0  0  0
 12 11  1  1  0  0  0
 12  7  1  0  0  0  0
 12  4  1  0  0  0  0
 14 13  1  1  0  0  0
 14  8  1  0  0  0  0
 15 16  1  0  0  0  0
 16  5  1  0  0  0  0
 19 18  1  0  0  0  0
 19 17  1  0  0  0  0
 20 26  1  6  0  0  0
 20 21  1  0  0  0  0
 21 22  1  0  0  0  0
 22 23  1  0  0  0  0
 24 21  1  0  0  0  0
 25 24  1  0  0  0  0
 26 27  1  0  0  0  0
 28 29  1  0  0  0  0
 28 27  1  0  0  0  0
 30 28  2  0  0  0  0
M  END
>  <MODEL>
6

>  <REMARK>
 VINA RESULT:      -5.7      2.873      6.470
  Name = 
  9 active torsions:
  status: ('A' for Active; 'I' for Inactive)
    1  A    between atoms: C_1  and  C_22
    2  A    between atoms: C_2  and  C_14
    3  A    between atoms: C_3  and  C_19
    4  A    between atoms: C_7  and  O_16
    5  A    between atoms: C_14  and  C_20
    6  A    between atoms: C_14  and  C_22
    7  A    between atoms: O_16  and  C_26
    8  A    between atoms: C_19  and  O_29
    9  A    between atoms: C_22  and  O_29
                            x       y       z     vdW  Elec       q    Type
                         _______ _______ _______ _____ _____    ______ ____

>  <TORSDO>
F 9

$$$$
=
 OpenBabel11052417073D

 30 33  0  0  1  0  0  0  0  0999 V2000
  188.9280  174.5680  143.8840 C   0  0  2  0  0  3  0  0  0  0  0  0
  188.3460  176.0190  143.8980 C   0  0  1  0  0  0  0  0  0  0  0  0
  189.6980  174.1580  145.1430 C   0  0  0  0  0  2  0  0  0  0  0  0
  190.2350  177.5050  147.2980 S   0  0  0  0  0  0  0  0  0  0  0  0
  186.7010  178.2740  144.5350 C   0  0  2  0  0  3  0  0  0  0  0  0
  189.3720  176.3050  146.2520 C   0  0  2  0  0  3  0  0  0  0  0  0
  191.2470  174.9850  146.9350 C   0  0  0  0  0  2  0  0  0  0  0  0
  186.1260  177.3290  143.4700 C   0  0  0  0  0  2  0  0  0  0  0  0
  190.4100  175.3550  145.7380 C   0  0  1  0  0  3  0  0  0  0  0  0
  188.5980  176.9710  145.1110 C   0  0  2  0  0  3  0  0  0  0  0  0
  192.8260  176.8030  147.2590 N   0  0  0  0  0  1  0  0  0  0  0  0
  191.5390  176.2800  147.6800 C   0  0  1  0  0  3  0  0  0  0  0  0
  188.4010  176.7700  142.5720 C   0  0  0  0  0  2  0  0  0  0  0  0
  187.0780  176.1970  143.0490 C   0  0  1  0  0  3  0  0  0  0  0  0
  186.5590  176.5820  146.0980 O   0  0  0  0  0  1  0  0  0  0  0  0
  187.3680  177.5750  145.6370 N   0  0  0  0  0  0  0  0  0  0  0  0
  185.8100  179.2760  144.9790 O   0  0  0  0  0  0  0  0  0  0  0  0
  183.7850  178.6440  145.8220 O   0  0  0  0  0  1  0  0  0  0  0  0
  184.4970  178.9060  144.6530 C   0  0  0  0  0  2  0  0  0  0  0  0
  189.6230  174.0710  142.5980 C   0  0  2  0  0  3  0  0  0  0  0  0
  189.0650  172.7330  142.0680 C   0  0  0  0  0  3  0  0  0  0  0  0
  190.0710  171.5920  142.2040 C   0  0  0  0  0  2  0  0  0  0  0  0
  190.6170  171.2050  140.8430 C   0  0  0  0  0  1  0  0  0  0  0  0
  188.5650  172.8470  140.6250 C   0  0  0  0  0  2  0  0  0  0  0  0
  188.5950  174.2790  140.1130 C   0  0  0  0  0  1  0  0  0  0  0  0
  191.0060  173.9990  142.8080 O   0  0  0  0  0  0  0  0  0  0  0  0
  191.5450  175.0030  142.0030 C   0  0  0  0  0  2  0  0  0  0  0  0
  192.3990  175.8960  142.8300 C   0  0  0  0  0  0  0  0  0  0  0  0
  191.9100  177.1230  143.2590 O   0  0  0  0  0  1  0  0  0  0  0  0
  193.5530  175.5260  143.1700 O   0  0  0  0  0  0  0  0  0  0  0  0
  1 20  1  6  0  0  0
  1  2  1  0  0  0  0
  1  3  1  0  0  0  0
  2 13  1  6  0  0  0
  2 10  1  0  0  0  0
  4 12  1  0  0  0  0
  5 17  1  1  0  0  0
  5 16  1  0  0  0  0
  6  4  1  6  0  0  0
  7 12  1  0  0  0  0
  8  5  1  0  0  0  0
  9  3  1  1  0  0  0
  9  6  1  0  0  0  0
  9  7  1  0  0  0  0
 10 16  1  1  0  0  0
 10  6  1  0  0  0  0
 12 11  1  6  0  0  0
 14 13  1  6  0  0  0
 14  8  1  0  0  0  0
 14  2  1  0  0  0  0
 16 15  1  0  0  0  0
 19 17  1  0  0  0  0
 19 18  1  0  0  0  0
 20 21  1  1  0  0  0
 20 26  1  0  0  0  0
 21 22  1  0  0  0  0
 23 22  1  0  0  0  0
 24 21  1  0  0  0  0
 25 24  1  0  0  0  0
 27 26  1  0  0  0  0
 27 28  1  0  0  0  0
 28 30  2  0  0  0  0
 28 29  1  0  0  0  0
M  END
>  <MODEL>
7

>  <REMARK>
 VINA RESULT:      -5.7      3.022      6.872
  Name = 
  9 active torsions:
  status: ('A' for Active; 'I' for Inactive)
    1  A    between atoms: C_1  and  C_22
    2  A    between atoms: C_2  and  C_14
    3  A    between atoms: C_3  and  C_19
    4  A    between atoms: C_7  and  O_16
    5  A    between atoms: C_14  and  C_20
    6  A    between atoms: C_14  and  C_22
    7  A    between atoms: O_16  and  C_26
    8  A    between atoms: C_19  and  O_29
    9  A    between atoms: C_22  and  O_29
                            x       y       z     vdW  Elec       q    Type
                         _______ _______ _______ _____ _____    ______ ____

>  <TORSDO>
F 9

$$$$
=
 OpenBabel11052417073D

 30 33  0  0  1  0  0  0  0  0999 V2000
  190.4470  176.2710  143.6120 C   0  0  2  0  0  3  0  0  0  0  0  0
  190.4600  174.7640  143.1940 C   0  0  1  0  0  0  0  0  0  0  0  0
  191.8260  176.9080  143.8100 C   0  0  0  0  0  2  0  0  0  0  0  0
  194.4910  173.9020  143.7780 S   0  0  0  0  0  0  0  0  0  0  0  0
  190.7770  172.3880  141.6300 C   0  0  2  0  0  3  0  0  0  0  0  0
  193.0410  174.8620  143.2750 C   0  0  2  0  0  3  0  0  0  0  0  0
  194.1590  176.4840  144.6330 C   0  0  0  0  0  2  0  0  0  0  0  0
  189.4490  173.1330  141.4210 C   0  0  0  0  0  2  0  0  0  0  0  0
  192.8070  175.8850  144.3450 C   0  0  1  0  0  3  0  0  0  0  0  0
  191.8060  173.9850  143.0490 C   0  0  2  0  0  3  0  0  0  0  0  0
  195.2950  174.9370  146.1220 N   0  0  0  0  0  1  0  0  0  0  0  0
  195.1390  175.3240  144.7310 C   0  0  1  0  0  3  0  0  0  0  0  0
  189.3690  173.8950  143.8090 C   0  0  0  0  0  2  0  0  0  0  0  0
  189.2440  174.3320  142.3610 C   0  0  1  0  0  3  0  0  0  0  0  0
  191.9170  174.1970  140.7640 O   0  0  0  0  0  1  0  0  0  0  0  0
  191.9310  173.2790  141.7680 N   0  0  0  0  0  0  0  0  0  0  0  0
  191.0070  171.3260  140.7260 O   0  0  0  0  0  0  0  0  0  0  0  0
  190.8700  171.7460  138.4870 O   0  0  0  0  0  1  0  0  0  0  0  0
  190.1360  171.4510  139.6340 C   0  0  0  0  0  2  0  0  0  0  0  0
  189.4440  176.7220  144.6960 C   0  0  2  0  0  3  0  0  0  0  0  0
  188.2480  177.5230  144.1400 C   0  0  0  0  0  3  0  0  0  0  0  0
  186.9260  176.7770  144.3050 C   0  0  0  0  0  2  0  0  0  0  0  0
  186.1580  177.3190  145.4940 C   0  0  0  0  0  1  0  0  0  0  0  0
  188.4590  177.9380  142.6810 C   0  0  0  0  0  2  0  0  0  0  0  0
  187.3340  177.4600  141.7740 C   0  0  0  0  0  1  0  0  0  0  0  0
  190.1190  177.4380  145.6920 O   0  0  0  0  0  0  0  0  0  0  0  0
  189.5500  177.0100  146.8920 C   0  0  0  0  0  2  0  0  0  0  0  0
  190.0950  175.6740  147.2500 C   0  0  0  0  0  0  0  0  0  0  0  0
  189.2430  174.5850  147.3700 O   0  0  0  0  0  0  0  0  0  0  0  0
  191.3340  175.5230  147.4140 O   0  0  0  0  0  1  0  0  0  0  0  0
  1  3  1  0  0  0  0
  1 20  1  1  0  0  0
  2  1  1  0  0  0  0
  2 13  1  1  0  0  0
  4 12  1  0  0  0  0
  5 17  1  6  0  0  0
  5 16  1  0  0  0  0
  6  4  1  1  0  0  0
  6  9  1  0  0  0  0
  7 12  1  0  0  0  0
  8  5  1  0  0  0  0
  9  3  1  6  0  0  0
  9  7  1  0  0  0  0
 10 16  1  6  0  0  0
 10  2  1  0  0  0  0
 10  6  1  0  0  0  0
 12 11  1  1  0  0  0
 14  8  1  6  0  0  0
 14  2  1  0  0  0  0
 14 13  1  0  0  0  0
 15 16  1  0  0  0  0
 18 19  1  0  0  0  0
 19 17  1  0  0  0  0
 20 21  1  6  0  0  0
 20 26  1  0  0  0  0
 21 22  1  0  0  0  0
 22 23  1  0  0  0  0
 24 21  1  0  0  0  0
 25 24  1  0  0  0  0
 26 27  1  0  0  0  0
 27 28  1  0  0  0  0
 28 29  2  0  0  0  0
 28 30  1  0  0  0  0
M  END
>  <MODEL>
8

>  <REMARK>
 VINA RESULT:      -5.6      3.064      5.990
  Name = 
  9 active torsions:
  status: ('A' for Active; 'I' for Inactive)
    1  A    between atoms: C_1  and  C_22
    2  A    between atoms: C_2  and  C_14
    3  A    between atoms: C_3  and  C_19
    4  A    between atoms: C_7  and  O_16
    5  A    between atoms: C_14  and  C_20
    6  A    between atoms: C_14  and  C_22
    7  A    between atoms: O_16  and  C_26
    8  A    between atoms: C_19  and  O_29
    9  A    between atoms: C_22  and  O_29
                            x       y       z     vdW  Elec       q    Type
                         _______ _______ _______ _____ _____    ______ ____

>  <TORSDO>
F 9

$$$$
=
 OpenBabel11052417073D

 30 33  0  0  1  0  0  0  0  0999 V2000
  189.3540  176.5210  142.6540 C   0  0  2  0  0  3  0  0  0  0  0  0
  189.4340  174.9820  142.3910 C   0  0  1  0  0  0  0  0  0  0  0  0
  190.6500  177.1710  143.1460 C   0  0  0  0  0  2  0  0  0  0  0  0
  193.1530  174.1710  144.0810 S   0  0  0  0  0  0  0  0  0  0  0  0
  190.0830  172.4680  141.1850 C   0  0  2  0  0  3  0  0  0  0  0  0
  191.9080  175.0820  143.1320 C   0  0  2  0  0  3  0  0  0  0  0  0
  192.6780  176.8230  144.5830 C   0  0  0  0  0  2  0  0  0  0  0  0
  188.8750  173.1930  140.5710 C   0  0  0  0  0  2  0  0  0  0  0  0
  191.4310  176.2020  144.0080 C   0  0  1  0  0  3  0  0  0  0  0  0
  190.7510  174.1900  142.6730 C   0  0  2  0  0  3  0  0  0  0  0  0
  193.3490  175.4200  146.4500 N   0  0  0  0  0  1  0  0  0  0  0  0
  193.5680  175.6750  145.0370 C   0  0  1  0  0  3  0  0  0  0  0  0
  188.1990  174.1770  142.7770 C   0  0  0  0  0  2  0  0  0  0  0  0
  188.4650  174.4750  141.3130 C   0  0  1  0  0  3  0  0  0  0  0  0
  191.4550  174.1870  140.4860 O   0  0  0  0  0  1  0  0  0  0  0  0
  191.1850  173.3670  141.5380 N   0  0  0  0  0  0  0  0  0  0  0  0
  190.5120  171.3260  140.4720 O   0  0  0  0  0  0  0  0  0  0  0  0
  190.9660  171.3230  138.2350 O   0  0  0  0  0  1  0  0  0  0  0  0
  189.9490  171.3440  139.1880 C   0  0  0  0  0  2  0  0  0  0  0  0
  188.1160  177.0740  143.3940 C   0  0  2  0  0  3  0  0  0  0  0  0
  187.1150  177.8010  142.4720 C   0  0  0  0  0  3  0  0  0  0  0  0
  185.7360  177.1460  142.4860 C   0  0  0  0  0  2  0  0  0  0  0  0
  184.7640  177.9770  143.3010 C   0  0  0  0  0  1  0  0  0  0  0  0
  187.6390  177.9320  141.0390 C   0  0  0  0  0  2  0  0  0  0  0  0
  186.6320  177.4430  140.0070 C   0  0  0  0  0  1  0  0  0  0  0  0
  188.5280  177.8970  144.4500 O   0  0  0  0  0  0  0  0  0  0  0  0
  187.8340  177.4270  145.5650 C   0  0  0  0  0  2  0  0  0  0  0  0
  188.7540  176.6410  146.4280 C   0  0  0  0  0  0  0  0  0  0  0  0
  189.8590  177.2530  147.0050 O   0  0  0  0  0  1  0  0  0  0  0  0
  188.5150  175.4280  146.6620 O   0  0  0  0  0  0  0  0  0  0  0  0
  1  3  1  0  0  0  0
  1 20  1  1  0  0  0
  2  1  1  0  0  0  0
  2 10  1  0  0  0  0
  2 13  1  1  0  0  0
  4 12  1  0  0  0  0
  5 17  1  6  0  0  0
  5 16  1  0  0  0  0
  6  9  1  0  0  0  0
  6  4  1  1  0  0  0
  7 12  1  0  0  0  0
  8  5  1  0  0  0  0
  9  3  1  6  0  0  0
  9  7  1  0  0  0  0
 10 16  1  6  0  0  0
 10  6  1  0  0  0  0
 12 11  1  1  0  0  0
 14  8  1  6  0  0  0
 14  2  1  0  0  0  0
 14 13  1  0  0  0  0
 15 16  1  0  0  0  0
 18 19  1  0  0  0  0
 19 17  1  0  0  0  0
 20 21  1  6  0  0  0
 20 26  1  0  0  0  0
 21 22  1  0  0  0  0
 22 23  1  0  0  0  0
 24 21  1  0  0  0  0
 25 24  1  0  0  0  0
 26 27  1  0  0  0  0
 27 28  1  0  0  0  0
 28 30  2  0  0  0  0
 28 29  1  0  0  0  0
M  END
>  <MODEL>
9

>  <REMARK>
 VINA RESULT:      -5.5      2.664      5.642
  Name = 
  9 active torsions:
  status: ('A' for Active; 'I' for Inactive)
    1  A    between atoms: C_1  and  C_22
    2  A    between atoms: C_2  and  C_14
    3  A    between atoms: C_3  and  C_19
    4  A    between atoms: C_7  and  O_16
    5  A    between atoms: C_14  and  C_20
    6  A    between atoms: C_14  and  C_22
    7  A    between atoms: O_16  and  C_26
    8  A    between atoms: C_19  and  O_29
    9  A    between atoms: C_22  and  O_29
                            x       y       z     vdW  Elec       q    Type
                         _______ _______ _______ _____ _____    ______ ____

>  <TORSDO>
F 9

$$$$
