=
 OpenBabel11052417133D

 30 31  0  0  1  0  0  0  0  0999 V2000
  190.5510  175.9930  144.0120 C   0  0  2  0  0  3  0  0  0  0  0  0
  191.9390  176.3770  144.5650 C   0  0  1  0  0  3  0  0  0  0  0  0
  191.9730  176.2080  146.0580 C   0  0  0  0  0  0  0  0  0  0  0  0
  192.9850  175.3080  146.6850 C   0  0  0  0  0  2  0  0  0  0  0  0
  194.7280  176.2000  144.6330 S   0  0  0  0  0  0  0  0  0  0  0  0
  191.1950  176.8290  146.7640 O   0  0  0  0  0  0  0  0  0  0  0  0
  194.3870  175.8210  146.4000 C   0  0  0  0  0  2  0  0  0  0  0  0
  193.1970  176.0190  142.4060 C   0  0  0  0  0  1  0  0  0  0  0  0
  193.1360  175.6820  143.8850 C   0  0  2  0  0  3  0  0  0  0  0  0
  189.5750  177.8370  142.3500 O   0  0  0  0  0  0  0  0  0  0  0  0
  189.3590  177.3560  143.7790 S   0  0  1  0  0  0  0  0  0  0  0  0
  187.7150  176.6170  143.7550 C   0  0  0  0  0  2  0  0  0  0  0  0
  184.9300  178.3460  141.7530 C   0  0  2  0  0  3  0  0  0  0  0  0
  183.8560  178.3560  142.8370 C   0  0  0  0  0  2  0  0  0  0  0  0
  184.3530  178.0090  140.5300 O   0  0  0  0  0  1  0  0  0  0  0  0
  185.5840  177.7090  144.5510 C   0  0  1  0  0  3  0  0  0  0  0  0
  184.9360  180.0130  144.1900 O   0  0  0  0  0  1  0  0  0  0  0  0
  186.0120  177.3330  142.1010 C   0  0  0  0  0  2  0  0  0  0  0  0
  184.4630  178.6970  144.1960 C   0  0  1  0  0  3  0  0  0  0  0  0
  186.6570  177.6670  143.4470 C   0  0  2  0  0  3  0  0  0  0  0  0
  186.1720  178.0690  145.9160 C   0  0  0  0  0  2  0  0  0  0  0  0
  185.7980  177.0340  146.9630 C   0  0  0  0  0  2  0  0  0  0  0  0
  184.6280  176.3930  146.6000 F   0  0  0  0  0  0  0  0  0  0  0  0
  189.9360  174.8430  144.8000 C   0  0  0  0  0  2  0  0  0  0  0  0
  189.5940  173.6750  143.8860 C   0  0  1  0  0  3  0  0  0  0  0  0
  188.9050  173.8960  141.2410 S   0  0  0  0  0  1  0  0  0  0  0  0
  190.2030  173.9030  142.5120 C   0  0  0  0  0  2  0  0  0  0  0  0
  190.1330  172.3810  144.4800 C   0  0  0  0  0  2  0  0  0  0  0  0
  191.5600  172.1280  144.0220 C   0  0  0  0  0  2  0  0  0  0  0  0
  192.4500  172.5460  144.9950 F   0  0  0  0  0  0  0  0  0  0  0  0
  1 24  1  1  0  0  0
  2  1  1  6  0  0  0
  2  3  1  0  0  0  0
  3  4  1  0  0  0  0
  3  6  2  0  0  0  0
  5  7  1  0  0  0  0
  7  4  1  0  0  0  0
  9  8  1  6  0  0  0
  9  2  1  0  0  0  0
  9  5  1  0  0  0  0
 11 10  2  6  0  0  0
 11  1  1  0  0  0  0
 12 11  1  0  0  0  0
 13 15  1  6  0  0  0
 13 18  1  0  0  0  0
 13 14  1  0  0  0  0
 14 19  1  0  0  0  0
 16 21  1  1  0  0  0
 18 20  1  0  0  0  0
 19 17  1  6  0  0  0
 19 16  1  0  0  0  0
 20 12  1  1  0  0  0
 20 16  1  0  0  0  0
 21 22  1  0  0  0  0
 23 22  1  0  0  0  0
 25 27  1  6  0  0  0
 25 28  1  0  0  0  0
 25 24  1  0  0  0  0
 26 27  1  0  0  0  0
 29 28  1  0  0  0  0
 29 30  1  0  0  0  0
M  END
>  <MODEL>
1

>  <REMARK>
 VINA RESULT:      -6.4      0.000      0.000
  Name = 
  11 active torsions:
  status: ('A' for Active; 'I' for Inactive)
    1  A    between atoms: C_3  and  C_11
    2  A    between atoms: C_3  and  C_19
    3  A    between atoms: S_4  and  C_13
    4  A    between atoms: S_4  and  C_23
    5  A    between atoms: C_5  and  C_9
    6  A    between atoms: C_6  and  C_8
    7  A    between atoms: C_6  and  C_9
    8  A    between atoms: C_6  and  C_21
    9  A    between atoms: C_7  and  C_13
   10  A    between atoms: C_8  and  C_13
   11  A    between atoms: C_23  and  C_29
                            x       y       z     vdW  Elec       q    Type
                         _______ _______ _______ _____ _____    ______ ____

>  <TORSDO>
F 11

$$$$
=
 OpenBabel11052417133D

 30 31  0  0  1  0  0  0  0  0999 V2000
  190.2440  175.9940  144.1830 C   0  0  2  0  0  3  0  0  0  0  0  0
  191.5960  176.4650  144.7560 C   0  0  1  0  0  3  0  0  0  0  0  0
  191.6450  176.2350  146.2400 C   0  0  0  0  0  0  0  0  0  0  0  0
  192.7270  175.3930  146.8300 C   0  0  0  0  0  2  0  0  0  0  0  0
  194.3900  176.5130  144.8230 S   0  0  0  0  0  0  0  0  0  0  0  0
  190.8200  176.7590  146.9700 O   0  0  0  0  0  0  0  0  0  0  0  0
  194.0830  176.0300  146.5710 C   0  0  0  0  0  2  0  0  0  0  0  0
  192.8770  176.3060  142.5870 C   0  0  0  0  0  1  0  0  0  0  0  0
  192.8450  175.9000  144.0490 C   0  0  2  0  0  3  0  0  0  0  0  0
  189.0540  177.7090  142.5220 O   0  0  0  0  0  0  0  0  0  0  0  0
  188.9540  177.2700  143.9770 S   0  0  1  0  0  0  0  0  0  0  0  0
  187.3630  176.4310  144.0800 C   0  0  0  0  0  2  0  0  0  0  0  0
  186.5330  178.2210  147.3760 C   0  0  2  0  0  3  0  0  0  0  0  0
  185.7850  179.4160  146.7930 C   0  0  0  0  0  2  0  0  0  0  0  0
  187.3680  178.6520  148.4050 O   0  0  0  0  0  1  0  0  0  0  0  0
  185.6960  178.2650  144.5540 C   0  0  1  0  0  3  0  0  0  0  0  0
  183.8590  178.1560  146.1270 O   0  0  0  0  0  1  0  0  0  0  0  0
  187.3670  177.5490  146.2930 C   0  0  0  0  0  2  0  0  0  0  0  0
  184.8810  178.9790  145.6430 C   0  0  1  0  0  3  0  0  0  0  0  0
  186.4820  177.0760  145.1390 C   0  0  2  0  0  3  0  0  0  0  0  0
  184.7690  177.8410  143.4150 C   0  0  0  0  0  2  0  0  0  0  0  0
  185.2000  178.4670  142.0990 C   0  0  0  0  0  2  0  0  0  0  0  0
  186.3600  179.1970  142.2770 F   0  0  0  0  0  0  0  0  0  0  0  0
  189.7120  174.7810  144.9350 C   0  0  0  0  0  2  0  0  0  0  0  0
  189.6520  173.5580  144.0310 C   0  0  1  0  0  3  0  0  0  0  0  0
  188.6350  173.7770  141.4940 S   0  0  0  0  0  1  0  0  0  0  0  0
  190.0530  173.9460  142.6170 C   0  0  0  0  0  2  0  0  0  0  0  0
  190.5930  172.4820  144.5560 C   0  0  0  0  0  2  0  0  0  0  0  0
  191.8780  172.4430  143.7450 C   0  0  0  0  0  2  0  0  0  0  0  0
  192.9670  172.6380  144.5740 F   0  0  0  0  0  0  0  0  0  0  0  0
  1 24  1  1  0  0  0
  2  1  1  6  0  0  0
  2  3  1  0  0  0  0
  3  4  1  0  0  0  0
  3  6  2  0  0  0  0
  5  7  1  0  0  0  0
  7  4  1  0  0  0  0
  9  8  1  6  0  0  0
  9  2  1  0  0  0  0
  9  5  1  0  0  0  0
 11 10  2  6  0  0  0
 11 12  1  0  0  0  0
 11  1  1  0  0  0  0
 13 15  1  1  0  0  0
 14 13  1  0  0  0  0
 16 21  1  6  0  0  0
 16 20  1  0  0  0  0
 16 19  1  0  0  0  0
 18 13  1  0  0  0  0
 19 17  1  1  0  0  0
 19 14  1  0  0  0  0
 20 12  1  6  0  0  0
 20 18  1  0  0  0  0
 22 23  1  0  0  0  0
 22 21  1  0  0  0  0
 25 27  1  6  0  0  0
 25 28  1  0  0  0  0
 25 24  1  0  0  0  0
 26 27  1  0  0  0  0
 29 28  1  0  0  0  0
 29 30  1  0  0  0  0
M  END
>  <MODEL>
2

>  <REMARK>
 VINA RESULT:      -6.3      1.625      2.753
  Name = 
  11 active torsions:
  status: ('A' for Active; 'I' for Inactive)
    1  A    between atoms: C_3  and  C_11
    2  A    between atoms: C_3  and  C_19
    3  A    between atoms: S_4  and  C_13
    4  A    between atoms: S_4  and  C_23
    5  A    between atoms: C_5  and  C_9
    6  A    between atoms: C_6  and  C_8
    7  A    between atoms: C_6  and  C_9
    8  A    between atoms: C_6  and  C_21
    9  A    between atoms: C_7  and  C_13
   10  A    between atoms: C_8  and  C_13
   11  A    between atoms: C_23  and  C_29
                            x       y       z     vdW  Elec       q    Type
                         _______ _______ _______ _____ _____    ______ ____

>  <TORSDO>
F 11

$$$$
=
 OpenBabel11052417133D

 30 31  0  0  1  0  0  0  0  0999 V2000
  190.5800  176.1960  143.5500 C   0  0  2  0  0  3  0  0  0  0  0  0
  191.9040  176.4640  144.2940 C   0  0  1  0  0  3  0  0  0  0  0  0
  191.7410  176.2000  145.7640 C   0  0  0  0  0  0  0  0  0  0  0  0
  192.6200  175.2060  146.4470 C   0  0  0  0  0  2  0  0  0  0  0  0
  194.6500  176.1230  144.6910 S   0  0  0  0  0  0  0  0  0  0  0  0
  190.9120  176.8200  146.4110 O   0  0  0  0  0  0  0  0  0  0  0  0
  194.0700  175.6540  146.3730 C   0  0  0  0  0  2  0  0  0  0  0  0
  193.4060  176.1710  142.2870 C   0  0  0  0  0  1  0  0  0  0  0  0
  193.1420  175.7450  143.7200 C   0  0  2  0  0  3  0  0  0  0  0  0
  189.3470  178.0900  142.1320 O   0  0  0  0  0  0  0  0  0  0  0  0
  189.3520  177.5470  143.5550 S   0  0  1  0  0  0  0  0  0  0  0  0
  187.7310  176.7830  143.7450 C   0  0  0  0  0  2  0  0  0  0  0  0
  184.8510  178.3870  141.7750 C   0  0  2  0  0  3  0  0  0  0  0  0
  183.7890  178.3500  142.8700 C   0  0  0  0  0  2  0  0  0  0  0  0
  184.2760  178.0240  140.5580 O   0  0  0  0  0  1  0  0  0  0  0  0
  185.5640  177.7800  144.5650 C   0  0  1  0  0  3  0  0  0  0  0  0
  184.8110  180.0530  144.2110 O   0  0  0  0  0  1  0  0  0  0  0  0
  185.9800  177.4220  142.1110 C   0  0  0  0  0  2  0  0  0  0  0  0
  184.3960  178.7170  144.2220 C   0  0  1  0  0  3  0  0  0  0  0  0
  186.6250  177.7840  143.4490 C   0  0  2  0  0  3  0  0  0  0  0  0
  186.1500  178.1660  145.9230 C   0  0  0  0  0  2  0  0  0  0  0  0
  185.7690  177.1550  146.9910 C   0  0  0  0  0  2  0  0  0  0  0  0
  184.7130  176.3780  146.5530 F   0  0  0  0  0  0  0  0  0  0  0  0
  189.9570  174.8750  143.9790 C   0  0  0  0  0  2  0  0  0  0  0  0
  190.1040  173.8200  142.8910 C   0  0  1  0  0  3  0  0  0  0  0  0
  190.4560  171.1740  142.2650 S   0  0  0  0  0  1  0  0  0  0  0  0
  190.5020  172.4930  143.5140 C   0  0  0  0  0  2  0  0  0  0  0  0
  188.7860  173.6640  142.1440 C   0  0  0  0  0  2  0  0  0  0  0  0
  188.8800  174.2620  140.7500 C   0  0  0  0  0  2  0  0  0  0  0  0
  188.3240  175.5280  140.7390 F   0  0  0  0  0  0  0  0  0  0  0  0
  1 11  1  0  0  0  0
  1 24  1  1  0  0  0
  2  1  1  6  0  0  0
  2  3  1  0  0  0  0
  3  6  2  0  0  0  0
  3  4  1  0  0  0  0
  5  7  1  0  0  0  0
  7  4  1  0  0  0  0
  9  8  1  6  0  0  0
  9  2  1  0  0  0  0
  9  5  1  0  0  0  0
 11 10  2  6  0  0  0
 11 12  1  0  0  0  0
 13 15  1  6  0  0  0
 13 18  1  0  0  0  0
 13 14  1  0  0  0  0
 14 19  1  0  0  0  0
 16 21  1  1  0  0  0
 18 20  1  0  0  0  0
 19 17  1  6  0  0  0
 19 16  1  0  0  0  0
 20 12  1  1  0  0  0
 20 16  1  0  0  0  0
 21 22  1  0  0  0  0
 23 22  1  0  0  0  0
 25 28  1  1  0  0  0
 25 27  1  0  0  0  0
 25 24  1  0  0  0  0
 26 27  1  0  0  0  0
 29 28  1  0  0  0  0
 30 29  1  0  0  0  0
M  END
>  <MODEL>
3

>  <REMARK>
 VINA RESULT:      -6.3      1.478      1.759
  Name = 
  11 active torsions:
  status: ('A' for Active; 'I' for Inactive)
    1  A    between atoms: C_3  and  C_11
    2  A    between atoms: C_3  and  C_19
    3  A    between atoms: S_4  and  C_13
    4  A    between atoms: S_4  and  C_23
    5  A    between atoms: C_5  and  C_9
    6  A    between atoms: C_6  and  C_8
    7  A    between atoms: C_6  and  C_9
    8  A    between atoms: C_6  and  C_21
    9  A    between atoms: C_7  and  C_13
   10  A    between atoms: C_8  and  C_13
   11  A    between atoms: C_23  and  C_29
                            x       y       z     vdW  Elec       q    Type
                         _______ _______ _______ _____ _____    ______ ____

>  <TORSDO>
F 11

$$$$
=
 OpenBabel11052417133D

 30 31  0  0  1  0  0  0  0  0999 V2000
  190.9250  176.1880  143.6510 C   0  0  2  0  0  3  0  0  0  0  0  0
  192.3140  176.4760  144.2570 C   0  0  1  0  0  3  0  0  0  0  0  0
  192.2980  176.2370  145.7400 C   0  0  0  0  0  0  0  0  0  0  0  0
  193.2470  175.2600  146.3500 C   0  0  0  0  0  2  0  0  0  0  0  0
  195.0880  176.1570  144.3870 S   0  0  0  0  0  0  0  0  0  0  0  0
  191.5320  176.8630  146.4550 O   0  0  0  0  0  0  0  0  0  0  0  0
  194.6800  175.7140  146.1250 C   0  0  0  0  0  2  0  0  0  0  0  0
  193.6130  176.1550  142.1160 C   0  0  0  0  0  1  0  0  0  0  0  0
  193.4940  175.7540  143.5750 C   0  0  2  0  0  3  0  0  0  0  0  0
  189.5720  178.0950  142.3670 O   0  0  0  0  0  0  0  0  0  0  0  0
  189.6870  177.5240  143.7740 S   0  0  1  0  0  0  0  0  0  0  0  0
  188.0920  176.7370  144.0670 C   0  0  0  0  0  2  0  0  0  0  0  0
  185.0560  178.6130  145.4860 C   0  0  2  0  0  3  0  0  0  0  0  0
  184.8690  177.7950  146.7600 C   0  0  0  0  0  2  0  0  0  0  0  0
  183.8110  178.8780  144.9180 O   0  0  0  0  0  1  0  0  0  0  0  0
  187.1180  176.7190  146.3940 C   0  0  1  0  0  3  0  0  0  0  0  0
  186.8350  178.6380  147.8410 O   0  0  0  0  0  1  0  0  0  0  0  0
  185.9140  177.8410  144.4920 C   0  0  0  0  0  2  0  0  0  0  0  0
  186.2200  177.4650  147.3920 C   0  0  1  0  0  3  0  0  0  0  0  0
  187.2840  177.5210  145.0900 C   0  0  2  0  0  3  0  0  0  0  0  0
  188.4590  176.3970  147.0520 C   0  0  0  0  0  2  0  0  0  0  0  0
  188.5870  174.9110  147.3370 C   0  0  0  0  0  2  0  0  0  0  0  0
  189.8720  174.6150  147.7510 F   0  0  0  0  0  0  0  0  0  0  0  0
  190.3650  174.8620  144.1470 C   0  0  0  0  0  2  0  0  0  0  0  0
  190.2330  173.8620  143.0070 C   0  0  1  0  0  3  0  0  0  0  0  0
  188.5720  174.5860  140.9490 S   0  0  0  0  0  1  0  0  0  0  0  0
  190.2360  174.5980  141.6770 C   0  0  0  0  0  2  0  0  0  0  0  0
  191.3900  172.8730  143.0510 C   0  0  0  0  0  2  0  0  0  0  0  0
  191.5320  172.2680  144.4380 C   0  0  0  0  0  2  0  0  0  0  0  0
  190.3130  171.7790  144.8690 F   0  0  0  0  0  0  0  0  0  0  0  0
  1 11  1  0  0  0  0
  1 24  1  1  0  0  0
  2  1  1  6  0  0  0
  2  3  1  0  0  0  0
  3  4  1  0  0  0  0
  3  6  2  0  0  0  0
  5  7  1  0  0  0  0
  7  4  1  0  0  0  0
  9  8  1  6  0  0  0
  9  2  1  0  0  0  0
  9  5  1  0  0  0  0
 11 10  2  6  0  0  0
 11 12  1  0  0  0  0
 13 15  1  6  0  0  0
 13 14  1  0  0  0  0
 14 19  1  0  0  0  0
 16 21  1  1  0  0  0
 16 19  1  0  0  0  0
 18 20  1  0  0  0  0
 18 13  1  0  0  0  0
 19 17  1  6  0  0  0
 20 12  1  6  0  0  0
 20 16  1  0  0  0  0
 21 22  1  0  0  0  0
 22 23  1  0  0  0  0
 25 27  1  6  0  0  0
 25 28  1  0  0  0  0
 25 24  1  0  0  0  0
 26 27  1  0  0  0  0
 28 29  1  0  0  0  0
 29 30  1  0  0  0  0
M  END
>  <MODEL>
4

>  <REMARK>
 VINA RESULT:      -6.3      1.789      2.378
  Name = 
  11 active torsions:
  status: ('A' for Active; 'I' for Inactive)
    1  A    between atoms: C_3  and  C_11
    2  A    between atoms: C_3  and  C_19
    3  A    between atoms: S_4  and  C_13
    4  A    between atoms: S_4  and  C_23
    5  A    between atoms: C_5  and  C_9
    6  A    between atoms: C_6  and  C_8
    7  A    between atoms: C_6  and  C_9
    8  A    between atoms: C_6  and  C_21
    9  A    between atoms: C_7  and  C_13
   10  A    between atoms: C_8  and  C_13
   11  A    between atoms: C_23  and  C_29
                            x       y       z     vdW  Elec       q    Type
                         _______ _______ _______ _____ _____    ______ ____

>  <TORSDO>
F 11

$$$$
=
 OpenBabel11052417133D

 30 31  0  0  1  0  0  0  0  0999 V2000
  189.9240  175.2410  145.1370 C   0  0  2  0  0  3  0  0  0  0  0  0
  190.2170  174.6070  143.7620 C   0  0  1  0  0  3  0  0  0  0  0  0
  191.0080  175.5560  142.9060 C   0  0  0  0  0  0  0  0  0  0  0  0
  192.3320  175.1410  142.3580 C   0  0  0  0  0  2  0  0  0  0  0  0
  191.1770  172.5620  142.1170 S   0  0  0  0  0  0  0  0  0  0  0  0
  190.5570  176.6570  142.6310 O   0  0  0  0  0  0  0  0  0  0  0  0
  192.1610  173.9530  141.4250 C   0  0  0  0  0  2  0  0  0  0  0  0
  189.9560  172.2100  144.5080 C   0  0  0  0  0  1  0  0  0  0  0  0
  190.8590  173.2060  143.8040 C   0  0  2  0  0  3  0  0  0  0  0  0
  187.9830  175.8760  146.8540 O   0  0  0  0  0  0  0  0  0  0  0  0
  188.2690  175.9790  145.3610 S   0  0  1  0  0  0  0  0  0  0  0  0
  188.4370  177.7480  145.0610 C   0  0  0  0  0  2  0  0  0  0  0  0
  186.1290  178.0010  142.0010 C   0  0  2  0  0  3  0  0  0  0  0  0
  184.8010  177.7460  142.7070 C   0  0  0  0  0  2  0  0  0  0  0  0
  186.1530  177.3080  140.7920 O   0  0  0  0  0  1  0  0  0  0  0  0
  185.9340  178.0420  144.9380 C   0  0  1  0  0  3  0  0  0  0  0  0
  184.7590  179.8550  143.8450 O   0  0  0  0  0  1  0  0  0  0  0  0
  187.2840  177.5320  142.8770 C   0  0  0  0  0  2  0  0  0  0  0  0
  184.7560  178.4710  144.0500 C   0  0  1  0  0  3  0  0  0  0  0  0
  187.2790  178.2640  144.2200 C   0  0  2  0  0  3  0  0  0  0  0  0
  185.8630  178.7790  146.2750 C   0  0  0  0  0  2  0  0  0  0  0  0
  185.1870  177.9250  147.3350 C   0  0  0  0  0  2  0  0  0  0  0  0
  184.8770  176.6820  146.8160 F   0  0  0  0  0  0  0  0  0  0  0  0
  191.0250  176.2080  145.5520 C   0  0  0  0  0  2  0  0  0  0  0  0
  191.9580  175.5710  146.5730 C   0  0  1  0  0  3  0  0  0  0  0  0
  194.5100  175.1640  145.6570 S   0  0  0  0  0  1  0  0  0  0  0  0
  193.3210  176.2400  146.5100 C   0  0  0  0  0  2  0  0  0  0  0  0
  191.3730  175.7230  147.9700 C   0  0  0  0  0  2  0  0  0  0  0  0
  191.0170  177.1740  148.2530 C   0  0  0  0  0  2  0  0  0  0  0  0
  191.7270  177.6300  149.3480 F   0  0  0  0  0  0  0  0  0  0  0  0
  1 11  1  0  0  0  0
  1 24  1  6  0  0  0
  2  9  1  0  0  0  0
  2  1  1  1  0  0  0
  3  2  1  0  0  0  0
  4  3  1  0  0  0  0
  5  9  1  0  0  0  0
  6  3  2  0  0  0  0
  7  5  1  0  0  0  0
  7  4  1  0  0  0  0
  9  8  1  6  0  0  0
 11 10  2  1  0  0  0
 12 11  1  0  0  0  0
 13 15  1  6  0  0  0
 13 14  1  0  0  0  0
 13 18  1  0  0  0  0
 14 19  1  0  0  0  0
 16 21  1  1  0  0  0
 18 20  1  0  0  0  0
 19 17  1  6  0  0  0
 19 16  1  0  0  0  0
 20 16  1  0  0  0  0
 20 12  1  1  0  0  0
 21 22  1  0  0  0  0
 23 22  1  0  0  0  0
 25 24  1  6  0  0  0
 25 28  1  0  0  0  0
 26 27  1  0  0  0  0
 27 25  1  0  0  0  0
 28 29  1  0  0  0  0
 29 30  1  0  0  0  0
M  END
>  <MODEL>
5

>  <REMARK>
 VINA RESULT:      -6.3      1.947      3.784
  Name = 
  11 active torsions:
  status: ('A' for Active; 'I' for Inactive)
    1  A    between atoms: C_3  and  C_11
    2  A    between atoms: C_3  and  C_19
    3  A    between atoms: S_4  and  C_13
    4  A    between atoms: S_4  and  C_23
    5  A    between atoms: C_5  and  C_9
    6  A    between atoms: C_6  and  C_8
    7  A    between atoms: C_6  and  C_9
    8  A    between atoms: C_6  and  C_21
    9  A    between atoms: C_7  and  C_13
   10  A    between atoms: C_8  and  C_13
   11  A    between atoms: C_23  and  C_29
                            x       y       z     vdW  Elec       q    Type
                         _______ _______ _______ _____ _____    ______ ____

>  <TORSDO>
F 11

$$$$
=
 OpenBabel11052417133D

 30 31  0  0  1  0  0  0  0  0999 V2000
  189.8420  175.3770  144.6500 C   0  0  2  0  0  3  0  0  0  0  0  0
  191.1370  175.9730  145.2410 C   0  0  1  0  0  3  0  0  0  0  0  0
  191.6480  175.1080  146.3580 C   0  0  0  0  0  0  0  0  0  0  0  0
  193.0260  174.5380  146.2910 C   0  0  0  0  0  2  0  0  0  0  0  0
  193.7360  176.9780  145.0310 S   0  0  0  0  0  0  0  0  0  0  0  0
  190.9520  174.8930  147.3370 O   0  0  0  0  0  0  0  0  0  0  0  0
  194.0530  175.6580  146.2730 C   0  0  0  0  0  2  0  0  0  0  0  0
  191.7690  177.3200  143.2020 C   0  0  0  0  0  1  0  0  0  0  0  0
  192.2430  176.2940  144.2160 C   0  0  2  0  0  3  0  0  0  0  0  0
  188.3200  175.7970  146.8010 O   0  0  0  0  0  0  0  0  0  0  0  0
  188.2690  176.0390  145.2980 S   0  0  1  0  0  0  0  0  0  0  0  0
  188.3450  177.8320  145.1330 C   0  0  0  0  0  2  0  0  0  0  0  0
  186.4550  178.1980  141.8090 C   0  0  2  0  0  3  0  0  0  0  0  0
  185.0740  177.7640  142.2930 C   0  0  0  0  0  2  0  0  0  0  0  0
  186.7070  177.6340  140.5590 O   0  0  0  0  0  1  0  0  0  0  0  0
  185.8650  177.9280  144.6800 C   0  0  1  0  0  3  0  0  0  0  0  0
  184.6780  179.7370  143.5940 O   0  0  0  0  0  1  0  0  0  0  0  0
  187.5210  177.7410  142.7970 C   0  0  0  0  0  2  0  0  0  0  0  0
  184.7800  178.3450  143.6750 C   0  0  1  0  0  3  0  0  0  0  0  0
  187.2660  178.3320  144.1840 C   0  0  2  0  0  3  0  0  0  0  0  0
  185.5450  178.5180  146.0530 C   0  0  0  0  0  2  0  0  0  0  0  0
  184.4310  177.7430  146.7360 C   0  0  0  0  0  2  0  0  0  0  0  0
  184.6530  176.3840  146.6120 F   0  0  0  0  0  0  0  0  0  0  0  0
  189.8620  173.8550  144.6830 C   0  0  0  0  0  2  0  0  0  0  0  0
  190.1060  173.2800  143.2950 C   0  0  1  0  0  3  0  0  0  0  0  0
  190.5990  170.8250  142.1780 S   0  0  0  0  0  1  0  0  0  0  0  0
  189.5380  171.8730  143.2160 C   0  0  0  0  0  2  0  0  0  0  0  0
  189.4420  174.1630  142.2480 C   0  0  0  0  0  2  0  0  0  0  0  0
  188.0410  173.6660  141.9290 C   0  0  0  0  0  2  0  0  0  0  0  0
  187.1030  174.5890  142.3550 F   0  0  0  0  0  0  0  0  0  0  0  0
  1 24  1  1  0  0  0
  1 11  1  0  0  0  0
  2  1  1  6  0  0  0
  2  3  1  0  0  0  0
  3  6  2  0  0  0  0
  4  3  1  0  0  0  0
  5  7  1  0  0  0  0
  7  4  1  0  0  0  0
  9  8  1  6  0  0  0
  9  5  1  0  0  0  0
  9  2  1  0  0  0  0
 11 10  2  1  0  0  0
 12 11  1  0  0  0  0
 13 15  1  6  0  0  0
 13 14  1  0  0  0  0
 13 18  1  0  0  0  0
 14 19  1  0  0  0  0
 16 21  1  1  0  0  0
 18 20  1  0  0  0  0
 19 17  1  6  0  0  0
 19 16  1  0  0  0  0
 20 16  1  0  0  0  0
 20 12  1  1  0  0  0
 21 22  1  0  0  0  0
 23 22  1  0  0  0  0
 25 28  1  6  0  0  0
 25 24  1  0  0  0  0
 26 27  1  0  0  0  0
 27 25  1  0  0  0  0
 29 28  1  0  0  0  0
 29 30  1  0  0  0  0
M  END
>  <MODEL>
6

>  <REMARK>
 VINA RESULT:      -6.2      1.909      2.288
  Name = 
  11 active torsions:
  status: ('A' for Active; 'I' for Inactive)
    1  A    between atoms: C_3  and  C_11
    2  A    between atoms: C_3  and  C_19
    3  A    between atoms: S_4  and  C_13
    4  A    between atoms: S_4  and  C_23
    5  A    between atoms: C_5  and  C_9
    6  A    between atoms: C_6  and  C_8
    7  A    between atoms: C_6  and  C_9
    8  A    between atoms: C_6  and  C_21
    9  A    between atoms: C_7  and  C_13
   10  A    between atoms: C_8  and  C_13
   11  A    between atoms: C_23  and  C_29
                            x       y       z     vdW  Elec       q    Type
                         _______ _______ _______ _____ _____    ______ ____

>  <TORSDO>
F 11

$$$$
=
 OpenBabel11052417133D

 30 31  0  0  1  0  0  0  0  0999 V2000
  190.3610  176.0800  144.0580 C   0  0  2  0  0  3  0  0  0  0  0  0
  191.7220  176.4880  144.6590 C   0  0  1  0  0  3  0  0  0  0  0  0
  191.7340  176.2400  146.1400 C   0  0  0  0  0  0  0  0  0  0  0  0
  192.7700  175.3480  146.7400 C   0  0  0  0  0  2  0  0  0  0  0  0
  194.5130  176.4170  144.7750 S   0  0  0  0  0  0  0  0  0  0  0  0
  190.9190  176.7910  146.8630 O   0  0  0  0  0  0  0  0  0  0  0  0
  194.1550  175.9300  146.5120 C   0  0  0  0  0  2  0  0  0  0  0  0
  193.0330  176.2970  142.5100 C   0  0  0  0  0  1  0  0  0  0  0  0
  192.9580  175.8780  143.9680 C   0  0  2  0  0  3  0  0  0  0  0  0
  188.9110  177.9150  142.7730 O   0  0  0  0  0  0  0  0  0  0  0  0
  189.0170  177.3110  144.1670 S   0  0  1  0  0  0  0  0  0  0  0  0
  187.4790  176.3940  144.3730 C   0  0  0  0  0  2  0  0  0  0  0  0
  186.6150  178.2540  147.6210 C   0  0  2  0  0  3  0  0  0  0  0  0
  185.8780  179.4390  147.0050 C   0  0  0  0  0  2  0  0  0  0  0  0
  187.4390  178.7040  148.6510 O   0  0  0  0  0  1  0  0  0  0  0  0
  185.8130  178.2420  144.7890 C   0  0  1  0  0  3  0  0  0  0  0  0
  183.9570  178.1710  146.3410 O   0  0  0  0  0  1  0  0  0  0  0  0
  187.4610  177.5580  146.5620 C   0  0  0  0  0  2  0  0  0  0  0  0
  184.9870  178.9810  145.8530 C   0  0  1  0  0  3  0  0  0  0  0  0
  186.5870  177.0630  145.4080 C   0  0  2  0  0  3  0  0  0  0  0  0
  184.8990  177.7980  143.6470 C   0  0  0  0  0  2  0  0  0  0  0  0
  185.2520  178.5120  142.3540 C   0  0  0  0  0  2  0  0  0  0  0  0
  186.2760  179.4150  142.5750 F   0  0  0  0  0  0  0  0  0  0  0  0
  189.9110  174.7180  144.5690 C   0  0  0  0  0  2  0  0  0  0  0  0
  190.1640  173.6330  143.5310 C   0  0  1  0  0  3  0  0  0  0  0  0
  191.4830  171.2580  143.1610 S   0  0  0  0  0  1  0  0  0  0  0  0
  190.4630  172.3160  144.2280 C   0  0  0  0  0  2  0  0  0  0  0  0
  188.9390  173.4770  142.6400 C   0  0  0  0  0  2  0  0  0  0  0  0
  189.1660  174.1330  141.2870 C   0  0  0  0  0  2  0  0  0  0  0  0
  190.5180  174.1650  140.9990 F   0  0  0  0  0  0  0  0  0  0  0  0
  1 11  1  0  0  0  0
  1 24  1  1  0  0  0
  2  1  1  6  0  0  0
  2  3  1  0  0  0  0
  3  4  1  0  0  0  0
  3  6  2  0  0  0  0
  5  7  1  0  0  0  0
  7  4  1  0  0  0  0
  9  8  1  6  0  0  0
  9  2  1  0  0  0  0
  9  5  1  0  0  0  0
 11 10  2  6  0  0  0
 11 12  1  0  0  0  0
 13 15  1  1  0  0  0
 14 13  1  0  0  0  0
 16 21  1  6  0  0  0
 16 20  1  0  0  0  0
 16 19  1  0  0  0  0
 18 13  1  0  0  0  0
 19 17  1  1  0  0  0
 19 14  1  0  0  0  0
 20 12  1  6  0  0  0
 20 18  1  0  0  0  0
 22 23  1  0  0  0  0
 22 21  1  0  0  0  0
 25 28  1  6  0  0  0
 25 27  1  0  0  0  0
 25 24  1  0  0  0  0
 26 27  1  0  0  0  0
 29 28  1  0  0  0  0
 30 29  1  0  0  0  0
M  END
>  <MODEL>
7

>  <REMARK>
 VINA RESULT:      -6.2      2.006      3.184
  Name = 
  11 active torsions:
  status: ('A' for Active; 'I' for Inactive)
    1  A    between atoms: C_3  and  C_11
    2  A    between atoms: C_3  and  C_19
    3  A    between atoms: S_4  and  C_13
    4  A    between atoms: S_4  and  C_23
    5  A    between atoms: C_5  and  C_9
    6  A    between atoms: C_6  and  C_8
    7  A    between atoms: C_6  and  C_9
    8  A    between atoms: C_6  and  C_21
    9  A    between atoms: C_7  and  C_13
   10  A    between atoms: C_8  and  C_13
   11  A    between atoms: C_23  and  C_29
                            x       y       z     vdW  Elec       q    Type
                         _______ _______ _______ _____ _____    ______ ____

>  <TORSDO>
F 11

$$$$
=
 OpenBabel11052417133D

 30 31  0  0  1  0  0  0  0  0999 V2000
  189.6360  175.2850  144.0540 C   0  0  2  0  0  3  0  0  0  0  0  0
  189.4490  174.0500  143.1500 C   0  0  1  0  0  3  0  0  0  0  0  0
  189.5580  174.4390  141.7030 C   0  0  0  0  0  0  0  0  0  0  0  0
  190.5770  173.7860  140.8290 C   0  0  0  0  0  2  0  0  0  0  0  0
  190.0510  171.4440  142.3400 S   0  0  0  0  0  0  0  0  0  0  0  0
  188.7960  175.2660  141.2290 O   0  0  0  0  0  0  0  0  0  0  0  0
  190.2990  172.2950  140.7280 C   0  0  0  0  0  2  0  0  0  0  0  0
  190.0850  172.3400  144.8940 C   0  0  0  0  0  1  0  0  0  0  0  0
  190.3480  172.8430  143.4860 C   0  0  2  0  0  3  0  0  0  0  0  0
  188.2150  175.8800  146.2320 O   0  0  0  0  0  0  0  0  0  0  0  0
  188.1180  176.0480  144.7220 S   0  0  1  0  0  0  0  0  0  0  0  0
  188.2640  177.8250  144.4620 C   0  0  0  0  0  2  0  0  0  0  0  0
  185.6430  178.3430  141.7020 C   0  0  2  0  0  3  0  0  0  0  0  0
  184.4060  177.9250  142.4940 C   0  0  0  0  0  2  0  0  0  0  0  0
  185.5700  177.8150  140.4140 O   0  0  0  0  0  1  0  0  0  0  0  0
  185.7520  177.9930  144.6230 C   0  0  1  0  0  3  0  0  0  0  0  0
  184.3940  179.8630  143.9030 O   0  0  0  0  0  1  0  0  0  0  0  0
  186.9000  177.8300  142.3910 C   0  0  0  0  0  2  0  0  0  0  0  0
  184.4710  178.4670  143.9200 C   0  0  1  0  0  3  0  0  0  0  0  0
  187.0040  178.3800  143.8140 C   0  0  2  0  0  3  0  0  0  0  0  0
  185.7890  178.5450  146.0480 C   0  0  0  0  0  2  0  0  0  0  0  0
  184.9330  177.7060  146.9820 C   0  0  0  0  0  2  0  0  0  0  0  0
  184.8440  176.4100  146.5090 F   0  0  0  0  0  0  0  0  0  0  0  0
  190.5390  176.3230  143.4000 C   0  0  0  0  0  2  0  0  0  0  0  0
  191.8640  176.4410  144.1410 C   0  0  1  0  0  3  0  0  0  0  0  0
  192.6940  174.9080  146.2580 S   0  0  0  0  0  1  0  0  0  0  0  0
  191.6370  176.2460  145.6310 C   0  0  0  0  0  2  0  0  0  0  0  0
  192.8380  175.3900  143.6270 C   0  0  0  0  0  2  0  0  0  0  0  0
  194.0810  176.0420  143.0430 C   0  0  0  0  0  2  0  0  0  0  0  0
  195.1600  175.1840  143.1500 F   0  0  0  0  0  0  0  0  0  0  0  0
  1 24  1  6  0  0  0
  1 11  1  0  0  0  0
  2  9  1  0  0  0  0
  2  1  1  1  0  0  0
  3  2  1  0  0  0  0
  4  3  1  0  0  0  0
  5  9  1  0  0  0  0
  6  3  2  0  0  0  0
  7  4  1  0  0  0  0
  7  5  1  0  0  0  0
  9  8  1  1  0  0  0
 11 10  2  1  0  0  0
 12 11  1  0  0  0  0
 13 15  1  6  0  0  0
 13 18  1  0  0  0  0
 13 14  1  0  0  0  0
 14 19  1  0  0  0  0
 16 21  1  1  0  0  0
 18 20  1  0  0  0  0
 19 17  1  6  0  0  0
 19 16  1  0  0  0  0
 20 12  1  1  0  0  0
 20 16  1  0  0  0  0
 21 22  1  0  0  0  0
 23 22  1  0  0  0  0
 25 24  1  6  0  0  0
 25 27  1  0  0  0  0
 27 26  1  0  0  0  0
 28 25  1  0  0  0  0
 29 30  1  0  0  0  0
 29 28  1  0  0  0  0
M  END
>  <MODEL>
8

>  <REMARK>
 VINA RESULT:      -5.8      1.693      3.861
  Name = 
  11 active torsions:
  status: ('A' for Active; 'I' for Inactive)
    1  A    between atoms: C_3  and  C_11
    2  A    between atoms: C_3  and  C_19
    3  A    between atoms: S_4  and  C_13
    4  A    between atoms: S_4  and  C_23
    5  A    between atoms: C_5  and  C_9
    6  A    between atoms: C_6  and  C_8
    7  A    between atoms: C_6  and  C_9
    8  A    between atoms: C_6  and  C_21
    9  A    between atoms: C_7  and  C_13
   10  A    between atoms: C_8  and  C_13
   11  A    between atoms: C_23  and  C_29
                            x       y       z     vdW  Elec       q    Type
                         _______ _______ _______ _____ _____    ______ ____

>  <TORSDO>
F 11

$$$$
=
 OpenBabel11052417133D

 30 31  0  0  1  0  0  0  0  0999 V2000
  191.2040  176.0230  144.6940 C   0  0  2  0  0  3  0  0  0  0  0  0
  191.0920  174.7780  143.7900 C   0  0  1  0  0  3  0  0  0  0  0  0
  192.2230  174.7460  142.8010 C   0  0  0  0  0  0  0  0  0  0  0  0
  193.1410  173.5700  142.7530 C   0  0  0  0  0  2  0  0  0  0  0  0
  190.8390  172.0270  143.3610 S   0  0  0  0  0  0  0  0  0  0  0  0
  192.3760  175.6660  142.0140 O   0  0  0  0  0  0  0  0  0  0  0  0
  192.3650  172.3180  142.3750 C   0  0  0  0  0  2  0  0  0  0  0  0
  189.6890  173.4120  145.3830 C   0  0  0  0  0  1  0  0  0  0  0  0
  190.9460  173.4340  144.5320 C   0  0  2  0  0  3  0  0  0  0  0  0
  190.3980  177.9190  142.9990 O   0  0  0  0  0  0  0  0  0  0  0  0
  190.0210  177.3760  144.3710 S   0  0  1  0  0  0  0  0  0  0  0  0
  188.4070  176.6140  144.1190 C   0  0  0  0  0  2  0  0  0  0  0  0
  185.9290  178.2910  141.7120 C   0  0  2  0  0  3  0  0  0  0  0  0
  184.7040  178.2880  142.6210 C   0  0  0  0  0  2  0  0  0  0  0  0
  185.5480  177.9410  140.4170 O   0  0  0  0  0  1  0  0  0  0  0  0
  186.1650  177.6740  144.5800 C   0  0  1  0  0  3  0  0  0  0  0  0
  185.5430  179.9660  144.1120 O   0  0  0  0  0  1  0  0  0  0  0  0
  186.9620  177.2960  142.2240 C   0  0  0  0  0  2  0  0  0  0  0  0
  185.0950  178.6420  144.0540 C   0  0  1  0  0  3  0  0  0  0  0  0
  187.3920  177.6450  143.6500 C   0  0  2  0  0  3  0  0  0  0  0  0
  186.5340  178.0480  146.0150 C   0  0  0  0  0  2  0  0  0  0  0  0
  185.4850  177.5550  146.9960 C   0  0  0  0  0  2  0  0  0  0  0  0
  184.8720  176.4180  146.5050 F   0  0  0  0  0  0  0  0  0  0  0  0
  192.6350  176.5380  144.7590 C   0  0  0  0  0  2  0  0  0  0  0  0
  193.1400  176.5730  146.1950 C   0  0  1  0  0  3  0  0  0  0  0  0
  191.2770  176.7910  148.1960 S   0  0  0  0  0  1  0  0  0  0  0  0
  192.2360  175.7280  147.0770 C   0  0  0  0  0  2  0  0  0  0  0  0
  194.5640  176.0380  146.2550 C   0  0  0  0  0  2  0  0  0  0  0  0
  195.1890  176.0070  144.8700 C   0  0  0  0  0  2  0  0  0  0  0  0
  195.6250  174.7280  144.5760 F   0  0  0  0  0  0  0  0  0  0  0  0
  1 24  1  6  0  0  0
  2  9  1  0  0  0  0
  2  1  1  1  0  0  0
  3  2  1  0  0  0  0
  4  3  1  0  0  0  0
  5  9  1  0  0  0  0
  6  3  2  0  0  0  0
  7  4  1  0  0  0  0
  7  5  1  0  0  0  0
  9  8  1  6  0  0  0
 11 10  2  6  0  0  0
 11  1  1  0  0  0  0
 12 11  1  0  0  0  0
 13 15  1  6  0  0  0
 13 18  1  0  0  0  0
 13 14  1  0  0  0  0
 14 19  1  0  0  0  0
 16 21  1  1  0  0  0
 18 20  1  0  0  0  0
 19 17  1  6  0  0  0
 19 16  1  0  0  0  0
 20 12  1  1  0  0  0
 20 16  1  0  0  0  0
 21 22  1  0  0  0  0
 23 22  1  0  0  0  0
 25 24  1  6  0  0  0
 25 28  1  0  0  0  0
 25 27  1  0  0  0  0
 27 26  1  0  0  0  0
 29 28  1  0  0  0  0
 30 29  1  0  0  0  0
M  END
>  <MODEL>
9

>  <REMARK>
 VINA RESULT:      -5.8      1.790      3.571
  Name = 
  11 active torsions:
  status: ('A' for Active; 'I' for Inactive)
    1  A    between atoms: C_3  and  C_11
    2  A    between atoms: C_3  and  C_19
    3  A    between atoms: S_4  and  C_13
    4  A    between atoms: S_4  and  C_23
    5  A    between atoms: C_5  and  C_9
    6  A    between atoms: C_6  and  C_8
    7  A    between atoms: C_6  and  C_9
    8  A    between atoms: C_6  and  C_21
    9  A    between atoms: C_7  and  C_13
   10  A    between atoms: C_8  and  C_13
   11  A    between atoms: C_23  and  C_29
                            x       y       z     vdW  Elec       q    Type
                         _______ _______ _______ _____ _____    ______ ____

>  <TORSDO>
F 11

$$$$
