=
 OpenBabel11052420163D

 34 39  0  0  1  0  0  0  0  0999 V2000
  194.8540  176.1720  143.3310 C   0  0  1  0  0  3  0  0  0  0  0  0
  197.9320  175.2840  141.0570 C   0  0  0  0  0  2  0  0  0  0  0  0
  197.2890  174.5170  143.3990 C   0  0  0  0  0  2  0  0  0  0  0  0
  192.8630  176.7980  144.5350 C   0  0  2  0  0  3  0  0  0  0  0  0
  193.4290  176.4610  143.2090 N   0  0  0  0  0  2  0  0  0  0  0  0
  194.2480  174.8230  145.4220 C   0  0  1  0  0  3  0  0  0  0  0  0
  195.1300  174.3880  146.4420 O   0  0  0  0  0  0  0  0  0  0  0  0
  193.6060  176.1730  145.7580 C   0  0  0  0  0  2  0  0  0  0  0  0
  196.4360  174.9280  144.5920 C   0  0  1  0  0  3  0  0  0  0  0  0
  195.0390  174.9130  144.1450 C   0  0  2  0  0  3  0  0  0  0  0  0
  196.3420  174.0380  145.7950 C   0  0  0  0  0  2  0  0  0  0  0  0
  197.4340  175.9950  139.9480 O   0  0  0  0  0  0  0  0  0  0  0  0
  196.5460  175.1710  139.2070 C   0  0  2  0  0  3  0  0  0  0  0  0
  195.6530  174.2270  140.0370 C   0  0  0  0  0  2  0  0  0  0  0  0
  197.0930  175.5900  142.2960 C   0  0  2  0  0  3  0  0  0  0  0  0
  194.8280  174.9460  141.1050 C   0  0  0  0  0  2  0  0  0  0  0  0
  195.5900  175.9520  141.9950 C   0  0  1  0  0  3  0  0  0  0  0  0
  189.2430  177.3550  143.6710 O   0  0  0  0  0  0  0  0  0  0  0  0
  189.5030  175.5140  145.8700 C   0  0  0  0  0  2  0  0  0  0  0  0
  186.2030  178.3580  145.6980 C   0  0  2  0  0  3  0  0  0  0  0  0
  187.0090  178.1120  144.4250 C   0  0  0  0  0  2  0  0  0  0  0  0
  188.2590  177.3050  144.6640 C   0  0  0  0  0  0  0  0  0  0  0  0
  191.3590  176.5220  144.5460 C   0  0  1  0  0  3  0  0  0  0  0  0
  187.3940  176.5390  146.8800 C   0  0  0  0  0  2  0  0  0  0  0  0
  188.3860  176.5030  145.7460 C   0  0  0  0  0  0  0  0  0  0  0  0
  186.0260  177.0460  146.4460 C   0  0  0  0  0  2  0  0  0  0  0  0
  190.8570  176.1940  145.9470 C   0  0  0  0  0  2  0  0  0  0  0  0
  190.5960  177.6970  143.9520 C   0  0  0  0  0  2  0  0  0  0  0  0
  184.8770  178.9500  145.3630 C   0  0  0  0  0  0  0  0  0  0  0  0
  183.8760  178.6820  146.0750 O   0  0  0  0  0  1  0  0  0  0  0  0
  184.7380  179.7950  144.2680 O   0  0  0  0  0  0  0  0  0  0  0  0
  197.2700  174.4280  138.1320 C   0  0  0  0  0  0  0  0  0  0  0  0
  197.4670  173.1880  138.2320 O   0  0  0  0  0  0  0  0  0  0  0  0
  197.7420  175.1280  136.9870 N   0  0  0  0  0  1  0  0  0  0  0  0
  1  5  1  6  0  0  0
  1 10  1  0  0  0  0
  2 15  1  0  0  0  0
  4 23  1  0  0  0  0
  4  8  1  1  0  0  0
  5  4  1  0  0  0  0
  6  8  1  1  0  0  0
  6  7  1  0  0  0  0
  9  3  1  6  0  0  0
  9 11  1  0  0  0  0
 10  9  1  0  0  0  0
 10  6  1  0  0  0  0
 11  7  1  0  0  0  0
 12  2  1  0  0  0  0
 13 12  1  0  0  0  0
 13 14  1  0  0  0  0
 14 16  1  0  0  0  0
 15  3  1  0  0  0  0
 16 17  1  0  0  0  0
 17 15  1  0  0  0  0
 17  1  1  0  0  0  0
 18 28  1  0  0  0  0
 18 22  1  0  0  0  0
 19 27  1  0  0  0  0
 20 26  1  0  0  0  0
 21 22  1  0  0  0  0
 21 20  1  0  0  0  0
 22 25  2  0  0  0  0
 23 27  1  0  0  0  0
 25 19  1  0  0  0  0
 25 24  1  0  0  0  0
 26 24  1  0  0  0  0
 28 23  1  0  0  0  0
 29 20  1  0  0  0  0
 29 30  1  0  0  0  0
 31 29  2  0  0  0  0
 32 33  2  0  0  0  0
 32 13  1  0  0  0  0
 34 32  1  0  0  0  0
M  END
>  <MODEL>
1

>  <REMARK>
 VINA RESULT:      -8.6      0.000      0.000
  Name = 
  3 active torsions:
  status: ('A' for Active; 'I' for Inactive)
    1  A    between atoms: C_3  and  C_25
    2  A    between atoms: C_7  and  C_11
    3  A    between atoms: C_8  and  C_18
                            x       y       z     vdW  Elec       q    Type
                         _______ _______ _______ _____ _____    ______ ____

>  <TORSDO>
F 3

$$$$
=
 OpenBabel11052420163D

 34 39  0  0  1  0  0  0  0  0999 V2000
  194.0220  176.3900  143.0110 C   0  0  1  0  0  3  0  0  0  0  0  0
  197.1470  175.2010  140.9470 C   0  0  0  0  0  2  0  0  0  0  0  0
  196.4700  174.7920  143.3690 C   0  0  0  0  0  2  0  0  0  0  0  0
  192.0060  177.1690  144.0730 C   0  0  2  0  0  3  0  0  0  0  0  0
  192.5970  176.6410  142.8230 N   0  0  0  0  0  2  0  0  0  0  0  0
  193.3910  175.3680  145.2740 C   0  0  1  0  0  3  0  0  0  0  0  0
  194.2590  175.1030  146.3610 O   0  0  0  0  0  0  0  0  0  0  0  0
  192.7330  176.7470  145.3900 C   0  0  0  0  0  2  0  0  0  0  0  0
  195.5930  175.3700  144.4710 C   0  0  1  0  0  3  0  0  0  0  0  0
  194.2030  175.2720  144.0090 C   0  0  2  0  0  3  0  0  0  0  0  0
  195.4860  174.6730  145.7940 C   0  0  0  0  0  2  0  0  0  0  0  0
  196.6620  175.7290  139.7350 O   0  0  0  0  0  0  0  0  0  0  0  0
  195.7940  174.7920  139.1150 C   0  0  2  0  0  3  0  0  0  0  0  0
  194.8950  173.9750  140.0650 C   0  0  0  0  0  2  0  0  0  0  0  0
  196.2830  175.6820  142.1120 C   0  0  2  0  0  3  0  0  0  0  0  0
  194.0450  174.8390  140.9970 C   0  0  0  0  0  2  0  0  0  0  0  0
  194.7830  175.9770  141.7360 C   0  0  1  0  0  3  0  0  0  0  0  0
  188.5980  176.4480  142.6460 O   0  0  0  0  0  0  0  0  0  0  0  0
  188.4110  177.2130  145.4170 C   0  0  0  0  0  2  0  0  0  0  0  0
  185.3480  178.3930  142.5490 C   0  0  2  0  0  3  0  0  0  0  0  0
  186.3230  177.2890  142.1470 C   0  0  0  0  0  2  0  0  0  0  0  0
  187.4730  177.1380  143.1090 C   0  0  0  0  0  0  0  0  0  0  0  0
  190.5030  176.8810  144.1030 C   0  0  1  0  0  3  0  0  0  0  0  0
  186.2360  178.4270  144.8580 C   0  0  0  0  0  2  0  0  0  0  0  0
  187.3860  177.5740  144.3880 C   0  0  0  0  0  0  0  0  0  0  0  0
  184.9820  178.2360  144.0160 C   0  0  0  0  0  2  0  0  0  0  0  0
  189.7750  177.7900  145.0860 C   0  0  0  0  0  2  0  0  0  0  0  0
  189.9100  176.9980  142.7060 C   0  0  0  0  0  2  0  0  0  0  0  0
  184.1260  178.3350  141.6970 C   0  0  0  0  0  0  0  0  0  0  0  0
  182.9930  178.2490  142.2380 O   0  0  0  0  0  1  0  0  0  0  0  0
  184.2270  178.3730  140.3110 O   0  0  0  0  0  0  0  0  0  0  0  0
  196.5420  173.9020  138.1770 C   0  0  0  0  0  0  0  0  0  0  0  0
  196.2870  172.6700  138.1220 O   0  0  0  0  0  0  0  0  0  0  0  0
  197.5540  174.4520  137.3410 N   0  0  0  0  0  1  0  0  0  0  0  0
  1  5  1  6  0  0  0
  1 10  1  0  0  0  0
  2 15  1  0  0  0  0
  4 23  1  0  0  0  0
  4  8  1  1  0  0  0
  5  4  1  0  0  0  0
  6  8  1  1  0  0  0
  6  7  1  0  0  0  0
  9  3  1  6  0  0  0
  9 11  1  0  0  0  0
 10  9  1  0  0  0  0
 10  6  1  0  0  0  0
 11  7  1  0  0  0  0
 12  2  1  0  0  0  0
 13 12  1  0  0  0  0
 13 14  1  0  0  0  0
 14 16  1  0  0  0  0
 15  3  1  0  0  0  0
 16 17  1  0  0  0  0
 17 15  1  0  0  0  0
 17  1  1  0  0  0  0
 18 28  1  0  0  0  0
 18 22  1  0  0  0  0
 20 26  1  0  0  0  0
 21 20  1  0  0  0  0
 21 22  1  0  0  0  0
 22 25  2  0  0  0  0
 23 27  1  0  0  0  0
 25 24  1  0  0  0  0
 25 19  1  0  0  0  0
 26 24  1  0  0  0  0
 27 19  1  0  0  0  0
 28 23  1  0  0  0  0
 29 30  1  0  0  0  0
 29 20  1  0  0  0  0
 31 29  2  0  0  0  0
 32 13  1  0  0  0  0
 33 32  2  0  0  0  0
 34 32  1  0  0  0  0
M  END
>  <MODEL>
2

>  <REMARK>
 VINA RESULT:      -8.1      1.589      1.894
  Name = 
  3 active torsions:
  status: ('A' for Active; 'I' for Inactive)
    1  A    between atoms: C_3  and  C_25
    2  A    between atoms: C_7  and  C_11
    3  A    between atoms: C_8  and  C_18
                            x       y       z     vdW  Elec       q    Type
                         _______ _______ _______ _____ _____    ______ ____

>  <TORSDO>
F 3

$$$$
=
 OpenBabel11052420163D

 34 39  0  0  1  0  0  0  0  0999 V2000
  195.3390  174.8970  143.4360 C   0  0  1  0  0  3  0  0  0  0  0  0
  197.4960  173.4930  140.4670 C   0  0  0  0  0  2  0  0  0  0  0  0
  196.0050  172.3230  142.1700 C   0  0  0  0  0  2  0  0  0  0  0  0
  194.0370  175.9670  145.1580 C   0  0  2  0  0  3  0  0  0  0  0  0
  194.5240  176.0630  143.7620 N   0  0  0  0  0  2  0  0  0  0  0  0
  193.5510  173.5000  144.6250 C   0  0  1  0  0  3  0  0  0  0  0  0
  193.6780  172.1660  145.0850 O   0  0  0  0  0  0  0  0  0  0  0  0
  193.8940  174.5170  145.7200 C   0  0  0  0  0  2  0  0  0  0  0  0
  195.3900  172.5250  143.5480 C   0  0  1  0  0  3  0  0  0  0  0  0
  194.4690  173.6630  143.4430 C   0  0  2  0  0  3  0  0  0  0  0  0
  194.4710  171.4900  144.1240 C   0  0  0  0  0  2  0  0  0  0  0  0
  197.8470  174.7730  139.9970 O   0  0  0  0  0  0  0  0  0  0  0  0
  196.8320  175.2640  139.1340 C   0  0  2  0  0  3  0  0  0  0  0  0
  195.3840  174.9110  139.5280 C   0  0  0  0  0  2  0  0  0  0  0  0
  196.8100  173.6040  141.8280 C   0  0  2  0  0  3  0  0  0  0  0  0
  195.0170  175.3310  140.9520 C   0  0  0  0  0  2  0  0  0  0  0  0
  196.0270  174.9500  142.0570 C   0  0  1  0  0  3  0  0  0  0  0  0
  190.8970  177.1740  146.8440 O   0  0  0  0  0  0  0  0  0  0  0  0
  190.9760  178.0210  144.0920 C   0  0  0  0  0  2  0  0  0  0  0  0
  187.2140  176.9090  145.9930 C   0  0  2  0  0  3  0  0  0  0  0  0
  188.4200  177.1800  146.8880 C   0  0  0  0  0  2  0  0  0  0  0  0
  189.7090  177.3140  146.1180 C   0  0  0  0  0  0  0  0  0  0  0  0
  192.7660  176.8010  145.3250 C   0  0  1  0  0  3  0  0  0  0  0  0
  188.4500  177.6680  143.9880 C   0  0  0  0  0  2  0  0  0  0  0  0
  189.7160  177.6410  144.8050 C   0  0  0  0  0  0  0  0  0  0  0  0
  187.2080  177.8980  144.8390 C   0  0  0  0  0  2  0  0  0  0  0  0
  191.9630  176.8700  144.0320 C   0  0  0  0  0  2  0  0  0  0  0  0
  191.9190  176.2570  146.4680 C   0  0  0  0  0  2  0  0  0  0  0  0
  185.9530  177.0200  146.7810 C   0  0  0  0  0  0  0  0  0  0  0  0
  184.8570  176.7090  146.2490 O   0  0  0  0  0  0  0  0  0  0  0  0
  185.9790  177.4650  148.0970 O   0  0  0  0  0  1  0  0  0  0  0  0
  197.1110  174.9020  137.7120 C   0  0  0  0  0  0  0  0  0  0  0  0
  197.8980  175.5970  137.0170 O   0  0  0  0  0  0  0  0  0  0  0  0
  196.4810  173.7620  137.1380 N   0  0  0  0  0  1  0  0  0  0  0  0
  1 10  1  0  0  0  0
  1  5  1  6  0  0  0
  2 15  1  0  0  0  0
  4 23  1  0  0  0  0
  4  8  1  6  0  0  0
  5  4  1  0  0  0  0
  6  7  1  0  0  0  0
  6  8  1  1  0  0  0
  9  3  1  6  0  0  0
  9 11  1  0  0  0  0
 10  9  1  0  0  0  0
 10  6  1  0  0  0  0
 11  7  1  0  0  0  0
 12  2  1  0  0  0  0
 13 14  1  0  0  0  0
 13 12  1  0  0  0  0
 14 16  1  0  0  0  0
 15 17  1  0  0  0  0
 15  3  1  0  0  0  0
 16 17  1  0  0  0  0
 17  1  1  0  0  0  0
 19 25  1  0  0  0  0
 20 29  1  0  0  0  0
 20 21  1  0  0  0  0
 22 18  1  0  0  0  0
 22 21  1  0  0  0  0
 23 28  1  0  0  0  0
 24 25  1  0  0  0  0
 24 26  1  0  0  0  0
 25 22  2  0  0  0  0
 26 20  1  0  0  0  0
 27 19  1  0  0  0  0
 27 23  1  0  0  0  0
 28 18  1  0  0  0  0
 29 31  1  0  0  0  0
 30 29  2  0  0  0  0
 32 13  1  0  0  0  0
 33 32  2  0  0  0  0
 34 32  1  0  0  0  0
M  END
>  <MODEL>
3

>  <REMARK>
 VINA RESULT:      -8.1      1.752      2.344
  Name = 
  3 active torsions:
  status: ('A' for Active; 'I' for Inactive)
    1  A    between atoms: C_3  and  C_25
    2  A    between atoms: C_7  and  C_11
    3  A    between atoms: C_8  and  C_18
                            x       y       z     vdW  Elec       q    Type
                         _______ _______ _______ _____ _____    ______ ____

>  <TORSDO>
F 3

$$$$
=
 OpenBabel11052420163D

 34 39  0  0  1  0  0  0  0  0999 V2000
  191.7710  175.6020  144.5930 C   0  0  1  0  0  3  0  0  0  0  0  0
  195.3710  174.1470  143.9890 C   0  0  0  0  0  2  0  0  0  0  0  0
  193.0970  173.0100  144.1510 C   0  0  0  0  0  2  0  0  0  0  0  0
  189.6510  176.7010  144.9090 C   0  0  2  0  0  3  0  0  0  0  0  0
  190.9780  176.7800  144.2570 N   0  0  0  0  0  2  0  0  0  0  0  0
  189.6430  174.2370  144.1810 C   0  0  1  0  0  3  0  0  0  0  0  0
  189.3910  172.9050  144.5920 O   0  0  0  0  0  0  0  0  0  0  0  0
  189.1330  175.2580  145.2030 C   0  0  0  0  0  2  0  0  0  0  0  0
  191.6940  173.2300  144.7010 C   0  0  1  0  0  3  0  0  0  0  0  0
  191.1290  174.3790  143.9830 C   0  0  2  0  0  3  0  0  0  0  0  0
  190.6210  172.2110  144.4630 C   0  0  0  0  0  2  0  0  0  0  0  0
  195.9690  175.4190  143.9050 O   0  0  0  0  0  0  0  0  0  0  0  0
  195.8600  175.9170  142.5790 C   0  0  2  0  0  3  0  0  0  0  0  0
  194.5470  175.5840  141.8420 C   0  0  0  0  0  2  0  0  0  0  0  0
  193.9290  174.2780  144.4770 C   0  0  2  0  0  3  0  0  0  0  0  0
  193.2920  176.0200  142.6000 C   0  0  0  0  0  2  0  0  0  0  0  0
  193.2290  175.6350  144.0940 C   0  0  1  0  0  3  0  0  0  0  0  0
  186.3670  178.4210  144.2610 O   0  0  0  0  0  0  0  0  0  0  0  0
  187.9560  178.3060  141.8630 C   0  0  0  0  0  2  0  0  0  0  0  0
  183.6180  177.9140  141.7040 C   0  0  2  0  0  3  0  0  0  0  0  0
  184.2450  178.4580  142.9850 C   0  0  0  0  0  2  0  0  0  0  0  0
  185.7460  178.3210  143.0130 C   0  0  0  0  0  0  0  0  0  0  0  0
  188.6400  177.5520  144.1380 C   0  0  1  0  0  3  0  0  0  0  0  0
  185.8010  177.9550  140.5410 C   0  0  0  0  0  2  0  0  0  0  0  0
  186.4640  178.1930  141.8720 C   0  0  0  0  0  0  0  0  0  0  0  0
  184.3660  178.4640  140.5010 C   0  0  0  0  0  2  0  0  0  0  0  0
  188.6150  177.1940  142.6570 C   0  0  0  0  0  2  0  0  0  0  0  0
  187.2550  177.4250  144.7560 C   0  0  0  0  0  2  0  0  0  0  0  0
  182.1760  178.2890  141.6370 C   0  0  0  0  0  0  0  0  0  0  0  0
  181.4790  177.9120  140.6600 O   0  0  0  0  0  0  0  0  0  0  0  0
  181.5970  179.0520  142.6440 O   0  0  0  0  0  1  0  0  0  0  0  0
  197.0510  175.5400  141.7620 C   0  0  0  0  0  0  0  0  0  0  0  0
  197.9410  174.7860  142.2360 O   0  0  0  0  0  0  0  0  0  0  0  0
  197.1830  176.0380  140.4350 N   0  0  0  0  0  1  0  0  0  0  0  0
  1  5  1  6  0  0  0
  2 15  1  0  0  0  0
  3 15  1  0  0  0  0
  4  8  1  6  0  0  0
  5  4  1  0  0  0  0
  6  7  1  0  0  0  0
  6  8  1  1  0  0  0
  9  3  1  6  0  0  0
 10  6  1  0  0  0  0
 10  1  1  0  0  0  0
 10  9  1  0  0  0  0
 11  7  1  0  0  0  0
 11  9  1  0  0  0  0
 12  2  1  0  0  0  0
 13 12  1  0  0  0  0
 14 13  1  0  0  0  0
 14 16  1  0  0  0  0
 16 17  1  0  0  0  0
 17 15  1  0  0  0  0
 17  1  1  0  0  0  0
 18 28  1  0  0  0  0
 19 25  1  0  0  0  0
 19 27  1  0  0  0  0
 20 21  1  0  0  0  0
 21 22  1  0  0  0  0
 22 18  1  0  0  0  0
 23 28  1  0  0  0  0
 23  4  1  0  0  0  0
 24 25  1  0  0  0  0
 25 22  2  0  0  0  0
 26 24  1  0  0  0  0
 26 20  1  0  0  0  0
 27 23  1  0  0  0  0
 29 20  1  0  0  0  0
 29 31  1  0  0  0  0
 30 29  2  0  0  0  0
 32 33  2  0  0  0  0
 32 13  1  0  0  0  0
 34 32  1  0  0  0  0
M  END
>  <MODEL>
4

>  <REMARK>
 VINA RESULT:      -8.0      2.760      4.325
  Name = 
  3 active torsions:
  status: ('A' for Active; 'I' for Inactive)
    1  A    between atoms: C_3  and  C_25
    2  A    between atoms: C_7  and  C_11
    3  A    between atoms: C_8  and  C_18
                            x       y       z     vdW  Elec       q    Type
                         _______ _______ _______ _____ _____    ______ ____

>  <TORSDO>
F 3

$$$$
=
 OpenBabel11052420163D

 34 39  0  0  1  0  0  0  0  0999 V2000
  189.4100  174.7910  145.1450 C   0  0  1  0  0  3  0  0  0  0  0  0
  187.1820  177.5310  146.8680 C   0  0  0  0  0  2  0  0  0  0  0  0
  189.7030  177.1660  146.8620 C   0  0  0  0  0  2  0  0  0  0  0  0
  190.5920  173.0620  143.9560 C   0  0  2  0  0  3  0  0  0  0  0  0
  189.4550  174.0090  143.9140 N   0  0  0  0  0  2  0  0  0  0  0  0
  191.9510  175.0210  144.9170 C   0  0  1  0  0  3  0  0  0  0  0  0
  192.8650  175.4170  145.9240 O   0  0  0  0  0  0  0  0  0  0  0  0
  191.7950  173.4970  144.8530 C   0  0  0  0  0  2  0  0  0  0  0  0
  190.7460  176.0830  146.6240 C   0  0  1  0  0  3  0  0  0  0  0  0
  190.6300  175.6780  145.2180 C   0  0  2  0  0  3  0  0  0  0  0  0
  192.2070  176.4150  146.6870 C   0  0  0  0  0  2  0  0  0  0  0  0
  185.9960  177.0830  146.2540 O   0  0  0  0  0  0  0  0  0  0  0  0
  185.8680  177.6710  144.9680 C   0  0  2  0  0  3  0  0  0  0  0  0
  187.1780  177.8490  144.1750 C   0  0  0  0  0  2  0  0  0  0  0  0
  188.3090  176.5280  146.6260 C   0  0  2  0  0  3  0  0  0  0  0  0
  187.9730  176.5530  144.0090 C   0  0  0  0  0  2  0  0  0  0  0  0
  188.1810  175.7110  145.2870 C   0  0  1  0  0  3  0  0  0  0  0  0
  191.2770  173.6200  140.2980 O   0  0  0  0  0  0  0  0  0  0  0  0
  191.1750  170.8070  140.9070 C   0  0  0  0  0  2  0  0  0  0  0  0
  189.6600  172.3410  137.1190 C   0  0  2  0  0  3  0  0  0  0  0  0
  190.5540  173.2510  137.9580 C   0  0  0  0  0  2  0  0  0  0  0  0
  190.8130  172.7110  139.3410 C   0  0  0  0  0  0  0  0  0  0  0  0
  191.0130  172.6880  142.5340 C   0  0  1  0  0  3  0  0  0  0  0  0
  190.0670  170.4320  138.6380 C   0  0  0  0  0  2  0  0  0  0  0  0
  190.6860  171.3930  139.6200 C   0  0  0  0  0  0  0  0  0  0  0  0
  190.1750  170.9140  137.1980 C   0  0  0  0  0  2  0  0  0  0  0  0
  190.4180  171.3530  142.1030 C   0  0  0  0  0  2  0  0  0  0  0  0
  190.6390  173.7950  141.5580 C   0  0  0  0  0  2  0  0  0  0  0  0
  189.6350  172.8090  135.7030 C   0  0  0  0  0  0  0  0  0  0  0  0
  189.8520  174.0200  135.4420 O   0  0  0  0  0  1  0  0  0  0  0  0
  189.3710  171.9170  134.6690 O   0  0  0  0  0  0  0  0  0  0  0  0
  185.0950  178.9480  145.0340 C   0  0  0  0  0  0  0  0  0  0  0  0
  184.0730  179.0410  145.7630 O   0  0  0  0  0  0  0  0  0  0  0  0
  185.5180  180.0680  144.2650 N   0  0  0  0  0  1  0  0  0  0  0  0
  1  5  1  6  0  0  0
  1 10  1  0  0  0  0
  1 17  1  0  0  0  0
  4  8  1  6  0  0  0
  5  4  1  0  0  0  0
  6  8  1  1  0  0  0
  6 10  1  0  0  0  0
  6  7  1  0  0  0  0
  7 11  1  0  0  0  0
  9 11  1  6  0  0  0
  9  3  1  0  0  0  0
 10  9  1  0  0  0  0
 12  2  1  0  0  0  0
 13 32  1  0  0  0  0
 13 12  1  0  0  0  0
 14 13  1  0  0  0  0
 15  3  1  0  0  0  0
 15  2  1  0  0  0  0
 16 14  1  0  0  0  0
 16 17  1  0  0  0  0
 17 15  1  0  0  0  0
 18 28  1  0  0  0  0
 19 27  1  0  0  0  0
 20 26  1  0  0  0  0
 20 21  1  0  0  0  0
 21 22  1  0  0  0  0
 22 25  2  0  0  0  0
 22 18  1  0  0  0  0
 23  4  1  0  0  0  0
 24 25  1  0  0  0  0
 25 19  1  0  0  0  0
 26 24  1  0  0  0  0
 27 23  1  0  0  0  0
 28 23  1  0  0  0  0
 29 20  1  0  0  0  0
 30 29  1  0  0  0  0
 31 29  2  0  0  0  0
 32 33  2  0  0  0  0
 34 32  1  0  0  0  0
M  END
>  <MODEL>
5

>  <REMARK>
 VINA RESULT:      -7.9      4.572      9.408
  Name = 
  3 active torsions:
  status: ('A' for Active; 'I' for Inactive)
    1  A    between atoms: C_3  and  C_25
    2  A    between atoms: C_7  and  C_11
    3  A    between atoms: C_8  and  C_18
                            x       y       z     vdW  Elec       q    Type
                         _______ _______ _______ _____ _____    ______ ____

>  <TORSDO>
F 3

$$$$
=
 OpenBabel11052420163D

 34 39  0  0  1  0  0  0  0  0999 V2000
  193.7810  173.9720  143.8260 C   0  0  1  0  0  3  0  0  0  0  0  0
  197.0510  171.8760  144.4160 C   0  0  0  0  0  2  0  0  0  0  0  0
  196.4830  174.3010  144.9510 C   0  0  0  0  0  2  0  0  0  0  0  0
  191.6660  175.0550  143.4330 C   0  0  2  0  0  3  0  0  0  0  0  0
  192.3320  173.7970  143.8400 N   0  0  0  0  0  2  0  0  0  0  0  0
  193.3680  176.2340  144.9550 C   0  0  1  0  0  3  0  0  0  0  0  0
  194.2800  177.3130  145.0600 O   0  0  0  0  0  0  0  0  0  0  0  0
  192.4700  176.3630  143.7200 C   0  0  0  0  0  2  0  0  0  0  0  0
  195.5250  175.4140  144.5470 C   0  0  1  0  0  3  0  0  0  0  0  0
  194.1730  174.9630  144.8960 C   0  0  2  0  0  3  0  0  0  0  0  0
  195.5590  176.7340  145.2570 C   0  0  0  0  0  2  0  0  0  0  0  0
  196.4660  170.6710  143.9810 O   0  0  0  0  0  0  0  0  0  0  0  0
  195.7790  170.0530  145.0590 C   0  0  2  0  0  3  0  0  0  0  0  0
  195.0530  171.0060  146.0300 C   0  0  0  0  0  2  0  0  0  0  0  0
  196.1250  173.0500  144.1050 C   0  0  2  0  0  3  0  0  0  0  0  0
  194.0680  171.9500  145.3390 C   0  0  0  0  0  2  0  0  0  0  0  0
  194.5930  172.6880  144.0880 C   0  0  1  0  0  3  0  0  0  0  0  0
  187.9590  175.7080  143.3970 O   0  0  0  0  0  0  0  0  0  0  0  0
  188.9000  175.2740  146.0840 C   0  0  0  0  0  2  0  0  0  0  0  0
  185.7210  178.1380  145.2520 C   0  0  2  0  0  3  0  0  0  0  0  0
  186.0810  177.1260  144.1660 C   0  0  0  0  0  2  0  0  0  0  0  0
  187.3410  176.3570  144.4700 C   0  0  0  0  0  0  0  0  0  0  0  0
  190.2420  175.0960  143.9910 C   0  0  1  0  0  3  0  0  0  0  0  0
  187.2220  177.0280  146.8750 C   0  0  0  0  0  2  0  0  0  0  0  0
  187.8030  176.2300  145.7360 C   0  0  0  0  0  0  0  0  0  0  0  0
  185.7880  177.4650  146.6130 C   0  0  0  0  0  2  0  0  0  0  0  0
  190.2100  175.6420  145.4130 C   0  0  0  0  0  2  0  0  0  0  0  0
  189.3320  175.9010  143.0740 C   0  0  0  0  0  2  0  0  0  0  0  0
  184.3580  178.6910  145.0090 C   0  0  0  0  0  0  0  0  0  0  0  0
  183.5980  178.9250  145.9830 O   0  0  0  0  0  1  0  0  0  0  0  0
  183.9200  178.9480  143.7150 O   0  0  0  0  0  0  0  0  0  0  0  0
  196.6690  169.1040  145.7930 C   0  0  0  0  0  0  0  0  0  0  0  0
  197.4570  168.3490  145.1650 O   0  0  0  0  0  0  0  0  0  0  0  0
  196.6240  169.0530  147.2150 N   0  0  0  0  0  1  0  0  0  0  0  0
  1  5  1  1  0  0  0
  1 17  1  0  0  0  0
  1 10  1  0  0  0  0
  4  8  1  1  0  0  0
  4  5  1  0  0  0  0
  4 23  1  0  0  0  0
  6  8  1  6  0  0  0
  6  7  1  0  0  0  0
  7 11  1  0  0  0  0
  9 10  1  0  0  0  0
  9  3  1  1  0  0  0
  9 11  1  0  0  0  0
 10  6  1  0  0  0  0
 12  2  1  0  0  0  0
 12 13  1  0  0  0  0
 13 32  1  0  0  0  0
 13 14  1  0  0  0  0
 15  2  1  0  0  0  0
 15  3  1  0  0  0  0
 16 14  1  0  0  0  0
 17 15  1  0  0  0  0
 17 16  1  0  0  0  0
 18 22  1  0  0  0  0
 20 26  1  0  0  0  0
 21 22  1  0  0  0  0
 21 20  1  0  0  0  0
 22 25  2  0  0  0  0
 23 27  1  0  0  0  0
 25 19  1  0  0  0  0
 25 24  1  0  0  0  0
 26 24  1  0  0  0  0
 27 19  1  0  0  0  0
 28 18  1  0  0  0  0
 28 23  1  0  0  0  0
 29 20  1  0  0  0  0
 29 30  1  0  0  0  0
 31 29  2  0  0  0  0
 32 34  1  0  0  0  0
 33 32  2  0  0  0  0
M  END
>  <MODEL>
6

>  <REMARK>
 VINA RESULT:      -7.8      3.129      4.233
  Name = 
  3 active torsions:
  status: ('A' for Active; 'I' for Inactive)
    1  A    between atoms: C_3  and  C_25
    2  A    between atoms: C_7  and  C_11
    3  A    between atoms: C_8  and  C_18
                            x       y       z     vdW  Elec       q    Type
                         _______ _______ _______ _____ _____    ______ ____

>  <TORSDO>
F 3

$$$$
=
 OpenBabel11052420163D

 34 39  0  0  1  0  0  0  0  0999 V2000
  189.5480  174.8800  145.0580 C   0  0  1  0  0  3  0  0  0  0  0  0
  187.1260  177.3850  146.8750 C   0  0  0  0  0  2  0  0  0  0  0  0
  189.6500  177.0730  147.0220 C   0  0  0  0  0  2  0  0  0  0  0  0
  190.8610  173.3060  143.7930 C   0  0  2  0  0  3  0  0  0  0  0  0
  189.7050  174.2300  143.7620 N   0  0  0  0  0  2  0  0  0  0  0  0
  192.0920  175.1830  145.0460 C   0  0  1  0  0  3  0  0  0  0  0  0
  192.9190  175.4910  146.1530 O   0  0  0  0  0  0  0  0  0  0  0  0
  191.9830  173.6710  144.8170 C   0  0  0  0  0  2  0  0  0  0  0  0
  190.7380  176.0400  146.7550 C   0  0  1  0  0  3  0  0  0  0  0  0
  190.7350  175.7790  145.3110 C   0  0  2  0  0  3  0  0  0  0  0  0
  192.1800  176.3930  146.9610 C   0  0  0  0  0  2  0  0  0  0  0  0
  186.0010  176.9780  146.1330 O   0  0  0  0  0  0  0  0  0  0  0  0
  185.9500  177.6920  144.9060 C   0  0  2  0  0  3  0  0  0  0  0  0
  187.3090  177.9760  144.2350 C   0  0  0  0  0  2  0  0  0  0  0  0
  188.2950  176.4340  146.6190 C   0  0  2  0  0  3  0  0  0  0  0  0
  188.1500  176.7210  144.0000 C   0  0  0  0  0  2  0  0  0  0  0  0
  188.2880  175.7560  145.1990 C   0  0  1  0  0  3  0  0  0  0  0  0
  190.8350  173.4530  140.0330 O   0  0  0  0  0  0  0  0  0  0  0  0
  192.8740  171.6510  140.9760 C   0  0  0  0  0  2  0  0  0  0  0  0
  190.6520  170.8130  137.3210 C   0  0  2  0  0  3  0  0  0  0  0  0
  190.5850  172.2260  137.8960 C   0  0  0  0  0  2  0  0  0  0  0  0
  191.1850  172.3310  139.2750 C   0  0  0  0  0  0  0  0  0  0  0  0
  191.3940  173.0880  142.3760 C   0  0  1  0  0  3  0  0  0  0  0  0
  192.3730  170.1530  138.9710 C   0  0  0  0  0  2  0  0  0  0  0  0
  192.0880  171.4280  139.7230 C   0  0  0  0  0  0  0  0  0  0  0  0
  192.0600  170.2660  137.4850 C   0  0  0  0  0  2  0  0  0  0  0  0
  191.9850  171.6940  142.2040 C   0  0  0  0  0  2  0  0  0  0  0  0
  190.3020  173.3510  141.3490 C   0  0  0  0  0  2  0  0  0  0  0  0
  190.2610  170.8240  135.8830 C   0  0  0  0  0  0  0  0  0  0  0  0
  190.9050  170.1280  135.0560 O   0  0  0  0  0  0  0  0  0  0  0  0
  189.1910  171.5980  135.4470 O   0  0  0  0  0  1  0  0  0  0  0  0
  185.1400  178.9390  145.0420 C   0  0  0  0  0  0  0  0  0  0  0  0
  184.2110  179.0100  145.8880 O   0  0  0  0  0  0  0  0  0  0  0  0
  185.4210  180.0560  144.2060 N   0  0  0  0  0  1  0  0  0  0  0  0
  1  5  1  6  0  0  0
  1 17  1  0  0  0  0
  1 10  1  0  0  0  0
  4  8  1  1  0  0  0
  5  4  1  0  0  0  0
  6  8  1  1  0  0  0
  6 10  1  0  0  0  0
  6  7  1  0  0  0  0
  7 11  1  0  0  0  0
  9 11  1  6  0  0  0
  9  3  1  0  0  0  0
 10  9  1  0  0  0  0
 12  2  1  0  0  0  0
 13 32  1  0  0  0  0
 13 12  1  0  0  0  0
 14 13  1  0  0  0  0
 15  2  1  0  0  0  0
 15  3  1  0  0  0  0
 16 14  1  0  0  0  0
 16 17  1  0  0  0  0
 17 15  1  0  0  0  0
 18 28  1  0  0  0  0
 19 27  1  0  0  0  0
 20 26  1  0  0  0  0
 20 21  1  0  0  0  0
 21 22  1  0  0  0  0
 22 25  2  0  0  0  0
 22 18  1  0  0  0  0
 23  4  1  0  0  0  0
 24 25  1  0  0  0  0
 25 19  1  0  0  0  0
 26 24  1  0  0  0  0
 27 23  1  0  0  0  0
 28 23  1  0  0  0  0
 29 20  1  0  0  0  0
 30 29  2  0  0  0  0
 31 29  1  0  0  0  0
 32 33  2  0  0  0  0
 34 32  1  0  0  0  0
M  END
>  <MODEL>
7

>  <REMARK>
 VINA RESULT:      -7.6      4.316      9.663
  Name = 
  3 active torsions:
  status: ('A' for Active; 'I' for Inactive)
    1  A    between atoms: C_3  and  C_25
    2  A    between atoms: C_7  and  C_11
    3  A    between atoms: C_8  and  C_18
                            x       y       z     vdW  Elec       q    Type
                         _______ _______ _______ _____ _____    ______ ____

>  <TORSDO>
F 3

$$$$
=
 OpenBabel11052420163D

 34 39  0  0  1  0  0  0  0  0999 V2000
  190.0240  176.3880  143.0720 C   0  0  1  0  0  3  0  0  0  0  0  0
  186.3700  177.7050  143.6670 C   0  0  0  0  0  2  0  0  0  0  0  0
  187.2680  175.8300  142.1950 C   0  0  0  0  0  2  0  0  0  0  0  0
  192.3240  175.6950  142.8990 C   0  0  2  0  0  3  0  0  0  0  0  0
  191.2650  176.1850  143.8100 N   0  0  0  0  0  2  0  0  0  0  0  0
  190.5150  174.1500  141.9260 C   0  0  1  0  0  3  0  0  0  0  0  0
  189.9290  173.6550  140.7350 O   0  0  0  0  0  0  0  0  0  0  0  0
  191.8200  174.9050  141.6500 C   0  0  0  0  0  2  0  0  0  0  0  0
  188.5490  175.3590  141.5200 C   0  0  1  0  0  3  0  0  0  0  0  0
  189.5090  175.0540  142.5870 C   0  0  2  0  0  3  0  0  0  0  0  0
  188.5720  174.0660  140.7610 C   0  0  0  0  0  2  0  0  0  0  0  0
  186.7600  178.6020  144.6790 O   0  0  0  0  0  0  0  0  0  0  0  0
  186.8080  177.9280  145.9280 C   0  0  2  0  0  3  0  0  0  0  0  0
  187.3160  176.4720  145.8890 C   0  0  0  0  0  2  0  0  0  0  0  0
  187.6030  177.1310  142.9700 C   0  0  2  0  0  3  0  0  0  0  0  0
  188.6900  176.3220  145.2350 C   0  0  0  0  0  2  0  0  0  0  0  0
  188.8840  177.0390  143.8800 C   0  0  1  0  0  3  0  0  0  0  0  0
  195.4960  173.7430  143.4370 O   0  0  0  0  0  0  0  0  0  0  0  0
  193.7860  173.5820  145.7480 C   0  0  0  0  0  2  0  0  0  0  0  0
  196.2150  170.1810  144.5100 C   0  0  2  0  0  3  0  0  0  0  0  0
  196.5430  171.5510  143.9220 C   0  0  0  0  0  2  0  0  0  0  0  0
  195.4960  172.5910  144.2310 C   0  0  0  0  0  0  0  0  0  0  0  0
  193.3880  174.9370  143.6950 C   0  0  1  0  0  3  0  0  0  0  0  0
  194.5600  171.1690  146.0600 C   0  0  0  0  0  2  0  0  0  0  0  0
  194.6540  172.4560  145.2820 C   0  0  0  0  0  0  0  0  0  0  0  0
  195.8310  170.3360  145.9720 C   0  0  0  0  0  2  0  0  0  0  0  0
  192.7620  173.9800  144.7030 C   0  0  0  0  0  2  0  0  0  0  0  0
  194.3340  174.2020  142.7560 C   0  0  0  0  0  2  0  0  0  0  0  0
  197.3860  169.2680  144.3720 C   0  0  0  0  0  0  0  0  0  0  0  0
  197.9410  168.8070  145.4010 O   0  0  0  0  0  1  0  0  0  0  0  0
  197.8700  168.9250  143.1150 O   0  0  0  0  0  0  0  0  0  0  0  0
  185.5010  178.0260  146.6440 C   0  0  0  0  0  0  0  0  0  0  0  0
  184.5610  177.2320  146.3750 O   0  0  0  0  0  0  0  0  0  0  0  0
  185.3150  179.0280  147.6370 N   0  0  0  0  0  1  0  0  0  0  0  0
  1  5  1  1  0  0  0
  1 17  1  0  0  0  0
  2 12  1  0  0  0  0
  3 15  1  0  0  0  0
  4  8  1  6  0  0  0
  4 23  1  0  0  0  0
  4  5  1  0  0  0  0
  6  8  1  6  0  0  0
  6 10  1  0  0  0  0
  7 11  1  0  0  0  0
  7  6  1  0  0  0  0
  9 11  1  1  0  0  0
  9  3  1  0  0  0  0
  9 10  1  0  0  0  0
 10  1  1  0  0  0  0
 12 13  1  0  0  0  0
 13 32  1  0  0  0  0
 14 13  1  0  0  0  0
 15  2  1  0  0  0  0
 15 17  1  0  0  0  0
 16 14  1  0  0  0  0
 17 16  1  0  0  0  0
 18 22  1  0  0  0  0
 20 26  1  0  0  0  0
 21 22  1  0  0  0  0
 21 20  1  0  0  0  0
 22 25  2  0  0  0  0
 23 27  1  0  0  0  0
 25 19  1  0  0  0  0
 25 24  1  0  0  0  0
 26 24  1  0  0  0  0
 27 19  1  0  0  0  0
 28 18  1  0  0  0  0
 28 23  1  0  0  0  0
 29 20  1  0  0  0  0
 29 30  1  0  0  0  0
 31 29  2  0  0  0  0
 32 34  1  0  0  0  0
 33 32  2  0  0  0  0
M  END
>  <MODEL>
8

>  <REMARK>
 VINA RESULT:      -7.4      3.499     10.219
  Name = 
  3 active torsions:
  status: ('A' for Active; 'I' for Inactive)
    1  A    between atoms: C_3  and  C_25
    2  A    between atoms: C_7  and  C_11
    3  A    between atoms: C_8  and  C_18
                            x       y       z     vdW  Elec       q    Type
                         _______ _______ _______ _____ _____    ______ ____

>  <TORSDO>
F 3

$$$$
=
 OpenBabel11052420163D

 34 39  0  0  1  0  0  0  0  0999 V2000
  189.2840  175.0900  144.2290 C   0  0  1  0  0  3  0  0  0  0  0  0
  187.6890  177.8540  146.5210 C   0  0  0  0  0  2  0  0  0  0  0  0
  189.7520  177.8860  145.0270 C   0  0  0  0  0  2  0  0  0  0  0  0
  190.0610  173.2820  142.8400 C   0  0  2  0  0  3  0  0  0  0  0  0
  188.8710  173.9920  143.3620 N   0  0  0  0  0  2  0  0  0  0  0  0
  191.0620  175.6190  142.4620 C   0  0  1  0  0  3  0  0  0  0  0  0
  192.2110  176.4300  142.6250 O   0  0  0  0  0  0  0  0  0  0  0  0
  191.3610  174.1410  142.7350 C   0  0  0  0  0  2  0  0  0  0  0  0
  190.7540  176.9500  144.3650 C   0  0  1  0  0  3  0  0  0  0  0  0
  190.0060  176.1300  143.4060 C   0  0  2  0  0  3  0  0  0  0  0  0
  191.8240  177.5010  143.4700 C   0  0  0  0  0  2  0  0  0  0  0  0
  186.5620  177.0710  146.8370 O   0  0  0  0  0  0  0  0  0  0  0  0
  185.5730  177.2200  145.8300 C   0  0  2  0  0  3  0  0  0  0  0  0
  186.0970  177.3470  144.3850 C   0  0  0  0  0  2  0  0  0  0  0  0
  188.7300  177.0050  145.7930 C   0  0  2  0  0  3  0  0  0  0  0  0
  187.0110  176.1950  143.9620 C   0  0  0  0  0  2  0  0  0  0  0  0
  188.1330  175.8150  144.9540 C   0  0  1  0  0  3  0  0  0  0  0  0
  190.5220  170.8550  140.0010 O   0  0  0  0  0  0  0  0  0  0  0  0
  188.4870  172.7950  139.3750 C   0  0  0  0  0  2  0  0  0  0  0  0
  191.1670  171.2750  136.2910 C   0  0  2  0  0  3  0  0  0  0  0  0
  191.0890  170.5170  137.6140 C   0  0  0  0  0  2  0  0  0  0  0  0
  190.3250  171.2630  138.6780 C   0  0  0  0  0  0  0  0  0  0  0  0
  189.7110  172.5670  141.5340 C   0  0  1  0  0  3  0  0  0  0  0  0
  189.3020  172.7580  136.9560 C   0  0  0  0  0  2  0  0  0  0  0  0
  189.4270  172.2240  138.3590 C   0  0  0  0  0  0  0  0  0  0  0  0
  189.7810  171.7650  135.9060 C   0  0  0  0  0  2  0  0  0  0  0  0
  189.2220  173.5430  140.4710 C   0  0  0  0  0  2  0  0  0  0  0  0
  190.9000  171.7600  141.0320 C   0  0  0  0  0  2  0  0  0  0  0  0
  191.7240  170.3930  135.2250 C   0  0  0  0  0  0  0  0  0  0  0  0
  192.6760  170.8020  134.5130 O   0  0  0  0  0  0  0  0  0  0  0  0
  191.1970  169.1250  135.0110 O   0  0  0  0  0  1  0  0  0  0  0  0
  184.6270  178.3270  146.1630 C   0  0  0  0  0  0  0  0  0  0  0  0
  184.3840  178.6230  147.3620 O   0  0  0  0  0  0  0  0  0  0  0  0
  183.9950  179.0530  145.1150 N   0  0  0  0  0  1  0  0  0  0  0  0
  1  5  1  6  0  0  0
  1 17  1  0  0  0  0
  2 12  1  0  0  0  0
  3 15  1  0  0  0  0
  4  8  1  6  0  0  0
  4  5  1  0  0  0  0
  6  7  1  0  0  0  0
  6  8  1  1  0  0  0
  6 10  1  0  0  0  0
  7 11  1  0  0  0  0
  9 11  1  6  0  0  0
  9  3  1  0  0  0  0
 10  1  1  0  0  0  0
 10  9  1  0  0  0  0
 13 32  1  0  0  0  0
 13 12  1  0  0  0  0
 14 13  1  0  0  0  0
 15  2  1  0  0  0  0
 16 14  1  0  0  0  0
 16 17  1  0  0  0  0
 17 15  1  0  0  0  0
 18 28  1  0  0  0  0
 19 27  1  0  0  0  0
 20 21  1  0  0  0  0
 21 22  1  0  0  0  0
 22 18  1  0  0  0  0
 23  4  1  0  0  0  0
 24 25  1  0  0  0  0
 25 22  2  0  0  0  0
 25 19  1  0  0  0  0
 26 20  1  0  0  0  0
 26 24  1  0  0  0  0
 27 23  1  0  0  0  0
 28 23  1  0  0  0  0
 29 20  1  0  0  0  0
 30 29  2  0  0  0  0
 31 29  1  0  0  0  0
 32 33  2  0  0  0  0
 34 32  1  0  0  0  0
M  END
>  <MODEL>
9

>  <REMARK>
 VINA RESULT:      -7.3      4.923     10.277
  Name = 
  3 active torsions:
  status: ('A' for Active; 'I' for Inactive)
    1  A    between atoms: C_3  and  C_25
    2  A    between atoms: C_7  and  C_11
    3  A    between atoms: C_8  and  C_18
                            x       y       z     vdW  Elec       q    Type
                         _______ _______ _______ _____ _____    ______ ____

>  <TORSDO>
F 3

$$$$
