=
 OpenBabel11052418213D

 27 31  0  0  1  0  0  0  0  0999 V2000
  190.9940  176.0280  142.7580 C   0  0  0  0  0  2  0  0  0  0  0  0
  188.6200  176.7640  142.8580 C   0  0  0  0  0  0  0  0  0  0  0  0
  188.7480  175.8160  145.1050 N   0  0  0  0  0  2  0  0  0  0  0  0
  185.6260  179.4440  143.8970 C   0  0  0  0  0  3  0  0  0  0  0  0
  185.0480  179.4510  145.1640 C   0  0  0  0  0  3  0  0  0  0  0  0
  188.0940  177.6510  141.9770 N   0  0  0  0  0  0  0  0  0  0  0  0
  186.4750  177.6040  145.8370 C   0  0  0  0  0  0  0  0  0  0  0  0
  191.0770  176.7610  147.8530 C   0  0  0  0  0  3  0  0  0  0  0  0
  186.7800  176.6120  146.9070 C   0  0  0  0  0  1  0  0  0  0  0  0
  192.3120  176.4070  147.3100 C   0  0  0  0  0  3  0  0  0  0  0  0
  187.1020  177.6090  144.5600 C   0  0  0  0  0  0  0  0  0  0  0  0
  189.5950  175.8230  142.4070 N   0  0  0  0  0  0  0  0  0  0  0  0
  185.4660  178.5290  146.1210 C   0  0  0  0  0  3  0  0  0  0  0  0
  186.6330  178.5290  143.5870 C   0  0  0  0  0  0  0  0  0  0  0  0
  191.3500  175.2320  143.9190 N   0  0  0  0  0  2  0  0  0  0  0  0
  188.1650  176.7440  144.1850 C   0  0  0  0  0  0  0  0  0  0  0  0
  189.9130  176.5920  147.1010 C   0  0  0  0  0  3  0  0  0  0  0  0
  187.1460  178.5150  142.3330 N   0  0  0  0  0  0  0  0  0  0  0  0
  192.3830  175.8950  146.0130 C   0  0  0  0  0  3  0  0  0  0  0  0
  191.2230  175.7440  145.2440 C   0  0  0  0  0  0  0  0  0  0  0  0
  189.9710  176.0900  145.7950 C   0  0  0  0  0  0  0  0  0  0  0  0
  188.8400  172.4060  139.9690 C   0  0  0  0  0  3  0  0  0  0  0  0
  189.2180  174.8600  141.3760 C   0  0  2  0  0  3  0  0  0  0  0  0
  188.2180  173.8380  141.9240 C   0  0  0  0  0  2  0  0  0  0  0  0
  187.9940  172.6900  140.9720 C   0  0  0  0  0  3  0  0  0  0  0  0
  190.0290  173.2720  139.6410 C   0  0  0  0  0  2  0  0  0  0  0  0
  190.4480  174.1460  140.8220 C   0  0  0  0  0  2  0  0  0  0  0  0
  1 15  1  0  0  0  0
  2 16  1  0  0  0  0
  3 21  1  0  0  0  0
  4  5  2  0  0  0  0
  5 13  1  0  0  0  0
  6 18  1  0  0  0  0
  6  2  2  0  0  0  0
  7 13  2  0  0  0  0
  7  9  1  0  0  0  0
 10  8  1  0  0  0  0
 11  7  1  0  0  0  0
 12  1  1  0  0  0  0
 12  2  1  0  0  0  0
 14  4  1  0  0  0  0
 14 11  1  0  0  0  0
 15 20  1  0  0  0  0
 16 11  2  0  0  0  0
 16  3  1  0  0  0  0
 17  8  2  0  0  0  0
 18 14  2  0  0  0  0
 19 10  2  0  0  0  0
 20 21  2  0  0  0  0
 20 19  1  0  0  0  0
 21 17  1  0  0  0  0
 22 25  2  0  0  0  0
 23 27  1  1  0  0  0
 23 24  1  0  0  0  0
 23 12  1  0  0  0  0
 25 24  1  0  0  0  0
 26 22  1  0  0  0  0
 26 27  1  0  0  0  0
M  END
>  <MODEL>
1

>  <REMARK>
 VINA RESULT:      -8.5      0.000      0.000
  Name = 
  1 active torsions:
  status: ('A' for Active; 'I' for Inactive)
    1  A    between atoms: C_9  and  N_15
                            x       y       z     vdW  Elec       q    Type
                         _______ _______ _______ _____ _____    ______ ____

>  <TORSDO>
F 1

$$$$
=
 OpenBabel11052418213D

 27 31  0  0  1  0  0  0  0  0999 V2000
  188.0220  177.3770  141.8830 C   0  0  0  0  0  2  0  0  0  0  0  0
  189.4090  177.0050  143.9130 C   0  0  0  0  0  0  0  0  0  0  0  0
  188.9780  174.6570  143.3960 N   0  0  0  0  0  2  0  0  0  0  0  0
  192.9930  176.1750  145.8360 C   0  0  0  0  0  3  0  0  0  0  0  0
  193.4410  174.8710  146.0310 C   0  0  0  0  0  3  0  0  0  0  0  0
  190.1950  177.9740  144.4460 N   0  0  0  0  0  0  0  0  0  0  0  0
  191.4560  174.0110  144.9260 C   0  0  0  0  0  0  0  0  0  0  0  0
  189.7930  172.8220  140.2600 C   0  0  0  0  0  3  0  0  0  0  0  0
  190.6770  172.7910  144.5730 C   0  0  0  0  0  1  0  0  0  0  0  0
  188.9900  173.4840  139.3300 C   0  0  0  0  0  3  0  0  0  0  0  0
  191.0020  175.3380  144.6840 C   0  0  0  0  0  0  0  0  0  0  0  0
  188.1540  177.3620  143.3340 N   0  0  0  0  0  0  0  0  0  0  0  0
  192.6700  173.7990  145.5870 C   0  0  0  0  0  3  0  0  0  0  0  0
  191.7840  176.4130  145.1810 C   0  0  0  0  0  0  0  0  0  0  0  0
  187.4300  176.1360  141.4130 N   0  0  0  0  0  2  0  0  0  0  0  0
  189.8100  175.6630  143.9840 C   0  0  0  0  0  0  0  0  0  0  0  0
  189.8040  173.2430  141.5910 C   0  0  0  0  0  3  0  0  0  0  0  0
  191.3500  177.6890  145.0430 N   0  0  0  0  0  0  0  0  0  0  0  0
  188.2100  174.5700  139.7290 C   0  0  0  0  0  3  0  0  0  0  0  0
  188.2330  175.0120  141.0580 C   0  0  0  0  0  0  0  0  0  0  0  0
  189.0340  174.3380  142.0030 C   0  0  0  0  0  0  0  0  0  0  0  0
  184.6140  178.6790  145.3160 C   0  0  0  0  0  3  0  0  0  0  0  0
  187.1390  177.9800  144.1810 C   0  0  2  0  0  3  0  0  0  0  0  0
  186.3560  176.9180  144.9580 C   0  0  0  0  0  2  0  0  0  0  0  0
  185.1460  177.4920  145.6510 C   0  0  0  0  0  3  0  0  0  0  0  0
  185.2430  179.5880  144.2910 C   0  0  0  0  0  2  0  0  0  0  0  0
  186.1830  178.8350  143.3520 C   0  0  0  0  0  2  0  0  0  0  0  0
  1 12  1  0  0  0  0
  2 16  2  0  0  0  0
  2  6  1  0  0  0  0
  3 16  1  0  0  0  0
  4  5  1  0  0  0  0
  6 18  2  0  0  0  0
  7 13  1  0  0  0  0
  8 17  1  0  0  0  0
  9  7  1  0  0  0  0
 10 19  1  0  0  0  0
 10  8  2  0  0  0  0
 11  7  2  0  0  0  0
 11 14  1  0  0  0  0
 12  2  1  0  0  0  0
 13  5  2  0  0  0  0
 14  4  2  0  0  0  0
 15  1  1  0  0  0  0
 16 11  1  0  0  0  0
 17 21  2  0  0  0  0
 18 14  1  0  0  0  0
 19 20  2  0  0  0  0
 20 15  1  0  0  0  0
 20 21  1  0  0  0  0
 21  3  1  0  0  0  0
 22 25  2  0  0  0  0
 23 12  1  6  0  0  0
 23 24  1  0  0  0  0
 24 25  1  0  0  0  0
 26 22  1  0  0  0  0
 27 23  1  0  0  0  0
 27 26  1  0  0  0  0
M  END
>  <MODEL>
2

>  <REMARK>
 VINA RESULT:      -8.2      1.540      6.284
  Name = 
  1 active torsions:
  status: ('A' for Active; 'I' for Inactive)
    1  A    between atoms: C_9  and  N_15
                            x       y       z     vdW  Elec       q    Type
                         _______ _______ _______ _____ _____    ______ ____

>  <TORSDO>
F 1

$$$$
=
 OpenBabel11052418213D

 27 31  0  0  1  0  0  0  0  0999 V2000
  190.7150  173.9680  143.9710 C   0  0  0  0  0  2  0  0  0  0  0  0
  189.4040  175.6820  145.2070 C   0  0  0  0  0  0  0  0  0  0  0  0
  189.1450  176.6400  142.9750 N   0  0  0  0  0  2  0  0  0  0  0  0
  185.8530  177.3270  146.5890 C   0  0  0  0  0  3  0  0  0  0  0  0
  185.0780  178.1760  145.8040 C   0  0  0  0  0  3  0  0  0  0  0  0
  188.9470  175.4810  146.4680 N   0  0  0  0  0  0  0  0  0  0  0  0
  186.6810  177.9820  143.9900 C   0  0  0  0  0  0  0  0  0  0  0  0
  187.6710  175.0300  139.9570 C   0  0  0  0  0  3  0  0  0  0  0  0
  187.0740  178.4710  142.6390 C   0  0  0  0  0  1  0  0  0  0  0  0
  188.5660  173.9840  139.7300 C   0  0  0  0  0  3  0  0  0  0  0  0
  187.4650  177.0810  144.7650 C   0  0  0  0  0  0  0  0  0  0  0  0
  190.6710  175.1450  144.8280 N   0  0  0  0  0  0  0  0  0  0  0  0
  185.4980  178.5070  144.5180 C   0  0  0  0  0  3  0  0  0  0  0  0
  187.0390  176.7910  146.0870 C   0  0  0  0  0  0  0  0  0  0  0  0
  190.9160  174.3530  142.5850 N   0  0  0  0  0  2  0  0  0  0  0  0
  188.6560  176.4570  144.3080 C   0  0  0  0  0  0  0  0  0  0  0  0
  187.8550  175.8780  141.0520 C   0  0  0  0  0  3  0  0  0  0  0  0
  187.7970  176.0020  146.8880 N   0  0  0  0  0  0  0  0  0  0  0  0
  189.6370  173.7810  140.6020 C   0  0  0  0  0  3  0  0  0  0  0  0
  189.8160  174.6120  141.7140 C   0  0  0  0  0  0  0  0  0  0  0  0
  188.9190  175.6770  141.9400 C   0  0  0  0  0  0  0  0  0  0  0  0
  194.5740  176.2990  146.1060 C   0  0  0  0  0  3  0  0  0  0  0  0
  191.8670  175.5990  145.5340 C   0  0  2  0  0  3  0  0  0  0  0  0
  192.4790  176.8190  144.8420 C   0  0  0  0  0  2  0  0  0  0  0  0
  193.8390  177.1660  145.3910 C   0  0  0  0  0  3  0  0  0  0  0  0
  194.0570  174.9420  146.5130 C   0  0  0  0  0  2  0  0  0  0  0  0
  192.9000  174.4780  145.6320 C   0  0  0  0  0  2  0  0  0  0  0  0
  1 12  1  0  0  0  0
  2  6  1  0  0  0  0
  3 16  1  0  0  0  0
  5  4  2  0  0  0  0
  6 18  2  0  0  0  0
  7 13  2  0  0  0  0
  7 11  1  0  0  0  0
  8 17  1  0  0  0  0
  9  7  1  0  0  0  0
 10  8  2  0  0  0  0
 10 19  1  0  0  0  0
 11 14  2  0  0  0  0
 12  2  1  0  0  0  0
 13  5  1  0  0  0  0
 14  4  1  0  0  0  0
 14 18  1  0  0  0  0
 15  1  1  0  0  0  0
 16 11  1  0  0  0  0
 16  2  2  0  0  0  0
 17 21  2  0  0  0  0
 19 20  2  0  0  0  0
 20 21  1  0  0  0  0
 20 15  1  0  0  0  0
 21  3  1  0  0  0  0
 22 26  1  0  0  0  0
 23 12  1  6  0  0  0
 23 27  1  0  0  0  0
 24 25  1  0  0  0  0
 24 23  1  0  0  0  0
 25 22  2  0  0  0  0
 27 26  1  0  0  0  0
M  END
>  <MODEL>
3

>  <REMARK>
 VINA RESULT:      -8.1      1.471      5.156
  Name = 
  1 active torsions:
  status: ('A' for Active; 'I' for Inactive)
    1  A    between atoms: C_9  and  N_15
                            x       y       z     vdW  Elec       q    Type
                         _______ _______ _______ _____ _____    ______ ____

>  <TORSDO>
F 1

$$$$
=
 OpenBabel11052418213D

 27 31  0  0  1  0  0  0  0  0999 V2000
  192.2080  175.2270  142.0510 C   0  0  0  0  0  2  0  0  0  0  0  0
  189.8590  175.2440  142.8680 C   0  0  0  0  0  0  0  0  0  0  0  0
  190.9220  174.6400  144.9840 N   0  0  0  0  0  2  0  0  0  0  0  0
  186.6110  177.0330  144.7320 C   0  0  0  0  0  3  0  0  0  0  0  0
  186.4520  177.0170  146.1150 C   0  0  0  0  0  3  0  0  0  0  0  0
  188.8510  175.8300  142.1770 N   0  0  0  0  0  0  0  0  0  0  0  0
  188.5160  175.7580  146.3490 C   0  0  0  0  0  0  0  0  0  0  0  0
  193.5260  176.5360  146.8530 C   0  0  0  0  0  3  0  0  0  0  0  0
  189.4120  175.0290  147.2910 C   0  0  0  0  0  1  0  0  0  0  0  0
  194.5980  176.4980  145.9610 C   0  0  0  0  0  3  0  0  0  0  0  0
  188.7140  175.7980  144.9400 C   0  0  0  0  0  0  0  0  0  0  0  0
  190.9060  174.5830  142.1560 N   0  0  0  0  0  0  0  0  0  0  0  0
  187.3960  176.3740  146.9140 C   0  0  0  0  0  3  0  0  0  0  0  0
  187.7190  176.4230  144.1430 C   0  0  0  0  0  0  0  0  0  0  0  0
  193.1160  174.7090  143.0600 N   0  0  0  0  0  2  0  0  0  0  0  0
  189.8370  175.2450  144.2710 C   0  0  0  0  0  0  0  0  0  0  0  0
  192.3080  175.9480  146.5030 C   0  0  0  0  0  3  0  0  0  0  0  0
  187.8260  176.4140  142.7920 N   0  0  0  0  0  0  0  0  0  0  0  0
  194.4480  175.8830  144.7170 C   0  0  0  0  0  3  0  0  0  0  0  0
  193.2240  175.3110  144.3490 C   0  0  0  0  0  0  0  0  0  0  0  0
  192.1420  175.3380  145.2540 C   0  0  0  0  0  0  0  0  0  0  0  0
  190.7650  170.9810  139.8760 C   0  0  0  0  0  3  0  0  0  0  0  0
  190.5690  173.4390  141.3130 C   0  0  2  0  0  3  0  0  0  0  0  0
  190.6870  172.1300  142.0970 C   0  0  0  0  0  2  0  0  0  0  0  0
  190.5880  170.9180  141.2050 C   0  0  0  0  0  3  0  0  0  0  0  0
  190.9730  172.2840  139.1470 C   0  0  0  0  0  2  0  0  0  0  0  0
  191.4630  173.3920  140.0760 C   0  0  0  0  0  2  0  0  0  0  0  0
  1 12  1  0  0  0  0
  1 15  1  0  0  0  0
  2 16  1  0  0  0  0
  3 21  1  0  0  0  0
  4  5  2  0  0  0  0
  5 13  1  0  0  0  0
  6 18  1  0  0  0  0
  6  2  2  0  0  0  0
  7 13  2  0  0  0  0
  7  9  1  0  0  0  0
 10  8  2  0  0  0  0
 11  7  1  0  0  0  0
 12  2  1  0  0  0  0
 14  4  1  0  0  0  0
 14 11  1  0  0  0  0
 15 20  1  0  0  0  0
 16 11  2  0  0  0  0
 16  3  1  0  0  0  0
 17  8  1  0  0  0  0
 18 14  2  0  0  0  0
 19 10  1  0  0  0  0
 20 19  2  0  0  0  0
 20 21  1  0  0  0  0
 21 17  2  0  0  0  0
 22 25  2  0  0  0  0
 23 27  1  6  0  0  0
 23 24  1  0  0  0  0
 23 12  1  0  0  0  0
 25 24  1  0  0  0  0
 26 22  1  0  0  0  0
 26 27  1  0  0  0  0
M  END
>  <MODEL>
4

>  <REMARK>
 VINA RESULT:      -7.8      1.719      2.424
  Name = 
  1 active torsions:
  status: ('A' for Active; 'I' for Inactive)
    1  A    between atoms: C_9  and  N_15
                            x       y       z     vdW  Elec       q    Type
                         _______ _______ _______ _____ _____    ______ ____

>  <TORSDO>
F 1

$$$$
=
 OpenBabel11052418213D

 27 31  0  0  1  0  0  0  0  0999 V2000
  187.3650  178.0710  142.0250 C   0  0  0  0  0  2  0  0  0  0  0  0
  188.9300  177.1300  143.7130 C   0  0  0  0  0  0  0  0  0  0  0  0
  188.3010  175.0180  142.6600 N   0  0  0  0  0  2  0  0  0  0  0  0
  192.6350  175.7020  144.9230 C   0  0  0  0  0  3  0  0  0  0  0  0
  193.0170  174.3790  144.7200 C   0  0  0  0  0  3  0  0  0  0  0  0
  189.8260  177.8960  144.3830 N   0  0  0  0  0  0  0  0  0  0  0  0
  190.8790  173.9070  143.6700 C   0  0  0  0  0  0  0  0  0  0  0  0
  188.6680  174.0510  139.0820 C   0  0  0  0  0  3  0  0  0  0  0  0
  189.9920  172.8510  143.1060 C   0  0  0  0  0  1  0  0  0  0  0  0
  187.8160  174.9620  138.4560 C   0  0  0  0  0  3  0  0  0  0  0  0
  190.4870  175.2660  143.8340 C   0  0  0  0  0  0  0  0  0  0  0  0
  187.6460  177.6690  143.3960 N   0  0  0  0  0  0  0  0  0  0  0  0
  192.1390  173.4880  144.1070 C   0  0  0  0  0  3  0  0  0  0  0  0
  191.3810  176.1450  144.4980 C   0  0  0  0  0  0  0  0  0  0  0  0
  186.6500  177.0190  141.3220 N   0  0  0  0  0  2  0  0  0  0  0  0
  189.2510  175.8040  143.3870 C   0  0  0  0  0  0  0  0  0  0  0  0
  188.8440  174.1040  140.4670 C   0  0  0  0  0  3  0  0  0  0  0  0
  191.0170  177.4260  144.7470 N   0  0  0  0  0  0  0  0  0  0  0  0
  187.1510  175.9290  139.2110 C   0  0  0  0  0  3  0  0  0  0  0  0
  187.3400  176.0030  140.5960 C   0  0  0  0  0  0  0  0  0  0  0  0
  188.1910  175.0760  141.2350 C   0  0  0  0  0  0  0  0  0  0  0  0
  184.4550  178.3730  146.1380 C   0  0  0  0  0  3  0  0  0  0  0  0
  186.7650  178.0740  144.4880 C   0  0  2  0  0  3  0  0  0  0  0  0
  186.2270  176.8530  145.2370 C   0  0  0  0  0  2  0  0  0  0  0  0
  185.1300  177.2140  146.2070 C   0  0  0  0  0  3  0  0  0  0  0  0
  184.8070  179.4580  145.1520 C   0  0  0  0  0  2  0  0  0  0  0  0
  185.6070  178.9220  143.9670 C   0  0  0  0  0  2  0  0  0  0  0  0
  1 12  1  0  0  0  0
  2  6  1  0  0  0  0
  3 16  1  0  0  0  0
  5  4  1  0  0  0  0
  6 18  2  0  0  0  0
  7 11  2  0  0  0  0
  7 13  1  0  0  0  0
  8 17  1  0  0  0  0
  9  7  1  0  0  0  0
 10  8  2  0  0  0  0
 10 19  1  0  0  0  0
 11 14  1  0  0  0  0
 12  2  1  0  0  0  0
 13  5  2  0  0  0  0
 14 18  1  0  0  0  0
 14  4  2  0  0  0  0
 15  1  1  0  0  0  0
 16  2  2  0  0  0  0
 16 11  1  0  0  0  0
 17 21  2  0  0  0  0
 19 20  2  0  0  0  0
 20 21  1  0  0  0  0
 20 15  1  0  0  0  0
 21  3  1  0  0  0  0
 22 25  2  0  0  0  0
 23 12  1  6  0  0  0
 23 24  1  0  0  0  0
 24 25  1  0  0  0  0
 26 22  1  0  0  0  0
 27 23  1  0  0  0  0
 27 26  1  0  0  0  0
M  END
>  <MODEL>
5

>  <REMARK>
 VINA RESULT:      -7.6      1.784      6.607
  Name = 
  1 active torsions:
  status: ('A' for Active; 'I' for Inactive)
    1  A    between atoms: C_9  and  N_15
                            x       y       z     vdW  Elec       q    Type
                         _______ _______ _______ _____ _____    ______ ____

>  <TORSDO>
F 1

$$$$
=
 OpenBabel11052418213D

 27 31  0  0  1  0  0  0  0  0999 V2000
  189.4840  176.5280  142.5350 C   0  0  0  0  0  2  0  0  0  0  0  0
  191.1820  176.2040  144.3220 C   0  0  0  0  0  0  0  0  0  0  0  0
  190.8240  173.8440  143.8000 N   0  0  0  0  0  2  0  0  0  0  0  0
  195.0600  175.5690  145.6600 C   0  0  0  0  0  3  0  0  0  0  0  0
  195.6120  174.2940  145.7450 C   0  0  0  0  0  3  0  0  0  0  0  0
  191.9780  177.2100  144.7630 N   0  0  0  0  0  0  0  0  0  0  0  0
  193.5410  173.3290  144.9220 C   0  0  0  0  0  0  0  0  0  0  0  0
  191.2680  172.1380  140.5200 C   0  0  0  0  0  3  0  0  0  0  0  0
  192.7940  172.0680  144.6490 C   0  0  0  0  0  1  0  0  0  0  0  0
  190.2950  172.7660  139.7420 C   0  0  0  0  0  3  0  0  0  0  0  0
  192.9740  174.6280  144.7920 C   0  0  0  0  0  0  0  0  0  0  0  0
  189.8350  176.4900  143.9480 N   0  0  0  0  0  0  0  0  0  0  0  0
  194.8510  173.1830  145.3870 C   0  0  0  0  0  3  0  0  0  0  0  0
  193.7530  175.7410  145.2020 C   0  0  0  0  0  0  0  0  0  0  0  0
  188.9050  175.2620  142.1180 N   0  0  0  0  0  2  0  0  0  0  0  0
  191.6720  174.8890  144.2890 C   0  0  0  0  0  0  0  0  0  0  0  0
  191.4550  172.5280  141.8480 C   0  0  0  0  0  3  0  0  0  0  0  0
  193.2250  176.9890  145.1720 N   0  0  0  0  0  0  0  0  0  0  0  0
  189.5180  173.7890  140.2880 C   0  0  0  0  0  3  0  0  0  0  0  0
  189.7140  174.2010  141.6120 C   0  0  0  0  0  0  0  0  0  0  0  0
  190.6890  173.5610  142.4040 C   0  0  0  0  0  0  0  0  0  0  0  0
  186.6100  177.4040  146.5860 C   0  0  0  0  0  3  0  0  0  0  0  0
  188.9220  177.0200  144.9570 C   0  0  2  0  0  3  0  0  0  0  0  0
  188.5420  175.9380  145.9720 C   0  0  0  0  0  2  0  0  0  0  0  0
  187.4200  176.3740  146.8790 C   0  0  0  0  0  3  0  0  0  0  0  0
  186.8190  178.2810  145.3780 C   0  0  0  0  0  2  0  0  0  0  0  0
  187.6650  177.5950  144.3080 C   0  0  0  0  0  2  0  0  0  0  0  0
  1 12  1  0  0  0  0
  2  6  1  0  0  0  0
  3 16  1  0  0  0  0
  4  5  1  0  0  0  0
  6 18  2  0  0  0  0
  7 13  1  0  0  0  0
  8 17  1  0  0  0  0
  9  7  1  0  0  0  0
 10 19  1  0  0  0  0
 10  8  2  0  0  0  0
 11  7  2  0  0  0  0
 11 14  1  0  0  0  0
 12  2  1  0  0  0  0
 13  5  2  0  0  0  0
 14  4  2  0  0  0  0
 15  1  1  0  0  0  0
 16  2  2  0  0  0  0
 16 11  1  0  0  0  0
 17 21  2  0  0  0  0
 18 14  1  0  0  0  0
 19 20  2  0  0  0  0
 20 15  1  0  0  0  0
 20 21  1  0  0  0  0
 21  3  1  0  0  0  0
 22 25  2  0  0  0  0
 23 12  1  6  0  0  0
 23 24  1  0  0  0  0
 24 25  1  0  0  0  0
 26 22  1  0  0  0  0
 27 23  1  0  0  0  0
 27 26  1  0  0  0  0
M  END
>  <MODEL>
6

>  <REMARK>
 VINA RESULT:      -7.4      1.995      6.823
  Name = 
  1 active torsions:
  status: ('A' for Active; 'I' for Inactive)
    1  A    between atoms: C_9  and  N_15
                            x       y       z     vdW  Elec       q    Type
                         _______ _______ _______ _____ _____    ______ ____

>  <TORSDO>
F 1

$$$$
=
 OpenBabel11052418213D

 27 31  0  0  1  0  0  0  0  0999 V2000
  191.6870  175.7890  144.5380 C   0  0  0  0  0  2  0  0  0  0  0  0
  189.4350  176.3550  143.6470 C   0  0  0  0  0  0  0  0  0  0  0  0
  188.8240  176.2730  146.0110 N   0  0  0  0  0  2  0  0  0  0  0  0
  186.4000  179.0260  142.7060 C   0  0  0  0  0  3  0  0  0  0  0  0
  185.4650  179.4420  143.6490 C   0  0  0  0  0  3  0  0  0  0  0  0
  189.2470  176.8360  142.3930 N   0  0  0  0  0  0  0  0  0  0  0  0
  186.5250  178.0510  145.3340 C   0  0  0  0  0  0  0  0  0  0  0  0
  190.2450  178.2800  148.8080 C   0  0  0  0  0  3  0  0  0  0  0  0
  186.4400  177.5240  146.7250 C   0  0  0  0  0  1  0  0  0  0  0  0
  191.5680  177.8380  148.8270 C   0  0  0  0  0  3  0  0  0  0  0  0
  187.5130  177.6450  144.3920 C   0  0  0  0  0  0  0  0  0  0  0  0
  190.4540  175.3820  143.8780 N   0  0  0  0  0  0  0  0  0  0  0  0
  185.5240  178.9480  144.9510 C   0  0  0  0  0  3  0  0  0  0  0  0
  187.4080  178.1290  143.0630 C   0  0  0  0  0  0  0  0  0  0  0  0
  191.6320  175.4800  145.9570 N   0  0  0  0  0  2  0  0  0  0  0  0
  188.5960  176.7750  144.6900 C   0  0  0  0  0  0  0  0  0  0  0  0
  189.3590  177.7800  147.8510 C   0  0  0  0  0  3  0  0  0  0  0  0
  188.2790  177.7060  142.1140 N   0  0  0  0  0  0  0  0  0  0  0  0
  192.0070  176.9070  147.8840 C   0  0  0  0  0  3  0  0  0  0  0  0
  191.1320  176.4180  146.9080 C   0  0  0  0  0  0  0  0  0  0  0  0
  189.7900  176.8530  146.8930 C   0  0  0  0  0  0  0  0  0  0  0  0
  190.6800  171.3250  142.5810 C   0  0  0  0  0  3  0  0  0  0  0  0
  190.3630  174.0940  143.1960 C   0  0  2  0  0  3  0  0  0  0  0  0
  189.6730  173.0540  144.0830 C   0  0  0  0  0  2  0  0  0  0  0  0
  189.7790  171.6600  143.5180 C   0  0  0  0  0  3  0  0  0  0  0  0
  191.5930  172.3360  141.9360 C   0  0  0  0  0  2  0  0  0  0  0  0
  191.7470  173.5970  142.7840 C   0  0  0  0  0  2  0  0  0  0  0  0
  1 15  1  0  0  0  0
  2 12  1  0  0  0  0
  2 16  1  0  0  0  0
  3 21  1  0  0  0  0
  4 14  1  0  0  0  0
  4  5  2  0  0  0  0
  5 13  1  0  0  0  0
  6  2  2  0  0  0  0
  7  9  1  0  0  0  0
  8 10  1  0  0  0  0
 11 16  2  0  0  0  0
 11  7  1  0  0  0  0
 12  1  1  0  0  0  0
 13  7  2  0  0  0  0
 14 11  1  0  0  0  0
 15 20  1  0  0  0  0
 16  3  1  0  0  0  0
 17  8  2  0  0  0  0
 18  6  1  0  0  0  0
 18 14  2  0  0  0  0
 19 10  2  0  0  0  0
 20 19  1  0  0  0  0
 21 20  2  0  0  0  0
 21 17  1  0  0  0  0
 22 25  2  0  0  0  0
 23 27  1  1  0  0  0
 23 12  1  0  0  0  0
 23 24  1  0  0  0  0
 25 24  1  0  0  0  0
 26 22  1  0  0  0  0
 26 27  1  0  0  0  0
M  END
>  <MODEL>
7

>  <REMARK>
 VINA RESULT:      -7.3      1.608      1.896
  Name = 
  1 active torsions:
  status: ('A' for Active; 'I' for Inactive)
    1  A    between atoms: C_9  and  N_15
                            x       y       z     vdW  Elec       q    Type
                         _______ _______ _______ _____ _____    ______ ____

>  <TORSDO>
F 1

$$$$
=
 OpenBabel11052418213D

 27 31  0  0  1  0  0  0  0  0999 V2000
  190.3940  174.5740  142.9640 C   0  0  0  0  0  2  0  0  0  0  0  0
  192.3120  174.7250  144.5400 C   0  0  0  0  0  0  0  0  0  0  0  0
  192.0400  172.2980  144.6110 N   0  0  0  0  0  2  0  0  0  0  0  0
  196.3540  174.5410  145.4660 C   0  0  0  0  0  3  0  0  0  0  0  0
  196.9890  173.3380  145.7600 C   0  0  0  0  0  3  0  0  0  0  0  0
  193.0920  175.8310  144.6360 N   0  0  0  0  0  0  0  0  0  0  0  0
  194.8980  172.1430  145.4530 C   0  0  0  0  0  0  0  0  0  0  0  0
  192.1900  169.9000  141.7660 C   0  0  0  0  0  3  0  0  0  0  0  0
  194.2030  170.8300  145.5700 C   0  0  0  0  0  1  0  0  0  0  0  0
  191.0930  170.3000  141.0010 C   0  0  0  0  0  3  0  0  0  0  0  0
  194.2410  173.3590  145.1120 C   0  0  0  0  0  0  0  0  0  0  0  0
  190.9140  174.8730  144.2910 N   0  0  0  0  0  0  0  0  0  0  0  0
  196.2610  172.1500  145.7630 C   0  0  0  0  0  3  0  0  0  0  0  0
  194.9930  174.5610  145.1560 C   0  0  0  0  0  0  0  0  0  0  0  0
  189.8490  173.2280  142.9210 N   0  0  0  0  0  2  0  0  0  0  0  0
  192.8740  173.4550  144.7380 C   0  0  0  0  0  0  0  0  0  0  0  0
  192.5110  170.5900  142.9360 C   0  0  0  0  0  3  0  0  0  0  0  0
  194.3900  175.7500  144.9170 N   0  0  0  0  0  0  0  0  0  0  0  0
  190.3260  171.3950  141.4020 C   0  0  0  0  0  3  0  0  0  0  0  0
  190.6540  172.1070  142.5630 C   0  0  0  0  0  0  0  0  0  0  0  0
  191.7550  171.6970  143.3440 C   0  0  0  0  0  0  0  0  0  0  0  0
  187.8900  176.3930  146.8880 C   0  0  0  0  0  3  0  0  0  0  0  0
  190.0990  175.5910  145.2670 C   0  0  2  0  0  3  0  0  0  0  0  0
  189.6040  174.6460  146.3660 C   0  0  0  0  0  2  0  0  0  0  0  0
  188.5660  175.2910  147.2500 C   0  0  0  0  0  3  0  0  0  0  0  0
  188.1850  177.1420  145.6130 C   0  0  0  0  0  2  0  0  0  0  0  0
  188.9130  176.2750  144.5900 C   0  0  0  0  0  2  0  0  0  0  0  0
  1 12  1  0  0  0  0
  2  6  2  0  0  0  0
  2 16  1  0  0  0  0
  3 16  1  0  0  0  0
  4  5  2  0  0  0  0
  5 13  1  0  0  0  0
  6 18  1  0  0  0  0
  7  9  1  0  0  0  0
  7 13  2  0  0  0  0
  8 17  1  0  0  0  0
 10 19  1  0  0  0  0
 10  8  2  0  0  0  0
 11 14  1  0  0  0  0
 11  7  1  0  0  0  0
 12  2  1  0  0  0  0
 14  4  1  0  0  0  0
 15  1  1  0  0  0  0
 16 11  2  0  0  0  0
 17 21  2  0  0  0  0
 18 14  2  0  0  0  0
 19 20  2  0  0  0  0
 20 15  1  0  0  0  0
 20 21  1  0  0  0  0
 21  3  1  0  0  0  0
 22 25  2  0  0  0  0
 23 12  1  6  0  0  0
 23 24  1  0  0  0  0
 24 25  1  0  0  0  0
 26 22  1  0  0  0  0
 27 23  1  0  0  0  0
 27 26  1  0  0  0  0
M  END
>  <MODEL>
8

>  <REMARK>
 VINA RESULT:      -7.1      3.217      7.619
  Name = 
  1 active torsions:
  status: ('A' for Active; 'I' for Inactive)
    1  A    between atoms: C_9  and  N_15
                            x       y       z     vdW  Elec       q    Type
                         _______ _______ _______ _____ _____    ______ ____

>  <TORSDO>
F 1

$$$$
=
 OpenBabel11052418213D

 27 31  0  0  1  0  0  0  0  0999 V2000
  187.5210  176.6090  144.9620 C   0  0  0  0  0  2  0  0  0  0  0  0
  188.4920  175.6680  142.8740 C   0  0  0  0  0  0  0  0  0  0  0  0
  190.4940  176.8310  143.6540 N   0  0  0  0  0  2  0  0  0  0  0  0
  190.6680  172.8320  140.7650 C   0  0  0  0  0  3  0  0  0  0  0  0
  192.0550  172.8910  140.6650 C   0  0  0  0  0  3  0  0  0  0  0  0
  187.9040  174.6570  142.1870 N   0  0  0  0  0  0  0  0  0  0  0  0
  192.0790  174.9170  142.0030 C   0  0  0  0  0  0  0  0  0  0  0  0
  192.2930  176.3700  146.8820 C   0  0  0  0  0  3  0  0  0  0  0  0
  192.9150  176.0290  142.5360 C   0  0  0  0  0  1  0  0  0  0  0  0
  191.3300  176.7840  147.8030 C   0  0  0  0  0  3  0  0  0  0  0  0
  190.6640  174.8500  142.1480 C   0  0  0  0  0  0  0  0  0  0  0  0
  187.6750  176.6490  143.5140 N   0  0  0  0  0  0  0  0  0  0  0  0
  192.7510  173.9330  141.2720 C   0  0  0  0  0  3  0  0  0  0  0  0
  189.9730  173.8030  141.4870 C   0  0  0  0  0  0  0  0  0  0  0  0
  188.4360  177.5410  145.5980 N   0  0  0  0  0  2  0  0  0  0  0  0
  189.8910  175.7710  142.9050 C   0  0  0  0  0  0  0  0  0  0  0  0
  191.9910  176.3580  145.5180 C   0  0  0  0  0  3  0  0  0  0  0  0
  188.6190  173.7470  141.5320 N   0  0  0  0  0  0  0  0  0  0  0  0
  190.0650  177.1760  147.3610 C   0  0  0  0  0  3  0  0  0  0  0  0
  189.7470  177.1460  145.9980 C   0  0  0  0  0  0  0  0  0  0  0  0
  190.7220  176.7380  145.0630 C   0  0  0  0  0  0  0  0  0  0  0  0
  184.6240  178.2900  141.0250 C   0  0  0  0  0  3  0  0  0  0  0  0
  186.7920  177.4720  142.6920 C   0  0  2  0  0  3  0  0  0  0  0  0
  185.3780  177.5100  143.2800 C   0  0  0  0  0  2  0  0  0  0  0  0
  184.3850  178.1420  142.3380 C   0  0  0  0  0  3  0  0  0  0  0  0
  185.9490  177.9370  140.3980 C   0  0  0  0  0  2  0  0  0  0  0  0
  186.7490  176.9580  141.2550 C   0  0  0  0  0  2  0  0  0  0  0  0
  1 15  1  0  0  0  0
  2 16  1  0  0  0  0
  2 12  1  0  0  0  0
  3 21  1  0  0  0  0
  4 14  1  0  0  0  0
  5  4  2  0  0  0  0
  5 13  1  0  0  0  0
  6  2  2  0  0  0  0
  7 11  1  0  0  0  0
  7  9  1  0  0  0  0
  8 10  1  0  0  0  0
 11 16  2  0  0  0  0
 12  1  1  0  0  0  0
 13  7  2  0  0  0  0
 14 18  2  0  0  0  0
 14 11  1  0  0  0  0
 15 20  1  0  0  0  0
 16  3  1  0  0  0  0
 17  8  2  0  0  0  0
 18  6  1  0  0  0  0
 19 10  2  0  0  0  0
 20 19  1  0  0  0  0
 21 17  1  0  0  0  0
 21 20  2  0  0  0  0
 22 25  2  0  0  0  0
 23 27  1  6  0  0  0
 23 24  1  0  0  0  0
 23 12  1  0  0  0  0
 25 24  1  0  0  0  0
 26 22  1  0  0  0  0
 26 27  1  0  0  0  0
M  END
>  <MODEL>
9

>  <REMARK>
 VINA RESULT:      -7.0      1.792      5.351
  Name = 
  1 active torsions:
  status: ('A' for Active; 'I' for Inactive)
    1  A    between atoms: C_9  and  N_15
                            x       y       z     vdW  Elec       q    Type
                         _______ _______ _______ _____ _____    ______ ____

>  <TORSDO>
F 1

$$$$
