=
 OpenBabel11052417293D

 25 29  0  0  1  0  0  0  0  0999 V2000
  188.0740  176.1360  146.3420 C   0  0  0  0  0  0  0  0  0  0  0  0
  188.7100  176.1080  145.0800 C   0  0  0  0  0  0  0  0  0  0  0  0
  189.7560  174.6230  147.2210 C   0  0  0  0  0  3  0  0  0  0  0  0
  190.3810  174.5860  145.9750 C   0  0  0  0  0  3  0  0  0  0  0  0
  188.6090  175.3960  147.4030 C   0  0  0  0  0  3  0  0  0  0  0  0
  189.8690  175.3240  144.9050 C   0  0  0  0  0  0  0  0  0  0  0  0
  186.8600  176.9410  146.5870 C   0  0  0  0  0  0  0  0  0  0  0  0
  184.5040  178.4040  147.0160 C   0  0  0  0  0  3  0  0  0  0  0  0
  186.8910  178.1310  147.3450 C   0  0  0  0  0  0  0  0  0  0  0  0
  185.7120  178.8530  147.5540 C   0  0  0  0  0  3  0  0  0  0  0  0
  184.4690  177.2330  146.2570 C   0  0  0  0  0  3  0  0  0  0  0  0
  188.1640  178.6700  147.9090 C   0  0  0  0  0  1  0  0  0  0  0  0
  185.6430  176.5070  146.0410 C   0  0  0  0  0  3  0  0  0  0  0  0
  190.5410  175.2750  143.6480 N   0  0  0  0  0  0  0  0  0  0  0  0
  190.8370  174.6300  142.3360 C   0  0  0  0  0  2  0  0  0  0  0  0
  191.4820  175.8140  142.6230 C   0  0  0  0  0  2  0  0  0  0  0  0
  188.2060  176.9550  143.9490 C   0  0  0  0  0  2  0  0  0  0  0  0
  186.3910  176.3720  142.3250 C   0  0  2  0  0  3  0  0  0  0  0  0
  187.5350  176.8990  141.5380 C   0  0  1  0  0  3  0  0  0  0  0  0
  186.2670  177.6430  141.5940 N   0  0  0  0  0  0  0  0  0  0  0  0
  187.8020  176.0730  142.7770 C   0  0  1  0  0  3  0  0  0  0  0  0
  185.5010  180.2620  144.2620 C   0  0  0  0  0  1  0  0  0  0  0  0
  185.2970  179.1850  143.2580 C   0  0  0  0  0  0  0  0  0  0  0  0
  184.1120  178.7090  143.0620 N   0  0  0  0  0  2  0  0  0  0  0  0
  186.4130  178.6880  142.5200 N   0  0  0  0  0  2  0  0  0  0  0  0
  1  7  1  0  0  0  0
  1  5  1  0  0  0  0
  2  1  2  0  0  0  0
  3  5  2  0  0  0  0
  4  3  1  0  0  0  0
  6  2  1  0  0  0  0
  6  4  2  0  0  0  0
  7  9  1  0  0  0  0
  8 10  1  0  0  0  0
  9 10  2  0  0  0  0
  9 12  1  0  0  0  0
 11  8  2  0  0  0  0
 13 11  1  0  0  0  0
 13  7  2  0  0  0  0
 14  6  1  0  0  0  0
 15 16  1  0  0  0  0
 15 14  1  0  0  0  0
 16 14  1  0  0  0  0
 17  2  1  0  0  0  0
 18 20  1  1  0  0  0
 18 21  1  0  0  0  0
 19 20  1  1  0  0  0
 19 18  1  0  0  0  0
 19 21  1  0  0  0  0
 20 25  1  0  0  0  0
 21 17  1  1  0  0  0
 23 22  1  0  0  0  0
 24 23  2  0  0  0  0
 25 23  1  0  0  0  0
M  END
>  <MODEL>
1

>  <REMARK>
 VINA RESULT:      -7.1      0.000      0.000
  Name = 
  5 active torsions:
  status: ('A' for Active; 'I' for Inactive)
    1  A    between atoms: C_1  and  C_5
    2  A    between atoms: C_3  and  C_16
    3  A    between atoms: N_13  and  C_24
    4  A    between atoms: N_15  and  N_25
    5  A    between atoms: C_16  and  C_23
                            x       y       z     vdW  Elec       q    Type
                         _______ _______ _______ _____ _____    ______ ____

>  <TORSDO>
F 5

$$$$
=
 OpenBabel11052417293D

 25 29  0  0  1  0  0  0  0  0999 V2000
  188.5200  177.5070  143.3010 C   0  0  0  0  0  0  0  0  0  0  0  0
  188.0510  177.5870  144.6330 C   0  0  0  0  0  0  0  0  0  0  0  0
  186.5830  178.7610  142.5470 C   0  0  0  0  0  3  0  0  0  0  0  0
  186.1140  178.8340  143.8580 C   0  0  0  0  0  3  0  0  0  0  0  0
  187.7810  178.1030  142.2710 C   0  0  0  0  0  3  0  0  0  0  0  0
  186.8390  178.2540  144.9020 C   0  0  0  0  0  0  0  0  0  0  0  0
  189.7830  176.8240  142.9580 C   0  0  0  0  0  0  0  0  0  0  0  0
  192.2280  175.5950  142.3370 C   0  0  0  0  0  3  0  0  0  0  0  0
  189.8160  175.4740  142.5450 C   0  0  0  0  0  0  0  0  0  0  0  0
  191.0380  174.8710  142.2380 C   0  0  0  0  0  3  0  0  0  0  0  0
  192.2010  176.9330  142.7360 C   0  0  0  0  0  3  0  0  0  0  0  0
  188.5670  174.6710  142.3890 C   0  0  0  0  0  1  0  0  0  0  0  0
  190.9830  177.5450  143.0410 C   0  0  0  0  0  3  0  0  0  0  0  0
  186.3370  178.3590  146.2330 N   0  0  0  0  0  0  0  0  0  0  0  0
  185.5960  177.8170  147.4090 C   0  0  0  0  0  2  0  0  0  0  0  0
  186.1390  179.0780  147.5260 C   0  0  0  0  0  2  0  0  0  0  0  0
  188.8610  177.0290  145.7650 C   0  0  0  0  0  2  0  0  0  0  0  0
  189.3900  174.5970  146.0360 C   0  0  2  0  0  3  0  0  0  0  0  0
  189.0520  175.1280  147.3810 C   0  0  1  0  0  3  0  0  0  0  0  0
  190.4160  174.6610  147.0890 N   0  0  0  0  0  0  0  0  0  0  0  0
  188.3270  175.6640  146.1670 C   0  0  1  0  0  3  0  0  0  0  0  0
  193.3550  176.8640  146.0540 C   0  0  0  0  0  1  0  0  0  0  0  0
  192.5530  175.6480  146.3490 C   0  0  0  0  0  0  0  0  0  0  0  0
  193.0690  174.4790  146.1600 N   0  0  0  0  0  2  0  0  0  0  0  0
  191.2190  175.7840  146.8380 N   0  0  0  0  0  2  0  0  0  0  0  0
  1  2  1  0  0  0  0
  2  6  2  0  0  0  0
  2 17  1  0  0  0  0
  3  4  2  0  0  0  0
  4  6  1  0  0  0  0
  5  3  1  0  0  0  0
  5  1  2  0  0  0  0
  6 14  1  0  0  0  0
  7 13  1  0  0  0  0
  7  1  1  0  0  0  0
  8 11  1  0  0  0  0
  9  7  2  0  0  0  0
 10  8  2  0  0  0  0
 10  9  1  0  0  0  0
 11 13  2  0  0  0  0
 12  9  1  0  0  0  0
 14 15  1  0  0  0  0
 14 16  1  0  0  0  0
 15 16  1  0  0  0  0
 18 21  1  0  0  0  0
 18 20  1  6  0  0  0
 18 19  1  0  0  0  0
 19 20  1  6  0  0  0
 21 17  1  6  0  0  0
 21 19  1  0  0  0  0
 22 23  1  0  0  0  0
 23 25  1  0  0  0  0
 24 23  2  0  0  0  0
 25 20  1  0  0  0  0
M  END
>  <MODEL>
2

>  <REMARK>
 VINA RESULT:      -7.1      2.004      6.761
  Name = 
  5 active torsions:
  status: ('A' for Active; 'I' for Inactive)
    1  A    between atoms: C_1  and  C_5
    2  A    between atoms: C_3  and  C_16
    3  A    between atoms: N_13  and  C_24
    4  A    between atoms: N_15  and  N_25
    5  A    between atoms: C_16  and  C_23
                            x       y       z     vdW  Elec       q    Type
                         _______ _______ _______ _____ _____    ______ ____

>  <TORSDO>
F 5

$$$$
=
 OpenBabel11052417293D

 25 29  0  0  1  0  0  0  0  0999 V2000
  187.2050  177.1380  146.5520 C   0  0  0  0  0  0  0  0  0  0  0  0
  186.8030  177.3420  145.2110 C   0  0  0  0  0  0  0  0  0  0  0  0
  185.1010  178.0720  147.3220 C   0  0  0  0  0  3  0  0  0  0  0  0
  184.7060  178.2820  146.0020 C   0  0  0  0  0  3  0  0  0  0  0  0
  186.3440  177.5000  147.5950 C   0  0  0  0  0  3  0  0  0  0  0  0
  185.5450  177.9200  144.9460 C   0  0  0  0  0  0  0  0  0  0  0  0
  188.5090  176.5340  146.8920 C   0  0  0  0  0  0  0  0  0  0  0  0
  190.9620  175.3140  147.4990 C   0  0  0  0  0  3  0  0  0  0  0  0
  189.5650  177.2950  147.4410 C   0  0  0  0  0  0  0  0  0  0  0  0
  190.7830  176.6780  147.7390 C   0  0  0  0  0  3  0  0  0  0  0  0
  189.9180  174.5550  146.9660 C   0  0  0  0  0  3  0  0  0  0  0  0
  189.4090  178.7470  147.7480 C   0  0  0  0  0  1  0  0  0  0  0  0
  188.6960  175.1630  146.6680 C   0  0  0  0  0  3  0  0  0  0  0  0
  185.1040  178.1370  143.6070 N   0  0  0  0  0  0  0  0  0  0  0  0
  184.0970  178.0090  142.5140 C   0  0  0  0  0  2  0  0  0  0  0  0
  185.2760  178.6590  142.2190 C   0  0  0  0  0  2  0  0  0  0  0  0
  187.6700  176.8890  144.0740 C   0  0  0  0  0  2  0  0  0  0  0  0
  190.1020  177.4200  143.8020 C   0  0  2  0  0  3  0  0  0  0  0  0
  189.4560  177.6160  142.4790 C   0  0  1  0  0  3  0  0  0  0  0  0
  190.4430  176.5420  142.6710 N   0  0  0  0  0  0  0  0  0  0  0  0
  188.6920  177.9630  143.7380 C   0  0  1  0  0  3  0  0  0  0  0  0
  189.6120  172.9270  143.5700 C   0  0  0  0  0  1  0  0  0  0  0  0
  190.3940  174.1740  143.3640 C   0  0  0  0  0  0  0  0  0  0  0  0
  191.6510  174.1980  143.6620 N   0  0  0  0  0  2  0  0  0  0  0  0
  189.7480  175.3340  142.8400 N   0  0  0  0  0  2  0  0  0  0  0  0
  1  7  1  0  0  0  0
  1  5  1  0  0  0  0
  2  1  2  0  0  0  0
  3  5  2  0  0  0  0
  4  3  1  0  0  0  0
  6  2  1  0  0  0  0
  6  4  2  0  0  0  0
  7  9  1  0  0  0  0
  8 10  1  0  0  0  0
  9 10  2  0  0  0  0
  9 12  1  0  0  0  0
 11  8  2  0  0  0  0
 13  7  2  0  0  0  0
 13 11  1  0  0  0  0
 14  6  1  0  0  0  0
 15 14  1  0  0  0  0
 16 15  1  0  0  0  0
 16 14  1  0  0  0  0
 17  2  1  0  0  0  0
 18 20  1  1  0  0  0
 19 20  1  1  0  0  0
 19 21  1  0  0  0  0
 19 18  1  0  0  0  0
 20 25  1  0  0  0  0
 21 18  1  0  0  0  0
 21 17  1  1  0  0  0
 23 22  1  0  0  0  0
 23 24  2  0  0  0  0
 25 23  1  0  0  0  0
M  END
>  <MODEL>
3

>  <REMARK>
 VINA RESULT:      -7.0      1.482      5.200
  Name = 
  5 active torsions:
  status: ('A' for Active; 'I' for Inactive)
    1  A    between atoms: C_1  and  C_5
    2  A    between atoms: C_3  and  C_16
    3  A    between atoms: N_13  and  C_24
    4  A    between atoms: N_15  and  N_25
    5  A    between atoms: C_16  and  C_23
                            x       y       z     vdW  Elec       q    Type
                         _______ _______ _______ _____ _____    ______ ____

>  <TORSDO>
F 5

$$$$
=
 OpenBabel11052417293D

 25 29  0  0  1  0  0  0  0  0999 V2000
  187.8170  177.3810  144.7090 C   0  0  0  0  0  0  0  0  0  0  0  0
  187.5670  177.2620  143.3210 C   0  0  0  0  0  0  0  0  0  0  0  0
  185.9160  178.8750  144.9200 C   0  0  0  0  0  3  0  0  0  0  0  0
  185.6720  178.7670  143.5520 C   0  0  0  0  0  3  0  0  0  0  0  0
  186.9810  178.1830  145.4950 C   0  0  0  0  0  3  0  0  0  0  0  0
  186.4880  177.9650  142.7490 C   0  0  0  0  0  0  0  0  0  0  0  0
  188.9300  176.6670  145.3650 C   0  0  0  0  0  0  0  0  0  0  0  0
  190.9900  175.2470  146.6360 C   0  0  0  0  0  3  0  0  0  0  0  0
  190.2740  177.0680  145.2050 C   0  0  0  0  0  0  0  0  0  0  0  0
  191.2930  176.3550  145.8420 C   0  0  0  0  0  3  0  0  0  0  0  0
  189.6620  174.8510  146.8060 C   0  0  0  0  0  3  0  0  0  0  0  0
  190.6440  178.2670  144.3960 C   0  0  0  0  0  1  0  0  0  0  0  0
  188.6370  175.5610  146.1760 C   0  0  0  0  0  3  0  0  0  0  0  0
  186.2030  177.8660  141.3550 N   0  0  0  0  0  0  0  0  0  0  0  0
  185.2760  177.9570  140.1890 C   0  0  0  0  0  2  0  0  0  0  0  0
  186.5830  177.5980  139.9370 C   0  0  0  0  0  2  0  0  0  0  0  0
  188.3950  176.3470  142.4700 C   0  0  0  0  0  2  0  0  0  0  0  0
  188.4500  174.0810  141.4040 C   0  0  2  0  0  3  0  0  0  0  0  0
  188.7420  173.8980  142.8490 C   0  0  1  0  0  3  0  0  0  0  0  0
  189.7750  173.6120  141.8410 N   0  0  0  0  0  0  0  0  0  0  0  0
  187.7620  174.9650  142.4190 C   0  0  1  0  0  3  0  0  0  0  0  0
  192.7980  175.8660  142.4300 C   0  0  0  0  0  1  0  0  0  0  0  0
  191.8710  174.7100  142.5420 C   0  0  0  0  0  0  0  0  0  0  0  0
  192.1730  173.7190  143.3150 N   0  0  0  0  0  2  0  0  0  0  0  0
  190.6560  174.7040  141.7940 N   0  0  0  0  0  2  0  0  0  0  0  0
  1  7  1  0  0  0  0
  1  5  1  0  0  0  0
  2  1  2  0  0  0  0
  3  5  2  0  0  0  0
  4  3  1  0  0  0  0
  6  2  1  0  0  0  0
  6  4  2  0  0  0  0
  7 13  1  0  0  0  0
  8 11  1  0  0  0  0
  9  7  2  0  0  0  0
  9 10  1  0  0  0  0
 10  8  2  0  0  0  0
 12  9  1  0  0  0  0
 13 11  2  0  0  0  0
 14  6  1  0  0  0  0
 15 14  1  0  0  0  0
 16 15  1  0  0  0  0
 16 14  1  0  0  0  0
 17  2  1  0  0  0  0
 18 20  1  6  0  0  0
 18 21  1  0  0  0  0
 18 19  1  0  0  0  0
 19 20  1  6  0  0  0
 21 17  1  6  0  0  0
 21 19  1  0  0  0  0
 22 23  1  0  0  0  0
 23 24  2  0  0  0  0
 25 20  1  0  0  0  0
 25 23  1  0  0  0  0
M  END
>  <MODEL>
4

>  <REMARK>
 VINA RESULT:      -6.9      1.696      5.436
  Name = 
  5 active torsions:
  status: ('A' for Active; 'I' for Inactive)
    1  A    between atoms: C_1  and  C_5
    2  A    between atoms: C_3  and  C_16
    3  A    between atoms: N_13  and  C_24
    4  A    between atoms: N_15  and  N_25
    5  A    between atoms: C_16  and  C_23
                            x       y       z     vdW  Elec       q    Type
                         _______ _______ _______ _____ _____    ______ ____

>  <TORSDO>
F 5

$$$$
=
 OpenBabel11052417293D

 25 29  0  0  1  0  0  0  0  0999 V2000
  188.0590  176.6650  146.0200 C   0  0  0  0  0  0  0  0  0  0  0  0
  188.1250  176.6700  144.6070 C   0  0  0  0  0  0  0  0  0  0  0  0
  185.6450  176.8930  145.9060 C   0  0  0  0  0  3  0  0  0  0  0  0
  185.7080  176.9080  144.5140 C   0  0  0  0  0  3  0  0  0  0  0  0
  186.8160  176.7700  146.6550 C   0  0  0  0  0  3  0  0  0  0  0  0
  186.9370  176.7950  143.8590 C   0  0  0  0  0  0  0  0  0  0  0  0
  189.2690  176.5340  146.8570 C   0  0  0  0  0  0  0  0  0  0  0  0
  191.5580  176.3710  148.4720 C   0  0  0  0  0  3  0  0  0  0  0  0
  189.8850  175.2860  147.0930 C   0  0  0  0  0  0  0  0  0  0  0  0
  191.0240  175.2150  147.8990 C   0  0  0  0  0  3  0  0  0  0  0  0
  190.9580  177.6090  148.2350 C   0  0  0  0  0  3  0  0  0  0  0  0
  189.3730  174.0290  146.4720 C   0  0  0  0  0  1  0  0  0  0  0  0
  189.8210  177.6900  147.4280 C   0  0  0  0  0  3  0  0  0  0  0  0
  186.9630  176.7990  142.4330 N   0  0  0  0  0  0  0  0  0  0  0  0
  187.3920  176.2340  141.1210 C   0  0  0  0  0  2  0  0  0  0  0  0
  186.5940  177.3580  141.0990 C   0  0  0  0  0  2  0  0  0  0  0  0
  189.4340  176.4770  143.9010 C   0  0  0  0  0  2  0  0  0  0  0  0
  191.4590  177.8930  144.3070 C   0  0  2  0  0  3  0  0  0  0  0  0
  191.3630  177.6670  142.8420 C   0  0  1  0  0  3  0  0  0  0  0  0
  192.4840  177.1010  143.6080 N   0  0  0  0  0  0  0  0  0  0  0  0
  190.0970  177.8230  143.6540 C   0  0  1  0  0  3  0  0  0  0  0  0
  192.6490  173.5540  145.0080 C   0  0  0  0  0  1  0  0  0  0  0  0
  192.9970  174.9760  144.7550 C   0  0  0  0  0  0  0  0  0  0  0  0
  194.0070  175.5060  145.3620 N   0  0  0  0  0  2  0  0  0  0  0  0
  192.2120  175.7430  143.8420 N   0  0  0  0  0  2  0  0  0  0  0  0
  1  5  1  0  0  0  0
  1  7  1  0  0  0  0
  2  1  2  0  0  0  0
  3  5  2  0  0  0  0
  4  3  1  0  0  0  0
  6  4  2  0  0  0  0
  6  2  1  0  0  0  0
  7  9  2  0  0  0  0
  7 13  1  0  0  0  0
  9 10  1  0  0  0  0
 10  8  2  0  0  0  0
 11  8  1  0  0  0  0
 12  9  1  0  0  0  0
 13 11  2  0  0  0  0
 14  6  1  0  0  0  0
 15 14  1  0  0  0  0
 16 15  1  0  0  0  0
 16 14  1  0  0  0  0
 17  2  1  0  0  0  0
 18 20  1  1  0  0  0
 19 20  1  1  0  0  0
 19 21  1  0  0  0  0
 19 18  1  0  0  0  0
 20 25  1  0  0  0  0
 21 17  1  1  0  0  0
 21 18  1  0  0  0  0
 23 22  1  0  0  0  0
 23 24  2  0  0  0  0
 25 23  1  0  0  0  0
M  END
>  <MODEL>
5

>  <REMARK>
 VINA RESULT:      -6.9      1.922      5.592
  Name = 
  5 active torsions:
  status: ('A' for Active; 'I' for Inactive)
    1  A    between atoms: C_1  and  C_5
    2  A    between atoms: C_3  and  C_16
    3  A    between atoms: N_13  and  C_24
    4  A    between atoms: N_15  and  N_25
    5  A    between atoms: C_16  and  C_23
                            x       y       z     vdW  Elec       q    Type
                         _______ _______ _______ _____ _____    ______ ____

>  <TORSDO>
F 5

$$$$
=
 OpenBabel11052417293D

 25 29  0  0  1  0  0  0  0  0999 V2000
  187.4750  177.2410  143.2400 C   0  0  0  0  0  0  0  0  0  0  0  0
  187.2340  177.3860  144.6260 C   0  0  0  0  0  0  0  0  0  0  0  0
  185.9180  179.0460  142.7830 C   0  0  0  0  0  3  0  0  0  0  0  0
  185.6720  179.1860  144.1480 C   0  0  0  0  0  3  0  0  0  0  0  0
  186.8170  178.0800  142.3330 C   0  0  0  0  0  3  0  0  0  0  0  0
  186.3240  178.3660  145.0730 C   0  0  0  0  0  0  0  0  0  0  0  0
  188.4190  176.2350  142.7130 C   0  0  0  0  0  0  0  0  0  0  0  0
  190.1450  174.2720  141.6930 C   0  0  0  0  0  3  0  0  0  0  0  0
  189.7890  176.5210  142.5260 C   0  0  0  0  0  0  0  0  0  0  0  0
  190.6410  175.5360  142.0170 C   0  0  0  0  0  3  0  0  0  0  0  0
  188.7930  173.9810  141.8860 C   0  0  0  0  0  3  0  0  0  0  0  0
  190.3720  177.8450  142.8910 C   0  0  0  0  0  1  0  0  0  0  0  0
  187.9360  174.9580  142.3970 C   0  0  0  0  0  3  0  0  0  0  0  0
  186.0590  178.5440  146.4630 N   0  0  0  0  0  0  0  0  0  0  0  0
  185.3340  178.2040  147.7210 C   0  0  0  0  0  2  0  0  0  0  0  0
  186.2810  179.2030  147.7840 C   0  0  0  0  0  2  0  0  0  0  0  0
  187.9860  176.5570  145.6250 C   0  0  0  0  0  2  0  0  0  0  0  0
  189.7420  176.6270  147.4080 C   0  0  2  0  0  3  0  0  0  0  0  0
  190.4270  176.8250  146.1050 C   0  0  1  0  0  3  0  0  0  0  0  0
  190.6800  175.6130  146.9000 N   0  0  0  0  0  0  0  0  0  0  0  0
  189.0450  177.4030  146.3140 C   0  0  1  0  0  3  0  0  0  0  0  0
  189.6760  172.5220  144.9000 C   0  0  0  0  0  1  0  0  0  0  0  0
  190.4960  173.6460  145.4220 C   0  0  0  0  0  0  0  0  0  0  0  0
  191.7190  173.7820  145.0280 N   0  0  0  0  0  2  0  0  0  0  0  0
  189.9250  174.5640  146.3530 N   0  0  0  0  0  2  0  0  0  0  0  0
  1  2  1  0  0  0  0
  2  6  2  0  0  0  0
  2 17  1  0  0  0  0
  3  4  2  0  0  0  0
  4  6  1  0  0  0  0
  5  3  1  0  0  0  0
  5  1  2  0  0  0  0
  6 14  1  0  0  0  0
  7  1  1  0  0  0  0
  8 11  2  0  0  0  0
  8 10  1  0  0  0  0
  9  7  1  0  0  0  0
  9 12  1  0  0  0  0
 10  9  2  0  0  0  0
 11 13  1  0  0  0  0
 13  7  2  0  0  0  0
 14 15  1  0  0  0  0
 14 16  1  0  0  0  0
 15 16  1  0  0  0  0
 18 20  1  6  0  0  0
 19 21  1  0  0  0  0
 19 20  1  6  0  0  0
 19 18  1  0  0  0  0
 21 17  1  6  0  0  0
 21 18  1  0  0  0  0
 22 23  1  0  0  0  0
 23 25  1  0  0  0  0
 24 23  2  0  0  0  0
 25 20  1  0  0  0  0
M  END
>  <MODEL>
6

>  <REMARK>
 VINA RESULT:      -6.8      2.035      6.488
  Name = 
  5 active torsions:
  status: ('A' for Active; 'I' for Inactive)
    1  A    between atoms: C_1  and  C_5
    2  A    between atoms: C_3  and  C_16
    3  A    between atoms: N_13  and  C_24
    4  A    between atoms: N_15  and  N_25
    5  A    between atoms: C_16  and  C_23
                            x       y       z     vdW  Elec       q    Type
                         _______ _______ _______ _____ _____    ______ ____

>  <TORSDO>
F 5

$$$$
=
 OpenBabel11052417293D

 25 29  0  0  1  0  0  0  0  0999 V2000
  191.9190  176.0140  145.6530 C   0  0  0  0  0  0  0  0  0  0  0  0
  192.4180  175.3980  144.4810 C   0  0  0  0  0  0  0  0  0  0  0  0
  194.1810  176.2030  146.5130 C   0  0  0  0  0  3  0  0  0  0  0  0
  194.6750  175.5880  145.3630 C   0  0  0  0  0  3  0  0  0  0  0  0
  192.8110  176.4160  146.6550 C   0  0  0  0  0  3  0  0  0  0  0  0
  193.8050  175.1870  144.3460 C   0  0  0  0  0  0  0  0  0  0  0  0
  190.4770  176.2650  145.8500 C   0  0  0  0  0  0  0  0  0  0  0  0
  187.7370  176.6790  146.2870 C   0  0  0  0  0  3  0  0  0  0  0  0
  189.8160  177.3510  145.2370 C   0  0  0  0  0  0  0  0  0  0  0  0
  188.4510  177.5490  145.4610 C   0  0  0  0  0  3  0  0  0  0  0  0
  188.3840  175.5970  146.8880 C   0  0  0  0  0  3  0  0  0  0  0  0
  190.5290  178.2870  144.3180 C   0  0  0  0  0  1  0  0  0  0  0  0
  189.7470  175.3900  146.6660 C   0  0  0  0  0  3  0  0  0  0  0  0
  194.3450  174.5730  143.1770 N   0  0  0  0  0  0  0  0  0  0  0  0
  194.9340  174.6360  141.8080 C   0  0  0  0  0  2  0  0  0  0  0  0
  194.7600  173.3890  142.3690 C   0  0  0  0  0  2  0  0  0  0  0  0
  191.4960  175.0320  143.3570 C   0  0  0  0  0  2  0  0  0  0  0  0
  189.4810  173.5570  143.5570 C   0  0  2  0  0  3  0  0  0  0  0  0
  190.2090  173.1470  142.3290 C   0  0  1  0  0  3  0  0  0  0  0  0
  188.8730  173.7540  142.2320 N   0  0  0  0  0  0  0  0  0  0  0  0
  190.9920  173.6080  143.5380 C   0  0  1  0  0  3  0  0  0  0  0  0
  188.1920  177.4750  141.7230 C   0  0  0  0  0  1  0  0  0  0  0  0
  187.9710  176.0450  142.0630 C   0  0  0  0  0  0  0  0  0  0  0  0
  186.8230  175.6660  142.5190 N   0  0  0  0  0  2  0  0  0  0  0  0
  189.0290  175.1050  141.8820 N   0  0  0  0  0  2  0  0  0  0  0  0
  1  7  1  0  0  0  0
  1  5  1  0  0  0  0
  2  1  2  0  0  0  0
  3  5  2  0  0  0  0
  4  3  1  0  0  0  0
  6  2  1  0  0  0  0
  6  4  2  0  0  0  0
  7 13  1  0  0  0  0
  8 11  1  0  0  0  0
  9 10  1  0  0  0  0
  9  7  2  0  0  0  0
 10  8  2  0  0  0  0
 12  9  1  0  0  0  0
 13 11  2  0  0  0  0
 14  6  1  0  0  0  0
 15 16  1  0  0  0  0
 15 14  1  0  0  0  0
 16 14  1  0  0  0  0
 17  2  1  0  0  0  0
 18 20  1  6  0  0  0
 19 20  1  6  0  0  0
 19 21  1  0  0  0  0
 19 18  1  0  0  0  0
 21 17  1  6  0  0  0
 21 18  1  0  0  0  0
 22 23  1  0  0  0  0
 23 24  2  0  0  0  0
 25 23  1  0  0  0  0
 25 20  1  0  0  0  0
M  END
>  <MODEL>
7

>  <REMARK>
 VINA RESULT:      -6.6      2.484      4.190
  Name = 
  5 active torsions:
  status: ('A' for Active; 'I' for Inactive)
    1  A    between atoms: C_1  and  C_5
    2  A    between atoms: C_3  and  C_16
    3  A    between atoms: N_13  and  C_24
    4  A    between atoms: N_15  and  N_25
    5  A    between atoms: C_16  and  C_23
                            x       y       z     vdW  Elec       q    Type
                         _______ _______ _______ _____ _____    ______ ____

>  <TORSDO>
F 5

$$$$
=
 OpenBabel11052417293D

 25 29  0  0  1  0  0  0  0  0999 V2000
  190.2370  175.3020  145.0450 C   0  0  0  0  0  0  0  0  0  0  0  0
  189.0240  176.0290  145.0280 C   0  0  0  0  0  0  0  0  0  0  0  0
  189.7570  174.5600  147.3060 C   0  0  0  0  0  3  0  0  0  0  0  0
  188.5650  175.2830  147.2950 C   0  0  0  0  0  3  0  0  0  0  0  0
  190.5880  174.5690  146.1860 C   0  0  0  0  0  3  0  0  0  0  0  0
  188.1920  176.0150  146.1650 C   0  0  0  0  0  0  0  0  0  0  0  0
  191.1490  175.2770  143.8840 C   0  0  0  0  0  0  0  0  0  0  0  0
  192.8370  175.1600  141.6460 C   0  0  0  0  0  3  0  0  0  0  0  0
  192.0730  176.3150  143.6350 C   0  0  0  0  0  0  0  0  0  0  0  0
  192.9090  176.2490  142.5170 C   0  0  0  0  0  3  0  0  0  0  0  0
  191.9330  174.1250  141.8920 C   0  0  0  0  0  3  0  0  0  0  0  0
  192.2110  177.4810  144.5580 C   0  0  0  0  0  1  0  0  0  0  0  0
  191.0960  174.1830  143.0090 C   0  0  0  0  0  3  0  0  0  0  0  0
  186.9590  176.7310  146.1830 N   0  0  0  0  0  0  0  0  0  0  0  0
  186.1370  177.9330  146.5080 C   0  0  0  0  0  2  0  0  0  0  0  0
  185.5000  176.8740  145.8980 C   0  0  0  0  0  2  0  0  0  0  0  0
  188.5850  176.7560  143.7920 C   0  0  0  0  0  2  0  0  0  0  0  0
  186.6870  175.9090  142.3960 C   0  0  2  0  0  3  0  0  0  0  0  0
  187.7020  176.4700  141.4680 C   0  0  1  0  0  3  0  0  0  0  0  0
  186.3830  177.1090  141.6000 N   0  0  0  0  0  0  0  0  0  0  0  0
  188.1550  175.7620  142.7260 C   0  0  1  0  0  3  0  0  0  0  0  0
  185.5680  180.0500  143.8910 C   0  0  0  0  0  1  0  0  0  0  0  0
  185.3800  178.8970  142.9720 C   0  0  0  0  0  0  0  0  0  0  0  0
  184.1850  178.5120  142.6650 N   0  0  0  0  0  2  0  0  0  0  0  0
  186.5200  178.2270  142.4370 N   0  0  0  0  0  2  0  0  0  0  0  0
  1  5  1  0  0  0  0
  2  1  2  0  0  0  0
  2  6  1  0  0  0  0
  4  3  1  0  0  0  0
  5  3  2  0  0  0  0
  6 14  1  0  0  0  0
  6  4  2  0  0  0  0
  7  1  1  0  0  0  0
  8 11  2  0  0  0  0
  8 10  1  0  0  0  0
  9  7  1  0  0  0  0
  9 12  1  0  0  0  0
 10  9  2  0  0  0  0
 11 13  1  0  0  0  0
 13  7  2  0  0  0  0
 14 15  1  0  0  0  0
 16 14  1  0  0  0  0
 16 15  1  0  0  0  0
 17  2  1  0  0  0  0
 18 20  1  1  0  0  0
 18 21  1  0  0  0  0
 19 20  1  1  0  0  0
 19 18  1  0  0  0  0
 19 21  1  0  0  0  0
 20 25  1  0  0  0  0
 21 17  1  1  0  0  0
 23 22  1  0  0  0  0
 24 23  2  0  0  0  0
 25 23  1  0  0  0  0
M  END
>  <MODEL>
8

>  <REMARK>
 VINA RESULT:      -6.6      1.302      4.767
  Name = 
  5 active torsions:
  status: ('A' for Active; 'I' for Inactive)
    1  A    between atoms: C_1  and  C_5
    2  A    between atoms: C_3  and  C_16
    3  A    between atoms: N_13  and  C_24
    4  A    between atoms: N_15  and  N_25
    5  A    between atoms: C_16  and  C_23
                            x       y       z     vdW  Elec       q    Type
                         _______ _______ _______ _____ _____    ______ ____

>  <TORSDO>
F 5

$$$$
=
 OpenBabel11052417293D

 25 29  0  0  1  0  0  0  0  0999 V2000
  190.1970  174.9780  143.5220 C   0  0  0  0  0  0  0  0  0  0  0  0
  189.3490  174.7600  142.4110 C   0  0  0  0  0  0  0  0  0  0  0  0
  191.9280  173.6510  142.4580 C   0  0  0  0  0  3  0  0  0  0  0  0
  191.0920  173.4270  141.3650 C   0  0  0  0  0  3  0  0  0  0  0  0
  191.4830  174.4240  143.5300 C   0  0  0  0  0  3  0  0  0  0  0  0
  189.8080  173.9770  141.3330 C   0  0  0  0  0  0  0  0  0  0  0  0
  189.7730  175.7910  144.6800 C   0  0  0  0  0  0  0  0  0  0  0  0
  188.9460  177.2620  146.9220 C   0  0  0  0  0  3  0  0  0  0  0  0
  190.0420  177.1740  144.7610 C   0  0  0  0  0  0  0  0  0  0  0  0
  189.6270  177.8990  145.8820 C   0  0  0  0  0  3  0  0  0  0  0  0
  188.6690  175.8960  146.8420 C   0  0  0  0  0  3  0  0  0  0  0  0
  190.7340  177.9060  143.6590 C   0  0  0  0  0  1  0  0  0  0  0  0
  189.0780  175.1650  145.7240 C   0  0  0  0  0  3  0  0  0  0  0  0
  188.9830  173.7400  140.1940 N   0  0  0  0  0  0  0  0  0  0  0  0
  188.1070  172.8670  139.3590 C   0  0  0  0  0  2  0  0  0  0  0  0
  188.3250  174.1560  138.9190 C   0  0  0  0  0  2  0  0  0  0  0  0
  187.9980  175.4080  142.3400 C   0  0  0  0  0  2  0  0  0  0  0  0
  186.6440  177.1580  141.1690 C   0  0  2  0  0  3  0  0  0  0  0  0
  187.6680  177.8620  141.9840 C   0  0  1  0  0  3  0  0  0  0  0  0
  186.2400  177.9930  142.3110 N   0  0  0  0  0  0  0  0  0  0  0  0
  188.0160  176.5440  141.3300 C   0  0  1  0  0  3  0  0  0  0  0  0
  185.4540  176.7140  145.8200 C   0  0  0  0  0  1  0  0  0  0  0  0
  185.7960  177.6450  144.7140 C   0  0  0  0  0  0  0  0  0  0  0  0
  185.9450  178.9050  144.9600 N   0  0  0  0  0  2  0  0  0  0  0  0
  185.9580  177.1390  143.3890 N   0  0  0  0  0  2  0  0  0  0  0  0
  1  5  1  0  0  0  0
  1  7  1  0  0  0  0
  2  1  2  0  0  0  0
  3  5  2  0  0  0  0
  4  3  1  0  0  0  0
  6  4  2  0  0  0  0
  6  2  1  0  0  0  0
  7  9  2  0  0  0  0
  7 13  1  0  0  0  0
  9 10  1  0  0  0  0
 10  8  2  0  0  0  0
 11  8  1  0  0  0  0
 12  9  1  0  0  0  0
 13 11  2  0  0  0  0
 14  6  1  0  0  0  0
 15 14  1  0  0  0  0
 16 15  1  0  0  0  0
 16 14  1  0  0  0  0
 17  2  1  0  0  0  0
 18 21  1  0  0  0  0
 18 19  1  0  0  0  0
 18 20  1  1  0  0  0
 19 20  1  1  0  0  0
 20 25  1  0  0  0  0
 21 19  1  0  0  0  0
 21 17  1  1  0  0  0
 23 24  2  0  0  0  0
 23 22  1  0  0  0  0
 25 23  1  0  0  0  0
M  END
>  <MODEL>
9

>  <REMARK>
 VINA RESULT:      -6.5      1.991      3.726
  Name = 
  5 active torsions:
  status: ('A' for Active; 'I' for Inactive)
    1  A    between atoms: C_1  and  C_5
    2  A    between atoms: C_3  and  C_16
    3  A    between atoms: N_13  and  C_24
    4  A    between atoms: N_15  and  N_25
    5  A    between atoms: C_16  and  C_23
                            x       y       z     vdW  Elec       q    Type
                         _______ _______ _______ _____ _____    ______ ____

>  <TORSDO>
F 5

$$$$
