=
 OpenBabel11052420433D

 43 48  0  0  1  0  0  0  0  0999 V2000
  185.0240  178.1590  145.5340 C   0  0  0  0  0  0  0  0  0  0  0  0
  188.9220  175.4640  143.8510 C   0  0  0  0  0  0  0  0  0  0  0  0
  190.9570  175.6670  145.7850 C   0  0  0  0  0  0  0  0  0  0  0  0
  186.5060  176.7920  144.1960 C   0  0  0  0  0  0  0  0  0  0  0  0
  185.9820  178.2060  146.5520 C   0  0  0  0  0  3  0  0  0  0  0  0
  183.7270  178.8640  145.7030 C   0  0  0  0  0  1  0  0  0  0  0  0
  187.4750  176.8330  145.2220 C   0  0  0  0  0  0  0  0  0  0  0  0
  185.2860  177.4540  144.3550 C   0  0  0  0  0  3  0  0  0  0  0  0
  187.2050  177.5460  146.3980 C   0  0  0  0  0  3  0  0  0  0  0  0
  189.6920  176.2160  146.0170 O   0  0  0  0  0  0  0  0  0  0  0  0
  188.6940  176.1690  145.0420 C   0  0  0  0  0  0  0  0  0  0  0  0
  187.9680  175.4400  142.8800 N   0  0  0  0  0  0  0  0  0  0  0  0
  190.1950  174.6830  143.6730 C   0  0  1  0  0  3  0  0  0  0  0  0
  191.2000  174.9970  144.6980 N   0  0  0  0  0  0  0  0  0  0  0  0
  186.7800  176.0850  143.0240 C   0  0  0  0  0  3  0  0  0  0  0  0
  192.0450  175.8480  146.7880 C   0  0  1  0  0  3  0  0  0  0  0  0
  191.5470  175.4750  148.1730 C   0  0  0  0  0  1  0  0  0  0  0  0
  193.2400  174.9900  146.4040 C   0  0  0  0  0  2  0  0  0  0  0  0
  194.3930  175.8270  146.0940 N   0  0  0  0  0  0  0  0  0  0  0  0
  194.2100  177.1230  146.7360 C   0  0  0  0  0  1  0  0  0  0  0  0
  194.5060  176.0090  144.6410 C   0  0  0  0  0  2  0  0  0  0  0  0
  195.7120  175.2980  144.0170 C   0  0  2  0  0  3  0  0  0  0  0  0
  195.7080  173.8470  142.0760 C   0  0  0  0  0  2  0  0  0  0  0  0
  196.1350  175.9850  142.8280 N   0  0  0  0  0  0  0  0  0  0  0  0
  195.3000  173.9080  143.5440 C   0  0  1  0  0  3  0  0  0  0  0  0
  196.1420  175.2380  141.7930 C   0  0  0  0  0  3  0  0  0  0  0  0
  195.2330  171.8090  144.9900 N   0  0  0  0  0  0  0  0  0  0  0  0
  195.9920  172.8440  144.3450 C   0  0  0  0  0  0  0  0  0  0  0  0
  194.8120  169.4520  146.3380 S   0  0  0  0  0  0  0  0  0  0  0  0
  193.2760  170.4860  144.2590 C   0  0  0  0  0  2  0  0  0  0  0  0
  194.0940  169.2600  144.6730 C   0  0  0  0  0  2  0  0  0  0  0  0
  193.7740  171.7920  144.8820 C   0  0  0  0  0  2  0  0  0  0  0  0
  195.9320  170.7870  145.7770 C   0  0  0  0  0  2  0  0  0  0  0  0
  197.2480  172.8680  144.4570 O   0  0  0  0  0  0  0  0  0  0  0  0
  189.8820  173.1900  143.7010 C   0  0  0  0  0  2  0  0  0  0  0  0
  190.7810  170.5290  141.1590 C   0  0  0  0  0  3  0  0  0  0  0  0
  191.8900  171.1020  140.5270 C   0  0  0  0  0  0  0  0  0  0  0  0
  191.6840  173.0500  141.9660 C   0  0  0  0  0  3  0  0  0  0  0  0
  190.1250  171.2110  142.1890 C   0  0  0  0  0  3  0  0  0  0  0  0
  190.5740  172.4730  142.5910 C   0  0  0  0  0  0  0  0  0  0  0  0
  192.3390  172.3690  140.9370 C   0  0  0  0  0  3  0  0  0  0  0  0
  192.6050  170.8830  138.1700 C   0  0  0  0  0  1  0  0  0  0  0  0
  192.5240  170.3950  139.5010 O   0  0  0  0  0  0  0  0  0  0  0  0
  1  6  1  0  0  0  0
  1  5  1  0  0  0  0
  2 11  1  0  0  0  0
  3 10  1  0  0  0  0
  3 16  1  0  0  0  0
  4  8  1  0  0  0  0
  4  7  1  0  0  0  0
  7  9  1  0  0  0  0
  8  1  2  0  0  0  0
  9  5  2  0  0  0  0
 11  7  2  0  0  0  0
 11 10  1  0  0  0  0
 12 15  1  0  0  0  0
 12  2  2  0  0  0  0
 13 35  1  1  0  0  0
 13  2  1  0  0  0  0
 13 14  1  0  0  0  0
 14  3  2  0  0  0  0
 15  4  2  0  0  0  0
 16 17  1  1  0  0  0
 18 16  1  0  0  0  0
 19 18  1  0  0  0  0
 19 20  1  0  0  0  0
 21 19  1  0  0  0  0
 22 21  1  6  0  0  0
 23 25  1  0  0  0  0
 24 22  1  0  0  0  0
 25 22  1  0  0  0  0
 25 28  1  1  0  0  0
 26 23  1  0  0  0  0
 26 24  2  0  0  0  0
 27 33  1  0  0  0  0
 28 34  2  0  0  0  0
 28 27  1  0  0  0  0
 30 31  1  0  0  0  0
 30 32  1  0  0  0  0
 31 29  1  0  0  0  0
 32 27  1  0  0  0  0
 33 29  1  0  0  0  0
 36 39  1  0  0  0  0
 37 41  1  0  0  0  0
 37 36  2  0  0  0  0
 38 40  1  0  0  0  0
 39 40  2  0  0  0  0
 40 35  1  0  0  0  0
 41 38  2  0  0  0  0
 42 43  1  0  0  0  0
 43 37  1  0  0  0  0
M  END
>  <MODEL>
1

>  <REMARK>
 VINA RESULT:      -7.5      0.000      0.000
  Name = 
  9 active torsions:
  status: ('A' for Active; 'I' for Inactive)
    1  A    between atoms: C_1  and  C_34
    2  A    between atoms: C_1  and  C_35
    3  A    between atoms: C_2  and  C_6
    4  A    between atoms: C_2  and  C_13
    5  A    between atoms: C_3  and  C_4
    6  A    between atoms: C_3  and  N_12
    7  A    between atoms: C_6  and  N_12
    8  A    between atoms: C_14  and  C_22
    9  A    between atoms: C_19  and  O_37
                            x       y       z     vdW  Elec       q    Type
                         _______ _______ _______ _____ _____    ______ ____

>  <TORSDO>
F 9

$$$$
=
 OpenBabel11052420433D

 43 48  0  0  1  0  0  0  0  0999 V2000
  193.1800  171.4730  139.0940 C   0  0  0  0  0  0  0  0  0  0  0  0
  189.6430  173.9630  141.6580 C   0  0  0  0  0  0  0  0  0  0  0  0
  190.9550  175.9730  143.1280 C   0  0  0  0  0  0  0  0  0  0  0  0
  191.0870  172.2080  140.0620 C   0  0  0  0  0  0  0  0  0  0  0  0
  193.8490  172.5170  139.7420 C   0  0  0  0  0  3  0  0  0  0  0  0
  193.9390  170.5260  138.2370 C   0  0  0  0  0  1  0  0  0  0  0  0
  191.7570  173.2650  140.7160 C   0  0  0  0  0  0  0  0  0  0  0  0
  191.8000  171.3170  139.2550 C   0  0  0  0  0  3  0  0  0  0  0  0
  193.1410  173.4110  140.5520 C   0  0  0  0  0  3  0  0  0  0  0  0
  191.6580  175.1780  142.2170 O   0  0  0  0  0  0  0  0  0  0  0  0
  191.0270  174.1430  141.5250 C   0  0  0  0  0  0  0  0  0  0  0  0
  189.0230  172.9360  141.0150 N   0  0  0  0  0  0  0  0  0  0  0  0
  188.8330  174.9420  142.4640 C   0  0  1  0  0  3  0  0  0  0  0  0
  189.6690  175.8420  143.2690 N   0  0  0  0  0  0  0  0  0  0  0  0
  189.7100  172.0620  140.2310 C   0  0  0  0  0  3  0  0  0  0  0  0
  191.6790  176.9830  143.9520 C   0  0  1  0  0  3  0  0  0  0  0  0
  191.2210  178.3840  143.5850 C   0  0  0  0  0  1  0  0  0  0  0  0
  191.4280  176.7110  145.4270 C   0  0  0  0  0  2  0  0  0  0  0  0
  192.3230  175.6680  145.9140 N   0  0  0  0  0  0  0  0  0  0  0  0
  191.6730  174.9810  147.0240 C   0  0  0  0  0  1  0  0  0  0  0  0
  193.5850  176.2620  146.3750 C   0  0  0  0  0  2  0  0  0  0  0  0
  194.8280  175.7120  145.6660 C   0  0  2  0  0  3  0  0  0  0  0  0
  194.9620  174.8690  143.3990 C   0  0  0  0  0  2  0  0  0  0  0  0
  195.3570  176.6900  144.7570 N   0  0  0  0  0  0  0  0  0  0  0  0
  194.4360  174.5280  144.7890 C   0  0  1  0  0  3  0  0  0  0  0  0
  195.4380  176.2670  143.5560 C   0  0  0  0  0  3  0  0  0  0  0  0
  194.3370  172.0120  145.1870 N   0  0  0  0  0  0  0  0  0  0  0  0
  195.0450  173.2570  145.3030 C   0  0  0  0  0  0  0  0  0  0  0  0
  193.9850  169.2880  145.2800 S   0  0  0  0  0  0  0  0  0  0  0  0
  192.9740  171.0410  143.3680 C   0  0  0  0  0  2  0  0  0  0  0  0
  193.8470  169.7940  143.5340 C   0  0  0  0  0  2  0  0  0  0  0  0
  193.0080  171.9770  144.5780 C   0  0  0  0  0  2  0  0  0  0  0  0
  194.9480  170.7850  145.7100 C   0  0  0  0  0  2  0  0  0  0  0  0
  196.1820  173.2880  145.8480 O   0  0  0  0  0  0  0  0  0  0  0  0
  187.9510  175.7620  141.5260 C   0  0  0  0  0  2  0  0  0  0  0  0
  185.3900  177.1000  143.9770 C   0  0  0  0  0  3  0  0  0  0  0  0
  185.4260  178.4720  143.7050 C   0  0  0  0  0  0  0  0  0  0  0  0
  187.1230  178.0760  142.0110 C   0  0  0  0  0  3  0  0  0  0  0  0
  186.2150  176.2180  143.2700 C   0  0  0  0  0  3  0  0  0  0  0  0
  187.0850  176.7070  142.2890 C   0  0  0  0  0  0  0  0  0  0  0  0
  186.2980  178.9570  142.7160 C   0  0  0  0  0  3  0  0  0  0  0  0
  183.9680  178.9430  145.6470 C   0  0  0  0  0  1  0  0  0  0  0  0
  184.5890  179.3260  144.4280 O   0  0  0  0  0  0  0  0  0  0  0  0
  1  8  2  0  0  0  0
  1  5  1  0  0  0  0
  2 13  1  0  0  0  0
  3 14  2  0  0  0  0
  3 16  1  0  0  0  0
  4 15  2  0  0  0  0
  4  7  1  0  0  0  0
  5  9  2  0  0  0  0
  6  1  1  0  0  0  0
  7 11  2  0  0  0  0
  8  4  1  0  0  0  0
  9  7  1  0  0  0  0
 10  3  1  0  0  0  0
 11  2  1  0  0  0  0
 11 10  1  0  0  0  0
 12  2  2  0  0  0  0
 13 35  1  6  0  0  0
 13 14  1  0  0  0  0
 15 12  1  0  0  0  0
 16 17  1  6  0  0  0
 16 18  1  0  0  0  0
 18 19  1  0  0  0  0
 19 21  1  0  0  0  0
 19 20  1  0  0  0  0
 22 21  1  6  0  0  0
 23 26  1  0  0  0  0
 23 25  1  0  0  0  0
 24 22  1  0  0  0  0
 25 28  1  1  0  0  0
 25 22  1  0  0  0  0
 26 24  2  0  0  0  0
 27 28  1  0  0  0  0
 27 33  1  0  0  0  0
 28 34  2  0  0  0  0
 29 33  1  0  0  0  0
 30 31  1  0  0  0  0
 30 32  1  0  0  0  0
 31 29  1  0  0  0  0
 32 27  1  0  0  0  0
 35 40  1  0  0  0  0
 37 36  1  0  0  0  0
 37 43  1  0  0  0  0
 38 40  2  0  0  0  0
 38 41  1  0  0  0  0
 39 36  2  0  0  0  0
 40 39  1  0  0  0  0
 41 37  2  0  0  0  0
 43 42  1  0  0  0  0
M  END
>  <MODEL>
2

>  <REMARK>
 VINA RESULT:      -7.5      1.957      6.463
  Name = 
  9 active torsions:
  status: ('A' for Active; 'I' for Inactive)
    1  A    between atoms: C_1  and  C_34
    2  A    between atoms: C_1  and  C_35
    3  A    between atoms: C_2  and  C_6
    4  A    between atoms: C_2  and  C_13
    5  A    between atoms: C_3  and  C_4
    6  A    between atoms: C_3  and  N_12
    7  A    between atoms: C_6  and  N_12
    8  A    between atoms: C_14  and  C_22
    9  A    between atoms: C_19  and  O_37
                            x       y       z     vdW  Elec       q    Type
                         _______ _______ _______ _____ _____    ______ ____

>  <TORSDO>
F 9

$$$$
=
 OpenBabel11052420433D

 43 48  0  0  1  0  0  0  0  0999 V2000
  185.9000  179.0190  144.1710 C   0  0  0  0  0  0  0  0  0  0  0  0
  188.4550  175.5110  141.6300 C   0  0  0  0  0  0  0  0  0  0  0  0
  189.7360  173.8850  143.5370 C   0  0  0  0  0  0  0  0  0  0  0  0
  186.9100  177.6770  142.4280 C   0  0  0  0  0  0  0  0  0  0  0  0
  186.4510  178.1760  145.1420 C   0  0  0  0  0  3  0  0  0  0  0  0
  185.0720  180.1820  144.5810 C   0  0  0  0  0  1  0  0  0  0  0  0
  187.4660  176.8220  143.4050 C   0  0  0  0  0  0  0  0  0  0  0  0
  186.1310  178.7710  142.8140 C   0  0  0  0  0  3  0  0  0  0  0  0
  187.2330  177.0810  144.7610 C   0  0  0  0  0  3  0  0  0  0  0  0
  188.8470  174.8880  143.9340 O   0  0  0  0  0  0  0  0  0  0  0  0
  188.2500  175.7350  142.9990 C   0  0  0  0  0  0  0  0  0  0  0  0
  187.9050  176.3510  140.7110 N   0  0  0  0  0  0  0  0  0  0  0  0
  189.2320  174.3050  141.1750 C   0  0  1  0  0  3  0  0  0  0  0  0
  189.9410  173.6400  142.2770 N   0  0  0  0  0  0  0  0  0  0  0  0
  187.1490  177.4200  141.0780 C   0  0  0  0  0  3  0  0  0  0  0  0
  190.4620  173.0820  144.5620 C   0  0  1  0  0  3  0  0  0  0  0  0
  189.6400  171.8660  144.9540 C   0  0  0  0  0  1  0  0  0  0  0  0
  191.8130  172.6550  144.0120 C   0  0  0  0  0  2  0  0  0  0  0  0
  192.8930  173.3270  144.7270 N   0  0  0  0  0  0  0  0  0  0  0  0
  193.7980  172.3150  145.2560 C   0  0  0  0  0  1  0  0  0  0  0  0
  192.3440  174.1230  145.8320 C   0  0  0  0  0  2  0  0  0  0  0  0
  192.6460  175.6230  145.7300 C   0  0  2  0  0  3  0  0  0  0  0  0
  192.1830  177.0810  143.8510 C   0  0  0  0  0  2  0  0  0  0  0  0
  191.4460  176.3870  145.9230 N   0  0  0  0  0  0  0  0  0  0  0  0
  193.1050  175.9580  144.3150 C   0  0  1  0  0  3  0  0  0  0  0  0
  191.1830  177.1640  144.9450 C   0  0  0  0  0  3  0  0  0  0  0  0
  195.4720  175.8190  143.3780 N   0  0  0  0  0  0  0  0  0  0  0  0
  194.5400  176.3950  144.3060 C   0  0  0  0  0  0  0  0  0  0  0  0
  197.8410  175.5570  142.0110 S   0  0  0  0  0  0  0  0  0  0  0  0
  195.2740  175.2110  140.9900 C   0  0  0  0  0  2  0  0  0  0  0  0
  196.5610  176.0160  140.7960 C   0  0  0  0  0  2  0  0  0  0  0  0
  195.0310  174.7870  142.4400 C   0  0  0  0  0  2  0  0  0  0  0  0
  196.8730  176.2550  143.3990 C   0  0  0  0  0  2  0  0  0  0  0  0
  194.9280  177.2700  145.1290 O   0  0  0  0  0  0  0  0  0  0  0  0
  188.2840  173.3160  140.5030 C   0  0  0  0  0  2  0  0  0  0  0  0
  189.0070  173.5590  136.7920 C   0  0  0  0  0  3  0  0  0  0  0  0
  189.5940  172.3160  136.5350 C   0  0  0  0  0  0  0  0  0  0  0  0
  189.3340  171.7250  138.8780 C   0  0  0  0  0  3  0  0  0  0  0  0
  188.5840  173.8860  138.0850 C   0  0  0  0  0  3  0  0  0  0  0  0
  188.7510  172.9710  139.1290 C   0  0  0  0  0  0  0  0  0  0  0  0
  189.7560  171.3980  137.5860 C   0  0  0  0  0  3  0  0  0  0  0  0
  191.3630  172.0950  134.8200 C   0  0  0  0  0  1  0  0  0  0  0  0
  190.0060  172.0200  135.2320 O   0  0  0  0  0  0  0  0  0  0  0  0
  1  6  1  0  0  0  0
  1  5  1  0  0  0  0
  2 11  1  0  0  0  0
  3 10  1  0  0  0  0
  3 16  1  0  0  0  0
  4  8  1  0  0  0  0
  4  7  1  0  0  0  0
  7  9  1  0  0  0  0
  8  1  2  0  0  0  0
  9  5  2  0  0  0  0
 11  7  2  0  0  0  0
 11 10  1  0  0  0  0
 12 15  1  0  0  0  0
 12  2  2  0  0  0  0
 13 35  1  1  0  0  0
 13  2  1  0  0  0  0
 13 14  1  0  0  0  0
 14  3  2  0  0  0  0
 15  4  2  0  0  0  0
 16 17  1  6  0  0  0
 18 16  1  0  0  0  0
 18 19  1  0  0  0  0
 19 20  1  0  0  0  0
 19 21  1  0  0  0  0
 22 21  1  6  0  0  0
 22 24  1  0  0  0  0
 23 25  1  0  0  0  0
 23 26  1  0  0  0  0
 25 28  1  1  0  0  0
 25 22  1  0  0  0  0
 26 24  2  0  0  0  0
 27 33  1  0  0  0  0
 27 28  1  0  0  0  0
 28 34  2  0  0  0  0
 29 33  1  0  0  0  0
 30 32  1  0  0  0  0
 31 30  1  0  0  0  0
 31 29  1  0  0  0  0
 32 27  1  0  0  0  0
 36 39  1  0  0  0  0
 37 36  2  0  0  0  0
 37 41  1  0  0  0  0
 38 40  1  0  0  0  0
 39 40  2  0  0  0  0
 40 35  1  0  0  0  0
 41 38  2  0  0  0  0
 42 43  1  0  0  0  0
 43 37  1  0  0  0  0
M  END
>  <MODEL>
3

>  <REMARK>
 VINA RESULT:      -7.5      2.787      4.218
  Name = 
  9 active torsions:
  status: ('A' for Active; 'I' for Inactive)
    1  A    between atoms: C_1  and  C_34
    2  A    between atoms: C_1  and  C_35
    3  A    between atoms: C_2  and  C_6
    4  A    between atoms: C_2  and  C_13
    5  A    between atoms: C_3  and  C_4
    6  A    between atoms: C_3  and  N_12
    7  A    between atoms: C_6  and  N_12
    8  A    between atoms: C_14  and  C_22
    9  A    between atoms: C_19  and  O_37
                            x       y       z     vdW  Elec       q    Type
                         _______ _______ _______ _____ _____    ______ ____

>  <TORSDO>
F 9

$$$$
=
 OpenBabel11052420433D

 43 48  0  0  1  0  0  0  0  0999 V2000
  185.5820  177.8870  146.4680 C   0  0  0  0  0  0  0  0  0  0  0  0
  188.5700  175.6130  143.1220 C   0  0  0  0  0  0  0  0  0  0  0  0
  191.1240  175.4320  144.2910 C   0  0  0  0  0  0  0  0  0  0  0  0
  186.4750  176.8290  144.4830 C   0  0  0  0  0  0  0  0  0  0  0  0
  186.8160  177.7310  147.1090 C   0  0  0  0  0  3  0  0  0  0  0  0
  184.4530  178.5350  147.1830 C   0  0  0  0  0  1  0  0  0  0  0  0
  187.7220  176.6670  145.1270 C   0  0  0  0  0  0  0  0  0  0  0  0
  185.4120  177.4380  145.1550 C   0  0  0  0  0  3  0  0  0  0  0  0
  187.8840  177.1240  146.4410 C   0  0  0  0  0  3  0  0  0  0  0  0
  190.0350  175.9150  145.0230 O   0  0  0  0  0  0  0  0  0  0  0  0
  188.7770  176.0600  144.4350 C   0  0  0  0  0  0  0  0  0  0  0  0
  187.3570  175.7820  142.5280 N   0  0  0  0  0  0  0  0  0  0  0  0
  189.6710  174.8930  142.3920 C   0  0  1  0  0  3  0  0  0  0  0  0
  190.9670  174.9980  143.0760 N   0  0  0  0  0  0  0  0  0  0  0  0
  186.3180  176.3770  143.1730 C   0  0  0  0  0  3  0  0  0  0  0  0
  192.4840  175.4110  144.9020 C   0  0  1  0  0  3  0  0  0  0  0  0
  192.5620  176.4140  146.0400 C   0  0  0  0  0  1  0  0  0  0  0  0
  192.7960  174.0110  145.4050 C   0  0  0  0  0  2  0  0  0  0  0  0
  193.6080  173.2870  144.4340 N   0  0  0  0  0  0  0  0  0  0  0  0
  193.1220  171.9160  144.3540 C   0  0  0  0  0  1  0  0  0  0  0  0
  195.0150  173.2870  144.8570 C   0  0  0  0  0  2  0  0  0  0  0  0
  195.9440  174.0830  143.9320 C   0  0  2  0  0  3  0  0  0  0  0  0
  195.3700  176.0330  142.6130 C   0  0  0  0  0  2  0  0  0  0  0  0
  196.3530  175.3040  144.5680 N   0  0  0  0  0  0  0  0  0  0  0  0
  195.1770  174.5220  142.6900 C   0  0  1  0  0  3  0  0  0  0  0  0
  196.0620  176.3450  143.8900 C   0  0  0  0  0  3  0  0  0  0  0  0
  194.8140  173.3090  140.4770 N   0  0  0  0  0  0  0  0  0  0  0  0
  195.7110  173.8430  141.4630 C   0  0  0  0  0  0  0  0  0  0  0  0
  194.0670  172.2170  138.0680 S   0  0  0  0  0  0  0  0  0  0  0  0
  192.7030  174.1650  139.5160 C   0  0  0  0  0  2  0  0  0  0  0  0
  193.3450  173.8890  138.1540 C   0  0  0  0  0  2  0  0  0  0  0  0
  193.3670  173.4100  140.6690 C   0  0  0  0  0  2  0  0  0  0  0  0
  195.3620  172.6380  139.2930 C   0  0  0  0  0  2  0  0  0  0  0  0
  196.9580  173.7360  141.3050 O   0  0  0  0  0  0  0  0  0  0  0  0
  189.2930  173.4240  142.2300 C   0  0  0  0  0  2  0  0  0  0  0  0
  190.2290  171.3460  139.2030 C   0  0  0  0  0  3  0  0  0  0  0  0
  189.7790  172.1540  138.1530 C   0  0  0  0  0  0  0  0  0  0  0  0
  189.0000  173.7940  139.7690 C   0  0  0  0  0  3  0  0  0  0  0  0
  190.0660  171.7580  140.5300 C   0  0  0  0  0  3  0  0  0  0  0  0
  189.4490  172.9800  140.8140 C   0  0  0  0  0  0  0  0  0  0  0  0
  189.1620  173.3830  138.4430 C   0  0  0  0  0  3  0  0  0  0  0  0
  190.6680  172.4670  135.8670 C   0  0  0  0  0  1  0  0  0  0  0  0
  189.9550  171.7140  136.8390 O   0  0  0  0  0  0  0  0  0  0  0  0
  1  5  1  0  0  0  0
  1  6  1  0  0  0  0
  2 11  1  0  0  0  0
  3 16  1  0  0  0  0
  3 10  1  0  0  0  0
  4  7  1  0  0  0  0
  4  8  1  0  0  0  0
  7  9  1  0  0  0  0
  8  1  2  0  0  0  0
  9  5  2  0  0  0  0
 11 10  1  0  0  0  0
 11  7  2  0  0  0  0
 12  2  2  0  0  0  0
 12 15  1  0  0  0  0
 13 35  1  1  0  0  0
 13 14  1  0  0  0  0
 13  2  1  0  0  0  0
 14  3  2  0  0  0  0
 15  4  2  0  0  0  0
 16 18  1  0  0  0  0
 16 17  1  1  0  0  0
 19 21  1  0  0  0  0
 19 18  1  0  0  0  0
 20 19  1  0  0  0  0
 22 24  1  0  0  0  0
 22 21  1  1  0  0  0
 23 25  1  0  0  0  0
 23 26  1  0  0  0  0
 25 28  1  6  0  0  0
 25 22  1  0  0  0  0
 26 24  2  0  0  0  0
 27 32  1  0  0  0  0
 27 28  1  0  0  0  0
 29 31  1  0  0  0  0
 29 33  1  0  0  0  0
 30 32  1  0  0  0  0
 31 30  1  0  0  0  0
 33 27  1  0  0  0  0
 34 28  2  0  0  0  0
 36 39  1  0  0  0  0
 37 41  1  0  0  0  0
 37 36  2  0  0  0  0
 38 40  1  0  0  0  0
 39 40  2  0  0  0  0
 40 35  1  0  0  0  0
 41 38  2  0  0  0  0
 42 43  1  0  0  0  0
 43 37  1  0  0  0  0
M  END
>  <MODEL>
4

>  <REMARK>
 VINA RESULT:      -7.4      2.390      3.299
  Name = 
  9 active torsions:
  status: ('A' for Active; 'I' for Inactive)
    1  A    between atoms: C_1  and  C_34
    2  A    between atoms: C_1  and  C_35
    3  A    between atoms: C_2  and  C_6
    4  A    between atoms: C_2  and  C_13
    5  A    between atoms: C_3  and  C_4
    6  A    between atoms: C_3  and  N_12
    7  A    between atoms: C_6  and  N_12
    8  A    between atoms: C_14  and  C_22
    9  A    between atoms: C_19  and  O_37
                            x       y       z     vdW  Elec       q    Type
                         _______ _______ _______ _____ _____    ______ ____

>  <TORSDO>
F 9

$$$$
=
 OpenBabel11052420433D

 43 48  0  0  1  0  0  0  0  0999 V2000
  185.4190  177.8570  146.3830 C   0  0  0  0  0  0  0  0  0  0  0  0
  187.8890  175.9410  142.4430 C   0  0  0  0  0  0  0  0  0  0  0  0
  190.3380  174.9480  143.4130 C   0  0  0  0  0  0  0  0  0  0  0  0
  186.0860  177.1760  144.1580 C   0  0  0  0  0  0  0  0  0  0  0  0
  186.5870  177.2930  146.9070 C   0  0  0  0  0  3  0  0  0  0  0  0
  184.4450  178.5200  147.2870 C   0  0  0  0  0  1  0  0  0  0  0  0
  187.2650  176.6030  144.6840 C   0  0  0  0  0  0  0  0  0  0  0  0
  185.1690  177.8000  145.0080 C   0  0  0  0  0  3  0  0  0  0  0  0
  187.5090  176.6690  146.0610 C   0  0  0  0  0  3  0  0  0  0  0  0
  189.3690  175.4430  144.2910 O   0  0  0  0  0  0  0  0  0  0  0  0
  188.1750  175.9880  143.8150 C   0  0  0  0  0  0  0  0  0  0  0  0
  186.7440  176.5010  141.9650 N   0  0  0  0  0  0  0  0  0  0  0  0
  188.8200  175.2190  141.5070 C   0  0  1  0  0  3  0  0  0  0  0  0
  190.1040  174.8790  142.1360 N   0  0  0  0  0  0  0  0  0  0  0  0
  185.8480  177.1140  142.7850 C   0  0  0  0  0  3  0  0  0  0  0  0
  191.6580  174.4950  143.9370 C   0  0  1  0  0  3  0  0  0  0  0  0
  192.4320  173.7710  142.8490 C   0  0  0  0  0  1  0  0  0  0  0  0
  192.4450  175.6930  144.4410 C   0  0  0  0  0  2  0  0  0  0  0  0
  193.3330  175.3010  145.5300 N   0  0  0  0  0  0  0  0  0  0  0  0
  192.5550  175.2350  146.7600 C   0  0  0  0  0  1  0  0  0  0  0  0
  194.4090  176.2890  145.6810 C   0  0  0  0  0  2  0  0  0  0  0  0
  195.7160  175.8980  144.9810 C   0  0  2  0  0  3  0  0  0  0  0  0
  195.9500  174.7180  142.8780 C   0  0  0  0  0  2  0  0  0  0  0  0
  195.9820  176.7910  143.8880 N   0  0  0  0  0  0  0  0  0  0  0  0
  195.5640  174.5240  144.3400 C   0  0  1  0  0  3  0  0  0  0  0  0
  196.1110  176.1900  142.7690 C   0  0  0  0  0  3  0  0  0  0  0  0
  195.9250  172.2690  145.4760 N   0  0  0  0  0  0  0  0  0  0  0  0
  196.4560  173.5200  145.0090 C   0  0  0  0  0  0  0  0  0  0  0  0
  195.9950  169.7070  146.4670 S   0  0  0  0  0  0  0  0  0  0  0  0
  194.2900  170.6930  144.5000 C   0  0  0  0  0  2  0  0  0  0  0  0
  195.3420  169.6140  144.7670 C   0  0  0  0  0  2  0  0  0  0  0  0
  194.5020  171.9700  145.3150 C   0  0  0  0  0  2  0  0  0  0  0  0
  196.8170  171.3100  146.1380 C   0  0  0  0  0  2  0  0  0  0  0  0
  197.6800  173.7840  145.1670 O   0  0  0  0  0  0  0  0  0  0  0  0
  188.1430  173.9490  141.0010 C   0  0  0  0  0  2  0  0  0  0  0  0
  190.1960  172.0670  138.4330 C   0  0  0  0  0  3  0  0  0  0  0  0
  189.8340  172.7160  137.2470 C   0  0  0  0  0  0  0  0  0  0  0  0
  188.3550  174.1710  138.5140 C   0  0  0  0  0  3  0  0  0  0  0  0
  189.6420  172.4660  139.6540 C   0  0  0  0  0  3  0  0  0  0  0  0
  188.7190  173.5160  139.6950 C   0  0  0  0  0  0  0  0  0  0  0  0
  188.9080  173.7720  137.2940 C   0  0  0  0  0  3  0  0  0  0  0  0
  189.7290  171.4410  135.1310 C   0  0  0  0  0  1  0  0  0  0  0  0
  190.4050  172.2940  136.0440 O   0  0  0  0  0  0  0  0  0  0  0  0
  1  5  1  0  0  0  0
  1  6  1  0  0  0  0
  2 11  1  0  0  0  0
  3 16  1  0  0  0  0
  3 10  1  0  0  0  0
  4  7  1  0  0  0  0
  4  8  1  0  0  0  0
  7  9  1  0  0  0  0
  8  1  2  0  0  0  0
  9  5  2  0  0  0  0
 11 10  1  0  0  0  0
 11  7  2  0  0  0  0
 12  2  2  0  0  0  0
 12 15  1  0  0  0  0
 13 35  1  1  0  0  0
 13 14  1  0  0  0  0
 13  2  1  0  0  0  0
 14  3  2  0  0  0  0
 15  4  2  0  0  0  0
 16 17  1  6  0  0  0
 16 18  1  0  0  0  0
 18 19  1  0  0  0  0
 19 21  1  0  0  0  0
 19 20  1  0  0  0  0
 22 21  1  6  0  0  0
 23 25  1  0  0  0  0
 24 22  1  0  0  0  0
 25 22  1  0  0  0  0
 25 28  1  1  0  0  0
 26 23  1  0  0  0  0
 26 24  2  0  0  0  0
 27 33  1  0  0  0  0
 28 34  2  0  0  0  0
 28 27  1  0  0  0  0
 30 31  1  0  0  0  0
 30 32  1  0  0  0  0
 31 29  1  0  0  0  0
 32 27  1  0  0  0  0
 33 29  1  0  0  0  0
 36 39  1  0  0  0  0
 37 41  1  0  0  0  0
 37 36  2  0  0  0  0
 38 40  1  0  0  0  0
 39 40  2  0  0  0  0
 40 35  1  0  0  0  0
 41 38  2  0  0  0  0
 42 43  1  0  0  0  0
 43 37  1  0  0  0  0
M  END
>  <MODEL>
5

>  <REMARK>
 VINA RESULT:      -7.2      2.114      2.485
  Name = 
  9 active torsions:
  status: ('A' for Active; 'I' for Inactive)
    1  A    between atoms: C_1  and  C_34
    2  A    between atoms: C_1  and  C_35
    3  A    between atoms: C_2  and  C_6
    4  A    between atoms: C_2  and  C_13
    5  A    between atoms: C_3  and  C_4
    6  A    between atoms: C_3  and  N_12
    7  A    between atoms: C_6  and  N_12
    8  A    between atoms: C_14  and  C_22
    9  A    between atoms: C_19  and  O_37
                            x       y       z     vdW  Elec       q    Type
                         _______ _______ _______ _____ _____    ______ ____

>  <TORSDO>
F 9

$$$$
=
 OpenBabel11052420433D

 43 48  0  0  1  0  0  0  0  0999 V2000
  184.6840  178.2090  143.6730 C   0  0  0  0  0  0  0  0  0  0  0  0
  188.4120  176.3640  146.5010 C   0  0  0  0  0  0  0  0  0  0  0  0
  189.6740  174.3550  144.9870 C   0  0  0  0  0  0  0  0  0  0  0  0
  186.2230  177.7380  145.4800 C   0  0  0  0  0  0  0  0  0  0  0  0
  185.3460  177.2790  142.8650 C   0  0  0  0  0  3  0  0  0  0  0  0
  183.5120  178.9510  143.1420 C   0  0  0  0  0  1  0  0  0  0  0  0
  186.8960  176.8010  144.6670 C   0  0  0  0  0  0  0  0  0  0  0  0
  185.1210  178.4380  144.9820 C   0  0  0  0  0  3  0  0  0  0  0  0
  186.4490  176.5750  143.3590 C   0  0  0  0  0  3  0  0  0  0  0  0
  188.6640  175.1440  144.4280 O   0  0  0  0  0  0  0  0  0  0  0  0
  187.9950  176.1050  145.1870 C   0  0  0  0  0  0  0  0  0  0  0  0
  187.7440  177.2750  147.2610 N   0  0  0  0  0  0  0  0  0  0  0  0
  189.6350  175.6800  147.0480 C   0  0  1  0  0  3  0  0  0  0  0  0
  190.0940  174.5740  146.1970 N   0  0  0  0  0  0  0  0  0  0  0  0
  186.6680  177.9570  146.7850 C   0  0  0  0  0  3  0  0  0  0  0  0
  190.2800  173.2470  144.1950 C   0  0  1  0  0  3  0  0  0  0  0  0
  189.6910  171.9140  144.6230 C   0  0  0  0  0  1  0  0  0  0  0  0
  190.0350  173.4850  142.7140 C   0  0  0  0  0  2  0  0  0  0  0  0
  191.1840  173.0500  141.9280 N   0  0  0  0  0  0  0  0  0  0  0  0
  191.7700  174.2160  141.2790 C   0  0  0  0  0  1  0  0  0  0  0  0
  190.7600  172.0810  140.9090 C   0  0  0  0  0  2  0  0  0  0  0  0
  191.6360  170.8250  140.8400 C   0  0  2  0  0  3  0  0  0  0  0  0
  191.9620  169.1730  142.5820 C   0  0  0  0  0  2  0  0  0  0  0  0
  190.8220  169.6590  140.6380 N   0  0  0  0  0  0  0  0  0  0  0  0
  192.3190  170.6010  142.1840 C   0  0  1  0  0  3  0  0  0  0  0  0
  190.9780  168.7750  141.5440 C   0  0  0  0  0  3  0  0  0  0  0  0
  194.5230  171.5710  143.0230 N   0  0  0  0  0  0  0  0  0  0  0  0
  193.8040  170.7760  142.0660 C   0  0  0  0  0  0  0  0  0  0  0  0
  196.7230  172.6060  144.3040 S   0  0  0  0  0  0  0  0  0  0  0  0
  194.3370  171.7810  145.4790 C   0  0  0  0  0  2  0  0  0  0  0  0
  195.8490  171.5410  145.4990 C   0  0  0  0  0  2  0  0  0  0  0  0
  193.8070  172.2300  144.1160 C   0  0  0  0  0  2  0  0  0  0  0  0
  195.9740  171.7370  142.8770 C   0  0  0  0  0  2  0  0  0  0  0  0
  194.4210  170.2260  141.1130 O   0  0  0  0  0  0  0  0  0  0  0  0
  190.7550  176.7030  147.2120 C   0  0  0  0  0  2  0  0  0  0  0  0
  194.0160  175.4950  145.7080 C   0  0  0  0  0  3  0  0  0  0  0  0
  193.9450  176.0230  144.4140 C   0  0  0  0  0  0  0  0  0  0  0  0
  191.7800  176.9910  144.9440 C   0  0  0  0  0  3  0  0  0  0  0  0
  192.9760  175.7130  146.6170 C   0  0  0  0  0  3  0  0  0  0  0  0
  191.8550  176.4580  146.2350 C   0  0  0  0  0  0  0  0  0  0  0  0
  192.8190  176.7730  144.0350 C   0  0  0  0  0  3  0  0  0  0  0  0
  196.2340  176.4890  143.6000 C   0  0  0  0  0  1  0  0  0  0  0  0
  195.0010  175.7870  143.5290 O   0  0  0  0  0  0  0  0  0  0  0  0
  1  8  1  0  0  0  0
  2 13  1  0  0  0  0
  2 12  1  0  0  0  0
  3 14  2  0  0  0  0
  4 15  1  0  0  0  0
  5  9  1  0  0  0  0
  5  1  2  0  0  0  0
  6  1  1  0  0  0  0
  7 11  1  0  0  0  0
  7  4  1  0  0  0  0
  8  4  2  0  0  0  0
  9  7  2  0  0  0  0
 10  3  1  0  0  0  0
 10 11  1  0  0  0  0
 11  2  2  0  0  0  0
 13 35  1  6  0  0  0
 14 13  1  0  0  0  0
 15 12  2  0  0  0  0
 16 17  1  1  0  0  0
 16  3  1  0  0  0  0
 18 16  1  0  0  0  0
 19 18  1  0  0  0  0
 20 19  1  0  0  0  0
 21 19  1  0  0  0  0
 22 21  1  1  0  0  0
 22 25  1  0  0  0  0
 24 22  1  0  0  0  0
 24 26  2  0  0  0  0
 25 28  1  6  0  0  0
 25 23  1  0  0  0  0
 26 23  1  0  0  0  0
 27 32  1  0  0  0  0
 28 27  1  0  0  0  0
 29 31  1  0  0  0  0
 30 31  1  0  0  0  0
 32 30  1  0  0  0  0
 33 27  1  0  0  0  0
 33 29  1  0  0  0  0
 34 28  2  0  0  0  0
 36 39  1  0  0  0  0
 37 36  2  0  0  0  0
 38 40  1  0  0  0  0
 40 39  2  0  0  0  0
 40 35  1  0  0  0  0
 41 37  1  0  0  0  0
 41 38  2  0  0  0  0
 43 42  1  0  0  0  0
 43 37  1  0  0  0  0
M  END
>  <MODEL>
6

>  <REMARK>
 VINA RESULT:      -7.2      2.131      4.879
  Name = 
  9 active torsions:
  status: ('A' for Active; 'I' for Inactive)
    1  A    between atoms: C_1  and  C_34
    2  A    between atoms: C_1  and  C_35
    3  A    between atoms: C_2  and  C_6
    4  A    between atoms: C_2  and  C_13
    5  A    between atoms: C_3  and  C_4
    6  A    between atoms: C_3  and  N_12
    7  A    between atoms: C_6  and  N_12
    8  A    between atoms: C_14  and  C_22
    9  A    between atoms: C_19  and  O_37
                            x       y       z     vdW  Elec       q    Type
                         _______ _______ _______ _____ _____    ______ ____

>  <TORSDO>
F 9

$$$$
=
 OpenBabel11052420433D

 43 48  0  0  1  0  0  0  0  0999 V2000
  191.2010  171.9940  136.3490 C   0  0  0  0  0  0  0  0  0  0  0  0
  188.8160  174.0300  140.2800 C   0  0  0  0  0  0  0  0  0  0  0  0
  190.1360  173.1290  142.5980 C   0  0  0  0  0  0  0  0  0  0  0  0
  189.6530  173.2000  137.7650 C   0  0  0  0  0  0  0  0  0  0  0  0
  191.9300  171.6020  137.4760 C   0  0  0  0  0  3  0  0  0  0  0  0
  191.6350  171.5580  134.9960 C   0  0  0  0  0  1  0  0  0  0  0  0
  190.3870  172.8090  138.9050 C   0  0  0  0  0  0  0  0  0  0  0  0
  190.0610  172.7910  136.4920 C   0  0  0  0  0  3  0  0  0  0  0  0
  191.5250  172.0070  138.7520 C   0  0  0  0  0  3  0  0  0  0  0  0
  190.6360  172.8280  141.3270 O   0  0  0  0  0  0  0  0  0  0  0  0
  189.9580  173.2230  140.1720 C   0  0  0  0  0  0  0  0  0  0  0  0
  188.1290  174.3920  139.1620 N   0  0  0  0  0  0  0  0  0  0  0  0
  188.3860  174.5450  141.6270 C   0  0  1  0  0  3  0  0  0  0  0  0
  189.0860  173.8830  142.7360 N   0  0  0  0  0  0  0  0  0  0  0  0
  188.5170  173.9950  137.9210 C   0  0  0  0  0  3  0  0  0  0  0  0
  190.8050  172.5820  143.8120 C   0  0  1  0  0  3  0  0  0  0  0  0
  189.7680  172.2070  144.8570 C   0  0  0  0  0  1  0  0  0  0  0  0
  191.6390  171.3690  143.4320 C   0  0  0  0  0  2  0  0  0  0  0  0
  193.0310  171.7500  143.2210 N   0  0  0  0  0  0  0  0  0  0  0  0
  193.7830  170.5630  142.8350 C   0  0  0  0  0  1  0  0  0  0  0  0
  193.5930  172.3090  144.4570 C   0  0  0  0  0  2  0  0  0  0  0  0
  194.1970  173.7080  144.2910 C   0  0  2  0  0  3  0  0  0  0  0  0
  194.9060  175.2110  146.0540 C   0  0  0  0  0  2  0  0  0  0  0  0
  195.6170  173.6660  144.4980 N   0  0  0  0  0  0  0  0  0  0  0  0
  193.6660  174.6290  145.3840 C   0  0  1  0  0  3  0  0  0  0  0  0
  196.0140  174.4510  145.4220 C   0  0  0  0  0  3  0  0  0  0  0  0
  191.5020  175.9770  145.3450 N   0  0  0  0  0  0  0  0  0  0  0  0
  192.8050  175.7110  144.8010 C   0  0  0  0  0  0  0  0  0  0  0  0
  189.1500  177.3500  145.7110 S   0  0  0  0  0  0  0  0  0  0  0  0
  190.6600  176.0680  147.6670 C   0  0  0  0  0  2  0  0  0  0  0  0
  190.0740  177.4280  147.2800 C   0  0  0  0  0  2  0  0  0  0  0  0
  190.9980  175.1830  146.4650 C   0  0  0  0  0  2  0  0  0  0  0  0
  190.6750  177.0320  144.7480 C   0  0  0  0  0  2  0  0  0  0  0  0
  193.2290  176.3830  143.8210 O   0  0  0  0  0  0  0  0  0  0  0  0
  188.6250  176.0500  141.6930 C   0  0  0  0  0  2  0  0  0  0  0  0
  186.1700  178.7670  142.6640 C   0  0  0  0  0  3  0  0  0  0  0  0
  185.3300  178.0880  143.5520 C   0  0  0  0  0  0  0  0  0  0  0  0
  186.6390  176.0670  143.2200 C   0  0  0  0  0  3  0  0  0  0  0  0
  187.2400  178.1030  142.0550 C   0  0  0  0  0  3  0  0  0  0  0  0
  187.4730  176.7510  142.3310 C   0  0  0  0  0  0  0  0  0  0  0  0
  185.5700  176.7310  143.8280 C   0  0  0  0  0  3  0  0  0  0  0  0
  184.1660  178.9720  145.5470 C   0  0  0  0  0  1  0  0  0  0  0  0
  184.2700  178.7800  144.1440 O   0  0  0  0  0  0  0  0  0  0  0  0
  1  8  2  0  0  0  0
  1  5  1  0  0  0  0
  2 13  1  0  0  0  0
  3 14  2  0  0  0  0
  3 16  1  0  0  0  0
  4 15  2  0  0  0  0
  4  7  1  0  0  0  0
  5  9  2  0  0  0  0
  6  1  1  0  0  0  0
  7 11  2  0  0  0  0
  8  4  1  0  0  0  0
  9  7  1  0  0  0  0
 10  3  1  0  0  0  0
 11  2  1  0  0  0  0
 11 10  1  0  0  0  0
 12  2  2  0  0  0  0
 13 35  1  6  0  0  0
 13 14  1  0  0  0  0
 15 12  1  0  0  0  0
 16 17  1  1  0  0  0
 18 16  1  0  0  0  0
 19 18  1  0  0  0  0
 19 21  1  0  0  0  0
 20 19  1  0  0  0  0
 22 21  1  1  0  0  0
 22 24  1  0  0  0  0
 22 25  1  0  0  0  0
 24 26  2  0  0  0  0
 25 28  1  6  0  0  0
 25 23  1  0  0  0  0
 26 23  1  0  0  0  0
 27 32  1  0  0  0  0
 28 27  1  0  0  0  0
 29 31  1  0  0  0  0
 31 30  1  0  0  0  0
 32 30  1  0  0  0  0
 33 27  1  0  0  0  0
 33 29  1  0  0  0  0
 34 28  2  0  0  0  0
 35 40  1  0  0  0  0
 36 37  1  0  0  0  0
 37 41  2  0  0  0  0
 37 43  1  0  0  0  0
 38 41  1  0  0  0  0
 39 40  1  0  0  0  0
 39 36  2  0  0  0  0
 40 38  2  0  0  0  0
 43 42  1  0  0  0  0
M  END
>  <MODEL>
7

>  <REMARK>
 VINA RESULT:      -7.2      2.875      7.527
  Name = 
  9 active torsions:
  status: ('A' for Active; 'I' for Inactive)
    1  A    between atoms: C_1  and  C_34
    2  A    between atoms: C_1  and  C_35
    3  A    between atoms: C_2  and  C_6
    4  A    between atoms: C_2  and  C_13
    5  A    between atoms: C_3  and  C_4
    6  A    between atoms: C_3  and  N_12
    7  A    between atoms: C_6  and  N_12
    8  A    between atoms: C_14  and  C_22
    9  A    between atoms: C_19  and  O_37
                            x       y       z     vdW  Elec       q    Type
                         _______ _______ _______ _____ _____    ______ ____

>  <TORSDO>
F 9

$$$$
=
 OpenBabel11052420433D

 43 48  0  0  1  0  0  0  0  0999 V2000
  191.5500  172.2510  136.8110 C   0  0  0  0  0  0  0  0  0  0  0  0
  188.8420  174.2820  140.5300 C   0  0  0  0  0  0  0  0  0  0  0  0
  190.0730  173.5290  142.9470 C   0  0  0  0  0  0  0  0  0  0  0  0
  189.8630  173.4170  138.0950 C   0  0  0  0  0  0  0  0  0  0  0  0
  192.2330  171.9360  137.9900 C   0  0  0  0  0  3  0  0  0  0  0  0
  192.0830  171.7970  135.5010 C   0  0  0  0  0  1  0  0  0  0  0  0
  190.5510  173.1040  139.2880 C   0  0  0  0  0  0  0  0  0  0  0  0
  190.3640  172.9900  136.8630 C   0  0  0  0  0  3  0  0  0  0  0  0
  191.7360  172.3600  139.2260 C   0  0  0  0  0  3  0  0  0  0  0  0
  190.6590  173.2150  141.7180 O   0  0  0  0  0  0  0  0  0  0  0  0
  190.0290  173.5350  140.5140 C   0  0  0  0  0  0  0  0  0  0  0  0
  188.2010  174.5700  139.3640 N   0  0  0  0  0  0  0  0  0  0  0  0
  188.3090  174.8160  141.8320 C   0  0  1  0  0  3  0  0  0  0  0  0
  188.9790  174.2290  143.0010 N   0  0  0  0  0  0  0  0  0  0  0  0
  188.6800  174.1540  138.1610 C   0  0  0  0  0  3  0  0  0  0  0  0
  190.6990  173.0590  144.2160 C   0  0  1  0  0  3  0  0  0  0  0  0
  189.6850  172.2960  145.0490 C   0  0  0  0  0  1  0  0  0  0  0  0
  191.8960  172.1770  143.8970 C   0  0  0  0  0  2  0  0  0  0  0  0
  193.1410  172.9030  144.1200 N   0  0  0  0  0  0  0  0  0  0  0  0
  194.2020  171.9360  144.3720 C   0  0  0  0  0  1  0  0  0  0  0  0
  193.0020  173.7950  145.2780 C   0  0  0  0  0  2  0  0  0  0  0  0
  193.3180  175.2640  144.9740 C   0  0  2  0  0  3  0  0  0  0  0  0
  192.5840  176.5490  143.0560 C   0  0  0  0  0  2  0  0  0  0  0  0
  192.1850  176.0910  145.2810 N   0  0  0  0  0  0  0  0  0  0  0  0
  193.5430  175.4410  143.4770 C   0  0  1  0  0  3  0  0  0  0  0  0
  191.7810  176.7790  144.2840 C   0  0  0  0  0  3  0  0  0  0  0  0
  195.6860  175.1860  142.1190 N   0  0  0  0  0  0  0  0  0  0  0  0
  194.9670  175.8180  143.1900 C   0  0  0  0  0  0  0  0  0  0  0  0
  197.7460  174.8000  140.3420 S   0  0  0  0  0  0  0  0  0  0  0  0
  195.0220  174.5430  139.8260 C   0  0  0  0  0  2  0  0  0  0  0  0
  196.2800  175.2900  139.3750 C   0  0  0  0  0  2  0  0  0  0  0  0
  195.0390  174.1570  141.3070 C   0  0  0  0  0  2  0  0  0  0  0  0
  197.0820  175.5630  141.8680 C   0  0  0  0  0  2  0  0  0  0  0  0
  195.5350  176.6910  143.9030 O   0  0  0  0  0  0  0  0  0  0  0  0
  188.4650  176.3330  141.8580 C   0  0  0  0  0  2  0  0  0  0  0  0
  185.2250  177.5440  143.4030 C   0  0  0  0  0  3  0  0  0  0  0  0
  185.6810  178.1610  144.5730 C   0  0  0  0  0  0  0  0  0  0  0  0
  187.9630  177.5760  143.9740 C   0  0  0  0  0  3  0  0  0  0  0  0
  186.1310  176.9450  142.5220 C   0  0  0  0  0  3  0  0  0  0  0  0
  187.5000  176.9580  142.8090 C   0  0  0  0  0  0  0  0  0  0  0  0
  187.0570  178.1750  144.8550 C   0  0  0  0  0  3  0  0  0  0  0  0
  184.4290  178.2070  146.7060 C   0  0  0  0  0  1  0  0  0  0  0  0
  184.7500  178.7510  145.4330 O   0  0  0  0  0  0  0  0  0  0  0  0
  1  8  2  0  0  0  0
  1  5  1  0  0  0  0
  2 13  1  0  0  0  0
  3 14  2  0  0  0  0
  3 16  1  0  0  0  0
  4 15  2  0  0  0  0
  4  7  1  0  0  0  0
  5  9  2  0  0  0  0
  6  1  1  0  0  0  0
  7 11  2  0  0  0  0
  8  4  1  0  0  0  0
  9  7  1  0  0  0  0
 10  3  1  0  0  0  0
 11  2  1  0  0  0  0
 11 10  1  0  0  0  0
 12  2  2  0  0  0  0
 13 35  1  6  0  0  0
 13 14  1  0  0  0  0
 15 12  1  0  0  0  0
 16 17  1  6  0  0  0
 18 19  1  0  0  0  0
 18 16  1  0  0  0  0
 19 20  1  0  0  0  0
 19 21  1  0  0  0  0
 22 21  1  6  0  0  0
 22 24  1  0  0  0  0
 23 25  1  0  0  0  0
 23 26  1  0  0  0  0
 25 28  1  1  0  0  0
 25 22  1  0  0  0  0
 26 24  2  0  0  0  0
 27 28  1  0  0  0  0
 28 34  2  0  0  0  0
 29 33  1  0  0  0  0
 30 32  1  0  0  0  0
 31 30  1  0  0  0  0
 31 29  1  0  0  0  0
 32 27  1  0  0  0  0
 33 27  1  0  0  0  0
 35 40  1  0  0  0  0
 36 37  1  0  0  0  0
 37 41  2  0  0  0  0
 37 43  1  0  0  0  0
 38 41  1  0  0  0  0
 39 40  1  0  0  0  0
 39 36  2  0  0  0  0
 40 38  2  0  0  0  0
 43 42  1  0  0  0  0
M  END
>  <MODEL>
8

>  <REMARK>
 VINA RESULT:      -7.2      2.705      7.198
  Name = 
  9 active torsions:
  status: ('A' for Active; 'I' for Inactive)
    1  A    between atoms: C_1  and  C_34
    2  A    between atoms: C_1  and  C_35
    3  A    between atoms: C_2  and  C_6
    4  A    between atoms: C_2  and  C_13
    5  A    between atoms: C_3  and  C_4
    6  A    between atoms: C_3  and  N_12
    7  A    between atoms: C_6  and  N_12
    8  A    between atoms: C_14  and  C_22
    9  A    between atoms: C_19  and  O_37
                            x       y       z     vdW  Elec       q    Type
                         _______ _______ _______ _____ _____    ______ ____

>  <TORSDO>
F 9

$$$$
=
 OpenBabel11052420433D

 43 48  0  0  1  0  0  0  0  0999 V2000
  185.1790  177.9930  145.7150 C   0  0  0  0  0  0  0  0  0  0  0  0
  189.8170  176.1020  145.2570 C   0  0  0  0  0  0  0  0  0  0  0  0
  189.8820  174.6650  142.8380 C   0  0  0  0  0  0  0  0  0  0  0  0
  187.4820  177.3530  146.0950 C   0  0  0  0  0  0  0  0  0  0  0  0
  185.2080  177.3620  144.4670 C   0  0  0  0  0  3  0  0  0  0  0  0
  183.9390  178.6670  146.1780 C   0  0  0  0  0  1  0  0  0  0  0  0
  187.5170  176.7180  144.8350 C   0  0  0  0  0  0  0  0  0  0  0  0
  186.3160  177.9880  146.5310 C   0  0  0  0  0  3  0  0  0  0  0  0
  186.3720  176.7250  144.0270 C   0  0  0  0  0  3  0  0  0  0  0  0
  188.7560  175.4110  143.1960 O   0  0  0  0  0  0  0  0  0  0  0  0
  188.6930  176.0820  144.4190 C   0  0  0  0  0  0  0  0  0  0  0  0
  189.7550  176.7240  146.4670 N   0  0  0  0  0  0  0  0  0  0  0  0
  191.1100  175.4890  144.7930 C   0  0  1  0  0  3  0  0  0  0  0  0
  190.9460  174.6690  143.5850 N   0  0  0  0  0  0  0  0  0  0  0  0
  188.6220  177.3400  146.9000 C   0  0  0  0  0  3  0  0  0  0  0  0
  189.8720  173.8500  141.5900 C   0  0  1  0  0  3  0  0  0  0  0  0
  188.7410  174.2980  140.6810 C   0  0  0  0  0  1  0  0  0  0  0  0
  191.2100  173.9890  140.8800 C   0  0  0  0  0  2  0  0  0  0  0  0
  191.7980  172.6770  140.6360 N   0  0  0  0  0  0  0  0  0  0  0  0
  191.4860  172.2760  139.2700 C   0  0  0  0  0  1  0  0  0  0  0  0
  191.2440  171.6940  141.5760 C   0  0  0  0  0  2  0  0  0  0  0  0
  192.2820  171.0830  142.5240 C   0  0  2  0  0  3  0  0  0  0  0  0
  193.9120  172.2710  143.8670 C   0  0  0  0  0  2  0  0  0  0  0  0
  191.8570  171.2240  143.8880 N   0  0  0  0  0  0  0  0  0  0  0  0
  193.5850  171.8690  142.4320 C   0  0  1  0  0  3  0  0  0  0  0  0
  192.7010  171.8470  144.6150 C   0  0  0  0  0  3  0  0  0  0  0  0
  195.5510  171.5680  140.8370 N   0  0  0  0  0  0  0  0  0  0  0  0
  194.6780  171.0280  141.8420 C   0  0  0  0  0  0  0  0  0  0  0  0
  197.7290  171.6530  139.1640 S   0  0  0  0  0  0  0  0  0  0  0  0
  196.6350  173.7760  140.5930 C   0  0  0  0  0  2  0  0  0  0  0  0
  197.9320  172.9900  140.3870 C   0  0  0  0  0  2  0  0  0  0  0  0
  195.3720  172.9420  140.3700 C   0  0  0  0  0  2  0  0  0  0  0  0
  196.6040  170.7200  140.2670 C   0  0  0  0  0  2  0  0  0  0  0  0
  194.8220  169.8350  142.2280 O   0  0  0  0  0  0  0  0  0  0  0  0
  192.1290  176.5940  144.5310 C   0  0  0  0  0  2  0  0  0  0  0  0
  195.6040  175.5440  143.4480 C   0  0  0  0  0  3  0  0  0  0  0  0
  196.1320  175.0360  144.6400 C   0  0  0  0  0  0  0  0  0  0  0  0
  194.0430  175.5530  145.7680 C   0  0  0  0  0  3  0  0  0  0  0  0
  194.3020  176.0560  143.4140 C   0  0  0  0  0  3  0  0  0  0  0  0
  193.5220  176.0630  144.5750 C   0  0  0  0  0  0  0  0  0  0  0  0
  195.3430  175.0420  145.8020 C   0  0  0  0  0  3  0  0  0  0  0  0
  197.7260  173.1520  144.4700 C   0  0  0  0  0  1  0  0  0  0  0  0
  197.4360  174.5320  144.6410 O   0  0  0  0  0  0  0  0  0  0  0  0
  1  6  1  0  0  0  0
  1  8  1  0  0  0  0
  2 12  1  0  0  0  0
  3 10  1  0  0  0  0
  3 14  2  0  0  0  0
  4  8  2  0  0  0  0
  4 15  1  0  0  0  0
  5  1  2  0  0  0  0
  7  4  1  0  0  0  0
  9  5  1  0  0  0  0
  9  7  2  0  0  0  0
 10 11  1  0  0  0  0
 11  7  1  0  0  0  0
 11  2  2  0  0  0  0
 12 15  2  0  0  0  0
 13 35  1  6  0  0  0
 13  2  1  0  0  0  0
 14 13  1  0  0  0  0
 16 17  1  6  0  0  0
 16  3  1  0  0  0  0
 18 16  1  0  0  0  0
 19 18  1  0  0  0  0
 19 21  1  0  0  0  0
 20 19  1  0  0  0  0
 22 21  1  6  0  0  0
 22 24  1  0  0  0  0
 23 26  1  0  0  0  0
 24 26  2  0  0  0  0
 25 28  1  1  0  0  0
 25 22  1  0  0  0  0
 25 23  1  0  0  0  0
 27 28  1  0  0  0  0
 28 34  2  0  0  0  0
 29 33  1  0  0  0  0
 29 31  1  0  0  0  0
 31 30  1  0  0  0  0
 32 30  1  0  0  0  0
 32 27  1  0  0  0  0
 33 27  1  0  0  0  0
 35 40  1  0  0  0  0
 36 37  1  0  0  0  0
 37 43  1  0  0  0  0
 37 41  2  0  0  0  0
 38 41  1  0  0  0  0
 39 36  2  0  0  0  0
 39 40  1  0  0  0  0
 40 38  2  0  0  0  0
 42 43  1  0  0  0  0
M  END
>  <MODEL>
9

>  <REMARK>
 VINA RESULT:      -7.2      2.377      5.208
  Name = 
  9 active torsions:
  status: ('A' for Active; 'I' for Inactive)
    1  A    between atoms: C_1  and  C_34
    2  A    between atoms: C_1  and  C_35
    3  A    between atoms: C_2  and  C_6
    4  A    between atoms: C_2  and  C_13
    5  A    between atoms: C_3  and  C_4
    6  A    between atoms: C_3  and  N_12
    7  A    between atoms: C_6  and  N_12
    8  A    between atoms: C_14  and  C_22
    9  A    between atoms: C_19  and  O_37
                            x       y       z     vdW  Elec       q    Type
                         _______ _______ _______ _____ _____    ______ ____

>  <TORSDO>
F 9

$$$$
