=
 OpenBabel11052417523D

 31 35  0  0  1  0  0  0  0  0999 V2000
  185.7770  178.1850  146.4280 C   0  0  0  0  0  0  0  0  0  0  0  0
  188.6580  176.1460  145.1000 N   0  0  0  0  0  0  0  0  0  0  0  0
  189.8370  176.0840  145.8920 C   0  0  0  0  0  0  0  0  0  0  0  0
  191.2710  176.6000  147.6780 C   0  0  0  0  0  0  0  0  0  0  0  0
  187.6210  177.1740  145.1290 C   0  0  2  0  0  3  0  0  0  0  0  0
  185.0580  178.3950  145.3140 C   0  0  0  0  0  3  0  0  0  0  0  0
  190.0470  176.7050  147.0810 N   0  0  0  0  0  2  0  0  0  0  0  0
  188.2550  175.5000  142.8170 C   0  0  0  0  0  0  0  0  0  0  0  0
  185.5450  179.0400  147.6260 C   0  0  0  0  0  1  0  0  0  0  0  0
  191.2480  174.5550  142.8750 C   0  0  0  0  0  1  0  0  0  0  0  0
  191.4740  177.1560  148.7880 O   0  0  0  0  0  0  0  0  0  0  0  0
  186.9600  176.2140  142.9230 C   0  0  0  0  0  3  0  0  0  0  0  0
  189.0500  175.4820  143.8960 C   0  0  0  0  0  0  0  0  0  0  0  0
  186.8660  177.1500  146.4550 C   0  0  0  0  0  2  0  0  0  0  0  0
  192.3120  175.8780  147.0550 C   0  0  0  0  0  3  0  0  0  0  0  0
  186.6380  176.9620  143.9890 C   0  0  0  0  0  0  0  0  0  0  0  0
  185.2700  177.5880  144.0540 C   0  0  0  0  0  2  0  0  0  0  0  0
  190.3760  174.9260  143.9780 N   0  0  0  0  0  0  0  0  0  0  0  0
  190.8230  175.3760  145.2550 C   0  0  0  0  0  0  0  0  0  0  0  0
  192.0940  175.2600  145.8130 C   0  0  0  0  0  3  0  0  0  0  0  0
  187.5660  172.7770  141.9880 O   0  0  0  0  0  0  0  0  0  0  0  0
  188.2950  173.4760  141.2360 C   0  0  0  0  0  0  0  0  0  0  0  0
  188.6440  174.8170  141.6160 N   0  0  0  0  0  2  0  0  0  0  0  0
  189.6640  172.0110  137.4300 C   0  0  0  0  0  0  0  0  0  0  0  0
  188.3040  173.4970  138.7620 C   0  0  0  0  0  3  0  0  0  0  0  0
  190.4680  171.0870  141.2490 Cl  0  0  0  0  0  0  0  0  0  0  0  0
  190.0780  171.5670  136.2200 F   0  0  0  0  0  0  0  0  0  0  0  0
  188.7290  173.0420  137.5130 C   0  0  0  0  0  3  0  0  0  0  0  0
  189.7530  171.8850  139.8540 C   0  0  0  0  0  0  0  0  0  0  0  0
  188.8010  172.9340  139.9490 C   0  0  0  0  0  0  0  0  0  0  0  0
  190.1720  171.4370  138.5960 C   0  0  0  0  0  3  0  0  0  0  0  0
  1 14  1  0  0  0  0
  1  9  1  0  0  0  0
  2  5  1  0  0  0  0
  2  3  1  0  0  0  0
  3  7  1  0  0  0  0
  4 11  2  0  0  0  0
  5 14  1  1  0  0  0
  6  1  2  0  0  0  0
  7  4  1  0  0  0  0
  8 12  1  0  0  0  0
  8 13  2  0  0  0  0
 10 18  1  0  0  0  0
 12 16  2  0  0  0  0
 13 18  1  0  0  0  0
 13  2  1  0  0  0  0
 15  4  1  0  0  0  0
 16 17  1  0  0  0  0
 16  5  1  0  0  0  0
 17  6  1  0  0  0  0
 18 19  1  0  0  0  0
 19 20  1  0  0  0  0
 19  3  2  0  0  0  0
 20 15  2  0  0  0  0
 22 23  1  0  0  0  0
 22 21  2  0  0  0  0
 23  8  1  0  0  0  0
 24 28  2  0  0  0  0
 24 31  1  0  0  0  0
 25 30  2  0  0  0  0
 27 24  1  0  0  0  0
 28 25  1  0  0  0  0
 29 30  1  0  0  0  0
 29 26  1  0  0  0  0
 30 22  1  0  0  0  0
 31 29  2  0  0  0  0
M  END
>  <MODEL>
1

>  <REMARK>
 VINA RESULT:      -8.6      0.000      0.000
  Name = 
  2 active torsions:
  status: ('A' for Active; 'I' for Inactive)
    1  A    between atoms: C_9  and  C_22
    2  A    between atoms: C_15  and  N_23
                            x       y       z     vdW  Elec       q    Type
                         _______ _______ _______ _____ _____    ______ ____

>  <TORSDO>
F 2

$$$$
=
 OpenBabel11052417523D

 31 35  0  0  1  0  0  0  0  0999 V2000
  194.8010  174.6640  145.8390 C   0  0  0  0  0  0  0  0  0  0  0  0
  191.4740  174.1520  144.1380 N   0  0  0  0  0  0  0  0  0  0  0  0
  191.3680  173.0750  143.2160 C   0  0  0  0  0  0  0  0  0  0  0  0
  192.1040  171.2750  141.9010 C   0  0  0  0  0  0  0  0  0  0  0  0
  192.6890  174.8400  144.5650 C   0  0  2  0  0  3  0  0  0  0  0  0
  194.6990  175.9360  146.2540 C   0  0  0  0  0  3  0  0  0  0  0  0
  192.3550  172.2130  142.8630 N   0  0  0  0  0  2  0  0  0  0  0  0
  190.0120  176.0180  144.5600 C   0  0  0  0  0  0  0  0  0  0  0  0
  196.1410  174.0190  145.7630 C   0  0  0  0  0  1  0  0  0  0  0  0
  188.1800  174.6830  142.3890 C   0  0  0  0  0  1  0  0  0  0  0  0
  193.0040  170.4580  141.5760 O   0  0  0  0  0  0  0  0  0  0  0  0
  191.1120  176.5980  145.3690 C   0  0  0  0  0  3  0  0  0  0  0  0
  190.2230  174.8260  143.9830 C   0  0  0  0  0  0  0  0  0  0  0  0
  193.5870  173.9090  145.3750 C   0  0  0  0  0  2  0  0  0  0  0  0
  190.8450  171.2210  141.2650 C   0  0  0  0  0  3  0  0  0  0  0  0
  192.3380  176.0550  145.4090 C   0  0  0  0  0  0  0  0  0  0  0  0
  193.3730  176.6590  146.3190 C   0  0  0  0  0  2  0  0  0  0  0  0
  189.3280  174.1330  143.0920 N   0  0  0  0  0  0  0  0  0  0  0  0
  190.1330  173.0550  142.6200 C   0  0  0  0  0  0  0  0  0  0  0  0
  189.8380  172.1330  141.6190 C   0  0  0  0  0  3  0  0  0  0  0  0
  187.7670  176.0430  146.4390 O   0  0  0  0  0  0  0  0  0  0  0  0
  187.6600  176.6740  145.3540 C   0  0  0  0  0  0  0  0  0  0  0  0
  188.7490  176.6820  144.4180 N   0  0  0  0  0  2  0  0  0  0  0  0
  184.0660  178.7670  144.2580 C   0  0  0  0  0  0  0  0  0  0  0  0
  185.8730  177.2500  143.7440 C   0  0  0  0  0  3  0  0  0  0  0  0
  186.3150  178.5970  147.5730 Cl  0  0  0  0  0  0  0  0  0  0  0  0
  182.9360  179.4160  143.8880 F   0  0  0  0  0  0  0  0  0  0  0  0
  184.7080  177.9160  143.3600 C   0  0  0  0  0  3  0  0  0  0  0  0
  185.7560  178.2880  145.9350 C   0  0  0  0  0  0  0  0  0  0  0  0
  186.4180  177.4200  145.0270 C   0  0  0  0  0  0  0  0  0  0  0  0
  184.5890  178.9510  145.5370 C   0  0  0  0  0  3  0  0  0  0  0  0
  1  6  2  0  0  0  0
  2  5  1  0  0  0  0
  3  2  1  0  0  0  0
  4  7  1  0  0  0  0
  5 14  1  1  0  0  0
  5 16  1  0  0  0  0
  6 17  1  0  0  0  0
  7  3  1  0  0  0  0
  8 12  1  0  0  0  0
  9  1  1  0  0  0  0
 10 18  1  0  0  0  0
 11  4  2  0  0  0  0
 12 16  2  0  0  0  0
 13  2  1  0  0  0  0
 13  8  2  0  0  0  0
 14  1  1  0  0  0  0
 15 20  2  0  0  0  0
 15  4  1  0  0  0  0
 16 17  1  0  0  0  0
 18 13  1  0  0  0  0
 19 18  1  0  0  0  0
 19  3  2  0  0  0  0
 20 19  1  0  0  0  0
 22 21  2  0  0  0  0
 23  8  1  0  0  0  0
 23 22  1  0  0  0  0
 24 31  1  0  0  0  0
 25 30  2  0  0  0  0
 27 24  1  0  0  0  0
 28 25  1  0  0  0  0
 28 24  2  0  0  0  0
 29 26  1  0  0  0  0
 30 22  1  0  0  0  0
 30 29  1  0  0  0  0
 31 29  2  0  0  0  0
M  END
>  <MODEL>
2

>  <REMARK>
 VINA RESULT:      -8.4      3.786      7.602
  Name = 
  2 active torsions:
  status: ('A' for Active; 'I' for Inactive)
    1  A    between atoms: C_9  and  C_22
    2  A    between atoms: C_15  and  N_23
                            x       y       z     vdW  Elec       q    Type
                         _______ _______ _______ _____ _____    ______ ____

>  <TORSDO>
F 2

$$$$
=
 OpenBabel11052417523D

 31 35  0  0  1  0  0  0  0  0999 V2000
  185.7910  178.0140  145.9980 C   0  0  0  0  0  0  0  0  0  0  0  0
  188.7250  175.9750  144.7930 N   0  0  0  0  0  0  0  0  0  0  0  0
  189.8670  175.9080  145.6360 C   0  0  0  0  0  0  0  0  0  0  0  0
  191.2220  176.4160  147.4850 C   0  0  0  0  0  0  0  0  0  0  0  0
  187.6890  177.0040  144.7780 C   0  0  2  0  0  3  0  0  0  0  0  0
  185.1220  178.2290  144.8540 C   0  0  0  0  0  3  0  0  0  0  0  0
  190.0260  176.5250  146.8340 N   0  0  0  0  0  2  0  0  0  0  0  0
  188.4220  175.3350  142.4920 C   0  0  0  0  0  0  0  0  0  0  0  0
  185.5080  178.8660  147.1870 C   0  0  0  0  0  1  0  0  0  0  0  0
  191.4080  174.3850  142.6790 C   0  0  0  0  0  1  0  0  0  0  0  0
  191.3770  176.9680  148.6040 O   0  0  0  0  0  0  0  0  0  0  0  0
  187.1240  176.0510  142.5430 C   0  0  0  0  0  3  0  0  0  0  0  0
  189.1680  175.3130  143.6050 C   0  0  0  0  0  0  0  0  0  0  0  0
  186.8760  176.9770  146.0700 C   0  0  0  0  0  2  0  0  0  0  0  0
  192.2880  175.6940  146.9060 C   0  0  0  0  0  3  0  0  0  0  0  0
  186.7560  176.7970  143.5960 C   0  0  0  0  0  0  0  0  0  0  0  0
  185.3880  177.4250  143.6030 C   0  0  0  0  0  2  0  0  0  0  0  0
  190.4880  174.7540  143.7440 N   0  0  0  0  0  0  0  0  0  0  0  0
  190.8790  175.2000  145.0400 C   0  0  0  0  0  0  0  0  0  0  0  0
  192.1240  175.0800  145.6530 C   0  0  0  0  0  3  0  0  0  0  0  0
  187.6270  172.6840  141.5350 O   0  0  0  0  0  0  0  0  0  0  0  0
  188.4590  173.3490  140.8630 C   0  0  0  0  0  0  0  0  0  0  0  0
  188.8620  174.6550  141.3080 N   0  0  0  0  0  2  0  0  0  0  0  0
  190.1980  171.6570  137.3120 C   0  0  0  0  0  0  0  0  0  0  0  0
  189.8870  171.6940  139.7060 C   0  0  0  0  0  3  0  0  0  0  0  0
  187.7140  174.7200  138.0360 Cl  0  0  0  0  0  0  0  0  0  0  0  0
  190.7590  171.1060  136.2090 F   0  0  0  0  0  0  0  0  0  0  0  0
  190.4660  171.1240  138.5720 C   0  0  0  0  0  3  0  0  0  0  0  0
  188.7650  173.3390  138.3190 C   0  0  0  0  0  0  0  0  0  0  0  0
  189.0320  172.8030  139.6060 C   0  0  0  0  0  0  0  0  0  0  0  0
  189.3520  172.7580  137.1890 C   0  0  0  0  0  3  0  0  0  0  0  0
  1 14  1  0  0  0  0
  1  9  1  0  0  0  0
  2  3  1  0  0  0  0
  3  7  1  0  0  0  0
  4 11  2  0  0  0  0
  5  2  1  0  0  0  0
  5 14  1  1  0  0  0
  6  1  2  0  0  0  0
  7  4  1  0  0  0  0
  8 12  1  0  0  0  0
  8 13  2  0  0  0  0
 10 18  1  0  0  0  0
 12 16  2  0  0  0  0
 13 18  1  0  0  0  0
 13  2  1  0  0  0  0
 15  4  1  0  0  0  0
 16 17  1  0  0  0  0
 16  5  1  0  0  0  0
 17  6  1  0  0  0  0
 18 19  1  0  0  0  0
 19  3  2  0  0  0  0
 19 20  1  0  0  0  0
 20 15  2  0  0  0  0
 22 23  1  0  0  0  0
 22 21  2  0  0  0  0
 23  8  1  0  0  0  0
 24 28  1  0  0  0  0
 26 29  1  0  0  0  0
 27 24  1  0  0  0  0
 28 25  2  0  0  0  0
 29 30  2  0  0  0  0
 30 25  1  0  0  0  0
 30 22  1  0  0  0  0
 31 24  2  0  0  0  0
 31 29  1  0  0  0  0
M  END
>  <MODEL>
3

>  <REMARK>
 VINA RESULT:      -8.4      1.093      1.392
  Name = 
  2 active torsions:
  status: ('A' for Active; 'I' for Inactive)
    1  A    between atoms: C_9  and  C_22
    2  A    between atoms: C_15  and  N_23
                            x       y       z     vdW  Elec       q    Type
                         _______ _______ _______ _____ _____    ______ ____

>  <TORSDO>
F 2

$$$$
=
 OpenBabel11052417523D

 31 35  0  0  1  0  0  0  0  0999 V2000
  193.2170  173.0680  140.2380 C   0  0  0  0  0  0  0  0  0  0  0  0
  192.1120  175.1650  143.1720 N   0  0  0  0  0  0  0  0  0  0  0  0
  193.0530  175.3810  144.2140 C   0  0  0  0  0  0  0  0  0  0  0  0
  195.0690  175.1340  145.3920 C   0  0  0  0  0  0  0  0  0  0  0  0
  192.0970  174.0760  142.1980 C   0  0  2  0  0  3  0  0  0  0  0  0
  192.0400  172.7060  139.7050 C   0  0  0  0  0  3  0  0  0  0  0  0
  194.3170  174.8900  144.2780 N   0  0  0  0  0  2  0  0  0  0  0  0
  189.7400  175.5650  143.0790 C   0  0  0  0  0  0  0  0  0  0  0  0
  194.4510  172.3160  139.8770 C   0  0  0  0  0  1  0  0  0  0  0  0
  190.1270  176.7120  145.9750 C   0  0  0  0  0  1  0  0  0  0  0  0
  196.2480  174.7000  145.4570 O   0  0  0  0  0  0  0  0  0  0  0  0
  189.7330  174.7780  141.8220 C   0  0  0  0  0  3  0  0  0  0  0  0
  190.9140  175.7380  143.7020 C   0  0  0  0  0  0  0  0  0  0  0  0
  193.2920  174.1730  141.2540 C   0  0  0  0  0  2  0  0  0  0  0  0
  194.5300  175.8630  146.4740 C   0  0  0  0  0  3  0  0  0  0  0  0
  190.8130  174.1130  141.3850 C   0  0  0  0  0  0  0  0  0  0  0  0
  190.7470  173.4050  140.0590 C   0  0  0  0  0  2  0  0  0  0  0  0
  191.1270  176.3880  144.9690 N   0  0  0  0  0  0  0  0  0  0  0  0
  192.4930  176.0920  145.2450 C   0  0  0  0  0  0  0  0  0  0  0  0
  193.2120  176.3450  146.4100 C   0  0  0  0  0  3  0  0  0  0  0  0
  188.4500  178.0610  142.2520 O   0  0  0  0  0  0  0  0  0  0  0  0
  187.9340  177.3880  143.1830 C   0  0  0  0  0  0  0  0  0  0  0  0
  188.5430  176.1580  143.6040 N   0  0  0  0  0  2  0  0  0  0  0  0
  184.4150  178.7100  145.2740 C   0  0  0  0  0  0  0  0  0  0  0  0
  186.7210  177.9960  145.2520 C   0  0  0  0  0  3  0  0  0  0  0  0
  185.2970  178.0110  141.4250 Cl  0  0  0  0  0  0  0  0  0  0  0  0
  183.3200  179.1240  145.9560 F   0  0  0  0  0  0  0  0  0  0  0  0
  185.5950  178.4230  145.9570 C   0  0  0  0  0  3  0  0  0  0  0  0
  185.4850  178.1440  143.1680 C   0  0  0  0  0  0  0  0  0  0  0  0
  186.6920  177.8480  143.8560 C   0  0  0  0  0  0  0  0  0  0  0  0
  184.3620  178.5710  143.8870 C   0  0  0  0  0  3  0  0  0  0  0  0
  1 14  1  0  0  0  0
  2 13  1  0  0  0  0
  2  3  1  0  0  0  0
  3  7  1  0  0  0  0
  3 19  2  0  0  0  0
  4 11  2  0  0  0  0
  4 15  1  0  0  0  0
  5 14  1  6  0  0  0
  5  2  1  0  0  0  0
  6 17  1  0  0  0  0
  6  1  2  0  0  0  0
  7  4  1  0  0  0  0
  8 23  1  0  0  0  0
  8 13  2  0  0  0  0
  9  1  1  0  0  0  0
 12  8  1  0  0  0  0
 13 18  1  0  0  0  0
 16 12  2  0  0  0  0
 16  5  1  0  0  0  0
 17 16  1  0  0  0  0
 18 19  1  0  0  0  0
 18 10  1  0  0  0  0
 19 20  1  0  0  0  0
 20 15  2  0  0  0  0
 21 22  2  0  0  0  0
 22 23  1  0  0  0  0
 22 30  1  0  0  0  0
 24 27  1  0  0  0  0
 24 28  1  0  0  0  0
 25 28  2  0  0  0  0
 26 29  1  0  0  0  0
 29 30  2  0  0  0  0
 29 31  1  0  0  0  0
 30 25  1  0  0  0  0
 31 24  2  0  0  0  0
M  END
>  <MODEL>
4

>  <REMARK>
 VINA RESULT:      -8.1      3.837      7.310
  Name = 
  2 active torsions:
  status: ('A' for Active; 'I' for Inactive)
    1  A    between atoms: C_9  and  C_22
    2  A    between atoms: C_15  and  N_23
                            x       y       z     vdW  Elec       q    Type
                         _______ _______ _______ _____ _____    ______ ____

>  <TORSDO>
F 2

$$$$
=
 OpenBabel11052417523D

 31 35  0  0  1  0  0  0  0  0999 V2000
  185.0780  178.2420  146.4060 C   0  0  0  0  0  0  0  0  0  0  0  0
  187.2930  177.0000  143.6180 N   0  0  0  0  0  0  0  0  0  0  0  0
  186.8480  177.2090  142.2850 C   0  0  0  0  0  0  0  0  0  0  0  0
  185.3750  177.8530  140.5740 C   0  0  0  0  0  0  0  0  0  0  0  0
  186.4800  176.9520  144.8300 C   0  0  2  0  0  3  0  0  0  0  0  0
  185.5320  177.5300  147.4500 C   0  0  0  0  0  3  0  0  0  0  0  0
  185.6860  177.7970  141.9030 N   0  0  0  0  0  2  0  0  0  0  0  0
  189.0610  175.6200  144.4940 C   0  0  0  0  0  0  0  0  0  0  0  0
  183.7450  178.9010  146.4880 C   0  0  0  0  0  1  0  0  0  0  0  0
  189.6150  174.9450  141.4780 C   0  0  0  0  0  1  0  0  0  0  0  0
  184.3100  178.4100  140.2040 O   0  0  0  0  0  0  0  0  0  0  0  0
  188.4930  175.8780  145.8390 C   0  0  0  0  0  3  0  0  0  0  0  0
  188.4560  176.1870  143.4400 C   0  0  0  0  0  0  0  0  0  0  0  0
  185.8660  178.3170  145.1280 C   0  0  0  0  0  2  0  0  0  0  0  0
  186.2370  177.2820  139.6120 C   0  0  0  0  0  3  0  0  0  0  0  0
  187.3250  176.5140  146.0160 C   0  0  0  0  0  0  0  0  0  0  0  0
  186.8590  176.8080  147.4160 C   0  0  0  0  0  2  0  0  0  0  0  0
  188.7900  175.9970  142.0530 N   0  0  0  0  0  0  0  0  0  0  0  0
  187.7100  176.6420  141.3820 C   0  0  0  0  0  0  0  0  0  0  0  0
  187.4250  176.6520  140.0190 C   0  0  0  0  0  3  0  0  0  0  0  0
  191.8500  176.3900  144.9420 O   0  0  0  0  0  0  0  0  0  0  0  0
  191.5980  175.2250  144.5350 C   0  0  0  0  0  0  0  0  0  0  0  0
  190.2380  174.8200  144.3130 N   0  0  0  0  0  2  0  0  0  0  0  0
  194.7440  172.3490  143.9570 C   0  0  0  0  0  0  0  0  0  0  0  0
  192.9850  173.3230  145.2940 C   0  0  0  0  0  3  0  0  0  0  0  0
  193.2050  175.3120  141.7350 Cl  0  0  0  0  0  0  0  0  0  0  0  0
  195.7300  171.4340  143.8000 F   0  0  0  0  0  0  0  0  0  0  0  0
  194.0000  172.3780  145.1350 C   0  0  0  0  0  3  0  0  0  0  0  0
  193.4560  174.2160  143.0870 C   0  0  0  0  0  0  0  0  0  0  0  0
  192.6940  174.2540  144.2840 C   0  0  0  0  0  0  0  0  0  0  0  0
  194.4720  173.2640  142.9400 C   0  0  0  0  0  3  0  0  0  0  0  0
  1  9  1  0  0  0  0
  1  6  2  0  0  0  0
  2  5  1  0  0  0  0
  3  2  1  0  0  0  0
  4  7  1  0  0  0  0
  5 14  1  1  0  0  0
  5 16  1  0  0  0  0
  7  3  1  0  0  0  0
  8 12  1  0  0  0  0
 10 18  1  0  0  0  0
 11  4  2  0  0  0  0
 12 16  2  0  0  0  0
 13  2  1  0  0  0  0
 13  8  2  0  0  0  0
 14  1  1  0  0  0  0
 15 20  2  0  0  0  0
 15  4  1  0  0  0  0
 16 17  1  0  0  0  0
 17  6  1  0  0  0  0
 18 13  1  0  0  0  0
 19 18  1  0  0  0  0
 19  3  2  0  0  0  0
 20 19  1  0  0  0  0
 22 21  2  0  0  0  0
 23  8  1  0  0  0  0
 23 22  1  0  0  0  0
 24 28  1  0  0  0  0
 26 29  1  0  0  0  0
 27 24  1  0  0  0  0
 28 25  2  0  0  0  0
 29 30  2  0  0  0  0
 30 22  1  0  0  0  0
 30 25  1  0  0  0  0
 31 29  1  0  0  0  0
 31 24  2  0  0  0  0
M  END
>  <MODEL>
5

>  <REMARK>
 VINA RESULT:      -7.9      3.247      5.805
  Name = 
  2 active torsions:
  status: ('A' for Active; 'I' for Inactive)
    1  A    between atoms: C_9  and  C_22
    2  A    between atoms: C_15  and  N_23
                            x       y       z     vdW  Elec       q    Type
                         _______ _______ _______ _____ _____    ______ ____

>  <TORSDO>
F 2

$$$$
=
 OpenBabel11052417523D

 31 35  0  0  1  0  0  0  0  0999 V2000
  185.4790  178.2120  146.6250 C   0  0  0  0  0  0  0  0  0  0  0  0
  187.4910  176.8970  143.7200 N   0  0  0  0  0  0  0  0  0  0  0  0
  186.9990  177.1550  142.4120 C   0  0  0  0  0  0  0  0  0  0  0  0
  185.4910  177.9120  140.7800 C   0  0  0  0  0  0  0  0  0  0  0  0
  186.7320  176.8730  144.9670 C   0  0  2  0  0  3  0  0  0  0  0  0
  185.9370  177.4570  147.6360 C   0  0  0  0  0  3  0  0  0  0  0  0
  185.8570  177.8150  142.0920 N   0  0  0  0  0  2  0  0  0  0  0  0
  189.2150  175.4030  144.4910 C   0  0  0  0  0  0  0  0  0  0  0  0
  184.1910  178.9440  146.7790 C   0  0  0  0  0  1  0  0  0  0  0  0
  189.5930  174.7540  141.4440 C   0  0  0  0  0  1  0  0  0  0  0  0
  184.4430  178.5350  140.4680 O   0  0  0  0  0  0  0  0  0  0  0  0
  188.7230  175.6690  145.8660 C   0  0  0  0  0  3  0  0  0  0  0  0
  188.5960  176.0230  143.4760 C   0  0  0  0  0  0  0  0  0  0  0  0
  186.2110  178.2650  145.3140 C   0  0  0  0  0  2  0  0  0  0  0  0
  186.2740  177.3100  139.7710 C   0  0  0  0  0  3  0  0  0  0  0  0
  187.6030  176.3670  146.1050 C   0  0  0  0  0  0  0  0  0  0  0  0
  187.2180  176.6610  147.5300 C   0  0  0  0  0  2  0  0  0  0  0  0
  188.8560  175.8390  142.0720 N   0  0  0  0  0  0  0  0  0  0  0  0
  187.7860  176.5560  141.4610 C   0  0  0  0  0  0  0  0  0  0  0  0
  187.4410  176.6080  140.1130 C   0  0  0  0  0  3  0  0  0  0  0  0
  189.4950  172.5690  145.1700 O   0  0  0  0  0  0  0  0  0  0  0  0
  190.4490  173.1530  144.5930 C   0  0  0  0  0  0  0  0  0  0  0  0
  190.3350  174.5420  144.2440 N   0  0  0  0  0  2  0  0  0  0  0  0
  194.1450  171.1230  143.7470 C   0  0  0  0  0  0  0  0  0  0  0  0
  192.8490  172.7230  145.0080 C   0  0  0  0  0  3  0  0  0  0  0  0
  190.4410  170.9630  142.2200 Cl  0  0  0  0  0  0  0  0  0  0  0  0
  195.3210  170.4990  143.5000 F   0  0  0  0  0  0  0  0  0  0  0  0
  194.0620  172.0810  144.7570 C   0  0  0  0  0  3  0  0  0  0  0  0
  191.7930  171.4460  143.2350 C   0  0  0  0  0  0  0  0  0  0  0  0
  191.6990  172.4230  144.2600 C   0  0  0  0  0  0  0  0  0  0  0  0
  193.0160  170.8090  142.9920 C   0  0  0  0  0  3  0  0  0  0  0  0
  1  9  1  0  0  0  0
  1  6  2  0  0  0  0
  2  5  1  0  0  0  0
  3  2  1  0  0  0  0
  4  7  1  0  0  0  0
  5 14  1  1  0  0  0
  5 16  1  0  0  0  0
  7  3  1  0  0  0  0
  8 12  1  0  0  0  0
 10 18  1  0  0  0  0
 11  4  2  0  0  0  0
 12 16  2  0  0  0  0
 13  2  1  0  0  0  0
 13  8  2  0  0  0  0
 14  1  1  0  0  0  0
 15 20  2  0  0  0  0
 15  4  1  0  0  0  0
 16 17  1  0  0  0  0
 17  6  1  0  0  0  0
 18 13  1  0  0  0  0
 19 18  1  0  0  0  0
 19  3  2  0  0  0  0
 20 19  1  0  0  0  0
 22 21  2  0  0  0  0
 23  8  1  0  0  0  0
 23 22  1  0  0  0  0
 24 28  1  0  0  0  0
 26 29  1  0  0  0  0
 27 24  1  0  0  0  0
 28 25  2  0  0  0  0
 29 30  2  0  0  0  0
 30 22  1  0  0  0  0
 30 25  1  0  0  0  0
 31 29  1  0  0  0  0
 31 24  2  0  0  0  0
M  END
>  <MODEL>
6

>  <REMARK>
 VINA RESULT:      -7.8      3.107      5.403
  Name = 
  2 active torsions:
  status: ('A' for Active; 'I' for Inactive)
    1  A    between atoms: C_9  and  C_22
    2  A    between atoms: C_15  and  N_23
                            x       y       z     vdW  Elec       q    Type
                         _______ _______ _______ _____ _____    ______ ____

>  <TORSDO>
F 2

$$$$
=
 OpenBabel11052417523D

 31 35  0  0  1  0  0  0  0  0999 V2000
  194.5690  173.2600  142.2000 C   0  0  0  0  0  0  0  0  0  0  0  0
  190.9080  173.9980  141.6790 N   0  0  0  0  0  0  0  0  0  0  0  0
  190.3760  173.7900  140.3780 C   0  0  0  0  0  0  0  0  0  0  0  0
  190.4080  173.2910  138.0840 C   0  0  0  0  0  0  0  0  0  0  0  0
  192.3020  174.2340  142.0430 C   0  0  2  0  0  3  0  0  0  0  0  0
  194.8270  173.9480  143.3240 C   0  0  0  0  0  3  0  0  0  0  0  0
  191.0580  173.3680  139.2830 N   0  0  0  0  0  2  0  0  0  0  0  0
  189.9930  175.1340  143.5950 C   0  0  0  0  0  0  0  0  0  0  0  0
  195.6960  172.8200  141.3320 C   0  0  0  0  0  1  0  0  0  0  0  0
  187.4780  175.5540  141.7640 C   0  0  0  0  0  1  0  0  0  0  0  0
  191.0230  172.8860  137.0650 O   0  0  0  0  0  0  0  0  0  0  0  0
  191.3430  175.0380  144.2010 C   0  0  0  0  0  3  0  0  0  0  0  0
  189.8180  174.6110  142.3730 C   0  0  0  0  0  0  0  0  0  0  0  0
  193.1530  172.9980  141.7690 C   0  0  0  0  0  2  0  0  0  0  0  0
  189.0520  173.6710  137.9790 C   0  0  0  0  0  3  0  0  0  0  0  0
  192.4090  174.5990  143.5150 C   0  0  0  0  0  0  0  0  0  0  0  0
  193.7270  174.4550  144.2280 C   0  0  0  0  0  2  0  0  0  0  0  0
  188.6210  174.6750  141.5750 N   0  0  0  0  0  0  0  0  0  0  0  0
  189.0590  174.1690  140.3160 C   0  0  0  0  0  0  0  0  0  0  0  0
  188.3610  174.1300  139.1120 C   0  0  0  0  0  3  0  0  0  0  0  0
  189.5860  177.9620  144.2370 O   0  0  0  0  0  0  0  0  0  0  0  0
  188.7200  177.1240  144.6020 C   0  0  0  0  0  0  0  0  0  0  0  0
  188.8930  175.7320  144.2950 N   0  0  0  0  0  2  0  0  0  0  0  0
  185.2770  178.3050  146.8930 C   0  0  0  0  0  0  0  0  0  0  0  0
  187.4250  177.2180  146.7070 C   0  0  0  0  0  3  0  0  0  0  0  0
  186.4100  178.7880  143.0770 Cl  0  0  0  0  0  0  0  0  0  0  0  0
  184.2030  178.6650  147.6360 F   0  0  0  0  0  0  0  0  0  0  0  0
  186.3200  177.5870  147.4760 C   0  0  0  0  0  3  0  0  0  0  0  0
  186.4430  178.2890  144.7630 C   0  0  0  0  0  0  0  0  0  0  0  0
  187.5100  177.5570  145.3470 C   0  0  0  0  0  0  0  0  0  0  0  0
  185.3400  178.6530  145.5440 C   0  0  0  0  0  3  0  0  0  0  0  0
  1  6  2  0  0  0  0
  2  5  1  0  0  0  0
  2 13  1  0  0  0  0
  3  2  1  0  0  0  0
  4  7  1  0  0  0  0
  5 14  1  1  0  0  0
  5 16  1  0  0  0  0
  6 17  1  0  0  0  0
  7  3  1  0  0  0  0
  8 12  1  0  0  0  0
  8 23  1  0  0  0  0
  9  1  1  0  0  0  0
 11  4  2  0  0  0  0
 13  8  2  0  0  0  0
 14  1  1  0  0  0  0
 15  4  1  0  0  0  0
 15 20  2  0  0  0  0
 16 12  2  0  0  0  0
 16 17  1  0  0  0  0
 18 10  1  0  0  0  0
 18 13  1  0  0  0  0
 19  3  2  0  0  0  0
 19 18  1  0  0  0  0
 20 19  1  0  0  0  0
 21 22  2  0  0  0  0
 22 30  1  0  0  0  0
 23 22  1  0  0  0  0
 24 28  1  0  0  0  0
 24 27  1  0  0  0  0
 25 28  2  0  0  0  0
 26 29  1  0  0  0  0
 29 30  2  0  0  0  0
 29 31  1  0  0  0  0
 30 25  1  0  0  0  0
 31 24  2  0  0  0  0
M  END
>  <MODEL>
7

>  <REMARK>
 VINA RESULT:      -7.7      3.878      8.535
  Name = 
  2 active torsions:
  status: ('A' for Active; 'I' for Inactive)
    1  A    between atoms: C_9  and  C_22
    2  A    between atoms: C_15  and  N_23
                            x       y       z     vdW  Elec       q    Type
                         _______ _______ _______ _____ _____    ______ ____

>  <TORSDO>
F 2

$$$$
=
 OpenBabel11052417523D

 31 35  0  0  1  0  0  0  0  0999 V2000
  192.3370  173.2950  139.3150 C   0  0  0  0  0  0  0  0  0  0  0  0
  192.1300  175.3570  142.4660 N   0  0  0  0  0  0  0  0  0  0  0  0
  193.3510  175.6960  143.1080 C   0  0  0  0  0  0  0  0  0  0  0  0
  195.6670  175.6860  143.4930 C   0  0  0  0  0  0  0  0  0  0  0  0
  191.8850  174.2440  141.5530 C   0  0  2  0  0  3  0  0  0  0  0  0
  191.0920  172.8020  139.2320 C   0  0  0  0  0  3  0  0  0  0  0  0
  194.6000  175.3360  142.7160 N   0  0  0  0  0  2  0  0  0  0  0  0
  189.8500  175.5170  143.2230 C   0  0  0  0  0  0  0  0  0  0  0  0
  193.4340  172.6580  138.5340 C   0  0  0  0  0  1  0  0  0  0  0  0
  191.1160  176.7820  145.8020 C   0  0  0  0  0  1  0  0  0  0  0  0
  196.8310  175.3730  143.1330 O   0  0  0  0  0  0  0  0  0  0  0  0
  189.4810  174.6960  142.0450 C   0  0  0  0  0  3  0  0  0  0  0  0
  191.1450  175.8240  143.3910 C   0  0  0  0  0  0  0  0  0  0  0  0
  192.6520  174.4310  140.2470 C   0  0  0  0  0  2  0  0  0  0  0  0
  195.4730  176.3890  144.7020 C   0  0  0  0  0  3  0  0  0  0  0  0
  190.4000  174.1280  141.2480 C   0  0  0  0  0  0  0  0  0  0  0  0
  189.9420  173.3780  140.0260 C   0  0  0  0  0  2  0  0  0  0  0  0
  191.7230  176.5290  144.5050 N   0  0  0  0  0  0  0  0  0  0  0  0
  193.1220  176.3780  144.2760 C   0  0  0  0  0  0  0  0  0  0  0  0
  194.1760  176.7360  145.1130 C   0  0  0  0  0  3  0  0  0  0  0  0
  188.1150  177.8580  142.9360 O   0  0  0  0  0  0  0  0  0  0  0  0
  188.0270  177.1600  143.9800 C   0  0  0  0  0  0  0  0  0  0  0  0
  188.8630  176.0030  144.1430 N   0  0  0  0  0  2  0  0  0  0  0  0
  185.1630  178.2920  146.9830 C   0  0  0  0  0  0  0  0  0  0  0  0
  186.1010  178.4970  144.7680 C   0  0  0  0  0  3  0  0  0  0  0  0
  188.1910  175.6660  146.8390 Cl  0  0  0  0  0  0  0  0  0  0  0  0
  184.2510  178.6660  147.9120 F   0  0  0  0  0  0  0  0  0  0  0  0
  185.1600  178.8850  145.7220 C   0  0  0  0  0  3  0  0  0  0  0  0
  187.0570  176.9130  146.3390 C   0  0  0  0  0  0  0  0  0  0  0  0
  187.0610  177.5130  145.0520 C   0  0  0  0  0  0  0  0  0  0  0  0
  186.1070  177.3110  147.2880 C   0  0  0  0  0  3  0  0  0  0  0  0
  1 14  1  0  0  0  0
  2  3  1  0  0  0  0
  2 13  1  0  0  0  0
  3 19  2  0  0  0  0
  4 15  1  0  0  0  0
  5 14  1  6  0  0  0
  5  2  1  0  0  0  0
  6  1  2  0  0  0  0
  6 17  1  0  0  0  0
  7  3  1  0  0  0  0
  7  4  1  0  0  0  0
  8 13  2  0  0  0  0
  8 23  1  0  0  0  0
  9  1  1  0  0  0  0
 11  4  2  0  0  0  0
 12  8  1  0  0  0  0
 13 18  1  0  0  0  0
 15 20  2  0  0  0  0
 16  5  1  0  0  0  0
 16 12  2  0  0  0  0
 17 16  1  0  0  0  0
 18 10  1  0  0  0  0
 19 18  1  0  0  0  0
 19 20  1  0  0  0  0
 21 22  2  0  0  0  0
 22 23  1  0  0  0  0
 22 30  1  0  0  0  0
 24 31  1  0  0  0  0
 24 27  1  0  0  0  0
 25 30  2  0  0  0  0
 25 28  1  0  0  0  0
 28 24  2  0  0  0  0
 29 26  1  0  0  0  0
 29 31  2  0  0  0  0
 30 29  1  0  0  0  0
M  END
>  <MODEL>
8

>  <REMARK>
 VINA RESULT:      -7.5      4.030      7.572
  Name = 
  2 active torsions:
  status: ('A' for Active; 'I' for Inactive)
    1  A    between atoms: C_9  and  C_22
    2  A    between atoms: C_15  and  N_23
                            x       y       z     vdW  Elec       q    Type
                         _______ _______ _______ _____ _____    ______ ____

>  <TORSDO>
F 2

$$$$
=
 OpenBabel11052417523D

 31 35  0  0  1  0  0  0  0  0999 V2000
  186.0570  178.4260  144.3830 C   0  0  0  0  0  0  0  0  0  0  0  0
  188.8990  175.9730  144.0220 N   0  0  0  0  0  0  0  0  0  0  0  0
  189.8370  175.8960  145.0870 C   0  0  0  0  0  0  0  0  0  0  0  0
  190.8550  176.4860  147.1190 C   0  0  0  0  0  0  0  0  0  0  0  0
  188.0200  177.0910  143.6910 C   0  0  2  0  0  3  0  0  0  0  0  0
  185.6570  178.5660  143.1100 C   0  0  0  0  0  3  0  0  0  0  0  0
  189.8310  176.6340  146.2260 N   0  0  0  0  0  2  0  0  0  0  0  0
  188.9770  175.0940  141.7820 C   0  0  0  0  0  0  0  0  0  0  0  0
  185.6530  179.4390  145.3980 C   0  0  0  0  0  1  0  0  0  0  0  0
  191.7300  173.8810  142.6810 C   0  0  0  0  0  1  0  0  0  0  0  0
  190.8530  177.1520  148.1860 O   0  0  0  0  0  0  0  0  0  0  0  0
  187.7920  175.9360  141.4910 C   0  0  0  0  0  3  0  0  0  0  0  0
  189.4820  175.1320  143.0240 C   0  0  0  0  0  0  0  0  0  0  0  0
  186.9730  177.3020  144.7810 C   0  0  0  0  0  2  0  0  0  0  0  0
  191.9180  175.5970  146.8480 C   0  0  0  0  0  3  0  0  0  0  0  0
  187.3190  176.8370  142.3660 C   0  0  0  0  0  0  0  0  0  0  0  0
  186.0630  177.5940  142.0260 C   0  0  0  0  0  2  0  0  0  0  0  0
  190.6710  174.4660  143.4890 N   0  0  0  0  0  0  0  0  0  0  0  0
  190.8520  175.0240  144.7880 C   0  0  0  0  0  0  0  0  0  0  0  0
  191.9280  174.8560  145.6560 C   0  0  0  0  0  3  0  0  0  0  0  0
  187.8290  172.6690  140.6080 O   0  0  0  0  0  0  0  0  0  0  0  0
  188.9700  173.0460  140.2330 C   0  0  0  0  0  0  0  0  0  0  0  0
  189.5540  174.2340  140.7890 N   0  0  0  0  0  2  0  0  0  0  0  0
  191.2140  170.7190  137.3960 C   0  0  0  0  0  0  0  0  0  0  0  0
  190.4560  171.1570  139.6450 C   0  0  0  0  0  3  0  0  0  0  0  0
  188.8890  173.9760  137.1410 Cl  0  0  0  0  0  0  0  0  0  0  0  0
  191.9290  169.9700  136.5220 F   0  0  0  0  0  0  0  0  0  0  0  0
  191.1940  170.3840  138.7480 C   0  0  0  0  0  3  0  0  0  0  0  0
  189.7540  172.6090  137.8320 C   0  0  0  0  0  0  0  0  0  0  0  0
  189.7270  172.2770  139.2120 C   0  0  0  0  0  0  0  0  0  0  0  0
  190.4970  171.8260  136.9420 C   0  0  0  0  0  3  0  0  0  0  0  0
  1 14  1  0  0  0  0
  1  9  1  0  0  0  0
  2  3  1  0  0  0  0
  3  7  1  0  0  0  0
  4 11  2  0  0  0  0
  5  2  1  0  0  0  0
  5 14  1  1  0  0  0
  6  1  2  0  0  0  0
  7  4  1  0  0  0  0
  8 13  2  0  0  0  0
 10 18  1  0  0  0  0
 12  8  1  0  0  0  0
 12 16  2  0  0  0  0
 13 18  1  0  0  0  0
 13  2  1  0  0  0  0
 15  4  1  0  0  0  0
 16  5  1  0  0  0  0
 17 16  1  0  0  0  0
 17  6  1  0  0  0  0
 18 19  1  0  0  0  0
 19  3  2  0  0  0  0
 19 20  1  0  0  0  0
 20 15  2  0  0  0  0
 22 21  2  0  0  0  0
 22 23  1  0  0  0  0
 23  8  1  0  0  0  0
 24 28  1  0  0  0  0
 26 29  1  0  0  0  0
 27 24  1  0  0  0  0
 28 25  2  0  0  0  0
 29 30  2  0  0  0  0
 30 25  1  0  0  0  0
 30 22  1  0  0  0  0
 31 24  2  0  0  0  0
 31 29  1  0  0  0  0
M  END
>  <MODEL>
9

>  <REMARK>
 VINA RESULT:      -7.5      1.507      1.948
  Name = 
  2 active torsions:
  status: ('A' for Active; 'I' for Inactive)
    1  A    between atoms: C_9  and  C_22
    2  A    between atoms: C_15  and  N_23
                            x       y       z     vdW  Elec       q    Type
                         _______ _______ _______ _____ _____    ______ ____

>  <TORSDO>
F 2

$$$$
