=
 OpenBabel11052420043D

 37 39  0  0  1  0  0  0  0  0999 V2000
  192.6200  170.3260  143.6290 C   0  0  0  0  0  2  0  0  0  0  0  0
  196.7470  173.0220  145.7620 C   0  0  0  0  0  1  0  0  0  0  0  0
  192.0830  171.7440  143.7620 C   0  0  1  0  0  3  0  0  0  0  0  0
  188.6990  175.8640  144.1910 C   0  0  1  0  0  3  0  0  0  0  0  0
  192.1410  172.3890  142.5150 O   0  0  0  0  0  0  0  0  0  0  0  0
  194.5550  175.2320  146.4400 C   0  0  0  0  0  2  0  0  0  0  0  0
  191.4520  175.0530  143.5780 N   0  0  0  0  0  0  0  0  0  0  0  0
  193.1600  174.7780  146.0410 C   0  0  0  0  0  2  0  0  0  0  0  0
  190.3220  174.4140  142.8760 C   0  0  2  0  0  3  0  0  0  0  0  0
  195.6130  171.8960  143.2770 C   0  0  0  0  0  2  0  0  0  0  0  0
  194.8850  170.9950  144.0600 O   0  0  0  0  0  0  0  0  0  0  0  0
  195.3490  173.3000  143.7340 C   0  0  0  0  0  3  0  0  0  0  0  0
  192.2530  175.9710  145.7560 C   0  0  1  0  0  3  0  0  0  0  0  0
  189.0690  175.3050  142.8170 C   0  0  0  0  0  2  0  0  0  0  0  0
  191.0460  175.5140  144.9210 C   0  0  1  0  0  3  0  0  0  0  0  0
  195.8530  173.8160  144.8620 C   0  0  0  0  0  0  0  0  0  0  0  0
  190.8770  171.9170  142.9180 C   0  0  2  0  0  3  0  0  0  0  0  0
  195.4910  175.2180  145.2400 C   0  0  0  0  0  2  0  0  0  0  0  0
  194.0680  170.3200  143.1510 C   0  0  0  0  0  2  0  0  0  0  0  0
  189.9090  176.5370  144.8500 C   0  0  0  0  0  2  0  0  0  0  0  0
  190.0110  173.0450  143.4850 C   0  0  0  0  0  2  0  0  0  0  0  0
  191.2400  175.7050  148.0730 C   0  0  0  0  0  1  0  0  0  0  0  0
  191.8500  176.6670  147.0630 C   0  0  0  0  0  2  0  0  0  0  0  0
  191.9490  176.1650  142.7650 C   0  0  0  0  0  2  0  0  0  0  0  0
  193.1310  174.8890  141.1470 O   0  0  0  0  0  0  0  0  0  0  0  0
  193.1920  175.7610  142.0530 C   0  0  0  0  0  0  0  0  0  0  0  0
  195.5160  176.3540  141.5070 C   0  0  0  0  0  1  0  0  0  0  0  0
  194.4070  176.3580  142.3920 O   0  0  0  0  0  0  0  0  0  0  0  0
  187.5120  176.7320  144.1000 N   0  0  0  0  0  0  0  0  0  0  0  0
  187.6070  177.6430  142.9630 C   0  0  0  0  0  2  0  0  0  0  0  0
  186.4430  178.6130  142.9870 C   0  0  0  0  0  2  0  0  0  0  0  0
  185.3290  178.0850  142.1090 C   0  0  0  0  0  2  0  0  0  0  0  0
  184.0070  178.2290  142.8320 C   0  0  0  0  0  1  0  0  0  0  0  0
  187.4310  177.5450  145.3070 C   0  0  0  0  0  2  0  0  0  0  0  0
  186.6810  176.7960  146.4010 C   0  0  0  0  0  2  0  0  0  0  0  0
  184.6200  178.2010  146.5150 C   0  0  0  0  0  1  0  0  0  0  0  0
  185.1780  176.8350  146.1630 C   0  0  0  0  0  2  0  0  0  0  0  0
  3  1  1  6  0  0  0
  4 29  1  6  0  0  0
  4 20  1  0  0  0  0
  5 17  1  0  0  0  0
  5  3  1  0  0  0  0
  7 15  1  0  0  0  0
  8  6  1  0  0  0  0
  9 14  1  1  0  0  0
  9 21  1  0  0  0  0
  9  7  1  0  0  0  0
 10 12  1  0  0  0  0
 10 11  1  0  0  0  0
 12 16  2  0  0  0  0
 13  8  1  0  0  0  0
 13 23  1  1  0  0  0
 14  4  1  0  0  0  0
 15 20  1  6  0  0  0
 15 13  1  0  0  0  0
 16 18  1  0  0  0  0
 16  2  1  0  0  0  0
 17 21  1  1  0  0  0
 17  3  1  0  0  0  0
 18  6  1  0  0  0  0
 19  1  1  0  0  0  0
 19 11  1  0  0  0  0
 23 22  1  0  0  0  0
 24  7  1  0  0  0  0
 25 26  2  0  0  0  0
 26 28  1  0  0  0  0
 26 24  1  0  0  0  0
 27 28  1  0  0  0  0
 29 34  1  0  0  0  0
 30 31  1  0  0  0  0
 30 29  1  0  0  0  0
 32 33  1  0  0  0  0
 32 31  1  0  0  0  0
 34 35  1  0  0  0  0
 37 35  1  0  0  0  0
 37 36  1  0  0  0  0
M  END
>  <MODEL>
1

>  <REMARK>
 VINA RESULT:      -6.8      0.000      0.000
  Name = 
  11 active torsions:
  status: ('A' for Active; 'I' for Inactive)
    1  A    between atoms: C_1  and  C_23
    2  A    between atoms: C_1  and  N_33
    3  A    between atoms: C_4  and  N_10
    4  A    between atoms: C_4  and  C_24
    5  A    between atoms: C_5  and  C_23
    6  A    between atoms: C_7  and  N_33
    7  A    between atoms: C_17  and  C_26
    8  A    between atoms: C_17  and  N_33
    9  A    between atoms: C_20  and  C_25
   10  A    between atoms: C_24  and  O_28
   11  A    between atoms: C_26  and  C_34
                            x       y       z     vdW  Elec       q    Type
                         _______ _______ _______ _____ _____    ______ ____

>  <TORSDO>
F 11

$$$$
=
 OpenBabel11052420043D

 37 39  0  0  1  0  0  0  0  0999 V2000
  192.0950  170.6410  143.2720 C   0  0  0  0  0  2  0  0  0  0  0  0
  196.4880  172.5030  145.7400 C   0  0  0  0  0  1  0  0  0  0  0  0
  191.7770  172.1120  143.4950 C   0  0  1  0  0  3  0  0  0  0  0  0
  189.0480  176.6700  144.1260 C   0  0  1  0  0  3  0  0  0  0  0  0
  191.9880  172.8260  142.3050 O   0  0  0  0  0  0  0  0  0  0  0  0
  194.6320  174.9740  146.5120 C   0  0  0  0  0  2  0  0  0  0  0  0
  191.6690  175.4830  143.5440 N   0  0  0  0  0  0  0  0  0  0  0  0
  193.2030  174.7730  146.0340 C   0  0  0  0  0  2  0  0  0  0  0  0
  190.4860  175.0800  142.7590 C   0  0  2  0  0  3  0  0  0  0  0  0
  195.3060  171.7450  143.1400 C   0  0  0  0  0  2  0  0  0  0  0  0
  194.4150  170.9160  143.8280 O   0  0  0  0  0  0  0  0  0  0  0  0
  195.2410  173.1370  143.6950 C   0  0  0  0  0  3  0  0  0  0  0  0
  192.5030  176.1100  145.8110 C   0  0  1  0  0  3  0  0  0  0  0  0
  189.3890  176.1570  142.7260 C   0  0  0  0  0  2  0  0  0  0  0  0
  191.2790  175.9070  144.9050 C   0  0  1  0  0  3  0  0  0  0  0  0
  195.7670  173.4880  144.8740 C   0  0  0  0  0  0  0  0  0  0  0  0
  190.6500  172.5300  142.6280 C   0  0  2  0  0  3  0  0  0  0  0  0
  195.6070  174.8990  145.3460 C   0  0  0  0  0  2  0  0  0  0  0  0
  193.5450  170.4420  142.8440 C   0  0  0  0  0  2  0  0  0  0  0  0
  190.3160  177.0970  144.8740 C   0  0  0  0  0  2  0  0  0  0  0  0
  189.9430  173.7370  143.2510 C   0  0  0  0  0  2  0  0  0  0  0  0
  191.3140  175.8620  148.0440 C   0  0  0  0  0  1  0  0  0  0  0  0
  192.1540  176.7670  147.1540 C   0  0  0  0  0  2  0  0  0  0  0  0
  192.3660  176.5590  142.8360 C   0  0  0  0  0  2  0  0  0  0  0  0
  193.4440  175.2430  141.1760 O   0  0  0  0  0  0  0  0  0  0  0  0
  193.5770  176.0220  142.1570 C   0  0  0  0  0  0  0  0  0  0  0  0
  195.9570  176.4800  141.7360 C   0  0  0  0  0  1  0  0  0  0  0  0
  194.8430  176.3920  142.6110 O   0  0  0  0  0  0  0  0  0  0  0  0
  188.0130  177.7160  144.0630 N   0  0  0  0  0  0  0  0  0  0  0  0
  187.3080  177.8430  145.3350 C   0  0  0  0  0  2  0  0  0  0  0  0
  186.3820  176.6590  145.5270 C   0  0  0  0  0  2  0  0  0  0  0  0
  185.1130  177.1190  146.2120 C   0  0  0  0  0  2  0  0  0  0  0  0
  185.1240  178.6280  146.3320 C   0  0  0  0  0  1  0  0  0  0  0  0
  187.0300  177.3440  143.0530 C   0  0  0  0  0  2  0  0  0  0  0  0
  186.4490  178.5880  142.3940 C   0  0  0  0  0  2  0  0  0  0  0  0
  184.0070  178.2430  142.7740 C   0  0  0  0  0  1  0  0  0  0  0  0
  185.1120  178.2880  141.7350 C   0  0  0  0  0  2  0  0  0  0  0  0
  3  1  1  6  0  0  0
  4 29  1  6  0  0  0
  4 20  1  0  0  0  0
  5 17  1  0  0  0  0
  5  3  1  0  0  0  0
  7 15  1  0  0  0  0
  8  6  1  0  0  0  0
  9 14  1  1  0  0  0
  9 21  1  0  0  0  0
  9  7  1  0  0  0  0
 10 12  1  0  0  0  0
 10 11  1  0  0  0  0
 12 16  2  0  0  0  0
 13  8  1  0  0  0  0
 13 23  1  1  0  0  0
 14  4  1  0  0  0  0
 15 20  1  6  0  0  0
 15 13  1  0  0  0  0
 16 18  1  0  0  0  0
 16  2  1  0  0  0  0
 17 21  1  1  0  0  0
 17  3  1  0  0  0  0
 18  6  1  0  0  0  0
 19  1  1  0  0  0  0
 19 11  1  0  0  0  0
 23 22  1  0  0  0  0
 24  7  1  0  0  0  0
 25 26  2  0  0  0  0
 26 28  1  0  0  0  0
 26 24  1  0  0  0  0
 27 28  1  0  0  0  0
 29 30  1  0  0  0  0
 30 31  1  0  0  0  0
 31 32  1  0  0  0  0
 32 33  1  0  0  0  0
 34 29  1  0  0  0  0
 35 34  1  0  0  0  0
 37 35  1  0  0  0  0
 37 36  1  0  0  0  0
M  END
>  <MODEL>
2

>  <REMARK>
 VINA RESULT:      -6.6      0.567      1.783
  Name = 
  11 active torsions:
  status: ('A' for Active; 'I' for Inactive)
    1  A    between atoms: C_1  and  C_23
    2  A    between atoms: C_1  and  N_33
    3  A    between atoms: C_4  and  N_10
    4  A    between atoms: C_4  and  C_24
    5  A    between atoms: C_5  and  C_23
    6  A    between atoms: C_7  and  N_33
    7  A    between atoms: C_17  and  C_26
    8  A    between atoms: C_17  and  N_33
    9  A    between atoms: C_20  and  C_25
   10  A    between atoms: C_24  and  O_28
   11  A    between atoms: C_26  and  C_34
                            x       y       z     vdW  Elec       q    Type
                         _______ _______ _______ _____ _____    ______ ____

>  <TORSDO>
F 11

$$$$
=
 OpenBabel11052420043D

 37 39  0  0  1  0  0  0  0  0999 V2000
  194.5410  176.1860  142.4970 C   0  0  0  0  0  2  0  0  0  0  0  0
  193.9040  170.8560  142.6920 C   0  0  0  0  0  1  0  0  0  0  0  0
  193.0700  176.0200  142.8450 C   0  0  1  0  0  3  0  0  0  0  0  0
  187.8450  177.0290  143.4000 C   0  0  1  0  0  3  0  0  0  0  0  0
  192.8860  176.2200  144.2240 O   0  0  0  0  0  0  0  0  0  0  0  0
  190.7960  171.5290  142.5090 C   0  0  0  0  0  2  0  0  0  0  0  0
  190.0780  175.3170  144.2370 N   0  0  0  0  0  0  0  0  0  0  0  0
  190.5550  173.0210  142.3500 C   0  0  0  0  0  2  0  0  0  0  0  0
  190.2000  176.7840  144.3290 C   0  0  2  0  0  3  0  0  0  0  0  0
  194.8760  173.2360  144.1490 C   0  0  0  0  0  2  0  0  0  0  0  0
  195.0440  173.8760  142.9180 O   0  0  0  0  0  0  0  0  0  0  0  0
  193.4740  172.7190  144.2690 C   0  0  0  0  0  3  0  0  0  0  0  0
  189.1830  173.4180  142.8870 C   0  0  1  0  0  3  0  0  0  0  0  0
  188.8420  177.4950  144.4630 C   0  0  0  0  0  2  0  0  0  0  0  0
  189.1500  174.9310  143.1540 C   0  0  1  0  0  3  0  0  0  0  0  0
  193.0220  171.6460  143.6090 C   0  0  0  0  0  0  0  0  0  0  0  0
  192.5230  177.2890  143.3820 C   0  0  2  0  0  3  0  0  0  0  0  0
  191.5910  171.2430  143.7750 C   0  0  0  0  0  2  0  0  0  0  0  0
  195.4090  175.1830  143.2480 C   0  0  0  0  0  2  0  0  0  0  0  0
  187.7470  175.4990  143.3790 C   0  0  0  0  0  2  0  0  0  0  0  0
  191.0100  177.3340  143.1520 C   0  0  0  0  0  2  0  0  0  0  0  0
  188.3720  173.2960  140.4810 C   0  0  0  0  0  1  0  0  0  0  0  0
  188.0740  172.9520  141.9340 C   0  0  0  0  0  2  0  0  0  0  0  0
  189.6260  174.7960  145.5290 C   0  0  0  0  0  2  0  0  0  0  0  0
  191.7770  174.4930  146.4910 O   0  0  0  0  0  0  0  0  0  0  0  0
  190.6540  175.0570  146.5730 C   0  0  0  0  0  0  0  0  0  0  0  0
  191.2970  176.8990  148.0710 C   0  0  0  0  0  1  0  0  0  0  0  0
  190.3650  175.9270  147.6250 O   0  0  0  0  0  0  0  0  0  0  0  0
  186.5480  177.7060  143.5670 N   0  0  0  0  0  0  0  0  0  0  0  0
  186.2600  178.5870  142.4390 C   0  0  0  0  0  2  0  0  0  0  0  0
  184.9270  178.2110  141.8250 C   0  0  0  0  0  2  0  0  0  0  0  0
  185.0630  178.1610  140.3180 C   0  0  0  0  0  2  0  0  0  0  0  0
  186.3970  177.5450  139.9540 C   0  0  0  0  0  1  0  0  0  0  0  0
  186.6010  178.5340  144.7660 C   0  0  0  0  0  2  0  0  0  0  0  0
  185.3000  178.4170  145.5490 C   0  0  0  0  0  2  0  0  0  0  0  0
  186.4100  176.8390  147.1330 C   0  0  0  0  0  1  0  0  0  0  0  0
  185.1980  177.0700  146.2500 C   0  0  0  0  0  2  0  0  0  0  0  0
  1 19  1  0  0  0  0
  2 16  1  0  0  0  0
  3  1  1  1  0  0  0
  3 17  1  0  0  0  0
  3  5  1  0  0  0  0
  4 29  1  1  0  0  0
  4 14  1  0  0  0  0
  6 18  1  0  0  0  0
  7  9  1  0  0  0  0
  7 24  1  0  0  0  0
  8  6  1  0  0  0  0
  8 13  1  0  0  0  0
  9 21  1  6  0  0  0
  9 14  1  0  0  0  0
 10 12  1  0  0  0  0
 11 19  1  0  0  0  0
 11 10  1  0  0  0  0
 13 23  1  6  0  0  0
 13 15  1  0  0  0  0
 15 20  1  1  0  0  0
 15  7  1  0  0  0  0
 16 18  1  0  0  0  0
 16 12  2  0  0  0  0
 17 21  1  6  0  0  0
 17  5  1  0  0  0  0
 20  4  1  0  0  0  0
 22 23  1  0  0  0  0
 24 26  1  0  0  0  0
 25 26  2  0  0  0  0
 26 28  1  0  0  0  0
 28 27  1  0  0  0  0
 29 34  1  0  0  0  0
 30 29  1  0  0  0  0
 31 30  1  0  0  0  0
 32 31  1  0  0  0  0
 33 32  1  0  0  0  0
 34 35  1  0  0  0  0
 35 37  1  0  0  0  0
 37 36  1  0  0  0  0
M  END
>  <MODEL>
3

>  <REMARK>
 VINA RESULT:      -6.4      1.954      4.382
  Name = 
  11 active torsions:
  status: ('A' for Active; 'I' for Inactive)
    1  A    between atoms: C_1  and  C_23
    2  A    between atoms: C_1  and  N_33
    3  A    between atoms: C_4  and  N_10
    4  A    between atoms: C_4  and  C_24
    5  A    between atoms: C_5  and  C_23
    6  A    between atoms: C_7  and  N_33
    7  A    between atoms: C_17  and  C_26
    8  A    between atoms: C_17  and  N_33
    9  A    between atoms: C_20  and  C_25
   10  A    between atoms: C_24  and  O_28
   11  A    between atoms: C_26  and  C_34
                            x       y       z     vdW  Elec       q    Type
                         _______ _______ _______ _____ _____    ______ ____

>  <TORSDO>
F 11

$$$$
=
 OpenBabel11052420043D

 37 39  0  0  1  0  0  0  0  0999 V2000
  194.8150  176.0560  142.5990 C   0  0  0  0  0  2  0  0  0  0  0  0
  193.8550  170.7720  142.4560 C   0  0  0  0  0  1  0  0  0  0  0  0
  193.3320  175.9580  142.9270 C   0  0  1  0  0  3  0  0  0  0  0  0
  188.1730  177.2470  143.5120 C   0  0  1  0  0  3  0  0  0  0  0  0
  193.1470  176.0830  144.3140 O   0  0  0  0  0  0  0  0  0  0  0  0
  190.7960  171.6440  142.2960 C   0  0  0  0  0  2  0  0  0  0  0  0
  190.2900  175.3540  144.2540 N   0  0  0  0  0  0  0  0  0  0  0  0
  190.6460  173.1550  142.2290 C   0  0  0  0  0  2  0  0  0  0  0  0
  190.4990  176.8020  144.4370 C   0  0  2  0  0  3  0  0  0  0  0  0
  194.9550  172.9940  144.0650 C   0  0  0  0  0  2  0  0  0  0  0  0
  195.1730  173.6980  142.8770 O   0  0  0  0  0  0  0  0  0  0  0  0
  193.5230  172.5560  144.1440 C   0  0  0  0  0  3  0  0  0  0  0  0
  189.2950  173.6000  142.7820 C   0  0  1  0  0  3  0  0  0  0  0  0
  189.1860  177.5840  144.6070 C   0  0  0  0  0  2  0  0  0  0  0  0
  189.3520  175.0930  143.1420 C   0  0  1  0  0  3  0  0  0  0  0  0
  193.0140  171.5560  143.4140 C   0  0  0  0  0  0  0  0  0  0  0  0
  192.8580  177.2220  143.5380 C   0  0  2  0  0  3  0  0  0  0  0  0
  191.5590  171.2320  143.5460 C   0  0  0  0  0  2  0  0  0  0  0  0
  195.6130  174.9570  143.2910 C   0  0  0  0  0  2  0  0  0  0  0  0
  187.9830  175.7300  143.3940 C   0  0  0  0  0  2  0  0  0  0  0  0
  191.3530  177.3740  143.3030 C   0  0  0  0  0  2  0  0  0  0  0  0
  188.4770  173.7310  140.3780 C   0  0  0  0  0  1  0  0  0  0  0  0
  188.1700  173.2630  141.7940 C   0  0  0  0  0  2  0  0  0  0  0  0
  189.7950  174.7820  145.5070 C   0  0  0  0  0  2  0  0  0  0  0  0
  191.9180  174.4300  146.5150 O   0  0  0  0  0  0  0  0  0  0  0  0
  190.7920  174.9890  146.5920 C   0  0  0  0  0  0  0  0  0  0  0  0
  191.3260  176.8540  148.1060 C   0  0  0  0  0  1  0  0  0  0  0  0
  190.4710  175.8040  147.6780 O   0  0  0  0  0  0  0  0  0  0  0  0
  186.9180  177.9900  143.7130 N   0  0  0  0  0  0  0  0  0  0  0  0
  185.8130  177.0900  144.0300 C   0  0  0  0  0  2  0  0  0  0  0  0
  185.6250  177.0220  145.5330 C   0  0  0  0  0  2  0  0  0  0  0  0
  185.3790  178.4150  146.0720 C   0  0  0  0  0  2  0  0  0  0  0  0
  183.9710  178.8480  145.7240 C   0  0  0  0  0  1  0  0  0  0  0  0
  186.5780  178.6820  142.4760 C   0  0  0  0  0  2  0  0  0  0  0  0
  185.2070  178.2410  141.9810 C   0  0  0  0  0  2  0  0  0  0  0  0
  186.5450  177.4750  140.0180 C   0  0  0  0  0  1  0  0  0  0  0  0
  185.2080  178.0290  140.4740 C   0  0  0  0  0  2  0  0  0  0  0  0
  1 19  1  0  0  0  0
  2 16  1  0  0  0  0
  3  1  1  1  0  0  0
  3 17  1  0  0  0  0
  3  5  1  0  0  0  0
  4 29  1  1  0  0  0
  4 14  1  0  0  0  0
  6 18  1  0  0  0  0
  7  9  1  0  0  0  0
  7 24  1  0  0  0  0
  8  6  1  0  0  0  0
  8 13  1  0  0  0  0
  9 21  1  6  0  0  0
  9 14  1  0  0  0  0
 10 12  1  0  0  0  0
 11 19  1  0  0  0  0
 11 10  1  0  0  0  0
 13 23  1  6  0  0  0
 13 15  1  0  0  0  0
 15 20  1  1  0  0  0
 15  7  1  0  0  0  0
 16 18  1  0  0  0  0
 16 12  2  0  0  0  0
 17 21  1  6  0  0  0
 17  5  1  0  0  0  0
 20  4  1  0  0  0  0
 22 23  1  0  0  0  0
 24 26  1  0  0  0  0
 25 26  2  0  0  0  0
 26 28  1  0  0  0  0
 28 27  1  0  0  0  0
 29 30  1  0  0  0  0
 30 31  1  0  0  0  0
 31 32  1  0  0  0  0
 33 32  1  0  0  0  0
 34 29  1  0  0  0  0
 35 34  1  0  0  0  0
 36 37  1  0  0  0  0
 37 35  1  0  0  0  0
M  END
>  <MODEL>
4

>  <REMARK>
 VINA RESULT:      -6.4      1.946      4.715
  Name = 
  11 active torsions:
  status: ('A' for Active; 'I' for Inactive)
    1  A    between atoms: C_1  and  C_23
    2  A    between atoms: C_1  and  N_33
    3  A    between atoms: C_4  and  N_10
    4  A    between atoms: C_4  and  C_24
    5  A    between atoms: C_5  and  C_23
    6  A    between atoms: C_7  and  N_33
    7  A    between atoms: C_17  and  C_26
    8  A    between atoms: C_17  and  N_33
    9  A    between atoms: C_20  and  C_25
   10  A    between atoms: C_24  and  O_28
   11  A    between atoms: C_26  and  C_34
                            x       y       z     vdW  Elec       q    Type
                         _______ _______ _______ _____ _____    ______ ____

>  <TORSDO>
F 11

$$$$
=
 OpenBabel11052420043D

 37 39  0  0  1  0  0  0  0  0999 V2000
  186.4290  176.7190  147.0740 C   0  0  0  0  0  2  0  0  0  0  0  0
  185.1490  178.3270  142.1110 C   0  0  0  0  0  1  0  0  0  0  0  0
  187.5060  176.0820  146.2090 C   0  0  1  0  0  3  0  0  0  0  0  0
  191.3780  172.7910  144.5350 C   0  0  1  0  0  3  0  0  0  0  0  0
  188.6850  176.8420  146.2880 O   0  0  0  0  0  0  0  0  0  0  0  0
  187.1040  175.9900  141.1810 C   0  0  0  0  0  2  0  0  0  0  0  0
  190.0700  175.3870  144.1290 N   0  0  0  0  0  0  0  0  0  0  0  0
  187.6380  175.2020  142.3660 C   0  0  0  0  0  2  0  0  0  0  0  0
  190.5600  175.0100  145.4680 C   0  0  2  0  0  3  0  0  0  0  0  0
  186.4300  179.1070  144.6570 C   0  0  0  0  0  2  0  0  0  0  0  0
  185.6520  178.1410  145.3020 O   0  0  0  0  0  0  0  0  0  0  0  0
  187.1820  178.4810  143.5200 C   0  0  0  0  0  3  0  0  0  0  0  0
  188.9830  174.5600  142.0400 C   0  0  1  0  0  3  0  0  0  0  0  0
  191.7100  173.9900  145.4250 C   0  0  0  0  0  2  0  0  0  0  0  0
  189.7080  174.1890  143.3430 C   0  0  1  0  0  3  0  0  0  0  0  0
  186.6090  178.1180  142.3660 C   0  0  0  0  0  0  0  0  0  0  0  0
  188.6520  175.6570  147.0470 C   0  0  2  0  0  3  0  0  0  0  0  0
  187.4500  177.4660  141.3150 C   0  0  0  0  0  2  0  0  0  0  0  0
  186.1150  178.1400  146.6190 C   0  0  0  0  0  2  0  0  0  0  0  0
  190.9040  173.2530  143.1530 C   0  0  0  0  0  2  0  0  0  0  0  0
  189.4070  174.5220  146.3480 C   0  0  0  0  0  2  0  0  0  0  0  0
  189.4650  173.5790  139.7440 C   0  0  0  0  0  1  0  0  0  0  0  0
  188.7970  173.3650  141.0950 C   0  0  0  0  0  2  0  0  0  0  0  0
  191.1020  176.1720  143.4490 C   0  0  0  0  0  2  0  0  0  0  0  0
  190.6580  178.3580  144.2680 O   0  0  0  0  0  0  0  0  0  0  0  0
  191.4450  177.3750  144.2560 C   0  0  0  0  0  0  0  0  0  0  0  0
  193.8120  176.7620  144.5310 C   0  0  0  0  0  1  0  0  0  0  0  0
  192.6290  177.3960  144.9950 O   0  0  0  0  0  0  0  0  0  0  0  0
  192.5040  171.8440  144.4920 N   0  0  0  0  0  0  0  0  0  0  0  0
  193.7810  172.5290  144.6740 C   0  0  0  0  0  2  0  0  0  0  0  0
  194.6320  171.7700  145.6720 C   0  0  0  0  0  2  0  0  0  0  0  0
  196.0700  171.7570  145.2010 C   0  0  0  0  0  2  0  0  0  0  0  0
  196.8760  172.7430  146.0190 C   0  0  0  0  0  1  0  0  0  0  0  0
  192.5320  171.2050  143.1820 C   0  0  0  0  0  2  0  0  0  0  0  0
  192.6050  169.6910  143.3320 C   0  0  0  0  0  2  0  0  0  0  0  0
  190.7600  169.8410  141.6570 C   0  0  0  0  0  1  0  0  0  0  0  0
  191.9030  168.9900  142.1790 C   0  0  0  0  0  2  0  0  0  0  0  0
  2 16  1  0  0  0  0
  3  5  1  0  0  0  0
  3 17  1  0  0  0  0
  3  1  1  1  0  0  0
  4 29  1  6  0  0  0
  4 14  1  0  0  0  0
  5 17  1  0  0  0  0
  6 18  1  0  0  0  0
  6  8  1  0  0  0  0
  7  9  1  0  0  0  0
  9 14  1  6  0  0  0
  9 21  1  0  0  0  0
 10 11  1  0  0  0  0
 11 19  1  0  0  0  0
 12 10  1  0  0  0  0
 13 23  1  6  0  0  0
 13  8  1  0  0  0  0
 13 15  1  0  0  0  0
 15 20  1  6  0  0  0
 15  7  1  0  0  0  0
 16 12  2  0  0  0  0
 17 21  1  6  0  0  0
 18 16  1  0  0  0  0
 19  1  1  0  0  0  0
 20  4  1  0  0  0  0
 22 23  1  0  0  0  0
 24  7  1  0  0  0  0
 24 26  1  0  0  0  0
 26 25  2  0  0  0  0
 26 28  1  0  0  0  0
 27 28  1  0  0  0  0
 29 30  1  0  0  0  0
 30 31  1  0  0  0  0
 32 31  1  0  0  0  0
 32 33  1  0  0  0  0
 34 35  1  0  0  0  0
 34 29  1  0  0  0  0
 36 37  1  0  0  0  0
 37 35  1  0  0  0  0
M  END
>  <MODEL>
5

>  <REMARK>
 VINA RESULT:      -6.1      2.687      8.297
  Name = 
  11 active torsions:
  status: ('A' for Active; 'I' for Inactive)
    1  A    between atoms: C_1  and  C_23
    2  A    between atoms: C_1  and  N_33
    3  A    between atoms: C_4  and  N_10
    4  A    between atoms: C_4  and  C_24
    5  A    between atoms: C_5  and  C_23
    6  A    between atoms: C_7  and  N_33
    7  A    between atoms: C_17  and  C_26
    8  A    between atoms: C_17  and  N_33
    9  A    between atoms: C_20  and  C_25
   10  A    between atoms: C_24  and  O_28
   11  A    between atoms: C_26  and  C_34
                            x       y       z     vdW  Elec       q    Type
                         _______ _______ _______ _____ _____    ______ ____

>  <TORSDO>
F 11

$$$$
=
 OpenBabel11052420043D

 37 39  0  0  1  0  0  0  0  0999 V2000
  195.4600  174.8810  140.7660 C   0  0  0  0  0  2  0  0  0  0  0  0
  195.4290  170.0660  143.1480 C   0  0  0  0  0  1  0  0  0  0  0  0
  194.3500  175.0070  141.7990 C   0  0  1  0  0  3  0  0  0  0  0  0
  189.9550  176.6950  144.3390 C   0  0  1  0  0  3  0  0  0  0  0  0
  194.8280  175.7010  142.9230 O   0  0  0  0  0  0  0  0  0  0  0  0
  192.5640  170.9570  144.2190 C   0  0  0  0  0  2  0  0  0  0  0  0
  192.4480  175.1650  144.5810 N   0  0  0  0  0  0  0  0  0  0  0  0
  192.1560  172.3120  143.6660 C   0  0  0  0  0  2  0  0  0  0  0  0
  192.4790  176.5470  144.0670 C   0  0  2  0  0  3  0  0  0  0  0  0
  196.7790  172.6910  143.0040 C   0  0  0  0  0  2  0  0  0  0  0  0
  196.2890  172.8310  141.7030 O   0  0  0  0  0  0  0  0  0  0  0  0
  195.6500  172.4020  143.9470 C   0  0  0  0  0  3  0  0  0  0  0  0
  191.1770  173.0170  144.6010 C   0  0  1  0  0  3  0  0  0  0  0  0
  191.2960  177.3990  144.5570 C   0  0  0  0  0  2  0  0  0  0  0  0
  191.1520  174.5210  144.2840 C   0  0  1  0  0  3  0  0  0  0  0  0
  195.0270  171.2190  144.0150 C   0  0  0  0  0  0  0  0  0  0  0  0
  194.0230  176.4340  142.0300 C   0  0  2  0  0  3  0  0  0  0  0  0
  193.8850  171.0550  144.9670 C   0  0  0  0  0  2  0  0  0  0  0  0
  196.6600  174.1230  141.3250 C   0  0  0  0  0  2  0  0  0  0  0  0
  189.9830  175.2770  144.9200 C   0  0  0  0  0  2  0  0  0  0  0  0
  192.5850  176.5550  142.5400 C   0  0  0  0  0  2  0  0  0  0  0  0
  189.3220  172.1580  143.0880 C   0  0  0  0  0  1  0  0  0  0  0  0
  189.7900  172.3640  144.5220 C   0  0  0  0  0  2  0  0  0  0  0  0
  192.7090  175.1870  146.0220 C   0  0  0  0  0  2  0  0  0  0  0  0
  195.0640  174.9190  146.1940 O   0  0  0  0  0  0  0  0  0  0  0  0
  194.0810  175.7010  146.2850 C   0  0  0  0  0  0  0  0  0  0  0  0
  194.9480  177.9440  145.7680 C   0  0  0  0  0  1  0  0  0  0  0  0
  194.2610  177.0430  146.6220 O   0  0  0  0  0  0  0  0  0  0  0  0
  188.8440  177.5220  144.8390 N   0  0  0  0  0  0  0  0  0  0  0  0
  188.0850  176.8220  145.8720 C   0  0  0  0  0  2  0  0  0  0  0  0
  186.6190  176.7820  145.4900 C   0  0  0  0  0  2  0  0  0  0  0  0
  185.7760  177.1540  146.6910 C   0  0  0  0  0  2  0  0  0  0  0  0
  185.5020  178.6420  146.6730 C   0  0  0  0  0  1  0  0  0  0  0  0
  187.9310  177.7990  143.7370 C   0  0  0  0  0  2  0  0  0  0  0  0
  188.6490  177.6430  142.4020 C   0  0  0  0  0  2  0  0  0  0  0  0
  186.3500  177.0970  141.5960 C   0  0  0  0  0  1  0  0  0  0  0  0
  187.6740  177.7460  141.2380 C   0  0  0  0  0  2  0  0  0  0  0  0
  1 19  1  0  0  0  0
  2 16  1  0  0  0  0
  3  1  1  6  0  0  0
  3 17  1  0  0  0  0
  3  5  1  0  0  0  0
  4 14  1  0  0  0  0
  4 29  1  1  0  0  0
  4 20  1  0  0  0  0
  6 18  1  0  0  0  0
  7 24  1  0  0  0  0
  8  6  1  0  0  0  0
  8 13  1  0  0  0  0
  9 21  1  6  0  0  0
  9 14  1  0  0  0  0
  9  7  1  0  0  0  0
 10 12  1  0  0  0  0
 11 10  1  0  0  0  0
 12 16  2  0  0  0  0
 13 23  1  6  0  0  0
 15  7  1  0  0  0  0
 15 13  1  0  0  0  0
 15 20  1  1  0  0  0
 16 18  1  0  0  0  0
 17 21  1  1  0  0  0
 17  5  1  0  0  0  0
 19 11  1  0  0  0  0
 22 23  1  0  0  0  0
 24 26  1  0  0  0  0
 25 26  2  0  0  0  0
 26 28  1  0  0  0  0
 27 28  1  0  0  0  0
 29 30  1  0  0  0  0
 31 30  1  0  0  0  0
 31 32  1  0  0  0  0
 33 32  1  0  0  0  0
 34 29  1  0  0  0  0
 35 34  1  0  0  0  0
 37 36  1  0  0  0  0
 37 35  1  0  0  0  0
M  END
>  <MODEL>
6

>  <REMARK>
 VINA RESULT:      -5.9      1.718      4.044
  Name = 
  11 active torsions:
  status: ('A' for Active; 'I' for Inactive)
    1  A    between atoms: C_1  and  C_23
    2  A    between atoms: C_1  and  N_33
    3  A    between atoms: C_4  and  N_10
    4  A    between atoms: C_4  and  C_24
    5  A    between atoms: C_5  and  C_23
    6  A    between atoms: C_7  and  N_33
    7  A    between atoms: C_17  and  C_26
    8  A    between atoms: C_17  and  N_33
    9  A    between atoms: C_20  and  C_25
   10  A    between atoms: C_24  and  O_28
   11  A    between atoms: C_26  and  C_34
                            x       y       z     vdW  Elec       q    Type
                         _______ _______ _______ _____ _____    ______ ____

>  <TORSDO>
F 11

$$$$
=
 OpenBabel11052420043D

 37 39  0  0  1  0  0  0  0  0999 V2000
  186.5400  176.6130  147.1380 C   0  0  0  0  0  2  0  0  0  0  0  0
  184.8810  178.3980  142.3510 C   0  0  0  0  0  1  0  0  0  0  0  0
  187.5720  176.0470  146.1750 C   0  0  1  0  0  3  0  0  0  0  0  0
  191.4040  172.9460  144.0960 C   0  0  1  0  0  3  0  0  0  0  0  0
  188.7330  176.8370  146.2090 O   0  0  0  0  0  0  0  0  0  0  0  0
  186.8280  176.1630  141.1870 C   0  0  0  0  0  2  0  0  0  0  0  0
  190.0040  175.5180  143.8970 N   0  0  0  0  0  0  0  0  0  0  0  0
  187.4620  175.3390  142.2960 C   0  0  0  0  0  2  0  0  0  0  0  0
  190.5940  175.0980  145.1820 C   0  0  2  0  0  3  0  0  0  0  0  0
  186.3130  179.1040  144.8380 C   0  0  0  0  0  2  0  0  0  0  0  0
  185.6070  178.0880  145.4900 O   0  0  0  0  0  0  0  0  0  0  0  0
  187.0010  178.5510  143.6260 C   0  0  0  0  0  3  0  0  0  0  0  0
  188.7980  174.7520  141.8510 C   0  0  1  0  0  3  0  0  0  0  0  0
  191.7650  174.1140  145.0150 C   0  0  0  0  0  2  0  0  0  0  0  0
  189.6200  174.3460  143.0850 C   0  0  1  0  0  3  0  0  0  0  0  0
  186.3600  178.2220  142.4980 C   0  0  0  0  0  0  0  0  0  0  0  0
  188.7830  175.6190  146.9140 C   0  0  2  0  0  3  0  0  0  0  0  0
  187.1440  177.6400  141.3640 C   0  0  0  0  0  2  0  0  0  0  0  0
  186.1590  178.0430  146.7710 C   0  0  0  0  0  2  0  0  0  0  0  0
  190.8240  173.4540  142.7710 C   0  0  0  0  0  2  0  0  0  0  0  0
  189.5170  174.5380  146.1150 C   0  0  0  0  0  2  0  0  0  0  0  0
  189.1950  173.8640  139.5020 C   0  0  0  0  0  1  0  0  0  0  0  0
  188.5790  173.5940  140.8680 C   0  0  0  0  0  2  0  0  0  0  0  0
  190.9660  176.3620  143.1860 C   0  0  0  0  0  2  0  0  0  0  0  0
  190.5410  178.4780  144.1790 O   0  0  0  0  0  0  0  0  0  0  0  0
  191.3500  177.5240  144.0320 C   0  0  0  0  0  0  0  0  0  0  0  0
  193.6990  176.8030  144.1480 C   0  0  0  0  0  1  0  0  0  0  0  0
  192.5980  177.5410  144.6550 O   0  0  0  0  0  0  0  0  0  0  0  0
  192.5490  172.0350  143.9350 N   0  0  0  0  0  0  0  0  0  0  0  0
  192.1330  170.6380  144.0230 C   0  0  0  0  0  2  0  0  0  0  0  0
  192.3100  169.9660  142.6760 C   0  0  0  0  0  2  0  0  0  0  0  0
  190.9640  169.8430  141.9940 C   0  0  0  0  0  2  0  0  0  0  0  0
  191.0330  170.4860  140.6250 C   0  0  0  0  0  1  0  0  0  0  0  0
  193.4990  172.2780  145.0130 C   0  0  0  0  0  2  0  0  0  0  0  0
  194.9230  172.0360  144.5310 C   0  0  0  0  0  2  0  0  0  0  0  0
  195.6440  174.0870  145.7570 C   0  0  0  0  0  1  0  0  0  0  0  0
  195.7010  173.3400  144.4370 C   0  0  0  0  0  2  0  0  0  0  0  0
  2 16  1  0  0  0  0
  3  5  1  0  0  0  0
  3 17  1  0  0  0  0
  3  1  1  1  0  0  0
  4 29  1  6  0  0  0
  4 14  1  0  0  0  0
  5 17  1  0  0  0  0
  6 18  1  0  0  0  0
  6  8  1  0  0  0  0
  7  9  1  0  0  0  0
  9 14  1  6  0  0  0
  9 21  1  0  0  0  0
 10 11  1  0  0  0  0
 11 19  1  0  0  0  0
 12 10  1  0  0  0  0
 13 23  1  6  0  0  0
 13  8  1  0  0  0  0
 13 15  1  0  0  0  0
 15 20  1  6  0  0  0
 15  7  1  0  0  0  0
 16 12  2  0  0  0  0
 17 21  1  6  0  0  0
 18 16  1  0  0  0  0
 19  1  1  0  0  0  0
 20  4  1  0  0  0  0
 22 23  1  0  0  0  0
 24  7  1  0  0  0  0
 24 26  1  0  0  0  0
 26 25  2  0  0  0  0
 26 28  1  0  0  0  0
 27 28  1  0  0  0  0
 29 30  1  0  0  0  0
 29 34  1  0  0  0  0
 31 30  1  0  0  0  0
 32 31  1  0  0  0  0
 33 32  1  0  0  0  0
 35 34  1  0  0  0  0
 37 35  1  0  0  0  0
 37 36  1  0  0  0  0
M  END
>  <MODEL>
7

>  <REMARK>
 VINA RESULT:      -5.8      2.678      8.069
  Name = 
  11 active torsions:
  status: ('A' for Active; 'I' for Inactive)
    1  A    between atoms: C_1  and  C_23
    2  A    between atoms: C_1  and  N_33
    3  A    between atoms: C_4  and  N_10
    4  A    between atoms: C_4  and  C_24
    5  A    between atoms: C_5  and  C_23
    6  A    between atoms: C_7  and  N_33
    7  A    between atoms: C_17  and  C_26
    8  A    between atoms: C_17  and  N_33
    9  A    between atoms: C_20  and  C_25
   10  A    between atoms: C_24  and  O_28
   11  A    between atoms: C_26  and  C_34
                            x       y       z     vdW  Elec       q    Type
                         _______ _______ _______ _____ _____    ______ ____

>  <TORSDO>
F 11

$$$$
=
 OpenBabel11052420043D

 37 39  0  0  1  0  0  0  0  0999 V2000
  192.8040  169.2750  142.7200 C   0  0  0  0  0  2  0  0  0  0  0  0
  197.3530  170.9590  145.0280 C   0  0  0  0  0  1  0  0  0  0  0  0
  192.5740  170.7670  142.9050 C   0  0  1  0  0  3  0  0  0  0  0  0
  190.1190  175.4890  143.4580 C   0  0  1  0  0  3  0  0  0  0  0  0
  192.7950  171.4330  141.6880 O   0  0  0  0  0  0  0  0  0  0  0  0
  195.6580  173.5520  145.7660 C   0  0  0  0  0  2  0  0  0  0  0  0
  192.6540  174.1400  142.8520 N   0  0  0  0  0  0  0  0  0  0  0  0
  194.2080  173.4180  145.3270 C   0  0  0  0  0  2  0  0  0  0  0  0
  191.4330  173.7810  142.1070 C   0  0  2  0  0  3  0  0  0  0  0  0
  196.0670  170.1920  142.4800 C   0  0  0  0  0  2  0  0  0  0  0  0
  195.1480  169.4360  143.2130 O   0  0  0  0  0  0  0  0  0  0  0  0
  196.0930  171.6010  142.9930 C   0  0  0  0  0  3  0  0  0  0  0  0
  193.5780  174.7850  145.0790 C   0  0  1  0  0  3  0  0  0  0  0  0
  190.3960  174.9170  142.0660 C   0  0  0  0  0  2  0  0  0  0  0  0
  192.3220  174.6250  144.2080 C   0  0  1  0  0  3  0  0  0  0  0  0
  196.6670  171.9570  144.1480 C   0  0  0  0  0  0  0  0  0  0  0  0
  191.4510  171.2230  142.0510 C   0  0  2  0  0  3  0  0  0  0  0  0
  196.5970  173.3880  144.5810 C   0  0  0  0  0  2  0  0  0  0  0  0
  194.2300  168.9830  142.2650 C   0  0  0  0  0  2  0  0  0  0  0  0
  191.4270  175.8650  144.1630 C   0  0  0  0  0  2  0  0  0  0  0  0
  190.8270  172.4850  142.6520 C   0  0  0  0  0  2  0  0  0  0  0  0
  194.0830  176.7980  146.5480 C   0  0  0  0  0  1  0  0  0  0  0  0
  193.2990  175.5000  146.4090 C   0  0  0  0  0  2  0  0  0  0  0  0
  193.3930  175.1530  142.0950 C   0  0  0  0  0  2  0  0  0  0  0  0
  194.5780  173.6210  140.7180 O   0  0  0  0  0  0  0  0  0  0  0  0
  194.6460  174.5670  141.5460 C   0  0  0  0  0  0  0  0  0  0  0  0
  196.1170  176.4730  142.0520 C   0  0  0  0  0  1  0  0  0  0  0  0
  195.8810  175.0770  141.9500 O   0  0  0  0  0  0  0  0  0  0  0  0
  189.1430  176.5890  143.3860 N   0  0  0  0  0  0  0  0  0  0  0  0
  189.2620  177.4800  144.5360 C   0  0  0  0  0  2  0  0  0  0  0  0
  188.2990  177.0440  145.6220 C   0  0  0  0  0  2  0  0  0  0  0  0
  189.0770  176.6860  146.8700 C   0  0  0  0  0  2  0  0  0  0  0  0
  189.0520  175.1850  147.0650 C   0  0  0  0  0  1  0  0  0  0  0  0
  187.7980  176.0270  143.4050 C   0  0  0  0  0  2  0  0  0  0  0  0
  187.0390  176.4250  142.1460 C   0  0  0  0  0  2  0  0  0  0  0  0
  186.1190  178.5960  142.9650 C   0  0  0  0  0  1  0  0  0  0  0  0
  185.7740  177.1980  142.4880 C   0  0  0  0  0  2  0  0  0  0  0  0
  3  1  1  6  0  0  0
  4 29  1  6  0  0  0
  4 20  1  0  0  0  0
  5 17  1  0  0  0  0
  5  3  1  0  0  0  0
  7 15  1  0  0  0  0
  8  6  1  0  0  0  0
  9 14  1  1  0  0  0
  9 21  1  0  0  0  0
  9  7  1  0  0  0  0
 10 12  1  0  0  0  0
 10 11  1  0  0  0  0
 12 16  2  0  0  0  0
 13  8  1  0  0  0  0
 13 23  1  1  0  0  0
 14  4  1  0  0  0  0
 15 20  1  6  0  0  0
 15 13  1  0  0  0  0
 16 18  1  0  0  0  0
 16  2  1  0  0  0  0
 17 21  1  1  0  0  0
 17  3  1  0  0  0  0
 18  6  1  0  0  0  0
 19  1  1  0  0  0  0
 19 11  1  0  0  0  0
 23 22  1  0  0  0  0
 24  7  1  0  0  0  0
 25 26  2  0  0  0  0
 26 28  1  0  0  0  0
 26 24  1  0  0  0  0
 28 27  1  0  0  0  0
 29 34  1  0  0  0  0
 29 30  1  0  0  0  0
 30 31  1  0  0  0  0
 31 32  1  0  0  0  0
 32 33  1  0  0  0  0
 35 37  1  0  0  0  0
 35 34  1  0  0  0  0
 37 36  1  0  0  0  0
M  END
>  <MODEL>
8

>  <REMARK>
 VINA RESULT:      -5.5      1.606      2.666
  Name = 
  11 active torsions:
  status: ('A' for Active; 'I' for Inactive)
    1  A    between atoms: C_1  and  C_23
    2  A    between atoms: C_1  and  N_33
    3  A    between atoms: C_4  and  N_10
    4  A    between atoms: C_4  and  C_24
    5  A    between atoms: C_5  and  C_23
    6  A    between atoms: C_7  and  N_33
    7  A    between atoms: C_17  and  C_26
    8  A    between atoms: C_17  and  N_33
    9  A    between atoms: C_20  and  C_25
   10  A    between atoms: C_24  and  O_28
   11  A    between atoms: C_26  and  C_34
                            x       y       z     vdW  Elec       q    Type
                         _______ _______ _______ _____ _____    ______ ____

>  <TORSDO>
F 11

$$$$
=
 OpenBabel11052420043D

 37 39  0  0  1  0  0  0  0  0999 V2000
  188.8790  177.5390  145.1140 C   0  0  0  0  0  2  0  0  0  0  0  0
  193.9210  176.3640  146.5470 C   0  0  0  0  0  1  0  0  0  0  0  0
  189.3060  176.5060  144.0820 C   0  0  1  0  0  3  0  0  0  0  0  0
  189.5360  173.6400  139.5700 C   0  0  1  0  0  3  0  0  0  0  0  0
  188.7810  175.2490  144.4260 O   0  0  0  0  0  0  0  0  0  0  0  0
  194.1330  175.1130  143.6250 C   0  0  0  0  0  2  0  0  0  0  0  0
  190.3220  173.7660  142.3950 N   0  0  0  0  0  0  0  0  0  0  0  0
  192.8570  175.3300  142.8280 C   0  0  0  0  0  2  0  0  0  0  0  0
  188.9070  173.9380  142.0160 C   0  0  2  0  0  3  0  0  0  0  0  0
  191.0620  175.8820  147.1220 C   0  0  0  0  0  2  0  0  0  0  0  0
  190.7720  177.1130  146.5270 O   0  0  0  0  0  0  0  0  0  0  0  0
  191.8620  175.0340  146.1780 C   0  0  0  0  0  3  0  0  0  0  0  0
  192.6860  174.2560  141.7590 C   0  0  1  0  0  3  0  0  0  0  0  0
  188.5540  173.2620  140.6810 C   0  0  0  0  0  2  0  0  0  0  0  0
  191.2180  174.2080  141.3060 C   0  0  1  0  0  3  0  0  0  0  0  0
  193.1550  175.2490  145.9060 C   0  0  0  0  0  0  0  0  0  0  0  0
  188.1190  175.9440  143.3950 C   0  0  2  0  0  3  0  0  0  0  0  0
  193.8420  174.3630  144.9160 C   0  0  0  0  0  2  0  0  0  0  0  0
  189.3780  177.1740  146.5080 C   0  0  0  0  0  2  0  0  0  0  0  0
  190.9830  173.4110  140.0200 C   0  0  0  0  0  2  0  0  0  0  0  0
  188.5230  175.4200  142.0150 C   0  0  0  0  0  2  0  0  0  0  0  0
  194.6580  173.3440  140.4390 C   0  0  0  0  0  1  0  0  0  0  0  0
  193.6650  174.4870  140.5990 C   0  0  0  0  0  2  0  0  0  0  0  0
  190.5560  172.3610  142.7340 C   0  0  0  0  0  2  0  0  0  0  0  0
  189.8610  172.4020  145.0060 O   0  0  0  0  0  0  0  0  0  0  0  0
  190.8080  172.2230  144.1940 C   0  0  0  0  0  0  0  0  0  0  0  0
  192.8430  170.8480  144.0510 C   0  0  0  0  0  1  0  0  0  0  0  0
  192.0860  171.8910  144.6460 O   0  0  0  0  0  0  0  0  0  0  0  0
  189.1890  172.9590  138.3110 N   0  0  0  0  0  0  0  0  0  0  0  0
  190.1560  171.9140  137.9890 C   0  0  0  0  0  2  0  0  0  0  0  0
  189.5260  170.5520  138.2010 C   0  0  0  0  0  2  0  0  0  0  0  0
  190.3820  169.4930  137.5410 C   0  0  0  0  0  2  0  0  0  0  0  0
  190.8520  169.9950  136.1920 C   0  0  0  0  0  1  0  0  0  0  0  0
  189.2190  173.9330  137.2270 C   0  0  0  0  0  2  0  0  0  0  0  0
  190.4180  173.6820  136.3210 C   0  0  0  0  0  2  0  0  0  0  0  0
  192.5830  174.7610  136.9370 C   0  0  0  0  0  1  0  0  0  0  0  0
  191.2760  174.9310  136.1850 C   0  0  0  0  0  2  0  0  0  0  0  0
  1 19  1  0  0  0  0
  3  5  1  0  0  0  0
  3  1  1  1  0  0  0
  4 29  1  6  0  0  0
  4 20  1  0  0  0  0
  4 14  1  0  0  0  0
  6 18  1  0  0  0  0
  7 24  1  0  0  0  0
  8  6  1  0  0  0  0
  9 14  1  6  0  0  0
  9  7  1  0  0  0  0
 11 10  1  0  0  0  0
 12 10  1  0  0  0  0
 13 23  1  6  0  0  0
 13  8  1  0  0  0  0
 15 20  1  6  0  0  0
 15 13  1  0  0  0  0
 15  7  1  0  0  0  0
 16 12  2  0  0  0  0
 16  2  1  0  0  0  0
 17 21  1  6  0  0  0
 17  3  1  0  0  0  0
 17  5  1  0  0  0  0
 18 16  1  0  0  0  0
 19 11  1  0  0  0  0
 21  9  1  0  0  0  0
 22 23  1  0  0  0  0
 24 26  1  0  0  0  0
 26 28  1  0  0  0  0
 26 25  2  0  0  0  0
 27 28  1  0  0  0  0
 30 31  1  0  0  0  0
 30 29  1  0  0  0  0
 32 31  1  0  0  0  0
 33 32  1  0  0  0  0
 34 29  1  0  0  0  0
 35 34  1  0  0  0  0
 37 35  1  0  0  0  0
 37 36  1  0  0  0  0
M  END
>  <MODEL>
9

>  <REMARK>
 VINA RESULT:      -5.5      3.544      6.992
  Name = 
  11 active torsions:
  status: ('A' for Active; 'I' for Inactive)
    1  A    between atoms: C_1  and  C_23
    2  A    between atoms: C_1  and  N_33
    3  A    between atoms: C_4  and  N_10
    4  A    between atoms: C_4  and  C_24
    5  A    between atoms: C_5  and  C_23
    6  A    between atoms: C_7  and  N_33
    7  A    between atoms: C_17  and  C_26
    8  A    between atoms: C_17  and  N_33
    9  A    between atoms: C_20  and  C_25
   10  A    between atoms: C_24  and  O_28
   11  A    between atoms: C_26  and  C_34
                            x       y       z     vdW  Elec       q    Type
                         _______ _______ _______ _____ _____    ______ ____

>  <TORSDO>
F 11

$$$$
