=
 OpenBabel11052418303D

 27 31  0  0  0  0  0  0  0  0999 V2000
  187.8980  177.5470  143.2910 N   0  0  0  0  0  0  0  0  0  0  0  0
  186.8110  177.6820  142.4570 C   0  0  0  0  0  0  0  0  0  0  0  0
  185.3580  178.0370  144.3840 C   0  0  0  0  0  0  0  0  0  0  0  0
  183.4460  178.1300  140.1190 N   0  0  0  0  0  0  0  0  0  0  0  0
  181.1420  178.5820  140.9840 C   0  0  0  0  0  1  0  0  0  0  0  0
  186.9540  177.5710  141.0450 C   0  0  0  0  0  3  0  0  0  0  0  0
  183.1890  178.3030  142.3400 O   0  0  0  0  0  0  0  0  0  0  0  0
  187.3860  177.7750  147.4670 C   0  0  0  0  0  3  0  0  0  0  0  0
  184.2190  178.2720  144.8780 O   0  0  0  0  0  0  0  0  0  0  0  0
  188.6430  177.4970  146.9430 C   0  0  0  0  0  3  0  0  0  0  0  0
  184.4530  178.0690  142.0990 C   0  0  0  0  0  0  0  0  0  0  0  0
  182.5980  178.3370  141.1600 C   0  0  0  0  0  0  0  0  0  0  0  0
  184.6200  177.9620  140.7510 C   0  0  0  0  0  0  0  0  0  0  0  0
  187.7490  177.6060  144.6640 C   0  0  0  0  0  0  0  0  0  0  0  0
  185.5200  177.9330  142.9990 C   0  0  0  0  0  0  0  0  0  0  0  0
  186.3040  177.9560  146.6120 C   0  0  0  0  0  3  0  0  0  0  0  0
  185.8580  177.7110  140.1780 C   0  0  0  0  0  3  0  0  0  0  0  0
  190.0870  177.1010  145.1390 F   0  0  0  0  0  0  0  0  0  0  0  0
  188.8370  177.4060  145.5630 C   0  0  0  0  0  0  0  0  0  0  0  0
  186.4670  177.8690  145.2220 C   0  0  0  0  0  0  0  0  0  0  0  0
  189.2270  177.3720  142.6850 C   0  0  0  0  0  2  0  0  0  0  0  0
  190.2870  173.2450  142.4020 C   0  0  0  0  0  3  0  0  0  0  0  0
  189.5810  175.9220  142.5840 C   0  0  0  0  0  0  0  0  0  0  0  0
  190.9070  175.5370  142.3730 C   0  0  0  0  0  3  0  0  0  0  0  0
  191.2310  174.2190  142.2870 N   0  0  0  0  0  0  0  0  0  0  0  0
  188.9500  173.5870  142.6140 C   0  0  0  0  0  3  0  0  0  0  0  0
  188.5980  174.9340  142.7040 C   0  0  0  0  0  3  0  0  0  0  0  0
  1 14  1  0  0  0  0
  2 15  1  0  0  0  0
  2  1  1  0  0  0  0
  3  9  2  0  0  0  0
  3 20  1  0  0  0  0
  4 13  1  0  0  0  0
  4 12  2  0  0  0  0
  5 12  1  0  0  0  0
  6  2  2  0  0  0  0
 10  8  1  0  0  0  0
 11  7  1  0  0  0  0
 11 15  2  0  0  0  0
 12  7  1  0  0  0  0
 13 11  1  0  0  0  0
 14 20  2  0  0  0  0
 14 19  1  0  0  0  0
 15  3  1  0  0  0  0
 16  8  2  0  0  0  0
 17 13  2  0  0  0  0
 17  6  1  0  0  0  0
 18 19  1  0  0  0  0
 19 10  2  0  0  0  0
 20 16  1  0  0  0  0
 21  1  1  0  0  0  0
 22 26  1  0  0  0  0
 23 21  1  0  0  0  0
 23 27  1  0  0  0  0
 24 23  2  0  0  0  0
 25 24  1  0  0  0  0
 25 22  2  0  0  0  0
 26 27  2  0  0  0  0
M  END
>  <MODEL>
1

>  <REMARK>
 VINA RESULT:      -8.3      0.000      0.000
  Name = 
  2 active torsions:
  status: ('A' for Active; 'I' for Inactive)
    1  A    between atoms: N_1  and  C_15
    2  A    between atoms: C_9  and  C_15
                            x       y       z     vdW  Elec       q    Type
                         _______ _______ _______ _____ _____    ______ ____

>  <TORSDO>
F 2

$$$$
=
 OpenBabel11052418303D

 27 31  0  0  0  0  0  0  0  0999 V2000
  188.1800  176.0270  144.3160 N   0  0  0  0  0  0  0  0  0  0  0  0
  188.5220  175.2210  143.2540 C   0  0  0  0  0  0  0  0  0  0  0  0
  187.3020  176.6820  141.7290 C   0  0  0  0  0  0  0  0  0  0  0  0
  189.4640  172.9370  139.9540 N   0  0  0  0  0  0  0  0  0  0  0  0
  188.7490  173.4330  137.6080 C   0  0  0  0  0  1  0  0  0  0  0  0
  189.3130  174.0530  143.4480 C   0  0  0  0  0  3  0  0  0  0  0  0
  188.2110  174.7660  139.6190 O   0  0  0  0  0  0  0  0  0  0  0  0
  185.7430  179.4060  143.6870 C   0  0  0  0  0  3  0  0  0  0  0  0
  186.9180  176.9880  140.5650 O   0  0  0  0  0  0  0  0  0  0  0  0
  186.1400  179.0760  144.9770 C   0  0  0  0  0  3  0  0  0  0  0  0
  188.4740  174.6890  140.8970 C   0  0  0  0  0  0  0  0  0  0  0  0
  188.8010  173.7220  139.0660 C   0  0  0  0  0  0  0  0  0  0  0  0
  189.2360  173.5800  141.1120 C   0  0  0  0  0  0  0  0  0  0  0  0
  187.3710  177.1340  144.1320 C   0  0  0  0  0  0  0  0  0  0  0  0
  188.0860  175.5440  141.9390 C   0  0  0  0  0  0  0  0  0  0  0  0
  186.1360  178.6100  142.6160 C   0  0  0  0  0  3  0  0  0  0  0  0
  189.6780  173.2210  142.3770 C   0  0  0  0  0  3  0  0  0  0  0  0
  187.2530  177.6890  146.5030 F   0  0  0  0  0  0  0  0  0  0  0  0
  186.9390  177.9550  145.2130 C   0  0  0  0  0  0  0  0  0  0  0  0
  186.9360  177.4770  142.8210 C   0  0  0  0  0  0  0  0  0  0  0  0
  188.7210  175.7030  145.6440 C   0  0  0  0  0  2  0  0  0  0  0  0
  192.9190  176.4720  145.7710 C   0  0  0  0  0  3  0  0  0  0  0  0
  190.1940  175.9560  145.6970 C   0  0  0  0  0  0  0  0  0  0  0  0
  190.7530  176.9950  144.9480 C   0  0  0  0  0  3  0  0  0  0  0  0
  192.0920  177.2300  144.9990 N   0  0  0  0  0  0  0  0  0  0  0  0
  192.3990  175.4250  146.5350 C   0  0  0  0  0  3  0  0  0  0  0  0
  191.0290  175.1670  146.4940 C   0  0  0  0  0  3  0  0  0  0  0  0
  1 21  1  0  0  0  0
  2  6  1  0  0  0  0
  2  1  1  0  0  0  0
  3 15  1  0  0  0  0
  3 20  1  0  0  0  0
  4 13  1  0  0  0  0
  5 12  1  0  0  0  0
  7 11  1  0  0  0  0
  8 10  1  0  0  0  0
  9  3  2  0  0  0  0
 10 19  2  0  0  0  0
 11 13  2  0  0  0  0
 11 15  1  0  0  0  0
 12  7  1  0  0  0  0
 12  4  2  0  0  0  0
 13 17  1  0  0  0  0
 14  1  1  0  0  0  0
 14 19  1  0  0  0  0
 15  2  2  0  0  0  0
 16 20  1  0  0  0  0
 16  8  2  0  0  0  0
 17  6  2  0  0  0  0
 19 18  1  0  0  0  0
 20 14  2  0  0  0  0
 21 23  1  0  0  0  0
 22 26  1  0  0  0  0
 23 27  1  0  0  0  0
 24 25  1  0  0  0  0
 24 23  2  0  0  0  0
 25 22  2  0  0  0  0
 27 26  2  0  0  0  0
M  END
>  <MODEL>
2

>  <REMARK>
 VINA RESULT:      -7.8      2.821      4.963
  Name = 
  2 active torsions:
  status: ('A' for Active; 'I' for Inactive)
    1  A    between atoms: N_1  and  C_15
    2  A    between atoms: C_9  and  C_15
                            x       y       z     vdW  Elec       q    Type
                         _______ _______ _______ _____ _____    ______ ____

>  <TORSDO>
F 2

$$$$
=
 OpenBabel11052418303D

 27 31  0  0  0  0  0  0  0  0999 V2000
  188.0860  176.8930  143.5470 N   0  0  0  0  0  0  0  0  0  0  0  0
  189.4500  176.8460  143.7230 C   0  0  0  0  0  0  0  0  0  0  0  0
  189.1570  176.9140  146.1440 C   0  0  0  0  0  0  0  0  0  0  0  0
  193.5060  176.6940  144.4450 N   0  0  0  0  0  0  0  0  0  0  0  0
  194.5660  176.6930  146.7110 C   0  0  0  0  0  1  0  0  0  0  0  0
  190.3300  176.7920  142.6050 C   0  0  0  0  0  3  0  0  0  0  0  0
  192.1450  176.7850  146.2240 O   0  0  0  0  0  0  0  0  0  0  0  0
  185.5440  177.1650  146.8960 C   0  0  0  0  0  3  0  0  0  0  0  0
  189.6350  176.9090  147.3140 O   0  0  0  0  0  0  0  0  0  0  0  0
  185.0000  177.1900  145.6170 C   0  0  0  0  0  3  0  0  0  0  0  0
  191.4010  176.7950  145.1490 C   0  0  0  0  0  0  0  0  0  0  0  0
  193.3930  176.7260  145.7980 C   0  0  0  0  0  0  0  0  0  0  0  0
  192.2190  176.7400  144.0610 C   0  0  0  0  0  0  0  0  0  0  0  0
  187.2350  176.9940  144.6330 C   0  0  0  0  0  0  0  0  0  0  0  0
  190.0040  176.8530  145.0340 C   0  0  0  0  0  0  0  0  0  0  0  0
  186.9210  177.0690  147.0610 C   0  0  0  0  0  3  0  0  0  0  0  0
  191.7240  176.7370  142.7640 C   0  0  0  0  0  3  0  0  0  0  0  0
  185.2130  177.1760  143.2830 F   0  0  0  0  0  0  0  0  0  0  0  0
  185.8220  177.1120  144.4910 C   0  0  0  0  0  0  0  0  0  0  0  0
  187.7730  176.9900  145.9500 C   0  0  0  0  0  0  0  0  0  0  0  0
  187.5530  176.7980  142.1800 C   0  0  0  0  0  2  0  0  0  0  0  0
  188.2270  172.9240  140.5150 C   0  0  0  0  0  3  0  0  0  0  0  0
  187.7810  175.4330  141.6110 C   0  0  0  0  0  0  0  0  0  0  0  0
  188.1910  175.2880  140.2840 C   0  0  0  0  0  3  0  0  0  0  0  0
  188.4040  174.0480  139.7660 N   0  0  0  0  0  0  0  0  0  0  0  0
  187.8190  173.0270  141.8460 C   0  0  0  0  0  3  0  0  0  0  0  0
  187.5940  174.2900  142.3940 C   0  0  0  0  0  3  0  0  0  0  0  0
  1  2  1  0  0  0  0
  1 14  1  0  0  0  0
  2 15  1  0  0  0  0
  3  9  2  0  0  0  0
  4 12  2  0  0  0  0
  6 17  1  0  0  0  0
  6  2  2  0  0  0  0
  8 16  1  0  0  0  0
 10  8  2  0  0  0  0
 11  7  1  0  0  0  0
 12  7  1  0  0  0  0
 12  5  1  0  0  0  0
 13  4  1  0  0  0  0
 13 11  1  0  0  0  0
 14 20  1  0  0  0  0
 15 11  2  0  0  0  0
 15  3  1  0  0  0  0
 17 13  2  0  0  0  0
 18 19  1  0  0  0  0
 19 14  2  0  0  0  0
 19 10  1  0  0  0  0
 20  3  1  0  0  0  0
 20 16  2  0  0  0  0
 21  1  1  0  0  0  0
 22 26  1  0  0  0  0
 23 21  1  0  0  0  0
 23 27  1  0  0  0  0
 24 23  2  0  0  0  0
 25 24  1  0  0  0  0
 25 22  2  0  0  0  0
 26 27  2  0  0  0  0
M  END
>  <MODEL>
3

>  <REMARK>
 VINA RESULT:      -7.7      3.326      5.966
  Name = 
  2 active torsions:
  status: ('A' for Active; 'I' for Inactive)
    1  A    between atoms: N_1  and  C_15
    2  A    between atoms: C_9  and  C_15
                            x       y       z     vdW  Elec       q    Type
                         _______ _______ _______ _____ _____    ______ ____

>  <TORSDO>
F 2

$$$$
=
 OpenBabel11052418303D

 27 31  0  0  0  0  0  0  0  0999 V2000
  189.7390  174.6510  144.0110 N   0  0  0  0  0  0  0  0  0  0  0  0
  188.8600  175.4390  144.7190 C   0  0  0  0  0  0  0  0  0  0  0  0
  187.5360  175.8040  142.7040 C   0  0  0  0  0  0  0  0  0  0  0  0
  186.1170  177.8100  146.6810 N   0  0  0  0  0  0  0  0  0  0  0  0
  184.1160  178.8740  145.6220 C   0  0  0  0  0  1  0  0  0  0  0  0
  189.0550  175.6830  146.1090 C   0  0  0  0  0  3  0  0  0  0  0  0
  185.7900  177.4480  144.4920 O   0  0  0  0  0  0  0  0  0  0  0  0
  189.1670  174.0610  139.8780 C   0  0  0  0  0  3  0  0  0  0  0  0
  186.5380  176.3100  142.1160 O   0  0  0  0  0  0  0  0  0  0  0  0
  190.2810  173.5120  140.5030 C   0  0  0  0  0  3  0  0  0  0  0  0
  186.8760  176.8120  144.8460 C   0  0  0  0  0  0  0  0  0  0  0  0
  185.3460  178.0390  145.5870 C   0  0  0  0  0  0  0  0  0  0  0  0
  187.0840  177.0250  146.1750 C   0  0  0  0  0  0  0  0  0  0  0  0
  189.5750  174.4550  142.6510 C   0  0  0  0  0  0  0  0  0  0  0  0
  187.7390  176.0260  144.0690 C   0  0  0  0  0  0  0  0  0  0  0  0
  188.2610  174.8160  140.6160 C   0  0  0  0  0  3  0  0  0  0  0  0
  188.1660  176.4780  146.8500 C   0  0  0  0  0  3  0  0  0  0  0  0
  191.6240  173.1590  142.3910 F   0  0  0  0  0  0  0  0  0  0  0  0
  190.4980  173.7020  141.8690 C   0  0  0  0  0  0  0  0  0  0  0  0
  188.4530  175.0250  141.9890 C   0  0  0  0  0  0  0  0  0  0  0  0
  190.8350  173.9950  144.7390 C   0  0  0  0  0  2  0  0  0  0  0  0
  193.9260  176.8110  145.6080 C   0  0  0  0  0  3  0  0  0  0  0  0
  191.9230  174.9720  145.0580 C   0  0  0  0  0  0  0  0  0  0  0  0
  192.3130  175.9200  144.1090 C   0  0  0  0  0  3  0  0  0  0  0  0
  193.2980  176.8120  144.4000 N   0  0  0  0  0  0  0  0  0  0  0  0
  193.5640  175.8800  146.5840 C   0  0  0  0  0  3  0  0  0  0  0  0
  192.5570  174.9560  146.3040 C   0  0  0  0  0  3  0  0  0  0  0  0
  1  2  1  0  0  0  0
  1 21  1  0  0  0  0
  2  6  1  0  0  0  0
  3 15  1  0  0  0  0
  6 17  2  0  0  0  0
  7 11  1  0  0  0  0
  7 12  1  0  0  0  0
  8 10  2  0  0  0  0
  8 16  1  0  0  0  0
  9  3  2  0  0  0  0
 10 19  1  0  0  0  0
 11 13  2  0  0  0  0
 12  5  1  0  0  0  0
 12  4  2  0  0  0  0
 13  4  1  0  0  0  0
 13 17  1  0  0  0  0
 14  1  1  0  0  0  0
 15  2  2  0  0  0  0
 15 11  1  0  0  0  0
 16 20  2  0  0  0  0
 19 18  1  0  0  0  0
 19 14  2  0  0  0  0
 20 14  1  0  0  0  0
 20  3  1  0  0  0  0
 21 23  1  0  0  0  0
 22 26  1  0  0  0  0
 23 27  1  0  0  0  0
 24 25  1  0  0  0  0
 24 23  2  0  0  0  0
 25 22  2  0  0  0  0
 27 26  2  0  0  0  0
M  END
>  <MODEL>
4

>  <REMARK>
 VINA RESULT:      -7.7      3.022      5.307
  Name = 
  2 active torsions:
  status: ('A' for Active; 'I' for Inactive)
    1  A    between atoms: N_1  and  C_15
    2  A    between atoms: C_9  and  C_15
                            x       y       z     vdW  Elec       q    Type
                         _______ _______ _______ _____ _____    ______ ____

>  <TORSDO>
F 2

$$$$
=
 OpenBabel11052418303D

 27 31  0  0  0  0  0  0  0  0999 V2000
  189.3820  176.6800  144.2760 N   0  0  0  0  0  0  0  0  0  0  0  0
  189.0680  176.0620  143.0870 C   0  0  0  0  0  0  0  0  0  0  0  0
  190.5630  174.2140  143.6350 C   0  0  0  0  0  0  0  0  0  0  0  0
  188.2360  174.0560  139.5840 N   0  0  0  0  0  0  0  0  0  0  0  0
  189.2170  171.8520  138.9180 C   0  0  0  0  0  1  0  0  0  0  0  0
  188.1540  176.6580  142.1720 C   0  0  0  0  0  3  0  0  0  0  0  0
  189.6830  173.0970  141.0030 O   0  0  0  0  0  0  0  0  0  0  0  0
  192.1790  174.9160  146.8880 C   0  0  0  0  0  3  0  0  0  0  0  0
  191.0840  173.0970  143.3560 O   0  0  0  0  0  0  0  0  0  0  0  0
  191.6290  176.1530  147.2030 C   0  0  0  0  0  3  0  0  0  0  0  0
  189.2920  174.2260  141.5320 C   0  0  0  0  0  0  0  0  0  0  0  0
  189.0520  173.0030  139.8460 C   0  0  0  0  0  0  0  0  0  0  0  0
  188.4110  174.8180  140.6770 C   0  0  0  0  0  0  0  0  0  0  0  0
  190.3060  176.1230  145.1410 C   0  0  0  0  0  0  0  0  0  0  0  0
  189.6570  174.8110  142.7530 C   0  0  0  0  0  0  0  0  0  0  0  0
  191.8170  174.2790  145.7050 C   0  0  0  0  0  3  0  0  0  0  0  0
  187.8170  176.0400  140.9570 C   0  0  0  0  0  3  0  0  0  0  0  0
  190.2470  177.9830  146.7180 F   0  0  0  0  0  0  0  0  0  0  0  0
  190.7080  176.7630  146.3490 C   0  0  0  0  0  0  0  0  0  0  0  0
  190.8960  174.8670  144.8270 C   0  0  0  0  0  0  0  0  0  0  0  0
  188.6870  177.9290  144.6210 C   0  0  0  0  0  2  0  0  0  0  0  0
  184.8260  177.1410  146.2660 C   0  0  0  0  0  3  0  0  0  0  0  0
  187.3420  177.6470  145.2120 C   0  0  0  0  0  0  0  0  0  0  0  0
  186.1930  178.1790  144.6240 C   0  0  0  0  0  3  0  0  0  0  0  0
  184.9690  177.9190  145.1580 N   0  0  0  0  0  0  0  0  0  0  0  0
  185.9500  176.5900  146.8830 C   0  0  0  0  0  3  0  0  0  0  0  0
  187.2150  176.8470  146.3520 C   0  0  0  0  0  3  0  0  0  0  0  0
  1 21  1  0  0  0  0
  1 14  1  0  0  0  0
  2  1  1  0  0  0  0
  3 20  1  0  0  0  0
  4 12  2  0  0  0  0
  4 13  1  0  0  0  0
  5 12  1  0  0  0  0
  6  2  2  0  0  0  0
  7 11  1  0  0  0  0
  8 10  1  0  0  0  0
  9  3  2  0  0  0  0
 11 15  2  0  0  0  0
 12  7  1  0  0  0  0
 13 17  2  0  0  0  0
 13 11  1  0  0  0  0
 14 19  1  0  0  0  0
 15  2  1  0  0  0  0
 15  3  1  0  0  0  0
 16  8  2  0  0  0  0
 17  6  1  0  0  0  0
 19 18  1  0  0  0  0
 19 10  2  0  0  0  0
 20 14  2  0  0  0  0
 20 16  1  0  0  0  0
 21 23  1  0  0  0  0
 22 26  1  0  0  0  0
 23 27  1  0  0  0  0
 24 25  1  0  0  0  0
 24 23  2  0  0  0  0
 25 22  2  0  0  0  0
 27 26  2  0  0  0  0
M  END
>  <MODEL>
5

>  <REMARK>
 VINA RESULT:      -7.6      3.415      5.744
  Name = 
  2 active torsions:
  status: ('A' for Active; 'I' for Inactive)
    1  A    between atoms: N_1  and  C_15
    2  A    between atoms: C_9  and  C_15
                            x       y       z     vdW  Elec       q    Type
                         _______ _______ _______ _____ _____    ______ ____

>  <TORSDO>
F 2

$$$$
=
 OpenBabel11052418303D

 27 31  0  0  0  0  0  0  0  0999 V2000
  190.1450  176.0470  143.9650 N   0  0  0  0  0  0  0  0  0  0  0  0
  188.8280  176.4420  143.8980 C   0  0  0  0  0  0  0  0  0  0  0  0
  188.8930  177.1150  146.2420 C   0  0  0  0  0  0  0  0  0  0  0  0
  184.9010  177.6940  143.8790 N   0  0  0  0  0  0  0  0  0  0  0  0
  183.6910  178.6710  145.8390 C   0  0  0  0  0  1  0  0  0  0  0  0
  188.0870  176.3130  142.6880 C   0  0  0  0  0  3  0  0  0  0  0  0
  186.0410  177.9040  145.7980 O   0  0  0  0  0  0  0  0  0  0  0  0
  192.2460  176.3540  147.6040 C   0  0  0  0  0  3  0  0  0  0  0  0
  188.3360  177.6090  147.2630 O   0  0  0  0  0  0  0  0  0  0  0  0
  192.8690  175.7910  146.4960 C   0  0  0  0  0  3  0  0  0  0  0  0
  186.8440  177.3800  144.9100 C   0  0  0  0  0  0  0  0  0  0  0  0
  184.8890  178.0870  145.1790 C   0  0  0  0  0  0  0  0  0  0  0  0
  186.1610  177.2480  143.7380 C   0  0  0  0  0  0  0  0  0  0  0  0
  190.8480  176.1280  145.1530 C   0  0  0  0  0  0  0  0  0  0  0  0
  188.1840  176.9870  145.0430 C   0  0  0  0  0  0  0  0  0  0  0  0
  190.9300  176.7930  147.5100 C   0  0  0  0  0  3  0  0  0  0  0  0
  186.7450  176.7160  142.5980 C   0  0  0  0  0  3  0  0  0  0  0  0
  192.8620  175.0800  144.2630 F   0  0  0  0  0  0  0  0  0  0  0  0
  192.1910  175.6690  145.2820 C   0  0  0  0  0  0  0  0  0  0  0  0
  190.2220  176.6830  146.3050 C   0  0  0  0  0  0  0  0  0  0  0  0
  190.7960  175.5680  142.7370 C   0  0  0  0  0  2  0  0  0  0  0  0
  189.6910  171.5410  141.8430 C   0  0  0  0  0  3  0  0  0  0  0  0
  190.4030  174.1550  142.4410 C   0  0  0  0  0  0  0  0  0  0  0  0
  190.3360  173.7090  141.1190 C   0  0  0  0  0  3  0  0  0  0  0  0
  189.9840  172.4230  140.8480 N   0  0  0  0  0  0  0  0  0  0  0  0
  189.7480  171.9470  143.1780 C   0  0  0  0  0  3  0  0  0  0  0  0
  190.1050  173.2620  143.4750 C   0  0  0  0  0  3  0  0  0  0  0  0
  1 14  1  0  0  0  0
  2  1  1  0  0  0  0
  2 15  1  0  0  0  0
  3 20  1  0  0  0  0
  3  9  2  0  0  0  0
  4 12  2  0  0  0  0
  6  2  2  0  0  0  0
 10  8  2  0  0  0  0
 11 15  2  0  0  0  0
 11  7  1  0  0  0  0
 12  7  1  0  0  0  0
 12  5  1  0  0  0  0
 13  4  1  0  0  0  0
 13 11  1  0  0  0  0
 14 19  2  0  0  0  0
 14 20  1  0  0  0  0
 15  3  1  0  0  0  0
 16  8  1  0  0  0  0
 17  6  1  0  0  0  0
 17 13  2  0  0  0  0
 18 19  1  0  0  0  0
 19 10  1  0  0  0  0
 20 16  2  0  0  0  0
 21  1  1  0  0  0  0
 22 26  1  0  0  0  0
 23 21  1  0  0  0  0
 23 27  1  0  0  0  0
 24 23  2  0  0  0  0
 25 24  1  0  0  0  0
 25 22  2  0  0  0  0
 26 27  2  0  0  0  0
M  END
>  <MODEL>
6

>  <REMARK>
 VINA RESULT:      -7.5      2.495      3.627
  Name = 
  2 active torsions:
  status: ('A' for Active; 'I' for Inactive)
    1  A    between atoms: N_1  and  C_15
    2  A    between atoms: C_9  and  C_15
                            x       y       z     vdW  Elec       q    Type
                         _______ _______ _______ _____ _____    ______ ____

>  <TORSDO>
F 2

$$$$
=
 OpenBabel11052418303D

 27 31  0  0  0  0  0  0  0  0999 V2000
  187.7820  176.1400  143.6210 N   0  0  0  0  0  0  0  0  0  0  0  0
  187.8270  175.7590  142.2990 C   0  0  0  0  0  0  0  0  0  0  0  0
  186.3860  177.6310  141.6930 C   0  0  0  0  0  0  0  0  0  0  0  0
  187.8630  174.7790  138.2960 N   0  0  0  0  0  0  0  0  0  0  0  0
  186.6700  176.0400  136.4940 C   0  0  0  0  0  1  0  0  0  0  0  0
  188.5700  174.6130  141.8940 C   0  0  0  0  0  3  0  0  0  0  0  0
  186.6800  176.5840  138.9060 O   0  0  0  0  0  0  0  0  0  0  0  0
  185.4740  179.4740  144.7680 C   0  0  0  0  0  3  0  0  0  0  0  0
  185.7690  178.3120  140.8250 O   0  0  0  0  0  0  0  0  0  0  0  0
  186.1310  178.7260  145.7380 C   0  0  0  0  0  3  0  0  0  0  0  0
  187.2190  176.0740  139.9830 C   0  0  0  0  0  0  0  0  0  0  0  0
  187.0660  175.8080  137.9090 C   0  0  0  0  0  0  0  0  0  0  0  0
  187.9400  174.9760  139.6230 C   0  0  0  0  0  0  0  0  0  0  0  0
  187.0200  177.2240  144.0200 C   0  0  0  0  0  0  0  0  0  0  0  0
  187.1270  176.5070  141.3130 C   0  0  0  0  0  0  0  0  0  0  0  0
  185.5680  179.1060  143.4290 C   0  0  0  0  0  3  0  0  0  0  0  0
  188.6340  174.2120  140.5500 C   0  0  0  0  0  3  0  0  0  0  0  0
  187.4730  176.9210  146.3960 F   0  0  0  0  0  0  0  0  0  0  0  0
  186.8930  177.6110  145.3850 C   0  0  0  0  0  0  0  0  0  0  0  0
  186.3240  177.9900  143.0440 C   0  0  0  0  0  0  0  0  0  0  0  0
  188.5870  175.3880  144.5950 C   0  0  0  0  0  2  0  0  0  0  0  0
  192.6150  176.8000  144.7200 C   0  0  0  0  0  3  0  0  0  0  0  0
  189.9920  175.8990  144.6340 C   0  0  0  0  0  0  0  0  0  0  0  0
  190.9980  175.1390  145.2350 C   0  0  0  0  0  3  0  0  0  0  0  0
  192.2780  175.6000  145.2660 N   0  0  0  0  0  0  0  0  0  0  0  0
  191.6390  177.5900  144.1090 C   0  0  0  0  0  3  0  0  0  0  0  0
  190.3210  177.1350  144.0680 C   0  0  0  0  0  3  0  0  0  0  0  0
  1 14  1  0  0  0  0
  1 21  1  0  0  0  0
  2  1  1  0  0  0  0
  3 20  1  0  0  0  0
  4 13  1  0  0  0  0
  5 12  1  0  0  0  0
  6  2  1  0  0  0  0
  7 11  1  0  0  0  0
  8 10  1  0  0  0  0
  9  3  2  0  0  0  0
 11 15  1  0  0  0  0
 12  4  2  0  0  0  0
 12  7  1  0  0  0  0
 13 11  2  0  0  0  0
 13 17  1  0  0  0  0
 14 19  1  0  0  0  0
 15  3  1  0  0  0  0
 15  2  2  0  0  0  0
 16  8  2  0  0  0  0
 17  6  2  0  0  0  0
 19 10  2  0  0  0  0
 19 18  1  0  0  0  0
 20 16  1  0  0  0  0
 20 14  2  0  0  0  0
 21 23  1  0  0  0  0
 22 25  1  0  0  0  0
 23 24  1  0  0  0  0
 24 25  2  0  0  0  0
 26 22  2  0  0  0  0
 27 26  1  0  0  0  0
 27 23  2  0  0  0  0
M  END
>  <MODEL>
7

>  <REMARK>
 VINA RESULT:      -7.5      2.579      3.900
  Name = 
  2 active torsions:
  status: ('A' for Active; 'I' for Inactive)
    1  A    between atoms: N_1  and  C_15
    2  A    between atoms: C_9  and  C_15
                            x       y       z     vdW  Elec       q    Type
                         _______ _______ _______ _____ _____    ______ ____

>  <TORSDO>
F 2

$$$$
=
 OpenBabel11052418303D

 27 31  0  0  0  0  0  0  0  0999 V2000
  187.2620  178.0550  143.7870 N   0  0  0  0  0  0  0  0  0  0  0  0
  188.0730  176.9940  143.4520 C   0  0  0  0  0  0  0  0  0  0  0  0
  187.8920  176.1180  145.7210 C   0  0  0  0  0  0  0  0  0  0  0  0
  190.4700  173.7430  142.6280 N   0  0  0  0  0  0  0  0  0  0  0  0
  191.0830  171.9540  144.2660 C   0  0  0  0  0  1  0  0  0  0  0  0
  188.6040  176.8660  142.1370 C   0  0  0  0  0  3  0  0  0  0  0  0
  189.6540  173.9220  144.7090 O   0  0  0  0  0  0  0  0  0  0  0  0
  185.8170  178.4330  147.7270 C   0  0  0  0  0  3  0  0  0  0  0  0
  188.1610  175.2400  146.5890 O   0  0  0  0  0  0  0  0  0  0  0  0
  185.5250  179.4170  146.7900 C   0  0  0  0  0  3  0  0  0  0  0  0
  189.2200  174.9440  144.0190 C   0  0  0  0  0  0  0  0  0  0  0  0
  190.3950  173.2140  143.8770 C   0  0  0  0  0  0  0  0  0  0  0  0
  189.7110  174.8450  142.7520 C   0  0  0  0  0  0  0  0  0  0  0  0
  186.7880  178.2030  145.0780 C   0  0  0  0  0  0  0  0  0  0  0  0
  188.3970  176.0050  144.4220 C   0  0  0  0  0  0  0  0  0  0  0  0
  186.5990  177.3410  147.3630 C   0  0  0  0  0  3  0  0  0  0  0  0
  189.4280  175.7890  141.7740 C   0  0  0  0  0  3  0  0  0  0  0  0
  185.6970  180.3400  144.6420 F   0  0  0  0  0  0  0  0  0  0  0  0
  186.0010  179.3200  145.4810 C   0  0  0  0  0  0  0  0  0  0  0  0
  187.0920  177.2160  146.0560 C   0  0  0  0  0  0  0  0  0  0  0  0
  186.8850  179.0080  142.7330 C   0  0  0  0  0  2  0  0  0  0  0  0
  183.3530  177.7300  140.7010 C   0  0  0  0  0  3  0  0  0  0  0  0
  185.6380  178.5660  142.0350 C   0  0  0  0  0  0  0  0  0  0  0  0
  185.6770  178.2210  140.6820 C   0  0  0  0  0  3  0  0  0  0  0  0
  184.5440  177.8140  140.0470 N   0  0  0  0  0  0  0  0  0  0  0  0
  183.2720  178.0660  142.0540 C   0  0  0  0  0  3  0  0  0  0  0  0
  184.4220  178.4870  142.7220 C   0  0  0  0  0  3  0  0  0  0  0  0
  1 14  1  0  0  0  0
  2  1  1  0  0  0  0
  2 15  1  0  0  0  0
  3 20  1  0  0  0  0
  3  9  2  0  0  0  0
  4 13  1  0  0  0  0
  4 12  2  0  0  0  0
  6  2  2  0  0  0  0
 10  8  2  0  0  0  0
 11 15  2  0  0  0  0
 11  7  1  0  0  0  0
 12  5  1  0  0  0  0
 12  7  1  0  0  0  0
 13 11  1  0  0  0  0
 14 19  2  0  0  0  0
 14 20  1  0  0  0  0
 15  3  1  0  0  0  0
 16  8  1  0  0  0  0
 17  6  1  0  0  0  0
 17 13  2  0  0  0  0
 18 19  1  0  0  0  0
 19 10  1  0  0  0  0
 20 16  2  0  0  0  0
 21  1  1  0  0  0  0
 22 26  1  0  0  0  0
 23 27  1  0  0  0  0
 23 21  1  0  0  0  0
 24 23  2  0  0  0  0
 25 24  1  0  0  0  0
 25 22  2  0  0  0  0
 26 27  2  0  0  0  0
M  END
>  <MODEL>
8

>  <REMARK>
 VINA RESULT:      -7.4      2.347      5.751
  Name = 
  2 active torsions:
  status: ('A' for Active; 'I' for Inactive)
    1  A    between atoms: N_1  and  C_15
    2  A    between atoms: C_9  and  C_15
                            x       y       z     vdW  Elec       q    Type
                         _______ _______ _______ _____ _____    ______ ____

>  <TORSDO>
F 2

$$$$
=
 OpenBabel11052418303D

 27 31  0  0  0  0  0  0  0  0999 V2000
  188.2920  176.8420  142.9960 N   0  0  0  0  0  0  0  0  0  0  0  0
  189.2640  176.8090  143.9710 C   0  0  0  0  0  0  0  0  0  0  0  0
  187.6620  177.6240  145.6190 C   0  0  0  0  0  0  0  0  0  0  0  0
  192.0370  176.7600  147.0200 N   0  0  0  0  0  0  0  0  0  0  0  0
  191.5830  177.4210  149.3900 C   0  0  0  0  0  1  0  0  0  0  0  0
  190.5900  176.3880  143.6670 C   0  0  0  0  0  3  0  0  0  0  0  0
  189.9590  177.4340  147.5260 O   0  0  0  0  0  0  0  0  0  0  0  0
  184.4180  178.2050  143.9390 C   0  0  0  0  0  3  0  0  0  0  0  0
  187.3710  177.9630  146.8020 O   0  0  0  0  0  0  0  0  0  0  0  0
  184.7230  177.8540  142.6290 C   0  0  0  0  0  3  0  0  0  0  0  0
  189.9860  177.1370  146.2530 C   0  0  0  0  0  0  0  0  0  0  0  0
  191.1810  177.2080  147.9740 C   0  0  0  0  0  0  0  0  0  0  0  0
  191.2450  176.7260  145.9350 C   0  0  0  0  0  0  0  0  0  0  0  0
  187.0180  177.2970  143.2830 C   0  0  0  0  0  0  0  0  0  0  0  0
  188.9560  177.2000  145.3030 C   0  0  0  0  0  0  0  0  0  0  0  0
  185.3960  178.1220  144.9240 C   0  0  0  0  0  3  0  0  0  0  0  0
  191.5930  176.3420  144.6480 C   0  0  0  0  0  3  0  0  0  0  0  0
  186.2230  177.1190  140.9840 F   0  0  0  0  0  0  0  0  0  0  0  0
  186.0030  177.4090  142.2890 C   0  0  0  0  0  0  0  0  0  0  0  0
  186.6900  177.6810  144.6130 C   0  0  0  0  0  0  0  0  0  0  0  0
  188.6300  176.3500  141.6530 C   0  0  0  0  0  2  0  0  0  0  0  0
  189.1470  172.1110  141.6460 C   0  0  0  0  0  3  0  0  0  0  0  0
  188.7930  174.8630  141.6540 C   0  0  0  0  0  0  0  0  0  0  0  0
  189.9630  174.2860  141.1520 C   0  0  0  0  0  3  0  0  0  0  0  0
  190.1150  172.9340  141.1570 N   0  0  0  0  0  0  0  0  0  0  0  0
  187.9640  172.6480  142.1570 C   0  0  0  0  0  3  0  0  0  0  0  0
  187.7880  174.0320  142.1590 C   0  0  0  0  0  3  0  0  0  0  0  0
  1 14  1  0  0  0  0
  1  2  1  0  0  0  0
  2 15  1  0  0  0  0
  3  9  2  0  0  0  0
  4 12  2  0  0  0  0
  6  2  2  0  0  0  0
  6 17  1  0  0  0  0
  7 12  1  0  0  0  0
  8 16  1  0  0  0  0
 10  8  2  0  0  0  0
 11  7  1  0  0  0  0
 12  5  1  0  0  0  0
 13 11  1  0  0  0  0
 13  4  1  0  0  0  0
 14 20  1  0  0  0  0
 15  3  1  0  0  0  0
 15 11  2  0  0  0  0
 17 13  2  0  0  0  0
 18 19  1  0  0  0  0
 19 10  1  0  0  0  0
 19 14  2  0  0  0  0
 20 16  2  0  0  0  0
 20  3  1  0  0  0  0
 21 23  1  0  0  0  0
 21  1  1  0  0  0  0
 22 26  1  0  0  0  0
 23 27  1  0  0  0  0
 24 25  1  0  0  0  0
 24 23  2  0  0  0  0
 25 22  2  0  0  0  0
 26 27  2  0  0  0  0
M  END
>  <MODEL>
9

>  <REMARK>
 VINA RESULT:      -7.4      2.582      5.702
  Name = 
  2 active torsions:
  status: ('A' for Active; 'I' for Inactive)
    1  A    between atoms: N_1  and  C_15
    2  A    between atoms: C_9  and  C_15
                            x       y       z     vdW  Elec       q    Type
                         _______ _______ _______ _____ _____    ______ ____

>  <TORSDO>
F 2

$$$$
