=
 OpenBabel11052417583D

 31 34  0  0  1  0  0  0  0  0999 V2000
  188.8190  177.5340  144.3790 C   0  0  2  0  0  3  0  0  0  0  0  0
  190.5030  176.9650  146.0080 C   0  0  2  0  0  3  0  0  0  0  0  0
  189.1410  176.7650  146.6530 C   0  0  0  0  0  2  0  0  0  0  0  0
  190.2780  177.1460  144.5070 C   0  0  2  0  0  3  0  0  0  0  0  0
  188.1000  176.8890  145.5470 C   0  0  1  0  0  3  0  0  0  0  0  0
  188.2350  177.1730  143.0460 C   0  0  0  0  0  0  0  0  0  0  0  0
  188.0820  175.5990  141.2060 C   0  0  0  0  0  3  0  0  0  0  0  0
  188.6030  175.9600  142.4520 C   0  0  0  0  0  3  0  0  0  0  0  0
  187.1950  176.4530  140.5500 C   0  0  0  0  0  3  0  0  0  0  0  0
  185.9740  178.4980  140.4800 F   0  0  0  0  0  0  0  0  0  0  0  0
  187.3430  178.0300  142.3800 C   0  0  0  0  0  3  0  0  0  0  0  0
  186.8280  177.6690  141.1320 C   0  0  0  0  0  0  0  0  0  0  0  0
  185.9410  179.1220  147.6180 C   0  0  0  0  0  2  0  0  0  0  0  0
  186.8850  177.7220  145.9720 C   0  0  2  0  0  3  0  0  0  0  0  0
  184.4030  177.6340  146.3680 C   0  0  0  0  0  3  0  0  0  0  0  0
  184.5650  178.5950  147.2890 C   0  0  0  0  0  3  0  0  0  0  0  0
  186.9580  178.0990  147.3850 N   0  0  0  0  0  2  0  0  0  0  0  0
  185.5770  176.9690  145.6930 C   0  0  0  0  0  2  0  0  0  0  0  0
  191.1910  175.4810  147.8520 C   0  0  0  0  0  1  0  0  0  0  0  0
  191.4570  175.8280  146.3940 C   0  0  2  0  0  3  0  0  0  0  0  0
  192.7980  176.2160  146.2200 O   0  0  0  0  0  0  0  0  0  0  0  0
  194.9200  175.4050  146.4080 O   0  0  0  0  0  0  0  0  0  0  0  0
  195.2740  173.7570  144.7110 C   0  0  0  0  0  1  0  0  0  0  0  0
  194.5970  175.0680  145.0840 C   0  0  1  0  0  0  0  0  0  0  0  0
  193.5780  175.0490  146.1660 C   0  0  2  0  0  3  0  0  0  0  0  0
  194.7330  176.2800  144.1570 C   0  0  0  0  0  2  0  0  0  0  0  0
  195.6700  175.9900  142.9900 C   0  0  0  0  0  3  0  0  0  0  0  0
  196.9240  176.8290  143.1160 C   0  0  0  0  0  1  0  0  0  0  0  0
  194.9980  176.2840  141.6620 C   0  0  0  0  0  1  0  0  0  0  0  0
  191.8230  177.9020  142.8380 O   0  0  0  0  0  1  0  0  0  0  0  0
  191.1320  178.2920  143.9840 C   0  0  0  0  0  2  0  0  0  0  0  0
  1  6  1  6  0  0  0
  1  4  1  0  0  0  0
  1  5  1  0  0  0  0
  2 20  1  6  0  0  0
  2  3  1  0  0  0  0
  4 31  1  1  0  0  0
  4  2  1  0  0  0  0
  5 14  1  0  0  0  0
  5  3  1  1  0  0  0
  7  8  2  0  0  0  0
  8  6  1  0  0  0  0
  9 12  2  0  0  0  0
  9  7  1  0  0  0  0
 10 12  1  0  0  0  0
 11  6  2  0  0  0  0
 12 11  1  0  0  0  0
 14 18  1  1  0  0  0
 14 17  1  0  0  0  0
 15 16  2  0  0  0  0
 16 13  1  0  0  0  0
 17 13  1  0  0  0  0
 18 15  1  0  0  0  0
 20 19  1  1  0  0  0
 21 20  1  0  0  0  0
 24 23  1  6  0  0  0
 24 25  1  0  0  0  0
 24 22  1  0  0  0  0
 25 21  1  6  0  0  0
 25 22  1  0  0  0  0
 26 24  1  0  0  0  0
 27 28  1  0  0  0  0
 27 26  1  0  0  0  0
 29 27  1  0  0  0  0
 30 31  1  0  0  0  0
M  END
>  <MODEL>
1

>  <REMARK>
 VINA RESULT:      -7.7      0.000      0.000
  Name = 
  8 active torsions:
  status: ('A' for Active; 'I' for Inactive)
    1  A    between atoms: C_1  and  C_24
    2  A    between atoms: C_4  and  C_5
    3  A    between atoms: C_9  and  C_15
    4  A    between atoms: C_9  and  O_23
    5  A    between atoms: C_12  and  C_27
    6  A    between atoms: C_19  and  C_24
    7  A    between atoms: C_21  and  C_29
    8  A    between atoms: C_22  and  O_23
                            x       y       z     vdW  Elec       q    Type
                         _______ _______ _______ _____ _____    ______ ____

>  <TORSDO>
F 8

$$$$
=
 OpenBabel11052417583D

 31 34  0  0  1  0  0  0  0  0999 V2000
  188.4330  176.3730  145.8020 C   0  0  2  0  0  3  0  0  0  0  0  0
  190.7390  175.8100  146.2220 C   0  0  2  0  0  3  0  0  0  0  0  0
  190.6880  176.6670  144.9680 C   0  0  0  0  0  2  0  0  0  0  0  0
  189.3690  175.8960  146.8940 C   0  0  2  0  0  3  0  0  0  0  0  0
  189.2700  177.2140  144.8570 C   0  0  1  0  0  3  0  0  0  0  0  0
  187.2330  177.0950  146.3380 C   0  0  0  0  0  0  0  0  0  0  0  0
  184.8180  177.2790  146.4840 C   0  0  0  0  0  3  0  0  0  0  0  0
  185.9570  176.6240  146.0070 C   0  0  0  0  0  3  0  0  0  0  0  0
  184.9540  178.4110  147.2890 C   0  0  0  0  0  3  0  0  0  0  0  0
  186.3440  180.0000  148.3920 F   0  0  0  0  0  0  0  0  0  0  0  0
  187.3640  178.2350  147.1470 C   0  0  0  0  0  3  0  0  0  0  0  0
  186.2240  178.8920  147.6190 C   0  0  0  0  0  0  0  0  0  0  0  0
  187.3600  178.1620  141.7920 C   0  0  0  0  0  2  0  0  0  0  0  0
  188.7210  177.1440  143.4280 C   0  0  2  0  0  3  0  0  0  0  0  0
  187.4710  175.6850  141.8030 C   0  0  0  0  0  3  0  0  0  0  0  0
  187.0060  176.8060  141.2310 C   0  0  0  0  0  3  0  0  0  0  0  0
  187.6120  178.0780  143.2290 N   0  0  0  0  0  2  0  0  0  0  0  0
  188.2770  175.7160  143.0780 C   0  0  0  0  0  2  0  0  0  0  0  0
  191.4010  177.1520  148.1810 C   0  0  0  0  0  1  0  0  0  0  0  0
  191.9270  176.2130  147.1050 C   0  0  2  0  0  3  0  0  0  0  0  0
  192.9250  176.8500  146.3450 O   0  0  0  0  0  0  0  0  0  0  0  0
  195.1450  176.8140  145.8320 O   0  0  0  0  0  0  0  0  0  0  0  0
  195.8820  174.5400  145.7310 C   0  0  0  0  0  1  0  0  0  0  0  0
  194.7440  175.5170  145.4730 C   0  0  1  0  0  0  0  0  0  0  0  0
  194.1490  176.2260  146.6370 C   0  0  2  0  0  3  0  0  0  0  0  0
  194.0390  175.5150  144.1130 C   0  0  0  0  0  2  0  0  0  0  0  0
  193.8570  174.0990  143.5790 C   0  0  0  0  0  3  0  0  0  0  0  0
  194.2650  174.0420  142.1220 C   0  0  0  0  0  1  0  0  0  0  0  0
  192.4180  173.6400  143.7180 C   0  0  0  0  0  1  0  0  0  0  0  0
  189.3420  173.5440  146.4400 O   0  0  0  0  0  1  0  0  0  0  0  0
  188.9200  174.5140  147.3470 C   0  0  0  0  0  2  0  0  0  0  0  0
  1  6  1  1  0  0  0
  1  4  1  0  0  0  0
  2  4  1  0  0  0  0
  2 20  1  1  0  0  0
  3  2  1  0  0  0  0
  4 31  1  6  0  0  0
  5  3  1  6  0  0  0
  5  1  1  0  0  0  0
  6 11  1  0  0  0  0
  7  9  2  0  0  0  0
  8  6  2  0  0  0  0
  8  7  1  0  0  0  0
  9 12  1  0  0  0  0
 11 12  2  0  0  0  0
 12 10  1  0  0  0  0
 13 17  1  0  0  0  0
 14 18  1  1  0  0  0
 14  5  1  0  0  0  0
 15 18  1  0  0  0  0
 16 13  1  0  0  0  0
 16 15  2  0  0  0  0
 17 14  1  0  0  0  0
 20 19  1  1  0  0  0
 21 20  1  0  0  0  0
 22 25  1  0  0  0  0
 24 23  1  1  0  0  0
 24 22  1  0  0  0  0
 24 25  1  0  0  0  0
 25 21  1  6  0  0  0
 26 24  1  0  0  0  0
 27 29  1  0  0  0  0
 27 26  1  0  0  0  0
 28 27  1  0  0  0  0
 30 31  1  0  0  0  0
M  END
>  <MODEL>
2

>  <REMARK>
 VINA RESULT:      -7.7      2.174      4.255
  Name = 
  8 active torsions:
  status: ('A' for Active; 'I' for Inactive)
    1  A    between atoms: C_1  and  C_24
    2  A    between atoms: C_4  and  C_5
    3  A    between atoms: C_9  and  C_15
    4  A    between atoms: C_9  and  O_23
    5  A    between atoms: C_12  and  C_27
    6  A    between atoms: C_19  and  C_24
    7  A    between atoms: C_21  and  C_29
    8  A    between atoms: C_22  and  O_23
                            x       y       z     vdW  Elec       q    Type
                         _______ _______ _______ _____ _____    ______ ____

>  <TORSDO>
F 8

$$$$
=
 OpenBabel11052417583D

 31 34  0  0  1  0  0  0  0  0999 V2000
  187.7710  176.7270  144.8860 C   0  0  2  0  0  3  0  0  0  0  0  0
  190.1340  176.4470  144.4990 C   0  0  2  0  0  3  0  0  0  0  0  0
  189.5580  177.2310  143.3300 C   0  0  0  0  0  2  0  0  0  0  0  0
  189.0710  176.4110  145.5970 C   0  0  2  0  0  3  0  0  0  0  0  0
  188.1300  177.6080  143.7060 C   0  0  1  0  0  3  0  0  0  0  0  0
  186.7430  177.3340  145.7930 C   0  0  0  0  0  0  0  0  0  0  0  0
  184.4670  177.3470  146.6340 C   0  0  0  0  0  3  0  0  0  0  0  0
  185.4500  176.7980  145.8060 C   0  0  0  0  0  3  0  0  0  0  0  0
  184.7750  178.4370  147.4490 C   0  0  0  0  0  3  0  0  0  0  0  0
  186.3470  180.0510  148.2250 F   0  0  0  0  0  0  0  0  0  0  0  0
  187.0470  178.4320  146.6140 C   0  0  0  0  0  3  0  0  0  0  0  0
  186.0620  178.9830  147.4380 C   0  0  0  0  0  0  0  0  0  0  0  0
  186.8760  176.9740  140.2470 C   0  0  0  0  0  2  0  0  0  0  0  0
  187.1430  177.4070  142.5500 C   0  0  2  0  0  3  0  0  0  0  0  0
  185.2060  178.4500  141.3310 C   0  0  0  0  0  3  0  0  0  0  0  0
  185.6220  177.8140  140.2260 C   0  0  0  0  0  3  0  0  0  0  0  0
  187.8150  177.4690  141.2510 N   0  0  0  0  0  2  0  0  0  0  0  0
  186.0100  178.4410  142.6080 C   0  0  0  0  0  2  0  0  0  0  0  0
  191.8620  178.1060  143.9160 C   0  0  0  0  0  1  0  0  0  0  0  0
  191.4910  177.0240  144.9200 C   0  0  2  0  0  3  0  0  0  0  0  0
  192.4770  176.0220  144.9460 O   0  0  0  0  0  0  0  0  0  0  0  0
  194.0420  175.2410  143.4840 O   0  0  0  0  0  0  0  0  0  0  0  0
  196.0660  176.4820  143.7770 C   0  0  0  0  0  1  0  0  0  0  0  0
  194.8390  175.8810  144.4460 C   0  0  1  0  0  0  0  0  0  0  0  0
  193.5010  176.4060  144.0650 C   0  0  2  0  0  3  0  0  0  0  0  0
  195.0100  175.0040  145.6910 C   0  0  0  0  0  2  0  0  0  0  0  0
  195.7080  173.6900  145.3590 C   0  0  0  0  0  3  0  0  0  0  0  0
  194.7560  172.5330  145.5720 C   0  0  0  0  0  1  0  0  0  0  0  0
  196.9430  173.4930  146.2180 C   0  0  0  0  0  1  0  0  0  0  0  0
  189.6010  174.0880  145.3520 O   0  0  0  0  0  1  0  0  0  0  0  0
  188.9740  175.0120  146.1860 C   0  0  0  0  0  2  0  0  0  0  0  0
  1  4  1  0  0  0  0
  1  6  1  1  0  0  0
  2 20  1  1  0  0  0
  2  4  1  0  0  0  0
  3  2  1  0  0  0  0
  4 31  1  6  0  0  0
  5  3  1  6  0  0  0
  5  1  1  0  0  0  0
  6  8  2  0  0  0  0
  6 11  1  0  0  0  0
  7  9  2  0  0  0  0
  8  7  1  0  0  0  0
 11 12  2  0  0  0  0
 12  9  1  0  0  0  0
 12 10  1  0  0  0  0
 13 17  1  0  0  0  0
 14 18  1  6  0  0  0
 14  5  1  0  0  0  0
 15 18  1  0  0  0  0
 16 13  1  0  0  0  0
 16 15  2  0  0  0  0
 17 14  1  0  0  0  0
 20 19  1  6  0  0  0
 20 21  1  0  0  0  0
 22 25  1  0  0  0  0
 22 24  1  0  0  0  0
 24 23  1  6  0  0  0
 24 26  1  0  0  0  0
 25 24  1  0  0  0  0
 25 21  1  1  0  0  0
 27 28  1  0  0  0  0
 27 26  1  0  0  0  0
 27 29  1  0  0  0  0
 30 31  1  0  0  0  0
M  END
>  <MODEL>
3

>  <REMARK>
 VINA RESULT:      -7.7      2.272      4.606
  Name = 
  8 active torsions:
  status: ('A' for Active; 'I' for Inactive)
    1  A    between atoms: C_1  and  C_24
    2  A    between atoms: C_4  and  C_5
    3  A    between atoms: C_9  and  C_15
    4  A    between atoms: C_9  and  O_23
    5  A    between atoms: C_12  and  C_27
    6  A    between atoms: C_19  and  C_24
    7  A    between atoms: C_21  and  C_29
    8  A    between atoms: C_22  and  O_23
                            x       y       z     vdW  Elec       q    Type
                         _______ _______ _______ _____ _____    ______ ____

>  <TORSDO>
F 8

$$$$
=
 OpenBabel11052417583D

 31 34  0  0  1  0  0  0  0  0999 V2000
  188.6110  177.1630  144.0920 C   0  0  2  0  0  3  0  0  0  0  0  0
  190.0200  177.2570  146.0460 C   0  0  2  0  0  3  0  0  0  0  0  0
  188.6220  176.8680  146.4960 C   0  0  0  0  0  2  0  0  0  0  0  0
  190.0630  177.1360  144.5230 C   0  0  2  0  0  3  0  0  0  0  0  0
  187.8130  176.5740  145.2380 C   0  0  1  0  0  3  0  0  0  0  0  0
  188.3780  176.4680  142.7840 C   0  0  0  0  0  0  0  0  0  0  0  0
  188.7100  174.5130  141.3860 C   0  0  0  0  0  3  0  0  0  0  0  0
  188.9030  175.1840  142.5970 C   0  0  0  0  0  3  0  0  0  0  0  0
  187.9960  175.1280  140.3580 C   0  0  0  0  0  3  0  0  0  0  0  0
  186.7910  177.0060  139.5220 F   0  0  0  0  0  0  0  0  0  0  0  0
  187.6610  177.0830  141.7450 C   0  0  0  0  0  3  0  0  0  0  0  0
  187.4740  176.4130  140.5330 C   0  0  0  0  0  0  0  0  0  0  0  0
  185.0140  178.9860  144.6990 C   0  0  0  0  0  2  0  0  0  0  0  0
  186.4030  177.1740  145.2910 C   0  0  2  0  0  3  0  0  0  0  0  0
  184.5360  177.8370  146.8420 C   0  0  0  0  0  3  0  0  0  0  0  0
  184.2000  178.7840  145.9540 C   0  0  0  0  0  3  0  0  0  0  0  0
  186.4040  178.5880  144.9120 N   0  0  0  0  0  2  0  0  0  0  0  0
  185.7840  177.0020  146.6850 C   0  0  0  0  0  2  0  0  0  0  0  0
  191.1330  176.9640  148.2260 C   0  0  0  0  0  1  0  0  0  0  0  0
  191.0780  176.4400  146.7980 C   0  0  2  0  0  3  0  0  0  0  0  0
  192.3370  176.5610  146.1830 O   0  0  0  0  0  0  0  0  0  0  0  0
  194.4380  175.7780  146.5960 O   0  0  0  0  0  0  0  0  0  0  0  0
  194.7020  173.6590  145.5190 C   0  0  0  0  0  1  0  0  0  0  0  0
  194.0740  175.0430  145.4570 C   0  0  1  0  0  0  0  0  0  0  0  0
  193.0810  175.4120  146.5000 C   0  0  2  0  0  3  0  0  0  0  0  0
  194.2240  175.8860  144.1860 C   0  0  0  0  0  2  0  0  0  0  0  0
  193.9660  175.0590  142.9320 C   0  0  0  0  0  3  0  0  0  0  0  0
  194.3360  175.8600  141.7020 C   0  0  0  0  0  1  0  0  0  0  0  0
  192.5120  174.6380  142.8420 C   0  0  0  0  0  1  0  0  0  0  0  0
  191.6210  177.9440  142.8920 O   0  0  0  0  0  1  0  0  0  0  0  0
  190.7700  178.3420  143.9210 C   0  0  0  0  0  2  0  0  0  0  0  0
  1  6  1  6  0  0  0
  1  4  1  0  0  0  0
  1  5  1  0  0  0  0
  2  3  1  0  0  0  0
  2 20  1  1  0  0  0
  4 31  1  6  0  0  0
  4  2  1  0  0  0  0
  5 14  1  0  0  0  0
  5  3  1  1  0  0  0
  7  8  2  0  0  0  0
  8  6  1  0  0  0  0
  9 12  2  0  0  0  0
  9  7  1  0  0  0  0
 10 12  1  0  0  0  0
 11  6  2  0  0  0  0
 12 11  1  0  0  0  0
 13 17  1  0  0  0  0
 13 16  1  0  0  0  0
 14 18  1  1  0  0  0
 16 15  2  0  0  0  0
 17 14  1  0  0  0  0
 18 15  1  0  0  0  0
 20 19  1  1  0  0  0
 21 20  1  0  0  0  0
 24 23  1  6  0  0  0
 24 25  1  0  0  0  0
 24 22  1  0  0  0  0
 25 21  1  6  0  0  0
 25 22  1  0  0  0  0
 26 24  1  0  0  0  0
 27 26  1  0  0  0  0
 28 27  1  0  0  0  0
 29 27  1  0  0  0  0
 30 31  1  0  0  0  0
M  END
>  <MODEL>
4

>  <REMARK>
 VINA RESULT:      -7.5      1.210      1.441
  Name = 
  8 active torsions:
  status: ('A' for Active; 'I' for Inactive)
    1  A    between atoms: C_1  and  C_24
    2  A    between atoms: C_4  and  C_5
    3  A    between atoms: C_9  and  C_15
    4  A    between atoms: C_9  and  O_23
    5  A    between atoms: C_12  and  C_27
    6  A    between atoms: C_19  and  C_24
    7  A    between atoms: C_21  and  C_29
    8  A    between atoms: C_22  and  O_23
                            x       y       z     vdW  Elec       q    Type
                         _______ _______ _______ _____ _____    ______ ____

>  <TORSDO>
F 8

$$$$
=
 OpenBabel11052417583D

 31 34  0  0  1  0  0  0  0  0999 V2000
  189.6030  175.8490  143.5320 C   0  0  2  0  0  3  0  0  0  0  0  0
  188.0230  176.9620  142.0920 C   0  0  2  0  0  3  0  0  0  0  0  0
  187.9390  175.4700  141.8130 C   0  0  0  0  0  2  0  0  0  0  0  0
  188.8360  177.1460  143.3720 C   0  0  2  0  0  3  0  0  0  0  0  0
  188.7540  174.7680  142.8920 C   0  0  1  0  0  3  0  0  0  0  0  0
  189.9640  175.5570  144.9580 C   0  0  0  0  0  0  0  0  0  0  0  0
  189.2440  175.0190  147.2110 C   0  0  0  0  0  3  0  0  0  0  0  0
  188.9410  175.2860  145.8730 C   0  0  0  0  0  3  0  0  0  0  0  0
  190.5740  175.0270  147.6370 C   0  0  0  0  0  3  0  0  0  0  0  0
  192.8890  175.3200  147.1580 F   0  0  0  0  0  0  0  0  0  0  0  0
  191.2990  175.5660  145.3910 C   0  0  0  0  0  3  0  0  0  0  0  0
  191.6010  175.3030  146.7310 C   0  0  0  0  0  0  0  0  0  0  0  0
  190.4160  172.5430  140.3960 C   0  0  0  0  0  2  0  0  0  0  0  0
  189.6310  173.6430  142.3290 C   0  0  2  0  0  3  0  0  0  0  0  0
  190.0660  171.1670  142.4280 C   0  0  0  0  0  3  0  0  0  0  0  0
  190.4710  171.2370  141.1510 C   0  0  0  0  0  3  0  0  0  0  0  0
  189.3490  173.3970  140.9140 N   0  0  0  0  0  2  0  0  0  0  0  0
  189.4500  172.3490  143.1350 C   0  0  0  0  0  2  0  0  0  0  0  0
  186.2230  177.8630  140.6680 C   0  0  0  0  0  1  0  0  0  0  0  0
  186.6220  177.5890  142.1100 C   0  0  2  0  0  3  0  0  0  0  0  0
  186.6160  178.7820  142.8550 O   0  0  0  0  0  0  0  0  0  0  0  0
  185.2860  180.1860  144.0620 O   0  0  0  0  0  0  0  0  0  0  0  0
  183.7010  178.8860  145.2940 C   0  0  0  0  0  1  0  0  0  0  0  0
  185.1160  178.9700  144.7430 C   0  0  1  0  0  0  0  0  0  0  0  0
  185.2940  179.0220  143.2680 C   0  0  2  0  0  3  0  0  0  0  0  0
  186.3060  178.6850  145.6650 C   0  0  0  0  0  2  0  0  0  0  0  0
  185.8460  178.2920  147.0650 C   0  0  0  0  0  3  0  0  0  0  0  0
  186.6910  179.0020  148.1020 C   0  0  0  0  0  1  0  0  0  0  0  0
  185.9460  176.7920  147.2740 C   0  0  0  0  0  1  0  0  0  0  0  0
  191.0630  177.7870  142.7640 O   0  0  0  0  0  1  0  0  0  0  0  0
  189.8350  178.2810  143.2000 C   0  0  0  0  0  2  0  0  0  0  0  0
  1  6  1  1  0  0  0
  2 20  1  1  0  0  0
  2  4  1  0  0  0  0
  3  2  1  0  0  0  0
  4 31  1  6  0  0  0
  4  1  1  0  0  0  0
  5  3  1  6  0  0  0
  5  1  1  0  0  0  0
  6 11  2  0  0  0  0
  6  8  1  0  0  0  0
  7  9  1  0  0  0  0
  8  7  2  0  0  0  0
 11 12  1  0  0  0  0
 12 10  1  0  0  0  0
 12  9  2  0  0  0  0
 13 17  1  0  0  0  0
 13 16  1  0  0  0  0
 14  5  1  0  0  0  0
 14 18  1  1  0  0  0
 15 18  1  0  0  0  0
 16 15  2  0  0  0  0
 17 14  1  0  0  0  0
 20 19  1  6  0  0  0
 20 21  1  0  0  0  0
 22 24  1  0  0  0  0
 24 23  1  1  0  0  0
 24 26  1  0  0  0  0
 25 21  1  1  0  0  0
 25 22  1  0  0  0  0
 25 24  1  0  0  0  0
 26 27  1  0  0  0  0
 27 29  1  0  0  0  0
 27 28  1  0  0  0  0
 30 31  1  0  0  0  0
M  END
>  <MODEL>
5

>  <REMARK>
 VINA RESULT:      -7.5      3.578      7.984
  Name = 
  8 active torsions:
  status: ('A' for Active; 'I' for Inactive)
    1  A    between atoms: C_1  and  C_24
    2  A    between atoms: C_4  and  C_5
    3  A    between atoms: C_9  and  C_15
    4  A    between atoms: C_9  and  O_23
    5  A    between atoms: C_12  and  C_27
    6  A    between atoms: C_19  and  C_24
    7  A    between atoms: C_21  and  C_29
    8  A    between atoms: C_22  and  O_23
                            x       y       z     vdW  Elec       q    Type
                         _______ _______ _______ _____ _____    ______ ____

>  <TORSDO>
F 8

$$$$
=
 OpenBabel11052417583D

 31 34  0  0  1  0  0  0  0  0999 V2000
  188.7570  177.5460  144.2870 C   0  0  2  0  0  3  0  0  0  0  0  0
  190.4320  176.8600  145.8790 C   0  0  2  0  0  3  0  0  0  0  0  0
  189.0700  176.6890  146.5310 C   0  0  0  0  0  2  0  0  0  0  0  0
  190.2010  177.1000  144.3870 C   0  0  2  0  0  3  0  0  0  0  0  0
  188.0240  176.8890  145.4400 C   0  0  1  0  0  3  0  0  0  0  0  0
  188.1480  177.2530  142.9490 C   0  0  0  0  0  0  0  0  0  0  0  0
  187.9920  175.7950  141.0160 C   0  0  0  0  0  3  0  0  0  0  0  0
  188.5350  176.0930  142.2690 C   0  0  0  0  0  3  0  0  0  0  0  0
  187.0640  176.6620  140.4380 C   0  0  0  0  0  3  0  0  0  0  0  0
  185.7820  178.6680  140.5300 F   0  0  0  0  0  0  0  0  0  0  0  0
  187.2150  178.1230  142.3620 C   0  0  0  0  0  3  0  0  0  0  0  0
  186.6770  177.8260  141.1060 C   0  0  0  0  0  0  0  0  0  0  0  0
  185.9470  179.0880  147.6280 C   0  0  0  0  0  2  0  0  0  0  0  0
  186.8460  177.7520  145.9050 C   0  0  2  0  0  3  0  0  0  0  0  0
  184.3560  177.7620  146.2670 C   0  0  0  0  0  3  0  0  0  0  0  0
  184.5520  178.6520  147.2510 C   0  0  0  0  0  3  0  0  0  0  0  0
  186.9160  178.0330  147.3400 N   0  0  0  0  0  2  0  0  0  0  0  0
  185.5060  177.0840  145.5630 C   0  0  0  0  0  2  0  0  0  0  0  0
  191.7720  175.8250  147.6710 C   0  0  0  0  0  1  0  0  0  0  0  0
  191.3470  175.6750  146.2170 C   0  0  2  0  0  3  0  0  0  0  0  0
  192.4740  175.6550  145.3770 O   0  0  0  0  0  0  0  0  0  0  0  0
  194.0330  174.2440  144.4950 O   0  0  0  0  0  0  0  0  0  0  0  0
  193.2250  171.9980  144.6530 C   0  0  0  0  0  1  0  0  0  0  0  0
  192.8680  173.4610  144.4370 C   0  0  1  0  0  0  0  0  0  0  0  0
  193.1140  174.4160  145.5500 C   0  0  2  0  0  3  0  0  0  0  0  0
  191.9950  173.8600  143.2430 C   0  0  0  0  0  2  0  0  0  0  0  0
  190.8390  172.8860  143.0460 C   0  0  0  0  0  3  0  0  0  0  0  0
  190.3490  172.9520  141.6150 C   0  0  0  0  0  1  0  0  0  0  0  0
  189.6910  173.1980  143.9870 C   0  0  0  0  0  1  0  0  0  0  0  0
  191.8980  177.7940  142.8450 O   0  0  0  0  0  1  0  0  0  0  0  0
  191.0940  178.2310  143.8950 C   0  0  0  0  0  2  0  0  0  0  0  0
  1  6  1  6  0  0  0
  1  4  1  0  0  0  0
  1  5  1  0  0  0  0
  2 20  1  6  0  0  0
  2  3  1  0  0  0  0
  4 31  1  1  0  0  0
  4  2  1  0  0  0  0
  5 14  1  0  0  0  0
  5  3  1  1  0  0  0
  7  8  1  0  0  0  0
  8  6  2  0  0  0  0
  9  7  2  0  0  0  0
  9 12  1  0  0  0  0
 10 12  1  0  0  0  0
 11  6  1  0  0  0  0
 12 11  2  0  0  0  0
 14 18  1  1  0  0  0
 14 17  1  0  0  0  0
 15 16  2  0  0  0  0
 16 13  1  0  0  0  0
 17 13  1  0  0  0  0
 18 15  1  0  0  0  0
 20 19  1  1  0  0  0
 21 20  1  0  0  0  0
 22 25  1  0  0  0  0
 24 22  1  0  0  0  0
 24 23  1  1  0  0  0
 24 25  1  0  0  0  0
 25 21  1  6  0  0  0
 26 24  1  0  0  0  0
 27 26  1  0  0  0  0
 27 29  1  0  0  0  0
 28 27  1  0  0  0  0
 30 31  1  0  0  0  0
M  END
>  <MODEL>
6

>  <REMARK>
 VINA RESULT:      -7.5      1.656      2.363
  Name = 
  8 active torsions:
  status: ('A' for Active; 'I' for Inactive)
    1  A    between atoms: C_1  and  C_24
    2  A    between atoms: C_4  and  C_5
    3  A    between atoms: C_9  and  C_15
    4  A    between atoms: C_9  and  O_23
    5  A    between atoms: C_12  and  C_27
    6  A    between atoms: C_19  and  C_24
    7  A    between atoms: C_21  and  C_29
    8  A    between atoms: C_22  and  O_23
                            x       y       z     vdW  Elec       q    Type
                         _______ _______ _______ _____ _____    ______ ____

>  <TORSDO>
F 8

$$$$
=
 OpenBabel11052417583D

 31 34  0  0  1  0  0  0  0  0999 V2000
  188.8090  177.4770  144.2930 C   0  0  2  0  0  3  0  0  0  0  0  0
  190.4830  176.7700  145.8770 C   0  0  2  0  0  3  0  0  0  0  0  0
  189.1220  176.6300  146.5410 C   0  0  0  0  0  2  0  0  0  0  0  0
  190.2450  177.0030  144.3860 C   0  0  2  0  0  3  0  0  0  0  0  0
  188.0720  176.8420  145.4570 C   0  0  1  0  0  3  0  0  0  0  0  0
  188.1830  177.1850  142.9620 C   0  0  0  0  0  0  0  0  0  0  0  0
  187.9500  175.6940  141.0620 C   0  0  0  0  0  3  0  0  0  0  0  0
  188.5090  175.9910  142.3080 C   0  0  0  0  0  3  0  0  0  0  0  0
  187.0660  176.5940  140.4660 C   0  0  0  0  0  3  0  0  0  0  0  0
  185.8890  178.6650  140.5130 F   0  0  0  0  0  0  0  0  0  0  0  0
  187.2950  178.0880  142.3560 C   0  0  0  0  0  3  0  0  0  0  0  0
  186.7400  177.7920  141.1080 C   0  0  0  0  0  0  0  0  0  0  0  0
  186.0220  179.0390  147.6730 C   0  0  0  0  0  2  0  0  0  0  0  0
  186.9140  177.7310  145.9250 C   0  0  2  0  0  3  0  0  0  0  0  0
  184.4190  177.8200  146.2280 C   0  0  0  0  0  3  0  0  0  0  0  0
  184.6220  178.6680  147.2470 C   0  0  0  0  0  3  0  0  0  0  0  0
  186.9590  177.9600  147.3700 N   0  0  0  0  0  2  0  0  0  0  0  0
  185.5610  177.1250  145.5280 C   0  0  0  0  0  2  0  0  0  0  0  0
  192.6790  176.1160  146.7860 C   0  0  0  0  0  1  0  0  0  0  0  0
  191.3770  175.5700  146.2180 C   0  0  2  0  0  3  0  0  0  0  0  0
  191.6300  174.7920  145.0740 O   0  0  0  0  0  0  0  0  0  0  0  0
  191.4390  172.5630  144.6350 O   0  0  0  0  0  0  0  0  0  0  0  0
  189.3260  172.1560  143.5900 C   0  0  0  0  0  1  0  0  0  0  0  0
  190.4970  173.1140  143.7520 C   0  0  1  0  0  0  0  0  0  0  0  0
  190.7460  173.7010  145.0950 C   0  0  2  0  0  3  0  0  0  0  0  0
  191.1800  173.6910  142.5070 C   0  0  0  0  0  2  0  0  0  0  0  0
  191.1330  172.7120  141.3390 C   0  0  0  0  0  3  0  0  0  0  0  0
  192.4550  171.9820  141.2270 C   0  0  0  0  0  1  0  0  0  0  0  0
  190.8410  173.4290  140.0340 C   0  0  0  0  0  1  0  0  0  0  0  0
  191.8880  177.6750  142.7770 O   0  0  0  0  0  1  0  0  0  0  0  0
  191.1540  178.1130  143.8780 C   0  0  0  0  0  2  0  0  0  0  0  0
  1  6  1  6  0  0  0
  1  4  1  0  0  0  0
  1  5  1  0  0  0  0
  2 20  1  6  0  0  0
  2  3  1  0  0  0  0
  4 31  1  1  0  0  0
  4  2  1  0  0  0  0
  5 14  1  0  0  0  0
  5  3  1  1  0  0  0
  7  8  1  0  0  0  0
  8  6  2  0  0  0  0
  9  7  2  0  0  0  0
  9 12  1  0  0  0  0
 10 12  1  0  0  0  0
 11  6  1  0  0  0  0
 12 11  2  0  0  0  0
 14 18  1  1  0  0  0
 14 17  1  0  0  0  0
 15 16  2  0  0  0  0
 16 13  1  0  0  0  0
 17 13  1  0  0  0  0
 18 15  1  0  0  0  0
 20 19  1  6  0  0  0
 21 20  1  0  0  0  0
 22 25  1  0  0  0  0
 24 23  1  6  0  0  0
 24 22  1  0  0  0  0
 24 25  1  0  0  0  0
 25 21  1  6  0  0  0
 26 24  1  0  0  0  0
 27 26  1  0  0  0  0
 28 27  1  0  0  0  0
 29 27  1  0  0  0  0
 30 31  1  0  0  0  0
M  END
>  <MODEL>
7

>  <REMARK>
 VINA RESULT:      -7.4      2.097      2.761
  Name = 
  8 active torsions:
  status: ('A' for Active; 'I' for Inactive)
    1  A    between atoms: C_1  and  C_24
    2  A    between atoms: C_4  and  C_5
    3  A    between atoms: C_9  and  C_15
    4  A    between atoms: C_9  and  O_23
    5  A    between atoms: C_12  and  C_27
    6  A    between atoms: C_19  and  C_24
    7  A    between atoms: C_21  and  C_29
    8  A    between atoms: C_22  and  O_23
                            x       y       z     vdW  Elec       q    Type
                         _______ _______ _______ _____ _____    ______ ____

>  <TORSDO>
F 8

$$$$
=
 OpenBabel11052417583D

 31 34  0  0  1  0  0  0  0  0999 V2000
  188.4210  177.0440  144.1940 C   0  0  2  0  0  3  0  0  0  0  0  0
  189.6750  176.9010  146.2480 C   0  0  2  0  0  3  0  0  0  0  0  0
  188.2150  176.6310  146.5720 C   0  0  0  0  0  2  0  0  0  0  0  0
  189.8250  176.8510  144.7280 C   0  0  2  0  0  3  0  0  0  0  0  0
  187.4820  176.4820  145.2440 C   0  0  1  0  0  3  0  0  0  0  0  0
  188.2250  176.4420  142.8360 C   0  0  0  0  0  0  0  0  0  0  0  0
  187.4440  176.6860  140.5510 C   0  0  0  0  0  3  0  0  0  0  0  0
  187.6480  177.2210  141.8270 C   0  0  0  0  0  3  0  0  0  0  0  0
  187.8140  175.3670  140.2850 C   0  0  0  0  0  3  0  0  0  0  0  0
  188.7300  173.2940  141.0210 F   0  0  0  0  0  0  0  0  0  0  0  0
  188.5940  175.1150  142.5620 C   0  0  0  0  0  3  0  0  0  0  0  0
  188.3850  174.5790  141.2880 C   0  0  0  0  0  0  0  0  0  0  0  0
  184.9630  179.1540  144.5750 C   0  0  0  0  0  2  0  0  0  0  0  0
  186.1370  177.2160  145.2280 C   0  0  2  0  0  3  0  0  0  0  0  0
  184.2660  178.0560  146.6860 C   0  0  0  0  0  3  0  0  0  0  0  0
  184.0700  179.0320  145.7870 C   0  0  0  0  0  3  0  0  0  0  0  0
  186.2940  178.6230  144.8570 N   0  0  0  0  0  2  0  0  0  0  0  0
  185.4340  177.1050  146.5880 C   0  0  0  0  0  2  0  0  0  0  0  0
  191.3920  176.7820  148.0130 C   0  0  0  0  0  1  0  0  0  0  0  0
  190.5890  175.9460  147.0270 C   0  0  2  0  0  3  0  0  0  0  0  0
  191.4500  175.2530  146.1580 O   0  0  0  0  0  0  0  0  0  0  0  0
  193.3590  176.2240  145.3770 O   0  0  0  0  0  0  0  0  0  0  0  0
  195.2400  174.9510  146.1280 C   0  0  0  0  0  1  0  0  0  0  0  0
  193.7930  174.9190  145.6600 C   0  0  1  0  0  0  0  0  0  0  0  0
  192.7690  175.6010  146.4950 C   0  0  2  0  0  3  0  0  0  0  0  0
  193.3780  173.9480  144.5500 C   0  0  0  0  0  2  0  0  0  0  0  0
  193.3090  174.6440  143.1950 C   0  0  0  0  0  3  0  0  0  0  0  0
  192.1090  174.1420  142.4200 C   0  0  0  0  0  1  0  0  0  0  0  0
  194.5700  174.3990  142.3880 C   0  0  0  0  0  1  0  0  0  0  0  0
  191.4300  177.6340  143.1290 O   0  0  0  0  0  1  0  0  0  0  0  0
  190.6890  178.0090  144.2480 C   0  0  0  0  0  2  0  0  0  0  0  0
  1  6  1  6  0  0  0
  1  4  1  0  0  0  0
  1  5  1  0  0  0  0
  2  3  1  0  0  0  0
  2 20  1  1  0  0  0
  4 31  1  6  0  0  0
  4  2  1  0  0  0  0
  5  3  1  1  0  0  0
  7  8  1  0  0  0  0
  8  6  2  0  0  0  0
  9  7  2  0  0  0  0
  9 12  1  0  0  0  0
 10 12  1  0  0  0  0
 11  6  1  0  0  0  0
 12 11  2  0  0  0  0
 13 17  1  0  0  0  0
 13 16  1  0  0  0  0
 14  5  1  0  0  0  0
 14 18  1  1  0  0  0
 16 15  2  0  0  0  0
 17 14  1  0  0  0  0
 18 15  1  0  0  0  0
 20 19  1  1  0  0  0
 21 20  1  0  0  0  0
 22 24  1  0  0  0  0
 22 25  1  0  0  0  0
 24 23  1  1  0  0  0
 24 25  1  0  0  0  0
 25 21  1  6  0  0  0
 26 24  1  0  0  0  0
 27 26  1  0  0  0  0
 28 27  1  0  0  0  0
 29 27  1  0  0  0  0
 30 31  1  0  0  0  0
M  END
>  <MODEL>
8

>  <REMARK>
 VINA RESULT:      -7.3      1.756      2.241
  Name = 
  8 active torsions:
  status: ('A' for Active; 'I' for Inactive)
    1  A    between atoms: C_1  and  C_24
    2  A    between atoms: C_4  and  C_5
    3  A    between atoms: C_9  and  C_15
    4  A    between atoms: C_9  and  O_23
    5  A    between atoms: C_12  and  C_27
    6  A    between atoms: C_19  and  C_24
    7  A    between atoms: C_21  and  C_29
    8  A    between atoms: C_22  and  O_23
                            x       y       z     vdW  Elec       q    Type
                         _______ _______ _______ _____ _____    ______ ____

>  <TORSDO>
F 8

$$$$
=
 OpenBabel11052417583D

 31 34  0  0  1  0  0  0  0  0999 V2000
  190.0700  175.2000  143.5610 C   0  0  2  0  0  3  0  0  0  0  0  0
  188.5040  175.8300  141.8390 C   0  0  2  0  0  3  0  0  0  0  0  0
  188.5900  174.3120  141.8610 C   0  0  0  0  0  2  0  0  0  0  0  0
  189.1940  176.3470  143.1020 C   0  0  2  0  0  3  0  0  0  0  0  0
  189.3850  173.9270  143.1030 C   0  0  1  0  0  3  0  0  0  0  0  0
  190.3460  175.2310  145.0350 C   0  0  0  0  0  0  0  0  0  0  0  0
  191.9060  175.6570  146.8430 C   0  0  0  0  0  3  0  0  0  0  0  0
  191.6140  175.6250  145.4770 C   0  0  0  0  0  3  0  0  0  0  0  0
  190.9290  175.2900  147.7710 C   0  0  0  0  0  3  0  0  0  0  0  0
  188.7250  174.5230  148.2470 F   0  0  0  0  0  0  0  0  0  0  0  0
  189.3680  174.8620  145.9720 C   0  0  0  0  0  3  0  0  0  0  0  0
  189.6630  174.8900  147.3380 C   0  0  0  0  0  0  0  0  0  0  0  0
  192.5110  172.2720  141.9100 C   0  0  0  0  0  2  0  0  0  0  0  0
  190.4090  172.8200  142.8280 C   0  0  2  0  0  3  0  0  0  0  0  0
  190.7210  170.5640  141.7600 C   0  0  0  0  0  3  0  0  0  0  0  0
  191.9980  170.9040  141.5300 C   0  0  0  0  0  3  0  0  0  0  0  0
  191.4340  173.2580  141.8780 N   0  0  0  0  0  2  0  0  0  0  0  0
  189.7200  171.5490  142.3130 C   0  0  0  0  0  2  0  0  0  0  0  0
  187.0660  177.4890  140.7190 C   0  0  0  0  0  1  0  0  0  0  0  0
  187.0520  176.2870  141.6520 C   0  0  2  0  0  3  0  0  0  0  0  0
  186.4710  176.6320  142.8860 O   0  0  0  0  0  0  0  0  0  0  0  0
  186.7860  178.7030  143.7850 O   0  0  0  0  0  0  0  0  0  0  0  0
  184.6660  179.7900  143.9920 C   0  0  0  0  0  1  0  0  0  0  0  0
  185.4270  178.4750  144.0530 C   0  0  1  0  0  0  0  0  0  0  0  0
  186.0730  177.9770  142.8100 C   0  0  2  0  0  3  0  0  0  0  0  0
  185.2520  177.5550  145.2660 C   0  0  0  0  0  2  0  0  0  0  0  0
  186.1810  177.9520  146.4080 C   0  0  0  0  0  3  0  0  0  0  0  0
  186.4800  176.7450  147.2720 C   0  0  0  0  0  1  0  0  0  0  0  0
  185.5640  179.0440  147.2630 C   0  0  0  0  0  1  0  0  0  0  0  0
  190.2320  178.3650  143.8710 O   0  0  0  0  0  1  0  0  0  0  0  0
  190.0860  177.5330  142.7630 C   0  0  0  0  0  2  0  0  0  0  0  0
  1  6  1  1  0  0  0
  2 20  1  1  0  0  0
  2  3  1  0  0  0  0
  2  4  1  0  0  0  0
  4 31  1  6  0  0  0
  4  1  1  0  0  0  0
  5  3  1  6  0  0  0
  5  1  1  0  0  0  0
  6  8  2  0  0  0  0
  6 11  1  0  0  0  0
  7  9  2  0  0  0  0
  8  7  1  0  0  0  0
 11 12  2  0  0  0  0
 12  9  1  0  0  0  0
 12 10  1  0  0  0  0
 14 18  1  6  0  0  0
 14  5  1  0  0  0  0
 15 18  1  0  0  0  0
 16 15  2  0  0  0  0
 16 13  1  0  0  0  0
 17 13  1  0  0  0  0
 17 14  1  0  0  0  0
 20 19  1  6  0  0  0
 20 21  1  0  0  0  0
 22 24  1  0  0  0  0
 24 23  1  6  0  0  0
 24 26  1  0  0  0  0
 25 21  1  1  0  0  0
 25 22  1  0  0  0  0
 25 24  1  0  0  0  0
 26 27  1  0  0  0  0
 27 29  1  0  0  0  0
 27 28  1  0  0  0  0
 31 30  1  0  0  0  0
M  END
>  <MODEL>
9

>  <REMARK>
 VINA RESULT:      -7.2      3.512      7.992
  Name = 
  8 active torsions:
  status: ('A' for Active; 'I' for Inactive)
    1  A    between atoms: C_1  and  C_24
    2  A    between atoms: C_4  and  C_5
    3  A    between atoms: C_9  and  C_15
    4  A    between atoms: C_9  and  O_23
    5  A    between atoms: C_12  and  C_27
    6  A    between atoms: C_19  and  C_24
    7  A    between atoms: C_21  and  C_29
    8  A    between atoms: C_22  and  O_23
                            x       y       z     vdW  Elec       q    Type
                         _______ _______ _______ _____ _____    ______ ____

>  <TORSDO>
F 8

$$$$
