=
 OpenBabel11052418173D

 28 29  0  0  1  0  0  0  0  0999 V2000
  189.4690  177.6510  143.1590 C   0  0  0  0  0  2  0  0  0  0  0  0
  188.0070  177.7900  143.5500 C   0  0  2  0  0  3  0  0  0  0  0  0
  187.4190  176.4110  143.8090 C   0  0  0  0  0  2  0  0  0  0  0  0
  187.4820  176.0780  145.2910 C   0  0  0  0  0  2  0  0  0  0  0  0
  184.4760  177.9690  146.5790 C   0  0  0  0  0  3  0  0  0  0  0  0
  186.6340  177.0270  146.0640 C   0  0  0  0  0  0  0  0  0  0  0  0
  186.3910  178.7110  147.7720 C   0  0  0  0  0  0  0  0  0  0  0  0
  185.2580  177.0860  145.8290 C   0  0  0  0  0  3  0  0  0  0  0  0
  187.2060  177.8400  147.0450 C   0  0  0  0  0  3  0  0  0  0  0  0
  186.9300  179.5000  148.7300 F   0  0  0  0  0  0  0  0  0  0  0  0
  185.0540  178.7580  147.5250 N   0  0  0  0  0  0  0  0  0  0  0  0
  187.2400  178.4740  142.4290 C   0  0  0  0  0  2  0  0  0  0  0  0
  186.4000  177.4860  140.0330 S   0  0  0  0  0  1  0  0  0  0  0  0
  186.2150  177.5270  141.8370 C   0  0  0  0  0  2  0  0  0  0  0  0
  190.3680  177.9190  144.3610 C   0  0  0  0  0  2  0  0  0  0  0  0
  191.2910  176.0670  145.9180 C   0  0  2  0  0  0  0  0  0  0  0  0
  190.9470  174.4680  144.2460 C   0  0  1  0  0  3  0  0  0  0  0  0
  190.6500  174.7900  145.6390 N   0  0  0  0  0  2  0  0  0  0  0  0
  189.8280  173.8870  143.6510 O   0  0  0  0  0  1  0  0  0  0  0  0
  191.3080  175.7480  143.5170 C   0  0  2  0  0  3  0  0  0  0  0  0
  192.5440  175.5940  142.8890 O   0  0  0  0  0  1  0  0  0  0  0  0
  190.5300  176.7760  146.8530 O   0  0  0  0  0  1  0  0  0  0  0  0
  191.4100  176.8130  144.5850 C   0  0  1  0  0  3  0  0  0  0  0  0
  192.6810  175.8120  146.4950 C   0  0  0  0  0  2  0  0  0  0  0  0
  193.6290  176.6360  145.8840 O   0  0  0  0  0  0  0  0  0  0  0  0
  194.8200  176.0670  146.1870 N   0  0  0  0  0  2  0  0  0  0  0  0
  195.0910  175.0740  145.1610 C   0  0  0  0  0  2  0  0  0  0  0  0
  196.4480  174.7500  145.1680 O   0  0  0  0  0  1  0  0  0  0  0  0
  1  2  1  0  0  0  0
  1 15  1  0  0  0  0
  2 12  1  6  0  0  0
  2  3  1  0  0  0  0
  3  4  1  0  0  0  0
  4  6  1  0  0  0  0
  5 11  1  0  0  0  0
  6  9  2  0  0  0  0
  7 10  1  0  0  0  0
  8  6  1  0  0  0  0
  8  5  2  0  0  0  0
  9  7  1  0  0  0  0
 11  7  2  0  0  0  0
 13 14  1  0  0  0  0
 14 12  1  0  0  0  0
 16 24  1  0  0  0  0
 16 22  1  1  0  0  0
 17 19  1  6  0  0  0
 17 18  1  0  0  0  0
 18 16  1  0  0  0  0
 20 21  1  1  0  0  0
 20 17  1  0  0  0  0
 20 23  1  0  0  0  0
 23 15  1  6  0  0  0
 23 16  1  0  0  0  0
 25 26  1  0  0  0  0
 25 24  1  0  0  0  0
 27 28  1  0  0  0  0
 27 26  1  0  0  0  0
M  END
>  <MODEL>
1

>  <REMARK>
 VINA RESULT:      -5.9      0.000      0.000
  Name = 
  12 active torsions:
  status: ('A' for Active; 'I' for Inactive)
    1  A    between atoms: C_1  and  C_11
    2  A    between atoms: O_6  and  N_8
    3  A    between atoms: O_6  and  C_11
    4  A    between atoms: N_8  and  C_22
    5  A    between atoms: C_9  and  C_18
    6  A    between atoms: C_10  and  C_14
    7  A    between atoms: C_10  and  C_17
    8  A    between atoms: C_10  and  C_25
    9  A    between atoms: C_14  and  C_18
   10  A    between atoms: C_17  and  C_19
   11  A    between atoms: C_19  and  C_27
   12  A    between atoms: C_20  and  C_25
                            x       y       z     vdW  Elec       q    Type
                         _______ _______ _______ _____ _____    ______ ____

>  <TORSDO>
F 12

$$$$
=
 OpenBabel11052418173D

 28 29  0  0  1  0  0  0  0  0999 V2000
  189.5590  174.6290  146.1130 C   0  0  0  0  0  2  0  0  0  0  0  0
  189.9020  175.9780  146.7230 C   0  0  2  0  0  3  0  0  0  0  0  0
  188.8140  176.9830  146.3770 C   0  0  0  0  0  2  0  0  0  0  0  0
  187.4640  176.2910  146.2810 C   0  0  0  0  0  2  0  0  0  0  0  0
  184.2150  178.2090  146.4680 C   0  0  0  0  0  3  0  0  0  0  0  0
  186.3960  177.2910  146.0080 C   0  0  0  0  0  0  0  0  0  0  0  0
  185.5920  179.2330  144.8260 C   0  0  0  0  0  0  0  0  0  0  0  0
  185.1970  177.2480  146.7250 C   0  0  0  0  0  3  0  0  0  0  0  0
  186.5990  178.2930  145.0560 C   0  0  0  0  0  3  0  0  0  0  0  0
  185.7770  180.2120  143.9110 F   0  0  0  0  0  0  0  0  0  0  0  0
  184.4300  179.1710  145.5310 N   0  0  0  0  0  0  0  0  0  0  0  0
  191.2390  176.4600  146.1800 C   0  0  0  0  0  2  0  0  0  0  0  0
  193.9390  176.6810  146.4710 S   0  0  0  0  0  1  0  0  0  0  0  0
  192.3500  176.1490  147.1650 C   0  0  0  0  0  2  0  0  0  0  0  0
  190.2790  174.4500  144.7810 C   0  0  0  0  0  2  0  0  0  0  0  0
  189.3750  175.2680  142.4970 C   0  0  2  0  0  0  0  0  0  0  0  0
  189.9980  173.2410  141.5080 C   0  0  1  0  0  3  0  0  0  0  0  0
  190.1420  174.6910  141.4010 N   0  0  0  0  0  2  0  0  0  0  0  0
  191.2100  172.6270  141.1960 O   0  0  0  0  0  1  0  0  0  0  0  0
  189.6010  172.8950  142.9300 C   0  0  2  0  0  3  0  0  0  0  0  0
  188.4420  172.1170  142.9130 O   0  0  0  0  0  1  0  0  0  0  0  0
  189.9880  176.4510  142.9220 O   0  0  0  0  0  1  0  0  0  0  0  0
  189.3160  174.2150  143.6090 C   0  0  1  0  0  3  0  0  0  0  0  0
  187.9650  175.5840  142.0060 C   0  0  0  0  0  2  0  0  0  0  0  0
  187.9380  175.6820  140.6130 O   0  0  0  0  0  0  0  0  0  0  0  0
  187.1900  176.7830  140.3640 N   0  0  0  0  0  2  0  0  0  0  0  0
  186.4510  177.0800  141.5800 C   0  0  0  0  0  2  0  0  0  0  0  0
  185.7350  178.2670  141.4160 O   0  0  0  0  0  1  0  0  0  0  0  0
  2  1  1  6  0  0  0
  3  2  1  0  0  0  0
  4  3  1  0  0  0  0
  5  8  1  0  0  0  0
  6  4  1  0  0  0  0
  6  8  2  0  0  0  0
  7  9  2  0  0  0  0
  7 11  1  0  0  0  0
  9  6  1  0  0  0  0
 10  7  1  0  0  0  0
 11  5  2  0  0  0  0
 12  2  1  0  0  0  0
 12 14  1  0  0  0  0
 13 14  1  0  0  0  0
 15  1  1  0  0  0  0
 16 22  1  1  0  0  0
 16 23  1  0  0  0  0
 17 19  1  1  0  0  0
 17 20  1  0  0  0  0
 18 17  1  0  0  0  0
 18 16  1  0  0  0  0
 20 21  1  6  0  0  0
 20 23  1  0  0  0  0
 23 15  1  1  0  0  0
 24 16  1  0  0  0  0
 25 24  1  0  0  0  0
 26 25  1  0  0  0  0
 26 27  1  0  0  0  0
 28 27  1  0  0  0  0
M  END
>  <MODEL>
2

>  <REMARK>
 VINA RESULT:      -5.8      3.519      5.521
  Name = 
  12 active torsions:
  status: ('A' for Active; 'I' for Inactive)
    1  A    between atoms: C_1  and  C_11
    2  A    between atoms: O_6  and  N_8
    3  A    between atoms: O_6  and  C_11
    4  A    between atoms: N_8  and  C_22
    5  A    between atoms: C_9  and  C_18
    6  A    between atoms: C_10  and  C_14
    7  A    between atoms: C_10  and  C_17
    8  A    between atoms: C_10  and  C_25
    9  A    between atoms: C_14  and  C_18
   10  A    between atoms: C_17  and  C_19
   11  A    between atoms: C_19  and  C_27
   12  A    between atoms: C_20  and  C_25
                            x       y       z     vdW  Elec       q    Type
                         _______ _______ _______ _____ _____    ______ ____

>  <TORSDO>
F 12

$$$$
=
 OpenBabel11052418173D

 28 29  0  0  1  0  0  0  0  0999 V2000
  188.5410  177.2350  142.1360 C   0  0  0  0  0  2  0  0  0  0  0  0
  187.3970  177.7210  143.0100 C   0  0  2  0  0  3  0  0  0  0  0  0
  186.5980  176.5270  143.5120 C   0  0  0  0  0  2  0  0  0  0  0  0
  186.9860  176.1940  144.9430 C   0  0  0  0  0  2  0  0  0  0  0  0
  184.3570  178.2680  146.6900 C   0  0  0  0  0  3  0  0  0  0  0  0
  186.3300  177.1430  145.8840 C   0  0  0  0  0  0  0  0  0  0  0  0
  186.4390  178.6390  147.7710 C   0  0  0  0  0  0  0  0  0  0  0  0
  184.9580  177.3900  145.7840 C   0  0  0  0  0  3  0  0  0  0  0  0
  187.0770  177.7660  146.8870 C   0  0  0  0  0  3  0  0  0  0  0  0
  187.1480  179.2460  148.7510 F   0  0  0  0  0  0  0  0  0  0  0  0
  185.1040  178.8710  147.6550 N   0  0  0  0  0  0  0  0  0  0  0  0
  186.4930  178.6420  142.2040 C   0  0  0  0  0  2  0  0  0  0  0  0
  184.2570  178.2810  140.6910 S   0  0  0  0  0  1  0  0  0  0  0  0
  186.0210  177.9450  140.9430 C   0  0  0  0  0  2  0  0  0  0  0  0
  189.8470  177.9020  142.5530 C   0  0  0  0  0  2  0  0  0  0  0  0
  190.8380  176.7050  144.6240 C   0  0  2  0  0  0  0  0  0  0  0  0
  190.3360  174.6240  143.6810 C   0  0  1  0  0  3  0  0  0  0  0  0
  190.1480  175.4460  144.8730 N   0  0  0  0  0  2  0  0  0  0  0  0
  189.1630  173.9210  143.4080 O   0  0  0  0  0  1  0  0  0  0  0  0
  190.6720  175.5310  142.5120 C   0  0  2  0  0  3  0  0  0  0  0  0
  191.8550  175.0980  141.9130 O   0  0  0  0  0  1  0  0  0  0  0  0
  190.1640  177.7420  145.2770 O   0  0  0  0  0  1  0  0  0  0  0  0
  190.8760  176.9050  143.1060 C   0  0  1  0  0  3  0  0  0  0  0  0
  192.2590  176.6110  145.1720 C   0  0  0  0  0  2  0  0  0  0  0  0
  192.2880  175.8450  146.3400 O   0  0  0  0  0  0  0  0  0  0  0  0
  192.5720  176.7330  147.3220 N   0  0  0  0  0  2  0  0  0  0  0  0
  191.4380  176.7390  148.2330 C   0  0  0  0  0  2  0  0  0  0  0  0
  191.6310  177.7110  149.2160 O   0  0  0  0  0  1  0  0  0  0  0  0
  1 15  1  0  0  0  0
  2  1  1  6  0  0  0
  2  3  1  0  0  0  0
  3  4  1  0  0  0  0
  4  6  1  0  0  0  0
  5 11  1  0  0  0  0
  6  9  2  0  0  0  0
  7 10  1  0  0  0  0
  8  6  1  0  0  0  0
  8  5  2  0  0  0  0
  9  7  1  0  0  0  0
 11  7  2  0  0  0  0
 12  2  1  0  0  0  0
 13 14  1  0  0  0  0
 14 12  1  0  0  0  0
 16 18  1  0  0  0  0
 16 24  1  0  0  0  0
 16 22  1  1  0  0  0
 17 19  1  6  0  0  0
 17 18  1  0  0  0  0
 20 21  1  1  0  0  0
 20 23  1  0  0  0  0
 20 17  1  0  0  0  0
 23 15  1  6  0  0  0
 23 16  1  0  0  0  0
 24 25  1  0  0  0  0
 25 26  1  0  0  0  0
 26 27  1  0  0  0  0
 27 28  1  0  0  0  0
M  END
>  <MODEL>
3

>  <REMARK>
 VINA RESULT:      -5.8      1.531      2.028
  Name = 
  12 active torsions:
  status: ('A' for Active; 'I' for Inactive)
    1  A    between atoms: C_1  and  C_11
    2  A    between atoms: O_6  and  N_8
    3  A    between atoms: O_6  and  C_11
    4  A    between atoms: N_8  and  C_22
    5  A    between atoms: C_9  and  C_18
    6  A    between atoms: C_10  and  C_14
    7  A    between atoms: C_10  and  C_17
    8  A    between atoms: C_10  and  C_25
    9  A    between atoms: C_14  and  C_18
   10  A    between atoms: C_17  and  C_19
   11  A    between atoms: C_19  and  C_27
   12  A    between atoms: C_20  and  C_25
                            x       y       z     vdW  Elec       q    Type
                         _______ _______ _______ _____ _____    ______ ____

>  <TORSDO>
F 12

$$$$
=
 OpenBabel11052418173D

 28 29  0  0  1  0  0  0  0  0999 V2000
  188.6050  177.3340  146.8180 C   0  0  0  0  0  2  0  0  0  0  0  0
  187.5090  176.7920  145.9150 C   0  0  2  0  0  3  0  0  0  0  0  0
  187.5920  177.4670  144.5550 C   0  0  0  0  0  2  0  0  0  0  0  0
  187.3120  176.4650  143.4470 C   0  0  0  0  0  2  0  0  0  0  0  0
  186.0470  177.7870  140.1420 C   0  0  0  0  0  3  0  0  0  0  0  0
  186.4330  177.0790  142.4130 C   0  0  0  0  0  0  0  0  0  0  0  0
  184.3220  178.0390  141.7550 C   0  0  0  0  0  0  0  0  0  0  0  0
  186.8940  177.2270  141.1030 C   0  0  0  0  0  3  0  0  0  0  0  0
  185.1370  177.4810  142.7430 C   0  0  0  0  0  3  0  0  0  0  0  0
  183.0620  178.4280  142.0580 F   0  0  0  0  0  0  0  0  0  0  0  0
  184.7900  178.1790  140.4860 N   0  0  0  0  0  0  0  0  0  0  0  0
  186.1500  177.0620  146.5420 C   0  0  0  0  0  2  0  0  0  0  0  0
  184.0530  178.6970  145.9500 S   0  0  0  0  0  1  0  0  0  0  0  0
  185.7970  178.5310  146.4210 C   0  0  0  0  0  2  0  0  0  0  0  0
  189.9390  177.3520  146.0800 C   0  0  0  0  0  2  0  0  0  0  0  0
  191.3950  175.5860  144.8690 C   0  0  2  0  0  0  0  0  0  0  0  0
  193.0660  175.8310  146.4870 C   0  0  1  0  0  3  0  0  0  0  0  0
  192.8120  175.8720  145.0500 N   0  0  0  0  0  2  0  0  0  0  0  0
  193.9670  176.8390  146.8310 O   0  0  0  0  0  1  0  0  0  0  0  0
  191.7560  176.0450  147.2200 C   0  0  2  0  0  3  0  0  0  0  0  0
  191.5540  175.0030  148.1250 O   0  0  0  0  0  1  0  0  0  0  0  0
  190.9190  176.2780  143.7500 O   0  0  0  0  0  1  0  0  0  0  0  0
  190.6820  176.0100  146.1570 C   0  0  1  0  0  3  0  0  0  0  0  0
  191.2140  174.0880  144.6440 C   0  0  0  0  0  2  0  0  0  0  0  0
  190.0340  173.6380  145.2400 O   0  0  0  0  0  0  0  0  0  0  0  0
  189.9530  172.3310  144.8920 N   0  0  0  0  0  2  0  0  0  0  0  0
  189.9920  172.2750  143.4400 C   0  0  0  0  0  2  0  0  0  0  0  0
  188.7120  172.0180  142.9460 O   0  0  0  0  0  1  0  0  0  0  0  0
  2  3  1  6  0  0  0
  2 12  1  0  0  0  0
  2  1  1  0  0  0  0
  4  3  1  0  0  0  0
  5 11  2  0  0  0  0
  5  8  1  0  0  0  0
  6  9  1  0  0  0  0
  6  4  1  0  0  0  0
  7 10  1  0  0  0  0
  7  9  2  0  0  0  0
  8  6  2  0  0  0  0
 11  7  1  0  0  0  0
 13 14  1  0  0  0  0
 14 12  1  0  0  0  0
 15  1  1  0  0  0  0
 16 22  1  6  0  0  0
 16 18  1  0  0  0  0
 16 23  1  0  0  0  0
 17 19  1  6  0  0  0
 17 20  1  0  0  0  0
 18 17  1  0  0  0  0
 20 21  1  1  0  0  0
 23 15  1  6  0  0  0
 23 20  1  0  0  0  0
 24 16  1  0  0  0  0
 24 25  1  0  0  0  0
 26 25  1  0  0  0  0
 27 26  1  0  0  0  0
 28 27  1  0  0  0  0
M  END
>  <MODEL>
4

>  <REMARK>
 VINA RESULT:      -5.7      2.829      4.860
  Name = 
  12 active torsions:
  status: ('A' for Active; 'I' for Inactive)
    1  A    between atoms: C_1  and  C_11
    2  A    between atoms: O_6  and  N_8
    3  A    between atoms: O_6  and  C_11
    4  A    between atoms: N_8  and  C_22
    5  A    between atoms: C_9  and  C_18
    6  A    between atoms: C_10  and  C_14
    7  A    between atoms: C_10  and  C_17
    8  A    between atoms: C_10  and  C_25
    9  A    between atoms: C_14  and  C_18
   10  A    between atoms: C_17  and  C_19
   11  A    between atoms: C_19  and  C_27
   12  A    between atoms: C_20  and  C_25
                            x       y       z     vdW  Elec       q    Type
                         _______ _______ _______ _____ _____    ______ ____

>  <TORSDO>
F 12

$$$$
=
 OpenBabel11052418173D

 28 29  0  0  1  0  0  0  0  0999 V2000
  190.3770  175.1490  146.3570 C   0  0  0  0  0  2  0  0  0  0  0  0
  189.9130  176.0640  145.2350 C   0  0  2  0  0  3  0  0  0  0  0  0
  188.9600  177.1090  145.7930 C   0  0  0  0  0  2  0  0  0  0  0  0
  187.6750  176.4540  146.2710 C   0  0  0  0  0  2  0  0  0  0  0  0
  184.2390  178.0160  146.4400 C   0  0  0  0  0  3  0  0  0  0  0  0
  186.5170  177.3530  146.0100 C   0  0  0  0  0  0  0  0  0  0  0  0
  185.5490  179.2610  144.8980 C   0  0  0  0  0  0  0  0  0  0  0  0
  185.3090  177.1490  146.6830 C   0  0  0  0  0  3  0  0  0  0  0  0
  186.6420  178.4180  145.1160 C   0  0  0  0  0  3  0  0  0  0  0  0
  185.6580  180.3010  144.0390 F   0  0  0  0  0  0  0  0  0  0  0  0
  184.3800  179.0430  145.5590 N   0  0  0  0  0  0  0  0  0  0  0  0
  189.2080  175.2440  144.1650 C   0  0  0  0  0  2  0  0  0  0  0  0
  187.3470  175.8810  142.2810 S   0  0  0  0  0  1  0  0  0  0  0  0
  189.0420  176.0620  142.8990 C   0  0  0  0  0  2  0  0  0  0  0  0
  191.8790  175.2950  146.5740 C   0  0  0  0  0  2  0  0  0  0  0  0
  194.1760  175.4080  145.3840 C   0  0  2  0  0  0  0  0  0  0  0  0
  194.1220  173.0960  145.0280 C   0  0  1  0  0  3  0  0  0  0  0  0
  194.9260  174.1760  145.5920 N   0  0  0  0  0  2  0  0  0  0  0  0
  194.2140  171.9700  145.8430 O   0  0  0  0  0  1  0  0  0  0  0  0
  192.6780  173.5540  144.9500 C   0  0  2  0  0  3  0  0  0  0  0  0
  192.2070  173.3900  143.6470 O   0  0  0  0  0  1  0  0  0  0  0  0
  194.4340  176.2930  146.4360 O   0  0  0  0  0  1  0  0  0  0  0  0
  192.6950  175.0240  145.3010 C   0  0  1  0  0  3  0  0  0  0  0  0
  194.6210  176.0470  144.0720 C   0  0  0  0  0  2  0  0  0  0  0  0
  195.7830  176.8000  144.2600 O   0  0  0  0  0  0  0  0  0  0  0  0
  196.6610  176.3020  143.3560 N   0  0  0  0  0  2  0  0  0  0  0  0
  196.1320  176.6060  142.0370 C   0  0  0  0  0  2  0  0  0  0  0  0
  196.9780  176.0790  141.0600 O   0  0  0  0  0  1  0  0  0  0  0  0
  1 15  1  0  0  0  0
  2 12  1  6  0  0  0
  2  3  1  0  0  0  0
  2  1  1  0  0  0  0
  3  4  1  0  0  0  0
  5  8  1  0  0  0  0
  6  4  1  0  0  0  0
  6  8  2  0  0  0  0
  7  9  2  0  0  0  0
  7 11  1  0  0  0  0
  9  6  1  0  0  0  0
 10  7  1  0  0  0  0
 11  5  2  0  0  0  0
 13 14  1  0  0  0  0
 14 12  1  0  0  0  0
 16 18  1  0  0  0  0
 16 22  1  1  0  0  0
 17 18  1  0  0  0  0
 17 19  1  1  0  0  0
 20 21  1  6  0  0  0
 20 17  1  0  0  0  0
 20 23  1  0  0  0  0
 23 16  1  0  0  0  0
 23 15  1  1  0  0  0
 24 25  1  0  0  0  0
 24 16  1  0  0  0  0
 26 25  1  0  0  0  0
 27 26  1  0  0  0  0
 28 27  1  0  0  0  0
M  END
>  <MODEL>
5

>  <REMARK>
 VINA RESULT:      -5.6      2.325      3.235
  Name = 
  12 active torsions:
  status: ('A' for Active; 'I' for Inactive)
    1  A    between atoms: C_1  and  C_11
    2  A    between atoms: O_6  and  N_8
    3  A    between atoms: O_6  and  C_11
    4  A    between atoms: N_8  and  C_22
    5  A    between atoms: C_9  and  C_18
    6  A    between atoms: C_10  and  C_14
    7  A    between atoms: C_10  and  C_17
    8  A    between atoms: C_10  and  C_25
    9  A    between atoms: C_14  and  C_18
   10  A    between atoms: C_17  and  C_19
   11  A    between atoms: C_19  and  C_27
   12  A    between atoms: C_20  and  C_25
                            x       y       z     vdW  Elec       q    Type
                         _______ _______ _______ _____ _____    ______ ____

>  <TORSDO>
F 12

$$$$
=
 OpenBabel11052418173D

 28 29  0  0  1  0  0  0  0  0999 V2000
  190.1740  177.8660  145.0100 C   0  0  0  0  0  2  0  0  0  0  0  0
  188.7690  177.4830  144.5740 C   0  0  2  0  0  3  0  0  0  0  0  0
  188.4390  176.0900  145.0890 C   0  0  0  0  0  2  0  0  0  0  0  0
  188.0190  176.1500  146.5480 C   0  0  0  0  0  2  0  0  0  0  0  0
  184.5690  177.6680  146.3010 C   0  0  0  0  0  3  0  0  0  0  0  0
  186.8710  177.0850  146.7110 C   0  0  0  0  0  0  0  0  0  0  0  0
  185.9190  179.0990  147.6320 C   0  0  0  0  0  0  0  0  0  0  0  0
  185.6400  176.7890  146.1200 C   0  0  0  0  0  3  0  0  0  0  0  0
  187.0130  178.2430  147.4770 C   0  0  0  0  0  3  0  0  0  0  0  0
  186.0390  180.2220  148.3770 F   0  0  0  0  0  0  0  0  0  0  0  0
  184.7300  178.7960  147.0450 N   0  0  0  0  0  0  0  0  0  0  0  0
  188.6800  177.5050  143.0560 C   0  0  0  0  0  2  0  0  0  0  0  0
  187.0710  177.5690  140.8590 S   0  0  0  0  0  1  0  0  0  0  0  0
  187.2830  177.1260  142.6050 C   0  0  0  0  0  2  0  0  0  0  0  0
  191.2090  177.1530  144.1470 C   0  0  0  0  0  2  0  0  0  0  0  0
  193.1040  175.3890  144.1500 C   0  0  2  0  0  0  0  0  0  0  0  0
  193.9380  176.2650  146.1520 C   0  0  1  0  0  3  0  0  0  0  0  0
  194.3050  175.9210  144.7820 N   0  0  0  0  0  2  0  0  0  0  0  0
  194.5730  177.4500  146.5220 O   0  0  0  0  0  1  0  0  0  0  0  0
  192.4340  176.4480  146.2230 C   0  0  2  0  0  3  0  0  0  0  0  0
  191.9130  175.6360  147.2310 O   0  0  0  0  0  1  0  0  0  0  0  0
  193.1120  175.7110  142.7890 O   0  0  0  0  0  1  0  0  0  0  0  0
  191.9030  175.9960  144.8820 C   0  0  1  0  0  3  0  0  0  0  0  0
  193.0920  173.8700  144.3040 C   0  0  0  0  0  2  0  0  0  0  0  0
  191.9120  173.4460  144.9200 O   0  0  0  0  0  0  0  0  0  0  0  0
  191.4760  172.4210  144.1500 N   0  0  0  0  0  2  0  0  0  0  0  0
  190.2660  172.8730  143.4830 C   0  0  0  0  0  2  0  0  0  0  0  0
  189.2620  171.9150  143.6320 O   0  0  0  0  0  1  0  0  0  0  0  0
  2 12  1  6  0  0  0
  2  1  1  0  0  0  0
  2  3  1  0  0  0  0
  3  4  1  0  0  0  0
  4  6  1  0  0  0  0
  5 11  1  0  0  0  0
  6  9  2  0  0  0  0
  7 10  1  0  0  0  0
  8  5  2  0  0  0  0
  8  6  1  0  0  0  0
  9  7  1  0  0  0  0
 11  7  2  0  0  0  0
 13 14  1  0  0  0  0
 14 12  1  0  0  0  0
 15  1  1  0  0  0  0
 16 22  1  6  0  0  0
 16 24  1  0  0  0  0
 16 18  1  0  0  0  0
 16 23  1  0  0  0  0
 17 20  1  0  0  0  0
 17 19  1  6  0  0  0
 18 17  1  0  0  0  0
 20 21  1  1  0  0  0
 23 15  1  6  0  0  0
 23 20  1  0  0  0  0
 24 25  1  0  0  0  0
 26 25  1  0  0  0  0
 27 28  1  0  0  0  0
 27 26  1  0  0  0  0
M  END
>  <MODEL>
6

>  <REMARK>
 VINA RESULT:      -5.5      1.445      3.280
  Name = 
  12 active torsions:
  status: ('A' for Active; 'I' for Inactive)
    1  A    between atoms: C_1  and  C_11
    2  A    between atoms: O_6  and  N_8
    3  A    between atoms: O_6  and  C_11
    4  A    between atoms: N_8  and  C_22
    5  A    between atoms: C_9  and  C_18
    6  A    between atoms: C_10  and  C_14
    7  A    between atoms: C_10  and  C_17
    8  A    between atoms: C_10  and  C_25
    9  A    between atoms: C_14  and  C_18
   10  A    between atoms: C_17  and  C_19
   11  A    between atoms: C_19  and  C_27
   12  A    between atoms: C_20  and  C_25
                            x       y       z     vdW  Elec       q    Type
                         _______ _______ _______ _____ _____    ______ ____

>  <TORSDO>
F 12

$$$$
=
 OpenBabel11052418173D

 28 29  0  0  1  0  0  0  0  0999 V2000
  188.8170  175.5940  142.9830 C   0  0  0  0  0  2  0  0  0  0  0  0
  189.2010  177.0570  143.1290 C   0  0  2  0  0  3  0  0  0  0  0  0
  188.7290  177.5730  144.4800 C   0  0  0  0  0  2  0  0  0  0  0  0
  187.7270  176.6100  145.0950 C   0  0  0  0  0  2  0  0  0  0  0  0
  184.4420  177.5640  146.6980 C   0  0  0  0  0  3  0  0  0  0  0  0
  186.4520  177.3210  145.3910 C   0  0  0  0  0  0  0  0  0  0  0  0
  184.9020  179.1170  144.9610 C   0  0  0  0  0  0  0  0  0  0  0  0
  185.6250  176.8720  146.4230 C   0  0  0  0  0  3  0  0  0  0  0  0
  186.0940  178.4540  144.6570 C   0  0  0  0  0  3  0  0  0  0  0  0
  184.5450  180.2190  144.2630 F   0  0  0  0  0  0  0  0  0  0  0  0
  184.1080  178.6610  145.9670 N   0  0  0  0  0  0  0  0  0  0  0  0
  188.5580  177.8690  142.0150 C   0  0  0  0  0  2  0  0  0  0  0  0
  186.0610  177.9150  140.9260 S   0  0  0  0  0  1  0  0  0  0  0  0
  187.6010  177.0030  141.2180 C   0  0  0  0  0  2  0  0  0  0  0  0
  190.0530  174.7470  142.7010 C   0  0  0  0  0  2  0  0  0  0  0  0
  191.4760  174.0470  144.7470 C   0  0  2  0  0  0  0  0  0  0  0  0
  193.4080  174.0630  143.4290 C   0  0  1  0  0  3  0  0  0  0  0  0
  192.6140  173.2360  144.3330 N   0  0  0  0  0  2  0  0  0  0  0  0
  193.8980  173.2770  142.3860 O   0  0  0  0  0  1  0  0  0  0  0  0
  192.5240  175.1610  142.8690 C   0  0  2  0  0  3  0  0  0  0  0  0
  193.1210  176.4010  143.0970 O   0  0  0  0  0  1  0  0  0  0  0  0
  190.3690  173.2200  144.9620 O   0  0  0  0  0  1  0  0  0  0  0  0
  191.2260  175.0720  143.6380 C   0  0  1  0  0  3  0  0  0  0  0  0
  191.8240  174.7640  146.0490 C   0  0  0  0  0  2  0  0  0  0  0  0
  191.6000  176.1380  145.9300 O   0  0  0  0  0  0  0  0  0  0  0  0
  192.4080  176.6960  146.8630 N   0  0  0  0  0  2  0  0  0  0  0  0
  193.7740  176.3460  146.5080 C   0  0  0  0  0  2  0  0  0  0  0  0
  194.5670  177.4940  146.5070 O   0  0  0  0  0  1  0  0  0  0  0  0
  1  2  1  0  0  0  0
  2 12  1  6  0  0  0
  2  3  1  0  0  0  0
  3  4  1  0  0  0  0
  4  6  1  0  0  0  0
  6  8  2  0  0  0  0
  7 11  1  0  0  0  0
  8  5  1  0  0  0  0
  9  7  2  0  0  0  0
  9  6  1  0  0  0  0
 10  7  1  0  0  0  0
 11  5  2  0  0  0  0
 13 14  1  0  0  0  0
 14 12  1  0  0  0  0
 15  1  1  0  0  0  0
 16 22  1  1  0  0  0
 16 24  1  0  0  0  0
 17 19  1  6  0  0  0
 17 18  1  0  0  0  0
 18 16  1  0  0  0  0
 20 21  1  1  0  0  0
 20 17  1  0  0  0  0
 20 23  1  0  0  0  0
 23 15  1  6  0  0  0
 23 16  1  0  0  0  0
 25 24  1  0  0  0  0
 25 26  1  0  0  0  0
 27 26  1  0  0  0  0
 28 27  1  0  0  0  0
M  END
>  <MODEL>
7

>  <REMARK>
 VINA RESULT:      -5.5      1.910      2.474
  Name = 
  12 active torsions:
  status: ('A' for Active; 'I' for Inactive)
    1  A    between atoms: C_1  and  C_11
    2  A    between atoms: O_6  and  N_8
    3  A    between atoms: O_6  and  C_11
    4  A    between atoms: N_8  and  C_22
    5  A    between atoms: C_9  and  C_18
    6  A    between atoms: C_10  and  C_14
    7  A    between atoms: C_10  and  C_17
    8  A    between atoms: C_10  and  C_25
    9  A    between atoms: C_14  and  C_18
   10  A    between atoms: C_17  and  C_19
   11  A    between atoms: C_19  and  C_27
   12  A    between atoms: C_20  and  C_25
                            x       y       z     vdW  Elec       q    Type
                         _______ _______ _______ _____ _____    ______ ____

>  <TORSDO>
F 12

$$$$
=
 OpenBabel11052418173D

 28 29  0  0  1  0  0  0  0  0999 V2000
  188.9390  177.3740  144.9090 C   0  0  0  0  0  2  0  0  0  0  0  0
  188.9650  176.8170  146.3230 C   0  0  2  0  0  3  0  0  0  0  0  0
  189.7440  175.5100  146.3400 C   0  0  0  0  0  2  0  0  0  0  0  0
  190.7780  175.5230  147.4530 C   0  0  0  0  0  2  0  0  0  0  0  0
  193.9450  174.5790  145.6220 C   0  0  0  0  0  3  0  0  0  0  0  0
  192.1490  175.5860  146.8750 C   0  0  0  0  0  0  0  0  0  0  0  0
  194.1900  176.7950  146.4410 C   0  0  0  0  0  0  0  0  0  0  0  0
  192.6640  174.4920  146.1740 C   0  0  0  0  0  3  0  0  0  0  0  0
  192.9130  176.7480  147.0050 C   0  0  0  0  0  3  0  0  0  0  0  0
  194.9390  177.9160  146.5540 F   0  0  0  0  0  0  0  0  0  0  0  0
  194.6750  175.7170  145.7670 N   0  0  0  0  0  0  0  0  0  0  0  0
  187.5430  176.5750  146.8050 C   0  0  0  0  0  2  0  0  0  0  0  0
  185.9440  178.6160  147.6390 S   0  0  0  0  0  1  0  0  0  0  0  0
  186.6150  177.6440  146.2630 C   0  0  0  0  0  2  0  0  0  0  0  0
  189.7550  176.4880  143.9750 C   0  0  0  0  0  2  0  0  0  0  0  0
  188.5010  174.9160  142.3430 C   0  0  2  0  0  0  0  0  0  0  0  0
  186.7100  176.4180  142.2470 C   0  0  1  0  0  3  0  0  0  0  0  0
  187.0600  175.0270  142.5230 N   0  0  0  0  0  2  0  0  0  0  0  0
  185.7260  176.8390  143.1410 O   0  0  0  0  0  1  0  0  0  0  0  0
  187.9520  177.2740  142.4140 C   0  0  2  0  0  3  0  0  0  0  0  0
  188.1570  178.0260  141.2570 O   0  0  0  0  0  1  0  0  0  0  0  0
  189.0070  173.9540  143.2230 O   0  0  0  0  0  1  0  0  0  0  0  0
  189.0960  176.3040  142.6000 C   0  0  1  0  0  3  0  0  0  0  0  0
  188.7920  174.4830  140.9090 C   0  0  0  0  0  2  0  0  0  0  0  0
  188.1930  173.2520  140.6340 O   0  0  0  0  0  0  0  0  0  0  0  0
  188.4420  173.0380  139.3200 N   0  0  0  0  0  2  0  0  0  0  0  0
  188.1910  174.2930  138.6300 C   0  0  0  0  0  2  0  0  0  0  0  0
  188.5490  174.1690  137.2860 O   0  0  0  0  0  1  0  0  0  0  0  0
  2  1  1  6  0  0  0
  2  3  1  0  0  0  0
  2 12  1  0  0  0  0
  3  4  1  0  0  0  0
  5 11  2  0  0  0  0
  5  8  1  0  0  0  0
  6  9  1  0  0  0  0
  6  4  1  0  0  0  0
  7 10  1  0  0  0  0
  7  9  2  0  0  0  0
  8  6  2  0  0  0  0
 11  7  1  0  0  0  0
 14 12  1  0  0  0  0
 14 13  1  0  0  0  0
 15  1  1  0  0  0  0
 16 18  1  0  0  0  0
 16 23  1  0  0  0  0
 16 22  1  1  0  0  0
 17 20  1  0  0  0  0
 17 18  1  0  0  0  0
 17 19  1  1  0  0  0
 20 21  1  6  0  0  0
 20 23  1  0  0  0  0
 23 15  1  1  0  0  0
 24 16  1  0  0  0  0
 25 24  1  0  0  0  0
 26 25  1  0  0  0  0
 27 26  1  0  0  0  0
 28 27  1  0  0  0  0
M  END
>  <MODEL>
8

>  <REMARK>
 VINA RESULT:      -5.5      3.698      6.602
  Name = 
  12 active torsions:
  status: ('A' for Active; 'I' for Inactive)
    1  A    between atoms: C_1  and  C_11
    2  A    between atoms: O_6  and  N_8
    3  A    between atoms: O_6  and  C_11
    4  A    between atoms: N_8  and  C_22
    5  A    between atoms: C_9  and  C_18
    6  A    between atoms: C_10  and  C_14
    7  A    between atoms: C_10  and  C_17
    8  A    between atoms: C_10  and  C_25
    9  A    between atoms: C_14  and  C_18
   10  A    between atoms: C_17  and  C_19
   11  A    between atoms: C_19  and  C_27
   12  A    between atoms: C_20  and  C_25
                            x       y       z     vdW  Elec       q    Type
                         _______ _______ _______ _____ _____    ______ ____

>  <TORSDO>
F 12

$$$$
=
 OpenBabel11052418173D

 28 29  0  0  1  0  0  0  0  0999 V2000
  189.3830  174.5840  145.5530 C   0  0  0  0  0  2  0  0  0  0  0  0
  189.3160  175.4680  146.7870 C   0  0  2  0  0  3  0  0  0  0  0  0
  187.9010  176.0000  146.9550 C   0  0  0  0  0  2  0  0  0  0  0  0
  187.8930  177.5180  146.8860 C   0  0  0  0  0  2  0  0  0  0  0  0
  184.2130  178.2960  146.5340 C   0  0  0  0  0  3  0  0  0  0  0  0
  186.5970  177.9970  146.3320 C   0  0  0  0  0  0  0  0  0  0  0  0
  185.3350  179.1070  144.6030 C   0  0  0  0  0  0  0  0  0  0  0  0
  185.4180  177.8220  147.0610 C   0  0  0  0  0  3  0  0  0  0  0  0
  186.5590  178.6490  145.0970 C   0  0  0  0  0  3  0  0  0  0  0  0
  185.2830  179.7450  143.4110 F   0  0  0  0  0  0  0  0  0  0  0  0
  184.1970  178.9220  145.3250 N   0  0  0  0  0  0  0  0  0  0  0  0
  190.2880  176.6290  146.6370 C   0  0  0  0  0  2  0  0  0  0  0  0
  192.9600  176.1330  146.4520 S   0  0  0  0  0  1  0  0  0  0  0  0
  191.5100  176.4080  147.5060 C   0  0  0  0  0  2  0  0  0  0  0  0
  188.4890  175.1420  144.4510 C   0  0  0  0  0  2  0  0  0  0  0  0
  188.6890  174.9420  141.8780 C   0  0  2  0  0  0  0  0  0  0  0  0
  188.5930  177.2700  141.6730 C   0  0  1  0  0  3  0  0  0  0  0  0
  187.9760  176.0280  141.2180 N   0  0  0  0  0  2  0  0  0  0  0  0
  187.6080  178.2380  141.8660 O   0  0  0  0  0  1  0  0  0  0  0  0
  189.3110  177.0060  142.9830 C   0  0  2  0  0  3  0  0  0  0  0  0
  190.6380  177.4250  142.8790 O   0  0  0  0  0  1  0  0  0  0  0  0
  187.8090  173.8800  142.1090 O   0  0  0  0  0  1  0  0  0  0  0  0
  189.2670  175.5070  143.1790 C   0  0  1  0  0  3  0  0  0  0  0  0
  189.8200  174.4650  140.9710 C   0  0  0  0  0  2  0  0  0  0  0  0
  189.4200  173.3530  140.2260 O   0  0  0  0  0  0  0  0  0  0  0  0
  189.6870  173.6890  138.9420 N   0  0  0  0  0  2  0  0  0  0  0  0
  188.4760  173.4420  138.1760 C   0  0  0  0  0  2  0  0  0  0  0  0
  187.8320  174.6520  137.9140 O   0  0  0  0  0  1  0  0  0  0  0  0
  2  1  1  6  0  0  0
  2  3  1  0  0  0  0
  4  3  1  0  0  0  0
  5  8  1  0  0  0  0
  6  4  1  0  0  0  0
  6  8  2  0  0  0  0
  7  9  2  0  0  0  0
  7 11  1  0  0  0  0
  9  6  1  0  0  0  0
 10  7  1  0  0  0  0
 11  5  2  0  0  0  0
 12  2  1  0  0  0  0
 12 14  1  0  0  0  0
 13 14  1  0  0  0  0
 15  1  1  0  0  0  0
 16 22  1  1  0  0  0
 16 23  1  0  0  0  0
 17 19  1  1  0  0  0
 17 20  1  0  0  0  0
 18 17  1  0  0  0  0
 18 16  1  0  0  0  0
 20 21  1  6  0  0  0
 20 23  1  0  0  0  0
 23 15  1  1  0  0  0
 24 16  1  0  0  0  0
 25 24  1  0  0  0  0
 26 25  1  0  0  0  0
 27 26  1  0  0  0  0
 28 27  1  0  0  0  0
M  END
>  <MODEL>
9

>  <REMARK>
 VINA RESULT:      -5.5      3.704      5.541
  Name = 
  12 active torsions:
  status: ('A' for Active; 'I' for Inactive)
    1  A    between atoms: C_1  and  C_11
    2  A    between atoms: O_6  and  N_8
    3  A    between atoms: O_6  and  C_11
    4  A    between atoms: N_8  and  C_22
    5  A    between atoms: C_9  and  C_18
    6  A    between atoms: C_10  and  C_14
    7  A    between atoms: C_10  and  C_17
    8  A    between atoms: C_10  and  C_25
    9  A    between atoms: C_14  and  C_18
   10  A    between atoms: C_17  and  C_19
   11  A    between atoms: C_19  and  C_27
   12  A    between atoms: C_20  and  C_25
                            x       y       z     vdW  Elec       q    Type
                         _______ _______ _______ _____ _____    ______ ____

>  <TORSDO>
F 12

$$$$
