=
 OpenBabel11052418233D

 27 30  0  0  1  0  0  0  0  0999 V2000
  189.3680  176.1030  143.9960 C   0  0  2  0  0  3  0  0  0  0  0  0
  188.3610  176.7980  143.1230 C   0  0  0  0  0  0  0  0  0  0  0  0
  185.2150  178.0900  140.7490 C   0  0  0  0  0  3  0  0  0  0  0  0
  182.8640  178.1690  140.4910 O   0  0  0  0  0  1  0  0  0  0  0  0
  188.5860  177.0250  141.8240 C   0  0  0  0  0  3  0  0  0  0  0  0
  184.8530  178.0400  143.5970 C   0  0  0  0  0  3  0  0  0  0  0  0
  183.8270  178.2800  142.7710 C   0  0  0  0  0  3  0  0  0  0  0  0
  187.0850  177.1320  143.6970 N   0  0  0  0  0  0  0  0  0  0  0  0
  183.9940  178.2050  141.2990 C   0  0  0  0  0  0  0  0  0  0  0  0
  186.4340  178.2300  141.6140 C   0  0  1  0  0  3  0  0  0  0  0  0
  186.1740  177.7620  143.0190 C   0  0  0  0  0  0  0  0  0  0  0  0
  187.6100  177.6500  141.0330 O   0  0  0  0  0  0  0  0  0  0  0  0
  190.7680  176.7630  144.1380 C   0  0  2  0  0  0  0  0  0  0  0  0
  190.7110  176.9940  146.5680 O   0  0  0  0  0  1  0  0  0  0  0  0
  193.3430  176.0480  146.8140 O   0  0  0  0  0  1  0  0  0  0  0  0
  193.6300  175.8220  144.4540 C   0  0  0  0  0  2  0  0  0  0  0  0
  190.6380  178.2840  144.0970 C   0  0  0  0  0  1  0  0  0  0  0  0
  192.8790  176.5320  145.5940 C   0  0  1  0  0  3  0  0  0  0  0  0
  192.7080  175.2910  143.3570 C   0  0  0  0  0  2  0  0  0  0  0  0
  191.6860  176.3600  142.9600 C   0  0  0  0  0  2  0  0  0  0  0  0
  191.3580  176.3400  145.5100 C   0  0  2  0  0  3  0  0  0  0  0  0
  189.3080  171.8570  143.5650 N   0  0  0  0  0  0  0  0  0  0  0  0
  189.3580  174.6030  143.8570 C   0  0  0  0  0  0  0  0  0  0  0  0
  188.9430  174.0310  142.6500 C   0  0  0  0  0  3  0  0  0  0  0  0
  188.9180  172.6420  142.5210 C   0  0  0  0  0  3  0  0  0  0  0  0
  189.7210  172.3870  144.7440 C   0  0  0  0  0  3  0  0  0  0  0  0
  189.7510  173.7720  144.9130 C   0  0  0  0  0  3  0  0  0  0  0  0
  1  2  1  6  0  0  0
  1 13  1  0  0  0  0
  2  8  1  0  0  0  0
  3  9  2  0  0  0  0
  4  9  1  0  0  0  0
  5  2  2  0  0  0  0
  7  6  2  0  0  0  0
  9  7  1  0  0  0  0
 10  3  1  6  0  0  0
 10 11  1  0  0  0  0
 11  6  1  0  0  0  0
 11  8  2  0  0  0  0
 12 10  1  0  0  0  0
 12  5  1  0  0  0  0
 13 17  1  6  0  0  0
 13 21  1  0  0  0  0
 16 18  1  0  0  0  0
 18 15  1  1  0  0  0
 19 16  1  0  0  0  0
 20 19  1  0  0  0  0
 20 13  1  0  0  0  0
 21 18  1  0  0  0  0
 21 14  1  1  0  0  0
 22 26  1  0  0  0  0
 23  1  1  0  0  0  0
 23 27  1  0  0  0  0
 24 23  2  0  0  0  0
 25 24  1  0  0  0  0
 25 22  2  0  0  0  0
 26 27  2  0  0  0  0
M  END
>  <MODEL>
1

>  <REMARK>
 VINA RESULT:      -7.5      0.000      0.000
  Name = 
  3 active torsions:
  status: ('A' for Active; 'I' for Inactive)
    1  A    between atoms: C_1  and  C_15
    2  A    between atoms: C_2  and  C_15
    3  A    between atoms: C_9  and  C_15
                            x       y       z     vdW  Elec       q    Type
                         _______ _______ _______ _____ _____    ______ ____

>  <TORSDO>
F 3

$$$$
=
 OpenBabel11052418233D

 27 30  0  0  1  0  0  0  0  0999 V2000
  189.7300  176.0150  144.3660 C   0  0  2  0  0  3  0  0  0  0  0  0
  188.5820  176.8600  143.8910 C   0  0  0  0  0  0  0  0  0  0  0  0
  185.0010  178.6250  142.7680 C   0  0  0  0  0  3  0  0  0  0  0  0
  182.7520  179.0460  143.3750 O   0  0  0  0  0  1  0  0  0  0  0  0
  188.3480  177.0710  142.5900 C   0  0  0  0  0  3  0  0  0  0  0  0
  185.6960  178.5870  145.5530 C   0  0  0  0  0  3  0  0  0  0  0  0
  184.4840  178.9840  145.1460 C   0  0  0  0  0  3  0  0  0  0  0  0
  187.6620  177.3660  144.8740 N   0  0  0  0  0  0  0  0  0  0  0  0
  184.0920  178.9070  143.7180 C   0  0  0  0  0  0  0  0  0  0  0  0
  186.4570  178.5760  143.1270 C   0  0  1  0  0  3  0  0  0  0  0  0
  186.6640  178.1300  144.5480 C   0  0  0  0  0  0  0  0  0  0  0  0
  187.2480  177.8410  142.1830 O   0  0  0  0  0  0  0  0  0  0  0  0
  191.1640  176.5870  144.1850 C   0  0  2  0  0  0  0  0  0  0  0  0
  191.6510  176.8520  146.5620 O   0  0  0  0  0  1  0  0  0  0  0  0
  194.2130  175.7450  146.2560 O   0  0  0  0  0  1  0  0  0  0  0  0
  193.9650  175.4730  143.8970 C   0  0  0  0  0  2  0  0  0  0  0  0
  191.1170  178.1130  144.1340 C   0  0  0  0  0  1  0  0  0  0  0  0
  193.5240  176.2420  145.1540 C   0  0  1  0  0  3  0  0  0  0  0  0
  192.7960  174.9870  143.0390 C   0  0  0  0  0  2  0  0  0  0  0  0
  191.7770  176.1130  142.8470 C   0  0  0  0  0  2  0  0  0  0  0  0
  192.0120  176.1450  145.4070 C   0  0  2  0  0  3  0  0  0  0  0  0
  189.2920  171.8450  143.5670 N   0  0  0  0  0  0  0  0  0  0  0  0
  189.5650  174.5460  144.0710 C   0  0  0  0  0  0  0  0  0  0  0  0
  189.8900  173.6100  145.0570 C   0  0  0  0  0  3  0  0  0  0  0  0
  189.7530  172.2490  144.7850 C   0  0  0  0  0  3  0  0  0  0  0  0
  188.9630  172.7330  142.5950 C   0  0  0  0  0  3  0  0  0  0  0  0
  189.0960  174.1030  142.8280 C   0  0  0  0  0  3  0  0  0  0  0  0
  1  2  1  6  0  0  0
  2  8  1  0  0  0  0
  3  9  2  0  0  0  0
  4  9  1  0  0  0  0
  5  2  2  0  0  0  0
  7  6  2  0  0  0  0
  9  7  1  0  0  0  0
 10  3  1  6  0  0  0
 10 11  1  0  0  0  0
 11  8  2  0  0  0  0
 11  6  1  0  0  0  0
 12  5  1  0  0  0  0
 12 10  1  0  0  0  0
 13 17  1  6  0  0  0
 13  1  1  0  0  0  0
 13 21  1  0  0  0  0
 16 18  1  0  0  0  0
 18 21  1  0  0  0  0
 18 15  1  1  0  0  0
 19 16  1  0  0  0  0
 20 19  1  0  0  0  0
 20 13  1  0  0  0  0
 21 14  1  1  0  0  0
 22 25  1  0  0  0  0
 23  1  1  0  0  0  0
 23 24  1  0  0  0  0
 25 24  2  0  0  0  0
 26 27  1  0  0  0  0
 26 22  2  0  0  0  0
 27 23  2  0  0  0  0
M  END
>  <MODEL>
2

>  <REMARK>
 VINA RESULT:      -7.4      1.097      1.597
  Name = 
  3 active torsions:
  status: ('A' for Active; 'I' for Inactive)
    1  A    between atoms: C_1  and  C_15
    2  A    between atoms: C_2  and  C_15
    3  A    between atoms: C_9  and  C_15
                            x       y       z     vdW  Elec       q    Type
                         _______ _______ _______ _____ _____    ______ ____

>  <TORSDO>
F 3

$$$$
=
 OpenBabel11052418233D

 27 30  0  0  1  0  0  0  0  0999 V2000
  187.8860  176.3220  144.2000 C   0  0  2  0  0  3  0  0  0  0  0  0
  189.1480  175.6070  144.5940 C   0  0  0  0  0  0  0  0  0  0  0  0
  192.9580  174.0930  145.2230 C   0  0  0  0  0  3  0  0  0  0  0  0
  195.2310  174.6190  145.6220 O   0  0  0  0  0  1  0  0  0  0  0  0
  189.4330  174.3770  144.1500 C   0  0  0  0  0  3  0  0  0  0  0  0
  192.2100  176.5220  146.5590 C   0  0  0  0  0  3  0  0  0  0  0  0
  193.4730  176.0780  146.5830 C   0  0  0  0  0  3  0  0  0  0  0  0
  190.1090  176.3210  145.3910 N   0  0  0  0  0  0  0  0  0  0  0  0
  193.8780  174.8790  145.8090 C   0  0  0  0  0  0  0  0  0  0  0  0
  191.5010  174.3170  145.5100 C   0  0  1  0  0  3  0  0  0  0  0  0
  191.2080  175.7630  145.8000 C   0  0  0  0  0  0  0  0  0  0  0  0
  190.6350  173.7530  144.5150 O   0  0  0  0  0  0  0  0  0  0  0  0
  187.9510  177.2600  142.9630 C   0  0  2  0  0  0  0  0  0  0  0  0
  188.6230  175.5470  141.3590 O   0  0  0  0  0  1  0  0  0  0  0  0
  186.7740  176.4660  139.4580 O   0  0  0  0  0  1  0  0  0  0  0  0
  186.0280  178.2600  140.8470 C   0  0  0  0  0  2  0  0  0  0  0  0
  189.3640  177.8160  142.8000 C   0  0  0  0  0  1  0  0  0  0  0  0
  187.1720  177.2870  140.5100 C   0  0  1  0  0  3  0  0  0  0  0  0
  185.7160  178.3360  142.3410 C   0  0  0  0  0  2  0  0  0  0  0  0
  187.0110  178.4740  143.1470 C   0  0  0  0  0  2  0  0  0  0  0  0
  187.5860  176.4220  141.7090 C   0  0  2  0  0  3  0  0  0  0  0  0
  185.5780  177.7560  147.4920 N   0  0  0  0  0  0  0  0  0  0  0  0
  187.0860  176.8300  145.3710 C   0  0  0  0  0  0  0  0  0  0  0  0
  185.7250  176.5190  145.4560 C   0  0  0  0  0  3  0  0  0  0  0  0
  184.9770  176.9990  146.5310 C   0  0  0  0  0  3  0  0  0  0  0  0
  186.8980  178.0670  147.4360 C   0  0  0  0  0  3  0  0  0  0  0  0
  187.6780  177.6110  146.3720 C   0  0  0  0  0  3  0  0  0  0  0  0
  1  2  1  1  0  0  0
  1 23  1  0  0  0  0
  2  8  1  0  0  0  0
  3  9  2  0  0  0  0
  4  9  1  0  0  0  0
  5 12  1  0  0  0  0
  5  2  2  0  0  0  0
  6  7  2  0  0  0  0
  8 11  2  0  0  0  0
  9  7  1  0  0  0  0
 10  3  1  6  0  0  0
 10 11  1  0  0  0  0
 11  6  1  0  0  0  0
 12 10  1  0  0  0  0
 13 17  1  6  0  0  0
 13 20  1  0  0  0  0
 13  1  1  0  0  0  0
 16 19  1  0  0  0  0
 18 15  1  6  0  0  0
 18 16  1  0  0  0  0
 18 21  1  0  0  0  0
 19 20  1  0  0  0  0
 21 14  1  6  0  0  0
 21 13  1  0  0  0  0
 23 24  2  0  0  0  0
 23 27  1  0  0  0  0
 24 25  1  0  0  0  0
 25 22  2  0  0  0  0
 26 22  1  0  0  0  0
 27 26  2  0  0  0  0
M  END
>  <MODEL>
3

>  <REMARK>
 VINA RESULT:      -7.4      2.278      7.125
  Name = 
  3 active torsions:
  status: ('A' for Active; 'I' for Inactive)
    1  A    between atoms: C_1  and  C_15
    2  A    between atoms: C_2  and  C_15
    3  A    between atoms: C_9  and  C_15
                            x       y       z     vdW  Elec       q    Type
                         _______ _______ _______ _____ _____    ______ ____

>  <TORSDO>
F 3

$$$$
=
 OpenBabel11052418233D

 27 30  0  0  1  0  0  0  0  0999 V2000
  189.9750  175.2710  144.9530 C   0  0  2  0  0  3  0  0  0  0  0  0
  188.5810  175.8070  145.1220 C   0  0  0  0  0  0  0  0  0  0  0  0
  185.0150  177.9130  145.3460 C   0  0  0  0  0  3  0  0  0  0  0  0
  183.5600  179.4200  144.2430 O   0  0  0  0  0  1  0  0  0  0  0  0
  188.0680  176.0790  146.3290 C   0  0  0  0  0  3  0  0  0  0  0  0
  185.8760  176.9430  142.7850 C   0  0  0  0  0  2  0  0  0  0  0  0
  184.8310  177.7730  142.8970 C   0  0  0  0  0  3  0  0  0  0  0  0
  187.8300  176.1250  143.9380 N   0  0  0  0  0  0  0  0  0  0  0  0
  184.4500  178.3520  144.2080 C   0  0  0  0  0  0  0  0  0  0  0  0
  185.8960  176.6980  145.3160 C   0  0  0  0  0  0  0  0  0  0  0  0
  186.6080  176.5620  143.9990 C   0  0  0  0  0  0  0  0  0  0  0  0
  186.7740  176.6070  146.4460 O   0  0  0  0  0  0  0  0  0  0  0  0
  191.1090  176.2980  144.6840 C   0  0  2  0  0  0  0  0  0  0  0  0
  191.6830  176.6870  147.0240 O   0  0  0  0  0  1  0  0  0  0  0  0
  194.4320  176.5200  146.4770 O   0  0  0  0  0  1  0  0  0  0  0  0
  194.0870  176.2040  144.1350 C   0  0  0  0  0  2  0  0  0  0  0  0
  190.5460  177.7180  144.6960 C   0  0  0  0  0  1  0  0  0  0  0  0
  193.5220  176.7640  145.4510 C   0  0  1  0  0  3  0  0  0  0  0  0
  193.0810  175.3590  143.3520 C   0  0  0  0  0  2  0  0  0  0  0  0
  191.7280  176.0740  143.2840 C   0  0  0  0  0  2  0  0  0  0  0  0
  192.1600  176.1570  145.8170 C   0  0  2  0  0  3  0  0  0  0  0  0
  190.1990  171.6360  142.7270 N   0  0  0  0  0  0  0  0  0  0  0  0
  190.0400  173.9920  144.1590 C   0  0  0  0  0  0  0  0  0  0  0  0
  190.7590  172.9070  144.6680 C   0  0  0  0  0  3  0  0  0  0  0  0
  190.8350  171.7260  143.9290 C   0  0  0  0  0  3  0  0  0  0  0  0
  189.4890  172.6730  142.2130 C   0  0  0  0  0  3  0  0  0  0  0  0
  189.3980  173.8730  142.9200 C   0  0  0  0  0  3  0  0  0  0  0  0
  1 23  1  6  0  0  0
  1  2  1  0  0  0  0
  2  5  2  0  0  0  0
  5 12  1  0  0  0  0
  6  7  1  0  0  0  0
  6 11  1  0  0  0  0
  7  9  2  0  0  0  0
  8 11  2  0  0  0  0
  8  2  1  0  0  0  0
  9  4  1  0  0  0  0
  9  3  1  0  0  0  0
 10  3  2  0  0  0  0
 10 12  1  0  0  0  0
 11 10  1  0  0  0  0
 13 17  1  1  0  0  0
 13  1  1  0  0  0  0
 13 21  1  0  0  0  0
 16 18  1  0  0  0  0
 18 21  1  0  0  0  0
 18 15  1  1  0  0  0
 19 16  1  0  0  0  0
 20 19  1  0  0  0  0
 20 13  1  0  0  0  0
 21 14  1  1  0  0  0
 22 25  1  0  0  0  0
 23 24  1  0  0  0  0
 25 24  2  0  0  0  0
 26 22  2  0  0  0  0
 26 27  1  0  0  0  0
 27 23  2  0  0  0  0
M  END
>  <MODEL>
4

>  <REMARK>
 VINA RESULT:      -7.3      1.799      2.470
  Name = 
  3 active torsions:
  status: ('A' for Active; 'I' for Inactive)
    1  A    between atoms: C_1  and  C_15
    2  A    between atoms: C_2  and  C_15
    3  A    between atoms: C_9  and  C_15
                            x       y       z     vdW  Elec       q    Type
                         _______ _______ _______ _____ _____    ______ ____

>  <TORSDO>
F 3

$$$$
=
 OpenBabel11052418233D

 27 30  0  0  1  0  0  0  0  0999 V2000
  188.7120  176.8160  144.9820 C   0  0  2  0  0  3  0  0  0  0  0  0
  189.9640  176.0230  145.2300 C   0  0  0  0  0  0  0  0  0  0  0  0
  193.7050  174.2380  145.3820 C   0  0  0  0  0  3  0  0  0  0  0  0
  196.0440  174.5970  145.4010 O   0  0  0  0  0  1  0  0  0  0  0  0
  190.0870  174.7510  144.8320 C   0  0  0  0  0  3  0  0  0  0  0  0
  193.3510  176.7900  146.6480 C   0  0  0  0  0  3  0  0  0  0  0  0
  194.5660  176.2460  146.5130 C   0  0  0  0  0  3  0  0  0  0  0  0
  191.0860  176.6980  145.8240 N   0  0  0  0  0  0  0  0  0  0  0  0
  194.7590  174.9770  145.7700 C   0  0  0  0  0  0  0  0  0  0  0  0
  192.3300  174.5960  145.8680 C   0  0  1  0  0  3  0  0  0  0  0  0
  192.1920  176.0750  146.1000 C   0  0  0  0  0  0  0  0  0  0  0  0
  191.2830  174.0510  145.0540 O   0  0  0  0  0  0  0  0  0  0  0  0
  187.6040  176.7640  146.0710 C   0  0  2  0  0  0  0  0  0  0  0  0
  188.6930  178.2860  147.6380 O   0  0  0  0  0  1  0  0  0  0  0  0
  186.2960  179.6700  148.1070 O   0  0  0  0  0  1  0  0  0  0  0  0
  185.0290  178.2420  146.6730 C   0  0  0  0  0  2  0  0  0  0  0  0
  187.9160  175.6660  147.0850 C   0  0  0  0  0  1  0  0  0  0  0  0
  186.2760  178.3890  147.5620 C   0  0  1  0  0  3  0  0  0  0  0  0
  185.3300  177.6430  145.2980 C   0  0  0  0  0  2  0  0  0  0  0  0
  186.2340  176.4160  145.4420 C   0  0  0  0  0  2  0  0  0  0  0  0
  187.5820  178.1360  146.7960 C   0  0  2  0  0  3  0  0  0  0  0  0
  187.3480  176.7190  140.9380 N   0  0  0  0  0  0  0  0  0  0  0  0
  188.2350  176.7650  143.5530 C   0  0  0  0  0  0  0  0  0  0  0  0
  188.1120  177.9560  142.8320 C   0  0  0  0  0  3  0  0  0  0  0  0
  187.6570  177.9160  141.5130 C   0  0  0  0  0  3  0  0  0  0  0  0
  187.4650  175.5490  141.6160 C   0  0  0  0  0  3  0  0  0  0  0  0
  187.9080  175.5500  142.9390 C   0  0  0  0  0  3  0  0  0  0  0  0
  1 23  1  6  0  0  0
  1  2  1  0  0  0  0
  1 13  1  0  0  0  0
  2  8  1  0  0  0  0
  3  9  2  0  0  0  0
  4  9  1  0  0  0  0
  5 12  1  0  0  0  0
  5  2  2  0  0  0  0
  7  6  2  0  0  0  0
  8 11  2  0  0  0  0
  9  7  1  0  0  0  0
 10  3  1  6  0  0  0
 10 11  1  0  0  0  0
 11  6  1  0  0  0  0
 12 10  1  0  0  0  0
 13 21  1  0  0  0  0
 13 17  1  1  0  0  0
 16 18  1  0  0  0  0
 18 15  1  6  0  0  0
 19 20  1  0  0  0  0
 19 16  1  0  0  0  0
 20 13  1  0  0  0  0
 21 18  1  0  0  0  0
 21 14  1  1  0  0  0
 22 25  2  0  0  0  0
 22 26  1  0  0  0  0
 24 23  2  0  0  0  0
 25 24  1  0  0  0  0
 26 27  2  0  0  0  0
 27 23  1  0  0  0  0
M  END
>  <MODEL>
5

>  <REMARK>
 VINA RESULT:      -7.3      3.130      7.125
  Name = 
  3 active torsions:
  status: ('A' for Active; 'I' for Inactive)
    1  A    between atoms: C_1  and  C_15
    2  A    between atoms: C_2  and  C_15
    3  A    between atoms: C_9  and  C_15
                            x       y       z     vdW  Elec       q    Type
                         _______ _______ _______ _____ _____    ______ ____

>  <TORSDO>
F 3

$$$$
=
 OpenBabel11052418233D

 27 30  0  0  1  0  0  0  0  0999 V2000
  189.8360  175.4130  142.4670 C   0  0  2  0  0  3  0  0  0  0  0  0
  188.8520  176.3960  143.0360 C   0  0  0  0  0  0  0  0  0  0  0  0
  185.6480  178.5780  144.5110 C   0  0  0  0  0  3  0  0  0  0  0  0
  183.7500  178.5540  145.9250 O   0  0  0  0  0  1  0  0  0  0  0  0
  188.4040  177.4400  142.3290 C   0  0  0  0  0  3  0  0  0  0  0  0
  186.8910  176.6390  146.2250 C   0  0  0  0  0  3  0  0  0  0  0  0
  185.7520  177.2480  146.5780 C   0  0  0  0  0  3  0  0  0  0  0  0
  188.3120  176.1330  144.3430 N   0  0  0  0  0  0  0  0  0  0  0  0
  185.0580  178.1730  145.6490 C   0  0  0  0  0  0  0  0  0  0  0  0
  187.0920  178.2480  144.2660 C   0  0  1  0  0  3  0  0  0  0  0  0
  187.4820  176.9500  144.9180 C   0  0  0  0  0  0  0  0  0  0  0  0
  187.4630  178.3210  142.8830 O   0  0  0  0  0  0  0  0  0  0  0  0
  189.3690  173.9390  142.3120 C   0  0  2  0  0  0  0  0  0  0  0  0
  189.6520  173.8180  139.8910 O   0  0  0  0  0  1  0  0  0  0  0  0
  190.8930  171.3060  140.0660 O   0  0  0  0  0  1  0  0  0  0  0  0
  190.6430  171.1940  142.4380 C   0  0  0  0  0  2  0  0  0  0  0  0
  187.8680  173.8920  142.0330 C   0  0  0  0  0  1  0  0  0  0  0  0
  190.1170  171.7850  141.1190 C   0  0  1  0  0  3  0  0  0  0  0  0
  190.8320  172.2380  143.5390 C   0  0  0  0  0  2  0  0  0  0  0  0
  189.6050  173.1500  143.6210 C   0  0  0  0  0  2  0  0  0  0  0  0
  190.1300  173.3200  141.1100 C   0  0  2  0  0  3  0  0  0  0  0  0
  193.8100  175.9950  143.9110 N   0  0  0  0  0  0  0  0  0  0  0  0
  191.2450  175.6090  142.9640 C   0  0  0  0  0  0  0  0  0  0  0  0
  191.4530  176.0270  144.2820 C   0  0  0  0  0  3  0  0  0  0  0  0
  192.7550  176.2230  144.7430 C   0  0  0  0  0  3  0  0  0  0  0  0
  193.6360  175.5830  142.6300 C   0  0  0  0  0  3  0  0  0  0  0  0
  192.3480  175.3840  142.1310 C   0  0  0  0  0  3  0  0  0  0  0  0
  1 23  1  1  0  0  0
  1  2  1  0  0  0  0
  2  8  1  0  0  0  0
  3  9  2  0  0  0  0
  5 12  1  0  0  0  0
  5  2  2  0  0  0  0
  6  7  2  0  0  0  0
  8 11  2  0  0  0  0
  9  4  1  0  0  0  0
  9  7  1  0  0  0  0
 10  3  1  6  0  0  0
 10 11  1  0  0  0  0
 11  6  1  0  0  0  0
 12 10  1  0  0  0  0
 13 17  1  6  0  0  0
 13  1  1  0  0  0  0
 13 20  1  0  0  0  0
 16 19  1  0  0  0  0
 18 15  1  6  0  0  0
 18 16  1  0  0  0  0
 19 20  1  0  0  0  0
 21 14  1  6  0  0  0
 21 18  1  0  0  0  0
 21 13  1  0  0  0  0
 22 25  1  0  0  0  0
 23 24  1  0  0  0  0
 24 25  2  0  0  0  0
 26 22  2  0  0  0  0
 27 26  1  0  0  0  0
 27 23  2  0  0  0  0
M  END
>  <MODEL>
6

>  <REMARK>
 VINA RESULT:      -7.1      2.790      4.610
  Name = 
  3 active torsions:
  status: ('A' for Active; 'I' for Inactive)
    1  A    between atoms: C_1  and  C_15
    2  A    between atoms: C_2  and  C_15
    3  A    between atoms: C_9  and  C_15
                            x       y       z     vdW  Elec       q    Type
                         _______ _______ _______ _____ _____    ______ ____

>  <TORSDO>
F 3

$$$$
=
 OpenBabel11052418233D

 27 30  0  0  1  0  0  0  0  0999 V2000
  190.4230  174.5010  144.9070 C   0  0  2  0  0  3  0  0  0  0  0  0
  189.2090  175.3730  145.0630 C   0  0  0  0  0  0  0  0  0  0  0  0
  186.3060  178.3240  145.3250 C   0  0  0  0  0  3  0  0  0  0  0  0
  185.3740  180.2470  144.3080 O   0  0  0  0  0  1  0  0  0  0  0  0
  188.7010  175.6720  146.2650 C   0  0  0  0  0  3  0  0  0  0  0  0
  187.0620  177.3710  142.7250 C   0  0  0  0  0  2  0  0  0  0  0  0
  186.2630  178.4360  142.8680 C   0  0  0  0  0  3  0  0  0  0  0  0
  188.6510  175.9740  143.8820 N   0  0  0  0  0  0  0  0  0  0  0  0
  185.9550  178.9880  144.2100 C   0  0  0  0  0  0  0  0  0  0  0  0
  186.8410  176.9250  145.2180 C   0  0  0  0  0  0  0  0  0  0  0  0
  187.5840  176.7130  143.9280 C   0  0  0  0  0  0  0  0  0  0  0  0
  187.5840  176.5130  146.3740 O   0  0  0  0  0  0  0  0  0  0  0  0
  191.8050  175.1340  145.2310 C   0  0  2  0  0  0  0  0  0  0  0  0
  193.0420  173.0330  145.3580 O   0  0  0  0  0  1  0  0  0  0  0  0
  195.1590  174.0780  143.8380 O   0  0  0  0  0  1  0  0  0  0  0  0
  194.1510  176.2350  143.6620 C   0  0  0  0  0  2  0  0  0  0  0  0
  192.0020  175.2190  146.7430 C   0  0  0  0  0  1  0  0  0  0  0  0
  194.2550  174.9300  144.4690 C   0  0  1  0  0  3  0  0  0  0  0  0
  192.7100  176.6740  143.4010 C   0  0  0  0  0  2  0  0  0  0  0  0
  191.8850  176.5800  144.6880 C   0  0  0  0  0  2  0  0  0  0  0  0
  192.9030  174.2200  144.6250 C   0  0  2  0  0  3  0  0  0  0  0  0
  190.2920  171.9260  141.5050 N   0  0  0  0  0  0  0  0  0  0  0  0
  190.3760  173.6060  143.6960 C   0  0  0  0  0  0  0  0  0  0  0  0
  189.9950  172.2700  143.8490 C   0  0  0  0  0  3  0  0  0  0  0  0
  189.9630  171.4330  142.7330 C   0  0  0  0  0  3  0  0  0  0  0  0
  190.6590  173.2210  141.3300 C   0  0  0  0  0  3  0  0  0  0  0  0
  190.7100  174.0860  142.4240 C   0  0  0  0  0  3  0  0  0  0  0  0
  1 23  1  6  0  0  0
  1  2  1  0  0  0  0
  1 13  1  0  0  0  0
  2  5  2  0  0  0  0
  5 12  1  0  0  0  0
  6  7  1  0  0  0  0
  6 11  1  0  0  0  0
  7  9  2  0  0  0  0
  8 11  2  0  0  0  0
  8  2  1  0  0  0  0
  9  4  1  0  0  0  0
  9  3  1  0  0  0  0
 10  3  2  0  0  0  0
 10 12  1  0  0  0  0
 11 10  1  0  0  0  0
 13 17  1  1  0  0  0
 16 18  1  0  0  0  0
 18 15  1  6  0  0  0
 18 21  1  0  0  0  0
 19 16  1  0  0  0  0
 19 20  1  0  0  0  0
 20 13  1  0  0  0  0
 21 13  1  0  0  0  0
 21 14  1  1  0  0  0
 22 25  1  0  0  0  0
 23 24  1  0  0  0  0
 25 24  2  0  0  0  0
 26 22  2  0  0  0  0
 26 27  1  0  0  0  0
 27 23  2  0  0  0  0
M  END
>  <MODEL>
7

>  <REMARK>
 VINA RESULT:      -6.9      2.207      3.189
  Name = 
  3 active torsions:
  status: ('A' for Active; 'I' for Inactive)
    1  A    between atoms: C_1  and  C_15
    2  A    between atoms: C_2  and  C_15
    3  A    between atoms: C_9  and  C_15
                            x       y       z     vdW  Elec       q    Type
                         _______ _______ _______ _____ _____    ______ ____

>  <TORSDO>
F 3

$$$$
=
 OpenBabel11052418233D

 27 30  0  0  1  0  0  0  0  0999 V2000
  191.1620  175.1650  144.0620 C   0  0  2  0  0  3  0  0  0  0  0  0
  189.9910  176.0890  144.2460 C   0  0  0  0  0  0  0  0  0  0  0  0
  186.3560  178.0420  144.6650 C   0  0  0  0  0  3  0  0  0  0  0  0
  184.2160  177.9950  145.6740 O   0  0  0  0  0  1  0  0  0  0  0  0
  189.6040  176.9410  143.2890 C   0  0  0  0  0  3  0  0  0  0  0  0
  187.3930  176.5780  146.9060 C   0  0  0  0  0  3  0  0  0  0  0  0
  186.1520  177.0820  146.9210 C   0  0  0  0  0  3  0  0  0  0  0  0
  189.2180  175.9700  145.4530 N   0  0  0  0  0  0  0  0  0  0  0  0
  185.5830  177.7490  145.7250 C   0  0  0  0  0  0  0  0  0  0  0  0
  187.8440  177.8680  144.7620 C   0  0  1  0  0  3  0  0  0  0  0  0
  188.2120  176.7520  145.7010 C   0  0  0  0  0  0  0  0  0  0  0  0
  188.4870  177.7670  143.4850 O   0  0  0  0  0  0  0  0  0  0  0  0
  190.8940  173.6380  144.1740 C   0  0  2  0  0  0  0  0  0  0  0  0
  189.0620  173.5670  142.5630 O   0  0  0  0  0  1  0  0  0  0  0  0
  190.1040  171.2660  141.3370 O   0  0  0  0  0  1  0  0  0  0  0  0
  191.9330  171.1120  142.8650 C   0  0  0  0  0  2  0  0  0  0  0  0
  189.8300  173.3690  145.2360 C   0  0  0  0  0  1  0  0  0  0  0  0
  190.5020  171.6220  142.6230 C   0  0  1  0  0  3  0  0  0  0  0  0
  192.8620  172.1710  143.4600 C   0  0  0  0  0  2  0  0  0  0  0  0
  192.1720  172.8900  144.6210 C   0  0  0  0  0  2  0  0  0  0  0  0
  190.3770  173.1420  142.7980 C   0  0  2  0  0  3  0  0  0  0  0  0
  194.7850  176.5520  145.8420 N   0  0  0  0  0  0  0  0  0  0  0  0
  192.4320  175.6600  144.7040 C   0  0  0  0  0  0  0  0  0  0  0  0
  193.5520  175.9060  143.9030 C   0  0  0  0  0  3  0  0  0  0  0  0
  194.7350  176.3510  144.4940 C   0  0  0  0  0  3  0  0  0  0  0  0
  193.7110  176.3270  146.6400 C   0  0  0  0  0  3  0  0  0  0  0  0
  192.5130  175.8730  146.0850 C   0  0  0  0  0  3  0  0  0  0  0  0
  1 13  1  0  0  0  0
  1  2  1  1  0  0  0
  1 23  1  0  0  0  0
  2  8  1  0  0  0  0
  3  9  2  0  0  0  0
  4  9  1  0  0  0  0
  5 12  1  0  0  0  0
  5  2  2  0  0  0  0
  6  7  2  0  0  0  0
  8 11  2  0  0  0  0
  9  7  1  0  0  0  0
 10  3  1  6  0  0  0
 10 11  1  0  0  0  0
 11  6  1  0  0  0  0
 12 10  1  0  0  0  0
 13 20  1  0  0  0  0
 13 17  1  1  0  0  0
 16 19  1  0  0  0  0
 18 15  1  6  0  0  0
 18 21  1  0  0  0  0
 18 16  1  0  0  0  0
 19 20  1  0  0  0  0
 21 14  1  1  0  0  0
 21 13  1  0  0  0  0
 22 26  1  0  0  0  0
 23 27  1  0  0  0  0
 24 25  1  0  0  0  0
 24 23  2  0  0  0  0
 25 22  2  0  0  0  0
 27 26  2  0  0  0  0
M  END
>  <MODEL>
8

>  <REMARK>
 VINA RESULT:      -6.8      3.089      4.703
  Name = 
  3 active torsions:
  status: ('A' for Active; 'I' for Inactive)
    1  A    between atoms: C_1  and  C_15
    2  A    between atoms: C_2  and  C_15
    3  A    between atoms: C_9  and  C_15
                            x       y       z     vdW  Elec       q    Type
                         _______ _______ _______ _____ _____    ______ ____

>  <TORSDO>
F 3

$$$$
=
 OpenBabel11052418233D

 27 30  0  0  1  0  0  0  0  0999 V2000
  190.7290  175.4410  143.9960 C   0  0  2  0  0  3  0  0  0  0  0  0
  189.5310  175.8080  144.8260 C   0  0  0  0  0  0  0  0  0  0  0  0
  186.5750  177.4470  147.2290 C   0  0  0  0  0  3  0  0  0  0  0  0
  185.2750  179.3690  147.6940 O   0  0  0  0  0  1  0  0  0  0  0  0
  189.3220  175.2810  146.0380 C   0  0  0  0  0  3  0  0  0  0  0  0
  186.7210  178.2680  144.4820 C   0  0  0  0  0  2  0  0  0  0  0  0
  185.9060  178.8840  145.3480 C   0  0  0  0  0  3  0  0  0  0  0  0
  188.6500  176.8290  144.3280 N   0  0  0  0  0  0  0  0  0  0  0  0
  185.9060  178.5260  146.7870 C   0  0  0  0  0  0  0  0  0  0  0  0
  187.1690  176.4870  146.2400 C   0  0  0  0  0  0  0  0  0  0  0  0
  187.5770  177.1800  144.9700 C   0  0  0  0  0  0  0  0  0  0  0  0
  188.2080  175.6700  146.7970 O   0  0  0  0  0  0  0  0  0  0  0  0
  190.6020  174.2050  143.0610 C   0  0  2  0  0  0  0  0  0  0  0  0
  192.4800  174.7710  141.6080 O   0  0  0  0  0  1  0  0  0  0  0  0
  193.4340  172.1310  141.6560 O   0  0  0  0  0  1  0  0  0  0  0  0
  191.6300  171.3570  143.0150 C   0  0  0  0  0  2  0  0  0  0  0  0
  189.7130  174.5410  141.8660 C   0  0  0  0  0  1  0  0  0  0  0  0
  192.1160  172.4110  142.0060 C   0  0  1  0  0  3  0  0  0  0  0  0
  190.9370  171.9600  144.2380 C   0  0  0  0  0  2  0  0  0  0  0  0
  189.9290  173.0260  143.8020 C   0  0  0  0  0  2  0  0  0  0  0  0
  192.0220  173.8420  142.5530 C   0  0  2  0  0  3  0  0  0  0  0  0
  194.4550  175.8740  146.0330 N   0  0  0  0  0  0  0  0  0  0  0  0
  192.0400  175.5820  144.7260 C   0  0  0  0  0  0  0  0  0  0  0  0
  192.8080  176.7330  144.5340 C   0  0  0  0  0  3  0  0  0  0  0  0
  194.0290  176.8630  145.1970 C   0  0  0  0  0  3  0  0  0  0  0  0
  193.7250  174.7490  146.2410 C   0  0  0  0  0  3  0  0  0  0  0  0
  192.5020  174.5800  145.5890 C   0  0  0  0  0  3  0  0  0  0  0  0
  1 23  1  1  0  0  0
  1  2  1  0  0  0  0
  2  5  2  0  0  0  0
  5 12  1  0  0  0  0
  6 11  1  0  0  0  0
  6  7  1  0  0  0  0
  7  9  2  0  0  0  0
  8  2  1  0  0  0  0
  8 11  2  0  0  0  0
  9  3  1  0  0  0  0
  9  4  1  0  0  0  0
 10 12  1  0  0  0  0
 10  3  2  0  0  0  0
 11 10  1  0  0  0  0
 13 17  1  6  0  0  0
 13 20  1  0  0  0  0
 13  1  1  0  0  0  0
 16 19  1  0  0  0  0
 18 15  1  1  0  0  0
 18 21  1  0  0  0  0
 18 16  1  0  0  0  0
 20 19  1  0  0  0  0
 21 14  1  6  0  0  0
 21 13  1  0  0  0  0
 22 26  1  0  0  0  0
 23 27  1  0  0  0  0
 24 23  2  0  0  0  0
 24 25  1  0  0  0  0
 25 22  2  0  0  0  0
 27 26  2  0  0  0  0
M  END
>  <MODEL>
9

>  <REMARK>
 VINA RESULT:      -6.7      3.132      4.809
  Name = 
  3 active torsions:
  status: ('A' for Active; 'I' for Inactive)
    1  A    between atoms: C_1  and  C_15
    2  A    between atoms: C_2  and  C_15
    3  A    between atoms: C_9  and  C_15
                            x       y       z     vdW  Elec       q    Type
                         _______ _______ _______ _____ _____    ______ ____

>  <TORSDO>
F 3

$$$$
