=
 OpenBabel11052421263D

 32 37  0  0  1  0  0  0  0  0999 V2000
  193.2480  175.5190  147.1890 C   0  0  0  0  0  3  0  0  0  0  0  0
  188.6850  175.7880  144.5080 C   0  0  1  0  0  3  0  0  0  0  0  0
  186.2290  178.8190  147.4590 C   0  0  0  0  0  3  0  0  0  0  0  0
  185.2720  178.9840  146.4600 C   0  0  0  0  0  3  0  0  0  0  0  0
  187.8450  175.5510  142.3010 C   0  0  2  0  0  3  0  0  0  0  0  0
  186.8980  176.4540  141.6820 N   0  0  0  0  0  0  0  0  0  0  0  0
  190.8940  174.7900  145.3000 C   0  0  0  0  0  0  0  0  0  0  0  0
  189.6710  176.4530  146.6980 C   0  0  0  0  0  2  0  0  0  0  0  0
  184.7870  178.0670  140.9020 C   0  0  0  0  0  0  0  0  0  0  0  0
  191.9390  175.6540  147.4150 C   0  0  0  0  0  3  0  0  0  0  0  0
  187.2390  177.8680  147.3030 C   0  0  0  0  0  3  0  0  0  0  0  0
  188.3780  176.0340  145.9850 C   0  0  1  0  0  3  0  0  0  0  0  0
  187.3170  177.0870  146.1340 C   0  0  0  0  0  0  0  0  0  0  0  0
  186.2810  176.2890  143.9570 C   0  0  2  0  0  3  0  0  0  0  0  0
  185.7040  177.7370  139.9790 C   0  0  0  0  0  3  0  0  0  0  0  0
  193.2960  174.0720  145.2110 C   0  0  0  0  0  3  0  0  0  0  0  0
  190.8590  175.5760  146.4070 C   0  0  0  0  0  0  0  0  0  0  0  0
  186.9990  177.0430  140.3460 C   0  0  0  0  0  2  0  0  0  0  0  0
  191.9990  173.8670  144.9690 C   0  0  0  0  0  3  0  0  0  0  0  0
  193.8480  175.3280  145.8250 C   0  0  1  0  0  3  0  0  0  0  0  0
  185.3180  178.1860  145.3150 C   0  0  0  0  0  3  0  0  0  0  0  0
  186.3380  177.2380  145.1370 C   0  0  0  0  0  0  0  0  0  0  0  0
  184.9590  177.6730  142.3160 C   0  0  0  0  0  3  0  0  0  0  0  0
  189.6740  174.6210  144.4340 C   0  0  0  0  0  2  0  0  0  0  0  0
  187.7650  174.1870  141.6350 C   0  0  0  0  0  1  0  0  0  0  0  0
  183.5660  178.8110  140.4920 C   0  0  0  0  0  1  0  0  0  0  0  0
  187.4830  175.4290  143.7350 N   0  0  2  0  0  0  0  0  0  0  0  0
  186.0140  176.9320  142.6550 C   0  0  0  0  0  0  0  0  0  0  0  0
  194.5150  177.5770  145.4590 C   0  0  0  0  0  1  0  0  0  0  0  0
  193.6420  176.5150  144.9760 N   0  0  0  0  0  0  0  0  0  0  0  0
  194.0940  176.2280  143.6180 C   0  0  0  0  0  2  0  0  0  0  0  0
  192.9700  176.5020  142.6380 C   0  0  0  0  0  1  0  0  0  0  0  0
  1 10  2  0  0  0  0
  2 24  1  1  0  0  0
  2 12  1  0  0  0  0
  4  3  2  0  0  0  0
  5 25  1  6  0  0  0
  5 27  1  0  0  0  0
  6  5  1  0  0  0  0
  6 28  1  0  0  0  0
  7 17  2  0  0  0  0
  9 23  1  0  0  0  0
 11  3  1  0  0  0  0
 12 13  1  0  0  0  0
 12  8  1  1  0  0  0
 13 11  2  0  0  0  0
 14 28  1  6  0  0  0
 14 22  1  0  0  0  0
 15 18  1  0  0  0  0
 15  9  2  0  0  0  0
 16 20  1  0  0  0  0
 17  8  1  0  0  0  0
 17 10  1  0  0  0  0
 18  6  1  0  0  0  0
 19 16  2  0  0  0  0
 19  7  1  0  0  0  0
 20 30  1  6  0  0  0
 20  1  1  0  0  0  0
 21  4  1  0  0  0  0
 22 21  2  0  0  0  0
 22 13  1  0  0  0  0
 23 28  2  0  0  0  0
 24  7  1  0  0  0  0
 26  9  1  0  0  0  0
 27 14  1  0  0  0  0
 27  2  1  0  0  0  0
 30 29  1  0  0  0  0
 31 30  1  0  0  0  0
 32 31  1  0  0  0  0
M  END
>  <MODEL>
1

>  <REMARK>
 VINA RESULT:      -8.8      0.000      0.000
  Name = 
  2 active torsions:
  status: ('A' for Active; 'I' for Inactive)
    1  A    between atoms: C_1  and  N_20
    2  A    between atoms: N_20  and  C_24
                            x       y       z     vdW  Elec       q    Type
                         _______ _______ _______ _____ _____    ______ ____

>  <TORSDO>
F 2

$$$$
=
 OpenBabel11052421263D

 32 37  0  0  1  0  0  0  0  0999 V2000
  196.6600  174.4120  145.0410 C   0  0  0  0  0  3  0  0  0  0  0  0
  191.4600  175.4310  145.0250 C   0  0  1  0  0  3  0  0  0  0  0  0
  191.1850  178.1290  149.0960 C   0  0  0  0  0  3  0  0  0  0  0  0
  189.8990  178.5190  148.7270 C   0  0  0  0  0  3  0  0  0  0  0  0
  189.6370  175.6070  143.5150 C   0  0  2  0  0  3  0  0  0  0  0  0
  188.6460  176.6620  143.5440 N   0  0  0  0  0  0  0  0  0  0  0  0
  193.6110  174.1630  144.5090 C   0  0  0  0  0  0  0  0  0  0  0  0
  193.4610  175.6690  146.4900 C   0  0  0  0  0  2  0  0  0  0  0  0
  186.6720  178.5280  144.0850 C   0  0  0  0  0  0  0  0  0  0  0  0
  195.6550  174.6040  145.9000 C   0  0  0  0  0  3  0  0  0  0  0  0
  191.8490  177.1440  148.3630 C   0  0  0  0  0  3  0  0  0  0  0  0
  191.9410  175.4630  146.4750 C   0  0  1  0  0  3  0  0  0  0  0  0
  191.2430  176.5540  147.2380 C   0  0  0  0  0  0  0  0  0  0  0  0
  189.1860  176.1860  145.7950 C   0  0  2  0  0  3  0  0  0  0  0  0
  186.9740  178.2820  142.8000 C   0  0  0  0  0  3  0  0  0  0  0  0
  195.5440  173.2950  143.1660 C   0  0  0  0  0  3  0  0  0  0  0  0
  194.2250  174.7650  145.5600 C   0  0  0  0  0  0  0  0  0  0  0  0
  188.1730  177.4470  142.4030 C   0  0  0  0  0  2  0  0  0  0  0  0
  194.2770  173.2260  143.5800 C   0  0  0  0  0  3  0  0  0  0  0  0
  196.4940  174.3960  143.5480 C   0  0  1  0  0  3  0  0  0  0  0  0
  189.2750  177.9100  147.6360 C   0  0  0  0  0  3  0  0  0  0  0  0
  189.9380  176.9310  146.8800 C   0  0  0  0  0  0  0  0  0  0  0  0
  187.4470  177.9040  145.1780 C   0  0  0  0  0  3  0  0  0  0  0  0
  192.1150  174.2220  144.3510 C   0  0  0  0  0  2  0  0  0  0  0  0
  189.0540  174.3750  142.8430 C   0  0  0  0  0  1  0  0  0  0  0  0
  185.5230  179.4140  144.4130 C   0  0  0  0  0  1  0  0  0  0  0  0
  189.9970  175.2870  144.9190 N   0  0  2  0  0  0  0  0  0  0  0  0
  188.4180  177.0440  144.8710 C   0  0  0  0  0  0  0  0  0  0  0  0
  197.2030  176.6270  143.1580 C   0  0  0  0  0  1  0  0  0  0  0  0
  196.0740  175.7140  143.0390 N   0  0  0  0  0  0  0  0  0  0  0  0
  195.8000  175.6190  141.6090 C   0  0  0  0  0  2  0  0  0  0  0  0
  194.5370  176.3920  141.2800 C   0  0  0  0  0  1  0  0  0  0  0  0
  1 10  2  0  0  0  0
  2 24  1  6  0  0  0
  2 12  1  0  0  0  0
  4  3  1  0  0  0  0
  5 25  1  1  0  0  0
  5  6  1  0  0  0  0
  5 27  1  0  0  0  0
  6 28  1  0  0  0  0
  7 17  2  0  0  0  0
  9 26  1  0  0  0  0
  9 23  1  0  0  0  0
 11  3  2  0  0  0  0
 12  8  1  6  0  0  0
 12 13  1  0  0  0  0
 13 11  1  0  0  0  0
 14 28  1  6  0  0  0
 14 22  1  0  0  0  0
 15  9  2  0  0  0  0
 16 20  1  0  0  0  0
 16 19  2  0  0  0  0
 17 10  1  0  0  0  0
 17  8  1  0  0  0  0
 18 15  1  0  0  0  0
 18  6  1  0  0  0  0
 19  7  1  0  0  0  0
 20 30  1  1  0  0  0
 20  1  1  0  0  0  0
 21  4  2  0  0  0  0
 22 13  2  0  0  0  0
 22 21  1  0  0  0  0
 24  7  1  0  0  0  0
 27  2  1  0  0  0  0
 27 14  1  0  0  0  0
 28 23  2  0  0  0  0
 30 29  1  0  0  0  0
 31 30  1  0  0  0  0
 32 31  1  0  0  0  0
M  END
>  <MODEL>
2

>  <REMARK>
 VINA RESULT:      -8.4      2.012      3.552
  Name = 
  2 active torsions:
  status: ('A' for Active; 'I' for Inactive)
    1  A    between atoms: C_1  and  N_20
    2  A    between atoms: N_20  and  C_24
                            x       y       z     vdW  Elec       q    Type
                         _______ _______ _______ _____ _____    ______ ____

>  <TORSDO>
F 2

$$$$
=
 OpenBabel11052421263D

 32 37  0  0  1  0  0  0  0  0999 V2000
  195.6180  172.9450  143.2860 C   0  0  0  0  0  3  0  0  0  0  0  0
  190.7100  174.8380  143.9240 C   0  0  1  0  0  3  0  0  0  0  0  0
  191.3210  177.1560  148.1870 C   0  0  0  0  0  3  0  0  0  0  0  0
  190.0960  177.7930  147.9940 C   0  0  0  0  0  3  0  0  0  0  0  0
  188.8110  175.4620  142.6440 C   0  0  2  0  0  3  0  0  0  0  0  0
  188.0350  176.6640  142.8600 N   0  0  0  0  0  0  0  0  0  0  0  0
  192.5380  173.2730  143.0790 C   0  0  0  0  0  0  0  0  0  0  0  0
  192.8540  174.5930  145.1710 C   0  0  0  0  0  2  0  0  0  0  0  0
  186.4910  178.7830  143.7530 C   0  0  0  0  0  0  0  0  0  0  0  0
  194.7520  173.2260  144.2630 C   0  0  0  0  0  3  0  0  0  0  0  0
  191.7220  176.1430  147.3150 C   0  0  0  0  0  3  0  0  0  0  0  0
  191.3270  174.6530  145.3100 C   0  0  1  0  0  3  0  0  0  0  0  0
  190.9140  175.7720  146.2240 C   0  0  0  0  0  0  0  0  0  0  0  0
  188.6940  175.8970  144.9960 C   0  0  2  0  0  3  0  0  0  0  0  0
  186.6180  178.6080  142.4270 C   0  0  0  0  0  3  0  0  0  0  0  0
  194.1440  172.2130  141.4700 C   0  0  0  0  0  3  0  0  0  0  0  0
  193.3480  173.6610  144.0970 C   0  0  0  0  0  0  0  0  0  0  0  0
  187.6020  177.6200  141.8390 C   0  0  0  0  0  2  0  0  0  0  0  0
  192.9310  172.3250  142.0160 C   0  0  0  0  0  3  0  0  0  0  0  0
  195.3090  173.0950  141.8240 C   0  0  1  0  0  3  0  0  0  0  0  0
  189.2700  177.4030  146.9370 C   0  0  0  0  0  3  0  0  0  0  0  0
  189.6700  176.3990  146.0420 C   0  0  0  0  0  0  0  0  0  0  0  0
  187.2420  177.9380  144.7040 C   0  0  0  0  0  3  0  0  0  0  0  0
  191.0690  173.6010  143.0940 C   0  0  0  0  0  2  0  0  0  0  0  0
  187.9540  174.4150  141.9510 C   0  0  0  0  0  1  0  0  0  0  0  0
  185.5570  179.8180  144.2710 C   0  0  0  0  0  1  0  0  0  0  0  0
  189.2420  174.9570  143.9710 N   0  0  2  0  0  0  0  0  0  0  0  0
  188.0080  176.9560  144.2290 C   0  0  0  0  0  0  0  0  0  0  0  0
  196.3060  175.2480  141.7560 C   0  0  0  0  0  1  0  0  0  0  0  0
  195.0860  174.5060  141.4630 N   0  0  0  0  0  0  0  0  0  0  0  0
  194.9010  174.6180  140.0190 C   0  0  0  0  0  2  0  0  0  0  0  0
  196.2390  174.4710  139.3210 C   0  0  0  0  0  1  0  0  0  0  0  0
  1 10  2  0  0  0  0
  2 24  1  6  0  0  0
  2 27  1  0  0  0  0
  2 12  1  0  0  0  0
  4  3  1  0  0  0  0
  5 25  1  1  0  0  0
  5  6  1  0  0  0  0
  5 27  1  0  0  0  0
  6 28  1  0  0  0  0
  7 24  1  0  0  0  0
  7 17  2  0  0  0  0
  9 26  1  0  0  0  0
  9 23  1  0  0  0  0
 11  3  2  0  0  0  0
 12  8  1  6  0  0  0
 12 13  1  0  0  0  0
 13 11  1  0  0  0  0
 14 28  1  6  0  0  0
 14 22  1  0  0  0  0
 15  9  2  0  0  0  0
 16 20  1  0  0  0  0
 16 19  2  0  0  0  0
 17 10  1  0  0  0  0
 17  8  1  0  0  0  0
 18 15  1  0  0  0  0
 18  6  1  0  0  0  0
 19  7  1  0  0  0  0
 20 30  1  1  0  0  0
 20  1  1  0  0  0  0
 21  4  2  0  0  0  0
 22 13  2  0  0  0  0
 22 21  1  0  0  0  0
 27 14  1  0  0  0  0
 28 23  2  0  0  0  0
 30 29  1  0  0  0  0
 31 30  1  0  0  0  0
 32 31  1  0  0  0  0
M  END
>  <MODEL>
3

>  <REMARK>
 VINA RESULT:      -7.4      2.321      3.743
  Name = 
  2 active torsions:
  status: ('A' for Active; 'I' for Inactive)
    1  A    between atoms: C_1  and  N_20
    2  A    between atoms: N_20  and  C_24
                            x       y       z     vdW  Elec       q    Type
                         _______ _______ _______ _____ _____    ______ ____

>  <TORSDO>
F 2

$$$$
=
 OpenBabel11052421263D

 32 37  0  0  1  0  0  0  0  0999 V2000
  196.5290  173.0690  142.0250 C   0  0  0  0  0  3  0  0  0  0  0  0
  191.9610  175.6250  142.8470 C   0  0  1  0  0  3  0  0  0  0  0  0
  188.8700  172.2900  141.0450 C   0  0  0  0  0  3  0  0  0  0  0  0
  187.8120  172.9860  141.6260 C   0  0  0  0  0  3  0  0  0  0  0  0
  191.0210  177.2780  144.2680 C   0  0  2  0  0  3  0  0  0  0  0  0
  189.7170  177.1820  144.8880 N   0  0  0  0  0  0  0  0  0  0  0  0
  194.4660  175.3480  142.4560 C   0  0  0  0  0  0  0  0  0  0  0  0
  192.8540  173.6080  141.6890 C   0  0  0  0  0  2  0  0  0  0  0  0
  187.0480  176.9440  145.5900 C   0  0  0  0  0  0  0  0  0  0  0  0
  195.3210  173.2010  141.4720 C   0  0  0  0  0  3  0  0  0  0  0  0
  190.1530  172.8400  141.0580 C   0  0  0  0  0  3  0  0  0  0  0  0
  191.7690  174.6930  141.6520 C   0  0  1  0  0  3  0  0  0  0  0  0
  190.3970  174.0810  141.6740 C   0  0  0  0  0  0  0  0  0  0  0  0
  189.5150  176.2100  142.7430 C   0  0  2  0  0  3  0  0  0  0  0  0
  187.8950  177.4630  146.4930 C   0  0  0  0  0  3  0  0  0  0  0  0
  196.9180  175.2920  142.9810 C   0  0  0  0  0  3  0  0  0  0  0  0
  194.2500  174.1260  141.9070 C   0  0  0  0  0  0  0  0  0  0  0  0
  189.3960  177.4400  146.2920 C   0  0  0  0  0  2  0  0  0  0  0  0
  195.8010  175.9480  142.6580 C   0  0  0  0  0  3  0  0  0  0  0  0
  196.9770  173.8140  143.2500 C   0  0  1  0  0  3  0  0  0  0  0  0
  188.0370  174.2370  142.2040 C   0  0  0  0  0  3  0  0  0  0  0  0
  189.3260  174.7930  142.2410 C   0  0  0  0  0  0  0  0  0  0  0  0
  187.5450  176.4140  144.3030 C   0  0  0  0  0  3  0  0  0  0  0  0
  193.3250  176.3030  142.6850 C   0  0  0  0  0  2  0  0  0  0  0  0
  191.4260  178.7380  144.1470 C   0  0  0  0  0  1  0  0  0  0  0  0
  185.5880  176.9320  145.8730 C   0  0  0  0  0  1  0  0  0  0  0  0
  190.9260  176.6720  142.9160 N   0  0  2  0  0  0  0  0  0  0  0  0
  188.8450  176.5100  144.0240 C   0  0  0  0  0  0  0  0  0  0  0  0
  196.5980  172.0720  144.8170 C   0  0  0  0  0  1  0  0  0  0  0  0
  196.1950  173.4190  144.4360 N   0  0  0  0  0  0  0  0  0  0  0  0
  196.5580  174.2680  145.5650 C   0  0  0  0  0  2  0  0  0  0  0  0
  195.3120  174.9160  146.1380 C   0  0  0  0  0  1  0  0  0  0  0  0
  1 20  1  0  0  0  0
  2 24  1  6  0  0  0
  2 27  1  0  0  0  0
  3 11  2  0  0  0  0
  3  4  1  0  0  0  0
  4 21  2  0  0  0  0
  5 25  1  6  0  0  0
  5  6  1  0  0  0  0
  6 18  1  0  0  0  0
  7 19  1  0  0  0  0
  7 24  1  0  0  0  0
  8 17  1  0  0  0  0
  9 26  1  0  0  0  0
  9 15  2  0  0  0  0
 10 17  1  0  0  0  0
 10  1  2  0  0  0  0
 11 13  1  0  0  0  0
 12 13  1  0  0  0  0
 12  8  1  1  0  0  0
 12  2  1  0  0  0  0
 13 22  2  0  0  0  0
 14 22  1  1  0  0  0
 14 27  1  0  0  0  0
 14 28  1  0  0  0  0
 16 20  1  0  0  0  0
 17  7  2  0  0  0  0
 18 15  1  0  0  0  0
 19 16  2  0  0  0  0
 20 30  1  1  0  0  0
 21 22  1  0  0  0  0
 23  9  1  0  0  0  0
 27  5  1  0  0  0  0
 28 23  2  0  0  0  0
 28  6  1  0  0  0  0
 30 29  1  0  0  0  0
 30 31  1  0  0  0  0
 31 32  1  0  0  0  0
M  END
>  <MODEL>
4

>  <REMARK>
 VINA RESULT:      -7.2      2.692      5.615
  Name = 
  2 active torsions:
  status: ('A' for Active; 'I' for Inactive)
    1  A    between atoms: C_1  and  N_20
    2  A    between atoms: N_20  and  C_24
                            x       y       z     vdW  Elec       q    Type
                         _______ _______ _______ _____ _____    ______ ____

>  <TORSDO>
F 2

$$$$
=
 OpenBabel11052421263D

 32 37  0  0  1  0  0  0  0  0999 V2000
  196.3110  169.9260  143.8640 C   0  0  0  0  0  3  0  0  0  0  0  0
  192.8250  173.8780  144.4110 C   0  0  1  0  0  3  0  0  0  0  0  0
  190.3380  173.3040  140.2390 C   0  0  0  0  0  3  0  0  0  0  0  0
  189.3580  174.1660  140.7280 C   0  0  0  0  0  3  0  0  0  0  0  0
  191.7660  175.1590  146.1060 C   0  0  2  0  0  3  0  0  0  0  0  0
  190.3560  175.4880  146.1260 N   0  0  0  0  0  0  0  0  0  0  0  0
  195.0020  172.5960  144.7560 C   0  0  0  0  0  0  0  0  0  0  0  0
  193.6170  172.2340  142.7150 C   0  0  0  0  0  2  0  0  0  0  0  0
  187.7500  176.3250  145.6990 C   0  0  0  0  0  0  0  0  0  0  0  0
  195.6390  170.8040  143.1150 C   0  0  0  0  0  3  0  0  0  0  0  0
  191.5260  173.1290  140.9510 C   0  0  0  0  0  3  0  0  0  0  0  0
  193.0330  173.6390  142.9170 C   0  0  1  0  0  3  0  0  0  0  0  0
  191.7370  173.7950  142.1720 C   0  0  0  0  0  0  0  0  0  0  0  0
  191.0300  175.5550  143.8620 C   0  0  2  0  0  3  0  0  0  0  0  0
  188.1190  176.0210  146.9550 C   0  0  0  0  0  3  0  0  0  0  0  0
  196.7260  171.1940  145.9190 C   0  0  0  0  0  3  0  0  0  0  0  0
  194.7850  171.9070  143.6060 C   0  0  0  0  0  0  0  0  0  0  0  0
  189.4440  175.3560  147.2630 C   0  0  0  0  0  2  0  0  0  0  0  0
  196.1500  172.3690  145.6580 C   0  0  0  0  0  3  0  0  0  0  0  0
  196.2480  169.8820  145.3630 C   0  0  1  0  0  3  0  0  0  0  0  0
  189.5760  174.8620  141.9190 C   0  0  0  0  0  3  0  0  0  0  0  0
  190.7590  174.6810  142.6540 C   0  0  0  0  0  0  0  0  0  0  0  0
  188.6740  176.1130  144.5660 C   0  0  0  0  0  3  0  0  0  0  0  0
  194.2020  173.8300  145.0800 C   0  0  0  0  0  2  0  0  0  0  0  0
  192.5430  176.1840  146.9160 C   0  0  0  0  0  1  0  0  0  0  0  0
  186.4070  176.9130  145.4510 C   0  0  0  0  0  1  0  0  0  0  0  0
  192.2180  175.1920  144.6930 N   0  0  2  0  0  0  0  0  0  0  0  0
  189.9060  175.6670  144.8120 C   0  0  0  0  0  0  0  0  0  0  0  0
  194.5400  168.2370  145.2440 C   0  0  0  0  0  1  0  0  0  0  0  0
  194.8990  169.5210  145.8340 N   0  0  0  0  0  0  0  0  0  0  0  0
  194.9300  169.2910  147.2750 C   0  0  0  0  0  2  0  0  0  0  0  0
  195.9040  168.1730  147.5930 C   0  0  0  0  0  1  0  0  0  0  0  0
  1 20  1  0  0  0  0
  2 27  1  0  0  0  0
  2 24  1  1  0  0  0
  3  4  2  0  0  0  0
  3 11  1  0  0  0  0
  4 21  1  0  0  0  0
  5  6  1  0  0  0  0
  5 25  1  1  0  0  0
  6 18  1  0  0  0  0
  7 24  1  0  0  0  0
  7 19  1  0  0  0  0
  8 17  1  0  0  0  0
  9 15  2  0  0  0  0
 10 17  1  0  0  0  0
 10  1  2  0  0  0  0
 11 13  2  0  0  0  0
 12  8  1  1  0  0  0
 12  2  1  0  0  0  0
 13 22  1  0  0  0  0
 13 12  1  0  0  0  0
 14 22  1  6  0  0  0
 14 27  1  0  0  0  0
 14 28  1  0  0  0  0
 15 18  1  0  0  0  0
 17  7  2  0  0  0  0
 19 16  2  0  0  0  0
 20 30  1  6  0  0  0
 20 16  1  0  0  0  0
 21 22  2  0  0  0  0
 23 28  2  0  0  0  0
 23  9  1  0  0  0  0
 26  9  1  0  0  0  0
 27  5  1  0  0  0  0
 28  6  1  0  0  0  0
 29 30  1  0  0  0  0
 30 31  1  0  0  0  0
 31 32  1  0  0  0  0
M  END
>  <MODEL>
5

>  <REMARK>
 VINA RESULT:      -7.1      3.414      6.704
  Name = 
  2 active torsions:
  status: ('A' for Active; 'I' for Inactive)
    1  A    between atoms: C_1  and  N_20
    2  A    between atoms: N_20  and  C_24
                            x       y       z     vdW  Elec       q    Type
                         _______ _______ _______ _____ _____    ______ ____

>  <TORSDO>
F 2

$$$$
=
 OpenBabel11052421263D

 32 37  0  0  1  0  0  0  0  0999 V2000
  189.4500  178.0570  144.0380 C   0  0  0  0  0  3  0  0  0  0  0  0
  192.7810  173.9680  143.5310 C   0  0  1  0  0  3  0  0  0  0  0  0
  196.9970  176.4310  143.2420 C   0  0  0  0  0  3  0  0  0  0  0  0
  197.6860  175.2350  143.4320 C   0  0  0  0  0  3  0  0  0  0  0  0
  192.9390  171.6620  144.0710 C   0  0  2  0  0  3  0  0  0  0  0  0
  194.1150  171.0280  144.6290 N   0  0  0  0  0  0  0  0  0  0  0  0
  190.5770  175.2400  143.3790 C   0  0  0  0  0  0  0  0  0  0  0  0
  192.7540  176.4550  143.3840 C   0  0  0  0  0  2  0  0  0  0  0  0
  196.6050  170.0020  145.2790 C   0  0  0  0  0  0  0  0  0  0  0  0
  190.6060  177.7510  143.4440 C   0  0  0  0  0  3  0  0  0  0  0  0
  195.6130  176.4140  143.0590 C   0  0  0  0  0  3  0  0  0  0  0  0
  193.4160  175.1780  142.8490 C   0  0  1  0  0  3  0  0  0  0  0  0
  194.8990  175.2010  143.0880 C   0  0  0  0  0  0  0  0  0  0  0  0
  194.8900  172.6610  143.1070 C   0  0  2  0  0  3  0  0  0  0  0  0
  195.5280  169.4890  145.8980 C   0  0  0  0  0  3  0  0  0  0  0  0
  188.2350  175.9300  143.9560 C   0  0  0  0  0  3  0  0  0  0  0  0
  191.2490  176.4190  143.4030 C   0  0  0  0  0  0  0  0  0  0  0  0
  194.1570  170.1180  145.7750 C   0  0  0  0  0  2  0  0  0  0  0  0
  189.1040  175.1220  143.3460 C   0  0  0  0  0  3  0  0  0  0  0  0
  188.6340  177.0820  144.8370 C   0  0  1  0  0  3  0  0  0  0  0  0
  196.9910  174.0240  143.4230 C   0  0  0  0  0  3  0  0  0  0  0  0
  195.5970  173.9930  143.2580 C   0  0  0  0  0  0  0  0  0  0  0  0
  196.4740  171.1540  144.3630 C   0  0  0  0  0  3  0  0  0  0  0  0
  191.3010  173.9430  143.1380 C   0  0  0  0  0  2  0  0  0  0  0  0
  192.0940  170.6270  143.3470 C   0  0  0  0  0  1  0  0  0  0  0  0
  197.9400  169.3830  145.4930 C   0  0  0  0  0  1  0  0  0  0  0  0
  193.3960  172.6960  143.1100 N   0  0  2  0  0  0  0  0  0  0  0  0
  195.2600  171.6450  144.1110 C   0  0  0  0  0  0  0  0  0  0  0  0
  189.5410  177.8150  146.9040 C   0  0  0  0  0  1  0  0  0  0  0  0
  189.3500  176.6490  146.0510 N   0  0  0  0  0  0  0  0  0  0  0  0
  188.5040  175.7410  146.8180 C   0  0  0  0  0  2  0  0  0  0  0  0
  189.3160  174.5400  147.2630 C   0  0  0  0  0  1  0  0  0  0  0  0
  1 20  1  0  0  0  0
  2 24  1  6  0  0  0
  3  4  1  0  0  0  0
  5 25  1  6  0  0  0
  5  6  1  0  0  0  0
  6 18  1  0  0  0  0
  7 17  2  0  0  0  0
  8 17  1  0  0  0  0
  9 26  1  0  0  0  0
  9 15  2  0  0  0  0
 10  1  2  0  0  0  0
 11 13  1  0  0  0  0
 11  3  2  0  0  0  0
 12 13  1  0  0  0  0
 12  8  1  1  0  0  0
 12  2  1  0  0  0  0
 13 22  2  0  0  0  0
 14 27  1  0  0  0  0
 14 22  1  1  0  0  0
 14 28  1  0  0  0  0
 16 20  1  0  0  0  0
 17 10  1  0  0  0  0
 18 15  1  0  0  0  0
 19  7  1  0  0  0  0
 19 16  2  0  0  0  0
 20 30  1  1  0  0  0
 21  4  2  0  0  0  0
 22 21  1  0  0  0  0
 23  9  1  0  0  0  0
 24  7  1  0  0  0  0
 27  2  1  0  0  0  0
 27  5  1  0  0  0  0
 28 23  2  0  0  0  0
 28  6  1  0  0  0  0
 30 31  1  0  0  0  0
 30 29  1  0  0  0  0
 31 32  1  0  0  0  0
M  END
>  <MODEL>
6

>  <REMARK>
 VINA RESULT:      -6.9      3.160      8.929
  Name = 
  2 active torsions:
  status: ('A' for Active; 'I' for Inactive)
    1  A    between atoms: C_1  and  N_20
    2  A    between atoms: N_20  and  C_24
                            x       y       z     vdW  Elec       q    Type
                         _______ _______ _______ _____ _____    ______ ____

>  <TORSDO>
F 2

$$$$
=
 OpenBabel11052421263D

 32 37  0  0  1  0  0  0  0  0999 V2000
  193.1640  175.8010  146.7510 C   0  0  0  0  0  3  0  0  0  0  0  0
  190.1290  174.5270  142.5990 C   0  0  1  0  0  3  0  0  0  0  0  0
  187.0080  178.2910  142.7340 C   0  0  0  0  0  3  0  0  0  0  0  0
  186.5590  177.9390  141.4630 C   0  0  0  0  0  3  0  0  0  0  0  0
  190.2350  173.3150  140.5610 C   0  0  2  0  0  3  0  0  0  0  0  0
  189.7160  173.7900  139.2960 N   0  0  0  0  0  0  0  0  0  0  0  0
  191.7150  174.1480  144.5590 C   0  0  0  0  0  0  0  0  0  0  0  0
  190.2050  176.1310  144.5050 C   0  0  0  0  0  2  0  0  0  0  0  0
  188.2750  174.7400  137.1290 C   0  0  0  0  0  0  0  0  0  0  0  0
  191.8960  175.9040  146.3450 C   0  0  0  0  0  3  0  0  0  0  0  0
  187.8930  177.4530  143.4150 C   0  0  0  0  0  3  0  0  0  0  0  0
  189.2770  175.3420  143.5710 C   0  0  1  0  0  3  0  0  0  0  0  0
  188.3580  176.2650  142.8220 C   0  0  0  0  0  0  0  0  0  0  0  0
  188.2170  174.5410  140.9610 C   0  0  2  0  0  3  0  0  0  0  0  0
  189.4490  174.1340  136.8910 C   0  0  0  0  0  3  0  0  0  0  0  0
  193.8620  173.6680  145.7660 C   0  0  0  0  0  3  0  0  0  0  0  0
  191.3150  175.3180  145.1170 C   0  0  0  0  0  0  0  0  0  0  0  0
  190.4070  173.7720  138.0060 C   0  0  0  0  0  2  0  0  0  0  0  0
  192.7610  173.2700  145.1240 C   0  0  0  0  0  3  0  0  0  0  0  0
  194.2420  175.1090  145.9670 C   0  0  1  0  0  3  0  0  0  0  0  0
  186.9840  176.7420  140.8840 C   0  0  0  0  0  3  0  0  0  0  0  0
  187.8880  175.8990  141.5490 C   0  0  0  0  0  0  0  0  0  0  0  0
  187.8200  174.9910  138.5130 C   0  0  0  0  0  3  0  0  0  0  0  0
  190.9400  173.5270  143.4270 C   0  0  0  0  0  2  0  0  0  0  0  0
  190.2940  171.7970  140.5540 C   0  0  0  0  0  1  0  0  0  0  0  0
  187.4060  175.1340  135.9880 C   0  0  0  0  0  1  0  0  0  0  0  0
  189.3130  173.7750  141.6290 N   0  0  2  0  0  0  0  0  0  0  0  0
  188.5660  174.5540  139.5270 C   0  0  0  0  0  0  0  0  0  0  0  0
  194.9470  177.1650  145.0130 C   0  0  0  0  0  1  0  0  0  0  0  0
  194.5180  175.8080  144.6990 N   0  0  0  0  0  0  0  0  0  0  0  0
  195.6580  175.1840  144.0360 C   0  0  0  0  0  2  0  0  0  0  0  0
  195.3200  174.9200  142.5810 C   0  0  0  0  0  1  0  0  0  0  0  0
  2 24  1  1  0  0  0
  2 12  1  0  0  0  0
  3 11  1  0  0  0  0
  4  3  2  0  0  0  0
  5 25  1  6  0  0  0
  5 27  1  0  0  0  0
  6 28  1  0  0  0  0
  6  5  1  0  0  0  0
  7 17  2  0  0  0  0
  7 19  1  0  0  0  0
  8 17  1  0  0  0  0
  9 23  1  0  0  0  0
 10  1  2  0  0  0  0
 12  8  1  1  0  0  0
 13 11  2  0  0  0  0
 13 12  1  0  0  0  0
 14 28  1  6  0  0  0
 14 22  1  0  0  0  0
 14 27  1  0  0  0  0
 15  9  2  0  0  0  0
 15 18  1  0  0  0  0
 16 20  1  0  0  0  0
 17 10  1  0  0  0  0
 18  6  1  0  0  0  0
 19 16  2  0  0  0  0
 20 30  1  6  0  0  0
 20  1  1  0  0  0  0
 21  4  1  0  0  0  0
 21 22  2  0  0  0  0
 22 13  1  0  0  0  0
 23 28  2  0  0  0  0
 24  7  1  0  0  0  0
 26  9  1  0  0  0  0
 27  2  1  0  0  0  0
 30 29  1  0  0  0  0
 31 30  1  0  0  0  0
 32 31  1  0  0  0  0
M  END
>  <MODEL>
7

>  <REMARK>
 VINA RESULT:      -6.8      2.431      3.713
  Name = 
  2 active torsions:
  status: ('A' for Active; 'I' for Inactive)
    1  A    between atoms: C_1  and  N_20
    2  A    between atoms: N_20  and  C_24
                            x       y       z     vdW  Elec       q    Type
                         _______ _______ _______ _____ _____    ______ ____

>  <TORSDO>
F 2

$$$$
=
 OpenBabel11052421263D

 32 37  0  0  1  0  0  0  0  0999 V2000
  188.7550  175.1490  146.5270 C   0  0  0  0  0  3  0  0  0  0  0  0
  193.4250  174.3410  144.1570 C   0  0  1  0  0  3  0  0  0  0  0  0
  192.8070  169.6850  142.7930 C   0  0  0  0  0  3  0  0  0  0  0  0
  193.9300  169.7960  141.9740 C   0  0  0  0  0  3  0  0  0  0  0  0
  195.1480  175.5450  143.0560 C   0  0  2  0  0  3  0  0  0  0  0  0
  195.7840  175.1270  141.8250 N   0  0  0  0  0  0  0  0  0  0  0  0
  191.7520  175.4060  145.7610 C   0  0  0  0  0  0  0  0  0  0  0  0
  191.4100  173.0850  144.9160 C   0  0  0  0  0  2  0  0  0  0  0  0
  197.1100  173.8950  139.7290 C   0  0  0  0  0  0  0  0  0  0  0  0
  189.6390  174.1700  146.3240 C   0  0  0  0  0  3  0  0  0  0  0  0
  192.4780  170.7230  143.6660 C   0  0  0  0  0  3  0  0  0  0  0  0
  192.9240  172.9960  144.6820 C   0  0  1  0  0  3  0  0  0  0  0  0
  193.2540  171.8960  143.7130 C   0  0  0  0  0  0  0  0  0  0  0  0
  195.3600  173.1600  143.0640 C   0  0  2  0  0  3  0  0  0  0  0  0
  196.9220  175.2230  139.6640 C   0  0  0  0  0  3  0  0  0  0  0  0
  190.1890  177.1290  146.6990 C   0  0  0  0  0  3  0  0  0  0  0  0
  190.9670  174.3010  145.6840 C   0  0  0  0  0  0  0  0  0  0  0  0
  196.0300  175.9560  140.6440 C   0  0  0  0  0  2  0  0  0  0  0  0
  191.4110  176.6180  146.5330 C   0  0  0  0  0  3  0  0  0  0  0  0
  188.9500  176.5640  146.0630 C   0  0  1  0  0  3  0  0  0  0  0  0
  194.7280  170.9390  142.0440 C   0  0  0  0  0  3  0  0  0  0  0  0
  194.3990  171.9990  142.9040 C   0  0  0  0  0  0  0  0  0  0  0  0
  196.5300  173.1010  140.8310 C   0  0  0  0  0  3  0  0  0  0  0  0
  193.1680  175.3830  145.2500 C   0  0  0  0  0  2  0  0  0  0  0  0
  196.0810  176.4620  143.8290 C   0  0  0  0  0  1  0  0  0  0  0  0
  197.9410  173.2190  138.6970 C   0  0  0  0  0  1  0  0  0  0  0  0
  194.8670  174.3270  143.8570 N   0  0  2  0  0  0  0  0  0  0  0  0
  195.8610  173.7300  141.7980 C   0  0  0  0  0  0  0  0  0  0  0  0
  187.6010  176.7690  144.1200 C   0  0  0  0  0  1  0  0  0  0  0  0
  188.9750  176.6490  144.5910 N   0  0  0  0  0  0  0  0  0  0  0  0
  189.6350  177.8850  144.1850 C   0  0  0  0  0  2  0  0  0  0  0  0
  190.2940  177.6910  142.8330 C   0  0  0  0  0  1  0  0  0  0  0  0
  2 12  1  0  0  0  0
  2 24  1  1  0  0  0
  3 11  1  0  0  0  0
  4 21  1  0  0  0  0
  4  3  2  0  0  0  0
  5 25  1  1  0  0  0
  5 27  1  0  0  0  0
  6  5  1  0  0  0  0
  7 19  1  0  0  0  0
  8 17  1  0  0  0  0
  9 23  1  0  0  0  0
 10  1  2  0  0  0  0
 11 13  2  0  0  0  0
 12  8  1  6  0  0  0
 13 12  1  0  0  0  0
 14 28  1  6  0  0  0
 14 27  1  0  0  0  0
 15  9  2  0  0  0  0
 15 18  1  0  0  0  0
 17  7  2  0  0  0  0
 17 10  1  0  0  0  0
 18  6  1  0  0  0  0
 19 16  2  0  0  0  0
 20 30  1  6  0  0  0
 20  1  1  0  0  0  0
 20 16  1  0  0  0  0
 21 22  2  0  0  0  0
 22 14  1  0  0  0  0
 22 13  1  0  0  0  0
 23 28  2  0  0  0  0
 24  7  1  0  0  0  0
 26  9  1  0  0  0  0
 27  2  1  0  0  0  0
 28  6  1  0  0  0  0
 29 30  1  0  0  0  0
 31 30  1  0  0  0  0
 32 31  1  0  0  0  0
M  END
>  <MODEL>
8

>  <REMARK>
 VINA RESULT:      -6.4      3.202      8.427
  Name = 
  2 active torsions:
  status: ('A' for Active; 'I' for Inactive)
    1  A    between atoms: C_1  and  N_20
    2  A    between atoms: N_20  and  C_24
                            x       y       z     vdW  Elec       q    Type
                         _______ _______ _______ _____ _____    ______ ____

>  <TORSDO>
F 2

$$$$
=
 OpenBabel11052421263D

 32 37  0  0  1  0  0  0  0  0999 V2000
  192.0410  171.9800  137.3930 C   0  0  0  0  0  3  0  0  0  0  0  0
  191.9280  173.0850  142.5730 C   0  0  1  0  0  3  0  0  0  0  0  0
  196.0520  175.6930  142.9010 C   0  0  0  0  0  3  0  0  0  0  0  0
  195.6630  176.1120  144.1720 C   0  0  0  0  0  3  0  0  0  0  0  0
  190.3810  173.3250  144.3580 C   0  0  2  0  0  3  0  0  0  0  0  0
  190.4110  174.3950  145.3310 N   0  0  0  0  0  0  0  0  0  0  0  0
  191.4320  171.7930  140.4310 C   0  0  0  0  0  0  0  0  0  0  0  0
  193.4440  173.2560  140.6030 C   0  0  0  0  0  2  0  0  0  0  0  0
  190.9490  176.2810  147.2880 C   0  0  0  0  0  0  0  0  0  0  0  0
  192.8810  172.1690  138.4140 C   0  0  0  0  0  3  0  0  0  0  0  0
  195.3130  174.7140  142.2360 C   0  0  0  0  0  3  0  0  0  0  0  0
  193.3890  173.0760  142.1260 C   0  0  1  0  0  3  0  0  0  0  0  0
  194.1610  174.1600  142.8240 C   0  0  0  0  0  0  0  0  0  0  0  0
  192.6620  173.8590  144.8530 C   0  0  2  0  0  3  0  0  0  0  0  0
  189.6650  176.0590  146.9590 C   0  0  0  0  0  3  0  0  0  0  0  0
  190.1160  170.9240  138.4810 C   0  0  0  0  0  3  0  0  0  0  0  0
  192.5110  172.3610  139.8330 C   0  0  0  0  0  0  0  0  0  0  0  0
  189.2770  175.2130  145.7650 C   0  0  0  0  0  2  0  0  0  0  0  0
  190.4980  170.8670  139.7580 C   0  0  0  0  0  3  0  0  0  0  0  0
  190.5450  172.0000  137.5230 C   0  0  1  0  0  3  0  0  0  0  0  0
  194.5440  175.5390  144.7800 C   0  0  0  0  0  3  0  0  0  0  0  0
  193.7810  174.5660  144.1150 C   0  0  0  0  0  0  0  0  0  0  0  0
  192.0440  175.6190  146.5490 C   0  0  0  0  0  3  0  0  0  0  0  0
  191.2420  171.8800  141.9220 C   0  0  0  0  0  2  0  0  0  0  0  0
  189.6670  172.1180  144.9440 C   0  0  0  0  0  1  0  0  0  0  0  0
  191.2700  177.1770  148.4300 C   0  0  0  0  0  1  0  0  0  0  0  0
  191.7850  172.9670  144.0350 N   0  0  2  0  0  0  0  0  0  0  0  0
  191.7410  174.7510  145.5850 C   0  0  0  0  0  0  0  0  0  0  0  0
  190.1980  174.2210  136.7600 C   0  0  0  0  0  1  0  0  0  0  0  0
  190.0570  173.3360  137.9100 N   0  0  0  0  0  0  0  0  0  0  0  0
  188.6240  173.2730  138.1780 C   0  0  0  0  0  2  0  0  0  0  0  0
  188.3110  174.0250  139.4570 C   0  0  0  0  0  1  0  0  0  0  0  0
  1 20  1  0  0  0  0
  1 10  2  0  0  0  0
  2 24  1  6  0  0  0
  2 27  1  0  0  0  0
  3  4  1  0  0  0  0
  4 21  2  0  0  0  0
  5 25  1  1  0  0  0
  5  6  1  0  0  0  0
  6 28  1  0  0  0  0
  6 18  1  0  0  0  0
  7 24  1  0  0  0  0
  9 26  1  0  0  0  0
 10 17  1  0  0  0  0
 11 13  1  0  0  0  0
 11  3  2  0  0  0  0
 12  8  1  6  0  0  0
 12  2  1  0  0  0  0
 12 13  1  0  0  0  0
 13 22  2  0  0  0  0
 14 22  1  6  0  0  0
 14 28  1  0  0  0  0
 15  9  2  0  0  0  0
 16 19  2  0  0  0  0
 17  7  2  0  0  0  0
 17  8  1  0  0  0  0
 18 15  1  0  0  0  0
 19  7  1  0  0  0  0
 20 30  1  1  0  0  0
 20 16  1  0  0  0  0
 22 21  1  0  0  0  0
 23  9  1  0  0  0  0
 27  5  1  0  0  0  0
 27 14  1  0  0  0  0
 28 23  2  0  0  0  0
 29 30  1  0  0  0  0
 30 31  1  0  0  0  0
 31 32  1  0  0  0  0
M  END
>  <MODEL>
9

>  <REMARK>
 VINA RESULT:      -6.3      3.522      8.022
  Name = 
  2 active torsions:
  status: ('A' for Active; 'I' for Inactive)
    1  A    between atoms: C_1  and  N_20
    2  A    between atoms: N_20  and  C_24
                            x       y       z     vdW  Elec       q    Type
                         _______ _______ _______ _____ _____    ______ ____

>  <TORSDO>
F 2

$$$$
