=
 OpenBabel11052418213D

 27 31  0  0  1  0  0  0  0  0999 V2000
  191.4660  176.5040  142.8160 C   0  0  0  0  0  2  0  0  0  0  0  0
  188.8870  176.1700  142.9820 C   0  0  0  0  0  0  0  0  0  0  0  0
  189.8970  177.1960  145.1310 C   0  0  0  0  0  2  0  0  0  0  0  0
  185.1480  177.2150  144.5000 N   0  0  0  0  0  2  0  0  0  0  0  0
  185.0710  179.2150  145.7870 N   0  0  0  0  0  1  0  0  0  0  0  0
  187.7670  175.9150  142.2360 N   0  0  0  0  0  0  0  0  0  0  0  0
  186.9970  177.7150  145.9670 C   0  0  1  0  0  3  0  0  0  0  0  0
  192.9080  176.5930  146.8480 C   0  0  0  0  0  2  0  0  0  0  0  0
  187.3030  176.8180  147.1540 C   0  0  0  0  0  1  0  0  0  0  0  0
  193.9090  175.4800  146.5100 C   0  0  0  0  0  2  0  0  0  0  0  0
  187.4440  177.0650  144.7000 C   0  0  0  0  0  0  0  0  0  0  0  0
  190.2060  175.7230  142.4000 C   0  0  2  0  0  3  0  0  0  0  0  0
  185.4670  177.8170  145.7930 C   0  0  2  0  0  3  0  0  0  0  0  0
  186.3630  176.8010  143.9140 C   0  0  0  0  0  0  0  0  0  0  0  0
  192.0060  176.1870  144.2160 C   0  0  2  0  0  3  0  0  0  0  0  0
  188.7440  176.7720  144.2680 C   0  0  0  0  0  0  0  0  0  0  0  0
  191.4510  176.1350  146.7470 C   0  0  0  0  0  2  0  0  0  0  0  0
  186.5110  176.2220  142.6640 C   0  0  0  0  0  3  0  0  0  0  0  0
  192.9960  175.0160  144.1630 C   0  0  0  0  0  2  0  0  0  0  0  0
  193.3750  174.4350  145.5250 C   0  0  0  0  0  2  0  0  0  0  0  0
  190.9150  176.0830  145.3050 C   0  0  1  0  0  3  0  0  0  0  0  0
  190.1600  171.4000  142.0280 C   0  0  0  0  0  2  0  0  0  0  0  0
  190.3310  174.1990  142.2570 C   0  0  0  0  0  3  0  0  0  0  0  0
  189.9860  173.6830  140.8580 C   0  0  0  0  0  2  0  0  0  0  0  0
  190.2940  172.1870  140.7170 C   0  0  0  0  0  2  0  0  0  0  0  0
  189.1380  172.0420  142.9620 C   0  0  0  0  0  2  0  0  0  0  0  0
  189.5820  173.4510  143.3720 C   0  0  0  0  0  2  0  0  0  0  0  0
  2 16  1  0  0  0  0
  4 13  1  0  0  0  0
  6 18  1  0  0  0  0
  6  2  2  0  0  0  0
  7  9  1  1  0  0  0
 10  8  1  0  0  0  0
 11  7  1  0  0  0  0
 12 23  1  1  0  0  0
 12  1  1  0  0  0  0
 12  2  1  0  0  0  0
 13  5  1  6  0  0  0
 13  7  1  0  0  0  0
 14  4  1  0  0  0  0
 14 11  1  0  0  0  0
 15  1  1  6  0  0  0
 15 21  1  0  0  0  0
 16 11  2  0  0  0  0
 16  3  1  0  0  0  0
 17  8  1  0  0  0  0
 18 14  2  0  0  0  0
 19 15  1  0  0  0  0
 19 20  1  0  0  0  0
 20 10  1  0  0  0  0
 21  3  1  6  0  0  0
 21 17  1  0  0  0  0
 22 26  1  0  0  0  0
 23 27  1  0  0  0  0
 24 23  1  0  0  0  0
 25 24  1  0  0  0  0
 25 22  1  0  0  0  0
 26 27  1  0  0  0  0
M  END
>  <MODEL>
1

>  <REMARK>
 VINA RESULT:      -8.2      0.000      0.000
  Name = 
  1 active torsions:
  status: ('A' for Active; 'I' for Inactive)
    1  A    between atoms: C_9  and  C_15
                            x       y       z     vdW  Elec       q    Type
                         _______ _______ _______ _____ _____    ______ ____

>  <TORSDO>
F 1

$$$$
=
 OpenBabel11052418213D

 27 31  0  0  1  0  0  0  0  0999 V2000
  189.6910  173.1880  144.4110 C   0  0  0  0  0  2  0  0  0  0  0  0
  188.9380  175.6390  144.8770 C   0  0  0  0  0  0  0  0  0  0  0  0
  188.0900  174.7540  142.5990 C   0  0  0  0  0  2  0  0  0  0  0  0
  186.2710  178.8060  144.3960 N   0  0  0  0  0  2  0  0  0  0  0  0
  184.2380  178.2910  143.2720 N   0  0  0  0  0  1  0  0  0  0  0  0
  188.8340  176.5810  145.8660 N   0  0  0  0  0  0  0  0  0  0  0  0
  186.3360  177.2640  142.5410 C   0  0  1  0  0  3  0  0  0  0  0  0
  189.5790  172.7060  140.1570 C   0  0  0  0  0  2  0  0  0  0  0  0
  187.0910  177.6180  141.2720 C   0  0  0  0  0  1  0  0  0  0  0  0
  191.0370  172.2260  140.1780 C   0  0  0  0  0  2  0  0  0  0  0  0
  187.2940  176.8850  143.6220 C   0  0  0  0  0  0  0  0  0  0  0  0
  189.9570  174.5450  145.0880 C   0  0  2  0  0  3  0  0  0  0  0  0
  185.6590  178.5350  143.0970 C   0  0  2  0  0  3  0  0  0  0  0  0
  187.2190  177.7890  144.6380 C   0  0  0  0  0  0  0  0  0  0  0  0
  189.9820  173.1330  142.9070 C   0  0  2  0  0  3  0  0  0  0  0  0
  188.1430  175.7740  143.7000 C   0  0  0  0  0  0  0  0  0  0  0  0
  189.4260  174.1640  140.5960 C   0  0  0  0  0  2  0  0  0  0  0  0
  187.9910  177.6470  145.7810 C   0  0  0  0  0  3  0  0  0  0  0  0
  191.4450  172.7450  142.6520 C   0  0  0  0  0  2  0  0  0  0  0  0
  191.9160  172.9370  141.2100 C   0  0  0  0  0  2  0  0  0  0  0  0
  189.4770  174.3640  142.1210 C   0  0  1  0  0  3  0  0  0  0  0  0
  193.9040  176.3410  145.2420 C   0  0  0  0  0  2  0  0  0  0  0  0
  191.4070  175.0510  145.1180 C   0  0  0  0  0  3  0  0  0  0  0  0
  191.9490  175.2780  146.5310 C   0  0  0  0  0  2  0  0  0  0  0  0
  193.4470  175.6120  146.5130 C   0  0  0  0  0  2  0  0  0  0  0  0
  192.7730  177.1660  144.6350 C   0  0  0  0  0  2  0  0  0  0  0  0
  191.6140  176.2640  144.1960 C   0  0  0  0  0  2  0  0  0  0  0  0
  1 12  1  0  0  0  0
  2 12  1  0  0  0  0
  2  6  1  0  0  0  0
  3 16  1  0  0  0  0
  4 14  1  0  0  0  0
  7  9  1  6  0  0  0
  7 13  1  0  0  0  0
  7 11  1  0  0  0  0
  8 10  1  0  0  0  0
  8 17  1  0  0  0  0
 10 20  1  0  0  0  0
 11 16  1  0  0  0  0
 11 14  2  0  0  0  0
 12 23  1  6  0  0  0
 13  5  1  1  0  0  0
 13  4  1  0  0  0  0
 14 18  1  0  0  0  0
 15 19  1  1  0  0  0
 15  1  1  0  0  0  0
 16  2  2  0  0  0  0
 18  6  2  0  0  0  0
 20 19  1  0  0  0  0
 21 17  1  6  0  0  0
 21  3  1  0  0  0  0
 21 15  1  0  0  0  0
 22 25  1  0  0  0  0
 23 24  1  0  0  0  0
 25 24  1  0  0  0  0
 26 22  1  0  0  0  0
 27 26  1  0  0  0  0
 27 23  1  0  0  0  0
M  END
>  <MODEL>
2

>  <REMARK>
 VINA RESULT:      -7.5      1.516      4.684
  Name = 
  1 active torsions:
  status: ('A' for Active; 'I' for Inactive)
    1  A    between atoms: C_9  and  C_15
                            x       y       z     vdW  Elec       q    Type
                         _______ _______ _______ _____ _____    ______ ____

>  <TORSDO>
F 1

$$$$
=
 OpenBabel11052418213D

 27 31  0  0  1  0  0  0  0  0999 V2000
  189.4320  173.3660  144.3040 C   0  0  0  0  0  2  0  0  0  0  0  0
  188.8860  175.6660  145.4010 C   0  0  0  0  0  0  0  0  0  0  0  0
  187.6200  175.3000  143.1750 C   0  0  0  0  0  2  0  0  0  0  0  0
  186.3280  178.8870  146.0770 N   0  0  0  0  0  2  0  0  0  0  0  0
  184.1110  178.6440  145.2490 N   0  0  0  0  0  1  0  0  0  0  0  0
  188.9970  176.3740  146.5680 N   0  0  0  0  0  0  0  0  0  0  0  0
  186.0020  177.7800  143.9580 C   0  0  1  0  0  3  0  0  0  0  0  0
  188.5710  173.8120  140.1320 C   0  0  0  0  0  2  0  0  0  0  0  0
  186.5440  178.3920  142.6790 C   0  0  0  0  0  1  0  0  0  0  0  0
  189.9870  173.3250  139.7930 C   0  0  0  0  0  2  0  0  0  0  0  0
  187.1120  177.1680  144.7480 C   0  0  0  0  0  0  0  0  0  0  0  0
  189.8740  174.5420  145.1930 C   0  0  2  0  0  3  0  0  0  0  0  0
  185.4910  178.9070  144.8790 C   0  0  2  0  0  3  0  0  0  0  0  0
  187.2550  177.8330  145.9280 C   0  0  0  0  0  0  0  0  0  0  0  0
  189.4590  173.6330  142.7950 C   0  0  2  0  0  3  0  0  0  0  0  0
  187.9090  176.0580  144.4390 C   0  0  0  0  0  0  0  0  0  0  0  0
  188.5640  175.1430  140.8880 C   0  0  0  0  0  2  0  0  0  0  0  0
  188.2030  177.4410  146.8600 C   0  0  0  0  0  3  0  0  0  0  0  0
  190.8360  173.2960  142.2080 C   0  0  0  0  0  2  0  0  0  0  0  0
  191.0620  173.7900  140.7790 C   0  0  0  0  0  2  0  0  0  0  0  0
  188.8850  175.0090  142.3870 C   0  0  1  0  0  3  0  0  0  0  0  0
  193.8660  176.2320  145.0070 C   0  0  0  0  0  2  0  0  0  0  0  0
  191.3290  175.0170  145.0710 C   0  0  0  0  0  3  0  0  0  0  0  0
  192.1020  174.9750  146.3920 C   0  0  0  0  0  2  0  0  0  0  0  0
  193.5890  175.2890  146.1850 C   0  0  0  0  0  2  0  0  0  0  0  0
  192.6870  177.1680  144.7530 C   0  0  0  0  0  2  0  0  0  0  0  0
  191.4360  176.3760  144.3590 C   0  0  0  0  0  2  0  0  0  0  0  0
  1 12  1  0  0  0  0
  2  6  1  0  0  0  0
  3 16  1  0  0  0  0
  6 18  2  0  0  0  0
  7  9  1  6  0  0  0
  7 11  1  0  0  0  0
  7 13  1  0  0  0  0
  8 17  1  0  0  0  0
 10  8  1  0  0  0  0
 10 20  1  0  0  0  0
 11 14  2  0  0  0  0
 12 23  1  6  0  0  0
 12  2  1  0  0  0  0
 13  5  1  1  0  0  0
 13  4  1  0  0  0  0
 14  4  1  0  0  0  0
 14 18  1  0  0  0  0
 15 19  1  1  0  0  0
 15  1  1  0  0  0  0
 16 11  1  0  0  0  0
 16  2  2  0  0  0  0
 20 19  1  0  0  0  0
 21 17  1  6  0  0  0
 21 15  1  0  0  0  0
 21  3  1  0  0  0  0
 22 25  1  0  0  0  0
 23 24  1  0  0  0  0
 25 24  1  0  0  0  0
 26 22  1  0  0  0  0
 27 26  1  0  0  0  0
 27 23  1  0  0  0  0
M  END
>  <MODEL>
3

>  <REMARK>
 VINA RESULT:      -7.5      1.562      4.631
  Name = 
  1 active torsions:
  status: ('A' for Active; 'I' for Inactive)
    1  A    between atoms: C_9  and  C_15
                            x       y       z     vdW  Elec       q    Type
                         _______ _______ _______ _____ _____    ______ ____

>  <TORSDO>
F 1

$$$$
=
 OpenBabel11052418213D

 27 31  0  0  1  0  0  0  0  0999 V2000
  189.6460  177.9810  143.3230 C   0  0  0  0  0  2  0  0  0  0  0  0
  190.7430  175.6720  142.8210 C   0  0  0  0  0  0  0  0  0  0  0  0
  188.3420  175.8580  141.8780 C   0  0  0  0  0  2  0  0  0  0  0  0
  191.1650  172.2470  140.4830 N   0  0  0  0  0  2  0  0  0  0  0  0
  190.0090  172.2610  138.4030 N   0  0  0  0  0  1  0  0  0  0  0  0
  191.9410  175.0080  142.8170 N   0  0  0  0  0  0  0  0  0  0  0  0
  188.9780  173.2610  140.3840 C   0  0  1  0  0  3  0  0  0  0  0  0
  185.4140  177.3450  143.1410 C   0  0  0  0  0  2  0  0  0  0  0  0
  187.8180  172.6680  141.1630 C   0  0  0  0  0  1  0  0  0  0  0  0
  185.2680  177.9510  144.5440 C   0  0  0  0  0  2  0  0  0  0  0  0
  189.8970  173.9940  141.3040 C   0  0  0  0  0  0  0  0  0  0  0  0
  190.6370  176.8750  143.7270 C   0  0  2  0  0  3  0  0  0  0  0  0
  189.8580  172.1170  139.8400 C   0  0  2  0  0  3  0  0  0  0  0  0
  191.1110  173.3770  141.3250 C   0  0  0  0  0  0  0  0  0  0  0  0
  188.1690  177.6770  143.6000 C   0  0  2  0  0  3  0  0  0  0  0  0
  189.6630  175.1640  142.0380 C   0  0  0  0  0  0  0  0  0  0  0  0
  186.2140  176.0400  143.1380 C   0  0  0  0  0  2  0  0  0  0  0  0
  192.1560  173.8810  142.0850 C   0  0  0  0  0  3  0  0  0  0  0  0
  187.7790  178.1250  145.0150 C   0  0  0  0  0  2  0  0  0  0  0  0
  186.4200  177.6150  145.4950 C   0  0  0  0  0  2  0  0  0  0  0  0
  187.7380  176.2440  143.2160 C   0  0  1  0  0  3  0  0  0  0  0  0
  191.0610  175.5410  147.8340 C   0  0  0  0  0  2  0  0  0  0  0  0
  190.7500  176.5340  145.2200 C   0  0  0  0  0  3  0  0  0  0  0  0
  192.1910  176.5100  145.7370 C   0  0  0  0  0  2  0  0  0  0  0  0
  192.2400  176.3390  147.2610 C   0  0  0  0  0  2  0  0  0  0  0  0
  190.5170  174.5420  146.8170 C   0  0  0  0  0  2  0  0  0  0  0  0
  189.9630  175.2650  145.5840 C   0  0  0  0  0  2  0  0  0  0  0  0
  1 12  1  0  0  0  0
  2 12  1  0  0  0  0
  3 16  1  0  0  0  0
  4 14  1  0  0  0  0
  6  2  1  0  0  0  0
  7  9  1  1  0  0  0
  7 11  1  0  0  0  0
  8 10  1  0  0  0  0
 10 20  1  0  0  0  0
 11 14  2  0  0  0  0
 11 16  1  0  0  0  0
 12 23  1  1  0  0  0
 13  5  1  6  0  0  0
 13  7  1  0  0  0  0
 13  4  1  0  0  0  0
 14 18  1  0  0  0  0
 15  1  1  1  0  0  0
 15 19  1  0  0  0  0
 16  2  2  0  0  0  0
 17  8  1  0  0  0  0
 17 21  1  0  0  0  0
 18  6  2  0  0  0  0
 19 20  1  0  0  0  0
 21  3  1  6  0  0  0
 21 15  1  0  0  0  0
 23 27  1  0  0  0  0
 23 24  1  0  0  0  0
 24 25  1  0  0  0  0
 25 22  1  0  0  0  0
 26 22  1  0  0  0  0
 27 26  1  0  0  0  0
M  END
>  <MODEL>
4

>  <REMARK>
 VINA RESULT:      -7.3      2.707      6.329
  Name = 
  1 active torsions:
  status: ('A' for Active; 'I' for Inactive)
    1  A    between atoms: C_9  and  C_15
                            x       y       z     vdW  Elec       q    Type
                         _______ _______ _______ _____ _____    ______ ____

>  <TORSDO>
F 1

$$$$
=
 OpenBabel11052418213D

 27 31  0  0  1  0  0  0  0  0999 V2000
  189.4190  172.8510  143.2580 C   0  0  0  0  0  2  0  0  0  0  0  0
  188.9140  175.2850  144.0410 C   0  0  0  0  0  0  0  0  0  0  0  0
  187.6270  174.6460  141.8900 C   0  0  0  0  0  2  0  0  0  0  0  0
  186.4090  178.6070  144.2950 N   0  0  0  0  0  2  0  0  0  0  0  0
  184.1830  178.2910  143.5180 N   0  0  0  0  0  1  0  0  0  0  0  0
  189.0440  176.1400  145.1030 N   0  0  0  0  0  0  0  0  0  0  0  0
  186.0520  177.2330  142.3440 C   0  0  1  0  0  3  0  0  0  0  0  0
  188.5340  172.7510  139.0680 C   0  0  0  0  0  2  0  0  0  0  0  0
  186.5940  177.6610  140.9920 C   0  0  0  0  0  1  0  0  0  0  0  0
  189.9400  172.2020  138.7890 C   0  0  0  0  0  2  0  0  0  0  0  0
  187.1580  176.7150  143.2030 C   0  0  0  0  0  0  0  0  0  0  0  0
  189.8840  174.1290  143.9800 C   0  0  2  0  0  3  0  0  0  0  0  0
  185.5640  178.4810  143.1100 C   0  0  2  0  0  3  0  0  0  0  0  0
  187.3190  177.5280  144.2830 C   0  0  0  0  0  0  0  0  0  0  0  0
  189.4380  172.9150  141.7260 C   0  0  2  0  0  3  0  0  0  0  0  0
  187.9360  175.5610  143.0400 C   0  0  0  0  0  0  0  0  0  0  0  0
  188.5530  174.1710  139.6390 C   0  0  0  0  0  2  0  0  0  0  0  0
  188.2680  177.2490  145.2540 C   0  0  0  0  0  3  0  0  0  0  0  0
  190.8060  172.4810  141.1820 C   0  0  0  0  0  2  0  0  0  0  0  0
  191.0290  172.7760  139.6990 C   0  0  0  0  0  2  0  0  0  0  0  0
  188.8820  174.2330  141.1420 C   0  0  1  0  0  3  0  0  0  0  0  0
  193.9020  175.7120  143.5640 C   0  0  0  0  0  2  0  0  0  0  0  0
  191.3450  174.5600  143.7880 C   0  0  0  0  0  3  0  0  0  0  0  0
  192.1420  174.6280  145.0930 C   0  0  0  0  0  2  0  0  0  0  0  0
  193.6300  174.8910  144.8320 C   0  0  0  0  0  2  0  0  0  0  0  0
  192.7370  176.6430  143.2420 C   0  0  0  0  0  2  0  0  0  0  0  0
  191.4630  175.8420  142.9470 C   0  0  0  0  0  2  0  0  0  0  0  0
  1 12  1  0  0  0  0
  2  6  1  0  0  0  0
  3 16  1  0  0  0  0
  6 18  2  0  0  0  0
  7  9  1  6  0  0  0
  7 13  1  0  0  0  0
  7 11  1  0  0  0  0
  8 17  1  0  0  0  0
 10  8  1  0  0  0  0
 10 20  1  0  0  0  0
 11 14  2  0  0  0  0
 12 23  1  6  0  0  0
 12  2  1  0  0  0  0
 13  5  1  1  0  0  0
 13  4  1  0  0  0  0
 14  4  1  0  0  0  0
 14 18  1  0  0  0  0
 15 19  1  1  0  0  0
 15  1  1  0  0  0  0
 16 11  1  0  0  0  0
 16  2  2  0  0  0  0
 20 19  1  0  0  0  0
 21 17  1  6  0  0  0
 21 15  1  0  0  0  0
 21  3  1  0  0  0  0
 22 25  1  0  0  0  0
 23 24  1  0  0  0  0
 25 24  1  0  0  0  0
 26 22  1  0  0  0  0
 27 26  1  0  0  0  0
 27 23  1  0  0  0  0
M  END
>  <MODEL>
5

>  <REMARK>
 VINA RESULT:      -7.2      1.633      4.875
  Name = 
  1 active torsions:
  status: ('A' for Active; 'I' for Inactive)
    1  A    between atoms: C_9  and  C_15
                            x       y       z     vdW  Elec       q    Type
                         _______ _______ _______ _____ _____    ______ ____

>  <TORSDO>
F 1

$$$$
=
 OpenBabel11052418213D

 27 31  0  0  1  0  0  0  0  0999 V2000
  190.8530  177.1820  143.1350 C   0  0  0  0  0  2  0  0  0  0  0  0
  192.5710  176.3870  144.9250 C   0  0  0  0  0  0  0  0  0  0  0  0
  192.6230  174.9360  142.7850 C   0  0  0  0  0  2  0  0  0  0  0  0
  196.1490  174.5410  146.0050 N   0  0  0  0  0  2  0  0  0  0  0  0
  197.6060  173.9710  144.2120 N   0  0  0  0  0  1  0  0  0  0  0  0
  193.1950  176.7640  146.0850 N   0  0  0  0  0  0  0  0  0  0  0  0
  195.1850  173.7270  143.9480 C   0  0  1  0  0  3  0  0  0  0  0  0
  190.0760  173.7810  140.6500 C   0  0  0  0  0  2  0  0  0  0  0  0
  194.4350  172.4070  143.9190 C   0  0  0  0  0  1  0  0  0  0  0  0
  188.5710  173.9470  140.9030 C   0  0  0  0  0  2  0  0  0  0  0  0
  194.3450  174.7850  144.5840 C   0  0  0  0  0  0  0  0  0  0  0  0
  191.2540  177.0570  144.6150 C   0  0  2  0  0  3  0  0  0  0  0  0
  196.3860  173.6030  144.9090 C   0  0  2  0  0  3  0  0  0  0  0  0
  194.9310  175.2030  145.7390 C   0  0  0  0  0  0  0  0  0  0  0  0
  190.3240  175.8990  142.4830 C   0  0  2  0  0  3  0  0  0  0  0  0
  193.1530  175.3600  144.1240 C   0  0  0  0  0  0  0  0  0  0  0  0
  190.8570  173.4270  141.9190 C   0  0  0  0  0  2  0  0  0  0  0  0
  194.3620  176.2060  146.5090 C   0  0  0  0  0  3  0  0  0  0  0  0
  188.8060  175.7810  142.6740 C   0  0  0  0  0  2  0  0  0  0  0  0
  188.2210  174.4140  142.3180 C   0  0  0  0  0  2  0  0  0  0  0  0
  191.1360  174.6320  142.8340 C   0  0  1  0  0  3  0  0  0  0  0  0
  187.8830  176.0490  147.1550 C   0  0  0  0  0  2  0  0  0  0  0  0
  190.1440  176.7300  145.6250 C   0  0  0  0  0  3  0  0  0  0  0  0
  189.9400  175.2290  145.8480 C   0  0  0  0  0  2  0  0  0  0  0  0
  188.9490  174.9580  146.9870 C   0  0  0  0  0  2  0  0  0  0  0  0
  187.5890  176.7500  145.8310 C   0  0  0  0  0  2  0  0  0  0  0  0
  188.8350  177.4710  145.3060 C   0  0  0  0  0  2  0  0  0  0  0  0
  1 12  1  0  0  0  0
  2  6  1  0  0  0  0
  3 21  1  0  0  0  0
  3 16  1  0  0  0  0
  6 18  2  0  0  0  0
  7  9  1  1  0  0  0
  7 11  1  0  0  0  0
  7 13  1  0  0  0  0
  8 10  1  0  0  0  0
  8 17  1  0  0  0  0
 10 20  1  0  0  0  0
 11 14  2  0  0  0  0
 12  2  1  0  0  0  0
 12 23  1  1  0  0  0
 13  5  1  6  0  0  0
 13  4  1  0  0  0  0
 14  4  1  0  0  0  0
 14 18  1  0  0  0  0
 15 19  1  1  0  0  0
 15 21  1  0  0  0  0
 15  1  1  0  0  0  0
 16 11  1  0  0  0  0
 16  2  2  0  0  0  0
 20 19  1  0  0  0  0
 21 17  1  6  0  0  0
 23 24  1  0  0  0  0
 24 25  1  0  0  0  0
 25 22  1  0  0  0  0
 26 22  1  0  0  0  0
 27 23  1  0  0  0  0
 27 26  1  0  0  0  0
M  END
>  <MODEL>
6

>  <REMARK>
 VINA RESULT:      -7.2      3.281      7.101
  Name = 
  1 active torsions:
  status: ('A' for Active; 'I' for Inactive)
    1  A    between atoms: C_9  and  C_15
                            x       y       z     vdW  Elec       q    Type
                         _______ _______ _______ _____ _____    ______ ____

>  <TORSDO>
F 1

$$$$
=
 OpenBabel11052418213D

 27 31  0  0  1  0  0  0  0  0999 V2000
  190.4710  177.9690  143.5590 C   0  0  0  0  0  2  0  0  0  0  0  0
  191.1650  175.7420  142.3980 C   0  0  0  0  0  0  0  0  0  0  0  0
  188.6000  175.9970  142.6060 C   0  0  0  0  0  2  0  0  0  0  0  0
  190.4240  172.5960  139.7660 N   0  0  0  0  0  2  0  0  0  0  0  0
  188.4890  172.8190  138.4000 N   0  0  0  0  0  1  0  0  0  0  0  0
  192.2220  175.1000  141.8100 N   0  0  0  0  0  0  0  0  0  0  0  0
  188.4430  173.5850  140.7240 C   0  0  1  0  0  3  0  0  0  0  0  0
  186.5520  177.2980  145.1530 C   0  0  0  0  0  2  0  0  0  0  0  0
  187.7110  172.8950  141.8610 C   0  0  0  0  0  1  0  0  0  0  0  0
  187.0430  177.7480  146.5360 C   0  0  0  0  0  2  0  0  0  0  0  0
  189.6930  174.2270  141.2290 C   0  0  0  0  0  0  0  0  0  0  0  0
  191.5010  176.8400  143.3800 C   0  0  2  0  0  3  0  0  0  0  0  0
  188.9650  172.5180  139.7390 C   0  0  2  0  0  3  0  0  0  0  0  0
  190.7770  173.6280  140.6610 C   0  0  0  0  0  0  0  0  0  0  0  0
  189.2460  177.6160  144.4110 C   0  0  2  0  0  3  0  0  0  0  0  0
  189.8380  175.3080  142.1080 C   0  0  0  0  0  0  0  0  0  0  0  0
  187.2270  176.0120  144.6700 C   0  0  0  0  0  2  0  0  0  0  0  0
  192.0630  174.0610  140.9440 C   0  0  0  0  0  3  0  0  0  0  0  0
  189.5170  177.9030  145.8950 C   0  0  0  0  0  2  0  0  0  0  0  0
  188.4800  177.3270  146.8580 C   0  0  0  0  0  2  0  0  0  0  0  0
  188.6430  176.2270  144.1050 C   0  0  1  0  0  3  0  0  0  0  0  0
  193.6870  175.1150  146.7080 C   0  0  0  0  0  2  0  0  0  0  0  0
  192.2320  176.3410  144.6350 C   0  0  0  0  0  3  0  0  0  0  0  0
  193.7400  176.6020  144.6110 C   0  0  0  0  0  2  0  0  0  0  0  0
  194.3950  176.2470  145.9520 C   0  0  0  0  0  2  0  0  0  0  0  0
  192.9850  174.1580  145.7480 C   0  0  0  0  0  2  0  0  0  0  0  0
  191.8830  174.8800  144.9640 C   0  0  0  0  0  2  0  0  0  0  0  0
  2 12  1  0  0  0  0
  4 14  1  0  0  0  0
  6  2  2  0  0  0  0
  7 11  1  0  0  0  0
  7  9  1  1  0  0  0
  8 10  1  0  0  0  0
 10 20  1  0  0  0  0
 11 16  2  0  0  0  0
 12  1  1  0  0  0  0
 12 23  1  1  0  0  0
 13  5  1  6  0  0  0
 13  4  1  0  0  0  0
 13  7  1  0  0  0  0
 14 18  2  0  0  0  0
 14 11  1  0  0  0  0
 15  1  1  6  0  0  0
 15 19  1  0  0  0  0
 16  2  1  0  0  0  0
 16  3  1  0  0  0  0
 17  8  1  0  0  0  0
 18  6  1  0  0  0  0
 19 20  1  0  0  0  0
 21  3  1  6  0  0  0
 21 15  1  0  0  0  0
 21 17  1  0  0  0  0
 23 27  1  0  0  0  0
 24 23  1  0  0  0  0
 24 25  1  0  0  0  0
 25 22  1  0  0  0  0
 26 22  1  0  0  0  0
 27 26  1  0  0  0  0
M  END
>  <MODEL>
7

>  <REMARK>
 VINA RESULT:      -7.2      2.808      5.740
  Name = 
  1 active torsions:
  status: ('A' for Active; 'I' for Inactive)
    1  A    between atoms: C_9  and  C_15
                            x       y       z     vdW  Elec       q    Type
                         _______ _______ _______ _____ _____    ______ ____

>  <TORSDO>
F 1

$$$$
=
 OpenBabel11052418213D

 27 31  0  0  1  0  0  0  0  0999 V2000
  188.6280  178.2910  143.5590 C   0  0  0  0  0  2  0  0  0  0  0  0
  189.1250  176.0040  144.7060 C   0  0  0  0  0  0  0  0  0  0  0  0
  188.8320  175.7900  142.1450 C   0  0  0  0  0  2  0  0  0  0  0  0
  190.6590  172.1290  144.6390 N   0  0  0  0  0  2  0  0  0  0  0  0
  191.8990  171.5360  142.6970 N   0  0  0  0  0  1  0  0  0  0  0  0
  189.5670  175.4400  145.8730 N   0  0  0  0  0  0  0  0  0  0  0  0
  189.9060  172.9420  142.4960 C   0  0  1  0  0  3  0  0  0  0  0  0
  186.6510  177.3600  139.8740 C   0  0  0  0  0  2  0  0  0  0  0  0
  188.5700  172.4960  141.9290 C   0  0  0  0  0  1  0  0  0  0  0  0
  185.4980  178.2950  140.2630 C   0  0  0  0  0  2  0  0  0  0  0  0
  189.6960  173.9440  143.5840 C   0  0  0  0  0  0  0  0  0  0  0  0
  188.5340  177.3910  144.8040 C   0  0  2  0  0  3  0  0  0  0  0  0
  190.5660  171.7560  143.2290 C   0  0  2  0  0  3  0  0  0  0  0  0
  190.1330  173.4320  144.7680 C   0  0  0  0  0  0  0  0  0  0  0  0
  187.6300  177.9730  142.4390 C   0  0  2  0  0  3  0  0  0  0  0  0
  189.1860  175.2450  143.4990 C   0  0  0  0  0  0  0  0  0  0  0  0
  186.7770  176.1510  140.8050 C   0  0  0  0  0  2  0  0  0  0  0  0
  190.0760  174.1790  145.9340 C   0  0  0  0  0  3  0  0  0  0  0  0
  186.3180  178.7430  142.6470 C   0  0  0  0  0  2  0  0  0  0  0  0
  185.1610  178.2880  141.7570 C   0  0  0  0  0  2  0  0  0  0  0  0
  187.4730  176.4650  142.1420 C   0  0  1  0  0  3  0  0  0  0  0  0
  184.7140  177.7660  146.8270 C   0  0  0  0  0  2  0  0  0  0  0  0
  187.2400  177.4510  145.6280 C   0  0  0  0  0  3  0  0  0  0  0  0
  186.1790  176.4420  145.1800 C   0  0  0  0  0  2  0  0  0  0  0  0
  184.9810  176.4210  146.1380 C   0  0  0  0  0  2  0  0  0  0  0  0
  185.1770  178.9360  145.9640 C   0  0  0  0  0  2  0  0  0  0  0  0
  186.6920  178.8840  145.7400 C   0  0  0  0  0  2  0  0  0  0  0  0
  1 12  1  0  0  0  0
  2 12  1  0  0  0  0
  2  6  1  0  0  0  0
  3 16  1  0  0  0  0
  4 14  1  0  0  0  0
  6 18  2  0  0  0  0
  7  9  1  1  0  0  0
  7 13  1  0  0  0  0
  7 11  1  0  0  0  0
  8 10  1  0  0  0  0
  8 17  1  0  0  0  0
 10 20  1  0  0  0  0
 11 14  2  0  0  0  0
 12 23  1  6  0  0  0
 13  5  1  6  0  0  0
 13  4  1  0  0  0  0
 14 18  1  0  0  0  0
 15 19  1  1  0  0  0
 15  1  1  0  0  0  0
 16 11  1  0  0  0  0
 16  2  2  0  0  0  0
 20 19  1  0  0  0  0
 21 17  1  6  0  0  0
 21  3  1  0  0  0  0
 21 15  1  0  0  0  0
 23 27  1  0  0  0  0
 24 23  1  0  0  0  0
 24 25  1  0  0  0  0
 25 22  1  0  0  0  0
 26 22  1  0  0  0  0
 27 26  1  0  0  0  0
M  END
>  <MODEL>
8

>  <REMARK>
 VINA RESULT:      -7.0      2.593      6.897
  Name = 
  1 active torsions:
  status: ('A' for Active; 'I' for Inactive)
    1  A    between atoms: C_9  and  C_15
                            x       y       z     vdW  Elec       q    Type
                         _______ _______ _______ _____ _____    ______ ____

>  <TORSDO>
F 1

$$$$
=
 OpenBabel11052418213D

 27 31  0  0  1  0  0  0  0  0999 V2000
  189.6410  173.5510  146.0920 C   0  0  0  0  0  2  0  0  0  0  0  0
  191.8040  173.1520  144.6950 C   0  0  0  0  0  0  0  0  0  0  0  0
  192.0760  175.0510  146.4300 C   0  0  0  0  0  2  0  0  0  0  0  0
  195.9470  173.2610  144.2450 N   0  0  0  0  0  2  0  0  0  0  0  0
  197.1910  173.7890  146.2030 N   0  0  0  0  0  1  0  0  0  0  0  0
  192.4080  172.2660  143.8430 N   0  0  0  0  0  0  0  0  0  0  0  0
  195.0630  174.9150  145.7630 C   0  0  1  0  0  3  0  0  0  0  0  0
  189.8900  177.5760  147.5340 C   0  0  0  0  0  2  0  0  0  0  0  0
  194.9090  176.3600  145.3230 C   0  0  0  0  0  1  0  0  0  0  0  0
  188.5090  177.8720  146.9320 C   0  0  0  0  0  2  0  0  0  0  0  0
  193.9870  174.0740  145.1580 C   0  0  0  0  0  0  0  0  0  0  0  0
  190.2970  173.0960  144.7760 C   0  0  2  0  0  3  0  0  0  0  0  0
  196.3540  174.3350  145.1490 C   0  0  2  0  0  3  0  0  0  0  0  0
  194.5400  173.1650  144.3090 C   0  0  0  0  0  0  0  0  0  0  0  0
  189.5690  175.0670  146.3040 C   0  0  2  0  0  3  0  0  0  0  0  0
  192.6070  174.1030  145.3940 C   0  0  0  0  0  0  0  0  0  0  0  0
  190.9450  177.2570  146.4720 C   0  0  0  0  0  2  0  0  0  0  0  0
  193.7530  172.2410  143.6380 C   0  0  0  0  0  3  0  0  0  0  0  0
  188.2800  175.6390  145.6990 C   0  0  0  0  0  2  0  0  0  0  0  0
  188.2400  177.1640  145.6010 C   0  0  0  0  0  2  0  0  0  0  0  0
  190.8660  175.8190  145.9290 C   0  0  1  0  0  3  0  0  0  0  0  0
  188.6340  174.0250  140.8770 C   0  0  0  0  0  2  0  0  0  0  0  0
  189.5960  173.4770  143.4640 C   0  0  0  0  0  3  0  0  0  0  0  0
  188.9410  172.2910  142.7510 C   0  0  0  0  0  2  0  0  0  0  0  0
  188.1090  172.7480  141.5460 C   0  0  0  0  0  2  0  0  0  0  0  0
  190.1430  174.1690  141.0570 C   0  0  0  0  0  2  0  0  0  0  0  0
  190.5060  174.3020  142.5400 C   0  0  0  0  0  2  0  0  0  0  0  0
  1 15  1  0  0  0  0
  2 12  1  0  0  0  0
  2 16  1  0  0  0  0
  4 14  1  0  0  0  0
  4 13  1  0  0  0  0
  6  2  2  0  0  0  0
  7  9  1  6  0  0  0
 10  8  1  0  0  0  0
 11 16  2  0  0  0  0
 11  7  1  0  0  0  0
 12 23  1  6  0  0  0
 12  1  1  0  0  0  0
 13  7  1  0  0  0  0
 13  5  1  1  0  0  0
 14 11  1  0  0  0  0
 15 19  1  6  0  0  0
 16  3  1  0  0  0  0
 17  8  1  0  0  0  0
 18  6  1  0  0  0  0
 18 14  2  0  0  0  0
 20 19  1  0  0  0  0
 20 10  1  0  0  0  0
 21 15  1  0  0  0  0
 21  3  1  1  0  0  0
 21 17  1  0  0  0  0
 22 26  1  0  0  0  0
 22 25  1  0  0  0  0
 24 23  1  0  0  0  0
 25 24  1  0  0  0  0
 26 27  1  0  0  0  0
 27 23  1  0  0  0  0
M  END
>  <MODEL>
9

>  <REMARK>
 VINA RESULT:      -6.8      3.308      6.261
  Name = 
  1 active torsions:
  status: ('A' for Active; 'I' for Inactive)
    1  A    between atoms: C_9  and  C_15
                            x       y       z     vdW  Elec       q    Type
                         _______ _______ _______ _____ _____    ______ ____

>  <TORSDO>
F 1

$$$$
