=
 OpenBabel11052419033D

 34 38  0  0  1  0  0  0  0  0999 V2000
  191.1530  176.5980  145.0680 C   0  0  1  0  0  3  0  0  0  0  0  0
  191.3490  173.9870  145.2620 C   0  0  0  0  0  2  0  0  0  0  0  0
  187.8940  172.0950  139.0100 O   0  0  0  0  0  0  0  0  0  0  0  0
  189.1050  175.0420  144.5270 C   0  0  1  0  0  3  0  0  0  0  0  0
  188.5370  175.7450  142.0990 C   0  0  1  0  0  3  0  0  0  0  0  0
  188.8920  173.2590  142.7540 C   0  0  0  0  0  2  0  0  0  0  0  0
  190.4710  175.2200  145.1880 C   0  0  0  0  0  0  0  0  0  0  0  0
  187.8760  173.0800  141.6280 C   0  0  0  0  0  2  0  0  0  0  0  0
  188.6020  175.3040  140.6360 C   0  0  0  0  0  2  0  0  0  0  0  0
  188.1910  176.2450  144.8410 C   0  0  2  0  0  3  0  0  0  0  0  0
  190.1640  177.7020  145.4330 C   0  0  0  0  0  2  0  0  0  0  0  0
  190.6100  174.4830  146.5030 C   0  0  0  0  0  2  0  0  0  0  0  0
  187.0870  176.0400  142.5120 C   0  0  0  0  0  2  0  0  0  0  0  0
  186.8910  176.1120  144.0340 C   0  0  2  0  0  3  0  0  0  0  0  0
  188.2580  173.8870  140.4700 N   0  0  0  0  0  0  0  0  0  0  0  0
  189.2450  174.7300  143.0250 C   0  0  2  0  0  3  0  0  0  0  0  0
  188.8980  177.5880  144.5890 C   0  0  0  0  0  2  0  0  0  0  0  0
  188.2360  173.3000  139.1590 C   0  0  0  0  0  0  0  0  0  0  0  0
  184.5640  178.1780  146.1810 C   0  0  0  0  0  0  0  0  0  0  0  0
  183.9090  178.9090  145.2410 N   0  0  0  0  0  0  0  0  0  0  0  0
  185.8300  177.0890  144.4400 C   0  0  0  0  0  0  0  0  0  0  0  0
  184.1770  178.7690  143.9150 C   0  0  0  0  0  3  0  0  0  0  0  0
  185.5400  177.2550  145.7960 C   0  0  0  0  0  3  0  0  0  0  0  0
  185.1440  177.8580  143.4890 C   0  0  0  0  0  3  0  0  0  0  0  0
  184.2730  178.3450  147.4930 F   0  0  0  0  0  0  0  0  0  0  0  0
  192.4290  176.7470  145.8430 C   0  0  0  0  0  0  0  0  0  0  0  0
  192.4120  176.8160  147.2310 O   0  0  0  0  0  1  0  0  0  0  0  0
  193.5270  176.7870  145.2290 O   0  0  0  0  0  0  0  0  0  0  0  0
  188.6480  174.0850  137.9540 C   0  0  0  0  0  2  0  0  0  0  0  0
  189.8960  173.4850  137.3190 C   0  0  0  0  0  3  0  0  0  0  0  0
  190.2530  174.1700  135.9950 C   0  0  0  0  0  2  0  0  0  0  0  0
  189.1030  174.9990  135.4390 C   0  0  0  0  0  1  0  0  0  0  0  0
  191.0530  173.5250  138.3080 C   0  0  0  0  0  2  0  0  0  0  0  0
  191.7070  172.1600  138.4130 C   0  0  0  0  0  1  0  0  0  0  0  0
  1  7  1  0  0  0  0
  1 11  1  0  0  0  0
  1 26  1  1  0  0  0
  2 12  1  0  0  0  0
  3 18  2  0  0  0  0
  4 10  1  0  0  0  0
  4  7  1  6  0  0  0
  5  9  1  6  0  0  0
  5 13  1  0  0  0  0
  5 16  1  0  0  0  0
  7  2  1  0  0  0  0
  7 12  1  0  0  0  0
  8  6  1  0  0  0  0
 10 17  1  6  0  0  0
 13 14  1  0  0  0  0
 14 21  1  6  0  0  0
 14 10  1  0  0  0  0
 15  9  1  0  0  0  0
 15  8  1  0  0  0  0
 16  6  1  1  0  0  0
 16  4  1  0  0  0  0
 17 11  1  0  0  0  0
 18 15  1  0  0  0  0
 19 25  1  0  0  0  0
 20 19  2  0  0  0  0
 21 23  2  0  0  0  0
 22 20  1  0  0  0  0
 23 19  1  0  0  0  0
 24 22  2  0  0  0  0
 24 21  1  0  0  0  0
 26 27  1  0  0  0  0
 28 26  2  0  0  0  0
 29 18  1  0  0  0  0
 30 29  1  0  0  0  0
 30 33  1  0  0  0  0
 31 30  1  0  0  0  0
 32 31  1  0  0  0  0
 33 34  1  0  0  0  0
M  END
>  <MODEL>
1

>  <REMARK>
 VINA RESULT:      -7.6      0.000      0.000
  Name = 
  6 active torsions:
  status: ('A' for Active; 'I' for Inactive)
    1  A    between atoms: C_1  and  C_6
    2  A    between atoms: C_11  and  C_20
    3  A    between atoms: C_12  and  C_28
    4  A    between atoms: C_13  and  C_20
    5  A    between atoms: C_13  and  C_33
    6  A    between atoms: C_14  and  C_20
                            x       y       z     vdW  Elec       q    Type
                         _______ _______ _______ _____ _____    ______ ____

>  <TORSDO>
F 6

$$$$
=
 OpenBabel11052419033D

 34 38  0  0  1  0  0  0  0  0999 V2000
  192.5170  176.5420  144.6160 C   0  0  1  0  0  3  0  0  0  0  0  0
  192.7390  173.9280  144.7000 C   0  0  0  0  0  2  0  0  0  0  0  0
  187.7900  172.1720  139.5010 O   0  0  0  0  0  0  0  0  0  0  0  0
  190.3890  175.0000  144.5850 C   0  0  1  0  0  3  0  0  0  0  0  0
  189.2230  175.7550  142.3980 C   0  0  1  0  0  3  0  0  0  0  0  0
  189.7180  173.2550  142.8900 C   0  0  0  0  0  2  0  0  0  0  0  0
  191.8790  175.1630  144.8780 C   0  0  0  0  0  0  0  0  0  0  0  0
  188.4470  173.1010  142.0570 C   0  0  0  0  0  2  0  0  0  0  0  0
  188.9100  175.3460  140.9580 C   0  0  0  0  0  2  0  0  0  0  0  0
  189.5920  176.1960  145.1460 C   0  0  2  0  0  3  0  0  0  0  0  0
  191.6600  177.6390  145.2440 C   0  0  0  0  0  2  0  0  0  0  0  0
  192.3450  174.3970  146.0990 C   0  0  0  0  0  2  0  0  0  0  0  0
  187.9300  176.0420  143.1730 C   0  0  0  0  0  2  0  0  0  0  0  0
  188.1290  176.0820  144.6960 C   0  0  2  0  0  3  0  0  0  0  0  0
  188.5260  173.9320  140.8560 N   0  0  0  0  0  0  0  0  0  0  0  0
  190.1380  174.7200  143.0900 C   0  0  2  0  0  3  0  0  0  0  0  0
  190.2210  177.5440  144.7500 C   0  0  0  0  0  2  0  0  0  0  0  0
  188.1670  173.3730  139.5830 C   0  0  0  0  0  0  0  0  0  0  0  0
  185.8400  179.0330  145.2840 C   0  0  0  0  0  0  0  0  0  0  0  0
  185.4890  178.8460  146.5840 N   0  0  0  0  0  0  0  0  0  0  0  0
  187.2130  177.0510  145.3790 C   0  0  0  0  0  0  0  0  0  0  0  0
  185.9630  177.7960  147.3060 C   0  0  0  0  0  3  0  0  0  0  0  0
  186.7080  178.1350  144.6570 C   0  0  0  0  0  3  0  0  0  0  0  0
  186.8330  176.8770  146.7170 C   0  0  0  0  0  3  0  0  0  0  0  0
  185.3460  180.0880  144.5940 F   0  0  0  0  0  0  0  0  0  0  0  0
  193.9490  176.6740  145.0420 C   0  0  0  0  0  0  0  0  0  0  0  0
  194.9820  176.3680  144.1630 O   0  0  0  0  0  0  0  0  0  0  0  0
  194.2170  177.0890  146.1990 O   0  0  0  0  0  1  0  0  0  0  0  0
  188.2620  174.1840  138.3290 C   0  0  0  0  0  2  0  0  0  0  0  0
  189.3000  173.5940  137.3820 C   0  0  0  0  0  3  0  0  0  0  0  0
  189.2910  174.2880  136.0150 C   0  0  0  0  0  2  0  0  0  0  0  0
  189.5700  173.3230  134.8710 C   0  0  0  0  0  1  0  0  0  0  0  0
  190.6770  173.6350  138.0310 C   0  0  0  0  0  2  0  0  0  0  0  0
  191.3080  172.2560  138.0220 C   0  0  0  0  0  1  0  0  0  0  0  0
  1  7  1  0  0  0  0
  1 26  1  1  0  0  0
  1 11  1  0  0  0  0
  2  7  1  0  0  0  0
  2 12  1  0  0  0  0
  3 18  2  0  0  0  0
  4  7  1  6  0  0  0
  4 10  1  0  0  0  0
  5  9  1  6  0  0  0
  5 16  1  0  0  0  0
  5 13  1  0  0  0  0
  7 12  1  0  0  0  0
  8  6  1  0  0  0  0
 10 17  1  6  0  0  0
 13 14  1  0  0  0  0
 14 10  1  0  0  0  0
 14 21  1  6  0  0  0
 15  9  1  0  0  0  0
 15  8  1  0  0  0  0
 16  6  1  1  0  0  0
 16  4  1  0  0  0  0
 17 11  1  0  0  0  0
 18 15  1  0  0  0  0
 19 20  1  0  0  0  0
 20 22  2  0  0  0  0
 21 24  2  0  0  0  0
 23 19  2  0  0  0  0
 23 21  1  0  0  0  0
 24 22  1  0  0  0  0
 25 19  1  0  0  0  0
 26 28  1  0  0  0  0
 27 26  2  0  0  0  0
 29 18  1  0  0  0  0
 30 33  1  0  0  0  0
 30 29  1  0  0  0  0
 31 30  1  0  0  0  0
 32 31  1  0  0  0  0
 34 33  1  0  0  0  0
M  END
>  <MODEL>
2

>  <REMARK>
 VINA RESULT:      -7.3      1.338      1.768
  Name = 
  6 active torsions:
  status: ('A' for Active; 'I' for Inactive)
    1  A    between atoms: C_1  and  C_6
    2  A    between atoms: C_11  and  C_20
    3  A    between atoms: C_12  and  C_28
    4  A    between atoms: C_13  and  C_20
    5  A    between atoms: C_13  and  C_33
    6  A    between atoms: C_14  and  C_20
                            x       y       z     vdW  Elec       q    Type
                         _______ _______ _______ _____ _____    ______ ____

>  <TORSDO>
F 6

$$$$
=
 OpenBabel11052419033D

 34 38  0  0  1  0  0  0  0  0999 V2000
  193.3090  176.3640  144.5960 C   0  0  1  0  0  3  0  0  0  0  0  0
  193.3400  173.9770  145.6890 C   0  0  0  0  0  2  0  0  0  0  0  0
  190.0920  170.1680  140.2540 O   0  0  0  0  0  0  0  0  0  0  0  0
  191.2020  174.7970  144.4880 C   0  0  1  0  0  3  0  0  0  0  0  0
  190.7960  174.6350  141.9340 C   0  0  1  0  0  3  0  0  0  0  0  0
  190.9710  172.5190  143.4270 C   0  0  0  0  0  2  0  0  0  0  0  0
  192.5410  175.1400  145.1370 C   0  0  0  0  0  0  0  0  0  0  0  0
  190.0030  172.0000  142.3650 C   0  0  0  0  0  2  0  0  0  0  0  0
  190.9070  173.7120  140.7200 C   0  0  0  0  0  2  0  0  0  0  0  0
  190.3450  176.0680  144.3070 C   0  0  2  0  0  3  0  0  0  0  0  0
  192.3700  177.5630  144.4920 C   0  0  0  0  0  2  0  0  0  0  0  0
  192.5720  174.9010  146.6320 C   0  0  0  0  0  2  0  0  0  0  0  0
  189.3480  175.1100  142.1220 C   0  0  0  0  0  2  0  0  0  0  0  0
  189.0810  175.7130  143.5110 C   0  0  2  0  0  3  0  0  0  0  0  0
  190.4880  172.3390  141.0290 N   0  0  0  0  0  0  0  0  0  0  0  0
  191.3970  173.9780  143.1980 C   0  0  2  0  0  3  0  0  0  0  0  0
  191.1430  177.2120  143.6570 C   0  0  0  0  0  2  0  0  0  0  0  0
  190.4970  171.3350  140.0020 C   0  0  0  0  0  0  0  0  0  0  0  0
  186.6410  178.3570  144.6720 C   0  0  0  0  0  0  0  0  0  0  0  0
  186.2080  178.8630  143.4870 N   0  0  0  0  0  0  0  0  0  0  0  0
  188.0620  176.8100  143.4840 C   0  0  0  0  0  0  0  0  0  0  0  0
  186.6670  178.3860  142.2980 C   0  0  0  0  0  3  0  0  0  0  0  0
  187.5790  177.3210  144.6900 C   0  0  0  0  0  3  0  0  0  0  0  0
  187.6050  177.3520  142.2740 C   0  0  0  0  0  3  0  0  0  0  0  0
  186.1640  178.8580  145.8360 F   0  0  0  0  0  0  0  0  0  0  0  0
  194.5520  176.7240  145.3560 C   0  0  0  0  0  0  0  0  0  0  0  0
  194.4800  177.5010  146.5060 O   0  0  0  0  0  1  0  0  0  0  0  0
  195.6670  176.2970  144.9590 O   0  0  0  0  0  0  0  0  0  0  0  0
  191.0130  171.6370  138.6310 C   0  0  0  0  0  2  0  0  0  0  0  0
  189.8630  171.7810  137.6410 C   0  0  0  0  0  3  0  0  0  0  0  0
  189.5520  173.2500  137.3320 C   0  0  0  0  0  2  0  0  0  0  0  0
  188.3350  173.7600  138.0930 C   0  0  0  0  0  1  0  0  0  0  0  0
  190.1640  170.9870  136.3770 C   0  0  0  0  0  2  0  0  0  0  0  0
  189.4760  171.6160  135.1810 C   0  0  0  0  0  1  0  0  0  0  0  0
  1  7  1  0  0  0  0
  1 26  1  1  0  0  0
  2 12  1  0  0  0  0
  4  7  1  6  0  0  0
  5  9  1  6  0  0  0
  5 13  1  0  0  0  0
  5 16  1  0  0  0  0
  7  2  1  0  0  0  0
  7 12  1  0  0  0  0
  8  6  1  0  0  0  0
  9 15  1  0  0  0  0
 10 17  1  6  0  0  0
 10  4  1  0  0  0  0
 11  1  1  0  0  0  0
 13 14  1  0  0  0  0
 14 21  1  6  0  0  0
 14 10  1  0  0  0  0
 15  8  1  0  0  0  0
 16  6  1  1  0  0  0
 16  4  1  0  0  0  0
 17 11  1  0  0  0  0
 18  3  2  0  0  0  0
 18 15  1  0  0  0  0
 19 23  1  0  0  0  0
 19 25  1  0  0  0  0
 20 19  2  0  0  0  0
 21 23  2  0  0  0  0
 22 20  1  0  0  0  0
 24 22  2  0  0  0  0
 24 21  1  0  0  0  0
 26 27  1  0  0  0  0
 28 26  2  0  0  0  0
 29 18  1  0  0  0  0
 30 29  1  0  0  0  0
 31 30  1  0  0  0  0
 31 32  1  0  0  0  0
 33 30  1  0  0  0  0
 34 33  1  0  0  0  0
M  END
>  <MODEL>
3

>  <REMARK>
 VINA RESULT:      -7.2      1.930      2.584
  Name = 
  6 active torsions:
  status: ('A' for Active; 'I' for Inactive)
    1  A    between atoms: C_1  and  C_6
    2  A    between atoms: C_11  and  C_20
    3  A    between atoms: C_12  and  C_28
    4  A    between atoms: C_13  and  C_20
    5  A    between atoms: C_13  and  C_33
    6  A    between atoms: C_14  and  C_20
                            x       y       z     vdW  Elec       q    Type
                         _______ _______ _______ _____ _____    ______ ____

>  <TORSDO>
F 6

$$$$
=
 OpenBabel11052419033D

 34 38  0  0  1  0  0  0  0  0999 V2000
  190.6790  176.4530  145.6500 C   0  0  1  0  0  3  0  0  0  0  0  0
  190.4490  173.9660  146.4590 C   0  0  0  0  0  2  0  0  0  0  0  0
  190.4180  170.6020  139.8800 O   0  0  0  0  0  0  0  0  0  0  0  0
  189.0180  174.7930  144.4700 C   0  0  1  0  0  3  0  0  0  0  0  0
  189.8330  174.8900  142.0130 C   0  0  1  0  0  3  0  0  0  0  0  0
  189.5220  172.6360  143.2610 C   0  0  0  0  0  2  0  0  0  0  0  0
  189.8760  175.1370  145.6860 C   0  0  0  0  0  0  0  0  0  0  0  0
  189.1980  172.1830  141.8380 C   0  0  0  0  0  2  0  0  0  0  0  0
  190.5750  174.1130  140.9230 C   0  0  0  0  0  2  0  0  0  0  0  0
  188.2150  176.0260  144.0070 C   0  0  2  0  0  3  0  0  0  0  0  0
  189.7750  177.6030  145.2110 C   0  0  0  0  0  2  0  0  0  0  0  0
  189.2490  174.7370  147.0050 C   0  0  0  0  0  2  0  0  0  0  0  0
  188.4180  175.2600  141.5460 C   0  0  0  0  0  2  0  0  0  0  0  0
  187.4920  175.6920  142.6940 C   0  0  2  0  0  3  0  0  0  0  0  0
  190.2000  172.6940  140.9050 N   0  0  0  0  0  0  0  0  0  0  0  0
  189.8580  174.1320  143.3600 C   0  0  2  0  0  3  0  0  0  0  0  0
  189.1020  177.2770  143.8810 C   0  0  0  0  0  2  0  0  0  0  0  0
  190.7740  171.8100  139.9280 C   0  0  0  0  0  0  0  0  0  0  0  0
  184.6180  178.1440  142.8280 C   0  0  0  0  0  0  0  0  0  0  0  0
  184.6500  178.6650  141.5730 N   0  0  0  0  0  0  0  0  0  0  0  0
  186.4920  176.7270  142.2790 C   0  0  0  0  0  0  0  0  0  0  0  0
  185.5690  178.2580  140.6550 C   0  0  0  0  0  3  0  0  0  0  0  0
  185.5420  177.1660  143.2040 C   0  0  0  0  0  3  0  0  0  0  0  0
  186.5090  177.2820  140.9920 C   0  0  0  0  0  3  0  0  0  0  0  0
  183.6910  178.5750  143.7160 F   0  0  0  0  0  0  0  0  0  0  0  0
  191.3990  176.7960  146.9210 C   0  0  0  0  0  0  0  0  0  0  0  0
  190.7350  177.4300  147.9640 O   0  0  0  0  0  1  0  0  0  0  0  0
  192.6110  176.4840  147.0500 O   0  0  0  0  0  0  0  0  0  0  0  0
  191.8230  172.2890  138.9750 C   0  0  0  0  0  2  0  0  0  0  0  0
  191.2640  172.3850  137.5600 C   0  0  0  0  0  3  0  0  0  0  0  0
  190.7450  173.7920  137.2420 C   0  0  0  0  0  2  0  0  0  0  0  0
  189.2270  173.8830  137.3110 C   0  0  0  0  0  1  0  0  0  0  0  0
  192.3120  171.9260  136.5560 C   0  0  0  0  0  2  0  0  0  0  0  0
  191.8480  170.6680  135.8460 C   0  0  0  0  0  1  0  0  0  0  0  0
  1  7  1  0  0  0  0
  1 26  1  1  0  0  0
  2 12  1  0  0  0  0
  3 18  2  0  0  0  0
  4  7  1  1  0  0  0
  5  9  1  6  0  0  0
  5 16  1  0  0  0  0
  7  2  1  0  0  0  0
  7 12  1  0  0  0  0
  8  6  1  0  0  0  0
 10 17  1  6  0  0  0
 10  4  1  0  0  0  0
 11  1  1  0  0  0  0
 13  5  1  0  0  0  0
 13 14  1  0  0  0  0
 14 21  1  6  0  0  0
 14 10  1  0  0  0  0
 15  9  1  0  0  0  0
 15  8  1  0  0  0  0
 16  6  1  6  0  0  0
 16  4  1  0  0  0  0
 17 11  1  0  0  0  0
 18 15  1  0  0  0  0
 19 23  1  0  0  0  0
 19 25  1  0  0  0  0
 20 19  2  0  0  0  0
 21 23  2  0  0  0  0
 22 24  2  0  0  0  0
 22 20  1  0  0  0  0
 24 21  1  0  0  0  0
 26 28  2  0  0  0  0
 26 27  1  0  0  0  0
 29 18  1  0  0  0  0
 30 29  1  0  0  0  0
 31 32  1  0  0  0  0
 31 30  1  0  0  0  0
 33 30  1  0  0  0  0
 34 33  1  0  0  0  0
M  END
>  <MODEL>
4

>  <REMARK>
 VINA RESULT:      -7.1      1.717      2.255
  Name = 
  6 active torsions:
  status: ('A' for Active; 'I' for Inactive)
    1  A    between atoms: C_1  and  C_6
    2  A    between atoms: C_11  and  C_20
    3  A    between atoms: C_12  and  C_28
    4  A    between atoms: C_13  and  C_20
    5  A    between atoms: C_13  and  C_33
    6  A    between atoms: C_14  and  C_20
                            x       y       z     vdW  Elec       q    Type
                         _______ _______ _______ _____ _____    ______ ____

>  <TORSDO>
F 6

$$$$
=
 OpenBabel11052419033D

 34 38  0  0  1  0  0  0  0  0999 V2000
  191.1310  173.3380  139.8990 C   0  0  1  0  0  3  0  0  0  0  0  0
  189.7180  171.5590  141.2140 C   0  0  0  0  0  2  0  0  0  0  0  0
  188.1410  175.5460  147.2330 O   0  0  0  0  0  0  0  0  0  0  0  0
  191.4930  172.9550  142.4730 C   0  0  1  0  0  3  0  0  0  0  0  0
  191.0910  175.3330  143.4210 C   0  0  1  0  0  3  0  0  0  0  0  0
  189.8540  173.2580  144.3680 C   0  0  0  0  0  2  0  0  0  0  0  0
  190.9450  172.4450  141.1420 C   0  0  0  0  0  0  0  0  0  0  0  0
  189.9310  174.1060  145.6360 C   0  0  0  0  0  2  0  0  0  0  0  0
  190.1100  176.2010  144.2100 C   0  0  0  0  0  2  0  0  0  0  0  0
  192.9170  173.5210  142.2920 C   0  0  2  0  0  3  0  0  0  0  0  0
  192.5800  173.8090  139.8080 C   0  0  0  0  0  2  0  0  0  0  0  0
  191.0940  170.9490  140.9570 C   0  0  0  0  0  2  0  0  0  0  0  0
  192.4620  175.3020  144.1110 C   0  0  0  0  0  2  0  0  0  0  0  0
  193.3710  174.1690  143.6080 C   0  0  2  0  0  3  0  0  0  0  0  0
  189.5290  175.4820  145.3500 N   0  0  0  0  0  0  0  0  0  0  0  0
  190.5070  173.9280  143.1490 C   0  0  2  0  0  3  0  0  0  0  0  0
  193.0030  174.4950  141.1030 C   0  0  0  0  0  2  0  0  0  0  0  0
  188.6050  176.1460  146.2260 C   0  0  0  0  0  0  0  0  0  0  0  0
  196.5400  176.2300  143.5860 C   0  0  0  0  0  0  0  0  0  0  0  0
  197.4910  175.2650  143.6950 N   0  0  0  0  0  0  0  0  0  0  0  0
  194.8240  174.5350  143.6260 C   0  0  0  0  0  0  0  0  0  0  0  0
  197.1610  173.9470  143.7740 C   0  0  0  0  0  3  0  0  0  0  0  0
  195.1880  175.8810  143.5520 C   0  0  0  0  0  3  0  0  0  0  0  0
  195.8210  173.5570  143.7430 C   0  0  0  0  0  3  0  0  0  0  0  0
  196.9040  177.5330  143.5130 F   0  0  0  0  0  0  0  0  0  0  0  0
  190.6860  172.7280  138.6020 C   0  0  0  0  0  0  0  0  0  0  0  0
  189.3700  172.8540  138.1730 O   0  0  0  0  0  1  0  0  0  0  0  0
  191.5200  172.1160  137.8860 O   0  0  0  0  0  0  0  0  0  0  0  0
  188.1470  177.5440  145.9490 C   0  0  0  0  0  2  0  0  0  0  0  0
  186.7120  177.5510  145.4360 C   0  0  0  0  0  3  0  0  0  0  0  0
  185.8530  178.6040  146.1450 C   0  0  0  0  0  2  0  0  0  0  0  0
  184.4620  178.0880  146.4860 C   0  0  0  0  0  1  0  0  0  0  0  0
  186.7020  177.7350  143.9250 C   0  0  0  0  0  2  0  0  0  0  0  0
  186.3850  176.4220  143.2340 C   0  0  0  0  0  1  0  0  0  0  0  0
  1 26  1  6  0  0  0
  1  7  1  0  0  0  0
  4  7  1  6  0  0  0
  4 16  1  0  0  0  0
  5 13  1  1  0  0  0
  5  9  1  0  0  0  0
  6  8  1  0  0  0  0
  7  2  1  0  0  0  0
  9 15  1  0  0  0  0
 10 17  1  6  0  0  0
 10  4  1  0  0  0  0
 10 14  1  0  0  0  0
 11  1  1  0  0  0  0
 11 17  1  0  0  0  0
 12  7  1  0  0  0  0
 12  2  1  0  0  0  0
 14 21  1  6  0  0  0
 14 13  1  0  0  0  0
 15  8  1  0  0  0  0
 15 18  1  0  0  0  0
 16  5  1  0  0  0  0
 16  6  1  1  0  0  0
 18  3  2  0  0  0  0
 19 20  1  0  0  0  0
 20 22  2  0  0  0  0
 21 24  2  0  0  0  0
 23 19  2  0  0  0  0
 23 21  1  0  0  0  0
 24 22  1  0  0  0  0
 25 19  1  0  0  0  0
 27 26  1  0  0  0  0
 28 26  2  0  0  0  0
 29 18  1  0  0  0  0
 30 29  1  0  0  0  0
 30 31  1  0  0  0  0
 31 32  1  0  0  0  0
 33 30  1  0  0  0  0
 34 33  1  0  0  0  0
M  END
>  <MODEL>
5

>  <REMARK>
 VINA RESULT:      -6.9      3.994      8.523
  Name = 
  6 active torsions:
  status: ('A' for Active; 'I' for Inactive)
    1  A    between atoms: C_1  and  C_6
    2  A    between atoms: C_11  and  C_20
    3  A    between atoms: C_12  and  C_28
    4  A    between atoms: C_13  and  C_20
    5  A    between atoms: C_13  and  C_33
    6  A    between atoms: C_14  and  C_20
                            x       y       z     vdW  Elec       q    Type
                         _______ _______ _______ _____ _____    ______ ____

>  <TORSDO>
F 6

$$$$
=
 OpenBabel11052419033D

 34 38  0  0  1  0  0  0  0  0999 V2000
  186.5200  178.5730  145.4130 C   0  0  1  0  0  3  0  0  0  0  0  0
  186.6190  176.6260  147.1700 C   0  0  0  0  0  2  0  0  0  0  0  0
  193.4610  174.1850  145.8160 O   0  0  0  0  0  0  0  0  0  0  0  0
  187.5150  176.2250  144.7780 C   0  0  1  0  0  3  0  0  0  0  0  0
  189.8950  176.8620  143.9740 C   0  0  1  0  0  3  0  0  0  0  0  0
  189.5040  175.0250  145.7650 C   0  0  0  0  0  2  0  0  0  0  0  0
  186.6610  177.0690  145.7220 C   0  0  0  0  0  0  0  0  0  0  0  0
  190.7700  174.4740  145.1110 C   0  0  0  0  0  2  0  0  0  0  0  0
  191.3780  176.8190  144.3430 C   0  0  0  0  0  2  0  0  0  0  0  0
  187.1840  176.5540  143.3070 C   0  0  2  0  0  3  0  0  0  0  0  0
  186.1600  178.7710  143.9420 C   0  0  0  0  0  2  0  0  0  0  0  0
  185.4380  176.3450  146.2450 C   0  0  0  0  0  2  0  0  0  0  0  0
  189.6480  176.1440  142.6390 C   0  0  0  0  0  2  0  0  0  0  0  0
  188.1680  175.8110  142.3920 C   0  0  2  0  0  3  0  0  0  0  0  0
  191.7600  175.5380  144.9510 N   0  0  0  0  0  0  0  0  0  0  0  0
  189.0120  176.3340  145.1280 C   0  0  2  0  0  3  0  0  0  0  0  0
  187.1740  178.0700  143.0440 C   0  0  0  0  0  2  0  0  0  0  0  0
  193.1220  175.3020  145.3370 C   0  0  0  0  0  0  0  0  0  0  0  0
  187.8310  174.8520  138.7510 C   0  0  0  0  0  0  0  0  0  0  0  0
  187.0920  175.8860  138.2670 N   0  0  0  0  0  0  0  0  0  0  0  0
  187.7930  175.8600  140.9420 C   0  0  0  0  0  0  0  0  0  0  0  0
  186.6860  176.9070  139.0680 C   0  0  0  0  0  3  0  0  0  0  0  0
  188.1930  174.8210  140.1000 C   0  0  0  0  0  3  0  0  0  0  0  0
  187.0270  176.9130  140.4220 C   0  0  0  0  0  3  0  0  0  0  0  0
  188.2160  173.8500  137.9240 F   0  0  0  0  0  0  0  0  0  0  0  0
  185.5690  179.3210  146.3000 C   0  0  0  0  0  0  0  0  0  0  0  0
  186.0030  179.8730  147.5000 O   0  0  0  0  0  1  0  0  0  0  0  0
  184.3720  179.4690  145.9420 O   0  0  0  0  0  0  0  0  0  0  0  0
  194.1570  176.3750  145.2150 C   0  0  0  0  0  2  0  0  0  0  0  0
  195.1490  176.0450  144.1050 C   0  0  0  0  0  3  0  0  0  0  0  0
  196.3920  175.3250  144.6410 C   0  0  0  0  0  2  0  0  0  0  0  0
  196.5280  173.9120  144.0920 C   0  0  0  0  0  1  0  0  0  0  0  0
  194.4560  175.2440  143.0120 C   0  0  0  0  0  2  0  0  0  0  0  0
  194.1960  176.1180  141.8000 C   0  0  0  0  0  1  0  0  0  0  0  0
  1  7  1  0  0  0  0
  1 26  1  1  0  0  0
  4 16  1  0  0  0  0
  4  7  1  1  0  0  0
  5 13  1  6  0  0  0
  5  9  1  0  0  0  0
  5 16  1  0  0  0  0
  7 12  1  0  0  0  0
  7  2  1  0  0  0  0
  8  6  1  0  0  0  0
  9 15  1  0  0  0  0
 10 17  1  1  0  0  0
 10  4  1  0  0  0  0
 11  1  1  0  0  0  0
 12  2  1  0  0  0  0
 14 21  1  6  0  0  0
 14 13  1  0  0  0  0
 14 10  1  0  0  0  0
 15  8  1  0  0  0  0
 15 18  1  0  0  0  0
 16  6  1  6  0  0  0
 17 11  1  0  0  0  0
 18  3  2  0  0  0  0
 19 23  1  0  0  0  0
 20 19  2  0  0  0  0
 20 22  1  0  0  0  0
 22 24  2  0  0  0  0
 23 21  2  0  0  0  0
 24 21  1  0  0  0  0
 25 19  1  0  0  0  0
 26 27  1  0  0  0  0
 28 26  2  0  0  0  0
 29 18  1  0  0  0  0
 30 31  1  0  0  0  0
 30 29  1  0  0  0  0
 32 31  1  0  0  0  0
 33 30  1  0  0  0  0
 34 33  1  0  0  0  0
M  END
>  <MODEL>
6

>  <REMARK>
 VINA RESULT:      -6.8      3.619      6.569
  Name = 
  6 active torsions:
  status: ('A' for Active; 'I' for Inactive)
    1  A    between atoms: C_1  and  C_6
    2  A    between atoms: C_11  and  C_20
    3  A    between atoms: C_12  and  C_28
    4  A    between atoms: C_13  and  C_20
    5  A    between atoms: C_13  and  C_33
    6  A    between atoms: C_14  and  C_20
                            x       y       z     vdW  Elec       q    Type
                         _______ _______ _______ _____ _____    ______ ____

>  <TORSDO>
F 6

$$$$
=
 OpenBabel11052419033D

 34 38  0  0  1  0  0  0  0  0999 V2000
  186.9040  178.0970  142.9450 C   0  0  1  0  0  3  0  0  0  0  0  0
  186.5080  177.2510  145.3980 C   0  0  0  0  0  2  0  0  0  0  0  0
  193.4130  175.2030  147.0520 O   0  0  0  0  0  0  0  0  0  0  0  0
  187.9760  175.8530  143.7930 C   0  0  1  0  0  3  0  0  0  0  0  0
  190.4960  176.2760  143.3610 C   0  0  1  0  0  3  0  0  0  0  0  0
  189.6190  175.4900  145.6740 C   0  0  0  0  0  2  0  0  0  0  0  0
  186.9280  176.9490  143.9740 C   0  0  0  0  0  0  0  0  0  0  0  0
  190.9980  174.8320  145.6910 C   0  0  0  0  0  2  0  0  0  0  0  0
  191.8350  176.5730  144.0390 C   0  0  0  0  0  2  0  0  0  0  0  0
  188.0390  175.4000  142.3190 C   0  0  2  0  0  3  0  0  0  0  0  0
  186.9370  177.5280  141.5280 C   0  0  0  0  0  2  0  0  0  0  0  0
  185.5960  176.4380  144.4820 C   0  0  0  0  0  2  0  0  0  0  0  0
  190.5820  174.9850  142.5340 C   0  0  0  0  0  2  0  0  0  0  0  0
  189.2080  174.4190  142.1440 C   0  0  2  0  0  3  0  0  0  0  0  0
  192.0190  175.7880  145.2660 N   0  0  0  0  0  0  0  0  0  0  0  0
  189.3360  176.2740  144.3830 C   0  0  2  0  0  3  0  0  0  0  0  0
  188.1310  176.5940  141.3540 C   0  0  0  0  0  2  0  0  0  0  0  0
  193.2320  175.9110  146.0250 C   0  0  0  0  0  0  0  0  0  0  0  0
  190.4090  173.0710  138.8230 C   0  0  0  0  0  0  0  0  0  0  0  0
  189.2960  172.4340  138.3720 N   0  0  0  0  0  0  0  0  0  0  0  0
  189.2170  173.7290  140.8150 C   0  0  0  0  0  0  0  0  0  0  0  0
  188.1440  172.4160  139.0950 C   0  0  0  0  0  3  0  0  0  0  0  0
  190.3890  173.7280  140.0560 C   0  0  0  0  0  3  0  0  0  0  0  0
  188.0830  173.0610  140.3310 C   0  0  0  0  0  3  0  0  0  0  0  0
  191.5400  173.0660  138.0780 F   0  0  0  0  0  0  0  0  0  0  0  0
  185.7750  179.0720  143.1020 C   0  0  0  0  0  0  0  0  0  0  0  0
  185.8960  180.1660  143.9510 O   0  0  0  0  0  1  0  0  0  0  0  0
  184.7180  178.9090  142.4400 O   0  0  0  0  0  0  0  0  0  0  0  0
  194.2880  176.8990  145.6380 C   0  0  0  0  0  2  0  0  0  0  0  0
  195.4760  176.1940  144.9930 C   0  0  0  0  0  3  0  0  0  0  0  0
  195.3830  174.6700  145.1290 C   0  0  0  0  0  2  0  0  0  0  0  0
  196.5940  174.0720  145.8300 C   0  0  0  0  0  1  0  0  0  0  0  0
  195.6100  176.6270  143.5400 C   0  0  0  0  0  2  0  0  0  0  0  0
  197.0730  176.7190  143.1490 C   0  0  0  0  0  1  0  0  0  0  0  0
  1 26  1  6  0  0  0
  1  7  1  0  0  0  0
  4  7  1  6  0  0  0
  4 16  1  0  0  0  0
  5 13  1  1  0  0  0
  5  9  1  0  0  0  0
  5 16  1  0  0  0  0
  6  8  1  0  0  0  0
  7 12  1  0  0  0  0
  7  2  1  0  0  0  0
  9 15  1  0  0  0  0
 10 17  1  6  0  0  0
 10  4  1  0  0  0  0
 11  1  1  0  0  0  0
 12  2  1  0  0  0  0
 14 21  1  6  0  0  0
 14 10  1  0  0  0  0
 14 13  1  0  0  0  0
 15  8  1  0  0  0  0
 15 18  1  0  0  0  0
 16  6  1  1  0  0  0
 17 11  1  0  0  0  0
 18  3  2  0  0  0  0
 19 23  1  0  0  0  0
 20 19  2  0  0  0  0
 20 22  1  0  0  0  0
 22 24  2  0  0  0  0
 23 21  2  0  0  0  0
 24 21  1  0  0  0  0
 25 19  1  0  0  0  0
 26 27  1  0  0  0  0
 28 26  2  0  0  0  0
 29 18  1  0  0  0  0
 30 31  1  0  0  0  0
 30 29  1  0  0  0  0
 31 32  1  0  0  0  0
 33 30  1  0  0  0  0
 34 33  1  0  0  0  0
M  END
>  <MODEL>
7

>  <REMARK>
 VINA RESULT:      -6.8      3.782      7.520
  Name = 
  6 active torsions:
  status: ('A' for Active; 'I' for Inactive)
    1  A    between atoms: C_1  and  C_6
    2  A    between atoms: C_11  and  C_20
    3  A    between atoms: C_12  and  C_28
    4  A    between atoms: C_13  and  C_20
    5  A    between atoms: C_13  and  C_33
    6  A    between atoms: C_14  and  C_20
                            x       y       z     vdW  Elec       q    Type
                         _______ _______ _______ _____ _____    ______ ____

>  <TORSDO>
F 6

$$$$
=
 OpenBabel11052419033D

 34 38  0  0  1  0  0  0  0  0999 V2000
  192.5400  174.2130  144.6540 C   0  0  1  0  0  3  0  0  0  0  0  0
  193.0520  176.7760  144.4130 C   0  0  0  0  0  2  0  0  0  0  0  0
  186.3270  179.1270  142.4510 O   0  0  0  0  0  0  0  0  0  0  0  0
  191.6240  175.5910  142.6120 C   0  0  1  0  0  3  0  0  0  0  0  0
  189.0740  175.1760  142.7970 C   0  0  1  0  0  3  0  0  0  0  0  0
  190.0580  177.5690  142.6060 C   0  0  0  0  0  2  0  0  0  0  0  0
  192.6110  175.4760  143.7720 C   0  0  0  0  0  0  0  0  0  0  0  0
  188.7210  177.7900  141.9010 C   0  0  0  0  0  2  0  0  0  0  0  0
  187.7390  175.8210  143.1730 C   0  0  0  0  0  2  0  0  0  0  0  0
  191.5480  174.2620  141.8310 C   0  0  2  0  0  3  0  0  0  0  0  0
  192.5010  172.9650  143.7750 C   0  0  0  0  0  2  0  0  0  0  0  0
  193.9840  176.0330  143.4590 C   0  0  0  0  0  2  0  0  0  0  0  0
  189.0400  174.6660  141.3490 C   0  0  0  0  0  2  0  0  0  0  0  0
  190.4340  174.3610  140.7790 C   0  0  2  0  0  3  0  0  0  0  0  0
  187.6340  177.2010  142.6810 N   0  0  0  0  0  0  0  0  0  0  0  0
  190.2590  176.1240  143.0880 C   0  0  2  0  0  3  0  0  0  0  0  0
  191.3600  173.0550  142.7670 C   0  0  0  0  0  2  0  0  0  0  0  0
  186.4370  177.9590  142.9130 C   0  0  0  0  0  0  0  0  0  0  0  0
  191.6250  171.7980  138.2680 C   0  0  0  0  0  0  0  0  0  0  0  0
  190.4790  171.1080  138.0230 N   0  0  0  0  0  0  0  0  0  0  0  0
  190.4290  173.2240  139.8030 C   0  0  0  0  0  0  0  0  0  0  0  0
  189.3080  171.4320  138.6340 C   0  0  0  0  0  3  0  0  0  0  0  0
  191.6190  172.8680  139.1660 C   0  0  0  0  0  3  0  0  0  0  0  0
  189.2610  172.4960  139.5380 C   0  0  0  0  0  3  0  0  0  0  0  0
  192.7730  171.4450  137.6430 F   0  0  0  0  0  0  0  0  0  0  0  0
  193.6140  174.1000  145.6950 C   0  0  0  0  0  0  0  0  0  0  0  0
  194.7350  173.3090  145.4730 O   0  0  0  0  0  0  0  0  0  0  0  0
  193.5090  174.7470  146.7690 O   0  0  0  0  0  1  0  0  0  0  0  0
  185.3160  177.4010  143.7310 C   0  0  0  0  0  2  0  0  0  0  0  0
  185.4610  177.8040  145.1940 C   0  0  0  0  0  3  0  0  0  0  0  0
  184.2650  178.6270  145.6850 C   0  0  0  0  0  2  0  0  0  0  0  0
  184.2350  178.7650  147.2010 C   0  0  0  0  0  1  0  0  0  0  0  0
  185.6900  176.5680  146.0520 C   0  0  0  0  0  2  0  0  0  0  0  0
  187.0830  176.5900  146.6520 C   0  0  0  0  0  1  0  0  0  0  0  0
  1 26  1  1  0  0  0
  3 18  2  0  0  0  0
  4 16  1  0  0  0  0
  4  7  1  1  0  0  0
  5 13  1  6  0  0  0
  5 16  1  0  0  0  0
  5  9  1  0  0  0  0
  7  2  1  0  0  0  0
  7  1  1  0  0  0  0
  8  6  1  0  0  0  0
  8 15  1  0  0  0  0
 10  4  1  0  0  0  0
 10 17  1  1  0  0  0
 11  1  1  0  0  0  0
 12  7  1  0  0  0  0
 12  2  1  0  0  0  0
 14 21  1  1  0  0  0
 14 13  1  0  0  0  0
 14 10  1  0  0  0  0
 15 18  1  0  0  0  0
 15  9  1  0  0  0  0
 16  6  1  6  0  0  0
 17 11  1  0  0  0  0
 18 29  1  0  0  0  0
 19 23  1  0  0  0  0
 20 19  2  0  0  0  0
 20 22  1  0  0  0  0
 22 24  2  0  0  0  0
 23 21  2  0  0  0  0
 24 21  1  0  0  0  0
 25 19  1  0  0  0  0
 26 28  1  0  0  0  0
 27 26  2  0  0  0  0
 29 30  1  0  0  0  0
 30 31  1  0  0  0  0
 30 33  1  0  0  0  0
 31 32  1  0  0  0  0
 33 34  1  0  0  0  0
M  END
>  <MODEL>
8

>  <REMARK>
 VINA RESULT:      -6.7      3.604      7.531
  Name = 
  6 active torsions:
  status: ('A' for Active; 'I' for Inactive)
    1  A    between atoms: C_1  and  C_6
    2  A    between atoms: C_11  and  C_20
    3  A    between atoms: C_12  and  C_28
    4  A    between atoms: C_13  and  C_20
    5  A    between atoms: C_13  and  C_33
    6  A    between atoms: C_14  and  C_20
                            x       y       z     vdW  Elec       q    Type
                         _______ _______ _______ _____ _____    ______ ____

>  <TORSDO>
F 6

$$$$
=
 OpenBabel11052419033D

 34 38  0  0  1  0  0  0  0  0999 V2000
  195.9910  172.0180  144.4340 C   0  0  1  0  0  3  0  0  0  0  0  0
  196.5100  173.8870  146.2010 C   0  0  0  0  0  2  0  0  0  0  0  0
  190.2850  177.8230  145.5950 O   0  0  0  0  0  0  0  0  0  0  0  0
  195.4860  174.5450  143.9200 C   0  0  1  0  0  3  0  0  0  0  0  0
  192.9540  174.4750  143.3710 C   0  0  1  0  0  3  0  0  0  0  0  0
  193.9280  176.1280  145.1190 C   0  0  0  0  0  2  0  0  0  0  0  0
  196.2220  173.5060  144.7630 C   0  0  0  0  0  0  0  0  0  0  0  0
  192.7570  176.9640  144.6070 C   0  0  0  0  0  2  0  0  0  0  0  0
  191.5640  174.8360  143.8960 C   0  0  0  0  0  2  0  0  0  0  0  0
  195.5820  174.1930  142.4210 C   0  0  2  0  0  3  0  0  0  0  0  0
  196.1440  171.7860  142.9320 C   0  0  0  0  0  2  0  0  0  0  0  0
  197.6230  173.9250  145.1560 C   0  0  0  0  0  2  0  0  0  0  0  0
  193.2170  175.1580  142.0210 C   0  0  0  0  0  2  0  0  0  0  0  0
  194.7000  175.1620  141.6190 C   0  0  2  0  0  3  0  0  0  0  0  0
  191.5430  176.1520  144.5480 N   0  0  0  0  0  0  0  0  0  0  0  0
  194.0460  174.7610  144.4270 C   0  0  2  0  0  3  0  0  0  0  0  0
  195.2250  172.7210  142.1500 C   0  0  0  0  0  2  0  0  0  0  0  0
  190.3150  176.6730  145.0780 C   0  0  0  0  0  0  0  0  0  0  0  0
  196.3790  175.1850  138.2320 C   0  0  0  0  0  0  0  0  0  0  0  0
  195.3380  174.8780  137.4130 N   0  0  0  0  0  0  0  0  0  0  0  0
  194.9040  175.0720  140.1380 C   0  0  0  0  0  0  0  0  0  0  0  0
  194.0870  174.6620  137.9020 C   0  0  0  0  0  3  0  0  0  0  0  0
  196.1790  175.2850  139.6110 C   0  0  0  0  0  3  0  0  0  0  0  0
  193.8470  174.7520  139.2740 C   0  0  0  0  0  3  0  0  0  0  0  0
  197.6120  175.3920  137.7110 F   0  0  0  0  0  0  0  0  0  0  0  0
  196.8370  171.0530  145.2110 C   0  0  0  0  0  0  0  0  0  0  0  0
  196.4010  170.5520  146.4320 O   0  0  0  0  0  1  0  0  0  0  0  0
  197.9400  170.6760  144.7400 O   0  0  0  0  0  0  0  0  0  0  0  0
  189.0590  175.8600  145.0620 C   0  0  0  0  0  2  0  0  0  0  0  0
  187.8630  176.7040  145.4860 C   0  0  0  0  0  3  0  0  0  0  0  0
  186.7490  176.6930  144.4330 C   0  0  0  0  0  2  0  0  0  0  0  0
  186.6230  178.0230  143.7040 C   0  0  0  0  0  1  0  0  0  0  0  0
  187.3620  176.2450  146.8480 C   0  0  0  0  0  2  0  0  0  0  0  0
  186.1960  177.1040  147.3000 C   0  0  0  0  0  1  0  0  0  0  0  0
  1  7  1  0  0  0  0
  1 26  1  1  0  0  0
  4 16  1  0  0  0  0
  4  7  1  1  0  0  0
  5 13  1  6  0  0  0
  5  9  1  0  0  0  0
  5 16  1  0  0  0  0
  7 12  1  0  0  0  0
  7  2  1  0  0  0  0
  8  6  1  0  0  0  0
  9 15  1  0  0  0  0
 10 17  1  1  0  0  0
 10  4  1  0  0  0  0
 11  1  1  0  0  0  0
 12  2  1  0  0  0  0
 14 21  1  6  0  0  0
 14 13  1  0  0  0  0
 14 10  1  0  0  0  0
 15  8  1  0  0  0  0
 15 18  1  0  0  0  0
 16  6  1  6  0  0  0
 17 11  1  0  0  0  0
 18  3  2  0  0  0  0
 19 23  1  0  0  0  0
 20 22  1  0  0  0  0
 20 19  2  0  0  0  0
 22 24  2  0  0  0  0
 23 21  2  0  0  0  0
 24 21  1  0  0  0  0
 25 19  1  0  0  0  0
 26 27  1  0  0  0  0
 28 26  2  0  0  0  0
 29 18  1  0  0  0  0
 29 30  1  0  0  0  0
 30 33  1  0  0  0  0
 31 30  1  0  0  0  0
 32 31  1  0  0  0  0
 33 34  1  0  0  0  0
M  END
>  <MODEL>
9

>  <REMARK>
 VINA RESULT:      -6.6      5.206      9.004
  Name = 
  6 active torsions:
  status: ('A' for Active; 'I' for Inactive)
    1  A    between atoms: C_1  and  C_6
    2  A    between atoms: C_11  and  C_20
    3  A    between atoms: C_12  and  C_28
    4  A    between atoms: C_13  and  C_20
    5  A    between atoms: C_13  and  C_33
    6  A    between atoms: C_14  and  C_20
                            x       y       z     vdW  Elec       q    Type
                         _______ _______ _______ _____ _____    ______ ____

>  <TORSDO>
F 6

$$$$
