=
 OpenBabel11052417323D

 25 27  0  0  1  0  0  0  0  0999 V2000
  187.1390  177.3400  146.0420 C   0  0  0  0  0  0  0  0  0  0  0  0
  186.8810  176.9630  144.7710 C   0  0  0  0  0  0  0  0  0  0  0  0
  185.0080  178.7410  146.0470 C   0  0  0  0  0  3  0  0  0  0  0  0
  184.7390  178.3480  144.8050 C   0  0  0  0  0  3  0  0  0  0  0  0
  185.6970  177.5170  142.6340 C   0  0  0  0  0  0  0  0  0  0  0  0
  184.9520  178.2870  142.0470 O   0  0  0  0  0  0  0  0  0  0  0  0
  187.9020  176.1600  143.9970 C   0  0  0  0  0  2  0  0  0  0  0  0
  186.1600  178.1890  146.7640 C   0  0  0  0  0  0  0  0  0  0  0  0
  186.3310  178.4840  147.9770 O   0  0  0  0  0  0  0  0  0  0  0  0
  186.7420  176.7770  141.8470 C   0  0  0  0  0  2  0  0  0  0  0  0
  187.3520  175.6420  142.6670 C   0  0  1  0  0  3  0  0  0  0  0  0
  185.5380  177.2680  144.1170 C   0  0  1  0  0  3  0  0  0  0  0  0
  188.4320  176.9440  146.7060 C   0  0  1  0  0  3  0  0  0  0  0  0
  190.8770  175.7550  147.4120 C   0  0  0  0  0  2  0  0  0  0  0  0
  188.4760  175.4720  147.0240 C   0  0  0  0  0  3  0  0  0  0  0  0
  189.6380  174.9090  147.3680 C   0  0  0  0  0  3  0  0  0  0  0  0
  190.9440  176.6170  146.1490 C   0  0  0  0  0  2  0  0  0  0  0  0
  189.6590  177.4360  145.9120 C   0  0  0  0  0  2  0  0  0  0  0  0
  188.4540  174.9750  141.8660 C   0  0  0  0  0  2  0  0  0  0  0  0
  188.0430  173.2320  141.5560 S   0  0  0  0  0  0  0  0  0  0  0  0
  189.5560  172.6630  142.3840 C   0  0  0  0  0  2  0  0  0  0  0  0
  189.2090  171.8560  143.5410 N   0  0  0  0  0  2  0  0  0  0  0  0
  189.8550  172.4610  144.6920 C   0  0  0  0  0  2  0  0  0  0  0  0
  190.9080  173.4420  144.2210 C   0  0  0  0  0  2  0  0  0  0  0  0
  192.0960  173.2160  144.9120 O   0  0  0  0  0  1  0  0  0  0  0  0
  1  8  1  0  0  0  0
  2  1  2  0  0  0  0
  3  8  1  0  0  0  0
  4  3  2  0  0  0  0
  5 12  1  0  0  0  0
  6  5  2  0  0  0  0
  7  2  1  0  0  0  0
  8  9  2  0  0  0  0
 10  5  1  0  0  0  0
 10 11  1  0  0  0  0
 11 19  1  6  0  0  0
 11  7  1  0  0  0  0
 12  2  1  0  0  0  0
 12  4  1  1  0  0  0
 13  1  1  6  0  0  0
 13 15  1  0  0  0  0
 15 16  2  0  0  0  0
 16 14  1  0  0  0  0
 17 14  1  0  0  0  0
 18 17  1  0  0  0  0
 18 13  1  0  0  0  0
 20 19  1  0  0  0  0
 20 21  1  0  0  0  0
 21 22  1  0  0  0  0
 22 23  1  0  0  0  0
 24 23  1  0  0  0  0
 24 25  1  0  0  0  0
M  END
>  <MODEL>
1

>  <REMARK>
 VINA RESULT:      -6.9      0.000      0.000
  Name = 
  7 active torsions:
  status: ('A' for Active; 'I' for Inactive)
    1  A    between atoms: C_1  and  C_5
    2  A    between atoms: C_2  and  C_12
    3  A    between atoms: C_6  and  S_15
    4  A    between atoms: C_6  and  C_23
    5  A    between atoms: C_12  and  N_25
    6  A    between atoms: S_15  and  C_21
    7  A    between atoms: C_21  and  N_25
                            x       y       z     vdW  Elec       q    Type
                         _______ _______ _______ _____ _____    ______ ____

>  <TORSDO>
F 7

$$$$
=
 OpenBabel11052417323D

 25 27  0  0  1  0  0  0  0  0999 V2000
  187.0120  177.3660  146.2410 C   0  0  0  0  0  0  0  0  0  0  0  0
  186.5940  177.0880  144.9870 C   0  0  0  0  0  0  0  0  0  0  0  0
  184.8840  178.7120  146.6420 C   0  0  0  0  0  3  0  0  0  0  0  0
  184.4580  178.4160  145.4170 C   0  0  0  0  0  3  0  0  0  0  0  0
  185.1310  177.7880  143.0780 C   0  0  0  0  0  0  0  0  0  0  0  0
  184.3060  178.5860  142.6590 O   0  0  0  0  0  0  0  0  0  0  0  0
  187.5130  176.3750  144.0230 C   0  0  0  0  0  2  0  0  0  0  0  0
  186.1270  178.1310  147.1540 C   0  0  0  0  0  0  0  0  0  0  0  0
  186.4530  178.3290  148.3540 O   0  0  0  0  0  0  0  0  0  0  0  0
  186.0720  177.1380  142.1020 C   0  0  0  0  0  2  0  0  0  0  0  0
  186.7990  175.9550  142.7370 C   0  0  1  0  0  3  0  0  0  0  0  0
  185.1730  177.4150  144.5420 C   0  0  1  0  0  3  0  0  0  0  0  0
  188.3860  176.9480  146.6950 C   0  0  1  0  0  3  0  0  0  0  0  0
  190.9120  175.7520  146.9810 C   0  0  0  0  0  2  0  0  0  0  0  0
  188.4830  175.4590  146.9040 C   0  0  0  0  0  3  0  0  0  0  0  0
  189.6840  174.8920  147.0480 C   0  0  0  0  0  3  0  0  0  0  0  0
  190.8010  176.6970  145.7820 C   0  0  0  0  0  2  0  0  0  0  0  0
  189.4900  177.5100  145.7770 C   0  0  0  0  0  2  0  0  0  0  0  0
  187.7940  175.3810  141.7450 C   0  0  0  0  0  2  0  0  0  0  0  0
  189.4820  175.4940  142.4090 S   0  0  0  0  0  0  0  0  0  0  0  0
  189.8850  173.8190  141.8380 C   0  0  0  0  0  2  0  0  0  0  0  0
  188.8530  172.8910  142.2690 N   0  0  0  0  0  2  0  0  0  0  0  0
  189.5180  171.8160  142.9830 C   0  0  0  0  0  2  0  0  0  0  0  0
  189.7990  172.2530  144.4050 C   0  0  0  0  0  2  0  0  0  0  0  0
  191.1720  172.2250  144.6380 O   0  0  0  0  0  1  0  0  0  0  0  0
  1  8  1  0  0  0  0
  2  1  2  0  0  0  0
  3  8  1  0  0  0  0
  4  3  2  0  0  0  0
  5 12  1  0  0  0  0
  6  5  2  0  0  0  0
  7  2  1  0  0  0  0
  8  9  2  0  0  0  0
 10 11  1  0  0  0  0
 10  5  1  0  0  0  0
 11 19  1  6  0  0  0
 11  7  1  0  0  0  0
 12  2  1  0  0  0  0
 12  4  1  1  0  0  0
 13  1  1  6  0  0  0
 13 15  1  0  0  0  0
 14 16  1  0  0  0  0
 15 16  2  0  0  0  0
 17 14  1  0  0  0  0
 18 17  1  0  0  0  0
 18 13  1  0  0  0  0
 19 20  1  0  0  0  0
 21 22  1  0  0  0  0
 21 20  1  0  0  0  0
 22 23  1  0  0  0  0
 23 24  1  0  0  0  0
 24 25  1  0  0  0  0
M  END
>  <MODEL>
2

>  <REMARK>
 VINA RESULT:      -6.9      0.940      1.021
  Name = 
  7 active torsions:
  status: ('A' for Active; 'I' for Inactive)
    1  A    between atoms: C_1  and  C_5
    2  A    between atoms: C_2  and  C_12
    3  A    between atoms: C_6  and  S_15
    4  A    between atoms: C_6  and  C_23
    5  A    between atoms: C_12  and  N_25
    6  A    between atoms: S_15  and  C_21
    7  A    between atoms: C_21  and  N_25
                            x       y       z     vdW  Elec       q    Type
                         _______ _______ _______ _____ _____    ______ ____

>  <TORSDO>
F 7

$$$$
=
 OpenBabel11052417323D

 25 27  0  0  1  0  0  0  0  0999 V2000
  187.1130  177.4700  146.2520 C   0  0  0  0  0  0  0  0  0  0  0  0
  186.6260  177.1780  145.0270 C   0  0  0  0  0  0  0  0  0  0  0  0
  185.0380  178.8730  146.7300 C   0  0  0  0  0  3  0  0  0  0  0  0
  184.5440  178.5630  145.5340 C   0  0  0  0  0  3  0  0  0  0  0  0
  185.0850  177.8740  143.1780 C   0  0  0  0  0  0  0  0  0  0  0  0
  184.2590  178.6830  142.7850 O   0  0  0  0  0  0  0  0  0  0  0  0
  187.4790  176.4240  144.0330 C   0  0  0  0  0  2  0  0  0  0  0  0
  186.2910  178.2730  147.1920 C   0  0  0  0  0  0  0  0  0  0  0  0
  186.6820  178.4870  148.3700 O   0  0  0  0  0  0  0  0  0  0  0  0
  185.9610  177.1830  142.1700 C   0  0  0  0  0  2  0  0  0  0  0  0
  186.6920  175.9960  142.7930 C   0  0  1  0  0  3  0  0  0  0  0  0
  185.1920  177.5290  144.6460 C   0  0  1  0  0  3  0  0  0  0  0  0
  188.4980  177.0290  146.6460 C   0  0  1  0  0  3  0  0  0  0  0  0
  191.0060  175.7770  146.8330 C   0  0  0  0  0  2  0  0  0  0  0  0
  188.5690  175.5440  146.8890 C   0  0  0  0  0  3  0  0  0  0  0  0
  189.7630  174.9510  146.9860 C   0  0  0  0  0  3  0  0  0  0  0  0
  190.8550  176.6940  145.6170 C   0  0  0  0  0  2  0  0  0  0  0  0
  189.5660  177.5400  145.6580 C   0  0  0  0  0  2  0  0  0  0  0  0
  187.6230  175.3800  141.7650 C   0  0  0  0  0  2  0  0  0  0  0  0
  189.1420  174.7850  142.5670 S   0  0  0  0  0  0  0  0  0  0  0  0
  189.4520  173.5920  141.2340 C   0  0  0  0  0  2  0  0  0  0  0  0
  188.1890  173.0800  140.7290 N   0  0  0  0  0  2  0  0  0  0  0  0
  188.4190  172.6540  139.3600 C   0  0  0  0  0  2  0  0  0  0  0  0
  188.9090  173.8290  138.5410 C   0  0  0  0  0  2  0  0  0  0  0  0
  187.8160  174.5410  138.0510 O   0  0  0  0  0  1  0  0  0  0  0  0
  1  8  1  0  0  0  0
  2  1  2  0  0  0  0
  3  8  1  0  0  0  0
  4  3  2  0  0  0  0
  5 12  1  0  0  0  0
  6  5  2  0  0  0  0
  7  2  1  0  0  0  0
  8  9  2  0  0  0  0
 10 11  1  0  0  0  0
 10  5  1  0  0  0  0
 11 19  1  6  0  0  0
 11  7  1  0  0  0  0
 12  2  1  0  0  0  0
 12  4  1  1  0  0  0
 13  1  1  6  0  0  0
 13 15  1  0  0  0  0
 14 16  1  0  0  0  0
 15 16  2  0  0  0  0
 17 18  1  0  0  0  0
 17 14  1  0  0  0  0
 18 13  1  0  0  0  0
 19 20  1  0  0  0  0
 21 20  1  0  0  0  0
 22 21  1  0  0  0  0
 23 22  1  0  0  0  0
 24 23  1  0  0  0  0
 25 24  1  0  0  0  0
M  END
>  <MODEL>
3

>  <REMARK>
 VINA RESULT:      -6.8      2.139      2.523
  Name = 
  7 active torsions:
  status: ('A' for Active; 'I' for Inactive)
    1  A    between atoms: C_1  and  C_5
    2  A    between atoms: C_2  and  C_12
    3  A    between atoms: C_6  and  S_15
    4  A    between atoms: C_6  and  C_23
    5  A    between atoms: C_12  and  N_25
    6  A    between atoms: S_15  and  C_21
    7  A    between atoms: C_21  and  N_25
                            x       y       z     vdW  Elec       q    Type
                         _______ _______ _______ _____ _____    ______ ____

>  <TORSDO>
F 7

$$$$
=
 OpenBabel11052417323D

 25 27  0  0  1  0  0  0  0  0999 V2000
  187.1960  177.3310  145.9460 C   0  0  0  0  0  0  0  0  0  0  0  0
  186.9720  176.9160  144.6810 C   0  0  0  0  0  0  0  0  0  0  0  0
  185.1040  178.7850  145.8280 C   0  0  0  0  0  3  0  0  0  0  0  0
  184.8680  178.3560  144.5920 C   0  0  0  0  0  3  0  0  0  0  0  0
  185.8770  177.4250  142.4850 C   0  0  0  0  0  0  0  0  0  0  0  0
  185.1740  178.1930  141.8460 O   0  0  0  0  0  0  0  0  0  0  0  0
  187.9970  176.0600  143.9720 C   0  0  0  0  0  2  0  0  0  0  0  0
  186.2160  178.2300  146.6040 C   0  0  0  0  0  0  0  0  0  0  0  0
  186.3530  178.5620  147.8110 O   0  0  0  0  0  0  0  0  0  0  0  0
  186.9290  176.6310  141.7620 C   0  0  0  0  0  2  0  0  0  0  0  0
  187.4790  175.5110  142.6410 C   0  0  1  0  0  3  0  0  0  0  0  0
  185.6610  177.2320  143.9700 C   0  0  1  0  0  3  0  0  0  0  0  0
  188.4540  176.9260  146.6690 C   0  0  1  0  0  3  0  0  0  0  0  0
  190.8690  175.7370  147.4720 C   0  0  0  0  0  2  0  0  0  0  0  0
  188.4970  175.4450  146.9400 C   0  0  0  0  0  3  0  0  0  0  0  0
  189.6440  174.8820  147.3310 C   0  0  0  0  0  3  0  0  0  0  0  0
  190.9970  176.6420  146.2440 C   0  0  0  0  0  2  0  0  0  0  0  0
  189.7180  177.4560  145.9620 C   0  0  0  0  0  2  0  0  0  0  0  0
  188.5910  174.7880  141.9030 C   0  0  0  0  0  2  0  0  0  0  0  0
  188.0840  173.0880  141.5090 S   0  0  0  0  0  0  0  0  0  0  0  0
  189.1150  172.4060  142.8380 C   0  0  0  0  0  2  0  0  0  0  0  0
  190.4790  172.2380  142.3650 N   0  0  0  0  0  2  0  0  0  0  0  0
  190.4450  171.2340  141.3160 C   0  0  0  0  0  2  0  0  0  0  0  0
  190.8040  169.8840  141.8980 C   0  0  0  0  0  2  0  0  0  0  0  0
  190.6770  168.9050  140.9140 O   0  0  0  0  0  1  0  0  0  0  0  0
  1  8  1  0  0  0  0
  2  1  2  0  0  0  0
  3  8  1  0  0  0  0
  4  3  2  0  0  0  0
  5 12  1  0  0  0  0
  6  5  2  0  0  0  0
  7  2  1  0  0  0  0
  8  9  2  0  0  0  0
 10  5  1  0  0  0  0
 10 11  1  0  0  0  0
 11 19  1  6  0  0  0
 11  7  1  0  0  0  0
 12  4  1  1  0  0  0
 12  2  1  0  0  0  0
 13  1  1  6  0  0  0
 13 15  1  0  0  0  0
 15 16  2  0  0  0  0
 16 14  1  0  0  0  0
 17 14  1  0  0  0  0
 18 17  1  0  0  0  0
 18 13  1  0  0  0  0
 20 19  1  0  0  0  0
 20 21  1  0  0  0  0
 22 21  1  0  0  0  0
 23 24  1  0  0  0  0
 23 22  1  0  0  0  0
 25 24  1  0  0  0  0
M  END
>  <MODEL>
4

>  <REMARK>
 VINA RESULT:      -6.4      1.474      1.699
  Name = 
  7 active torsions:
  status: ('A' for Active; 'I' for Inactive)
    1  A    between atoms: C_1  and  C_5
    2  A    between atoms: C_2  and  C_12
    3  A    between atoms: C_6  and  S_15
    4  A    between atoms: C_6  and  C_23
    5  A    between atoms: C_12  and  N_25
    6  A    between atoms: S_15  and  C_21
    7  A    between atoms: C_21  and  N_25
                            x       y       z     vdW  Elec       q    Type
                         _______ _______ _______ _____ _____    ______ ____

>  <TORSDO>
F 7

$$$$
=
 OpenBabel11052417323D

 25 27  0  0  1  0  0  0  0  0999 V2000
  187.4470  176.6040  143.8360 C   0  0  0  0  0  0  0  0  0  0  0  0
  188.6450  176.0010  143.9970 C   0  0  0  0  0  0  0  0  0  0  0  0
  187.3780  175.7990  141.4170 C   0  0  0  0  0  3  0  0  0  0  0  0
  188.5450  175.1820  141.5830 C   0  0  0  0  0  3  0  0  0  0  0  0
  190.7050  175.1290  142.8680 C   0  0  0  0  0  0  0  0  0  0  0  0
  191.2920  174.9400  141.8140 O   0  0  0  0  0  0  0  0  0  0  0  0
  189.4280  176.2020  145.2740 C   0  0  0  0  0  2  0  0  0  0  0  0
  186.7220  176.4570  142.5500 C   0  0  0  0  0  0  0  0  0  0  0  0
  185.5660  176.9330  142.4010 O   0  0  0  0  0  0  0  0  0  0  0  0
  191.5100  175.3860  144.1120 C   0  0  0  0  0  2  0  0  0  0  0  0
  190.6440  175.2780  145.3650 C   0  0  1  0  0  3  0  0  0  0  0  0
  189.1960  175.0530  142.9380 C   0  0  1  0  0  3  0  0  0  0  0  0
  186.8720  177.4600  144.9340 C   0  0  1  0  0  3  0  0  0  0  0  0
  185.2310  179.0390  146.5780 C   0  0  0  0  0  2  0  0  0  0  0  0
  186.3320  178.7650  144.4090 C   0  0  0  0  0  3  0  0  0  0  0  0
  185.5590  179.5200  145.1950 C   0  0  0  0  0  3  0  0  0  0  0  0
  184.8200  177.5660  146.5160 C   0  0  0  0  0  2  0  0  0  0  0  0
  185.8590  176.6820  145.7980 C   0  0  0  0  0  2  0  0  0  0  0  0
  191.4760  175.6220  146.5860 C   0  0  0  0  0  2  0  0  0  0  0  0
  193.2020  175.1080  146.3380 S   0  0  0  0  0  0  0  0  0  0  0  0
  193.8160  176.7780  146.6930 C   0  0  0  0  0  2  0  0  0  0  0  0
  194.5770  177.2740  145.5580 N   0  0  0  0  0  2  0  0  0  0  0  0
  194.9080  176.1250  144.7340 C   0  0  0  0  0  2  0  0  0  0  0  0
  196.1120  176.4500  143.8760 C   0  0  0  0  0  2  0  0  0  0  0  0
  196.9940  175.3720  143.8850 O   0  0  0  0  0  1  0  0  0  0  0  0
  1  2  2  0  0  0  0
  2  7  1  0  0  0  0
  3  4  2  0  0  0  0
  3  8  1  0  0  0  0
  5 12  1  0  0  0  0
  5 10  1  0  0  0  0
  6  5  2  0  0  0  0
  7 11  1  0  0  0  0
  8  1  1  0  0  0  0
  9  8  2  0  0  0  0
 10 11  1  0  0  0  0
 11 19  1  1  0  0  0
 12  4  1  6  0  0  0
 12  2  1  0  0  0  0
 13  1  1  6  0  0  0
 13 18  1  0  0  0  0
 15 13  1  0  0  0  0
 15 16  2  0  0  0  0
 16 14  1  0  0  0  0
 17 14  1  0  0  0  0
 18 17  1  0  0  0  0
 20 19  1  0  0  0  0
 20 21  1  0  0  0  0
 22 21  1  0  0  0  0
 23 22  1  0  0  0  0
 24 25  1  0  0  0  0
 24 23  1  0  0  0  0
M  END
>  <MODEL>
5

>  <REMARK>
 VINA RESULT:      -6.3      3.145      5.525
  Name = 
  7 active torsions:
  status: ('A' for Active; 'I' for Inactive)
    1  A    between atoms: C_1  and  C_5
    2  A    between atoms: C_2  and  C_12
    3  A    between atoms: C_6  and  S_15
    4  A    between atoms: C_6  and  C_23
    5  A    between atoms: C_12  and  N_25
    6  A    between atoms: S_15  and  C_21
    7  A    between atoms: C_21  and  N_25
                            x       y       z     vdW  Elec       q    Type
                         _______ _______ _______ _____ _____    ______ ____

>  <TORSDO>
F 7

$$$$
=
 OpenBabel11052417323D

 25 27  0  0  1  0  0  0  0  0999 V2000
  186.7660  177.9400  143.9720 C   0  0  0  0  0  0  0  0  0  0  0  0
  185.9750  178.1120  142.8910 C   0  0  0  0  0  0  0  0  0  0  0  0
  188.8050  177.8060  142.4470 C   0  0  0  0  0  3  0  0  0  0  0  0
  188.0310  178.0030  141.3830 C   0  0  0  0  0  3  0  0  0  0  0  0
  185.7200  177.7670  140.4220 C   0  0  0  0  0  0  0  0  0  0  0  0
  186.2250  177.3570  139.3890 O   0  0  0  0  0  0  0  0  0  0  0  0
  184.4720  178.1220  143.0450 C   0  0  0  0  0  2  0  0  0  0  0  0
  188.2370  177.8600  143.7950 C   0  0  0  0  0  0  0  0  0  0  0  0
  189.0040  177.7870  144.7920 O   0  0  0  0  0  0  0  0  0  0  0  0
  184.2250  177.7090  140.5710 C   0  0  0  0  0  2  0  0  0  0  0  0
  183.7550  178.5430  141.7610 C   0  0  1  0  0  3  0  0  0  0  0  0
  186.5730  178.3740  141.5130 C   0  0  1  0  0  3  0  0  0  0  0  0
  186.1580  177.7810  145.3410 C   0  0  1  0  0  3  0  0  0  0  0  0
  185.6730  177.6380  148.1040 C   0  0  0  0  0  2  0  0  0  0  0  0
  186.8980  176.7650  146.1720 C   0  0  0  0  0  3  0  0  0  0  0  0
  186.6600  176.6920  147.4850 C   0  0  0  0  0  3  0  0  0  0  0  0
  185.9410  179.0540  147.5900 C   0  0  0  0  0  2  0  0  0  0  0  0
  185.9770  179.1380  146.0500 C   0  0  0  0  0  2  0  0  0  0  0  0
  182.2530  178.3920  141.9230 C   0  0  0  0  0  2  0  0  0  0  0  0
  181.4890  177.9510  140.3340 S   0  0  0  0  0  0  0  0  0  0  0  0
  179.8310  177.9140  141.0710 C   0  0  0  0  0  2  0  0  0  0  0  0
  179.4700  179.2420  141.5380 N   0  0  0  0  0  2  0  0  0  0  0  0
  178.2600  179.1030  142.3270 C   0  0  0  0  0  2  0  0  0  0  0  0
  178.3480  177.8480  143.1690 C   0  0  0  0  0  2  0  0  0  0  0  0
  178.1810  178.1780  144.5130 O   0  0  0  0  0  1  0  0  0  0  0  0
  2  7  1  0  0  0  0
  2  1  2  0  0  0  0
  3  8  1  0  0  0  0
  4  3  2  0  0  0  0
  5 10  1  0  0  0  0
  5 12  1  0  0  0  0
  6  5  2  0  0  0  0
  8  1  1  0  0  0  0
  8  9  2  0  0  0  0
 10 11  1  0  0  0  0
 11 19  1  1  0  0  0
 11  7  1  0  0  0  0
 12  4  1  1  0  0  0
 12  2  1  0  0  0  0
 13  1  1  6  0  0  0
 13 18  1  0  0  0  0
 13 15  1  0  0  0  0
 15 16  2  0  0  0  0
 16 14  1  0  0  0  0
 17 14  1  0  0  0  0
 18 17  1  0  0  0  0
 20 21  1  0  0  0  0
 20 19  1  0  0  0  0
 21 22  1  0  0  0  0
 22 23  1  0  0  0  0
 23 24  1  0  0  0  0
 24 25  1  0  0  0  0
M  END
>  <MODEL>
6

>  <REMARK>
 VINA RESULT:      -6.2      4.412      7.053
  Name = 
  7 active torsions:
  status: ('A' for Active; 'I' for Inactive)
    1  A    between atoms: C_1  and  C_5
    2  A    between atoms: C_2  and  C_12
    3  A    between atoms: C_6  and  S_15
    4  A    between atoms: C_6  and  C_23
    5  A    between atoms: C_12  and  N_25
    6  A    between atoms: S_15  and  C_21
    7  A    between atoms: C_21  and  N_25
                            x       y       z     vdW  Elec       q    Type
                         _______ _______ _______ _____ _____    ______ ____

>  <TORSDO>
F 7

$$$$
=
 OpenBabel11052417323D

 25 27  0  0  1  0  0  0  0  0999 V2000
  188.5740  175.7090  145.4060 C   0  0  0  0  0  0  0  0  0  0  0  0
  188.6780  175.4100  144.0930 C   0  0  0  0  0  0  0  0  0  0  0  0
  189.9320  173.6270  145.9770 C   0  0  0  0  0  3  0  0  0  0  0  0
  190.0580  173.3460  144.6830 C   0  0  0  0  0  3  0  0  0  0  0  0
  189.0570  173.6100  142.3920 C   0  0  0  0  0  0  0  0  0  0  0  0
  189.2940  172.4290  142.1860 O   0  0  0  0  0  0  0  0  0  0  0  0
  187.9130  176.2170  143.0690 C   0  0  0  0  0  2  0  0  0  0  0  0
  189.2730  174.8630  146.4050 C   0  0  0  0  0  0  0  0  0  0  0  0
  189.2670  175.1680  147.6270 O   0  0  0  0  0  0  0  0  0  0  0  0
  188.2440  174.3720  141.3840 C   0  0  0  0  0  2  0  0  0  0  0  0
  188.3200  175.8770  141.6350 C   0  0  1  0  0  3  0  0  0  0  0  0
  189.6180  174.3110  143.6090 C   0  0  1  0  0  3  0  0  0  0  0  0
  187.7170  176.8620  145.8580 C   0  0  1  0  0  3  0  0  0  0  0  0
  186.0450  178.6190  147.2740 C   0  0  0  0  0  2  0  0  0  0  0  0
  186.3300  176.4170  146.2430 C   0  0  0  0  0  3  0  0  0  0  0  0
  185.5320  177.2570  146.9090 C   0  0  0  0  0  3  0  0  0  0  0  0
  187.4520  178.4880  147.8600 C   0  0  0  0  0  2  0  0  0  0  0  0
  188.4140  177.7040  146.9450 C   0  0  0  0  0  2  0  0  0  0  0  0
  187.4230  176.6000  140.6470 C   0  0  0  0  0  2  0  0  0  0  0  0
  186.8420  178.1690  141.3560 S   0  0  0  0  0  0  0  0  0  0  0  0
  185.2040  177.9770  140.5980 C   0  0  0  0  0  2  0  0  0  0  0  0
  184.1710  178.2220  141.5900 N   0  0  0  0  0  2  0  0  0  0  0  0
  184.8040  178.1380  142.8940 C   0  0  0  0  0  2  0  0  0  0  0  0
  184.0590  179.0180  143.8750 C   0  0  0  0  0  2  0  0  0  0  0  0
  184.8790  180.0750  144.2660 O   0  0  0  0  0  1  0  0  0  0  0  0
  1  8  1  0  0  0  0
  2  1  2  0  0  0  0
  3  8  1  0  0  0  0
  4  3  2  0  0  0  0
  5 12  1  0  0  0  0
  6  5  2  0  0  0  0
  7  2  1  0  0  0  0
  8  9  2  0  0  0  0
 10 11  1  0  0  0  0
 10  5  1  0  0  0  0
 11 19  1  6  0  0  0
 11  7  1  0  0  0  0
 12  2  1  0  0  0  0
 12  4  1  1  0  0  0
 13  1  1  1  0  0  0
 13 15  1  0  0  0  0
 13 18  1  0  0  0  0
 14 17  1  0  0  0  0
 15 16  2  0  0  0  0
 16 14  1  0  0  0  0
 18 17  1  0  0  0  0
 19 20  1  0  0  0  0
 21 20  1  0  0  0  0
 21 22  1  0  0  0  0
 22 23  1  0  0  0  0
 23 24  1  0  0  0  0
 24 25  1  0  0  0  0
M  END
>  <MODEL>
7

>  <REMARK>
 VINA RESULT:      -6.1      2.628      5.458
  Name = 
  7 active torsions:
  status: ('A' for Active; 'I' for Inactive)
    1  A    between atoms: C_1  and  C_5
    2  A    between atoms: C_2  and  C_12
    3  A    between atoms: C_6  and  S_15
    4  A    between atoms: C_6  and  C_23
    5  A    between atoms: C_12  and  N_25
    6  A    between atoms: S_15  and  C_21
    7  A    between atoms: C_21  and  N_25
                            x       y       z     vdW  Elec       q    Type
                         _______ _______ _______ _____ _____    ______ ____

>  <TORSDO>
F 7

$$$$
=
 OpenBabel11052417323D

 25 27  0  0  1  0  0  0  0  0999 V2000
  186.9240  177.5270  143.1880 C   0  0  0  0  0  0  0  0  0  0  0  0
  187.0570  177.4650  144.5310 C   0  0  0  0  0  0  0  0  0  0  0  0
  185.1350  179.3240  143.4580 C   0  0  0  0  0  3  0  0  0  0  0  0
  185.2850  179.2840  144.7790 C   0  0  0  0  0  3  0  0  0  0  0  0
  185.9760  177.8870  146.7520 C   0  0  0  0  0  0  0  0  0  0  0  0
  184.9960  178.3020  147.3500 O   0  0  0  0  0  0  0  0  0  0  0  0
  187.9320  176.4050  145.1570 C   0  0  0  0  0  2  0  0  0  0  0  0
  186.0040  178.5270  142.5910 C   0  0  0  0  0  0  0  0  0  0  0  0
  185.9250  178.6660  141.3410 O   0  0  0  0  0  0  0  0  0  0  0  0
  186.7940  176.7890  147.3730 C   0  0  0  0  0  2  0  0  0  0  0  0
  188.1340  176.6250  146.6570 C   0  0  1  0  0  3  0  0  0  0  0  0
  186.3960  178.5000  145.4340 C   0  0  1  0  0  3  0  0  0  0  0  0
  187.6630  176.5560  142.3050 C   0  0  1  0  0  3  0  0  0  0  0  0
  189.2850  174.5100  141.2690 C   0  0  0  0  0  2  0  0  0  0  0  0
  189.1500  176.5950  142.5450 C   0  0  0  0  0  3  0  0  0  0  0  0
  189.9220  175.6260  142.0440 C   0  0  0  0  0  3  0  0  0  0  0  0
  188.0540  174.0080  142.0270 C   0  0  0  0  0  2  0  0  0  0  0  0
  187.0670  175.1370  142.3860 C   0  0  0  0  0  2  0  0  0  0  0  0
  188.8900  175.4570  147.2640 C   0  0  0  0  0  2  0  0  0  0  0  0
  190.0660  174.7740  146.0590 S   0  0  0  0  0  0  0  0  0  0  0  0
  191.3470  175.9690  146.5370 C   0  0  0  0  0  2  0  0  0  0  0  0
  192.6570  175.3460  146.4520 N   0  0  0  0  0  2  0  0  0  0  0  0
  193.6410  176.4090  146.5480 C   0  0  0  0  0  2  0  0  0  0  0  0
  194.7660  176.1450  145.5700 C   0  0  0  0  0  2  0  0  0  0  0  0
  194.2640  176.1520  144.2710 O   0  0  0  0  0  1  0  0  0  0  0  0
  1  2  2  0  0  0  0
  2  7  1  0  0  0  0
  2 12  1  0  0  0  0
  3  4  2  0  0  0  0
  5  6  2  0  0  0  0
  5 10  1  0  0  0  0
  7 11  1  0  0  0  0
  8  1  1  0  0  0  0
  8  3  1  0  0  0  0
  9  8  2  0  0  0  0
 11 19  1  1  0  0  0
 11 10  1  0  0  0  0
 12  4  1  6  0  0  0
 12  5  1  0  0  0  0
 13 18  1  0  0  0  0
 13 15  1  0  0  0  0
 13  1  1  1  0  0  0
 14 17  1  0  0  0  0
 14 16  1  0  0  0  0
 16 15  2  0  0  0  0
 17 18  1  0  0  0  0
 20 21  1  0  0  0  0
 20 19  1  0  0  0  0
 22 21  1  0  0  0  0
 22 23  1  0  0  0  0
 24 23  1  0  0  0  0
 25 24  1  0  0  0  0
M  END
>  <MODEL>
8

>  <REMARK>
 VINA RESULT:      -6.1      2.227      4.638
  Name = 
  7 active torsions:
  status: ('A' for Active; 'I' for Inactive)
    1  A    between atoms: C_1  and  C_5
    2  A    between atoms: C_2  and  C_12
    3  A    between atoms: C_6  and  S_15
    4  A    between atoms: C_6  and  C_23
    5  A    between atoms: C_12  and  N_25
    6  A    between atoms: S_15  and  C_21
    7  A    between atoms: C_21  and  N_25
                            x       y       z     vdW  Elec       q    Type
                         _______ _______ _______ _____ _____    ______ ____

>  <TORSDO>
F 7

$$$$
=
 OpenBabel11052417323D

 25 27  0  0  1  0  0  0  0  0999 V2000
  189.4720  176.2630  146.0190 C   0  0  0  0  0  0  0  0  0  0  0  0
  190.1340  175.3340  145.2960 C   0  0  0  0  0  0  0  0  0  0  0  0
  191.6190  176.7860  147.2910 C   0  0  0  0  0  3  0  0  0  0  0  0
  192.2780  175.8910  146.5610 C   0  0  0  0  0  3  0  0  0  0  0  0
  192.1020  173.7870  145.1950 C   0  0  0  0  0  0  0  0  0  0  0  0
  193.1150  173.3820  145.7460 O   0  0  0  0  0  0  0  0  0  0  0  0
  189.3770  174.4340  144.3460 C   0  0  0  0  0  2  0  0  0  0  0  0
  190.2170  177.0900  147.0000 C   0  0  0  0  0  0  0  0  0  0  0  0
  189.6450  178.0220  147.6250 O   0  0  0  0  0  0  0  0  0  0  0  0
  191.3380  172.8500  144.3020 C   0  0  0  0  0  2  0  0  0  0  0  0
  190.3090  173.6030  143.4620 C   0  0  1  0  0  3  0  0  0  0  0  0
  191.6530  175.2220  145.3610 C   0  0  1  0  0  3  0  0  0  0  0  0
  187.9830  176.4260  145.8680 C   0  0  1  0  0  3  0  0  0  0  0  0
  185.3060  177.2630  146.0260 C   0  0  0  0  0  2  0  0  0  0  0  0
  187.2740  176.4000  147.1980 C   0  0  0  0  0  3  0  0  0  0  0  0
  185.9980  176.7900  147.2700 C   0  0  0  0  0  3  0  0  0  0  0  0
  186.2210  178.2350  145.2780 C   0  0  0  0  0  2  0  0  0  0  0  0
  187.6230  177.6530  145.0070 C   0  0  0  0  0  2  0  0  0  0  0  0
  189.5070  172.6120  142.6380 C   0  0  0  0  0  2  0  0  0  0  0  0
  189.7200  172.9490  140.8640 S   0  0  0  0  0  0  0  0  0  0  0  0
  188.2090  173.9520  140.8090 C   0  0  0  0  0  2  0  0  0  0  0  0
  188.5510  175.3620  140.9000 N   0  0  0  0  0  2  0  0  0  0  0  0
  187.4620  176.0210  141.5980 C   0  0  0  0  0  2  0  0  0  0  0  0
  186.9880  177.2080  140.7880 C   0  0  0  0  0  2  0  0  0  0  0  0
  186.8040  178.3020  141.6310 O   0  0  0  0  0  1  0  0  0  0  0  0
  1  8  1  0  0  0  0
  2 12  1  0  0  0  0
  2  1  2  0  0  0  0
  4  3  2  0  0  0  0
  5 12  1  0  0  0  0
  5  6  2  0  0  0  0
  7  2  1  0  0  0  0
  8  3  1  0  0  0  0
  8  9  2  0  0  0  0
 10  5  1  0  0  0  0
 11 19  1  1  0  0  0
 11 10  1  0  0  0  0
 11  7  1  0  0  0  0
 12  4  1  1  0  0  0
 13  1  1  1  0  0  0
 13 15  1  0  0  0  0
 14 16  1  0  0  0  0
 15 16  2  0  0  0  0
 17 14  1  0  0  0  0
 18 17  1  0  0  0  0
 18 13  1  0  0  0  0
 20 19  1  0  0  0  0
 21 20  1  0  0  0  0
 21 22  1  0  0  0  0
 22 23  1  0  0  0  0
 24 23  1  0  0  0  0
 24 25  1  0  0  0  0
M  END
>  <MODEL>
9

>  <REMARK>
 VINA RESULT:      -6.0      1.786      5.258
  Name = 
  7 active torsions:
  status: ('A' for Active; 'I' for Inactive)
    1  A    between atoms: C_1  and  C_5
    2  A    between atoms: C_2  and  C_12
    3  A    between atoms: C_6  and  S_15
    4  A    between atoms: C_6  and  C_23
    5  A    between atoms: C_12  and  N_25
    6  A    between atoms: S_15  and  C_21
    7  A    between atoms: C_21  and  N_25
                            x       y       z     vdW  Elec       q    Type
                         _______ _______ _______ _____ _____    ______ ____

>  <TORSDO>
F 7

$$$$
