=
 OpenBabel11052421033D

 43 47  0  0  1  0  0  0  0  0999 V2000
  188.1580  174.9450  141.1230 C   0  0  0  0  0  0  0  0  0  0  0  0
  189.8950  173.4710  142.8040 C   0  0  2  0  0  3  0  0  0  0  0  0
  187.2870  177.4560  141.9650 C   0  0  0  0  0  0  0  0  0  0  0  0
  187.8070  176.5490  142.8970 C   0  0  0  0  0  3  0  0  0  0  0  0
  188.8290  174.3400  143.4720 C   0  0  0  0  0  2  0  0  0  0  0  0
  188.2620  175.3000  142.4780 C   0  0  0  0  0  0  0  0  0  0  0  0
  187.6550  175.8460  140.2330 N   0  0  0  0  0  0  0  0  0  0  0  0
  188.6460  173.6610  140.6740 N   0  0  0  0  0  0  0  0  0  0  0  0
  189.3010  172.7360  141.6030 C   0  0  0  0  0  2  0  0  0  0  0  0
  187.2180  177.0740  140.6230 C   0  0  0  0  0  3  0  0  0  0  0  0
  190.5230  172.4870  143.7870 C   0  0  2  0  0  3  0  0  0  0  0  0
  189.5480  171.9230  144.6160 O   0  0  0  0  0  1  0  0  0  0  0  0
  191.5230  173.1710  144.5930 N   0  0  0  0  0  2  0  0  0  0  0  0
  192.8420  173.4530  144.1250 C   0  0  0  0  0  0  0  0  0  0  0  0
  193.1890  173.1430  142.9540 O   0  0  0  0  0  0  0  0  0  0  0  0
  193.8280  174.0970  145.0420 C   0  0  0  0  0  2  0  0  0  0  0  0
  193.9870  175.5840  144.7170 C   0  0  1  0  0  0  0  0  0  0  0  0
  196.3140  174.7430  143.3690 S   0  0  0  0  0  1  0  0  0  0  0  0
  195.1920  176.2230  145.3680 C   0  0  0  0  0  2  0  0  0  0  0  0
  195.1510  176.0620  143.8540 C   0  0  2  0  0  3  0  0  0  0  0  0
  192.7580  176.4900  144.6860 C   0  0  0  0  0  2  0  0  0  0  0  0
  192.0280  176.4860  145.9930 C   0  0  0  0  0  0  0  0  0  0  0  0
  192.6280  176.7300  147.0310 O   0  0  0  0  0  0  0  0  0  0  0  0
  190.5690  176.1570  146.0160 C   0  0  0  0  0  3  0  0  0  0  0  0
  188.2480  177.0930  146.1210 C   0  0  0  0  0  2  0  0  0  0  0  0
  188.7560  174.8870  147.1900 C   0  0  0  0  0  2  0  0  0  0  0  0
  187.9300  176.1670  147.2920 C   0  0  0  0  0  2  0  0  0  0  0  0
  190.2450  175.2200  147.1800 C   0  0  0  0  0  2  0  0  0  0  0  0
  189.7350  177.4340  146.1070 C   0  0  0  0  0  2  0  0  0  0  0  0
  188.5080  173.2520  139.3370 N   0  0  0  0  0  2  0  0  0  0  0  0
  189.6610  174.6570  136.0630 C   0  0  0  0  0  3  0  0  0  0  0  0
  191.0530  174.5160  136.1880 C   0  0  0  0  0  0  0  0  0  0  0  0
  190.7390  173.5500  138.3910 C   0  0  0  0  0  3  0  0  0  0  0  0
  188.8170  174.2500  137.0990 C   0  0  0  0  0  3  0  0  0  0  0  0
  189.3550  173.7050  138.2740 C   0  0  0  0  0  0  0  0  0  0  0  0
  191.5840  173.9570  137.3540 C   0  0  0  0  0  3  0  0  0  0  0  0
  191.9230  174.9160  135.1710 O   0  0  0  0  0  0  0  0  0  0  0  0
  193.3370  174.8840  135.3130 C   0  0  0  0  0  1  0  0  0  0  0  0
  186.8050  178.7160  142.3420 O   0  0  0  0  0  0  0  0  0  0  0  0
  185.6740  178.9340  143.1420 C   0  0  0  0  0  0  0  0  0  0  0  0
  184.5340  178.7380  142.6460 O   0  0  0  0  0  0  0  0  0  0  0  0
  185.7590  179.4520  144.5170 C   0  0  0  0  0  3  0  0  0  0  0  0
  184.8890  179.1190  145.4620 C   0  0  0  0  0  2  0  0  0  0  0  0
  1  6  1  0  0  0  0
  2  5  1  0  0  0  0
  2 11  1  1  0  0  0
  3 39  1  0  0  0  0
  3  4  1  0  0  0  0
  6  4  2  0  0  0  0
  6  5  1  0  0  0  0
  7 10  1  0  0  0  0
  7  1  2  0  0  0  0
  8  1  1  0  0  0  0
  8  9  1  0  0  0  0
  9  2  1  0  0  0  0
 10  3  2  0  0  0  0
 11 13  1  0  0  0  0
 11 12  1  1  0  0  0
 14 13  1  0  0  0  0
 14 16  1  0  0  0  0
 15 14  2  0  0  0  0
 17 21  1  6  0  0  0
 17 16  1  0  0  0  0
 17 19  1  0  0  0  0
 20 18  1  1  0  0  0
 20 17  1  0  0  0  0
 20 19  1  0  0  0  0
 21 22  1  0  0  0  0
 22 24  1  0  0  0  0
 22 23  2  0  0  0  0
 24 29  1  0  0  0  0
 24 28  1  0  0  0  0
 25 27  1  0  0  0  0
 26 27  1  0  0  0  0
 28 26  1  0  0  0  0
 29 25  1  0  0  0  0
 30  8  1  0  0  0  0
 31 32  2  0  0  0  0
 31 34  1  0  0  0  0
 32 36  1  0  0  0  0
 34 35  2  0  0  0  0
 35 33  1  0  0  0  0
 35 30  1  0  0  0  0
 36 33  2  0  0  0  0
 37 38  1  0  0  0  0
 37 32  1  0  0  0  0
 39 40  1  0  0  0  0
 40 42  1  0  0  0  0
 41 40  2  0  0  0  0
 42 43  2  0  0  0  0
M  END
>  <MODEL>
1

>  <REMARK>
 VINA RESULT:      -7.0      0.000      0.000
  Name = 
  13 active torsions:
  status: ('A' for Active; 'I' for Inactive)
    1  A    between atoms: N_1  and  N_34
    2  A    between atoms: N_1  and  C_35
    3  A    between atoms: C_2  and  N_6
    4  A    between atoms: C_2  and  C_13
    5  A    between atoms: C_3  and  C_4
    6  A    between atoms: C_3  and  C_12
    7  A    between atoms: C_4  and  C_22
    8  A    between atoms: C_5  and  C_18
    9  A    between atoms: C_5  and  O_23
   10  A    between atoms: C_11  and  C_14
   11  A    between atoms: C_14  and  C_22
   12  A    between atoms: C_16  and  O_23
   13  A    between atoms: C_19  and  O_25
                            x       y       z     vdW  Elec       q    Type
                         _______ _______ _______ _____ _____    ______ ____

>  <TORSDO>
F 13

$$$$
=
 OpenBabel11052421033D

 43 47  0  0  1  0  0  0  0  0999 V2000
  189.8140  176.8440  142.8130 C   0  0  0  0  0  0  0  0  0  0  0  0
  189.2260  174.3680  141.5710 C   0  0  2  0  0  3  0  0  0  0  0  0
  192.1390  177.0630  144.3340 C   0  0  0  0  0  0  0  0  0  0  0  0
  191.6160  175.7980  144.0380 C   0  0  0  0  0  3  0  0  0  0  0  0
  189.9160  174.3320  142.9350 C   0  0  0  0  0  2  0  0  0  0  0  0
  190.4650  175.6830  143.2610 C   0  0  0  0  0  0  0  0  0  0  0  0
  190.3450  178.0630  143.1070 N   0  0  0  0  0  0  0  0  0  0  0  0
  188.6320  176.7360  141.9890 N   0  0  0  0  0  0  0  0  0  0  0  0
  188.1250  175.4270  141.5640 C   0  0  0  0  0  2  0  0  0  0  0  0
  191.4740  178.1940  143.8540 C   0  0  0  0  0  3  0  0  0  0  0  0
  188.6680  173.0020  141.1800 C   0  0  2  0  0  3  0  0  0  0  0  0
  187.4710  172.7440  141.8540 O   0  0  0  0  0  1  0  0  0  0  0  0
  189.6440  171.9680  141.4910 N   0  0  0  0  0  2  0  0  0  0  0  0
  190.7150  171.6180  140.6140 C   0  0  0  0  0  0  0  0  0  0  0  0
  190.8800  172.2300  139.5250 O   0  0  0  0  0  0  0  0  0  0  0  0
  191.6310  170.4980  140.9780 C   0  0  0  0  0  2  0  0  0  0  0  0
  192.9760  171.0300  141.4770 C   0  0  1  0  0  0  0  0  0  0  0  0
  193.9410  170.0700  139.0090 S   0  0  0  0  0  1  0  0  0  0  0  0
  194.0000  169.9490  141.7350 C   0  0  0  0  0  2  0  0  0  0  0  0
  194.2160  170.9330  140.5920 C   0  0  2  0  0  3  0  0  0  0  0  0
  193.0120  172.1610  142.5010 C   0  0  0  0  0  2  0  0  0  0  0  0
  192.7690  171.6630  143.8920 C   0  0  0  0  0  0  0  0  0  0  0  0
  191.6650  171.2450  144.2100 O   0  0  0  0  0  0  0  0  0  0  0  0
  193.8820  171.7080  144.8910 C   0  0  0  0  0  3  0  0  0  0  0  0
  196.1900  172.5580  145.3660 C   0  0  0  0  0  2  0  0  0  0  0  0
  195.4530  170.3530  146.2960 C   0  0  0  0  0  2  0  0  0  0  0  0
  196.6320  171.1440  145.7340 C   0  0  0  0  0  2  0  0  0  0  0  0
  194.3220  170.2950  145.2730 C   0  0  0  0  0  2  0  0  0  0  0  0
  195.0620  172.5080  144.3400 C   0  0  0  0  0  2  0  0  0  0  0  0
  187.9250  177.8750  141.5690 N   0  0  0  0  0  2  0  0  0  0  0  0
  184.4580  178.0990  142.9680 C   0  0  0  0  0  3  0  0  0  0  0  0
  183.7010  178.2010  141.7890 C   0  0  0  0  0  0  0  0  0  0  0  0
  185.7460  178.0930  140.4880 C   0  0  0  0  0  3  0  0  0  0  0  0
  185.8510  177.9990  142.9030 C   0  0  0  0  0  3  0  0  0  0  0  0
  186.5010  178.0080  141.6610 C   0  0  0  0  0  0  0  0  0  0  0  0
  184.3540  178.1930  140.5520 C   0  0  0  0  0  3  0  0  0  0  0  0
  182.3080  178.3060  141.8200 O   0  0  0  0  0  0  0  0  0  0  0  0
  181.5100  178.2860  140.6440 C   0  0  0  0  0  1  0  0  0  0  0  0
  193.2850  177.2280  145.1230 O   0  0  0  0  0  0  0  0  0  0  0  0
  194.3370  176.3050  145.2090 C   0  0  0  0  0  0  0  0  0  0  0  0
  194.3550  175.4940  146.1720 O   0  0  0  0  0  0  0  0  0  0  0  0
  195.4630  176.2890  144.2610 C   0  0  0  0  0  3  0  0  0  0  0  0
  195.3130  175.9860  142.9780 C   0  0  0  0  0  2  0  0  0  0  0  0
  1  7  2  0  0  0  0
  1  6  1  0  0  0  0
  2 11  1  1  0  0  0
  2  5  1  0  0  0  0
  3 39  1  0  0  0  0
  4  3  1  0  0  0  0
  5  6  1  0  0  0  0
  6  4  2  0  0  0  0
  7 10  1  0  0  0  0
  8  1  1  0  0  0  0
  9  2  1  0  0  0  0
  9  8  1  0  0  0  0
 10  3  2  0  0  0  0
 11 13  1  0  0  0  0
 11 12  1  1  0  0  0
 14 16  1  0  0  0  0
 14 13  1  0  0  0  0
 15 14  2  0  0  0  0
 17 16  1  6  0  0  0
 17 19  1  0  0  0  0
 17 21  1  0  0  0  0
 20 18  1  6  0  0  0
 20 17  1  0  0  0  0
 20 19  1  0  0  0  0
 21 22  1  0  0  0  0
 22 23  2  0  0  0  0
 22 24  1  0  0  0  0
 24 28  1  0  0  0  0
 25 27  1  0  0  0  0
 27 26  1  0  0  0  0
 28 26  1  0  0  0  0
 29 24  1  0  0  0  0
 29 25  1  0  0  0  0
 30 35  1  0  0  0  0
 30  8  1  0  0  0  0
 32 37  1  0  0  0  0
 32 31  2  0  0  0  0
 33 36  2  0  0  0  0
 33 35  1  0  0  0  0
 34 31  1  0  0  0  0
 35 34  2  0  0  0  0
 36 32  1  0  0  0  0
 38 37  1  0  0  0  0
 39 40  1  0  0  0  0
 40 41  2  0  0  0  0
 42 40  1  0  0  0  0
 43 42  2  0  0  0  0
M  END
>  <MODEL>
2

>  <REMARK>
 VINA RESULT:      -6.8      3.153      7.061
  Name = 
  13 active torsions:
  status: ('A' for Active; 'I' for Inactive)
    1  A    between atoms: N_1  and  N_34
    2  A    between atoms: N_1  and  C_35
    3  A    between atoms: C_2  and  N_6
    4  A    between atoms: C_2  and  C_13
    5  A    between atoms: C_3  and  C_4
    6  A    between atoms: C_3  and  C_12
    7  A    between atoms: C_4  and  C_22
    8  A    between atoms: C_5  and  C_18
    9  A    between atoms: C_5  and  O_23
   10  A    between atoms: C_11  and  C_14
   11  A    between atoms: C_14  and  C_22
   12  A    between atoms: C_16  and  O_23
   13  A    between atoms: C_19  and  O_25
                            x       y       z     vdW  Elec       q    Type
                         _______ _______ _______ _____ _____    ______ ____

>  <TORSDO>
F 13

$$$$
=
 OpenBabel11052421033D

 43 47  0  0  1  0  0  0  0  0999 V2000
  188.1300  175.4440  141.4680 C   0  0  0  0  0  0  0  0  0  0  0  0
  189.7970  173.8010  143.0630 C   0  0  2  0  0  3  0  0  0  0  0  0
  186.9250  177.6690  142.6380 C   0  0  0  0  0  0  0  0  0  0  0  0
  187.4200  176.6380  143.4470 C   0  0  0  0  0  3  0  0  0  0  0  0
  188.5800  174.4410  143.7330 C   0  0  0  0  0  2  0  0  0  0  0  0
  188.0410  175.5330  142.8680 C   0  0  0  0  0  0  0  0  0  0  0  0
  187.6480  176.4620  140.7020 N   0  0  0  0  0  0  0  0  0  0  0  0
  188.7900  174.3120  140.8590 N   0  0  0  0  0  0  0  0  0  0  0  0
  189.4210  173.2740  141.6790 C   0  0  0  0  0  2  0  0  0  0  0  0
  187.0500  177.5530  141.2510 C   0  0  0  0  0  3  0  0  0  0  0  0
  190.4000  172.6930  143.9210 C   0  0  2  0  0  3  0  0  0  0  0  0
  189.5010  172.2870  144.9120 O   0  0  0  0  0  1  0  0  0  0  0  0
  191.6330  173.1650  144.5340 N   0  0  0  0  0  2  0  0  0  0  0  0
  192.9100  173.0470  143.9070 C   0  0  0  0  0  0  0  0  0  0  0  0
  193.0170  172.5490  142.7550 O   0  0  0  0  0  0  0  0  0  0  0  0
  194.1330  173.4940  144.6350 C   0  0  0  0  0  2  0  0  0  0  0  0
  194.6200  174.8460  144.1080 C   0  0  1  0  0  0  0  0  0  0  0  0
  196.5320  173.2940  142.7360 S   0  0  0  0  0  1  0  0  0  0  0  0
  196.0020  175.2240  144.5910 C   0  0  0  0  0  2  0  0  0  0  0  0
  195.7790  174.9110  143.1170 C   0  0  2  0  0  3  0  0  0  0  0  0
  193.6550  176.0260  144.0380 C   0  0  0  0  0  2  0  0  0  0  0  0
  193.6060  176.7870  145.3260 C   0  0  0  0  0  0  0  0  0  0  0  0
  194.5650  177.4580  145.6780 O   0  0  0  0  0  0  0  0  0  0  0  0
  192.3850  176.6940  146.1850 C   0  0  0  0  0  3  0  0  0  0  0  0
  191.2050  175.3670  147.9520 C   0  0  0  0  0  2  0  0  0  0  0  0
  189.8820  176.5910  146.2130 C   0  0  0  0  0  2  0  0  0  0  0  0
  189.9470  175.3400  147.0870 C   0  0  0  0  0  2  0  0  0  0  0  0
  191.1200  176.6790  145.3270 C   0  0  0  0  0  2  0  0  0  0  0  0
  192.4480  175.4510  147.0710 C   0  0  0  0  0  2  0  0  0  0  0  0
  188.8490  174.1640  139.4630 N   0  0  0  0  0  2  0  0  0  0  0  0
  191.7360  172.5820  137.6780 C   0  0  0  0  0  3  0  0  0  0  0  0
  191.2280  171.2940  137.4390 C   0  0  0  0  0  0  0  0  0  0  0  0
  189.1630  171.9220  138.5460 C   0  0  0  0  0  3  0  0  0  0  0  0
  190.9610  173.5300  138.3500 C   0  0  0  0  0  3  0  0  0  0  0  0
  189.6740  173.1990  138.7990 C   0  0  0  0  0  0  0  0  0  0  0  0
  189.9380  170.9740  137.8740 C   0  0  0  0  0  3  0  0  0  0  0  0
  191.9790  170.3230  136.7720 O   0  0  0  0  0  0  0  0  0  0  0  0
  192.6740  169.2870  137.4530 C   0  0  0  0  0  1  0  0  0  0  0  0
  186.2810  178.7920  143.1740 O   0  0  0  0  0  0  0  0  0  0  0  0
  185.1500  178.7460  144.0020 C   0  0  0  0  0  0  0  0  0  0  0  0
  184.0180  178.5970  143.4740 O   0  0  0  0  0  0  0  0  0  0  0  0
  185.2220  178.9370  145.4600 C   0  0  0  0  0  3  0  0  0  0  0  0
  185.2180  177.9220  146.3160 C   0  0  0  0  0  2  0  0  0  0  0  0
  1  6  1  0  0  0  0
  2  5  1  0  0  0  0
  2 11  1  1  0  0  0
  3 39  1  0  0  0  0
  3  4  1  0  0  0  0
  6  4  2  0  0  0  0
  6  5  1  0  0  0  0
  7 10  1  0  0  0  0
  7  1  2  0  0  0  0
  8  1  1  0  0  0  0
  8  9  1  0  0  0  0
  9  2  1  0  0  0  0
 10  3  2  0  0  0  0
 11 13  1  0  0  0  0
 11 12  1  1  0  0  0
 14 13  1  0  0  0  0
 14 16  1  0  0  0  0
 15 14  2  0  0  0  0
 17 21  1  6  0  0  0
 17 19  1  0  0  0  0
 17 16  1  0  0  0  0
 20 18  1  1  0  0  0
 20 17  1  0  0  0  0
 20 19  1  0  0  0  0
 21 22  1  0  0  0  0
 22 23  2  0  0  0  0
 22 24  1  0  0  0  0
 24 29  1  0  0  0  0
 26 27  1  0  0  0  0
 27 25  1  0  0  0  0
 28 24  1  0  0  0  0
 28 26  1  0  0  0  0
 29 25  1  0  0  0  0
 30  8  1  0  0  0  0
 31 34  1  0  0  0  0
 32 31  2  0  0  0  0
 32 36  1  0  0  0  0
 33 35  1  0  0  0  0
 34 35  2  0  0  0  0
 35 30  1  0  0  0  0
 36 33  2  0  0  0  0
 37 32  1  0  0  0  0
 37 38  1  0  0  0  0
 39 40  1  0  0  0  0
 40 42  1  0  0  0  0
 41 40  2  0  0  0  0
 42 43  2  0  0  0  0
M  END
>  <MODEL>
3

>  <REMARK>
 VINA RESULT:      -6.7      1.528      2.085
  Name = 
  13 active torsions:
  status: ('A' for Active; 'I' for Inactive)
    1  A    between atoms: N_1  and  N_34
    2  A    between atoms: N_1  and  C_35
    3  A    between atoms: C_2  and  N_6
    4  A    between atoms: C_2  and  C_13
    5  A    between atoms: C_3  and  C_4
    6  A    between atoms: C_3  and  C_12
    7  A    between atoms: C_4  and  C_22
    8  A    between atoms: C_5  and  C_18
    9  A    between atoms: C_5  and  O_23
   10  A    between atoms: C_11  and  C_14
   11  A    between atoms: C_14  and  C_22
   12  A    between atoms: C_16  and  O_23
   13  A    between atoms: C_19  and  O_25
                            x       y       z     vdW  Elec       q    Type
                         _______ _______ _______ _____ _____    ______ ____

>  <TORSDO>
F 13

$$$$
=
 OpenBabel11052421033D

 43 47  0  0  1  0  0  0  0  0999 V2000
  189.6700  175.6620  145.0470 C   0  0  0  0  0  0  0  0  0  0  0  0
  188.9050  173.8400  143.0180 C   0  0  2  0  0  3  0  0  0  0  0  0
  187.7830  177.4800  145.9980 C   0  0  0  0  0  0  0  0  0  0  0  0
  187.5820  176.8480  144.7640 C   0  0  0  0  0  3  0  0  0  0  0  0
  188.2900  175.2400  142.9840 C   0  0  0  0  0  2  0  0  0  0  0  0
  188.5130  175.9230  144.2940 C   0  0  0  0  0  0  0  0  0  0  0  0
  189.8400  176.2840  146.2470 N   0  0  0  0  0  0  0  0  0  0  0  0
  190.6310  174.6900  144.5780 N   0  0  0  0  0  0  0  0  0  0  0  0
  190.3950  173.9260  143.3500 C   0  0  0  0  0  2  0  0  0  0  0  0
  188.9360  177.1800  146.7270 C   0  0  0  0  0  3  0  0  0  0  0  0
  188.6820  173.0910  141.7070 C   0  0  2  0  0  3  0  0  0  0  0  0
  187.3880  172.5650  141.6500 O   0  0  0  0  0  1  0  0  0  0  0  0
  189.6590  172.0190  141.5860 N   0  0  0  0  0  2  0  0  0  0  0  0
  190.5620  171.9080  140.4850 C   0  0  0  0  0  0  0  0  0  0  0  0
  190.5710  172.7750  139.5710 O   0  0  0  0  0  0  0  0  0  0  0  0
  191.4840  170.7380  140.4030 C   0  0  0  0  0  2  0  0  0  0  0  0
  192.9310  171.1620  140.6650 C   0  0  1  0  0  0  0  0  0  0  0  0
  193.3260  170.4380  137.9700 S   0  0  0  0  0  1  0  0  0  0  0  0
  193.9200  170.0210  140.6010 C   0  0  0  0  0  2  0  0  0  0  0  0
  193.9610  171.1140  139.5410 C   0  0  2  0  0  3  0  0  0  0  0  0
  193.2370  172.1740  141.7670 C   0  0  0  0  0  2  0  0  0  0  0  0
  193.3810  171.5170  143.1040 C   0  0  0  0  0  0  0  0  0  0  0  0
  192.3960  171.0860  143.6850 O   0  0  0  0  0  0  0  0  0  0  0  0
  194.7370  171.4200  143.7310 C   0  0  0  0  0  3  0  0  0  0  0  0
  196.0140  171.3990  145.8860 C   0  0  0  0  0  2  0  0  0  0  0  0
  197.0390  172.4030  143.8340 C   0  0  0  0  0  2  0  0  0  0  0  0
  196.9250  172.5020  145.3530 C   0  0  0  0  0  2  0  0  0  0  0  0
  195.6590  172.5150  143.1930 C   0  0  0  0  0  2  0  0  0  0  0  0
  194.6300  171.5080  145.2520 C   0  0  0  0  0  2  0  0  0  0  0  0
  191.8240  174.4440  145.2780 N   0  0  0  0  0  2  0  0  0  0  0  0
  195.3450  175.7080  145.4620 C   0  0  0  0  0  3  0  0  0  0  0  0
  195.5440  176.1350  144.1390 C   0  0  0  0  0  0  0  0  0  0  0  0
  193.2880  175.4320  143.5910 C   0  0  0  0  0  3  0  0  0  0  0  0
  194.1240  175.1430  145.8430 C   0  0  0  0  0  3  0  0  0  0  0  0
  193.0940  174.9920  144.9030 C   0  0  0  0  0  0  0  0  0  0  0  0
  194.5080  175.9970  143.2100 C   0  0  0  0  0  3  0  0  0  0  0  0
  196.7530  176.7010  143.7270 O   0  0  0  0  0  0  0  0  0  0  0  0
  197.6400  176.0480  142.8280 C   0  0  0  0  0  1  0  0  0  0  0  0
  186.8820  178.4260  146.5050 O   0  0  0  0  0  0  0  0  0  0  0  0
  185.7060  178.1170  147.2040 C   0  0  0  0  0  0  0  0  0  0  0  0
  185.7980  177.5480  148.3220 O   0  0  0  0  0  0  0  0  0  0  0  0
  184.3640  178.3660  146.6530 C   0  0  0  0  0  3  0  0  0  0  0  0
  184.1590  178.6710  145.3780 C   0  0  0  0  0  2  0  0  0  0  0  0
  1  7  1  0  0  0  0
  2 11  1  6  0  0  0
  2  9  1  0  0  0  0
  3 39  1  0  0  0  0
  3 10  1  0  0  0  0
  4  3  2  0  0  0  0
  5  2  1  0  0  0  0
  5  6  1  0  0  0  0
  6  4  1  0  0  0  0
  6  1  2  0  0  0  0
  7 10  2  0  0  0  0
  8  1  1  0  0  0  0
  8 30  1  0  0  0  0
  9  8  1  0  0  0  0
 11 12  1  1  0  0  0
 13 11  1  0  0  0  0
 14 13  1  0  0  0  0
 15 14  2  0  0  0  0
 16 14  1  0  0  0  0
 17 16  1  6  0  0  0
 17 21  1  0  0  0  0
 19 17  1  0  0  0  0
 20 18  1  6  0  0  0
 20 19  1  0  0  0  0
 20 17  1  0  0  0  0
 21 22  1  0  0  0  0
 22 23  2  0  0  0  0
 22 24  1  0  0  0  0
 24 29  1  0  0  0  0
 26 27  1  0  0  0  0
 27 25  1  0  0  0  0
 28 24  1  0  0  0  0
 28 26  1  0  0  0  0
 29 25  1  0  0  0  0
 31 34  1  0  0  0  0
 32 31  2  0  0  0  0
 33 35  1  0  0  0  0
 35 30  1  0  0  0  0
 35 34  2  0  0  0  0
 36 33  2  0  0  0  0
 36 32  1  0  0  0  0
 37 32  1  0  0  0  0
 38 37  1  0  0  0  0
 39 40  1  0  0  0  0
 40 41  2  0  0  0  0
 42 40  1  0  0  0  0
 43 42  2  0  0  0  0
M  END
>  <MODEL>
4

>  <REMARK>
 VINA RESULT:      -6.7      3.067      6.406
  Name = 
  13 active torsions:
  status: ('A' for Active; 'I' for Inactive)
    1  A    between atoms: N_1  and  N_34
    2  A    between atoms: N_1  and  C_35
    3  A    between atoms: C_2  and  N_6
    4  A    between atoms: C_2  and  C_13
    5  A    between atoms: C_3  and  C_4
    6  A    between atoms: C_3  and  C_12
    7  A    between atoms: C_4  and  C_22
    8  A    between atoms: C_5  and  C_18
    9  A    between atoms: C_5  and  O_23
   10  A    between atoms: C_11  and  C_14
   11  A    between atoms: C_14  and  C_22
   12  A    between atoms: C_16  and  O_23
   13  A    between atoms: C_19  and  O_25
                            x       y       z     vdW  Elec       q    Type
                         _______ _______ _______ _____ _____    ______ ____

>  <TORSDO>
F 13

$$$$
=
 OpenBabel11052421033D

 43 47  0  0  1  0  0  0  0  0999 V2000
  189.1260  173.7930  139.8360 C   0  0  0  0  0  0  0  0  0  0  0  0
  190.8630  172.1080  141.3080 C   0  0  2  0  0  3  0  0  0  0  0  0
  189.5340  174.0700  137.0930 C   0  0  0  0  0  0  0  0  0  0  0  0
  190.5660  173.5830  137.9050 C   0  0  0  0  0  3  0  0  0  0  0  0
  191.4570  172.8910  140.1380 C   0  0  0  0  0  2  0  0  0  0  0  0
  190.3600  173.4230  139.2750 C   0  0  0  0  0  0  0  0  0  0  0  0
  188.1360  174.2570  139.0240 N   0  0  0  0  0  0  0  0  0  0  0  0
  188.8950  173.6120  141.2510 N   0  0  0  0  0  0  0  0  0  0  0  0
  189.9120  172.9970  142.1100 C   0  0  0  0  0  2  0  0  0  0  0  0
  188.3150  174.4080  137.6850 C   0  0  0  0  0  3  0  0  0  0  0  0
  191.9460  171.5220  142.2090 C   0  0  2  0  0  3  0  0  0  0  0  0
  191.5250  170.3130  142.7710 O   0  0  0  0  0  1  0  0  0  0  0  0
  192.2730  172.4710  143.2620 N   0  0  0  0  0  2  0  0  0  0  0  0
  193.4760  173.2390  143.2750 C   0  0  0  0  0  0  0  0  0  0  0  0
  194.3070  173.1470  142.3330 O   0  0  0  0  0  0  0  0  0  0  0  0
  193.7650  174.1390  144.4300 C   0  0  0  0  0  2  0  0  0  0  0  0
  193.7190  175.6080  144.0040 C   0  0  1  0  0  0  0  0  0  0  0  0
  196.5300  175.4270  144.1170 S   0  0  0  0  0  1  0  0  0  0  0  0
  194.2330  176.5620  145.0570 C   0  0  0  0  0  2  0  0  0  0  0  0
  195.0150  176.3780  143.7630 C   0  0  2  0  0  3  0  0  0  0  0  0
  192.5110  176.1380  143.2370 C   0  0  0  0  0  2  0  0  0  0  0  0
  191.6990  177.0880  144.0620 C   0  0  0  0  0  0  0  0  0  0  0  0
  191.6990  178.2820  143.7990 O   0  0  0  0  0  0  0  0  0  0  0  0
  190.9120  176.5640  145.2220 C   0  0  0  0  0  3  0  0  0  0  0  0
  189.4570  174.7010  146.0500 C   0  0  0  0  0  2  0  0  0  0  0  0
  189.0720  177.0410  146.8540 C   0  0  0  0  0  2  0  0  0  0  0  0
  188.4050  175.7190  146.4820 C   0  0  0  0  0  2  0  0  0  0  0  0
  189.8640  177.5840  145.6680 C   0  0  0  0  0  2  0  0  0  0  0  0
  190.2500  175.2350  144.8610 C   0  0  0  0  0  2  0  0  0  0  0  0
  187.6940  174.0200  141.8550 N   0  0  0  0  0  2  0  0  0  0  0  0
  188.1050  177.6750  142.5600 C   0  0  0  0  0  3  0  0  0  0  0  0
  187.0010  177.9100  143.3960 C   0  0  0  0  0  0  0  0  0  0  0  0
  186.3720  175.5760  143.1940 C   0  0  0  0  0  3  0  0  0  0  0  0
  188.3350  176.3970  142.0430 C   0  0  0  0  0  3  0  0  0  0  0  0
  187.4610  175.3440  142.3480 C   0  0  0  0  0  0  0  0  0  0  0  0
  186.1410  176.8540  143.7110 C   0  0  0  0  0  3  0  0  0  0  0  0
  186.7420  179.1770  143.9280 O   0  0  0  0  0  0  0  0  0  0  0  0
  185.4250  179.6840  144.0970 C   0  0  0  0  0  1  0  0  0  0  0  0
  189.7000  174.2600  135.7140 O   0  0  0  0  0  0  0  0  0  0  0  0
  190.0290  175.4810  135.1080 C   0  0  0  0  0  0  0  0  0  0  0  0
  189.1000  176.2640  134.7810 O   0  0  0  0  0  0  0  0  0  0  0  0
  191.4120  175.8570  134.7720 C   0  0  0  0  0  3  0  0  0  0  0  0
  191.8730  177.0920  134.9190 C   0  0  0  0  0  2  0  0  0  0  0  0
  1  8  1  0  0  0  0
  2  9  1  0  0  0  0
  2 11  1  1  0  0  0
  3 10  2  0  0  0  0
  3  4  1  0  0  0  0
  4  6  2  0  0  0  0
  5  2  1  0  0  0  0
  6  1  1  0  0  0  0
  6  5  1  0  0  0  0
  7  1  2  0  0  0  0
  8 30  1  0  0  0  0
  8  9  1  0  0  0  0
 10  7  1  0  0  0  0
 11 12  1  1  0  0  0
 11 13  1  0  0  0  0
 13 14  1  0  0  0  0
 14 16  1  0  0  0  0
 15 14  2  0  0  0  0
 17 21  1  6  0  0  0
 17 16  1  0  0  0  0
 17 19  1  0  0  0  0
 20 17  1  0  0  0  0
 20 18  1  1  0  0  0
 20 19  1  0  0  0  0
 21 22  1  0  0  0  0
 22 24  1  0  0  0  0
 23 22  2  0  0  0  0
 24 28  1  0  0  0  0
 25 27  1  0  0  0  0
 27 26  1  0  0  0  0
 28 26  1  0  0  0  0
 29 24  1  0  0  0  0
 29 25  1  0  0  0  0
 30 35  1  0  0  0  0
 31 32  1  0  0  0  0
 32 36  2  0  0  0  0
 32 37  1  0  0  0  0
 33 36  1  0  0  0  0
 34 35  1  0  0  0  0
 34 31  2  0  0  0  0
 35 33  2  0  0  0  0
 37 38  1  0  0  0  0
 39  3  1  0  0  0  0
 40 39  1  0  0  0  0
 41 40  2  0  0  0  0
 42 43  2  0  0  0  0
 42 40  1  0  0  0  0
M  END
>  <MODEL>
5

>  <REMARK>
 VINA RESULT:      -6.7      1.595      5.680
  Name = 
  13 active torsions:
  status: ('A' for Active; 'I' for Inactive)
    1  A    between atoms: N_1  and  N_34
    2  A    between atoms: N_1  and  C_35
    3  A    between atoms: C_2  and  N_6
    4  A    between atoms: C_2  and  C_13
    5  A    between atoms: C_3  and  C_4
    6  A    between atoms: C_3  and  C_12
    7  A    between atoms: C_4  and  C_22
    8  A    between atoms: C_5  and  C_18
    9  A    between atoms: C_5  and  O_23
   10  A    between atoms: C_11  and  C_14
   11  A    between atoms: C_14  and  C_22
   12  A    between atoms: C_16  and  O_23
   13  A    between atoms: C_19  and  O_25
                            x       y       z     vdW  Elec       q    Type
                         _______ _______ _______ _____ _____    ______ ____

>  <TORSDO>
F 13

$$$$
=
 OpenBabel11052421033D

 43 47  0  0  1  0  0  0  0  0999 V2000
  196.9810  174.1790  144.1620 C   0  0  0  0  0  0  0  0  0  0  0  0
  194.8090  175.8460  144.8890 C   0  0  2  0  0  3  0  0  0  0  0  0
  197.2140  171.6780  145.3710 C   0  0  0  0  0  0  0  0  0  0  0  0
  196.4170  172.6670  145.9620 C   0  0  0  0  0  3  0  0  0  0  0  0
  195.4190  174.9600  145.9760 C   0  0  0  0  0  2  0  0  0  0  0  0
  196.2810  173.9120  145.3510 C   0  0  0  0  0  0  0  0  0  0  0  0
  197.7450  173.2000  143.6020 N   0  0  0  0  0  0  0  0  0  0  0  0
  196.8300  175.4590  143.5090 N   0  0  0  0  0  0  0  0  0  0  0  0
  195.9140  176.4740  144.0380 C   0  0  0  0  0  2  0  0  0  0  0  0
  197.8790  171.9750  144.1790 C   0  0  0  0  0  3  0  0  0  0  0  0
  193.8990  176.9210  145.4760 C   0  0  2  0  0  3  0  0  0  0  0  0
  194.2340  177.1810  146.8090 O   0  0  0  0  0  1  0  0  0  0  0  0
  192.5130  176.4880  145.3890 N   0  0  0  0  0  2  0  0  0  0  0  0
  191.5240  177.1880  144.6340 C   0  0  0  0  0  0  0  0  0  0  0  0
  191.8290  178.2140  143.9700 O   0  0  0  0  0  0  0  0  0  0  0  0
  190.1090  176.7150  144.6540 C   0  0  0  0  0  2  0  0  0  0  0  0
  189.6490  176.3020  143.2540 C   0  0  1  0  0  0  0  0  0  0  0  0
  189.7310  173.6920  144.3140 S   0  0  0  0  0  1  0  0  0  0  0  0
  190.6730  175.4920  142.4930 C   0  0  0  0  0  2  0  0  0  0  0  0
  189.3740  174.8350  142.9380 C   0  0  2  0  0  3  0  0  0  0  0  0
  188.8860  177.2960  142.3820 C   0  0  0  0  0  2  0  0  0  0  0  0
  187.4150  177.2680  142.6590 C   0  0  0  0  0  0  0  0  0  0  0  0
  186.6370  176.8810  141.8000 O   0  0  0  0  0  0  0  0  0  0  0  0
  186.9110  177.7430  143.9850 C   0  0  0  0  0  3  0  0  0  0  0  0
  185.6660  177.1060  146.0640 C   0  0  0  0  0  2  0  0  0  0  0  0
  185.4990  179.4400  145.1710 C   0  0  0  0  0  2  0  0  0  0  0  0
  184.7510  178.3150  145.8830 C   0  0  0  0  0  2  0  0  0  0  0  0
  186.0030  178.9610  143.8130 C   0  0  0  0  0  2  0  0  0  0  0  0
  186.1700  176.6190  144.7090 C   0  0  0  0  0  2  0  0  0  0  0  0
  197.5560  175.7800  142.3500 N   0  0  0  0  0  2  0  0  0  0  0  0
  197.4350  175.4150  138.6250 C   0  0  0  0  0  3  0  0  0  0  0  0
  196.0630  175.1900  138.4240 C   0  0  0  0  0  0  0  0  0  0  0  0
  195.7040  175.3520  140.8180 C   0  0  0  0  0  3  0  0  0  0  0  0
  197.9350  175.6030  139.9160 C   0  0  0  0  0  3  0  0  0  0  0  0
  197.0710  175.5590  141.0200 C   0  0  0  0  0  0  0  0  0  0  0  0
  195.2030  175.1640  139.5270 C   0  0  0  0  0  3  0  0  0  0  0  0
  195.5320  174.9960  137.1460 O   0  0  0  0  0  0  0  0  0  0  0  0
  194.1350  175.0030  136.8850 C   0  0  0  0  0  1  0  0  0  0  0  0
  197.3920  170.4170  145.9560 O   0  0  0  0  0  0  0  0  0  0  0  0
  196.4060  169.4230  146.0280 C   0  0  0  0  0  0  0  0  0  0  0  0
  195.4380  169.4690  145.2250 O   0  0  0  0  0  0  0  0  0  0  0  0
  196.4150  168.3650  147.0510 C   0  0  0  0  0  3  0  0  0  0  0  0
  197.1960  168.4130  148.1240 C   0  0  0  0  0  2  0  0  0  0  0  0
  1  6  1  0  0  0  0
  2 11  1  1  0  0  0
  2  5  1  0  0  0  0
  3 39  1  0  0  0  0
  3  4  1  0  0  0  0
  6  4  2  0  0  0  0
  6  5  1  0  0  0  0
  7  1  2  0  0  0  0
  7 10  1  0  0  0  0
  8  9  1  0  0  0  0
  8  1  1  0  0  0  0
  9  2  1  0  0  0  0
 10  3  2  0  0  0  0
 11 12  1  1  0  0  0
 13 11  1  0  0  0  0
 14 16  1  0  0  0  0
 14 13  1  0  0  0  0
 15 14  2  0  0  0  0
 17 21  1  6  0  0  0
 17 16  1  0  0  0  0
 19 20  1  0  0  0  0
 19 17  1  0  0  0  0
 20 17  1  0  0  0  0
 20 18  1  1  0  0  0
 21 22  1  0  0  0  0
 22 24  1  0  0  0  0
 23 22  2  0  0  0  0
 24 29  1  0  0  0  0
 26 27  1  0  0  0  0
 27 25  1  0  0  0  0
 28 24  1  0  0  0  0
 28 26  1  0  0  0  0
 29 25  1  0  0  0  0
 30  8  1  0  0  0  0
 31 34  1  0  0  0  0
 32 31  2  0  0  0  0
 32 36  1  0  0  0  0
 33 35  1  0  0  0  0
 34 35  2  0  0  0  0
 35 30  1  0  0  0  0
 36 33  2  0  0  0  0
 37 32  1  0  0  0  0
 38 37  1  0  0  0  0
 39 40  1  0  0  0  0
 40 42  1  0  0  0  0
 41 40  2  0  0  0  0
 42 43  2  0  0  0  0
M  END
>  <MODEL>
6

>  <REMARK>
 VINA RESULT:      -6.6      3.775      8.385
  Name = 
  13 active torsions:
  status: ('A' for Active; 'I' for Inactive)
    1  A    between atoms: N_1  and  N_34
    2  A    between atoms: N_1  and  C_35
    3  A    between atoms: C_2  and  N_6
    4  A    between atoms: C_2  and  C_13
    5  A    between atoms: C_3  and  C_4
    6  A    between atoms: C_3  and  C_12
    7  A    between atoms: C_4  and  C_22
    8  A    between atoms: C_5  and  C_18
    9  A    between atoms: C_5  and  O_23
   10  A    between atoms: C_11  and  C_14
   11  A    between atoms: C_14  and  C_22
   12  A    between atoms: C_16  and  O_23
   13  A    between atoms: C_19  and  O_25
                            x       y       z     vdW  Elec       q    Type
                         _______ _______ _______ _____ _____    ______ ____

>  <TORSDO>
F 13

$$$$
=
 OpenBabel11052421033D

 43 47  0  0  1  0  0  0  0  0999 V2000
  192.0900  172.8950  144.6360 C   0  0  0  0  0  0  0  0  0  0  0  0
  190.1590  174.1810  146.2600 C   0  0  2  0  0  3  0  0  0  0  0  0
  194.7720  173.0260  145.3840 C   0  0  0  0  0  0  0  0  0  0  0  0
  193.8560  173.9450  145.9110 C   0  0  0  0  0  3  0  0  0  0  0  0
  191.5310  174.8430  146.1310 C   0  0  0  0  0  2  0  0  0  0  0  0
  192.5100  173.8700  145.5560 C   0  0  0  0  0  0  0  0  0  0  0  0
  192.9990  172.0080  144.1420 N   0  0  0  0  0  0  0  0  0  0  0  0
  190.6940  172.7960  144.2770 N   0  0  0  0  0  0  0  0  0  0  0  0
  189.6910  173.6660  144.8990 C   0  0  0  0  0  2  0  0  0  0  0  0
  194.3130  172.0590  144.4870 C   0  0  0  0  0  3  0  0  0  0  0  0
  189.1270  175.1290  146.8660 C   0  0  2  0  0  3  0  0  0  0  0  0
  188.5570  174.5730  148.0150 O   0  0  0  0  0  1  0  0  0  0  0  0
  188.0900  175.4130  145.8860 N   0  0  0  0  0  2  0  0  0  0  0  0
  187.2890  176.5950  145.9180 C   0  0  0  0  0  0  0  0  0  0  0  0
  187.4790  177.4760  146.7990 O   0  0  0  0  0  0  0  0  0  0  0  0
  186.2000  176.7750  144.9150 C   0  0  0  0  0  2  0  0  0  0  0  0
  186.3880  178.0750  144.1300 C   0  0  1  0  0  0  0  0  0  0  0  0
  184.3280  179.0390  145.7930 S   0  0  0  0  0  1  0  0  0  0  0  0
  185.1980  178.4470  143.2750 C   0  0  0  0  0  2  0  0  0  0  0  0
  185.5610  179.3090  144.4770 C   0  0  2  0  0  3  0  0  0  0  0  0
  187.7310  178.3740  143.4680 C   0  0  0  0  0  2  0  0  0  0  0  0
  188.3080  177.1630  142.8030 C   0  0  0  0  0  0  0  0  0  0  0  0
  187.6450  176.5350  141.9910 O   0  0  0  0  0  0  0  0  0  0  0  0
  189.6910  176.7180  143.1630 C   0  0  0  0  0  3  0  0  0  0  0  0
  191.9610  177.4590  143.9190 C   0  0  0  0  0  2  0  0  0  0  0  0
  191.7320  175.4890  142.3900 C   0  0  0  0  0  2  0  0  0  0  0  0
  192.5930  176.6960  142.7590 C   0  0  0  0  0  2  0  0  0  0  0  0
  190.3260  175.9420  142.0100 C   0  0  0  0  0  2  0  0  0  0  0  0
  190.5550  177.9190  143.5440 C   0  0  0  0  0  2  0  0  0  0  0  0
  190.2480  171.8690  143.3210 N   0  0  0  0  0  2  0  0  0  0  0  0
  190.4200  172.5630  139.6450 C   0  0  0  0  0  3  0  0  0  0  0  0
  189.1070  172.9910  139.3920 C   0  0  0  0  0  0  0  0  0  0  0  0
  188.5690  172.6640  141.7350 C   0  0  0  0  0  3  0  0  0  0  0  0
  190.8020  172.1850  140.9350 C   0  0  0  0  0  3  0  0  0  0  0  0
  189.8720  172.2220  141.9840 C   0  0  0  0  0  0  0  0  0  0  0  0
  188.1880  173.0420  140.4450 C   0  0  0  0  0  3  0  0  0  0  0  0
  188.6930  173.3730  138.1130 O   0  0  0  0  0  0  0  0  0  0  0  0
  187.8780  174.5120  137.8780 C   0  0  0  0  0  1  0  0  0  0  0  0
  196.1360  173.0710  145.7010 O   0  0  0  0  0  0  0  0  0  0  0  0
  197.1780  172.8650  144.7850 C   0  0  0  0  0  0  0  0  0  0  0  0
  197.7980  171.7700  144.8090 O   0  0  0  0  0  0  0  0  0  0  0  0
  197.6280  173.9030  143.8430 C   0  0  0  0  0  3  0  0  0  0  0  0
  197.0250  174.1260  142.6820 C   0  0  0  0  0  2  0  0  0  0  0  0
  1  6  1  0  0  0  0
  2 11  1  6  0  0  0
  3 39  1  0  0  0  0
  3  4  1  0  0  0  0
  5  2  1  0  0  0  0
  6  4  2  0  0  0  0
  6  5  1  0  0  0  0
  7 10  1  0  0  0  0
  7  1  2  0  0  0  0
  8  1  1  0  0  0  0
  8  9  1  0  0  0  0
  9  2  1  0  0  0  0
 10  3  2  0  0  0  0
 11 12  1  1  0  0  0
 13 14  1  0  0  0  0
 13 11  1  0  0  0  0
 14 15  2  0  0  0  0
 16 14  1  0  0  0  0
 17 21  1  6  0  0  0
 17 20  1  0  0  0  0
 17 16  1  0  0  0  0
 19 17  1  0  0  0  0
 19 20  1  0  0  0  0
 20 18  1  1  0  0  0
 22 24  1  0  0  0  0
 22 21  1  0  0  0  0
 23 22  2  0  0  0  0
 24 29  1  0  0  0  0
 26 27  1  0  0  0  0
 27 25  1  0  0  0  0
 28 26  1  0  0  0  0
 28 24  1  0  0  0  0
 29 25  1  0  0  0  0
 30  8  1  0  0  0  0
 31 34  1  0  0  0  0
 32 31  2  0  0  0  0
 32 36  1  0  0  0  0
 33 35  1  0  0  0  0
 34 35  2  0  0  0  0
 35 30  1  0  0  0  0
 36 33  2  0  0  0  0
 37 32  1  0  0  0  0
 38 37  1  0  0  0  0
 40 41  2  0  0  0  0
 40 39  1  0  0  0  0
 42 40  1  0  0  0  0
 43 42  2  0  0  0  0
M  END
>  <MODEL>
7

>  <REMARK>
 VINA RESULT:      -6.6      3.305      7.471
  Name = 
  13 active torsions:
  status: ('A' for Active; 'I' for Inactive)
    1  A    between atoms: N_1  and  N_34
    2  A    between atoms: N_1  and  C_35
    3  A    between atoms: C_2  and  N_6
    4  A    between atoms: C_2  and  C_13
    5  A    between atoms: C_3  and  C_4
    6  A    between atoms: C_3  and  C_12
    7  A    between atoms: C_4  and  C_22
    8  A    between atoms: C_5  and  C_18
    9  A    between atoms: C_5  and  O_23
   10  A    between atoms: C_11  and  C_14
   11  A    between atoms: C_14  and  C_22
   12  A    between atoms: C_16  and  O_23
   13  A    between atoms: C_19  and  O_25
                            x       y       z     vdW  Elec       q    Type
                         _______ _______ _______ _____ _____    ______ ____

>  <TORSDO>
F 13

$$$$
=
 OpenBabel11052421033D

 43 47  0  0  1  0  0  0  0  0999 V2000
  194.8760  174.0390  144.4500 C   0  0  0  0  0  0  0  0  0  0  0  0
  192.6790  175.5630  145.3840 C   0  0  2  0  0  3  0  0  0  0  0  0
  194.8070  171.2680  144.7440 C   0  0  0  0  0  0  0  0  0  0  0  0
  193.9600  172.0720  145.5170 C   0  0  0  0  0  3  0  0  0  0  0  0
  193.0630  174.3130  146.1750 C   0  0  0  0  0  2  0  0  0  0  0  0
  193.9770  173.4570  145.3590 C   0  0  0  0  0  0  0  0  0  0  0  0
  195.6850  173.2360  143.7040 N   0  0  0  0  0  0  0  0  0  0  0  0
  194.8870  175.4720  144.2640 N   0  0  0  0  0  0  0  0  0  0  0  0
  193.9340  176.3330  144.9710 C   0  0  0  0  0  2  0  0  0  0  0  0
  195.6730  171.8820  143.8370 C   0  0  0  0  0  3  0  0  0  0  0  0
  191.7250  176.4600  146.1670 C   0  0  2  0  0  3  0  0  0  0  0  0
  191.8850  176.2730  147.5430 O   0  0  0  0  0  1  0  0  0  0  0  0
  190.3530  176.1680  145.7830 N   0  0  0  0  0  2  0  0  0  0  0  0
  189.4830  177.1390  145.2000 C   0  0  0  0  0  0  0  0  0  0  0  0
  189.8910  178.3060  144.9590 O   0  0  0  0  0  0  0  0  0  0  0  0
  188.0670  176.7740  144.9000 C   0  0  0  0  0  2  0  0  0  0  0  0
  187.7080  177.1210  143.4530 C   0  0  1  0  0  0  0  0  0  0  0  0
  185.7600  178.7770  144.6400 S   0  0  0  0  0  1  0  0  0  0  0  0
  186.3350  176.6450  143.0360 C   0  0  0  0  0  2  0  0  0  0  0  0
  186.6090  178.1380  143.1580 C   0  0  2  0  0  3  0  0  0  0  0  0
  188.7600  176.9830  142.3560 C   0  0  0  0  0  2  0  0  0  0  0  0
  188.9310  175.5610  141.9200 C   0  0  0  0  0  0  0  0  0  0  0  0
  188.2140  175.0980  141.0450 O   0  0  0  0  0  0  0  0  0  0  0  0
  189.9670  174.7110  142.5850 C   0  0  0  0  0  3  0  0  0  0  0  0
  191.9980  173.2880  142.2340 C   0  0  0  0  0  2  0  0  0  0  0  0
  190.3760  172.7250  144.0560 C   0  0  0  0  0  2  0  0  0  0  0  0
  191.3360  172.1560  143.0140 C   0  0  0  0  0  2  0  0  0  0  0  0
  189.3110  173.5810  143.3790 C   0  0  0  0  0  2  0  0  0  0  0  0
  190.9390  174.1460  141.5490 C   0  0  0  0  0  2  0  0  0  0  0  0
  195.8090  176.0910  143.4040 N   0  0  0  0  0  2  0  0  0  0  0  0
  197.2400  175.3730  140.0190 C   0  0  0  0  0  3  0  0  0  0  0  0
  196.0710  175.3030  139.2440 C   0  0  0  0  0  0  0  0  0  0  0  0
  194.7500  175.7470  141.2300 C   0  0  0  0  0  3  0  0  0  0  0  0
  197.1620  175.6250  141.3910 C   0  0  0  0  0  3  0  0  0  0  0  0
  195.9130  175.8010  142.0050 C   0  0  0  0  0  0  0  0  0  0  0  0
  194.8290  175.4950  139.8580 C   0  0  0  0  0  3  0  0  0  0  0  0
  196.1160  175.0500  137.8710 O   0  0  0  0  0  0  0  0  0  0  0  0
  195.0510  174.4210  137.1700 C   0  0  0  0  0  1  0  0  0  0  0  0
  194.8350  169.8740  144.8780 O   0  0  0  0  0  0  0  0  0  0  0  0
  195.7920  169.1590  145.6140 C   0  0  0  0  0  0  0  0  0  0  0  0
  196.6390  168.4650  144.9940 O   0  0  0  0  0  0  0  0  0  0  0  0
  195.8050  169.1290  147.0860 C   0  0  0  0  0  3  0  0  0  0  0  0
  195.0730  168.2750  147.7900 C   0  0  0  0  0  2  0  0  0  0  0  0
  1  6  1  0  0  0  0
  2 11  1  1  0  0  0
  2  5  1  0  0  0  0
  3 39  1  0  0  0  0
  3  4  1  0  0  0  0
  6  4  2  0  0  0  0
  6  5  1  0  0  0  0
  7 10  1  0  0  0  0
  7  1  2  0  0  0  0
  8  1  1  0  0  0  0
  8  9  1  0  0  0  0
  9  2  1  0  0  0  0
 10  3  2  0  0  0  0
 11 12  1  1  0  0  0
 13 11  1  0  0  0  0
 14 13  1  0  0  0  0
 15 14  2  0  0  0  0
 16 14  1  0  0  0  0
 17 21  1  6  0  0  0
 17 16  1  0  0  0  0
 19 20  1  0  0  0  0
 19 17  1  0  0  0  0
 20 17  1  0  0  0  0
 20 18  1  1  0  0  0
 22 21  1  0  0  0  0
 22 24  1  0  0  0  0
 23 22  2  0  0  0  0
 24 28  1  0  0  0  0
 25 27  1  0  0  0  0
 27 26  1  0  0  0  0
 28 26  1  0  0  0  0
 29 25  1  0  0  0  0
 29 24  1  0  0  0  0
 30  8  1  0  0  0  0
 31 34  1  0  0  0  0
 32 36  1  0  0  0  0
 32 31  2  0  0  0  0
 33 35  1  0  0  0  0
 34 35  2  0  0  0  0
 35 30  1  0  0  0  0
 36 33  2  0  0  0  0
 37 32  1  0  0  0  0
 38 37  1  0  0  0  0
 39 40  1  0  0  0  0
 40 42  1  0  0  0  0
 41 40  2  0  0  0  0
 42 43  2  0  0  0  0
M  END
>  <MODEL>
8

>  <REMARK>
 VINA RESULT:      -6.5      3.613      8.160
  Name = 
  13 active torsions:
  status: ('A' for Active; 'I' for Inactive)
    1  A    between atoms: N_1  and  N_34
    2  A    between atoms: N_1  and  C_35
    3  A    between atoms: C_2  and  N_6
    4  A    between atoms: C_2  and  C_13
    5  A    between atoms: C_3  and  C_4
    6  A    between atoms: C_3  and  C_12
    7  A    between atoms: C_4  and  C_22
    8  A    between atoms: C_5  and  C_18
    9  A    between atoms: C_5  and  O_23
   10  A    between atoms: C_11  and  C_14
   11  A    between atoms: C_14  and  C_22
   12  A    between atoms: C_16  and  O_23
   13  A    between atoms: C_19  and  O_25
                            x       y       z     vdW  Elec       q    Type
                         _______ _______ _______ _____ _____    ______ ____

>  <TORSDO>
F 13

$$$$
=
 OpenBabel11052421033D

 43 47  0  0  1  0  0  0  0  0999 V2000
  188.4510  176.3800  143.4210 C   0  0  0  0  0  0  0  0  0  0  0  0
  189.2430  174.6360  141.3350 C   0  0  2  0  0  3  0  0  0  0  0  0
  189.4870  175.9710  145.9760 C   0  0  0  0  0  0  0  0  0  0  0  0
  189.5320  174.9380  145.0320 C   0  0  0  0  0  3  0  0  0  0  0  0
  189.0960  174.0440  142.7370 C   0  0  0  0  0  2  0  0  0  0  0  0
  189.0340  175.1440  143.7470 C   0  0  0  0  0  0  0  0  0  0  0  0
  188.4240  177.3720  144.3540 N   0  0  0  0  0  0  0  0  0  0  0  0
  187.9500  176.6100  142.0860 N   0  0  0  0  0  0  0  0  0  0  0  0
  188.0870  175.5920  141.0410 C   0  0  0  0  0  2  0  0  0  0  0  0
  188.9170  177.1920  145.6090 C   0  0  0  0  0  3  0  0  0  0  0  0
  189.3350  173.5500  140.2670 C   0  0  2  0  0  3  0  0  0  0  0  0
  188.0890  172.9510  140.0600 O   0  0  0  0  0  1  0  0  0  0  0  0
  190.3060  172.5450  140.6740 N   0  0  0  0  0  2  0  0  0  0  0  0
  191.7150  172.7110  140.5110 C   0  0  0  0  0  0  0  0  0  0  0  0
  192.1850  173.7750  140.0280 O   0  0  0  0  0  0  0  0  0  0  0  0
  192.6370  171.6010  140.8920 C   0  0  0  0  0  2  0  0  0  0  0  0
  192.3850  171.1500  142.3330 C   0  0  1  0  0  0  0  0  0  0  0  0
  194.1270  169.0360  141.6680 S   0  0  0  0  0  1  0  0  0  0  0  0
  191.6350  169.8420  142.4390 C   0  0  0  0  0  2  0  0  0  0  0  0
  193.0900  169.9140  142.8850 C   0  0  2  0  0  3  0  0  0  0  0  0
  191.9750  172.1750  143.3880 C   0  0  0  0  0  2  0  0  0  0  0  0
  193.1560  172.7070  144.1390 C   0  0  0  0  0  0  0  0  0  0  0  0
  193.6000  172.0920  145.0980 O   0  0  0  0  0  0  0  0  0  0  0  0
  193.7660  174.0070  143.7190 C   0  0  0  0  0  3  0  0  0  0  0  0
  193.3210  176.2730  142.7490 C   0  0  0  0  0  2  0  0  0  0  0  0
  195.4840  175.1080  142.2650 C   0  0  0  0  0  2  0  0  0  0  0  0
  194.4090  176.0360  141.7050 C   0  0  0  0  0  2  0  0  0  0  0  0
  194.8660  173.7770  142.6820 C   0  0  0  0  0  2  0  0  0  0  0  0
  192.6950  174.9460  143.1670 C   0  0  0  0  0  2  0  0  0  0  0  0
  187.3120  177.8140  141.7410 N   0  0  0  0  0  2  0  0  0  0  0  0
  183.8080  178.2900  140.5110 C   0  0  0  0  0  3  0  0  0  0  0  0
  183.1090  178.3870  141.7260 C   0  0  0  0  0  0  0  0  0  0  0  0
  185.1970  178.0960  142.9270 C   0  0  0  0  0  3  0  0  0  0  0  0
  185.1910  178.0940  140.5080 C   0  0  0  0  0  3  0  0  0  0  0  0
  185.8900  177.9840  141.7190 C   0  0  0  0  0  0  0  0  0  0  0  0
  183.8130  178.2920  142.9300 C   0  0  0  0  0  3  0  0  0  0  0  0
  181.7260  178.5800  141.7620 O   0  0  0  0  0  0  0  0  0  0  0  0
  180.8910  178.3730  140.6310 C   0  0  0  0  0  1  0  0  0  0  0  0
  189.9630  175.8060  147.2840 O   0  0  0  0  0  0  0  0  0  0  0  0
  191.2230  176.2230  147.7360 C   0  0  0  0  0  0  0  0  0  0  0  0
  191.2850  177.1480  148.5870 O   0  0  0  0  0  0  0  0  0  0  0  0
  192.4820  175.6760  147.2040 C   0  0  0  0  0  3  0  0  0  0  0  0
  193.3370  176.4040  146.4970 C   0  0  0  0  0  2  0  0  0  0  0  0
  1  6  2  0  0  0  0
  1  7  1  0  0  0  0
  2 11  1  6  0  0  0
  2  5  1  0  0  0  0
  3 39  1  0  0  0  0
  4  3  2  0  0  0  0
  5  6  1  0  0  0  0
  6  4  1  0  0  0  0
  7 10  2  0  0  0  0
  8  1  1  0  0  0  0
  9  2  1  0  0  0  0
  9  8  1  0  0  0  0
 10  3  1  0  0  0  0
 11 12  1  1  0  0  0
 11 13  1  0  0  0  0
 14 13  1  0  0  0  0
 14 16  1  0  0  0  0
 15 14  2  0  0  0  0
 17 16  1  6  0  0  0
 17 19  1  0  0  0  0
 17 20  1  0  0  0  0
 17 21  1  0  0  0  0
 19 20  1  0  0  0  0
 20 18  1  6  0  0  0
 21 22  1  0  0  0  0
 22 23  2  0  0  0  0
 24 22  1  0  0  0  0
 25 29  1  0  0  0  0
 26 28  1  0  0  0  0
 27 26  1  0  0  0  0
 27 25  1  0  0  0  0
 28 24  1  0  0  0  0
 29 24  1  0  0  0  0
 30  8  1  0  0  0  0
 31 32  1  0  0  0  0
 32 37  1  0  0  0  0
 32 36  2  0  0  0  0
 33 36  1  0  0  0  0
 34 31  2  0  0  0  0
 34 35  1  0  0  0  0
 35 30  1  0  0  0  0
 35 33  2  0  0  0  0
 38 37  1  0  0  0  0
 39 40  1  0  0  0  0
 40 41  2  0  0  0  0
 42 40  1  0  0  0  0
 43 42  2  0  0  0  0
M  END
>  <MODEL>
9

>  <REMARK>
 VINA RESULT:      -6.5      2.746      6.622
  Name = 
  13 active torsions:
  status: ('A' for Active; 'I' for Inactive)
    1  A    between atoms: N_1  and  N_34
    2  A    between atoms: N_1  and  C_35
    3  A    between atoms: C_2  and  N_6
    4  A    between atoms: C_2  and  C_13
    5  A    between atoms: C_3  and  C_4
    6  A    between atoms: C_3  and  C_12
    7  A    between atoms: C_4  and  C_22
    8  A    between atoms: C_5  and  C_18
    9  A    between atoms: C_5  and  O_23
   10  A    between atoms: C_11  and  C_14
   11  A    between atoms: C_14  and  C_22
   12  A    between atoms: C_16  and  O_23
   13  A    between atoms: C_19  and  O_25
                            x       y       z     vdW  Elec       q    Type
                         _______ _______ _______ _____ _____    ______ ____

>  <TORSDO>
F 13

$$$$
