=
 OpenBabel11052420443D

 43 48  0  0  1  0  0  0  0  0999 V2000
  184.6640  178.3640  146.0320 C   0  0  0  0  0  0  0  0  0  0  0  0
  188.8240  176.7280  145.7360 C   0  0  0  0  0  0  0  0  0  0  0  0
  188.9960  175.3980  143.2360 C   0  0  0  0  0  0  0  0  0  0  0  0
  187.2420  177.7560  146.7210 N   0  0  0  0  0  0  0  0  0  0  0  0
  184.9950  177.2770  143.9110 F   0  0  0  0  0  0  0  0  0  0  0  0
  183.3910  178.6890  145.6970 F   0  0  0  0  0  0  0  0  0  0  0  0
  186.7730  177.3730  145.5170 C   0  0  0  0  0  0  0  0  0  0  0  0
  185.1720  178.7490  147.2860 C   0  0  0  0  0  3  0  0  0  0  0  0
  185.4690  177.6580  145.1240 C   0  0  0  0  0  0  0  0  0  0  0  0
  187.8580  176.0280  143.5730 C   0  0  0  0  0  3  0  0  0  0  0  0
  187.7790  176.7020  144.8630 C   0  0  0  0  0  0  0  0  0  0  0  0
  188.5010  177.3720  146.8810 N   0  0  0  0  0  0  0  0  0  0  0  0
  190.0570  176.0720  145.4440 N   0  0  0  0  0  0  0  0  0  0  0  0
  190.2190  175.3550  144.1650 C   0  0  0  0  0  2  0  0  0  0  0  0
  186.4920  178.4290  147.6260 C   0  0  0  0  0  3  0  0  0  0  0  0
  189.0870  174.7410  141.9670 N   0  0  0  0  0  0  0  0  0  0  0  0
  190.4170  172.7930  139.1740 N   0  0  0  0  0  2  0  0  0  0  0  0
  190.1420  173.8460  141.5140 C   0  0  0  0  0  2  0  0  0  0  0  0
  188.1790  174.9360  140.9250 N   0  0  0  0  0  2  0  0  0  0  0  0
  189.6990  173.6010  140.1050 C   0  0  0  0  0  0  0  0  0  0  0  0
  188.6010  174.2160  139.8080 N   0  0  0  0  0  0  0  0  0  0  0  0
  189.9160  172.5410  137.8340 C   0  0  1  0  0  3  0  0  0  0  0  0
  190.5140  174.2360  136.0560 C   0  0  0  0  0  0  0  0  0  0  0  0
  190.8330  173.0950  136.8510 N   0  0  0  0  0  2  0  0  0  0  0  0
  189.4130  174.8300  136.2090 O   0  0  0  0  0  0  0  0  0  0  0  0
  191.5260  174.7520  135.0860 C   0  0  2  0  0  3  0  0  0  0  0  0
  191.8460  177.2250  134.8700 C   0  0  0  0  0  3  0  0  0  0  0  0
  193.1960  175.9430  136.5510 C   0  0  0  0  0  2  0  0  0  0  0  0
  193.1230  177.1820  135.6680 C   0  0  0  0  0  2  0  0  0  0  0  0
  192.9330  174.7040  135.6970 C   0  0  0  0  0  2  0  0  0  0  0  0
  191.1480  176.1220  134.5700 C   0  0  0  0  0  3  0  0  0  0  0  0
  189.7180  171.0430  137.6110 C   0  0  0  0  0  2  0  0  0  0  0  0
  191.1080  169.1910  136.7260 C   0  0  0  0  0  1  0  0  0  0  0  0
  190.5160  170.5460  136.4160 C   0  0  0  0  0  2  0  0  0  0  0  0
  191.0920  175.9670  146.4570 C   0  0  0  0  0  2  0  0  0  0  0  0
  192.1530  174.9640  146.0320 C   0  0  0  0  0  2  0  0  0  0  0  0
  194.9550  177.2490  145.4470 N   0  0  0  0  0  0  0  0  0  0  0  0
  195.3160  176.4770  144.4040 C   0  0  0  0  0  0  0  0  0  0  0  0
  196.8280  175.9250  142.4690 C   0  0  0  0  0  1  0  0  0  0  0  0
  193.3740  175.6620  145.5350 C   0  0  0  0  0  0  0  0  0  0  0  0
  193.8710  176.7960  146.0760 N   0  0  0  0  0  0  0  0  0  0  0  0
  196.4470  176.7690  143.5810 N   0  0  0  0  0  2  0  0  0  0  0  0
  194.2800  175.1590  144.2100 S   0  0  0  0  0  0  0  0  0  0  0  0
  1  8  1  0  0  0  0
  2 12  2  0  0  0  0
  3 10  2  0  0  0  0
  3 14  1  0  0  0  0
  4 12  1  0  0  0  0
  4 15  1  0  0  0  0
  5  9  1  0  0  0  0
  6  1  1  0  0  0  0
  7  4  1  0  0  0  0
  8 15  2  0  0  0  0
  9  7  1  0  0  0  0
  9  1  2  0  0  0  0
 10 11  1  0  0  0  0
 11  7  2  0  0  0  0
 11  2  1  0  0  0  0
 13  2  1  0  0  0  0
 13 35  1  0  0  0  0
 14 13  1  0  0  0  0
 16  3  1  0  0  0  0
 17 20  1  0  0  0  0
 18 16  1  0  0  0  0
 19 16  1  0  0  0  0
 20 18  1  0  0  0  0
 21 20  2  0  0  0  0
 21 19  1  0  0  0  0
 22 32  1  6  0  0  0
 22 17  1  0  0  0  0
 23 25  2  0  0  0  0
 23 24  1  0  0  0  0
 24 22  1  0  0  0  0
 26 30  1  0  0  0  0
 26 23  1  1  0  0  0
 27 29  1  0  0  0  0
 29 28  1  0  0  0  0
 30 28  1  0  0  0  0
 31 27  2  0  0  0  0
 31 26  1  0  0  0  0
 34 33  1  0  0  0  0
 34 32  1  0  0  0  0
 36 35  1  0  0  0  0
 37 41  1  0  0  0  0
 38 37  2  0  0  0  0
 39 42  1  0  0  0  0
 40 36  1  0  0  0  0
 40 41  2  0  0  0  0
 42 38  1  0  0  0  0
 43 38  1  0  0  0  0
 43 40  1  0  0  0  0
M  END
>  <MODEL>
1

>  <REMARK>
 VINA RESULT:      -8.1      0.000      0.000
  Name = 
  9 active torsions:
  status: ('A' for Active; 'I' for Inactive)
    1  A    between atoms: C_1  and  N_34
    2  A    between atoms: C_1  and  C_35
    3  A    between atoms: N_2  and  C_13
    4  A    between atoms: N_3  and  C_4
    5  A    between atoms: C_4  and  C_15
    6  A    between atoms: C_4  and  N_22
    7  A    between atoms: C_11  and  C_14
    8  A    between atoms: C_15  and  C_42
    9  A    between atoms: C_28  and  C_35
                            x       y       z     vdW  Elec       q    Type
                         _______ _______ _______ _____ _____    ______ ____

>  <TORSDO>
F 9

$$$$
=
 OpenBabel11052420443D

 43 48  0  0  1  0  0  0  0  0999 V2000
  196.0580  169.7940  145.8250 C   0  0  0  0  0  0  0  0  0  0  0  0
  196.3450  174.0550  144.4690 C   0  0  0  0  0  0  0  0  0  0  0  0
  193.7900  175.2140  144.8940 C   0  0  0  0  0  0  0  0  0  0  0  0
  197.1140  172.0960  144.7870 N   0  0  0  0  0  0  0  0  0  0  0  0
  193.9790  170.9440  146.2080 F   0  0  0  0  0  0  0  0  0  0  0  0
  195.5540  168.6520  146.3540 F   0  0  0  0  0  0  0  0  0  0  0  0
  195.8400  172.0940  145.2260 C   0  0  0  0  0  0  0  0  0  0  0  0
  197.3830  169.8160  145.3540 C   0  0  0  0  0  3  0  0  0  0  0  0
  195.2600  170.9470  145.7610 C   0  0  0  0  0  0  0  0  0  0  0  0
  194.0060  173.9380  145.2560 C   0  0  0  0  0  3  0  0  0  0  0  0
  195.3210  173.3510  145.0280 C   0  0  0  0  0  0  0  0  0  0  0  0
  197.4490  173.2890  144.3150 N   0  0  0  0  0  0  0  0  0  0  0  0
  196.1790  175.4090  144.0530 N   0  0  0  0  0  0  0  0  0  0  0  0
  194.8770  176.0780  144.2370 C   0  0  0  0  0  2  0  0  0  0  0  0
  197.9100  171.0000  144.8230 C   0  0  0  0  0  3  0  0  0  0  0  0
  192.5050  175.8030  145.1230 N   0  0  0  0  0  0  0  0  0  0  0  0
  189.1370  176.3400  146.4390 N   0  0  0  0  0  2  0  0  0  0  0  0
  191.5250  175.4120  146.1250 C   0  0  0  0  0  2  0  0  0  0  0  0
  191.9670  176.8210  144.3340 N   0  0  0  0  0  2  0  0  0  0  0  0
  190.3970  176.3290  145.7690 C   0  0  0  0  0  0  0  0  0  0  0  0
  190.6740  177.1050  144.7730 N   0  0  0  0  0  0  0  0  0  0  0  0
  188.0940  177.2890  146.0910 C   0  0  1  0  0  3  0  0  0  0  0  0
  186.6560  177.5430  144.0280 C   0  0  0  0  0  0  0  0  0  0  0  0
  187.2530  176.7360  145.0410 N   0  0  0  0  0  2  0  0  0  0  0  0
  186.8690  178.7840  143.9950 O   0  0  0  0  0  0  0  0  0  0  0  0
  185.8250  176.8880  142.9730 C   0  0  2  0  0  3  0  0  0  0  0  0
  184.9700  178.2720  141.0700 C   0  0  0  0  0  3  0  0  0  0  0  0
  187.2070  177.1530  140.8820 C   0  0  0  0  0  2  0  0  0  0  0  0
  186.0070  177.7140  140.1310 C   0  0  0  0  0  2  0  0  0  0  0  0
  186.7170  176.1740  141.9490 C   0  0  0  0  0  2  0  0  0  0  0  0
  184.8610  177.8670  142.3430 C   0  0  0  0  0  3  0  0  0  0  0  0
  187.2630  177.6440  147.3230 C   0  0  0  0  0  2  0  0  0  0  0  0
  184.8700  178.2780  147.1890 C   0  0  0  0  0  1  0  0  0  0  0  0
  185.8400  177.1200  147.2070 C   0  0  0  0  0  2  0  0  0  0  0  0
  197.2280  176.0820  143.3060 C   0  0  0  0  0  2  0  0  0  0  0  0
  196.7150  176.5180  141.9430 C   0  0  0  0  0  2  0  0  0  0  0  0
  197.5810  173.5380  139.9990 N   0  0  0  0  0  0  0  0  0  0  0  0
  196.5320  173.8030  139.1980 C   0  0  0  0  0  0  0  0  0  0  0  0
  195.0570  173.2830  137.2260 C   0  0  0  0  0  1  0  0  0  0  0  0
  196.7740  175.3920  140.9680 C   0  0  0  0  0  0  0  0  0  0  0  0
  197.7180  174.4240  140.9850 N   0  0  0  0  0  0  0  0  0  0  0  0
  196.1930  172.9900  138.0730 N   0  0  0  0  0  2  0  0  0  0  0  0
  195.7010  175.1880  139.6890 S   0  0  0  0  0  0  0  0  0  0  0  0
  1  6  1  0  0  0  0
  2 11  1  0  0  0  0
  3 16  1  0  0  0  0
  3 10  2  0  0  0  0
  4 15  1  0  0  0  0
  4  7  1  0  0  0  0
  7  9  1  0  0  0  0
  8  1  1  0  0  0  0
  9  1  2  0  0  0  0
  9  5  1  0  0  0  0
 11  7  2  0  0  0  0
 11 10  1  0  0  0  0
 12  2  2  0  0  0  0
 12  4  1  0  0  0  0
 13 14  1  0  0  0  0
 13  2  1  0  0  0  0
 14  3  1  0  0  0  0
 15  8  2  0  0  0  0
 16 18  1  0  0  0  0
 19 21  1  0  0  0  0
 19 16  1  0  0  0  0
 20 18  1  0  0  0  0
 20 17  1  0  0  0  0
 21 20  2  0  0  0  0
 22 17  1  0  0  0  0
 22 32  1  1  0  0  0
 23 24  1  0  0  0  0
 24 22  1  0  0  0  0
 25 23  2  0  0  0  0
 26 23  1  1  0  0  0
 27 31  2  0  0  0  0
 28 30  1  0  0  0  0
 29 28  1  0  0  0  0
 29 27  1  0  0  0  0
 30 26  1  0  0  0  0
 31 26  1  0  0  0  0
 33 34  1  0  0  0  0
 34 32  1  0  0  0  0
 35 13  1  0  0  0  0
 36 35  1  0  0  0  0
 37 41  1  0  0  0  0
 38 43  1  0  0  0  0
 38 37  2  0  0  0  0
 39 42  1  0  0  0  0
 40 41  2  0  0  0  0
 40 36  1  0  0  0  0
 42 38  1  0  0  0  0
 43 40  1  0  0  0  0
M  END
>  <MODEL>
2

>  <REMARK>
 VINA RESULT:      -7.9      4.559      9.339
  Name = 
  9 active torsions:
  status: ('A' for Active; 'I' for Inactive)
    1  A    between atoms: C_1  and  N_34
    2  A    between atoms: C_1  and  C_35
    3  A    between atoms: N_2  and  C_13
    4  A    between atoms: N_3  and  C_4
    5  A    between atoms: C_4  and  C_15
    6  A    between atoms: C_4  and  N_22
    7  A    between atoms: C_11  and  C_14
    8  A    between atoms: C_15  and  C_42
    9  A    between atoms: C_28  and  C_35
                            x       y       z     vdW  Elec       q    Type
                         _______ _______ _______ _____ _____    ______ ____

>  <TORSDO>
F 9

$$$$
=
 OpenBabel11052420443D

 43 48  0  0  1  0  0  0  0  0999 V2000
  186.7270  178.1190  147.7940 C   0  0  0  0  0  0  0  0  0  0  0  0
  186.9320  178.0310  143.3190 C   0  0  0  0  0  0  0  0  0  0  0  0
  184.2600  178.2120  142.3820 C   0  0  0  0  0  0  0  0  0  0  0  0
  187.7780  177.9700  145.2710 N   0  0  0  0  0  0  0  0  0  0  0  0
  184.5290  178.3570  146.8440 F   0  0  0  0  0  0  0  0  0  0  0  0
  186.2230  178.2110  149.0490 F   0  0  0  0  0  0  0  0  0  0  0  0
  186.4470  178.1210  145.4240 C   0  0  0  0  0  0  0  0  0  0  0  0
  188.1120  177.9540  147.6120 C   0  0  0  0  0  3  0  0  0  0  0  0
  185.8680  178.2000  146.6870 C   0  0  0  0  0  0  0  0  0  0  0  0
  184.5020  178.2600  143.7030 C   0  0  0  0  0  3  0  0  0  0  0  0
  185.8780  178.1600  144.1740 C   0  0  0  0  0  0  0  0  0  0  0  0
  188.1020  177.9110  143.9860 N   0  0  0  0  0  0  0  0  0  0  0  0
  186.7420  177.9640  141.9070 N   0  0  0  0  0  0  0  0  0  0  0  0
  185.3810  178.0460  141.3460 C   0  0  0  0  0  2  0  0  0  0  0  0
  188.6360  177.8770  146.3150 C   0  0  0  0  0  3  0  0  0  0  0  0
  182.9120  178.3190  141.9100 N   0  0  0  0  0  0  0  0  0  0  0  0
  180.0230  178.2680  139.6700 N   0  0  0  0  0  2  0  0  0  0  0  0
  182.4030  177.9230  140.6050 C   0  0  0  0  0  2  0  0  0  0  0  0
  181.8790  178.9120  142.6380 N   0  0  0  0  0  2  0  0  0  0  0  0
  180.9850  178.3870  140.7170 C   0  0  0  0  0  0  0  0  0  0  0  0
  180.7220  178.9280  141.8620 N   0  0  0  0  0  0  0  0  0  0  0  0
  178.6430  178.6850  139.8490 C   0  0  1  0  0  3  0  0  0  0  0  0
  178.2170  181.1470  139.4690 C   0  0  0  0  0  0  0  0  0  0  0  0
  178.3500  179.8140  138.9810 N   0  0  0  0  0  2  0  0  0  0  0  0
  178.3840  181.3960  140.6930 O   0  0  0  0  0  0  0  0  0  0  0  0
  177.9390  182.2520  138.5020 C   0  0  2  0  0  3  0  0  0  0  0  0
  178.6810  184.5740  139.0680 C   0  0  0  0  0  3  0  0  0  0  0  0
  180.2360  183.0430  137.8310 C   0  0  0  0  0  2  0  0  0  0  0  0
  179.8490  184.4880  138.1210 C   0  0  0  0  0  2  0  0  0  0  0  0
  178.9940  182.2720  137.3880 C   0  0  0  0  0  2  0  0  0  0  0  0
  177.7940  183.5810  139.2080 C   0  0  0  0  0  3  0  0  0  0  0  0
  177.6940  177.5210  139.5670 C   0  0  0  0  0  2  0  0  0  0  0  0
  177.7100  177.2410  142.0310 C   0  0  0  0  0  1  0  0  0  0  0  0
  177.6910  176.5140  140.7070 C   0  0  0  0  0  2  0  0  0  0  0  0
  187.8580  177.6550  141.0290 C   0  0  0  0  0  2  0  0  0  0  0  0
  187.7900  176.2080  140.5710 C   0  0  0  0  0  2  0  0  0  0  0  0
  190.3810  174.8630  142.7830 N   0  0  0  0  0  0  0  0  0  0  0  0
  189.9290  173.6270  142.4970 C   0  0  0  0  0  0  0  0  0  0  0  0
  190.0120  171.1230  142.7330 C   0  0  0  0  0  1  0  0  0  0  0  0
  188.6920  175.3480  141.3890 C   0  0  0  0  0  0  0  0  0  0  0  0
  189.6930  175.8230  142.1650 N   0  0  0  0  0  0  0  0  0  0  0  0
  190.5140  172.4440  143.0430 N   0  0  0  0  0  2  0  0  0  0  0  0
  188.6180  173.6690  141.4340 S   0  0  0  0  0  0  0  0  0  0  0  0
  1  6  1  0  0  0  0
  2 12  2  0  0  0  0
  2 11  1  0  0  0  0
  3 10  2  0  0  0  0
  4  7  1  0  0  0  0
  4 15  1  0  0  0  0
  7  9  1  0  0  0  0
  8  1  1  0  0  0  0
  9  5  1  0  0  0  0
  9  1  2  0  0  0  0
 10 11  1  0  0  0  0
 11  7  2  0  0  0  0
 12  4  1  0  0  0  0
 13  2  1  0  0  0  0
 14 13  1  0  0  0  0
 14  3  1  0  0  0  0
 15  8  2  0  0  0  0
 16  3  1  0  0  0  0
 16 19  1  0  0  0  0
 17 22  1  0  0  0  0
 17 20  1  0  0  0  0
 18 20  1  0  0  0  0
 18 16  1  0  0  0  0
 20 21  2  0  0  0  0
 21 19  1  0  0  0  0
 22 32  1  6  0  0  0
 23 25  2  0  0  0  0
 24 23  1  0  0  0  0
 24 22  1  0  0  0  0
 26 31  1  0  0  0  0
 26 23  1  1  0  0  0
 27 31  2  0  0  0  0
 28 29  1  0  0  0  0
 29 27  1  0  0  0  0
 30 28  1  0  0  0  0
 30 26  1  0  0  0  0
 32 34  1  0  0  0  0
 34 33  1  0  0  0  0
 35 13  1  0  0  0  0
 36 35  1  0  0  0  0
 36 40  1  0  0  0  0
 38 37  2  0  0  0  0
 38 42  1  0  0  0  0
 39 42  1  0  0  0  0
 40 43  1  0  0  0  0
 40 41  2  0  0  0  0
 41 37  1  0  0  0  0
 43 38  1  0  0  0  0
M  END
>  <MODEL>
3

>  <REMARK>
 VINA RESULT:      -7.8      6.652      9.683
  Name = 
  9 active torsions:
  status: ('A' for Active; 'I' for Inactive)
    1  A    between atoms: C_1  and  N_34
    2  A    between atoms: C_1  and  C_35
    3  A    between atoms: N_2  and  C_13
    4  A    between atoms: N_3  and  C_4
    5  A    between atoms: C_4  and  C_15
    6  A    between atoms: C_4  and  N_22
    7  A    between atoms: C_11  and  C_14
    8  A    between atoms: C_15  and  C_42
    9  A    between atoms: C_28  and  C_35
                            x       y       z     vdW  Elec       q    Type
                         _______ _______ _______ _____ _____    ______ ____

>  <TORSDO>
F 9

$$$$
=
 OpenBabel11052420443D

 43 48  0  0  1  0  0  0  0  0999 V2000
  184.4890  178.4910  145.2220 C   0  0  0  0  0  0  0  0  0  0  0  0
  188.3850  176.3100  145.5890 C   0  0  0  0  0  0  0  0  0  0  0  0
  188.8320  175.0250  143.1000 C   0  0  0  0  0  0  0  0  0  0  0  0
  186.7990  177.5220  146.3250 N   0  0  0  0  0  0  0  0  0  0  0  0
  185.0540  177.4160  143.1440 F   0  0  0  0  0  0  0  0  0  0  0  0
  183.3510  178.9940  144.6820 F   0  0  0  0  0  0  0  0  0  0  0  0
  186.5090  177.2330  145.0420 C   0  0  0  0  0  0  0  0  0  0  0  0
  184.8070  178.7750  146.5620 C   0  0  0  0  0  3  0  0  0  0  0  0
  185.3460  177.7020  144.4380 C   0  0  0  0  0  0  0  0  0  0  0  0
  187.7440  175.7960  143.2600 C   0  0  0  0  0  3  0  0  0  0  0  0
  187.5210  176.4460  144.5450 C   0  0  0  0  0  0  0  0  0  0  0  0
  187.9470  176.9670  146.6870 N   0  0  0  0  0  0  0  0  0  0  0  0
  189.5540  175.4990  145.4890 N   0  0  0  0  0  0  0  0  0  0  0  0
  189.8500  174.7940  144.2270 C   0  0  0  0  0  2  0  0  0  0  0  0
  185.9910  178.2720  147.1140 C   0  0  0  0  0  3  0  0  0  0  0  0
  189.0650  174.3890  141.8380 N   0  0  0  0  0  0  0  0  0  0  0  0
  190.5390  172.2420  139.2720 N   0  0  0  0  0  2  0  0  0  0  0  0
  189.9730  173.2850  141.5640 C   0  0  0  0  0  2  0  0  0  0  0  0
  188.4860  174.8080  140.6390 N   0  0  0  0  0  2  0  0  0  0  0  0
  189.8220  173.1760  140.0790 C   0  0  0  0  0  0  0  0  0  0  0  0
  188.9840  174.0320  139.5940 N   0  0  0  0  0  0  0  0  0  0  0  0
  190.3160  172.1390  137.8400 C   0  0  1  0  0  3  0  0  0  0  0  0
  192.0930  173.5130  136.6820 C   0  0  0  0  0  0  0  0  0  0  0  0
  191.5800  172.2610  137.1320 N   0  0  0  0  0  2  0  0  0  0  0  0
  191.4660  174.5800  136.9180 O   0  0  0  0  0  0  0  0  0  0  0  0
  193.4130  173.5490  135.9830 C   0  0  2  0  0  3  0  0  0  0  0  0
  194.7310  175.6770  135.9890 C   0  0  0  0  0  3  0  0  0  0  0  0
  195.0540  174.0140  137.8390 C   0  0  0  0  0  2  0  0  0  0  0  0
  195.6760  175.1500  137.0370 C   0  0  0  0  0  2  0  0  0  0  0  0
  194.5130  172.9590  136.8750 C   0  0  0  0  0  2  0  0  0  0  0  0
  193.7350  174.9390  135.4820 C   0  0  0  0  0  3  0  0  0  0  0  0
  189.6270  170.8180  137.5010 C   0  0  0  0  0  2  0  0  0  0  0  0
  190.4340  168.5100  137.9110 C   0  0  0  0  0  1  0  0  0  0  0  0
  190.6310  169.7570  137.0800 C   0  0  0  0  0  2  0  0  0  0  0  0
  190.3660  175.2310  146.6630 C   0  0  0  0  0  2  0  0  0  0  0  0
  191.4820  176.2560  146.7830 C   0  0  0  0  0  2  0  0  0  0  0  0
  194.3010  174.3210  145.4690 N   0  0  0  0  0  0  0  0  0  0  0  0
  194.7620  175.4520  144.9000 C   0  0  0  0  0  0  0  0  0  0  0  0
  196.4460  176.7190  143.5250 C   0  0  0  0  0  1  0  0  0  0  0  0
  192.7170  175.7790  146.0960 C   0  0  0  0  0  0  0  0  0  0  0  0
  193.1630  174.5040  146.1360 N   0  0  0  0  0  0  0  0  0  0  0  0
  195.9680  175.4980  144.1370 N   0  0  0  0  0  2  0  0  0  0  0  0
  193.7490  176.7670  145.2080 S   0  0  0  0  0  0  0  0  0  0  0  0
  1  8  1  0  0  0  0
  2 12  2  0  0  0  0
  3 10  2  0  0  0  0
  3 14  1  0  0  0  0
  4 12  1  0  0  0  0
  4 15  1  0  0  0  0
  5  9  1  0  0  0  0
  6  1  1  0  0  0  0
  7  4  1  0  0  0  0
  8 15  2  0  0  0  0
  9  7  1  0  0  0  0
  9  1  2  0  0  0  0
 10 11  1  0  0  0  0
 11  7  2  0  0  0  0
 11  2  1  0  0  0  0
 13  2  1  0  0  0  0
 13 35  1  0  0  0  0
 14 13  1  0  0  0  0
 16  3  1  0  0  0  0
 17 20  1  0  0  0  0
 18 16  1  0  0  0  0
 19 16  1  0  0  0  0
 20 18  1  0  0  0  0
 21 20  2  0  0  0  0
 21 19  1  0  0  0  0
 22 32  1  1  0  0  0
 22 17  1  0  0  0  0
 23 25  2  0  0  0  0
 23 24  1  0  0  0  0
 24 22  1  0  0  0  0
 26 23  1  1  0  0  0
 26 30  1  0  0  0  0
 27 29  1  0  0  0  0
 29 28  1  0  0  0  0
 30 28  1  0  0  0  0
 31 26  1  0  0  0  0
 31 27  2  0  0  0  0
 34 32  1  0  0  0  0
 34 33  1  0  0  0  0
 35 36  1  0  0  0  0
 37 41  1  0  0  0  0
 38 43  1  0  0  0  0
 38 37  2  0  0  0  0
 39 42  1  0  0  0  0
 40 41  2  0  0  0  0
 40 36  1  0  0  0  0
 42 38  1  0  0  0  0
 43 40  1  0  0  0  0
M  END
>  <MODEL>
4

>  <REMARK>
 VINA RESULT:      -7.6      1.312      1.570
  Name = 
  9 active torsions:
  status: ('A' for Active; 'I' for Inactive)
    1  A    between atoms: C_1  and  N_34
    2  A    between atoms: C_1  and  C_35
    3  A    between atoms: N_2  and  C_13
    4  A    between atoms: N_3  and  C_4
    5  A    between atoms: C_4  and  C_15
    6  A    between atoms: C_4  and  N_22
    7  A    between atoms: C_11  and  C_14
    8  A    between atoms: C_15  and  C_42
    9  A    between atoms: C_28  and  C_35
                            x       y       z     vdW  Elec       q    Type
                         _______ _______ _______ _____ _____    ______ ____

>  <TORSDO>
F 9

$$$$
=
 OpenBabel11052420443D

 43 48  0  0  1  0  0  0  0  0999 V2000
  185.7220  178.6420  146.4500 C   0  0  0  0  0  0  0  0  0  0  0  0
  187.4690  176.1590  143.1560 C   0  0  0  0  0  0  0  0  0  0  0  0
  190.0940  175.4580  143.9740 C   0  0  0  0  0  0  0  0  0  0  0  0
  185.9390  177.3300  144.0580 N   0  0  0  0  0  0  0  0  0  0  0  0
  187.9310  177.8900  147.0410 F   0  0  0  0  0  0  0  0  0  0  0  0
  185.5940  179.2810  147.6390 F   0  0  0  0  0  0  0  0  0  0  0  0
  186.9650  177.2850  144.9300 C   0  0  0  0  0  0  0  0  0  0  0  0
  184.6660  178.6820  145.5220 C   0  0  0  0  0  3  0  0  0  0  0  0
  186.9010  177.9380  146.1580 C   0  0  0  0  0  0  0  0  0  0  0  0
  189.3130  176.1750  144.8000 C   0  0  0  0  0  3  0  0  0  0  0  0
  187.9690  176.5350  144.3670 C   0  0  0  0  0  0  0  0  0  0  0  0
  186.2230  176.6460  142.9580 N   0  0  0  0  0  0  0  0  0  0  0  0
  188.2490  175.4060  142.2290 N   0  0  0  0  0  0  0  0  0  0  0  0
  189.6250  175.0090  142.5820 C   0  0  0  0  0  2  0  0  0  0  0  0
  184.7910  178.0080  144.3020 C   0  0  0  0  0  3  0  0  0  0  0  0
  191.4130  175.0910  144.3950 N   0  0  0  0  0  0  0  0  0  0  0  0
  194.8410  173.8250  144.3000 N   0  0  0  0  0  2  0  0  0  0  0  0
  192.5160  174.6580  143.5510 C   0  0  0  0  0  2  0  0  0  0  0  0
  191.8110  175.0240  145.7320 N   0  0  0  0  0  2  0  0  0  0  0  0
  193.5420  174.3380  144.5920 C   0  0  0  0  0  0  0  0  0  0  0  0
  193.1220  174.5570  145.7960 N   0  0  0  0  0  0  0  0  0  0  0  0
  195.8200  173.5820  145.3450 C   0  0  1  0  0  3  0  0  0  0  0  0
  195.3270  171.1180  145.6140 C   0  0  0  0  0  0  0  0  0  0  0  0
  196.2270  172.1860  145.3270 N   0  0  0  0  0  2  0  0  0  0  0  0
  194.1170  171.3560  145.8670 O   0  0  0  0  0  0  0  0  0  0  0  0
  195.8260  169.7100  145.5490 C   0  0  2  0  0  3  0  0  0  0  0  0
  197.4780  168.9290  147.2590 C   0  0  0  0  0  3  0  0  0  0  0  0
  195.0220  168.6950  147.7100 C   0  0  0  0  0  2  0  0  0  0  0  0
  196.4180  168.1660  148.0090 C   0  0  0  0  0  2  0  0  0  0  0  0
  194.8200  168.7500  146.1970 C   0  0  0  0  0  2  0  0  0  0  0  0
  197.2190  169.5910  146.1240 C   0  0  0  0  0  3  0  0  0  0  0  0
  197.0260  174.5030  145.1710 C   0  0  0  0  0  2  0  0  0  0  0  0
  197.4080  175.8070  143.0970 C   0  0  0  0  0  1  0  0  0  0  0  0
  197.5660  174.4540  143.7490 C   0  0  0  0  0  2  0  0  0  0  0  0
  187.7610  175.1650  140.8820 C   0  0  0  0  0  2  0  0  0  0  0  0
  188.4240  173.9330  140.2880 C   0  0  0  0  0  2  0  0  0  0  0  0
  188.1880  174.8070  136.7380 N   0  0  0  0  0  0  0  0  0  0  0  0
  189.2840  174.0540  136.5210 C   0  0  0  0  0  0  0  0  0  0  0  0
  191.0400  173.0760  135.0070 C   0  0  0  0  0  1  0  0  0  0  0  0
  188.6280  174.0970  138.8200 C   0  0  0  0  0  0  0  0  0  0  0  0
  187.8210  174.8290  138.0190 N   0  0  0  0  0  0  0  0  0  0  0  0
  189.8580  173.8810  135.2240 N   0  0  0  0  0  2  0  0  0  0  0  0
  189.8640  173.3630  137.9470 S   0  0  0  0  0  0  0  0  0  0  0  0
  1  6  1  0  0  0  0
  2 11  1  0  0  0  0
  3 16  1  0  0  0  0
  3 10  2  0  0  0  0
  4 15  1  0  0  0  0
  4  7  1  0  0  0  0
  7  9  1  0  0  0  0
  8  1  1  0  0  0  0
  9  1  2  0  0  0  0
  9  5  1  0  0  0  0
 11 10  1  0  0  0  0
 11  7  2  0  0  0  0
 12  2  2  0  0  0  0
 12  4  1  0  0  0  0
 13 14  1  0  0  0  0
 13  2  1  0  0  0  0
 14  3  1  0  0  0  0
 15  8  2  0  0  0  0
 16 19  1  0  0  0  0
 17 20  1  0  0  0  0
 17 22  1  0  0  0  0
 18 16  1  0  0  0  0
 18 20  1  0  0  0  0
 19 21  1  0  0  0  0
 20 21  2  0  0  0  0
 22 32  1  6  0  0  0
 23 25  2  0  0  0  0
 24 22  1  0  0  0  0
 24 23  1  0  0  0  0
 26 23  1  1  0  0  0
 26 31  1  0  0  0  0
 26 30  1  0  0  0  0
 27 29  1  0  0  0  0
 28 29  1  0  0  0  0
 30 28  1  0  0  0  0
 31 27  2  0  0  0  0
 33 34  1  0  0  0  0
 34 32  1  0  0  0  0
 35 13  1  0  0  0  0
 36 35  1  0  0  0  0
 37 41  1  0  0  0  0
 38 37  2  0  0  0  0
 38 43  1  0  0  0  0
 39 42  1  0  0  0  0
 40 36  1  0  0  0  0
 41 40  2  0  0  0  0
 42 38  1  0  0  0  0
 43 40  1  0  0  0  0
M  END
>  <MODEL>
5

>  <REMARK>
 VINA RESULT:      -7.6      4.055      8.482
  Name = 
  9 active torsions:
  status: ('A' for Active; 'I' for Inactive)
    1  A    between atoms: C_1  and  N_34
    2  A    between atoms: C_1  and  C_35
    3  A    between atoms: N_2  and  C_13
    4  A    between atoms: N_3  and  C_4
    5  A    between atoms: C_4  and  C_15
    6  A    between atoms: C_4  and  N_22
    7  A    between atoms: C_11  and  C_14
    8  A    between atoms: C_15  and  C_42
    9  A    between atoms: C_28  and  C_35
                            x       y       z     vdW  Elec       q    Type
                         _______ _______ _______ _____ _____    ______ ____

>  <TORSDO>
F 9

$$$$
=
 OpenBabel11052420443D

 43 48  0  0  1  0  0  0  0  0999 V2000
  184.5160  178.2100  146.0330 C   0  0  0  0  0  0  0  0  0  0  0  0
  186.2770  177.2230  142.0330 C   0  0  0  0  0  0  0  0  0  0  0  0
  188.4790  175.5010  142.5200 C   0  0  0  0  0  0  0  0  0  0  0  0
  184.8950  178.2010  143.3220 N   0  0  0  0  0  0  0  0  0  0  0  0
  186.3520  176.6730  146.2750 F   0  0  0  0  0  0  0  0  0  0  0  0
  184.3050  178.2090  147.3720 F   0  0  0  0  0  0  0  0  0  0  0  0
  185.7000  177.4550  144.1030 C   0  0  0  0  0  0  0  0  0  0  0  0
  183.6920  178.9880  145.2000 C   0  0  0  0  0  3  0  0  0  0  0  0
  185.5460  177.4280  145.4860 C   0  0  0  0  0  0  0  0  0  0  0  0
  187.7300  175.9250  143.5520 C   0  0  0  0  0  3  0  0  0  0  0  0
  186.6050  176.8140  143.2910 C   0  0  0  0  0  0  0  0  0  0  0  0
  185.2290  178.0780  142.0450 N   0  0  0  0  0  0  0  0  0  0  0  0
  187.0370  176.8180  140.8950 N   0  0  0  0  0  0  0  0  0  0  0  0
  188.1990  175.9270  141.0710 C   0  0  0  0  0  2  0  0  0  0  0  0
  183.8980  178.9760  143.8150 C   0  0  0  0  0  3  0  0  0  0  0  0
  189.5800  174.6190  142.7650 N   0  0  0  0  0  0  0  0  0  0  0  0
  192.2500  172.8290  144.5060 N   0  0  0  0  0  2  0  0  0  0  0  0
  190.1590  174.2720  144.0550 C   0  0  0  0  0  2  0  0  0  0  0  0
  190.3260  174.0090  141.7540 N   0  0  0  0  0  2  0  0  0  0  0  0
  191.3070  173.4200  143.6130 C   0  0  0  0  0  0  0  0  0  0  0  0
  191.3710  173.2880  142.3280 N   0  0  0  0  0  0  0  0  0  0  0  0
  193.3160  171.9640  144.0310 C   0  0  1  0  0  3  0  0  0  0  0  0
  195.3030  173.1770  143.0460 C   0  0  0  0  0  0  0  0  0  0  0  0
  194.5970  172.6400  144.1630 N   0  0  0  0  0  2  0  0  0  0  0  0
  194.8110  173.1090  141.8890 O   0  0  0  0  0  0  0  0  0  0  0  0
  196.6030  173.8770  143.2770 C   0  0  2  0  0  3  0  0  0  0  0  0
  197.1960  175.8380  141.8390 C   0  0  0  0  0  3  0  0  0  0  0  0
  195.9120  176.2010  143.9630 C   0  0  0  0  0  2  0  0  0  0  0  0
  196.8590  176.8120  142.9380 C   0  0  0  0  0  2  0  0  0  0  0  0
  196.4840  174.8680  144.4420 C   0  0  0  0  0  2  0  0  0  0  0  0
  197.1220  174.5110  142.0060 C   0  0  0  0  0  3  0  0  0  0  0  0
  193.3150  170.6440  144.7990 C   0  0  0  0  0  2  0  0  0  0  0  0
  194.6620  169.4320  146.4910 C   0  0  0  0  0  1  0  0  0  0  0  0
  194.7200  170.2380  145.2140 C   0  0  0  0  0  2  0  0  0  0  0  0
  186.7750  177.4010  139.5910 C   0  0  0  0  0  2  0  0  0  0  0  0
  186.0940  176.3900  138.6830 C   0  0  0  0  0  2  0  0  0  0  0  0
  187.9330  176.0950  135.5300 N   0  0  0  0  0  0  0  0  0  0  0  0
  188.5220  174.9890  136.0220 C   0  0  0  0  0  0  0  0  0  0  0  0
  190.1030  173.0400  135.8230 C   0  0  0  0  0  1  0  0  0  0  0  0
  186.9940  175.9910  137.5630 C   0  0  0  0  0  0  0  0  0  0  0  0
  187.0800  176.6530  136.3880 N   0  0  0  0  0  0  0  0  0  0  0  0
  189.4710  174.2220  135.2780 N   0  0  0  0  0  2  0  0  0  0  0  0
  187.9970  174.6410  137.5880 S   0  0  0  0  0  0  0  0  0  0  0  0
  1  6  1  0  0  0  0
  2 12  2  0  0  0  0
  2 11  1  0  0  0  0
  3 16  1  0  0  0  0
  3 10  2  0  0  0  0
  4 15  1  0  0  0  0
  4  7  1  0  0  0  0
  7  9  1  0  0  0  0
  8  1  1  0  0  0  0
  9  1  2  0  0  0  0
  9  5  1  0  0  0  0
 11 10  1  0  0  0  0
 11  7  2  0  0  0  0
 12  4  1  0  0  0  0
 13 14  1  0  0  0  0
 13  2  1  0  0  0  0
 14  3  1  0  0  0  0
 15  8  2  0  0  0  0
 16 18  1  0  0  0  0
 19 21  1  0  0  0  0
 19 16  1  0  0  0  0
 20 18  1  0  0  0  0
 20 17  1  0  0  0  0
 21 20  2  0  0  0  0
 22 24  1  0  0  0  0
 22 17  1  0  0  0  0
 22 32  1  1  0  0  0
 23 24  1  0  0  0  0
 25 23  2  0  0  0  0
 26 23  1  6  0  0  0
 26 30  1  0  0  0  0
 27 31  2  0  0  0  0
 27 29  1  0  0  0  0
 28 30  1  0  0  0  0
 29 28  1  0  0  0  0
 31 26  1  0  0  0  0
 32 34  1  0  0  0  0
 34 33  1  0  0  0  0
 35 13  1  0  0  0  0
 36 35  1  0  0  0  0
 37 38  2  0  0  0  0
 37 41  1  0  0  0  0
 38 43  1  0  0  0  0
 40 43  1  0  0  0  0
 40 36  1  0  0  0  0
 41 40  2  0  0  0  0
 42 39  1  0  0  0  0
 42 38  1  0  0  0  0
M  END
>  <MODEL>
6

>  <REMARK>
 VINA RESULT:      -7.4      3.465      7.195
  Name = 
  9 active torsions:
  status: ('A' for Active; 'I' for Inactive)
    1  A    between atoms: C_1  and  N_34
    2  A    between atoms: C_1  and  C_35
    3  A    between atoms: N_2  and  C_13
    4  A    between atoms: N_3  and  C_4
    5  A    between atoms: C_4  and  C_15
    6  A    between atoms: C_4  and  N_22
    7  A    between atoms: C_11  and  C_14
    8  A    between atoms: C_15  and  C_42
    9  A    between atoms: C_28  and  C_35
                            x       y       z     vdW  Elec       q    Type
                         _______ _______ _______ _____ _____    ______ ____

>  <TORSDO>
F 9

$$$$
=
 OpenBabel11052420443D

 43 48  0  0  1  0  0  0  0  0999 V2000
  186.7410  178.7100  147.7160 C   0  0  0  0  0  0  0  0  0  0  0  0
  187.7320  176.0380  144.2590 C   0  0  0  0  0  0  0  0  0  0  0  0
  190.5260  175.5600  144.3800 C   0  0  0  0  0  0  0  0  0  0  0  0
  186.4120  177.2000  145.4570 N   0  0  0  0  0  0  0  0  0  0  0  0
  189.0780  178.1370  147.7350 F   0  0  0  0  0  0  0  0  0  0  0  0
  186.8850  179.4450  148.8460 F   0  0  0  0  0  0  0  0  0  0  0  0
  187.6340  177.2910  146.0180 C   0  0  0  0  0  0  0  0  0  0  0  0
  185.4750  178.6070  147.1110 C   0  0  0  0  0  3  0  0  0  0  0  0
  187.8490  178.0470  147.1660 C   0  0  0  0  0  0  0  0  0  0  0  0
  189.9410  176.3040  145.3330 C   0  0  0  0  0  3  0  0  0  0  0  0
  188.5060  176.5490  145.2570 C   0  0  0  0  0  0  0  0  0  0  0  0
  186.4450  176.4360  144.3730 N   0  0  0  0  0  0  0  0  0  0  0  0
  188.2920  175.2480  143.2110 N   0  0  0  0  0  0  0  0  0  0  0  0
  189.7390  174.9610  143.2040 C   0  0  0  0  0  2  0  0  0  0  0  0
  185.3220  177.8330  145.9540 C   0  0  0  0  0  3  0  0  0  0  0  0
  191.9340  175.3060  144.4500 N   0  0  0  0  0  0  0  0  0  0  0  0
  195.4910  175.3110  143.6060 N   0  0  0  0  0  2  0  0  0  0  0  0
  192.9750  175.8850  143.6150 C   0  0  0  0  0  2  0  0  0  0  0  0
  192.5120  174.3740  145.3140 N   0  0  0  0  0  2  0  0  0  0  0  0
  194.1710  175.1430  144.1220 C   0  0  0  0  0  0  0  0  0  0  0  0
  193.8830  174.3130  145.0710 N   0  0  0  0  0  0  0  0  0  0  0  0
  196.6280  174.6060  144.1710 C   0  0  1  0  0  3  0  0  0  0  0  0
  196.7670  172.2050  144.9480 C   0  0  0  0  0  0  0  0  0  0  0  0
  196.4880  173.1770  143.9420 N   0  0  0  0  0  2  0  0  0  0  0  0
  197.1220  172.5660  146.1020 O   0  0  0  0  0  0  0  0  0  0  0  0
  196.5730  170.7570  144.6340 C   0  0  2  0  0  3  0  0  0  0  0  0
  197.0550  169.0560  146.4050 C   0  0  0  0  0  3  0  0  0  0  0  0
  194.7560  170.0430  146.2270 C   0  0  0  0  0  2  0  0  0  0  0  0
  195.5890  168.8500  146.6800 C   0  0  0  0  0  2  0  0  0  0  0  0
  195.0960  170.3670  144.7730 C   0  0  0  0  0  2  0  0  0  0  0  0
  197.4990  169.8850  145.4520 C   0  0  0  0  0  3  0  0  0  0  0  0
  197.9320  175.1280  143.5700 C   0  0  0  0  0  2  0  0  0  0  0  0
  197.9300  174.9260  141.0990 C   0  0  0  0  0  1  0  0  0  0  0  0
  197.6880  175.8620  142.2600 C   0  0  0  0  0  2  0  0  0  0  0  0
  187.4820  174.8600  142.0700 C   0  0  0  0  0  2  0  0  0  0  0  0
  188.0740  175.4150  140.7840 C   0  0  0  0  0  2  0  0  0  0  0  0
  188.5300  173.1860  137.9150 N   0  0  0  0  0  0  0  0  0  0  0  0
  189.1940  172.3400  138.7260 C   0  0  0  0  0  0  0  0  0  0  0  0
  190.4510  170.2020  139.1560 C   0  0  0  0  0  1  0  0  0  0  0  0
  188.4450  174.3130  139.8510 C   0  0  0  0  0  0  0  0  0  0  0  0
  188.1110  174.2840  138.5410 N   0  0  0  0  0  0  0  0  0  0  0  0
  189.7320  171.0970  138.2740 N   0  0  0  0  0  2  0  0  0  0  0  0
  189.2940  172.9330  140.3040 S   0  0  0  0  0  0  0  0  0  0  0  0
  1  6  1  0  0  0  0
  2 12  2  0  0  0  0
  2 11  1  0  0  0  0
  3 16  1  0  0  0  0
  3 10  2  0  0  0  0
  4 15  1  0  0  0  0
  4  7  1  0  0  0  0
  7  9  1  0  0  0  0
  8  1  1  0  0  0  0
  9  1  2  0  0  0  0
  9  5  1  0  0  0  0
 11 10  1  0  0  0  0
 11  7  2  0  0  0  0
 12  4  1  0  0  0  0
 13  2  1  0  0  0  0
 14 13  1  0  0  0  0
 14  3  1  0  0  0  0
 15  8  2  0  0  0  0
 16 19  1  0  0  0  0
 17 20  1  0  0  0  0
 17 22  1  0  0  0  0
 18 20  1  0  0  0  0
 18 16  1  0  0  0  0
 20 21  2  0  0  0  0
 21 19  1  0  0  0  0
 22 32  1  6  0  0  0
 23 25  2  0  0  0  0
 24 22  1  0  0  0  0
 24 23  1  0  0  0  0
 26 30  1  0  0  0  0
 26 23  1  1  0  0  0
 26 31  1  0  0  0  0
 27 29  1  0  0  0  0
 28 29  1  0  0  0  0
 30 28  1  0  0  0  0
 31 27  2  0  0  0  0
 33 34  1  0  0  0  0
 34 32  1  0  0  0  0
 35 13  1  0  0  0  0
 36 35  1  0  0  0  0
 37 41  1  0  0  0  0
 37 38  2  0  0  0  0
 38 43  1  0  0  0  0
 40 43  1  0  0  0  0
 40 36  1  0  0  0  0
 41 40  2  0  0  0  0
 42 38  1  0  0  0  0
 42 39  1  0  0  0  0
M  END
>  <MODEL>
7

>  <REMARK>
 VINA RESULT:      -7.3      3.840      8.042
  Name = 
  9 active torsions:
  status: ('A' for Active; 'I' for Inactive)
    1  A    between atoms: C_1  and  N_34
    2  A    between atoms: C_1  and  C_35
    3  A    between atoms: N_2  and  C_13
    4  A    between atoms: N_3  and  C_4
    5  A    between atoms: C_4  and  C_15
    6  A    between atoms: C_4  and  N_22
    7  A    between atoms: C_11  and  C_14
    8  A    between atoms: C_15  and  C_42
    9  A    between atoms: C_28  and  C_35
                            x       y       z     vdW  Elec       q    Type
                         _______ _______ _______ _____ _____    ______ ____

>  <TORSDO>
F 9

$$$$
=
 OpenBabel11052420443D

 43 48  0  0  1  0  0  0  0  0999 V2000
  184.5700  178.4040  145.8840 C   0  0  0  0  0  0  0  0  0  0  0  0
  188.7960  176.9300  146.0910 C   0  0  0  0  0  0  0  0  0  0  0  0
  189.2880  175.5370  143.6690 C   0  0  0  0  0  0  0  0  0  0  0  0
  187.0790  177.9210  146.8650 N   0  0  0  0  0  0  0  0  0  0  0  0
  185.1700  177.2710  143.8480 F   0  0  0  0  0  0  0  0  0  0  0  0
  183.3300  178.6670  145.4040 F   0  0  0  0  0  0  0  0  0  0  0  0
  186.7580  177.4840  145.6320 C   0  0  0  0  0  0  0  0  0  0  0  0
  184.9240  178.8450  147.1720 C   0  0  0  0  0  3  0  0  0  0  0  0
  185.4940  177.7050  145.0920 C   0  0  0  0  0  0  0  0  0  0  0  0
  188.0970  176.1290  143.8610 C   0  0  0  0  0  3  0  0  0  0  0  0
  187.8530  176.8370  145.1120 C   0  0  0  0  0  0  0  0  0  0  0  0
  188.3270  177.5930  147.1730 N   0  0  0  0  0  0  0  0  0  0  0  0
  190.0760  176.3160  145.9550 N   0  0  0  0  0  0  0  0  0  0  0  0
  190.4030  175.5700  144.7250 C   0  0  0  0  0  2  0  0  0  0  0  0
  186.2100  178.5890  147.6620 C   0  0  0  0  0  3  0  0  0  0  0  0
  189.5400  174.8470  142.4400 N   0  0  0  0  0  0  0  0  0  0  0  0
  188.9820  172.9310  139.3760 N   0  0  0  0  0  2  0  0  0  0  0  0
  188.5540  174.3300  141.5030 C   0  0  0  0  0  2  0  0  0  0  0  0
  190.8160  174.4970  141.9940 N   0  0  0  0  0  2  0  0  0  0  0  0
  189.4510  173.6500  140.5160 C   0  0  0  0  0  0  0  0  0  0  0  0
  190.7040  173.7650  140.8130 N   0  0  0  0  0  0  0  0  0  0  0  0
  189.8970  172.3360  138.4180 C   0  0  1  0  0  3  0  0  0  0  0  0
  191.5310  170.4560  138.8460 C   0  0  0  0  0  0  0  0  0  0  0  0
  190.2010  170.9680  138.8070 N   0  0  0  0  0  2  0  0  0  0  0  0
  192.5080  171.2010  138.5680 O   0  0  0  0  0  0  0  0  0  0  0  0
  191.7530  169.0440  139.2820 C   0  0  2  0  0  3  0  0  0  0  0  0
  193.2640  168.5990  141.2270 C   0  0  0  0  0  3  0  0  0  0  0  0
  190.8190  168.9910  141.6210 C   0  0  0  0  0  2  0  0  0  0  0  0
  192.0960  168.3460  142.1430 C   0  0  0  0  0  2  0  0  0  0  0  0
  190.5990  168.5640  140.1710 C   0  0  0  0  0  2  0  0  0  0  0  0
  193.1110  168.8720  139.9250 C   0  0  0  0  0  3  0  0  0  0  0  0
  189.3020  172.3830  137.0120 C   0  0  0  0  0  2  0  0  0  0  0  0
  189.7100  172.8220  134.6060 C   0  0  0  0  0  1  0  0  0  0  0  0
  190.3360  172.8050  135.9800 C   0  0  0  0  0  2  0  0  0  0  0  0
  190.9990  176.2820  147.0760 C   0  0  0  0  0  2  0  0  0  0  0  0
  191.9450  175.0990  146.9520 C   0  0  0  0  0  2  0  0  0  0  0  0
  194.9030  176.8760  145.7260 N   0  0  0  0  0  0  0  0  0  0  0  0
  195.2520  175.7580  145.0610 C   0  0  0  0  0  0  0  0  0  0  0  0
  196.7920  174.4620  143.5510 C   0  0  0  0  0  1  0  0  0  0  0  0
  193.2230  175.5070  146.3020 C   0  0  0  0  0  0  0  0  0  0  0  0
  193.7720  176.7380  146.4160 N   0  0  0  0  0  0  0  0  0  0  0  0
  196.4260  175.6730  144.2520 N   0  0  0  0  0  2  0  0  0  0  0  0
  194.1420  174.5100  145.3060 S   0  0  0  0  0  0  0  0  0  0  0  0
  1  8  1  0  0  0  0
  2 12  2  0  0  0  0
  3 10  2  0  0  0  0
  3 14  1  0  0  0  0
  4 12  1  0  0  0  0
  4 15  1  0  0  0  0
  5  9  1  0  0  0  0
  6  1  1  0  0  0  0
  7  4  1  0  0  0  0
  8 15  2  0  0  0  0
  9  7  1  0  0  0  0
  9  1  2  0  0  0  0
 10 11  1  0  0  0  0
 11  7  2  0  0  0  0
 11  2  1  0  0  0  0
 13  2  1  0  0  0  0
 13 35  1  0  0  0  0
 14 13  1  0  0  0  0
 16  3  1  0  0  0  0
 17 20  1  0  0  0  0
 18 16  1  0  0  0  0
 19 16  1  0  0  0  0
 20 21  2  0  0  0  0
 20 18  1  0  0  0  0
 21 19  1  0  0  0  0
 22 32  1  6  0  0  0
 22 24  1  0  0  0  0
 22 17  1  0  0  0  0
 24 23  1  0  0  0  0
 25 23  2  0  0  0  0
 26 23  1  1  0  0  0
 26 31  1  0  0  0  0
 26 30  1  0  0  0  0
 27 29  1  0  0  0  0
 28 29  1  0  0  0  0
 30 28  1  0  0  0  0
 31 27  2  0  0  0  0
 33 34  1  0  0  0  0
 34 32  1  0  0  0  0
 36 35  1  0  0  0  0
 37 41  1  0  0  0  0
 38 43  1  0  0  0  0
 38 37  2  0  0  0  0
 39 42  1  0  0  0  0
 40 41  2  0  0  0  0
 40 36  1  0  0  0  0
 42 38  1  0  0  0  0
 43 40  1  0  0  0  0
M  END
>  <MODEL>
8

>  <REMARK>
 VINA RESULT:      -7.3      2.052      3.844
  Name = 
  9 active torsions:
  status: ('A' for Active; 'I' for Inactive)
    1  A    between atoms: C_1  and  N_34
    2  A    between atoms: C_1  and  C_35
    3  A    between atoms: N_2  and  C_13
    4  A    between atoms: N_3  and  C_4
    5  A    between atoms: C_4  and  C_15
    6  A    between atoms: C_4  and  N_22
    7  A    between atoms: C_11  and  C_14
    8  A    between atoms: C_15  and  C_42
    9  A    between atoms: C_28  and  C_35
                            x       y       z     vdW  Elec       q    Type
                         _______ _______ _______ _____ _____    ______ ____

>  <TORSDO>
F 9

$$$$
=
 OpenBabel11052420443D

 43 48  0  0  1  0  0  0  0  0999 V2000
  188.3820  178.0210  147.1920 C   0  0  0  0  0  0  0  0  0  0  0  0
  187.6470  177.1040  142.8690 C   0  0  0  0  0  0  0  0  0  0  0  0
  184.9450  177.7890  142.3430 C   0  0  0  0  0  0  0  0  0  0  0  0
  188.8390  177.1720  144.6300 N   0  0  0  0  0  0  0  0  0  0  0  0
  186.1420  178.6380  146.5670 F   0  0  0  0  0  0  0  0  0  0  0  0
  188.1760  178.4560  148.4600 F   0  0  0  0  0  0  0  0  0  0  0  0
  187.6330  177.6800  144.9520 C   0  0  0  0  0  0  0  0  0  0  0  0
  189.6320  177.4820  146.8370 C   0  0  0  0  0  3  0  0  0  0  0  0
  187.3540  178.1230  146.2420 C   0  0  0  0  0  0  0  0  0  0  0  0
  185.4550  178.0040  143.5670 C   0  0  0  0  0  3  0  0  0  0  0  0
  186.8430  177.6420  143.8280 C   0  0  0  0  0  0  0  0  0  0  0  0
  188.8740  176.8100  143.3550 N   0  0  0  0  0  0  0  0  0  0  0  0
  187.1650  176.8410  141.5520 N   0  0  0  0  0  0  0  0  0  0  0  0
  185.7680  177.1660  141.2060 C   0  0  0  0  0  2  0  0  0  0  0  0
  189.8510  177.0500  145.5230 C   0  0  0  0  0  3  0  0  0  0  0  0
  183.5850  178.1500  142.0750 N   0  0  0  0  0  0  0  0  0  0  0  0
  180.4730  178.7820  140.2640 N   0  0  0  0  0  2  0  0  0  0  0  0
  182.8610  177.9810  140.8230 C   0  0  0  0  0  2  0  0  0  0  0  0
  182.7610  178.8080  142.9900 N   0  0  0  0  0  2  0  0  0  0  0  0
  181.5630  178.6380  141.1730 C   0  0  0  0  0  0  0  0  0  0  0  0
  181.5360  179.0840  142.3870 N   0  0  0  0  0  0  0  0  0  0  0  0
  179.2120  179.3800  140.6700 C   0  0  1  0  0  3  0  0  0  0  0  0
  178.0460  181.5370  140.0560 C   0  0  0  0  0  0  0  0  0  0  0  0
  178.8060  180.3840  139.6990 N   0  0  0  0  0  2  0  0  0  0  0  0
  177.7240  181.7400  141.2570 O   0  0  0  0  0  0  0  0  0  0  0  0
  177.6920  182.5300  138.9970 C   0  0  2  0  0  3  0  0  0  0  0  0
  179.0510  184.6220  138.7950 C   0  0  0  0  0  3  0  0  0  0  0  0
  179.7320  182.5730  137.5190 C   0  0  0  0  0  2  0  0  0  0  0  0
  179.7800  184.0940  137.5880 C   0  0  0  0  0  2  0  0  0  0  0  0
  178.2820  182.1110  137.6440 C   0  0  0  0  0  2  0  0  0  0  0  0
  178.0780  183.9340  139.4070 C   0  0  0  0  0  3  0  0  0  0  0  0
  178.1380  178.3050  140.8240 C   0  0  0  0  0  2  0  0  0  0  0  0
  178.1540  176.7290  142.7380 C   0  0  0  0  0  1  0  0  0  0  0  0
  177.7480  178.1110  142.2820 C   0  0  0  0  0  2  0  0  0  0  0  0
  187.9850  176.1120  140.6010 C   0  0  0  0  0  2  0  0  0  0  0  0
  188.1240  174.6580  141.0230 C   0  0  0  0  0  2  0  0  0  0  0  0
  190.9160  173.0100  139.3190 N   0  0  0  0  0  0  0  0  0  0  0  0
  190.0810  172.7370  138.2980 C   0  0  0  0  0  0  0  0  0  0  0  0
  189.5870  171.7470  136.0370 C   0  0  0  0  0  1  0  0  0  0  0  0
  189.0120  173.9150  140.0830 C   0  0  0  0  0  0  0  0  0  0  0  0
  190.3210  173.6680  140.3130 N   0  0  0  0  0  0  0  0  0  0  0  0
  190.4980  172.0410  137.1230 N   0  0  0  0  0  2  0  0  0  0  0  0
  188.5220  173.3150  138.5900 S   0  0  0  0  0  0  0  0  0  0  0  0
  1  6  1  0  0  0  0
  2 12  2  0  0  0  0
  2 11  1  0  0  0  0
  3 10  2  0  0  0  0
  4  7  1  0  0  0  0
  4 15  1  0  0  0  0
  7  9  1  0  0  0  0
  8  1  1  0  0  0  0
  9  5  1  0  0  0  0
  9  1  2  0  0  0  0
 10 11  1  0  0  0  0
 11  7  2  0  0  0  0
 12  4  1  0  0  0  0
 13  2  1  0  0  0  0
 14 13  1  0  0  0  0
 14  3  1  0  0  0  0
 15  8  2  0  0  0  0
 16  3  1  0  0  0  0
 16 19  1  0  0  0  0
 17 22  1  0  0  0  0
 17 20  1  0  0  0  0
 18 20  1  0  0  0  0
 18 16  1  0  0  0  0
 20 21  2  0  0  0  0
 21 19  1  0  0  0  0
 22 32  1  6  0  0  0
 23 25  2  0  0  0  0
 24 23  1  0  0  0  0
 24 22  1  0  0  0  0
 26 31  1  0  0  0  0
 26 23  1  1  0  0  0
 27 31  2  0  0  0  0
 28 29  1  0  0  0  0
 28 30  1  0  0  0  0
 29 27  1  0  0  0  0
 30 26  1  0  0  0  0
 32 34  1  0  0  0  0
 34 33  1  0  0  0  0
 35 36  1  0  0  0  0
 35 13  1  0  0  0  0
 37 41  1  0  0  0  0
 38 43  1  0  0  0  0
 38 37  2  0  0  0  0
 39 42  1  0  0  0  0
 40 41  2  0  0  0  0
 40 36  1  0  0  0  0
 42 38  1  0  0  0  0
 43 40  1  0  0  0  0
M  END
>  <MODEL>
9

>  <REMARK>
 VINA RESULT:      -7.1      6.507     10.026
  Name = 
  9 active torsions:
  status: ('A' for Active; 'I' for Inactive)
    1  A    between atoms: C_1  and  N_34
    2  A    between atoms: C_1  and  C_35
    3  A    between atoms: N_2  and  C_13
    4  A    between atoms: N_3  and  C_4
    5  A    between atoms: C_4  and  C_15
    6  A    between atoms: C_4  and  N_22
    7  A    between atoms: C_11  and  C_14
    8  A    between atoms: C_15  and  C_42
    9  A    between atoms: C_28  and  C_35
                            x       y       z     vdW  Elec       q    Type
                         _______ _______ _______ _____ _____    ______ ____

>  <TORSDO>
F 9

$$$$
