=
 OpenBabel11052417353D

 25 27  0  0  1  0  0  0  0  0999 V2000
  188.4100  176.4580  146.0650 C   0  0  1  0  0  3  0  0  0  0  0  0
  189.7440  177.0850  146.3630 C   0  0  2  0  0  3  0  0  0  0  0  0
  188.2420  175.3620  146.9460 O   0  0  0  0  0  0  0  0  0  0  0  0
  189.4870  174.9940  147.3990 N   0  0  0  0  0  2  0  0  0  0  0  0
  191.6710  175.8400  146.6710 C   0  0  0  0  0  0  0  0  0  0  0  0
  192.4490  175.0040  147.2030 O   0  0  0  0  0  0  0  0  0  0  0  0
  190.1440  176.7040  143.9870 O   0  0  0  0  0  1  0  0  0  0  0  0
  192.0290  176.7070  145.5300 C   0  0  2  0  0  3  0  0  0  0  0  0
  190.6650  177.3130  145.1370 C   0  0  2  0  0  3  0  0  0  0  0  0
  190.3540  176.0580  147.1310 N   0  0  0  0  0  0  0  0  0  0  0  0
  186.5720  177.9660  145.1370 N   0  0  0  0  0  0  0  0  0  0  0  0
  185.3310  179.1250  142.9440 O   0  0  0  0  0  0  0  0  0  0  0  0
  185.5250  178.9700  145.3360 C   0  0  0  0  0  2  0  0  0  0  0  0
  185.4730  179.8910  144.1170 C   0  0  0  0  0  2  0  0  0  0  0  0
  186.5600  178.4640  142.7500 C   0  0  0  0  0  2  0  0  0  0  0  0
  187.3110  177.4620  146.2610 C   0  0  0  0  0  0  0  0  0  0  0  0
  187.0750  177.9020  147.4200 O   0  0  0  0  0  0  0  0  0  0  0  0
  186.7360  177.3760  143.8090 C   0  0  0  0  0  2  0  0  0  0  0  0
  192.8470  175.7600  144.1980 S   0  0  0  0  0  0  0  0  0  0  0  0
  194.4890  176.3950  144.6530 C   0  0  0  0  0  2  0  0  0  0  0  0
  195.5090  175.3100  144.5300 C   0  0  0  0  0  0  0  0  0  0  0  0
  195.2080  173.8810  145.2790 S   0  0  0  0  0  0  0  0  0  0  0  0
  196.7500  175.5430  143.8350 N   0  0  0  0  0  0  0  0  0  0  0  0
  197.8040  174.5400  143.8340 C   0  0  0  0  0  1  0  0  0  0  0  0
  197.0000  176.7830  143.1120 C   0  0  0  0  0  1  0  0  0  0  0  0
  1 16  1  1  0  0  0
  1  2  1  0  0  0  0
  1  3  1  0  0  0  0
  2 10  1  1  0  0  0
  3  4  1  0  0  0  0
  5 10  1  0  0  0  0
  5  6  2  0  0  0  0
  8 19  1  6  0  0  0
  8  5  1  0  0  0  0
  9  7  1  6  0  0  0
  9  8  1  0  0  0  0
  9  2  1  0  0  0  0
 10  4  1  0  0  0  0
 11 13  1  0  0  0  0
 11 16  1  0  0  0  0
 12 14  1  0  0  0  0
 14 13  1  0  0  0  0
 15 12  1  0  0  0  0
 15 18  1  0  0  0  0
 16 17  2  0  0  0  0
 18 11  1  0  0  0  0
 19 20  1  0  0  0  0
 21 20  1  0  0  0  0
 21 22  2  0  0  0  0
 23 21  1  0  0  0  0
 24 23  1  0  0  0  0
 25 23  1  0  0  0  0
M  END
>  <MODEL>
1

>  <REMARK>
 VINA RESULT:      -6.4      0.000      0.000
  Name = 
  5 active torsions:
  status: ('A' for Active; 'I' for Inactive)
    1  A    between atoms: C_1  and  C_18
    2  A    between atoms: N_2  and  C_21
    3  A    between atoms: S_6  and  C_15
    4  A    between atoms: S_6  and  C_20
    5  A    between atoms: C_15  and  C_21
                            x       y       z     vdW  Elec       q    Type
                         _______ _______ _______ _____ _____    ______ ____

>  <TORSDO>
F 5

$$$$
=
 OpenBabel11052417353D

 25 27  0  0  1  0  0  0  0  0999 V2000
  186.7580  177.5050  142.5970 C   0  0  1  0  0  3  0  0  0  0  0  0
  187.0150  176.0350  142.7850 C   0  0  2  0  0  3  0  0  0  0  0  0
  186.7310  177.7630  141.2050 O   0  0  0  0  0  0  0  0  0  0  0  0
  187.3870  176.7310  140.5740 N   0  0  0  0  0  2  0  0  0  0  0  0
  188.6350  174.8850  141.5970 C   0  0  0  0  0  0  0  0  0  0  0  0
  189.2270  174.4020  140.5960 O   0  0  0  0  0  0  0  0  0  0  0  0
  188.8830  176.8160  144.1450 O   0  0  0  0  0  1  0  0  0  0  0  0
  189.0540  174.6740  142.9980 C   0  0  2  0  0  3  0  0  0  0  0  0
  188.1630  175.6760  143.7620 C   0  0  2  0  0  3  0  0  0  0  0  0
  187.4710  175.6770  141.4890 N   0  0  0  0  0  0  0  0  0  0  0  0
  185.3970  178.3230  144.5940 N   0  0  0  0  0  0  0  0  0  0  0  0
  185.2700  178.9110  147.3020 O   0  0  0  0  0  0  0  0  0  0  0  0
  184.1120  178.6610  145.2100 C   0  0  0  0  0  2  0  0  0  0  0  0
  184.1550  178.3030  146.6950 C   0  0  0  0  0  2  0  0  0  0  0  0
  186.4060  178.2380  146.8130 C   0  0  0  0  0  2  0  0  0  0  0  0
  185.4500  177.8860  143.2270 C   0  0  0  0  0  0  0  0  0  0  0  0
  184.3850  177.7700  142.5600 O   0  0  0  0  0  0  0  0  0  0  0  0
  186.6260  178.5920  145.3420 C   0  0  0  0  0  2  0  0  0  0  0  0
  190.8500  174.9460  143.2090 S   0  0  0  0  0  0  0  0  0  0  0  0
  190.9000  173.9370  144.7210 C   0  0  0  0  0  2  0  0  0  0  0  0
  191.4030  174.7550  145.8660 C   0  0  0  0  0  0  0  0  0  0  0  0
  193.0260  174.9250  146.0370 S   0  0  0  0  0  0  0  0  0  0  0  0
  190.4870  175.3150  146.8270 N   0  0  0  0  0  0  0  0  0  0  0  0
  190.7910  176.5650  147.5060 C   0  0  0  0  0  1  0  0  0  0  0  0
  189.2300  174.6570  147.1590 C   0  0  0  0  0  1  0  0  0  0  0  0
  1  2  1  0  0  0  0
  1 16  1  6  0  0  0
  2 10  1  6  0  0  0
  2  9  1  0  0  0  0
  3  1  1  0  0  0  0
  4  3  1  0  0  0  0
  4 10  1  0  0  0  0
  5  8  1  0  0  0  0
  6  5  2  0  0  0  0
  8 19  1  6  0  0  0
  8  9  1  0  0  0  0
  9  7  1  6  0  0  0
 10  5  1  0  0  0  0
 11 13  1  0  0  0  0
 11 18  1  0  0  0  0
 13 14  1  0  0  0  0
 14 12  1  0  0  0  0
 15 12  1  0  0  0  0
 16 11  1  0  0  0  0
 17 16  2  0  0  0  0
 18 15  1  0  0  0  0
 19 20  1  0  0  0  0
 20 21  1  0  0  0  0
 21 22  2  0  0  0  0
 21 23  1  0  0  0  0
 23 25  1  0  0  0  0
 23 24  1  0  0  0  0
M  END
>  <MODEL>
2

>  <REMARK>
 VINA RESULT:      -6.3      3.214      5.055
  Name = 
  5 active torsions:
  status: ('A' for Active; 'I' for Inactive)
    1  A    between atoms: C_1  and  C_18
    2  A    between atoms: N_2  and  C_21
    3  A    between atoms: S_6  and  C_15
    4  A    between atoms: S_6  and  C_20
    5  A    between atoms: C_15  and  C_21
                            x       y       z     vdW  Elec       q    Type
                         _______ _______ _______ _____ _____    ______ ____

>  <TORSDO>
F 5

$$$$
=
 OpenBabel11052417353D

 25 27  0  0  1  0  0  0  0  0999 V2000
  186.6350  176.7950  144.9100 C   0  0  1  0  0  3  0  0  0  0  0  0
  187.8190  177.7150  145.0240 C   0  0  2  0  0  3  0  0  0  0  0  0
  186.2100  176.4750  146.2220 O   0  0  0  0  0  0  0  0  0  0  0  0
  187.2610  176.7190  147.0750 N   0  0  0  0  0  2  0  0  0  0  0  0
  189.5630  177.3350  146.4980 C   0  0  0  0  0  0  0  0  0  0  0  0
  190.1450  177.1810  147.6050 O   0  0  0  0  0  0  0  0  0  0  0  0
  188.9150  176.0300  143.6420 O   0  0  0  0  0  1  0  0  0  0  0  0
  190.2490  177.3570  145.1900 C   0  0  2  0  0  3  0  0  0  0  0  0
  189.0660  177.3070  144.1980 C   0  0  2  0  0  3  0  0  0  0  0  0
  188.1690  177.5300  146.3880 N   0  0  0  0  0  0  0  0  0  0  0  0
  185.4960  177.4150  142.7130 N   0  0  0  0  0  0  0  0  0  0  0  0
  185.5820  177.5370  139.9430 O   0  0  0  0  0  0  0  0  0  0  0  0
  184.4320  178.1010  141.9780 C   0  0  0  0  0  2  0  0  0  0  0  0
  184.9830  178.6010  140.6420 C   0  0  0  0  0  2  0  0  0  0  0  0
  186.7640  177.2180  140.6390 C   0  0  0  0  0  2  0  0  0  0  0  0
  185.5300  177.4650  144.1480 C   0  0  0  0  0  0  0  0  0  0  0  0
  184.6550  178.1210  144.7770 O   0  0  0  0  0  0  0  0  0  0  0  0
  186.4190  176.5550  141.9720 C   0  0  0  0  0  2  0  0  0  0  0  0
  191.4280  175.9690  145.0270 S   0  0  0  0  0  0  0  0  0  0  0  0
  192.8170  177.0930  144.6860 C   0  0  0  0  0  2  0  0  0  0  0  0
  194.1040  176.3340  144.6990 C   0  0  0  0  0  0  0  0  0  0  0  0
  194.6230  175.7210  146.1310 S   0  0  0  0  0  0  0  0  0  0  0  0
  194.8960  176.2100  143.5010 N   0  0  0  0  0  0  0  0  0  0  0  0
  194.2640  175.9770  142.2120 C   0  0  0  0  0  1  0  0  0  0  0  0
  196.3490  176.3080  143.5310 C   0  0  0  0  0  1  0  0  0  0  0  0
  1 16  1  6  0  0  0
  1  2  1  0  0  0  0
  1  3  1  0  0  0  0
  2 10  1  1  0  0  0
  3  4  1  0  0  0  0
  5  6  2  0  0  0  0
  8 19  1  1  0  0  0
  8  5  1  0  0  0  0
  9  7  1  1  0  0  0
  9  2  1  0  0  0  0
  9  8  1  0  0  0  0
 10  5  1  0  0  0  0
 10  4  1  0  0  0  0
 11 16  1  0  0  0  0
 12 15  1  0  0  0  0
 12 14  1  0  0  0  0
 13 11  1  0  0  0  0
 14 13  1  0  0  0  0
 15 18  1  0  0  0  0
 16 17  2  0  0  0  0
 18 11  1  0  0  0  0
 20 21  1  0  0  0  0
 20 19  1  0  0  0  0
 21 22  2  0  0  0  0
 23 25  1  0  0  0  0
 23 21  1  0  0  0  0
 24 23  1  0  0  0  0
M  END
>  <MODEL>
3

>  <REMARK>
 VINA RESULT:      -6.1      1.985      2.612
  Name = 
  5 active torsions:
  status: ('A' for Active; 'I' for Inactive)
    1  A    between atoms: C_1  and  C_18
    2  A    between atoms: N_2  and  C_21
    3  A    between atoms: S_6  and  C_15
    4  A    between atoms: S_6  and  C_20
    5  A    between atoms: C_15  and  C_21
                            x       y       z     vdW  Elec       q    Type
                         _______ _______ _______ _____ _____    ______ ____

>  <TORSDO>
F 5

$$$$
=
 OpenBabel11052417353D

 25 27  0  0  1  0  0  0  0  0999 V2000
  188.4680  176.2870  145.1550 C   0  0  1  0  0  3  0  0  0  0  0  0
  189.6550  177.0040  145.7380 C   0  0  2  0  0  3  0  0  0  0  0  0
  187.7440  175.7090  146.2270 O   0  0  0  0  0  0  0  0  0  0  0  0
  188.5960  175.6100  147.3020 N   0  0  0  0  0  2  0  0  0  0  0  0
  191.0030  176.0700  147.3720 C   0  0  0  0  0  0  0  0  0  0  0  0
  191.3160  175.5820  148.4900 O   0  0  0  0  0  0  0  0  0  0  0  0
  190.9170  175.5900  144.2030 O   0  0  0  0  0  1  0  0  0  0  0  0
  191.9600  176.3290  146.2760 C   0  0  2  0  0  3  0  0  0  0  0  0
  191.0240  176.6650  145.0950 C   0  0  2  0  0  3  0  0  0  0  0  0
  189.6830  176.4500  147.0460 N   0  0  0  0  0  0  0  0  0  0  0  0
  187.2610  177.0000  143.0240 N   0  0  0  0  0  0  0  0  0  0  0  0
  186.8240  176.6450  140.3080 O   0  0  0  0  0  0  0  0  0  0  0  0
  186.4440  177.9630  142.2830 C   0  0  0  0  0  2  0  0  0  0  0  0
  186.8670  177.9580  140.8140 C   0  0  0  0  0  2  0  0  0  0  0  0
  187.8880  175.9500  140.9150 C   0  0  0  0  0  2  0  0  0  0  0  0
  187.6030  177.2500  144.3960 C   0  0  0  0  0  0  0  0  0  0  0  0
  187.2190  178.3120  144.9600 O   0  0  0  0  0  0  0  0  0  0  0  0
  187.5810  175.7190  142.3940 C   0  0  0  0  0  2  0  0  0  0  0  0
  193.0550  174.8940  145.9870 S   0  0  0  0  0  0  0  0  0  0  0  0
  194.5410  175.9410  145.9480 C   0  0  0  0  0  2  0  0  0  0  0  0
  195.5040  175.4240  144.9300 C   0  0  0  0  0  0  0  0  0  0  0  0
  196.5020  174.1960  145.3670 S   0  0  0  0  0  0  0  0  0  0  0  0
  195.5980  176.0380  143.6300 N   0  0  0  0  0  0  0  0  0  0  0  0
  194.4870  175.9700  142.6920 C   0  0  0  0  0  1  0  0  0  0  0  0
  196.7990  176.7420  143.2010 C   0  0  0  0  0  1  0  0  0  0  0  0
  1 16  1  1  0  0  0
  1  2  1  0  0  0  0
  1  3  1  0  0  0  0
  2 10  1  1  0  0  0
  3  4  1  0  0  0  0
  5  6  2  0  0  0  0
  8 19  1  6  0  0  0
  8  5  1  0  0  0  0
  9  7  1  6  0  0  0
  9  2  1  0  0  0  0
  9  8  1  0  0  0  0
 10  4  1  0  0  0  0
 10  5  1  0  0  0  0
 11 16  1  0  0  0  0
 12 14  1  0  0  0  0
 12 15  1  0  0  0  0
 13 11  1  0  0  0  0
 14 13  1  0  0  0  0
 15 18  1  0  0  0  0
 16 17  2  0  0  0  0
 18 11  1  0  0  0  0
 20 19  1  0  0  0  0
 21 22  2  0  0  0  0
 21 20  1  0  0  0  0
 23 21  1  0  0  0  0
 24 23  1  0  0  0  0
 25 23  1  0  0  0  0
M  END
>  <MODEL>
4

>  <REMARK>
 VINA RESULT:      -5.8      1.729      2.106
  Name = 
  5 active torsions:
  status: ('A' for Active; 'I' for Inactive)
    1  A    between atoms: C_1  and  C_18
    2  A    between atoms: N_2  and  C_21
    3  A    between atoms: S_6  and  C_15
    4  A    between atoms: S_6  and  C_20
    5  A    between atoms: C_15  and  C_21
                            x       y       z     vdW  Elec       q    Type
                         _______ _______ _______ _____ _____    ______ ____

>  <TORSDO>
F 5

$$$$
=
 OpenBabel11052417353D

 25 27  0  0  1  0  0  0  0  0999 V2000
  193.0610  175.8240  145.5340 C   0  0  1  0  0  3  0  0  0  0  0  0
  191.6860  175.2150  145.5080 C   0  0  2  0  0  3  0  0  0  0  0  0
  193.2420  176.4260  146.8030 O   0  0  0  0  0  0  0  0  0  0  0  0
  191.9980  176.6400  147.3470 N   0  0  0  0  0  2  0  0  0  0  0  0
  189.8100  176.3250  146.2850 C   0  0  0  0  0  0  0  0  0  0  0  0
  189.0500  176.8980  147.1100 O   0  0  0  0  0  0  0  0  0  0  0  0
  191.4080  176.6000  143.5200 O   0  0  0  0  0  1  0  0  0  0  0  0
  189.4600  176.0530  144.8760 C   0  0  2  0  0  3  0  0  0  0  0  0
  190.8100  175.5910  144.2860 C   0  0  2  0  0  3  0  0  0  0  0  0
  191.0930  175.8490  146.6320 N   0  0  0  0  0  0  0  0  0  0  0  0
  195.3270  175.0860  144.6240 N   0  0  0  0  0  0  0  0  0  0  0  0
  197.5700  175.6470  143.0920 O   0  0  0  0  0  0  0  0  0  0  0  0
  196.3200  174.0400  144.3710 C   0  0  0  0  0  2  0  0  0  0  0  0
  197.0460  174.3410  143.0600 C   0  0  0  0  0  2  0  0  0  0  0  0
  196.4680  176.5200  143.0150 C   0  0  0  0  0  2  0  0  0  0  0  0
  194.1000  174.7680  145.2990 C   0  0  0  0  0  0  0  0  0  0  0  0
  193.8650  173.5800  145.6560 O   0  0  0  0  0  0  0  0  0  0  0  0
  195.6780  176.4740  144.3230 C   0  0  0  0  0  2  0  0  0  0  0  0
  188.7470  177.5280  144.0650 S   0  0  0  0  0  0  0  0  0  0  0  0
  187.1840  176.6700  143.7110 C   0  0  0  0  0  2  0  0  0  0  0  0
  186.0560  177.3480  144.4200 C   0  0  0  0  0  0  0  0  0  0  0  0
  185.6330  176.7910  145.9040 S   0  0  0  0  0  0  0  0  0  0  0  0
  185.3210  178.4100  143.7820 N   0  0  0  0  0  0  0  0  0  0  0  0
  185.5660  179.8010  144.1340 C   0  0  0  0  0  1  0  0  0  0  0  0
  184.3090  178.1410  142.7700 C   0  0  0  0  0  1  0  0  0  0  0  0
  1 16  1  1  0  0  0
  1  3  1  0  0  0  0
  2  1  1  0  0  0  0
  2 10  1  1  0  0  0
  3  4  1  0  0  0  0
  5 10  1  0  0  0  0
  5  6  2  0  0  0  0
  8 19  1  6  0  0  0
  8  5  1  0  0  0  0
  9  7  1  1  0  0  0
  9  8  1  0  0  0  0
  9  2  1  0  0  0  0
 10  4  1  0  0  0  0
 11 16  1  0  0  0  0
 13 11  1  0  0  0  0
 14 12  1  0  0  0  0
 14 13  1  0  0  0  0
 15 12  1  0  0  0  0
 15 18  1  0  0  0  0
 16 17  2  0  0  0  0
 18 11  1  0  0  0  0
 20 19  1  0  0  0  0
 20 21  1  0  0  0  0
 21 22  2  0  0  0  0
 23 24  1  0  0  0  0
 23 21  1  0  0  0  0
 25 23  1  0  0  0  0
M  END
>  <MODEL>
5

>  <REMARK>
 VINA RESULT:      -5.7      2.604      8.261
  Name = 
  5 active torsions:
  status: ('A' for Active; 'I' for Inactive)
    1  A    between atoms: C_1  and  C_18
    2  A    between atoms: N_2  and  C_21
    3  A    between atoms: S_6  and  C_15
    4  A    between atoms: S_6  and  C_20
    5  A    between atoms: C_15  and  C_21
                            x       y       z     vdW  Elec       q    Type
                         _______ _______ _______ _____ _____    ______ ____

>  <TORSDO>
F 5

$$$$
=
 OpenBabel11052417353D

 25 27  0  0  1  0  0  0  0  0999 V2000
  192.2350  175.1850  145.5430 C   0  0  1  0  0  3  0  0  0  0  0  0
  190.8620  174.6930  145.1750 C   0  0  2  0  0  3  0  0  0  0  0  0
  192.2710  175.3530  146.9480 O   0  0  0  0  0  0  0  0  0  0  0  0
  190.9730  175.4610  147.3910 N   0  0  0  0  0  2  0  0  0  0  0  0
  188.9270  175.6150  146.0490 C   0  0  0  0  0  0  0  0  0  0  0  0
  188.0830  175.9490  146.9220 O   0  0  0  0  0  0  0  0  0  0  0  0
  190.8590  176.6390  143.7040 O   0  0  0  0  0  1  0  0  0  0  0  0
  188.7480  175.8130  144.5960 C   0  0  2  0  0  3  0  0  0  0  0  0
  190.1500  175.4780  144.0440 C   0  0  2  0  0  3  0  0  0  0  0  0
  190.1480  174.9830  146.3680 N   0  0  0  0  0  0  0  0  0  0  0  0
  194.5940  174.6290  144.7480 N   0  0  0  0  0  0  0  0  0  0  0  0
  197.0540  175.5040  143.8110 O   0  0  0  0  0  0  0  0  0  0  0  0
  195.5900  173.6580  144.2910 C   0  0  0  0  0  2  0  0  0  0  0  0
  196.5120  174.3240  143.2690 C   0  0  0  0  0  2  0  0  0  0  0  0
  195.9960  176.4300  143.8880 C   0  0  0  0  0  2  0  0  0  0  0  0
  193.2730  174.1940  145.1050 C   0  0  0  0  0  0  0  0  0  0  0  0
  192.9610  172.9750  145.0030 O   0  0  0  0  0  0  0  0  0  0  0  0
  195.0170  176.0090  144.9840 C   0  0  0  0  0  2  0  0  0  0  0  0
  188.1700  177.5050  144.2150 S   0  0  0  0  0  0  0  0  0  0  0  0
  186.7390  176.8860  143.2790 C   0  0  0  0  0  2  0  0  0  0  0  0
  186.0390  178.0210  142.6040 C   0  0  0  0  0  0  0  0  0  0  0  0
  185.5900  179.3040  143.5230 S   0  0  0  0  0  0  0  0  0  0  0  0
  185.7080  177.9510  141.2030 N   0  0  0  0  0  0  0  0  0  0  0  0
  186.7010  177.5380  140.2230 C   0  0  0  0  0  1  0  0  0  0  0  0
  184.3790  178.2900  140.7130 C   0  0  0  0  0  1  0  0  0  0  0  0
  1 16  1  1  0  0  0
  1  3  1  0  0  0  0
  2  1  1  0  0  0  0
  2 10  1  1  0  0  0
  3  4  1  0  0  0  0
  5 10  1  0  0  0  0
  5  6  2  0  0  0  0
  8 19  1  1  0  0  0
  8  5  1  0  0  0  0
  9  7  1  1  0  0  0
  9  8  1  0  0  0  0
  9  2  1  0  0  0  0
 10  4  1  0  0  0  0
 11 18  1  0  0  0  0
 11 16  1  0  0  0  0
 12 15  1  0  0  0  0
 13 11  1  0  0  0  0
 14 12  1  0  0  0  0
 14 13  1  0  0  0  0
 15 18  1  0  0  0  0
 17 16  2  0  0  0  0
 20 19  1  0  0  0  0
 21 20  1  0  0  0  0
 21 22  2  0  0  0  0
 23 21  1  0  0  0  0
 24 23  1  0  0  0  0
 25 23  1  0  0  0  0
M  END
>  <MODEL>
6

>  <REMARK>
 VINA RESULT:      -5.7      2.859      8.102
  Name = 
  5 active torsions:
  status: ('A' for Active; 'I' for Inactive)
    1  A    between atoms: C_1  and  C_18
    2  A    between atoms: N_2  and  C_21
    3  A    between atoms: S_6  and  C_15
    4  A    between atoms: S_6  and  C_20
    5  A    between atoms: C_15  and  C_21
                            x       y       z     vdW  Elec       q    Type
                         _______ _______ _______ _____ _____    ______ ____

>  <TORSDO>
F 5

$$$$
=
 OpenBabel11052417353D

 25 27  0  0  1  0  0  0  0  0999 V2000
  188.0160  176.4090  146.0330 C   0  0  1  0  0  3  0  0  0  0  0  0
  189.2490  177.2700  146.0320 C   0  0  2  0  0  3  0  0  0  0  0  0
  188.1890  175.4090  147.0210 O   0  0  0  0  0  0  0  0  0  0  0  0
  189.5360  175.2990  147.2750 N   0  0  0  0  0  2  0  0  0  0  0  0
  191.3900  176.3910  146.0980 C   0  0  0  0  0  0  0  0  0  0  0  0
  192.3790  175.7580  146.5520 O   0  0  0  0  0  0  0  0  0  0  0  0
  189.3220  176.6850  143.6650 O   0  0  0  0  0  1  0  0  0  0  0  0
  191.4000  177.1670  144.8410 C   0  0  2  0  0  3  0  0  0  0  0  0
  189.9050  177.4980  144.6460 C   0  0  2  0  0  3  0  0  0  0  0  0
  190.1470  176.4490  146.7650 N   0  0  0  0  0  0  0  0  0  0  0  0
  185.8180  177.4910  145.3200 N   0  0  0  0  0  0  0  0  0  0  0  0
  184.0600  178.1840  143.2900 O   0  0  0  0  0  0  0  0  0  0  0  0
  184.6560  178.3310  145.6140 C   0  0  0  0  0  2  0  0  0  0  0  0
  184.2490  179.0890  144.3510 C   0  0  0  0  0  2  0  0  0  0  0  0
  185.3390  177.7090  142.9390 C   0  0  0  0  0  2  0  0  0  0  0  0
  186.8040  177.2410  146.3340 C   0  0  0  0  0  0  0  0  0  0  0  0
  186.6820  177.7650  147.4750 O   0  0  0  0  0  0  0  0  0  0  0  0
  185.8700  176.7890  144.0370 C   0  0  0  0  0  2  0  0  0  0  0  0
  192.1470  176.2140  143.4710 S   0  0  0  0  0  0  0  0  0  0  0  0
  191.5590  174.6340  144.1510 C   0  0  0  0  0  2  0  0  0  0  0  0
  191.0550  173.7590  143.0490 C   0  0  0  0  0  0  0  0  0  0  0  0
  191.6660  173.9860  141.5430 S   0  0  0  0  0  0  0  0  0  0  0  0
  190.0110  172.7970  143.2950 N   0  0  0  0  0  0  0  0  0  0  0  0
  189.2200  172.2580  142.1990 C   0  0  0  0  0  1  0  0  0  0  0  0
  189.7020  172.3300  144.6400 C   0  0  0  0  0  1  0  0  0  0  0  0
  1 16  1  1  0  0  0
  1  3  1  0  0  0  0
  2  1  1  0  0  0  0
  2 10  1  1  0  0  0
  3  4  1  0  0  0  0
  5  6  2  0  0  0  0
  5 10  1  0  0  0  0
  8 19  1  6  0  0  0
  8  5  1  0  0  0  0
  9  7  1  6  0  0  0
  9  8  1  0  0  0  0
  9  2  1  0  0  0  0
 10  4  1  0  0  0  0
 11 13  1  0  0  0  0
 11 16  1  0  0  0  0
 12 14  1  0  0  0  0
 14 13  1  0  0  0  0
 15 12  1  0  0  0  0
 15 18  1  0  0  0  0
 16 17  2  0  0  0  0
 18 11  1  0  0  0  0
 19 20  1  0  0  0  0
 21 23  1  0  0  0  0
 21 20  1  0  0  0  0
 22 21  2  0  0  0  0
 23 25  1  0  0  0  0
 24 23  1  0  0  0  0
M  END
>  <MODEL>
7

>  <REMARK>
 VINA RESULT:      -5.6      2.741      3.408
  Name = 
  5 active torsions:
  status: ('A' for Active; 'I' for Inactive)
    1  A    between atoms: C_1  and  C_18
    2  A    between atoms: N_2  and  C_21
    3  A    between atoms: S_6  and  C_15
    4  A    between atoms: S_6  and  C_20
    5  A    between atoms: C_15  and  C_21
                            x       y       z     vdW  Elec       q    Type
                         _______ _______ _______ _____ _____    ______ ____

>  <TORSDO>
F 5

$$$$
=
 OpenBabel11052417353D

 25 27  0  0  1  0  0  0  0  0999 V2000
  186.5840  177.6250  142.6220 C   0  0  1  0  0  3  0  0  0  0  0  0
  186.8410  176.1490  142.7600 C   0  0  2  0  0  3  0  0  0  0  0  0
  186.4950  177.9200  141.2400 O   0  0  0  0  0  0  0  0  0  0  0  0
  187.1150  176.9030  140.5530 N   0  0  0  0  0  2  0  0  0  0  0  0
  188.3990  175.0250  141.4680 C   0  0  0  0  0  0  0  0  0  0  0  0
  188.9420  174.5660  140.4290 O   0  0  0  0  0  0  0  0  0  0  0  0
  188.7740  176.8850  144.0520 O   0  0  0  0  0  1  0  0  0  0  0  0
  188.8810  174.7740  142.8420 C   0  0  2  0  0  3  0  0  0  0  0  0
  188.0310  175.7590  143.6730 C   0  0  2  0  0  3  0  0  0  0  0  0
  187.2360  175.8240  141.4350 N   0  0  0  0  0  0  0  0  0  0  0  0
  185.3190  178.3790  144.7060 N   0  0  0  0  0  0  0  0  0  0  0  0
  185.3130  178.8630  147.4370 O   0  0  0  0  0  0  0  0  0  0  0  0
  184.0660  178.7070  145.3870 C   0  0  0  0  0  2  0  0  0  0  0  0
  184.1670  178.2910  146.8550 C   0  0  0  0  0  2  0  0  0  0  0  0
  186.4200  178.1970  146.8740 C   0  0  0  0  0  2  0  0  0  0  0  0
  185.3090  177.9950  143.3220 C   0  0  0  0  0  0  0  0  0  0  0  0
  184.2160  177.9160  142.6960 O   0  0  0  0  0  0  0  0  0  0  0  0
  186.5810  178.6060  145.4100 C   0  0  0  0  0  2  0  0  0  0  0  0
  190.6860  175.0320  142.9780 S   0  0  0  0  0  0  0  0  0  0  0  0
  190.7910  174.0280  144.4900 C   0  0  0  0  0  2  0  0  0  0  0  0
  191.6850  172.8530  144.2630 C   0  0  0  0  0  0  0  0  0  0  0  0
  191.1370  171.6410  143.3030 S   0  0  0  0  0  0  0  0  0  0  0  0
  192.9600  172.7620  144.9280 N   0  0  0  0  0  0  0  0  0  0  0  0
  193.4470  173.8530  145.7590 C   0  0  0  0  0  1  0  0  0  0  0  0
  193.8100  171.5860  144.7960 C   0  0  0  0  0  1  0  0  0  0  0  0
  1  2  1  0  0  0  0
  1 16  1  1  0  0  0
  2 10  1  6  0  0  0
  2  9  1  0  0  0  0
  3  1  1  0  0  0  0
  4  3  1  0  0  0  0
  4 10  1  0  0  0  0
  5  8  1  0  0  0  0
  6  5  2  0  0  0  0
  8 19  1  6  0  0  0
  8  9  1  0  0  0  0
  9  7  1  6  0  0  0
 10  5  1  0  0  0  0
 11 13  1  0  0  0  0
 11 18  1  0  0  0  0
 13 14  1  0  0  0  0
 14 12  1  0  0  0  0
 15 12  1  0  0  0  0
 16 11  1  0  0  0  0
 17 16  2  0  0  0  0
 18 15  1  0  0  0  0
 19 20  1  0  0  0  0
 21 20  1  0  0  0  0
 21 23  1  0  0  0  0
 22 21  2  0  0  0  0
 23 24  1  0  0  0  0
 25 23  1  0  0  0  0
M  END
>  <MODEL>
8

>  <REMARK>
 VINA RESULT:      -5.6      3.313      4.775
  Name = 
  5 active torsions:
  status: ('A' for Active; 'I' for Inactive)
    1  A    between atoms: C_1  and  C_18
    2  A    between atoms: N_2  and  C_21
    3  A    between atoms: S_6  and  C_15
    4  A    between atoms: S_6  and  C_20
    5  A    between atoms: C_15  and  C_21
                            x       y       z     vdW  Elec       q    Type
                         _______ _______ _______ _____ _____    ______ ____

>  <TORSDO>
F 5

$$$$
=
 OpenBabel11052417353D

 25 27  0  0  1  0  0  0  0  0999 V2000
  188.0130  176.3420  144.2010 C   0  0  1  0  0  3  0  0  0  0  0  0
  189.1260  175.4280  144.6330 C   0  0  2  0  0  3  0  0  0  0  0  0
  187.3590  175.7360  143.1000 O   0  0  0  0  0  0  0  0  0  0  0  0
  188.2240  174.8160  142.5540 N   0  0  0  0  0  2  0  0  0  0  0  0
  190.5730  174.4200  143.1340 C   0  0  0  0  0  0  0  0  0  0  0  0
  190.9420  173.6810  142.1830 O   0  0  0  0  0  0  0  0  0  0  0  0
  190.5130  177.4060  144.3010 O   0  0  0  0  0  1  0  0  0  0  0  0
  191.4910  175.1960  143.9930 C   0  0  2  0  0  3  0  0  0  0  0  0
  190.5170  176.0920  144.7880 C   0  0  2  0  0  3  0  0  0  0  0  0
  189.2190  174.5710  143.5050 N   0  0  0  0  0  0  0  0  0  0  0  0
  185.8360  177.2960  145.1260 N   0  0  0  0  0  0  0  0  0  0  0  0
  183.6290  178.9420  144.7880 O   0  0  0  0  0  0  0  0  0  0  0  0
  184.9190  177.5290  146.2440 C   0  0  0  0  0  2  0  0  0  0  0  0
  184.2310  178.8810  146.0590 C   0  0  0  0  0  2  0  0  0  0  0  0
  184.6790  179.0240  143.8530 C   0  0  0  0  0  2  0  0  0  0  0  0
  187.0500  176.5570  145.3310 C   0  0  0  0  0  0  0  0  0  0  0  0
  187.3410  176.1270  146.4810 O   0  0  0  0  0  0  0  0  0  0  0  0
  185.4150  177.6870  143.7810 C   0  0  0  0  0  2  0  0  0  0  0  0
  192.7230  176.1130  143.0020 S   0  0  0  0  0  0  0  0  0  0  0  0
  194.0730  175.0130  143.5250 C   0  0  0  0  0  2  0  0  0  0  0  0
  195.0960  175.7880  144.2910 C   0  0  0  0  0  0  0  0  0  0  0  0
  194.5770  176.7420  145.5220 S   0  0  0  0  0  0  0  0  0  0  0  0
  196.4850  175.7480  143.9090 N   0  0  0  0  0  0  0  0  0  0  0  0
  197.3360  174.6380  144.3110 C   0  0  0  0  0  1  0  0  0  0  0  0
  197.0900  176.8090  143.1150 C   0  0  0  0  0  1  0  0  0  0  0  0
  1  2  1  0  0  0  0
  1 16  1  1  0  0  0
  2 10  1  6  0  0  0
  2  9  1  0  0  0  0
  3  1  1  0  0  0  0
  4  3  1  0  0  0  0
  4 10  1  0  0  0  0
  5 10  1  0  0  0  0
  5  8  1  0  0  0  0
  6  5  2  0  0  0  0
  8 19  1  6  0  0  0
  8  9  1  0  0  0  0
  9  7  1  6  0  0  0
 11 16  1  0  0  0  0
 11 13  1  0  0  0  0
 12 14  1  0  0  0  0
 14 13  1  0  0  0  0
 15 12  1  0  0  0  0
 16 17  2  0  0  0  0
 18 15  1  0  0  0  0
 18 11  1  0  0  0  0
 19 20  1  0  0  0  0
 20 21  1  0  0  0  0
 21 22  2  0  0  0  0
 23 21  1  0  0  0  0
 23 24  1  0  0  0  0
 25 23  1  0  0  0  0
M  END
>  <MODEL>
9

>  <REMARK>
 VINA RESULT:      -5.6      2.139      2.559
  Name = 
  5 active torsions:
  status: ('A' for Active; 'I' for Inactive)
    1  A    between atoms: C_1  and  C_18
    2  A    between atoms: N_2  and  C_21
    3  A    between atoms: S_6  and  C_15
    4  A    between atoms: S_6  and  C_20
    5  A    between atoms: C_15  and  C_21
                            x       y       z     vdW  Elec       q    Type
                         _______ _______ _______ _____ _____    ______ ____

>  <TORSDO>
F 5

$$$$
