=
 OpenBabel11052417053D

 30 36  0  0  1  0  0  0  0  0999 V2000
  187.7030  176.4370  142.5790 C   0  0  2  0  0  3  0  0  0  0  0  0
  187.8330  175.3950  140.1910 C   0  0  0  0  0  0  0  0  0  0  0  0
  191.7540  173.5570  142.4390 N   0  0  0  0  0  2  0  0  0  0  0  0
  188.0140  175.7430  143.9010 C   0  0  2  0  0  3  0  0  0  0  0  0
  186.3140  176.9690  142.6750 C   0  0  0  0  0  3  0  0  0  0  0  0
  186.0240  177.8500  146.4710 S   0  0  0  0  0  0  0  0  0  0  0  0
  189.4870  175.1330  146.4830 C   0  0  1  0  0  3  0  0  0  0  0  0
  187.0190  177.8490  144.9330 C   0  0  2  0  0  3  0  0  0  0  0  0
  184.6980  178.0480  144.0910 N   0  0  0  0  0  2  0  0  0  0  0  0
  190.6240  174.7410  145.5450 C   0  0  2  0  0  3  0  0  0  0  0  0
  191.7010  174.7370  143.2630 C   0  0  0  0  0  0  0  0  0  0  0  0
  186.0250  177.6560  143.7910 C   0  0  0  0  0  0  0  0  0  0  0  0
  188.2390  176.8670  144.9130 C   0  0  1  0  0  3  0  0  0  0  0  0
  188.4730  174.4520  139.4360 N   0  0  0  0  0  0  0  0  0  0  0  0
  191.8280  175.2310  146.2710 C   0  0  0  0  0  2  0  0  0  0  0  0
  189.9840  175.0210  147.7970 O   0  0  0  0  0  0  0  0  0  0  0  0
  183.5760  178.8310  145.9850 O   0  0  0  0  0  0  0  0  0  0  0  0
  186.9810  176.3510  139.5700 N   0  0  0  0  0  1  0  0  0  0  0  0
  190.6270  172.7300  142.0210 C   0  0  0  0  0  2  0  0  0  0  0  0
  189.3490  173.5570  139.9870 C   0  0  0  0  0  3  0  0  0  0  0  0
  184.5970  178.2960  145.4830 C   0  0  0  0  0  0  0  0  0  0  0  0
  188.0560  175.4150  141.5700 C   0  0  0  0  0  0  0  0  0  0  0  0
  189.1080  174.7170  143.5960 C   0  0  2  0  0  3  0  0  0  0  0  0
  192.7370  175.4470  143.3390 O   0  0  0  0  0  0  0  0  0  0  0  0
  190.4920  175.1750  144.0810 C   0  0  1  0  0  3  0  0  0  0  0  0
  191.3960  175.0780  147.7150 C   0  0  0  0  0  2  0  0  0  0  0  0
  189.7620  177.6690  146.7190 C   0  0  0  0  0  1  0  0  0  0  0  0
  189.6020  173.5860  141.3660 C   0  0  0  0  0  0  0  0  0  0  0  0
  188.9500  174.5370  142.1300 C   0  0  0  0  0  0  0  0  0  0  0  0
  188.8450  176.5340  146.2880 C   0  0  2  0  0  3  0  0  0  0  0  0
  1  5  1  1  0  0  0
  1  4  1  0  0  0  0
  2 22  1  0  0  0  0
  3 11  1  0  0  0  0
  4 13  1  0  0  0  0
  5 12  2  0  0  0  0
  7 16  1  0  0  0  0
  8  6  1  0  0  0  0
  9 21  1  0  0  0  0
 10 15  1  0  0  0  0
 10  7  1  0  0  0  0
 11 24  2  0  0  0  0
 11 25  1  0  0  0  0
 12  9  1  0  0  0  0
 12  8  1  0  0  0  0
 13  8  1  0  0  0  0
 13 30  1  0  0  0  0
 14 20  1  0  0  0  0
 14  2  2  0  0  0  0
 15 26  1  0  0  0  0
 18  2  1  0  0  0  0
 19  3  1  0  0  0  0
 20 28  2  0  0  0  0
 21 17  2  0  0  0  0
 21  6  1  0  0  0  0
 22 29  2  0  0  0  0
 22  1  1  0  0  0  0
 23  4  1  0  0  0  0
 23 25  1  0  0  0  0
 25 10  1  0  0  0  0
 26 16  1  0  0  0  0
 28 19  1  0  0  0  0
 28 29  1  0  0  0  0
 29 23  1  0  0  0  0
 30  7  1  0  0  0  0
 30 27  1  0  0  0  0
M  END
>  <MODEL>
1

>  <REMARK>
 VINA RESULT:      -8.6      0.000      0.000
  Name = 
  0 active torsions:
  status: ('A' for Active; 'I' for Inactive)
                            x       y       z     vdW  Elec       q    Type
                         _______ _______ _______ _____ _____    ______ ____

>  <TORSDO>
F 0

$$$$
=
 OpenBabel11052417053D

 30 36  0  0  1  0  0  0  0  0999 V2000
  188.4450  175.3890  141.9120 C   0  0  2  0  0  3  0  0  0  0  0  0
  188.8680  173.7720  139.9100 C   0  0  0  0  0  0  0  0  0  0  0  0
  192.2930  172.4900  143.1390 N   0  0  0  0  0  2  0  0  0  0  0  0
  188.5130  175.0490  143.3980 C   0  0  2  0  0  3  0  0  0  0  0  0
  187.0910  175.9550  141.6500 C   0  0  0  0  0  3  0  0  0  0  0  0
  186.2900  177.7790  145.0130 S   0  0  0  0  0  0  0  0  0  0  0  0
  189.5450  175.0870  146.2500 C   0  0  1  0  0  3  0  0  0  0  0  0
  187.5020  177.3670  143.7020 C   0  0  2  0  0  3  0  0  0  0  0  0
  185.3480  177.3900  142.4780 N   0  0  0  0  0  2  0  0  0  0  0  0
  190.7850  174.4470  145.6330 C   0  0  2  0  0  3  0  0  0  0  0  0
  192.1880  173.8420  143.6250 C   0  0  0  0  0  0  0  0  0  0  0  0
  186.6790  176.9090  142.5000 C   0  0  0  0  0  0  0  0  0  0  0  0
  188.6510  176.3890  144.1210 C   0  0  1  0  0  3  0  0  0  0  0  0
  189.5560  172.6550  139.5250 N   0  0  0  0  0  0  0  0  0  0  0  0
  191.8940  175.0830  146.3970 C   0  0  0  0  0  2  0  0  0  0  0  0
  189.8330  175.3030  147.6130 O   0  0  0  0  0  0  0  0  0  0  0  0
  184.0040  178.6510  143.9140 O   0  0  0  0  0  0  0  0  0  0  0  0
  188.1750  174.5540  138.9440 N   0  0  0  0  0  1  0  0  0  0  0  0
  191.1950  171.6050  142.7660 C   0  0  0  0  0  2  0  0  0  0  0  0
  190.2850  171.9130  140.4130 C   0  0  0  0  0  3  0  0  0  0  0  0
  185.0550  177.9860  143.7300 C   0  0  0  0  0  0  0  0  0  0  0  0
  188.8830  174.1370  141.2580 C   0  0  0  0  0  0  0  0  0  0  0  0
  189.5780  173.9570  143.5350 C   0  0  2  0  0  3  0  0  0  0  0  0
  193.2410  174.5270  143.6860 O   0  0  0  0  0  0  0  0  0  0  0  0
  190.8990  174.4960  144.1050 C   0  0  1  0  0  3  0  0  0  0  0  0
  191.2420  175.3110  147.7460 C   0  0  0  0  0  2  0  0  0  0  0  0
  189.9320  177.5940  145.8900 C   0  0  0  0  0  1  0  0  0  0  0  0
  190.3320  172.2870  141.7630 C   0  0  0  0  0  0  0  0  0  0  0  0
  189.6300  173.4130  142.1540 C   0  0  0  0  0  0  0  0  0  0  0  0
  189.0240  176.4050  145.6140 C   0  0  2  0  0  3  0  0  0  0  0  0
  1  5  1  6  0  0  0
  1  4  1  0  0  0  0
  2 22  1  0  0  0  0
  3 11  1  0  0  0  0
  4 23  1  0  0  0  0
  4 13  1  0  0  0  0
  5 12  2  0  0  0  0
  7 16  1  0  0  0  0
  8 13  1  0  0  0  0
  8  6  1  0  0  0  0
  9 12  1  0  0  0  0
  9 21  1  0  0  0  0
 10  7  1  0  0  0  0
 10 15  1  0  0  0  0
 11 24  2  0  0  0  0
 11 25  1  0  0  0  0
 12  8  1  0  0  0  0
 13 30  1  0  0  0  0
 14  2  2  0  0  0  0
 14 20  1  0  0  0  0
 15 26  1  0  0  0  0
 16 26  1  0  0  0  0
 18  2  1  0  0  0  0
 19  3  1  0  0  0  0
 20 28  2  0  0  0  0
 21 17  2  0  0  0  0
 21  6  1  0  0  0  0
 22  1  1  0  0  0  0
 22 29  2  0  0  0  0
 23 25  1  0  0  0  0
 25 10  1  0  0  0  0
 28 29  1  0  0  0  0
 28 19  1  0  0  0  0
 29 23  1  0  0  0  0
 30 27  1  0  0  0  0
 30  7  1  0  0  0  0
M  END
>  <MODEL>
2

>  <REMARK>
 VINA RESULT:      -8.4      1.124      1.391
  Name = 
  0 active torsions:
  status: ('A' for Active; 'I' for Inactive)
                            x       y       z     vdW  Elec       q    Type
                         _______ _______ _______ _____ _____    ______ ____

>  <TORSDO>
F 0

$$$$
=
 OpenBabel11052417053D

 30 36  0  0  1  0  0  0  0  0999 V2000
  188.9090  176.5730  143.0180 C   0  0  2  0  0  3  0  0  0  0  0  0
  191.0340  175.0650  143.1500 C   0  0  0  0  0  0  0  0  0  0  0  0
  190.0170  175.9910  147.8300 N   0  0  0  0  0  2  0  0  0  0  0  0
  187.6880  176.5200  143.9320 C   0  0  2  0  0  3  0  0  0  0  0  0
  188.4230  176.4040  141.6200 C   0  0  0  0  0  3  0  0  0  0  0  0
  184.9110  178.1140  141.7530 S   0  0  0  0  0  0  0  0  0  0  0  0
  185.7000  177.4410  146.0300 C   0  0  1  0  0  3  0  0  0  0  0  0
  186.6800  178.1250  142.2300 C   0  0  2  0  0  3  0  0  0  0  0  0
  186.7040  176.9740  140.0370 N   0  0  0  0  0  2  0  0  0  0  0  0
  186.9050  177.3660  146.9630 C   0  0  2  0  0  3  0  0  0  0  0  0
  189.3930  177.1950  147.3450 C   0  0  0  0  0  0  0  0  0  0  0  0
  187.3790  177.1710  141.2650 C   0  0  0  0  0  0  0  0  0  0  0  0
  186.9770  177.8610  143.7450 C   0  0  1  0  0  3  0  0  0  0  0  0
  191.8240  174.3500  144.0060 N   0  0  0  0  0  0  0  0  0  0  0  0
  186.7030  178.5440  147.8510 C   0  0  0  0  0  2  0  0  0  0  0  0
  184.6300  177.9600  146.7860 O   0  0  0  0  0  0  0  0  0  0  0  0
  184.6690  177.6630  139.1200 O   0  0  0  0  0  0  0  0  0  0  0  0
  191.4540  175.2910  141.8080 N   0  0  0  0  0  1  0  0  0  0  0  0
  189.9110  174.6560  147.2530 C   0  0  0  0  0  2  0  0  0  0  0  0
  191.4850  174.1660  145.3190 C   0  0  0  0  0  3  0  0  0  0  0  0
  185.4080  177.5410  140.1290 C   0  0  0  0  0  0  0  0  0  0  0  0
  189.8280  175.5860  143.6260 C   0  0  0  0  0  0  0  0  0  0  0  0
  188.2030  176.0770  145.3040 C   0  0  2  0  0  3  0  0  0  0  0  0
  189.7710  178.2910  147.8350 O   0  0  0  0  0  0  0  0  0  0  0  0
  188.2830  177.2410  146.3030 C   0  0  1  0  0  3  0  0  0  0  0  0
  185.1920  178.6370  147.8960 C   0  0  0  0  0  2  0  0  0  0  0  0
  185.9210  179.7620  144.9670 C   0  0  0  0  0  1  0  0  0  0  0  0
  190.2920  174.7090  145.8150 C   0  0  0  0  0  0  0  0  0  0  0  0
  189.4890  175.4260  144.9470 C   0  0  0  0  0  0  0  0  0  0  0  0
  185.8560  178.2620  144.7200 C   0  0  2  0  0  3  0  0  0  0  0  0
  1  5  1  6  0  0  0
  1 22  1  0  0  0  0
  1  4  1  0  0  0  0
  2 22  2  0  0  0  0
  2 14  1  0  0  0  0
  4 23  1  0  0  0  0
  6  8  1  0  0  0  0
  7 16  1  0  0  0  0
  7 10  1  0  0  0  0
  8 13  1  0  0  0  0
  9 21  1  0  0  0  0
  9 12  1  0  0  0  0
 10 15  1  0  0  0  0
 11  3  1  0  0  0  0
 11 24  2  0  0  0  0
 12  5  2  0  0  0  0
 12  8  1  0  0  0  0
 13  4  1  0  0  0  0
 13 30  1  0  0  0  0
 14 20  2  0  0  0  0
 15 26  1  0  0  0  0
 16 26  1  0  0  0  0
 17 21  2  0  0  0  0
 18  2  1  0  0  0  0
 19  3  1  0  0  0  0
 20 28  1  0  0  0  0
 21  6  1  0  0  0  0
 22 29  1  0  0  0  0
 23 25  1  0  0  0  0
 25 10  1  0  0  0  0
 25 11  1  0  0  0  0
 28 19  1  0  0  0  0
 29 23  1  0  0  0  0
 29 28  2  0  0  0  0
 30 27  1  0  0  0  0
 30  7  1  0  0  0  0
M  END
>  <MODEL>
3

>  <REMARK>
 VINA RESULT:      -8.1      2.471      4.706
  Name = 
  0 active torsions:
  status: ('A' for Active; 'I' for Inactive)
                            x       y       z     vdW  Elec       q    Type
                         _______ _______ _______ _____ _____    ______ ____

>  <TORSDO>
F 0

$$$$
=
 OpenBabel11052417053D

 30 36  0  0  1  0  0  0  0  0999 V2000
  189.8380  176.0480  145.1160 C   0  0  2  0  0  3  0  0  0  0  0  0
  191.6720  176.5000  146.9150 C   0  0  0  0  0  0  0  0  0  0  0  0
  193.5780  172.8910  144.2430 N   0  0  0  0  0  2  0  0  0  0  0  0
  190.0570  175.7450  143.6380 C   0  0  2  0  0  3  0  0  0  0  0  0
  188.9430  177.2380  145.1950 C   0  0  0  0  0  3  0  0  0  0  0  0
  186.6910  176.7900  142.0310 S   0  0  0  0  0  0  0  0  0  0  0  0
  190.0670  174.1360  141.0650 C   0  0  1  0  0  3  0  0  0  0  0  0
  187.5330  176.0420  143.4770 C   0  0  2  0  0  3  0  0  0  0  0  0
  187.0160  178.3330  144.2630 N   0  0  0  0  0  2  0  0  0  0  0  0
  191.0750  173.2670  141.8090 C   0  0  2  0  0  3  0  0  0  0  0  0
  192.2140  172.5400  143.9400 C   0  0  0  0  0  0  0  0  0  0  0  0
  187.8440  177.1970  144.4250 C   0  0  0  0  0  0  0  0  0  0  0  0
  188.7520  175.1160  143.1480 C   0  0  1  0  0  3  0  0  0  0  0  0
  192.9640  176.2200  147.2630 N   0  0  0  0  0  0  0  0  0  0  0  0
  190.7110  171.8930  141.3640 C   0  0  0  0  0  2  0  0  0  0  0  0
  189.8250  173.5120  139.8250 O   0  0  0  0  0  0  0  0  0  0  0  0
  185.3140  178.9640  142.7910 O   0  0  0  0  0  0  0  0  0  0  0  0
  190.8120  177.1660  147.8340 N   0  0  0  0  0  1  0  0  0  0  0  0
  194.1500  174.2320  144.2740 C   0  0  0  0  0  2  0  0  0  0  0  0
  193.8020  175.5260  146.4320 C   0  0  0  0  0  3  0  0  0  0  0  0
  186.2580  178.1820  143.0740 C   0  0  0  0  0  0  0  0  0  0  0  0
  191.2120  176.0970  145.6590 C   0  0  0  0  0  0  0  0  0  0  0  0
  191.3860  174.9890  143.5510 C   0  0  2  0  0  3  0  0  0  0  0  0
  191.8450  171.3600  144.1750 O   0  0  0  0  0  0  0  0  0  0  0  0
  191.1890  173.4830  143.3220 C   0  0  1  0  0  3  0  0  0  0  0  0
  190.1980  172.1530  139.9620 C   0  0  0  0  0  2  0  0  0  0  0  0
  187.8060  173.2140  141.8390 C   0  0  0  0  0  1  0  0  0  0  0  0
  193.3430  175.0920  145.1810 C   0  0  0  0  0  0  0  0  0  0  0  0
  192.0380  175.3810  144.8280 C   0  0  0  0  0  0  0  0  0  0  0  0
  188.7150  174.4320  141.7700 C   0  0  2  0  0  3  0  0  0  0  0  0
  1  5  1  6  0  0  0
  1 22  1  0  0  0  0
  2 14  1  0  0  0  0
  2 18  1  0  0  0  0
  3 19  1  0  0  0  0
  4  1  1  0  0  0  0
  6 21  1  0  0  0  0
  6  8  1  0  0  0  0
  7 30  1  0  0  0  0
  7 10  1  0  0  0  0
  8 12  1  0  0  0  0
  9 12  1  0  0  0  0
 10 25  1  0  0  0  0
 11 24  2  0  0  0  0
 11  3  1  0  0  0  0
 12  5  2  0  0  0  0
 13  8  1  0  0  0  0
 13  4  1  0  0  0  0
 15 10  1  0  0  0  0
 16 26  1  0  0  0  0
 16  7  1  0  0  0  0
 17 21  2  0  0  0  0
 19 28  1  0  0  0  0
 20 14  2  0  0  0  0
 21  9  1  0  0  0  0
 22  2  2  0  0  0  0
 23  4  1  0  0  0  0
 23 29  1  0  0  0  0
 25 23  1  0  0  0  0
 25 11  1  0  0  0  0
 26 15  1  0  0  0  0
 28 20  1  0  0  0  0
 29 28  2  0  0  0  0
 29 22  1  0  0  0  0
 30 27  1  0  0  0  0
 30 13  1  0  0  0  0
M  END
>  <MODEL>
4

>  <REMARK>
 VINA RESULT:      -7.7      2.627      5.212
  Name = 
  0 active torsions:
  status: ('A' for Active; 'I' for Inactive)
                            x       y       z     vdW  Elec       q    Type
                         _______ _______ _______ _____ _____    ______ ____

>  <TORSDO>
F 0

$$$$
=
 OpenBabel11052417053D

 30 36  0  0  1  0  0  0  0  0999 V2000
  186.7610  176.2920  142.6880 C   0  0  2  0  0  3  0  0  0  0  0  0
  184.8280  178.0400  142.5720 C   0  0  0  0  0  0  0  0  0  0  0  0
  186.3360  178.3320  147.2020 N   0  0  0  0  0  2  0  0  0  0  0  0
  188.0870  176.4380  143.4270 C   0  0  2  0  0  3  0  0  0  0  0  0
  187.0790  175.9990  141.2620 C   0  0  0  0  0  3  0  0  0  0  0  0
  190.3960  173.9520  141.5590 S   0  0  0  0  0  0  0  0  0  0  0  0
  190.2260  175.8880  145.5080 C   0  0  1  0  0  3  0  0  0  0  0  0
  188.7090  174.3050  142.1810 C   0  0  2  0  0  3  0  0  0  0  0  0
  188.5190  174.7920  139.7600 N   0  0  0  0  0  2  0  0  0  0  0  0
  189.1630  176.3770  146.4860 C   0  0  2  0  0  3  0  0  0  0  0  0
  186.7720  176.9700  147.0330 C   0  0  0  0  0  0  0  0  0  0  0  0
  187.9900  175.0340  141.0500 C   0  0  0  0  0  0  0  0  0  0  0  0
  188.6340  175.0180  143.5740 C   0  0  1  0  0  3  0  0  0  0  0  0
  184.2260  179.0620  143.2530 N   0  0  0  0  0  0  0  0  0  0  0  0
  189.3590  175.4770  147.6560 C   0  0  0  0  0  2  0  0  0  0  0  0
  191.3270  175.4660  146.2780 O   0  0  0  0  0  0  0  0  0  0  0  0
  190.3440  173.6150  138.8980 O   0  0  0  0  0  0  0  0  0  0  0  0
  184.2210  177.5060  141.4000 N   0  0  0  0  0  1  0  0  0  0  0  0
  186.4970  179.4270  146.2530 C   0  0  0  0  0  2  0  0  0  0  0  0
  184.7460  179.5590  144.4160 C   0  0  0  0  0  3  0  0  0  0  0  0
  189.7540  174.1090  139.8920 C   0  0  0  0  0  0  0  0  0  0  0  0
  186.0270  177.5200  143.0640 C   0  0  0  0  0  0  0  0  0  0  0  0
  187.7970  177.3090  144.6520 C   0  0  2  0  0  3  0  0  0  0  0  0
  186.3550  176.1130  147.8550 O   0  0  0  0  0  0  0  0  0  0  0  0
  187.7310  176.4910  145.9510 C   0  0  1  0  0  3  0  0  0  0  0  0
  190.8480  175.2050  147.5840 C   0  0  0  0  0  2  0  0  0  0  0  0
  189.6460  173.4120  145.1940 C   0  0  0  0  0  1  0  0  0  0  0  0
  185.9340  179.0250  144.9350 C   0  0  0  0  0  0  0  0  0  0  0  0
  186.5450  177.9960  144.2430 C   0  0  0  0  0  0  0  0  0  0  0  0
  189.8250  174.7620  144.5150 C   0  0  2  0  0  3  0  0  0  0  0  0
  1  5  1  6  0  0  0
  1 22  1  0  0  0  0
  1  4  1  0  0  0  0
  2 22  2  0  0  0  0
  2 14  1  0  0  0  0
  4 13  1  0  0  0  0
  4 23  1  0  0  0  0
  6  8  1  0  0  0  0
  7 16  1  0  0  0  0
  7 10  1  0  0  0  0
  8 13  1  0  0  0  0
  9 21  1  0  0  0  0
  9 12  1  0  0  0  0
 10 15  1  0  0  0  0
 11  3  1  0  0  0  0
 11 24  2  0  0  0  0
 12  5  2  0  0  0  0
 12  8  1  0  0  0  0
 13 30  1  0  0  0  0
 14 20  2  0  0  0  0
 16 26  1  0  0  0  0
 17 21  2  0  0  0  0
 18  2  1  0  0  0  0
 19  3  1  0  0  0  0
 20 28  1  0  0  0  0
 21  6  1  0  0  0  0
 22 29  1  0  0  0  0
 23 25  1  0  0  0  0
 25 10  1  0  0  0  0
 25 11  1  0  0  0  0
 26 15  1  0  0  0  0
 28 19  1  0  0  0  0
 29 23  1  0  0  0  0
 29 28  2  0  0  0  0
 30 27  1  0  0  0  0
 30  7  1  0  0  0  0
M  END
>  <MODEL>
5

>  <REMARK>
 VINA RESULT:      -7.7      2.312      5.587
  Name = 
  0 active torsions:
  status: ('A' for Active; 'I' for Inactive)
                            x       y       z     vdW  Elec       q    Type
                         _______ _______ _______ _____ _____    ______ ____

>  <TORSDO>
F 0

$$$$
=
 OpenBabel11052417053D

 30 36  0  0  1  0  0  0  0  0999 V2000
  189.3840  176.3990  146.0220 C   0  0  2  0  0  3  0  0  0  0  0  0
  191.7370  175.4440  146.6210 C   0  0  0  0  0  0  0  0  0  0  0  0
  191.4080  174.6990  141.8110 N   0  0  0  0  0  2  0  0  0  0  0  0
  189.0100  177.2100  144.7860 C   0  0  2  0  0  3  0  0  0  0  0  0
  189.0000  177.2070  147.2140 C   0  0  0  0  0  3  0  0  0  0  0  0
  185.8430  179.1230  145.9330 S   0  0  0  0  0  0  0  0  0  0  0  0
  187.6770  177.8540  142.1380 C   0  0  1  0  0  3  0  0  0  0  0  0
  186.8080  177.5670  146.0150 C   0  0  2  0  0  3  0  0  0  0  0  0
  187.3440  178.6670  148.1690 N   0  0  0  0  0  2  0  0  0  0  0  0
  188.5280  176.6990  141.6200 C   0  0  2  0  0  3  0  0  0  0  0  0
  189.9830  174.6770  142.0210 C   0  0  0  0  0  0  0  0  0  0  0  0
  187.7630  177.7290  147.1950 C   0  0  0  0  0  0  0  0  0  0  0  0
  187.4880  177.1180  144.6780 C   0  0  1  0  0  3  0  0  0  0  0  0
  192.9070  174.9840  146.0830 N   0  0  0  0  0  0  0  0  0  0  0  0
  187.6150  176.0300  140.6530 C   0  0  0  0  0  2  0  0  0  0  0  0
  186.8640  178.2740  141.0670 O   0  0  0  0  0  0  0  0  0  0  0  0
  185.5670  180.1670  148.3880 O   0  0  0  0  0  0  0  0  0  0  0  0
  191.4800  175.2910  148.0130 N   0  0  0  0  0  1  0  0  0  0  0  0
  192.3650  175.6310  142.3980 C   0  0  0  0  0  2  0  0  0  0  0  0
  193.1620  175.0560  144.7410 C   0  0  0  0  0  3  0  0  0  0  0  0
  186.2420  179.3980  147.6580 C   0  0  0  0  0  0  0  0  0  0  0  0
  190.7970  176.0380  145.7750 C   0  0  0  0  0  0  0  0  0  0  0  0
  189.9200  176.7120  143.6590 C   0  0  2  0  0  3  0  0  0  0  0  0
  189.3450  173.6720  141.6110 O   0  0  0  0  0  0  0  0  0  0  0  0
  189.1810  175.7960  142.6730 C   0  0  1  0  0  3  0  0  0  0  0  0
  186.7970  177.2000  140.1460 C   0  0  0  0  0  2  0  0  0  0  0  0
  185.6100  176.6810  143.0950 C   0  0  0  0  0  1  0  0  0  0  0  0
  192.2140  175.6240  143.8790 C   0  0  0  0  0  0  0  0  0  0  0  0
  191.0340  176.0940  144.4240 C   0  0  0  0  0  0  0  0  0  0  0  0
  186.7940  177.5910  143.3890 C   0  0  2  0  0  3  0  0  0  0  0  0
  1  5  1  1  0  0  0
  2 18  1  0  0  0  0
  3 11  1  0  0  0  0
  3 19  1  0  0  0  0
  4  1  1  0  0  0  0
  6  8  1  0  0  0  0
  6 21  1  0  0  0  0
  7 30  1  0  0  0  0
  8 12  1  0  0  0  0
 10  7  1  0  0  0  0
 10 25  1  0  0  0  0
 11 25  1  0  0  0  0
 12  5  2  0  0  0  0
 12  9  1  0  0  0  0
 13  4  1  0  0  0  0
 13  8  1  0  0  0  0
 14  2  1  0  0  0  0
 15 10  1  0  0  0  0
 16  7  1  0  0  0  0
 19 28  1  0  0  0  0
 20 14  2  0  0  0  0
 21  9  1  0  0  0  0
 21 17  2  0  0  0  0
 22  1  1  0  0  0  0
 22  2  2  0  0  0  0
 23 29  1  0  0  0  0
 23  4  1  0  0  0  0
 24 11  2  0  0  0  0
 25 23  1  0  0  0  0
 26 15  1  0  0  0  0
 26 16  1  0  0  0  0
 27 30  1  0  0  0  0
 28 29  2  0  0  0  0
 28 20  1  0  0  0  0
 29 22  1  0  0  0  0
 30 13  1  0  0  0  0
M  END
>  <MODEL>
6

>  <REMARK>
 VINA RESULT:      -7.7      2.492      5.026
  Name = 
  0 active torsions:
  status: ('A' for Active; 'I' for Inactive)
                            x       y       z     vdW  Elec       q    Type
                         _______ _______ _______ _____ _____    ______ ____

>  <TORSDO>
F 0

$$$$
=
 OpenBabel11052417053D

 30 36  0  0  1  0  0  0  0  0999 V2000
  189.1330  174.6710  142.2550 C   0  0  2  0  0  3  0  0  0  0  0  0
  187.9270  175.1540  139.9930 C   0  0  0  0  0  0  0  0  0  0  0  0
  185.7380  178.2000  143.1130 N   0  0  0  0  0  2  0  0  0  0  0  0
  189.5550  175.6920  143.3070 C   0  0  2  0  0  3  0  0  0  0  0  0
  190.3520  173.9060  141.8670 C   0  0  0  0  0  3  0  0  0  0  0  0
  192.3960  173.8590  145.1980 S   0  0  0  0  0  0  0  0  0  0  0  0
  189.5750  177.1490  145.9680 C   0  0  1  0  0  3  0  0  0  0  0  0
  190.7800  173.7150  144.3470 C   0  0  2  0  0  3  0  0  0  0  0  0
  192.3760  172.8700  142.6520 N   0  0  0  0  0  2  0  0  0  0  0  0
  188.1550  177.5410  145.5730 C   0  0  2  0  0  3  0  0  0  0  0  0
  186.1050  177.2490  144.1310 C   0  0  0  0  0  0  0  0  0  0  0  0
  191.1020  173.4430  142.8810 C   0  0  0  0  0  0  0  0  0  0  0  0
  189.7760  174.8920  144.5920 C   0  0  1  0  0  3  0  0  0  0  0  0
  187.0660  176.0130  139.3670 N   0  0  0  0  0  0  0  0  0  0  0  0
  187.4280  177.4790  146.8710 C   0  0  0  0  0  2  0  0  0  0  0  0
  189.7910  177.6510  147.2670 O   0  0  0  0  0  0  0  0  0  0  0  0
  194.2220  172.3220  143.9740 O   0  0  0  0  0  0  0  0  0  0  0  0
  188.3000  173.9320  139.3670 N   0  0  0  0  0  1  0  0  0  0  0  0
  186.5710  178.6690  142.0110 C   0  0  0  0  0  2  0  0  0  0  0  0
  186.6350  177.1660  139.9640 C   0  0  0  0  0  3  0  0  0  0  0  0
  193.1250  172.9250  143.8540 C   0  0  0  0  0  0  0  0  0  0  0  0
  188.4040  175.4890  141.2630 C   0  0  0  0  0  0  0  0  0  0  0  0
  188.5250  176.8220  143.2400 C   0  0  2  0  0  3  0  0  0  0  0  0
  185.1920  176.7980  144.8690 O   0  0  0  0  0  0  0  0  0  0  0  0
  187.5260  176.7720  144.4060 C   0  0  1  0  0  3  0  0  0  0  0  0
  188.5190  177.8620  147.8500 C   0  0  0  0  0  2  0  0  0  0  0  0
  189.2760  174.8390  147.0350 C   0  0  0  0  0  1  0  0  0  0  0  0
  187.0850  177.4980  141.2490 C   0  0  0  0  0  0  0  0  0  0  0  0
  187.9590  176.6330  141.8790 C   0  0  0  0  0  0  0  0  0  0  0  0
  189.9420  175.6400  145.9260 C   0  0  2  0  0  3  0  0  0  0  0  0
  1  5  1  6  0  0  0
  1  4  1  0  0  0  0
  2 22  1  0  0  0  0
  3 11  1  0  0  0  0
  4 13  1  0  0  0  0
  5 12  2  0  0  0  0
  7 16  1  0  0  0  0
  8 13  1  0  0  0  0
  8  6  1  0  0  0  0
  9 12  1  0  0  0  0
  9 21  1  0  0  0  0
 10  7  1  0  0  0  0
 10 15  1  0  0  0  0
 11 25  1  0  0  0  0
 11 24  2  0  0  0  0
 12  8  1  0  0  0  0
 13 30  1  0  0  0  0
 14 20  1  0  0  0  0
 14  2  2  0  0  0  0
 15 26  1  0  0  0  0
 16 26  1  0  0  0  0
 18  2  1  0  0  0  0
 19  3  1  0  0  0  0
 20 28  2  0  0  0  0
 21 17  2  0  0  0  0
 21  6  1  0  0  0  0
 22 29  2  0  0  0  0
 22  1  1  0  0  0  0
 23  4  1  0  0  0  0
 23 25  1  0  0  0  0
 25 10  1  0  0  0  0
 28 29  1  0  0  0  0
 28 19  1  0  0  0  0
 29 23  1  0  0  0  0
 30  7  1  0  0  0  0
 30 27  1  0  0  0  0
M  END
>  <MODEL>
7

>  <REMARK>
 VINA RESULT:      -7.6      2.047      5.444
  Name = 
  0 active torsions:
  status: ('A' for Active; 'I' for Inactive)
                            x       y       z     vdW  Elec       q    Type
                         _______ _______ _______ _____ _____    ______ ____

>  <TORSDO>
F 0

$$$$
=
 OpenBabel11052417053D

 30 36  0  0  1  0  0  0  0  0999 V2000
  190.4820  175.7620  145.0590 C   0  0  2  0  0  3  0  0  0  0  0  0
  189.0870  177.3310  146.6080 C   0  0  0  0  0  0  0  0  0  0  0  0
  186.3120  176.9310  142.6160 N   0  0  0  0  0  2  0  0  0  0  0  0
  189.9510  174.6410  144.1710 C   0  0  2  0  0  3  0  0  0  0  0  0
  191.5040  175.1630  145.9640 C   0  0  0  0  0  3  0  0  0  0  0  0
  193.0450  172.3530  143.7270 S   0  0  0  0  0  0  0  0  0  0  0  0
  189.2700  173.1590  141.6130 C   0  0  1  0  0  3  0  0  0  0  0  0
  192.4160  174.0670  143.8810 C   0  0  2  0  0  3  0  0  0  0  0  0
  193.3290  173.6070  146.1370 N   0  0  0  0  0  2  0  0  0  0  0  0
  188.3300  174.3380  141.3780 C   0  0  2  0  0  3  0  0  0  0  0  0
  187.5450  176.6750  141.9160 C   0  0  0  0  0  0  0  0  0  0  0  0
  192.4240  174.3830  145.3740 C   0  0  0  0  0  0  0  0  0  0  0  0
  191.0600  174.3610  143.1550 C   0  0  1  0  0  3  0  0  0  0  0  0
  187.8620  177.9170  146.7640 N   0  0  0  0  0  0  0  0  0  0  0  0
  188.4460  174.5590  139.9100 C   0  0  0  0  0  2  0  0  0  0  0  0
  189.1990  172.3450  140.4650 O   0  0  0  0  0  0  0  0  0  0  0  0
  194.7780  171.8260  145.7050 O   0  0  0  0  0  0  0  0  0  0  0  0
  190.1760  177.7170  147.4400 N   0  0  0  0  0  1  0  0  0  0  0  0
  185.9110  176.3890  143.9090 C   0  0  0  0  0  2  0  0  0  0  0  0
  186.8090  177.6180  145.9430 C   0  0  0  0  0  3  0  0  0  0  0  0
  193.8240  172.5530  145.3290 C   0  0  0  0  0  0  0  0  0  0  0  0
  189.2500  176.3720  145.6050 C   0  0  0  0  0  0  0  0  0  0  0  0
  188.5540  175.0780  143.7230 C   0  0  2  0  0  3  0  0  0  0  0  0
  187.8160  177.3960  140.9220 O   0  0  0  0  0  0  0  0  0  0  0  0
  188.5330  175.5700  142.2680 C   0  0  1  0  0  3  0  0  0  0  0  0
  188.7080  173.1530  139.4100 C   0  0  0  0  0  2  0  0  0  0  0  0
  191.5190  174.0100  140.7280 C   0  0  0  0  0  1  0  0  0  0  0  0
  186.9680  176.6790  144.9150 C   0  0  0  0  0  0  0  0  0  0  0  0
  188.2060  176.0820  144.7620 C   0  0  0  0  0  0  0  0  0  0  0  0
  190.7560  173.4780  141.9320 C   0  0  2  0  0  3  0  0  0  0  0  0
  1 22  1  0  0  0  0
  1  5  1  1  0  0  0
  2 14  1  0  0  0  0
  2 18  1  0  0  0  0
  3 19  1  0  0  0  0
  4  1  1  0  0  0  0
  6  8  1  0  0  0  0
  6 21  1  0  0  0  0
  7 30  1  0  0  0  0
  8 12  1  0  0  0  0
 10  7  1  0  0  0  0
 10 25  1  0  0  0  0
 11 25  1  0  0  0  0
 11  3  1  0  0  0  0
 12  5  2  0  0  0  0
 12  9  1  0  0  0  0
 13  8  1  0  0  0  0
 13  4  1  0  0  0  0
 15 10  1  0  0  0  0
 16  7  1  0  0  0  0
 19 28  1  0  0  0  0
 20 14  2  0  0  0  0
 21 17  2  0  0  0  0
 21  9  1  0  0  0  0
 22  2  2  0  0  0  0
 23  4  1  0  0  0  0
 23 29  1  0  0  0  0
 24 11  2  0  0  0  0
 25 23  1  0  0  0  0
 26 15  1  0  0  0  0
 26 16  1  0  0  0  0
 27 30  1  0  0  0  0
 28 20  1  0  0  0  0
 29 28  2  0  0  0  0
 29 22  1  0  0  0  0
 30 13  1  0  0  0  0
M  END
>  <MODEL>
8

>  <REMARK>
 VINA RESULT:      -7.5      3.102      6.905
  Name = 
  0 active torsions:
  status: ('A' for Active; 'I' for Inactive)
                            x       y       z     vdW  Elec       q    Type
                         _______ _______ _______ _____ _____    ______ ____

>  <TORSDO>
F 0

$$$$
=
 OpenBabel11052417053D

 30 36  0  0  1  0  0  0  0  0999 V2000
  187.9330  176.8460  142.4040 C   0  0  2  0  0  3  0  0  0  0  0  0
  187.1770  176.3690  139.9530 C   0  0  0  0  0  0  0  0  0  0  0  0
  191.1500  173.5860  140.4700 N   0  0  0  0  0  2  0  0  0  0  0  0
  188.4700  175.8360  143.4120 C   0  0  2  0  0  3  0  0  0  0  0  0
  186.7570  177.5140  143.0300 C   0  0  0  0  0  3  0  0  0  0  0  0
  187.7340  177.5360  146.8140 S   0  0  0  0  0  0  0  0  0  0  0  0
  190.4730  174.4720  145.2380 C   0  0  1  0  0  3  0  0  0  0  0  0
  188.2300  177.7590  145.0640 C   0  0  2  0  0  3  0  0  0  0  0  0
  185.8480  178.4360  145.0560 N   0  0  0  0  0  2  0  0  0  0  0  0
  191.2000  174.1640  143.9330 C   0  0  2  0  0  3  0  0  0  0  0  0
  191.5600  174.5440  141.4640 C   0  0  0  0  0  0  0  0  0  0  0  0
  186.9340  177.9590  144.2840 C   0  0  0  0  0  0  0  0  0  0  0  0
  189.1840  176.6620  144.4830 C   0  0  1  0  0  3  0  0  0  0  0  0
  187.3830  175.5490  138.8790 N   0  0  0  0  0  0  0  0  0  0  0  0
  192.6310  174.3190  144.3130 C   0  0  0  0  0  2  0  0  0  0  0  0
  191.2930  174.0010  146.2830 O   0  0  0  0  0  0  0  0  0  0  0  0
  185.4820  178.9030  147.3160 O   0  0  0  0  0  0  0  0  0  0  0  0
  186.3810  177.5410  139.8170 N   0  0  0  0  0  1  0  0  0  0  0  0
  189.8150  173.0250  140.2920 C   0  0  0  0  0  2  0  0  0  0  0  0
  188.1930  174.4490  138.9540 C   0  0  0  0  0  3  0  0  0  0  0  0
  186.1970  178.3720  146.4280 C   0  0  0  0  0  0  0  0  0  0  0  0
  187.7830  176.0450  141.1700 C   0  0  0  0  0  0  0  0  0  0  0  0
  189.2160  174.7760  142.5970 C   0  0  2  0  0  3  0  0  0  0  0  0
  192.6900  175.0810  141.3320 O   0  0  0  0  0  0  0  0  0  0  0  0
  190.7410  174.9320  142.6890 C   0  0  1  0  0  3  0  0  0  0  0  0
  192.6070  173.8960  145.7680 C   0  0  0  0  0  2  0  0  0  0  0  0
  191.2820  176.8310  145.8220 C   0  0  0  0  0  1  0  0  0  0  0  0
  188.8290  174.1310  140.1610 C   0  0  0  0  0  0  0  0  0  0  0  0
  188.6150  174.9560  141.2500 C   0  0  0  0  0  0  0  0  0  0  0  0
  190.0820  175.9500  145.5100 C   0  0  2  0  0  3  0  0  0  0  0  0
  1  5  1  1  0  0  0
  1  4  1  0  0  0  0
  2 22  1  0  0  0  0
  3 11  1  0  0  0  0
  4 13  1  0  0  0  0
  5 12  2  0  0  0  0
  7 30  1  0  0  0  0
  7 16  1  0  0  0  0
  8  6  1  0  0  0  0
  9 21  1  0  0  0  0
 10 15  1  0  0  0  0
 10  7  1  0  0  0  0
 11 25  1  0  0  0  0
 12  9  1  0  0  0  0
 12  8  1  0  0  0  0
 13  8  1  0  0  0  0
 13 30  1  0  0  0  0
 14 20  1  0  0  0  0
 14  2  2  0  0  0  0
 15 26  1  0  0  0  0
 18  2  1  0  0  0  0
 19  3  1  0  0  0  0
 20 28  2  0  0  0  0
 21  6  1  0  0  0  0
 21 17  2  0  0  0  0
 22 29  2  0  0  0  0
 22  1  1  0  0  0  0
 23 25  1  0  0  0  0
 23  4  1  0  0  0  0
 24 11  2  0  0  0  0
 25 10  1  0  0  0  0
 26 16  1  0  0  0  0
 28 19  1  0  0  0  0
 28 29  1  0  0  0  0
 29 23  1  0  0  0  0
 30 27  1  0  0  0  0
M  END
>  <MODEL>
9

>  <REMARK>
 VINA RESULT:      -7.3      1.473      1.641
  Name = 
  0 active torsions:
  status: ('A' for Active; 'I' for Inactive)
                            x       y       z     vdW  Elec       q    Type
                         _______ _______ _______ _____ _____    ______ ____

>  <TORSDO>
F 0

$$$$
