=
 OpenBabel11052417433D

 31 33  0  0  1  0  0  0  0  0999 V2000
  188.8510  178.6960  141.2540 F   0  0  0  0  0  0  0  0  0  0  0  0
  187.1740  176.8310  145.0760 C   0  0  1  0  0  3  0  0  0  0  0  0
  186.7610  176.7040  143.5970 C   0  0  0  0  0  2  0  0  0  0  0  0
  188.5990  177.6530  142.1270 C   0  0  0  0  0  0  0  0  0  0  0  0
  190.8580  177.4030  142.7380 O   0  0  0  0  0  0  0  0  0  0  0  0
  189.5000  177.7460  144.6180 C   0  0  0  0  0  2  0  0  0  0  0  0
  188.7050  176.6020  145.2770 C   0  0  1  0  0  0  0  0  0  0  0  0
  189.7190  177.5920  143.1360 C   0  0  0  0  0  0  0  0  0  0  0  0
  187.2280  177.8890  142.7550 C   0  0  0  0  0  2  0  0  0  0  0  0
  188.5730  176.4740  141.4020 F   0  0  0  0  0  0  0  0  0  0  0  0
  186.5970  178.1110  145.7450 C   0  0  1  0  0  3  0  0  0  0  0  0
  184.2650  178.4980  145.1460 C   0  0  0  0  0  2  0  0  0  0  0  0
  185.6840  178.8910  144.8000 C   0  0  0  0  0  2  0  0  0  0  0  0
  184.2790  178.2220  146.6310 C   0  0  0  0  0  2  0  0  0  0  0  0
  185.6970  177.7580  146.9340 C   0  0  2  0  0  3  0  0  0  0  0  0
  186.4580  179.5940  148.0970 C   0  0  0  0  0  1  0  0  0  0  0  0
  186.1850  178.2180  148.1790 O   0  0  0  0  0  0  0  0  0  0  0  0
  189.6590  177.5420  147.2490 O   0  0  0  0  0  0  0  0  0  0  0  0
  189.0510  176.6100  146.7430 C   0  0  0  0  0  3  0  0  0  0  0  0
  189.1390  175.2320  144.7020 C   0  0  0  0  0  2  0  0  0  0  0  0
  190.2660  174.5690  145.4890 C   0  0  0  0  0  2  0  0  0  0  0  0
  191.5670  174.6100  144.6940 C   0  0  0  0  0  2  0  0  0  0  0  0
  192.8310  174.7590  145.5680 C   0  0  1  0  0  0  0  0  0  0  0  0
  192.3510  175.1650  146.9520 C   0  0  0  0  0  1  0  0  0  0  0  0
  193.6770  173.4710  145.7650 C   0  0  0  0  0  3  0  0  0  0  0  0
  194.5420  173.0820  144.5780 C   0  0  0  0  0  2  0  0  0  0  0  0
  193.2510  172.3350  144.8480 C   0  0  0  0  0  2  0  0  0  0  0  0
  193.6170  176.2080  143.8140 O   0  0  0  0  0  0  0  0  0  0  0  0
  193.7010  175.8710  145.0270 C   0  0  0  0  0  0  0  0  0  0  0  0
  194.6530  176.4800  145.8450 O   0  0  0  0  0  0  0  0  0  0  0  0
  194.8620  177.8020  145.7900 O   0  0  0  0  0  1  0  0  0  0  0  0
  1  4  1  0  0  0  0
  2  3  1  6  0  0  0
  2  7  1  0  0  0  0
  2 11  1  0  0  0  0
  4  9  1  0  0  0  0
  4  8  1  0  0  0  0
  5  8  2  0  0  0  0
  6  7  1  0  0  0  0
  7 20  1  6  0  0  0
  7 19  1  0  0  0  0
  8  6  1  0  0  0  0
  9  3  1  0  0  0  0
 10  4  1  0  0  0  0
 11 13  1  6  0  0  0
 11 15  1  0  0  0  0
 12 14  1  0  0  0  0
 13 12  1  0  0  0  0
 14 15  1  0  0  0  0
 15 17  1  1  0  0  0
 16 17  1  0  0  0  0
 19 18  2  0  0  0  0
 20 21  1  0  0  0  0
 22 21  1  0  0  0  0
 22 23  1  0  0  0  0
 23 25  1  0  0  0  0
 23 24  1  1  0  0  0
 26 27  1  0  0  0  0
 26 25  1  0  0  0  0
 27 25  1  0  0  0  0
 28 29  2  0  0  0  0
 29 23  1  0  0  0  0
 29 30  1  0  0  0  0
 31 30  1  0  0  0  0
M  END
>  <MODEL>
1

>  <REMARK>
 VINA RESULT:      -7.2      0.000      0.000
  Name = 
  10 active torsions:
  status: ('A' for Active; 'I' for Inactive)
    1  A    between atoms: O_1  and  C_19
    2  A    between atoms: C_3  and  C_22
    3  A    between atoms: C_4  and  C_5
    4  A    between atoms: C_9  and  C_22
    5  A    between atoms: C_9  and  C_23
    6  A    between atoms: C_15  and  C_21
    7  A    between atoms: C_15  and  C_23
    8  A    between atoms: C_19  and  C_22
    9  A    between atoms: C_21  and  C_29
   10  A    between atoms: C_30  and  O_31
                            x       y       z     vdW  Elec       q    Type
                         _______ _______ _______ _____ _____    ______ ____

>  <TORSDO>
F 10

$$$$
=
 OpenBabel11052417433D

 31 33  0  0  1  0  0  0  0  0999 V2000
  188.7380  174.0460  147.6070 F   0  0  0  0  0  0  0  0  0  0  0  0
  188.2460  177.6580  144.8500 C   0  0  1  0  0  3  0  0  0  0  0  0
  188.5140  177.5420  146.3630 C   0  0  0  0  0  2  0  0  0  0  0  0
  189.1830  175.1580  146.9170 C   0  0  0  0  0  0  0  0  0  0  0  0
  190.4720  173.9030  145.3990 O   0  0  0  0  0  0  0  0  0  0  0  0
  188.9420  175.2820  144.2800 C   0  0  0  0  0  2  0  0  0  0  0  0
  189.2240  176.7740  144.0140 C   0  0  1  0  0  0  0  0  0  0  0  0
  189.5830  174.7300  145.5260 C   0  0  0  0  0  0  0  0  0  0  0  0
  188.0670  176.1990  146.9350 C   0  0  0  0  0  2  0  0  0  0  0  0
  190.2910  175.6650  147.5750 F   0  0  0  0  0  0  0  0  0  0  0  0
  186.7390  177.5020  144.5010 C   0  0  1  0  0  3  0  0  0  0  0  0
  185.3290  179.0410  145.7630 C   0  0  0  0  0  2  0  0  0  0  0  0
  185.8470  177.6190  145.7360 C   0  0  0  0  0  2  0  0  0  0  0  0
  185.2040  179.4460  144.3140 C   0  0  0  0  0  2  0  0  0  0  0  0
  186.2620  178.6310  143.5820 C   0  0  2  0  0  3  0  0  0  0  0  0
  184.4430  178.1500  142.2540 C   0  0  0  0  0  1  0  0  0  0  0  0
  185.8470  178.1940  142.3020 O   0  0  0  0  0  0  0  0  0  0  0  0
  188.5180  176.1520  141.8240 O   0  0  0  0  0  0  0  0  0  0  0  0
  189.0150  177.0070  142.5410 C   0  0  0  0  0  3  0  0  0  0  0  0
  190.6970  177.1200  144.3390 C   0  0  0  0  0  2  0  0  0  0  0  0
  191.6790  176.6740  143.2600 C   0  0  0  0  0  2  0  0  0  0  0  0
  193.1140  176.7860  143.7680 C   0  0  0  0  0  2  0  0  0  0  0  0
  193.8080  175.4250  143.9900 C   0  0  1  0  0  0  0  0  0  0  0  0
  193.0610  174.4160  143.1320 C   0  0  0  0  0  1  0  0  0  0  0  0
  195.2970  175.3410  143.5560 C   0  0  0  0  0  3  0  0  0  0  0  0
  196.0810  176.6360  143.6970 C   0  0  0  0  0  2  0  0  0  0  0  0
  195.6040  176.1870  142.3290 C   0  0  0  0  0  2  0  0  0  0  0  0
  193.8140  173.7960  145.7630 O   0  0  0  0  0  0  0  0  0  0  0  0
  193.6670  175.0060  145.4370 C   0  0  0  0  0  0  0  0  0  0  0  0
  193.3000  175.9400  146.4060 O   0  0  0  0  0  0  0  0  0  0  0  0
  194.1910  176.8160  146.8880 O   0  0  0  0  0  1  0  0  0  0  0  0
  2  3  1  1  0  0  0
  3  9  1  0  0  0  0
  4  9  1  0  0  0  0
  4 10  1  0  0  0  0
  4  1  1  0  0  0  0
  5  8  2  0  0  0  0
  6  8  1  0  0  0  0
  7 19  1  6  0  0  0
  7  6  1  0  0  0  0
  7 20  1  0  0  0  0
  7  2  1  0  0  0  0
  8  4  1  0  0  0  0
 11  2  1  0  0  0  0
 11 13  1  1  0  0  0
 13 12  1  0  0  0  0
 14 12  1  0  0  0  0
 15 17  1  6  0  0  0
 15 14  1  0  0  0  0
 15 11  1  0  0  0  0
 16 17  1  0  0  0  0
 18 19  2  0  0  0  0
 21 22  1  0  0  0  0
 21 20  1  0  0  0  0
 22 23  1  0  0  0  0
 23 24  1  6  0  0  0
 23 29  1  0  0  0  0
 25 26  1  0  0  0  0
 25 23  1  0  0  0  0
 27 25  1  0  0  0  0
 27 26  1  0  0  0  0
 29 28  2  0  0  0  0
 29 30  1  0  0  0  0
 30 31  1  0  0  0  0
M  END
>  <MODEL>
2

>  <REMARK>
 VINA RESULT:      -7.0      2.628      3.915
  Name = 
  10 active torsions:
  status: ('A' for Active; 'I' for Inactive)
    1  A    between atoms: O_1  and  C_19
    2  A    between atoms: C_3  and  C_22
    3  A    between atoms: C_4  and  C_5
    4  A    between atoms: C_9  and  C_22
    5  A    between atoms: C_9  and  C_23
    6  A    between atoms: C_15  and  C_21
    7  A    between atoms: C_15  and  C_23
    8  A    between atoms: C_19  and  C_22
    9  A    between atoms: C_21  and  C_29
   10  A    between atoms: C_30  and  O_31
                            x       y       z     vdW  Elec       q    Type
                         _______ _______ _______ _____ _____    ______ ____

>  <TORSDO>
F 10

$$$$
=
 OpenBabel11052417433D

 31 33  0  0  1  0  0  0  0  0999 V2000
  188.6690  174.0950  147.6630 F   0  0  0  0  0  0  0  0  0  0  0  0
  188.4280  177.6170  144.7590 C   0  0  1  0  0  3  0  0  0  0  0  0
  188.6420  177.5480  146.2830 C   0  0  0  0  0  2  0  0  0  0  0  0
  189.1850  175.1600  146.9470 C   0  0  0  0  0  0  0  0  0  0  0  0
  190.4630  173.7920  145.5210 O   0  0  0  0  0  0  0  0  0  0  0  0
  189.0340  175.1920  144.3010 C   0  0  0  0  0  2  0  0  0  0  0  0
  189.3900  176.6590  143.9890 C   0  0  1  0  0  0  0  0  0  0  0  0
  189.6090  174.6610  145.5880 C   0  0  0  0  0  0  0  0  0  0  0  0
  188.1170  176.2480  146.8890 C   0  0  0  0  0  2  0  0  0  0  0  0
  190.2940  175.6420  147.6220 F   0  0  0  0  0  0  0  0  0  0  0  0
  186.9270  177.5130  144.3660 C   0  0  1  0  0  3  0  0  0  0  0  0
  185.5530  179.1750  145.5050 C   0  0  0  0  0  2  0  0  0  0  0  0
  186.0020  177.7310  145.5630 C   0  0  0  0  0  2  0  0  0  0  0  0
  185.4940  179.5150  144.0350 C   0  0  0  0  0  2  0  0  0  0  0  0
  186.5340  178.6170  143.3790 C   0  0  2  0  0  3  0  0  0  0  0  0
  184.7380  178.1670  142.0090 C   0  0  0  0  0  1  0  0  0  0  0  0
  186.1400  178.1380  142.1080 O   0  0  0  0  0  0  0  0  0  0  0  0
  188.7030  175.9950  141.8060 O   0  0  0  0  0  0  0  0  0  0  0  0
  189.2400  176.8440  142.5020 C   0  0  0  0  0  3  0  0  0  0  0  0
  190.8670  176.9520  144.3500 C   0  0  0  0  0  2  0  0  0  0  0  0
  191.8400  176.6730  143.2090 C   0  0  0  0  0  2  0  0  0  0  0  0
  192.4860  175.3020  143.3830 C   0  0  0  0  0  2  0  0  0  0  0  0
  193.9810  175.3570  143.7620 C   0  0  1  0  0  0  0  0  0  0  0  0
  194.6870  176.0780  142.6240 C   0  0  0  0  0  1  0  0  0  0  0  0
  194.3270  176.1490  145.0540 C   0  0  0  0  0  3  0  0  0  0  0  0
  195.0550  175.3500  146.1220 C   0  0  0  0  0  2  0  0  0  0  0  0
  193.5760  175.6450  146.2760 C   0  0  0  0  0  2  0  0  0  0  0  0
  195.7520  173.7380  143.5670 O   0  0  0  0  0  0  0  0  0  0  0  0
  194.5410  173.9550  143.8500 C   0  0  0  0  0  0  0  0  0  0  0  0
  193.7070  172.8840  144.1700 O   0  0  0  0  0  0  0  0  0  0  0  0
  193.9140  172.1590  145.2770 O   0  0  0  0  0  1  0  0  0  0  0  0
  2  3  1  1  0  0  0
  3  9  1  0  0  0  0
  4 10  1  0  0  0  0
  4  1  1  0  0  0  0
  5  8  2  0  0  0  0
  6  8  1  0  0  0  0
  7 19  1  6  0  0  0
  7  6  1  0  0  0  0
  7 20  1  0  0  0  0
  7  2  1  0  0  0  0
  8  4  1  0  0  0  0
  9  4  1  0  0  0  0
 11  2  1  0  0  0  0
 11 13  1  1  0  0  0
 12 13  1  0  0  0  0
 14 12  1  0  0  0  0
 15 17  1  6  0  0  0
 15 14  1  0  0  0  0
 15 11  1  0  0  0  0
 16 17  1  0  0  0  0
 18 19  2  0  0  0  0
 21 22  1  0  0  0  0
 21 20  1  0  0  0  0
 22 23  1  0  0  0  0
 23 24  1  6  0  0  0
 23 29  1  0  0  0  0
 23 25  1  0  0  0  0
 25 26  1  0  0  0  0
 25 27  1  0  0  0  0
 26 27  1  0  0  0  0
 28 29  2  0  0  0  0
 29 30  1  0  0  0  0
 30 31  1  0  0  0  0
M  END
>  <MODEL>
3

>  <REMARK>
 VINA RESULT:      -6.9      2.835      4.096
  Name = 
  10 active torsions:
  status: ('A' for Active; 'I' for Inactive)
    1  A    between atoms: O_1  and  C_19
    2  A    between atoms: C_3  and  C_22
    3  A    between atoms: C_4  and  C_5
    4  A    between atoms: C_9  and  C_22
    5  A    between atoms: C_9  and  C_23
    6  A    between atoms: C_15  and  C_21
    7  A    between atoms: C_15  and  C_23
    8  A    between atoms: C_19  and  C_22
    9  A    between atoms: C_21  and  C_29
   10  A    between atoms: C_30  and  O_31
                            x       y       z     vdW  Elec       q    Type
                         _______ _______ _______ _____ _____    ______ ____

>  <TORSDO>
F 10

$$$$
=
 OpenBabel11052417433D

 31 33  0  0  1  0  0  0  0  0999 V2000
  188.8990  178.6650  141.3610 F   0  0  0  0  0  0  0  0  0  0  0  0
  187.3230  176.6630  145.1570 C   0  0  1  0  0  3  0  0  0  0  0  0
  186.8890  176.5670  143.6810 C   0  0  0  0  0  2  0  0  0  0  0  0
  188.6820  177.5940  142.2100 C   0  0  0  0  0  0  0  0  0  0  0  0
  190.9550  177.3740  142.7780 O   0  0  0  0  0  0  0  0  0  0  0  0
  189.6220  177.6380  144.6880 C   0  0  0  0  0  2  0  0  0  0  0  0
  188.8620  176.4600  145.3270 C   0  0  1  0  0  0  0  0  0  0  0  0
  189.8200  177.5290  143.1980 C   0  0  0  0  0  0  0  0  0  0  0  0
  187.3170  177.7840  142.8650 C   0  0  0  0  0  2  0  0  0  0  0  0
  188.6680  176.4350  141.4530 F   0  0  0  0  0  0  0  0  0  0  0  0
  186.7310  177.9120  145.8690 C   0  0  1  0  0  3  0  0  0  0  0  0
  184.4710  178.4280  145.1110 C   0  0  0  0  0  2  0  0  0  0  0  0
  185.9270  178.7920  144.9140 C   0  0  0  0  0  2  0  0  0  0  0  0
  184.3510  178.0460  146.5670 C   0  0  0  0  0  2  0  0  0  0  0  0
  185.7230  177.5080  146.9500 C   0  0  2  0  0  3  0  0  0  0  0  0
  186.7190  179.1290  148.2480 C   0  0  0  0  0  1  0  0  0  0  0  0
  186.1170  177.8590  148.2630 O   0  0  0  0  0  0  0  0  0  0  0  0
  189.8360  177.3620  147.3060 O   0  0  0  0  0  0  0  0  0  0  0  0
  189.2310  176.4360  146.7870 C   0  0  0  0  0  3  0  0  0  0  0  0
  189.3140  175.1160  144.7080 C   0  0  0  0  0  2  0  0  0  0  0  0
  190.3240  174.3590  145.5650 C   0  0  0  0  0  2  0  0  0  0  0  0
  191.4240  173.7650  144.6920 C   0  0  0  0  0  2  0  0  0  0  0  0
  192.8340  174.3160  144.9970 C   0  0  1  0  0  0  0  0  0  0  0  0
  193.1640  175.2930  143.8790 C   0  0  0  0  0  1  0  0  0  0  0  0
  192.9800  175.1140  146.3230 C   0  0  0  0  0  3  0  0  0  0  0  0
  193.0890  176.6200  146.1570 C   0  0  0  0  0  2  0  0  0  0  0  0
  194.3300  175.8010  146.4540 C   0  0  0  0  0  2  0  0  0  0  0  0
  193.8140  172.2790  145.8240 O   0  0  0  0  0  0  0  0  0  0  0  0
  193.8460  173.1930  144.9540 C   0  0  0  0  0  0  0  0  0  0  0  0
  194.8630  173.2010  144.0010 O   0  0  0  0  0  0  0  0  0  0  0  0
  196.1390  173.4020  144.3590 O   0  0  0  0  0  1  0  0  0  0  0  0
  1  4  1  0  0  0  0
  2  3  1  6  0  0  0
  2  7  1  0  0  0  0
  2 11  1  0  0  0  0
  4  9  1  0  0  0  0
  4  8  1  0  0  0  0
  5  8  2  0  0  0  0
  6  7  1  0  0  0  0
  7 20  1  6  0  0  0
  7 19  1  0  0  0  0
  8  6  1  0  0  0  0
  9  3  1  0  0  0  0
 10  4  1  0  0  0  0
 11 13  1  6  0  0  0
 11 15  1  0  0  0  0
 12 14  1  0  0  0  0
 13 12  1  0  0  0  0
 14 15  1  0  0  0  0
 15 17  1  1  0  0  0
 16 17  1  0  0  0  0
 19 18  2  0  0  0  0
 20 21  1  0  0  0  0
 22 23  1  0  0  0  0
 22 21  1  0  0  0  0
 23 24  1  6  0  0  0
 23 25  1  0  0  0  0
 25 27  1  0  0  0  0
 26 25  1  0  0  0  0
 26 27  1  0  0  0  0
 29 23  1  0  0  0  0
 29 28  2  0  0  0  0
 30 31  1  0  0  0  0
 30 29  1  0  0  0  0
M  END
>  <MODEL>
4

>  <REMARK>
 VINA RESULT:      -6.9      1.322      1.909
  Name = 
  10 active torsions:
  status: ('A' for Active; 'I' for Inactive)
    1  A    between atoms: O_1  and  C_19
    2  A    between atoms: C_3  and  C_22
    3  A    between atoms: C_4  and  C_5
    4  A    between atoms: C_9  and  C_22
    5  A    between atoms: C_9  and  C_23
    6  A    between atoms: C_15  and  C_21
    7  A    between atoms: C_15  and  C_23
    8  A    between atoms: C_19  and  C_22
    9  A    between atoms: C_21  and  C_29
   10  A    between atoms: C_30  and  O_31
                            x       y       z     vdW  Elec       q    Type
                         _______ _______ _______ _____ _____    ______ ____

>  <TORSDO>
F 10

$$$$
=
 OpenBabel11052417433D

 31 33  0  0  1  0  0  0  0  0999 V2000
  188.9300  174.1620  147.7660 F   0  0  0  0  0  0  0  0  0  0  0  0
  187.8360  177.4470  144.7820 C   0  0  1  0  0  3  0  0  0  0  0  0
  188.0400  177.4650  146.3090 C   0  0  0  0  0  2  0  0  0  0  0  0
  189.1660  175.3090  147.0310 C   0  0  0  0  0  0  0  0  0  0  0  0
  190.7710  174.2860  145.6460 O   0  0  0  0  0  0  0  0  0  0  0  0
  189.0480  175.2490  144.3830 C   0  0  0  0  0  2  0  0  0  0  0  0
  189.0220  176.7520  144.0420 C   0  0  1  0  0  0  0  0  0  0  0  0
  189.7220  174.9090  145.6860 C   0  0  0  0  0  0  0  0  0  0  0  0
  187.8570  176.0860  146.9400 C   0  0  0  0  0  2  0  0  0  0  0  0
  190.1060  176.0720  147.7040 F   0  0  0  0  0  0  0  0  0  0  0  0
  186.4170  176.9550  144.3790 C   0  0  1  0  0  3  0  0  0  0  0  0
  184.6480  178.2750  145.4160 C   0  0  0  0  0  2  0  0  0  0  0  0
  185.4400  176.9930  145.5530 C   0  0  0  0  0  2  0  0  0  0  0  0
  184.5400  178.5190  143.9300 C   0  0  0  0  0  2  0  0  0  0  0  0
  185.7860  177.8780  143.3320 C   0  0  2  0  0  3  0  0  0  0  0  0
  185.7310  178.1950  141.0520 C   0  0  0  0  0  1  0  0  0  0  0  0
  185.5520  177.2570  142.0840 O   0  0  0  0  0  0  0  0  0  0  0  0
  188.6300  175.8800  141.8590 O   0  0  0  0  0  0  0  0  0  0  0  0
  188.8490  176.8640  142.5500 C   0  0  0  0  0  3  0  0  0  0  0  0
  190.3690  177.4200  144.4080 C   0  0  0  0  0  2  0  0  0  0  0  0
  191.4210  177.3130  143.3090 C   0  0  0  0  0  2  0  0  0  0  0  0
  192.7100  176.7130  143.8620 C   0  0  0  0  0  2  0  0  0  0  0  0
  193.3130  175.5990  142.9790 C   0  0  1  0  0  0  0  0  0  0  0  0
  193.6360  174.4410  143.9100 C   0  0  0  0  0  1  0  0  0  0  0  0
  192.3790  175.0220  141.8800 C   0  0  0  0  0  3  0  0  0  0  0  0
  191.7100  173.7040  142.2330 C   0  0  0  0  0  2  0  0  0  0  0  0
  192.8960  173.7190  141.2880 C   0  0  0  0  0  2  0  0  0  0  0  0
  194.5910  176.6940  141.2570 O   0  0  0  0  0  0  0  0  0  0  0  0
  194.6070  176.0780  142.3590 C   0  0  0  0  0  0  0  0  0  0  0  0
  195.8280  175.7780  142.9620 O   0  0  0  0  0  0  0  0  0  0  0  0
  196.6460  176.7530  143.3800 O   0  0  0  0  0  1  0  0  0  0  0  0
  2  3  1  1  0  0  0
  3  9  1  0  0  0  0
  4 10  1  0  0  0  0
  4  1  1  0  0  0  0
  5  8  2  0  0  0  0
  6  8  1  0  0  0  0
  7 19  1  6  0  0  0
  7  6  1  0  0  0  0
  7 20  1  0  0  0  0
  7  2  1  0  0  0  0
  8  4  1  0  0  0  0
  9  4  1  0  0  0  0
 11  2  1  0  0  0  0
 11 13  1  1  0  0  0
 12 13  1  0  0  0  0
 14 12  1  0  0  0  0
 15 17  1  6  0  0  0
 15 14  1  0  0  0  0
 15 11  1  0  0  0  0
 16 17  1  0  0  0  0
 18 19  2  0  0  0  0
 21 22  1  0  0  0  0
 21 20  1  0  0  0  0
 23 22  1  0  0  0  0
 23 24  1  1  0  0  0
 25 26  1  0  0  0  0
 25 23  1  0  0  0  0
 27 25  1  0  0  0  0
 27 26  1  0  0  0  0
 28 29  2  0  0  0  0
 29 30  1  0  0  0  0
 29 23  1  0  0  0  0
 30 31  1  0  0  0  0
M  END
>  <MODEL>
5

>  <REMARK>
 VINA RESULT:      -6.8      2.796      4.037
  Name = 
  10 active torsions:
  status: ('A' for Active; 'I' for Inactive)
    1  A    between atoms: O_1  and  C_19
    2  A    between atoms: C_3  and  C_22
    3  A    between atoms: C_4  and  C_5
    4  A    between atoms: C_9  and  C_22
    5  A    between atoms: C_9  and  C_23
    6  A    between atoms: C_15  and  C_21
    7  A    between atoms: C_15  and  C_23
    8  A    between atoms: C_19  and  C_22
    9  A    between atoms: C_21  and  C_29
   10  A    between atoms: C_30  and  O_31
                            x       y       z     vdW  Elec       q    Type
                         _______ _______ _______ _____ _____    ______ ____

>  <TORSDO>
F 10

$$$$
=
 OpenBabel11052417433D

 31 33  0  0  1  0  0  0  0  0999 V2000
  186.4160  176.1380  147.6590 F   0  0  0  0  0  0  0  0  0  0  0  0
  187.5760  177.7930  143.5590 C   0  0  1  0  0  3  0  0  0  0  0  0
  186.9140  178.4470  144.7880 C   0  0  0  0  0  2  0  0  0  0  0  0
  187.1660  176.9120  146.7930 C   0  0  0  0  0  0  0  0  0  0  0  0
  189.1130  175.6180  147.0610 O   0  0  0  0  0  0  0  0  0  0  0  0
  188.5040  175.7810  144.8040 C   0  0  0  0  0  2  0  0  0  0  0  0
  188.8690  177.0060  143.9420 C   0  0  1  0  0  0  0  0  0  0  0  0
  188.3060  176.0750  146.2670 C   0  0  0  0  0  0  0  0  0  0  0  0
  186.2350  177.4260  145.6980 C   0  0  0  0  0  2  0  0  0  0  0  0
  187.6770  177.9870  147.5000 F   0  0  0  0  0  0  0  0  0  0  0  0
  186.5560  177.0160  142.6790 C   0  0  1  0  0  3  0  0  0  0  0  0
  184.5490  178.3210  142.2130 C   0  0  0  0  0  2  0  0  0  0  0  0
  185.1140  177.2530  143.1250 C   0  0  0  0  0  2  0  0  0  0  0  0
  185.2350  178.1130  140.8850 C   0  0  0  0  0  2  0  0  0  0  0  0
  186.5890  177.5060  141.2280 C   0  0  2  0  0  3  0  0  0  0  0  0
  186.6860  176.9400  138.9980 C   0  0  0  0  0  1  0  0  0  0  0  0
  187.0170  176.5280  140.3010 O   0  0  0  0  0  0  0  0  0  0  0  0
  189.5830  175.2940  142.4460 O   0  0  0  0  0  0  0  0  0  0  0  0
  189.5550  176.4870  142.7050 C   0  0  0  0  0  3  0  0  0  0  0  0
  189.8730  177.9190  144.6850 C   0  0  0  0  0  2  0  0  0  0  0  0
  191.3180  177.7300  144.2350 C   0  0  0  0  0  2  0  0  0  0  0  0
  192.0150  176.6910  145.1080 C   0  0  0  0  0  2  0  0  0  0  0  0
  193.0980  175.8750  144.3680 C   0  0  1  0  0  0  0  0  0  0  0  0
  193.1450  176.4130  142.9470 C   0  0  0  0  0  1  0  0  0  0  0  0
  194.5430  176.0010  144.9240 C   0  0  0  0  0  3  0  0  0  0  0  0
  194.9500  174.9150  145.9070 C   0  0  0  0  0  2  0  0  0  0  0  0
  194.5800  176.2950  146.4160 C   0  0  0  0  0  2  0  0  0  0  0  0
  193.0220  173.7120  143.3140 O   0  0  0  0  0  0  0  0  0  0  0  0
  192.6920  174.4200  144.3060 C   0  0  0  0  0  0  0  0  0  0  0  0
  191.8900  173.8710  145.3060 O   0  0  0  0  0  0  0  0  0  0  0  0
  190.7440  173.2470  145.0030 O   0  0  0  0  0  1  0  0  0  0  0  0
  2  7  1  0  0  0  0
  2  3  1  1  0  0  0
  3  9  1  0  0  0  0
  4 10  1  0  0  0  0
  4  1  1  0  0  0  0
  6  8  1  0  0  0  0
  7 19  1  6  0  0  0
  7 20  1  0  0  0  0
  7  6  1  0  0  0  0
  8  4  1  0  0  0  0
  8  5  2  0  0  0  0
  9  4  1  0  0  0  0
 11 13  1  1  0  0  0
 11  2  1  0  0  0  0
 12 13  1  0  0  0  0
 14 15  1  0  0  0  0
 14 12  1  0  0  0  0
 15 17  1  6  0  0  0
 15 11  1  0  0  0  0
 16 17  1  0  0  0  0
 18 19  2  0  0  0  0
 21 20  1  0  0  0  0
 21 22  1  0  0  0  0
 23 24  1  6  0  0  0
 23 25  1  0  0  0  0
 23 22  1  0  0  0  0
 25 26  1  0  0  0  0
 25 27  1  0  0  0  0
 26 27  1  0  0  0  0
 28 29  2  0  0  0  0
 29 23  1  0  0  0  0
 29 30  1  0  0  0  0
 31 30  1  0  0  0  0
M  END
>  <MODEL>
6

>  <REMARK>
 VINA RESULT:      -6.8      2.659      4.462
  Name = 
  10 active torsions:
  status: ('A' for Active; 'I' for Inactive)
    1  A    between atoms: O_1  and  C_19
    2  A    between atoms: C_3  and  C_22
    3  A    between atoms: C_4  and  C_5
    4  A    between atoms: C_9  and  C_22
    5  A    between atoms: C_9  and  C_23
    6  A    between atoms: C_15  and  C_21
    7  A    between atoms: C_15  and  C_23
    8  A    between atoms: C_19  and  C_22
    9  A    between atoms: C_21  and  C_29
   10  A    between atoms: C_30  and  O_31
                            x       y       z     vdW  Elec       q    Type
                         _______ _______ _______ _____ _____    ______ ____

>  <TORSDO>
F 10

$$$$
=
 OpenBabel11052417433D

 31 33  0  0  1  0  0  0  0  0999 V2000
  191.2460  174.7640  148.4250 F   0  0  0  0  0  0  0  0  0  0  0  0
  189.8540  175.0350  144.0790 C   0  0  1  0  0  3  0  0  0  0  0  0
  189.0930  174.7740  145.3940 C   0  0  0  0  0  2  0  0  0  0  0  0
  190.5890  175.3520  147.3590 C   0  0  0  0  0  0  0  0  0  0  0  0
  192.0950  177.1550  147.2160 O   0  0  0  0  0  0  0  0  0  0  0  0
  191.9250  176.0240  145.1700 C   0  0  0  0  0  2  0  0  0  0  0  0
  190.7760  176.2910  144.1780 C   0  0  1  0  0  0  0  0  0  0  0  0
  191.5690  176.2290  146.6190 C   0  0  0  0  0  0  0  0  0  0  0  0
  190.0010  174.2380  146.4980 C   0  0  0  0  0  2  0  0  0  0  0  0
  189.5630  176.1350  147.8590 F   0  0  0  0  0  0  0  0  0  0  0  0
  190.5300  173.7520  143.5200 C   0  0  1  0  0  3  0  0  0  0  0  0
  188.9430  171.9260  143.2120 C   0  0  0  0  0  2  0  0  0  0  0  0
  189.9770  172.4820  144.1660 C   0  0  0  0  0  2  0  0  0  0  0  0
  189.4360  172.2940  141.8330 C   0  0  0  0  0  2  0  0  0  0  0  0
  190.2360  173.5750  142.0270 C   0  0  2  0  0  3  0  0  0  0  0  0
  191.9300  172.3650  141.0420 C   0  0  0  0  0  1  0  0  0  0  0  0
  191.3830  173.6500  141.2030 O   0  0  0  0  0  0  0  0  0  0  0  0
  192.3370  177.3720  142.7380 O   0  0  0  0  0  0  0  0  0  0  0  0
  191.4060  176.5880  142.8420 C   0  0  0  0  0  3  0  0  0  0  0  0
  189.9660  177.5400  144.6010 C   0  0  0  0  0  2  0  0  0  0  0  0
  188.6770  177.7290  143.8060 C   0  0  0  0  0  2  0  0  0  0  0  0
  187.5430  178.1650  144.7270 C   0  0  0  0  0  2  0  0  0  0  0  0
  186.1840  177.5080  144.4020 C   0  0  1  0  0  0  0  0  0  0  0  0
  186.4620  176.4370  143.3590 C   0  0  0  0  0  1  0  0  0  0  0  0
  185.4770  176.7860  145.5830 C   0  0  0  0  0  3  0  0  0  0  0  0
  184.9470  177.7040  146.6720 C   0  0  0  0  0  2  0  0  0  0  0  0
  186.2290  176.9260  146.8970 C   0  0  0  0  0  2  0  0  0  0  0  0
  185.5140  179.7620  143.8820 O   0  0  0  0  0  0  0  0  0  0  0  0
  185.2530  178.5300  143.7890 C   0  0  0  0  0  0  0  0  0  0  0  0
  184.0640  178.1240  143.1830 O   0  0  0  0  0  0  0  0  0  0  0  0
  183.8720  178.2880  141.8670 O   0  0  0  0  0  1  0  0  0  0  0  0
  2  7  1  0  0  0  0
  2  3  1  1  0  0  0
  3  9  1  0  0  0  0
  4 10  1  0  0  0  0
  4  1  1  0  0  0  0
  6  8  1  0  0  0  0
  7 19  1  6  0  0  0
  7 20  1  0  0  0  0
  7  6  1  0  0  0  0
  8  5  2  0  0  0  0
  8  4  1  0  0  0  0
  9  4  1  0  0  0  0
 11  2  1  0  0  0  0
 11 13  1  1  0  0  0
 12 13  1  0  0  0  0
 14 15  1  0  0  0  0
 14 12  1  0  0  0  0
 15 17  1  6  0  0  0
 15 11  1  0  0  0  0
 16 17  1  0  0  0  0
 18 19  2  0  0  0  0
 21 20  1  0  0  0  0
 21 22  1  0  0  0  0
 23 24  1  6  0  0  0
 23 22  1  0  0  0  0
 23 25  1  0  0  0  0
 25 26  1  0  0  0  0
 25 27  1  0  0  0  0
 26 27  1  0  0  0  0
 29 28  2  0  0  0  0
 29 23  1  0  0  0  0
 30 29  1  0  0  0  0
 31 30  1  0  0  0  0
M  END
>  <MODEL>
7

>  <REMARK>
 VINA RESULT:      -6.7      3.203      7.397
  Name = 
  10 active torsions:
  status: ('A' for Active; 'I' for Inactive)
    1  A    between atoms: O_1  and  C_19
    2  A    between atoms: C_3  and  C_22
    3  A    between atoms: C_4  and  C_5
    4  A    between atoms: C_9  and  C_22
    5  A    between atoms: C_9  and  C_23
    6  A    between atoms: C_15  and  C_21
    7  A    between atoms: C_15  and  C_23
    8  A    between atoms: C_19  and  C_22
    9  A    between atoms: C_21  and  C_29
   10  A    between atoms: C_30  and  O_31
                            x       y       z     vdW  Elec       q    Type
                         _______ _______ _______ _____ _____    ______ ____

>  <TORSDO>
F 10

$$$$
=
 OpenBabel11052417433D

 31 33  0  0  1  0  0  0  0  0999 V2000
  185.6070  178.4330  147.0260 F   0  0  0  0  0  0  0  0  0  0  0  0
  189.1300  176.2380  145.1100 C   0  0  1  0  0  3  0  0  0  0  0  0
  188.1020  175.8100  146.1750 C   0  0  0  0  0  2  0  0  0  0  0  0
  186.1890  177.4770  146.2130 C   0  0  0  0  0  0  0  0  0  0  0  0
  185.4570  178.4920  144.2200 O   0  0  0  0  0  0  0  0  0  0  0  0
  187.7830  178.2030  144.2240 C   0  0  0  0  0  2  0  0  0  0  0  0
  188.4440  176.8610  143.8530 C   0  0  1  0  0  0  0  0  0  0  0  0
  186.4190  178.0830  144.8510 C   0  0  0  0  0  0  0  0  0  0  0  0
  187.4710  177.0020  146.8910 C   0  0  0  0  0  2  0  0  0  0  0  0
  185.3120  176.4120  146.0960 F   0  0  0  0  0  0  0  0  0  0  0  0
  190.2980  177.0680  145.7130 C   0  0  1  0  0  3  0  0  0  0  0  0
  191.1690  176.0850  147.7680 C   0  0  0  0  0  2  0  0  0  0  0  0
  190.2240  177.1410  147.2380 C   0  0  0  0  0  2  0  0  0  0  0  0
  192.2870  176.0080  146.7570 C   0  0  0  0  0  2  0  0  0  0  0  0
  191.6510  176.4070  145.4320 C   0  0  2  0  0  3  0  0  0  0  0  0
  192.8940  176.4140  143.4930 C   0  0  0  0  0  1  0  0  0  0  0  0
  192.5060  177.1760  144.6090 O   0  0  0  0  0  0  0  0  0  0  0  0
  189.6690  178.2900  142.3910 O   0  0  0  0  0  0  0  0  0  0  0  0
  189.4670  177.1520  142.7860 C   0  0  0  0  0  3  0  0  0  0  0  0
  187.4040  175.8860  143.2510 C   0  0  0  0  0  2  0  0  0  0  0  0
  187.8590  175.2380  141.9470 C   0  0  0  0  0  2  0  0  0  0  0  0
  187.9840  173.7270  142.1190 C   0  0  0  0  0  2  0  0  0  0  0  0
  189.3500  173.1570  141.6770 C   0  0  1  0  0  0  0  0  0  0  0  0
  190.2320  174.3530  141.3580 C   0  0  0  0  0  1  0  0  0  0  0  0
  190.1170  172.3280  142.7440 C   0  0  0  0  0  3  0  0  0  0  0  0
  189.4690  172.2920  144.1180 C   0  0  0  0  0  2  0  0  0  0  0  0
  190.6710  173.1830  143.8730 C   0  0  0  0  0  2  0  0  0  0  0  0
  190.0670  171.5090  140.0750 O   0  0  0  0  0  0  0  0  0  0  0  0
  189.1830  172.3450  140.4120 C   0  0  0  0  0  0  0  0  0  0  0  0
  188.0910  172.5680  139.5730 O   0  0  0  0  0  0  0  0  0  0  0  0
  188.2620  173.0640  138.3410 O   0  0  0  0  0  1  0  0  0  0  0  0
  2 11  1  0  0  0  0
  2  3  1  1  0  0  0
  3  9  1  0  0  0  0
  4  9  1  0  0  0  0
  4  1  1  0  0  0  0
  5  8  2  0  0  0  0
  6  8  1  0  0  0  0
  7 19  1  6  0  0  0
  7  6  1  0  0  0  0
  7  2  1  0  0  0  0
  8  4  1  0  0  0  0
 10  4  1  0  0  0  0
 11 13  1  1  0  0  0
 13 12  1  0  0  0  0
 14 12  1  0  0  0  0
 15 17  1  1  0  0  0
 15 11  1  0  0  0  0
 15 14  1  0  0  0  0
 16 17  1  0  0  0  0
 18 19  2  0  0  0  0
 20  7  1  0  0  0  0
 21 22  1  0  0  0  0
 21 20  1  0  0  0  0
 23 24  1  6  0  0  0
 23 22  1  0  0  0  0
 23 25  1  0  0  0  0
 25 27  1  0  0  0  0
 25 26  1  0  0  0  0
 27 26  1  0  0  0  0
 28 29  2  0  0  0  0
 29 23  1  0  0  0  0
 30 29  1  0  0  0  0
 31 30  1  0  0  0  0
M  END
>  <MODEL>
8

>  <REMARK>
 VINA RESULT:      -6.7      3.341      5.830
  Name = 
  10 active torsions:
  status: ('A' for Active; 'I' for Inactive)
    1  A    between atoms: O_1  and  C_19
    2  A    between atoms: C_3  and  C_22
    3  A    between atoms: C_4  and  C_5
    4  A    between atoms: C_9  and  C_22
    5  A    between atoms: C_9  and  C_23
    6  A    between atoms: C_15  and  C_21
    7  A    between atoms: C_15  and  C_23
    8  A    between atoms: C_19  and  C_22
    9  A    between atoms: C_21  and  C_29
   10  A    between atoms: C_30  and  O_31
                            x       y       z     vdW  Elec       q    Type
                         _______ _______ _______ _____ _____    ______ ____

>  <TORSDO>
F 10

$$$$
=
 OpenBabel11052417433D

 31 33  0  0  1  0  0  0  0  0999 V2000
  188.9440  178.6900  141.2360 F   0  0  0  0  0  0  0  0  0  0  0  0
  187.0180  176.9360  144.9920 C   0  0  1  0  0  3  0  0  0  0  0  0
  186.6420  176.8470  143.5000 C   0  0  0  0  0  2  0  0  0  0  0  0
  188.5890  177.6650  142.0940 C   0  0  0  0  0  0  0  0  0  0  0  0
  190.8030  177.2460  142.7710 O   0  0  0  0  0  0  0  0  0  0  0  0
  189.4180  177.6790  144.6120 C   0  0  0  0  0  2  0  0  0  0  0  0
  188.5200  176.5930  145.2380 C   0  0  1  0  0  0  0  0  0  0  0  0
  189.6700  177.5170  143.1360 C   0  0  0  0  0  0  0  0  0  0  0  0
  187.2200  177.9980  142.6810 C   0  0  0  0  0  2  0  0  0  0  0  0
  188.4990  176.4940  141.3600 F   0  0  0  0  0  0  0  0  0  0  0  0
  186.5150  178.2520  145.6520 C   0  0  1  0  0  3  0  0  0  0  0  0
  184.1490  178.6600  145.2250 C   0  0  0  0  0  2  0  0  0  0  0  0
  185.5430  179.0120  144.7520 C   0  0  0  0  0  2  0  0  0  0  0  0
  184.2780  178.4420  146.7130 C   0  0  0  0  0  2  0  0  0  0  0  0
  185.7080  177.9630  146.9210 C   0  0  2  0  0  3  0  0  0  0  0  0
  186.3070  179.8670  148.0700 C   0  0  0  0  0  1  0  0  0  0  0  0
  186.3000  178.4620  148.1050 O   0  0  0  0  0  0  0  0  0  0  0  0
  189.4880  177.4460  147.2420 O   0  0  0  0  0  0  0  0  0  0  0  0
  188.8200  176.5690  146.7140 C   0  0  0  0  0  3  0  0  0  0  0  0
  188.8700  175.1980  144.6660 C   0  0  0  0  0  2  0  0  0  0  0  0
  189.9300  174.4560  145.4750 C   0  0  0  0  0  2  0  0  0  0  0  0
  191.1190  174.0950  144.5900 C   0  0  0  0  0  2  0  0  0  0  0  0
  191.0360  172.6820  143.9740 C   0  0  1  0  0  0  0  0  0  0  0  0
  189.8530  171.9930  144.6370 C   0  0  0  0  0  1  0  0  0  0  0  0
  190.7690  172.6210  142.4450 C   0  0  0  0  0  3  0  0  0  0  0  0
  191.9740  172.9220  141.5700 C   0  0  0  0  0  2  0  0  0  0  0  0
  190.9010  173.9750  141.7660 C   0  0  0  0  0  2  0  0  0  0  0  0
  192.2840  170.6400  144.2330 O   0  0  0  0  0  0  0  0  0  0  0  0
  192.2850  171.9000  144.3130 C   0  0  0  0  0  0  0  0  0  0  0  0
  193.4190  172.5580  144.7880 O   0  0  0  0  0  0  0  0  0  0  0  0
  194.1960  171.9990  145.7250 O   0  0  0  0  0  1  0  0  0  0  0  0
  1  4  1  0  0  0  0
  2  3  1  6  0  0  0
  2  7  1  0  0  0  0
  2 11  1  0  0  0  0
  4  9  1  0  0  0  0
  4  8  1  0  0  0  0
  5  8  2  0  0  0  0
  6  7  1  0  0  0  0
  7 20  1  6  0  0  0
  7 19  1  0  0  0  0
  8  6  1  0  0  0  0
  9  3  1  0  0  0  0
 10  4  1  0  0  0  0
 11 13  1  6  0  0  0
 11 15  1  0  0  0  0
 12 14  1  0  0  0  0
 13 12  1  0  0  0  0
 14 15  1  0  0  0  0
 15 17  1  1  0  0  0
 16 17  1  0  0  0  0
 19 18  2  0  0  0  0
 20 21  1  0  0  0  0
 22 21  1  0  0  0  0
 23 29  1  0  0  0  0
 23 22  1  0  0  0  0
 23 24  1  1  0  0  0
 25 23  1  0  0  0  0
 26 27  1  0  0  0  0
 26 25  1  0  0  0  0
 27 25  1  0  0  0  0
 28 29  2  0  0  0  0
 29 30  1  0  0  0  0
 30 31  1  0  0  0  0
M  END
>  <MODEL>
9

>  <REMARK>
 VINA RESULT:      -6.6      1.919      2.476
  Name = 
  10 active torsions:
  status: ('A' for Active; 'I' for Inactive)
    1  A    between atoms: O_1  and  C_19
    2  A    between atoms: C_3  and  C_22
    3  A    between atoms: C_4  and  C_5
    4  A    between atoms: C_9  and  C_22
    5  A    between atoms: C_9  and  C_23
    6  A    between atoms: C_15  and  C_21
    7  A    between atoms: C_15  and  C_23
    8  A    between atoms: C_19  and  C_22
    9  A    between atoms: C_21  and  C_29
   10  A    between atoms: C_30  and  O_31
                            x       y       z     vdW  Elec       q    Type
                         _______ _______ _______ _____ _____    ______ ____

>  <TORSDO>
F 10

$$$$
