=
 OpenBabel11052418083D

 28 32  0  0  1  0  0  0  0  0999 V2000
  190.1980  176.9330  144.8090 C   0  0  0  0  0  0  0  0  0  0  0  0
  185.9930  177.4590  141.7980 C   0  0  0  0  0  3  0  0  0  0  0  0
  186.5240  177.8320  148.0420 C   0  0  0  0  0  1  0  0  0  0  0  0
  184.3840  178.4200  143.3420 C   0  0  0  0  0  0  0  0  0  0  0  0
  186.5910  177.6670  144.2310 C   0  0  0  0  0  0  0  0  0  0  0  0
  183.8330  178.2030  140.9930 C   0  0  0  0  0  0  0  0  0  0  0  0
  185.6500  177.8500  143.1010 C   0  0  0  0  0  0  0  0  0  0  0  0
  184.6600  178.0610  145.7990 C   0  0  0  0  0  2  0  0  0  0  0  0
  183.4880  178.6040  142.2860 C   0  0  0  0  0  3  0  0  0  0  0  0
  188.3800  177.3830  146.3870 C   0  0  0  0  0  0  0  0  0  0  0  0
  187.9350  177.3650  143.9970 C   0  0  0  0  0  3  0  0  0  0  0  0
  184.0330  178.9300  144.7080 C   0  0  0  0  0  2  0  0  0  0  0  0
  190.6300  176.9420  147.1970 C   0  0  0  0  0  3  0  0  0  0  0  0
  187.0230  177.6790  146.6360 C   0  0  0  0  0  0  0  0  0  0  0  0
  189.2900  177.2360  147.4460 C   0  0  0  0  0  3  0  0  0  0  0  0
  182.9580  178.3760  139.9730 F   0  0  0  0  0  0  0  0  0  0  0  0
  185.0860  177.6340  140.7480 C   0  0  0  0  0  3  0  0  0  0  0  0
  186.1310  177.8300  145.5540 C   0  0  0  0  0  0  0  0  0  0  0  0
  191.0800  176.7920  145.8850 C   0  0  0  0  0  3  0  0  0  0  0  0
  188.8390  177.2260  145.0550 C   0  0  0  0  0  0  0  0  0  0  0  0
  190.7390  176.7880  143.4130 C   0  0  0  0  0  2  0  0  0  0  0  0
  191.1780  175.3570  143.0840 C   0  0  2  0  0  3  0  0  0  0  0  0
  190.3370  173.6760  141.6650 N   0  0  0  0  0  0  0  0  0  0  0  0
  191.9860  175.3300  141.9430 O   0  0  0  0  0  0  0  0  0  0  0  0
  189.8040  173.5300  144.0250 C   0  0  0  0  0  1  0  0  0  0  0  0
  190.0020  174.4500  142.8370 C   0  0  1  0  0  3  0  0  0  0  0  0
  189.4390  174.1020  140.6050 C   0  0  0  0  0  1  0  0  0  0  0  0
  191.6740  174.1230  141.2950 C   0  0  0  0  0  2  0  0  0  0  0  0
  1 20  2  0  0  0  0
  1 19  1  0  0  0  0
  2  7  1  0  0  0  0
  4 12  1  0  0  0  0
  5 18  1  0  0  0  0
  6  9  2  0  0  0  0
  7  4  2  0  0  0  0
  7  5  1  0  0  0  0
  9  4  1  0  0  0  0
 10 14  1  0  0  0  0
 10 15  2  0  0  0  0
 11  5  2  0  0  0  0
 11 20  1  0  0  0  0
 12  8  1  0  0  0  0
 13 15  1  0  0  0  0
 14  3  1  0  0  0  0
 16  6  1  0  0  0  0
 17  6  1  0  0  0  0
 17  2  2  0  0  0  0
 18  8  1  0  0  0  0
 18 14  2  0  0  0  0
 19 13  2  0  0  0  0
 20 10  1  0  0  0  0
 21  1  1  0  0  0  0
 22 21  1  6  0  0  0
 23 26  1  0  0  0  0
 24 22  1  0  0  0  0
 26 22  1  0  0  0  0
 26 25  1  1  0  0  0
 27 23  1  0  0  0  0
 28 23  1  0  0  0  0
 28 24  1  0  0  0  0
M  END
>  <MODEL>
1

>  <REMARK>
 VINA RESULT:      -8.4      0.000      0.000
  Name = 
  2 active torsions:
  status: ('A' for Active; 'I' for Inactive)
    1  A    between atoms: C_1  and  C_2
    2  A    between atoms: C_2  and  C_3
                            x       y       z     vdW  Elec       q    Type
                         _______ _______ _______ _____ _____    ______ ____

>  <TORSDO>
F 2

$$$$
=
 OpenBabel11052418083D

 28 32  0  0  1  0  0  0  0  0999 V2000
  190.3860  177.0200  144.5460 C   0  0  0  0  0  0  0  0  0  0  0  0
  186.0990  177.5630  141.6550 C   0  0  0  0  0  3  0  0  0  0  0  0
  186.7290  177.3870  147.8990 C   0  0  0  0  0  1  0  0  0  0  0  0
  184.4660  178.2750  143.3050 C   0  0  0  0  0  0  0  0  0  0  0  0
  186.7300  177.5800  144.0890 C   0  0  0  0  0  0  0  0  0  0  0  0
  183.8830  178.2440  140.9540 C   0  0  0  0  0  0  0  0  0  0  0  0
  185.7590  177.8100  142.9940 C   0  0  0  0  0  0  0  0  0  0  0  0
  184.8100  177.7080  145.7130 C   0  0  0  0  0  2  0  0  0  0  0  0
  183.5390  178.5010  142.2830 C   0  0  0  0  0  3  0  0  0  0  0  0
  188.5750  177.2090  146.1830 C   0  0  0  0  0  0  0  0  0  0  0  0
  188.0850  177.3850  143.8090 C   0  0  0  0  0  3  0  0  0  0  0  0
  184.1120  178.6340  144.7170 C   0  0  0  0  0  2  0  0  0  0  0  0
  190.8630  176.8340  146.9170 C   0  0  0  0  0  3  0  0  0  0  0  0
  187.2080  177.3960  146.4780 C   0  0  0  0  0  0  0  0  0  0  0  0
  189.5130  177.0210  147.2120 C   0  0  0  0  0  3  0  0  0  0  0  0
  182.9800  178.4570  139.9670 F   0  0  0  0  0  0  0  0  0  0  0  0
  185.1630  177.7780  140.6390 C   0  0  0  0  0  3  0  0  0  0  0  0
  186.2880  177.5920  145.4280 C   0  0  0  0  0  0  0  0  0  0  0  0
  191.2960  176.8350  145.5910 C   0  0  0  0  0  3  0  0  0  0  0  0
  189.0170  177.2040  144.8370 C   0  0  0  0  0  0  0  0  0  0  0  0
  190.9070  177.0390  143.1340 C   0  0  0  0  0  2  0  0  0  0  0  0
  191.0590  175.6380  142.5310 C   0  0  2  0  0  3  0  0  0  0  0  0
  190.7390  173.4580  143.3630 N   0  0  0  0  0  0  0  0  0  0  0  0
  189.8410  175.1740  142.0270 O   0  0  0  0  0  0  0  0  0  0  0  0
  193.0060  174.3120  143.2830 C   0  0  0  0  0  1  0  0  0  0  0  0
  191.5490  174.6390  143.5460 C   0  0  1  0  0  3  0  0  0  0  0  0
  189.9110  173.3250  144.5500 C   0  0  0  0  0  1  0  0  0  0  0  0
  189.8470  173.7870  142.2570 C   0  0  0  0  0  2  0  0  0  0  0  0
  1 20  2  0  0  0  0
  1 19  1  0  0  0  0
  2  7  1  0  0  0  0
  4 12  1  0  0  0  0
  5 18  1  0  0  0  0
  6  9  2  0  0  0  0
  7  4  2  0  0  0  0
  7  5  1  0  0  0  0
  9  4  1  0  0  0  0
 10 14  1  0  0  0  0
 10 15  2  0  0  0  0
 11  5  2  0  0  0  0
 11 20  1  0  0  0  0
 12  8  1  0  0  0  0
 13 15  1  0  0  0  0
 14  3  1  0  0  0  0
 16  6  1  0  0  0  0
 17  6  1  0  0  0  0
 17  2  2  0  0  0  0
 18  8  1  0  0  0  0
 18 14  2  0  0  0  0
 19 13  2  0  0  0  0
 20 10  1  0  0  0  0
 21  1  1  0  0  0  0
 22 21  1  1  0  0  0
 22 26  1  0  0  0  0
 23 26  1  0  0  0  0
 23 27  1  0  0  0  0
 24 28  1  0  0  0  0
 24 22  1  0  0  0  0
 26 25  1  6  0  0  0
 28 23  1  0  0  0  0
M  END
>  <MODEL>
2

>  <REMARK>
 VINA RESULT:      -8.1      0.810      1.270
  Name = 
  2 active torsions:
  status: ('A' for Active; 'I' for Inactive)
    1  A    between atoms: C_1  and  C_2
    2  A    between atoms: C_2  and  C_3
                            x       y       z     vdW  Elec       q    Type
                         _______ _______ _______ _____ _____    ______ ____

>  <TORSDO>
F 2

$$$$
=
 OpenBabel11052418083D

 28 32  0  0  1  0  0  0  0  0999 V2000
  187.4420  176.6260  142.5280 C   0  0  0  0  0  0  0  0  0  0  0  0
  192.3440  176.2770  144.2240 C   0  0  0  0  0  3  0  0  0  0  0  0
  187.1380  177.9250  147.3210 C   0  0  0  0  0  1  0  0  0  0  0  0
  192.0530  176.3800  146.6330 C   0  0  0  0  0  0  0  0  0  0  0  0
  190.0650  176.7560  145.1720 C   0  0  0  0  0  0  0  0  0  0  0  0
  194.2380  175.9250  145.6920 C   0  0  0  0  0  0  0  0  0  0  0  0
  191.5080  176.4630  145.3360 C   0  0  0  0  0  0  0  0  0  0  0  0
  190.0150  177.4650  147.5870 C   0  0  0  0  0  2  0  0  0  0  0  0
  193.4110  176.1000  146.8040 C   0  0  0  0  0  3  0  0  0  0  0  0
  187.3080  177.2560  144.8900 C   0  0  0  0  0  0  0  0  0  0  0  0
  189.4390  176.5800  143.9350 C   0  0  0  0  0  3  0  0  0  0  0  0
  191.1610  176.4830  147.8340 C   0  0  0  0  0  2  0  0  0  0  0  0
  185.3230  177.3130  143.4880 C   0  0  0  0  0  3  0  0  0  0  0  0
  187.9320  177.4460  146.1420 C   0  0  0  0  0  0  0  0  0  0  0  0
  185.9350  177.5000  144.7270 C   0  0  0  0  0  3  0  0  0  0  0  0
  195.5560  175.6620  145.8620 F   0  0  0  0  0  0  0  0  0  0  0  0
  193.7050  176.0110  144.4020 C   0  0  0  0  0  3  0  0  0  0  0  0
  189.3100  177.1860  146.2820 C   0  0  0  0  0  0  0  0  0  0  0  0
  186.0730  176.8770  142.3950 C   0  0  0  0  0  3  0  0  0  0  0  0
  188.0690  176.8180  143.7780 C   0  0  0  0  0  0  0  0  0  0  0  0
  188.2020  176.1320  141.3260 C   0  0  0  0  0  2  0  0  0  0  0  0
  187.9660  174.6470  141.0340 C   0  0  2  0  0  3  0  0  0  0  0  0
  189.3900  172.8250  140.5880 N   0  0  0  0  0  0  0  0  0  0  0  0
  188.0490  173.8850  142.2030 O   0  0  0  0  0  0  0  0  0  0  0  0
  188.3190  173.9060  138.7010 C   0  0  0  0  0  1  0  0  0  0  0  0
  188.9720  174.1000  140.0560 C   0  0  1  0  0  3  0  0  0  0  0  0
  190.7810  172.9680  140.9850 C   0  0  0  0  0  1  0  0  0  0  0  0
  188.6130  172.6590  141.8100 C   0  0  0  0  0  2  0  0  0  0  0  0
  1 20  1  0  0  0  0
  2 17  2  0  0  0  0
  2  7  1  0  0  0  0
  4  9  1  0  0  0  0
  4 12  1  0  0  0  0
  5  7  1  0  0  0  0
  5 18  1  0  0  0  0
  6 16  1  0  0  0  0
  6  9  2  0  0  0  0
  7  4  2  0  0  0  0
  8 12  1  0  0  0  0
 10 14  1  0  0  0  0
 11  5  2  0  0  0  0
 13 15  2  0  0  0  0
 14 18  2  0  0  0  0
 14  3  1  0  0  0  0
 15 10  1  0  0  0  0
 17  6  1  0  0  0  0
 18  8  1  0  0  0  0
 19  1  2  0  0  0  0
 19 13  1  0  0  0  0
 20 11  1  0  0  0  0
 20 10  2  0  0  0  0
 21  1  1  0  0  0  0
 22 21  1  1  0  0  0
 22 24  1  0  0  0  0
 23 27  1  0  0  0  0
 23 28  1  0  0  0  0
 26 25  1  6  0  0  0
 26 23  1  0  0  0  0
 26 22  1  0  0  0  0
 28 24  1  0  0  0  0
M  END
>  <MODEL>
3

>  <REMARK>
 VINA RESULT:      -8.1      3.190      6.156
  Name = 
  2 active torsions:
  status: ('A' for Active; 'I' for Inactive)
    1  A    between atoms: C_1  and  C_2
    2  A    between atoms: C_2  and  C_3
                            x       y       z     vdW  Elec       q    Type
                         _______ _______ _______ _____ _____    ______ ____

>  <TORSDO>
F 2

$$$$
=
 OpenBabel11052418083D

 28 32  0  0  1  0  0  0  0  0999 V2000
  191.1920  174.2790  142.8480 C   0  0  0  0  0  0  0  0  0  0  0  0
  186.5350  176.5890  142.9270 C   0  0  0  0  0  3  0  0  0  0  0  0
  190.4090  175.2130  147.6710 C   0  0  0  0  0  1  0  0  0  0  0  0
  186.4600  177.4950  145.1780 C   0  0  0  0  0  0  0  0  0  0  0  0
  188.3670  176.0130  144.5500 C   0  0  0  0  0  0  0  0  0  0  0  0
  184.7060  178.0280  143.5950 C   0  0  0  0  0  0  0  0  0  0  0  0
  187.1050  176.7080  144.2040 C   0  0  0  0  0  0  0  0  0  0  0  0
  187.8580  176.4640  146.9740 C   0  0  0  0  0  2  0  0  0  0  0  0
  185.2720  178.1600  144.8660 C   0  0  0  0  0  3  0  0  0  0  0  0
  190.7950  174.7510  145.2170 C   0  0  0  0  0  0  0  0  0  0  0  0
  189.1690  175.4540  143.5510 C   0  0  0  0  0  3  0  0  0  0  0  0
  187.0990  177.7110  146.5180 C   0  0  0  0  0  2  0  0  0  0  0  0
  192.8020  173.5700  144.5180 C   0  0  0  0  0  3  0  0  0  0  0  0
  189.9880  175.3040  146.2340 C   0  0  0  0  0  0  0  0  0  0  0  0
  192.0080  174.1170  145.5260 C   0  0  0  0  0  3  0  0  0  0  0  0
  183.5500  178.6680  143.2990 F   0  0  0  0  0  0  0  0  0  0  0  0
  185.3380  177.2460  142.6250 C   0  0  0  0  0  3  0  0  0  0  0  0
  188.7780  175.9430  145.8970 C   0  0  0  0  0  0  0  0  0  0  0  0
  192.3950  173.6520  143.1860 C   0  0  0  0  0  3  0  0  0  0  0  0
  190.3810  174.8290  143.8630 C   0  0  0  0  0  0  0  0  0  0  0  0
  190.8110  174.3630  141.3940 C   0  0  0  0  0  2  0  0  0  0  0  0
  190.0810  173.1140  140.8900 C   0  0  2  0  0  3  0  0  0  0  0  0
  188.3850  172.7450  139.2970 N   0  0  0  0  0  0  0  0  0  0  0  0
  190.6910  172.6060  139.7400 O   0  0  0  0  0  0  0  0  0  0  0  0
  187.7400  172.8210  141.6330 C   0  0  0  0  0  1  0  0  0  0  0  0
  188.6400  173.4000  140.5590 C   0  0  1  0  0  3  0  0  0  0  0  0
  188.1730  173.7920  138.3120 C   0  0  0  0  0  1  0  0  0  0  0  0
  189.6430  172.0900  138.9580 C   0  0  0  0  0  2  0  0  0  0  0  0
  1 19  2  0  0  0  0
  1 20  1  0  0  0  0
  2  7  1  0  0  0  0
  4 12  1  0  0  0  0
  5 18  1  0  0  0  0
  6  9  2  0  0  0  0
  7  5  1  0  0  0  0
  7  4  2  0  0  0  0
  9  4  1  0  0  0  0
 10 15  1  0  0  0  0
 10 14  1  0  0  0  0
 11 20  1  0  0  0  0
 11  5  2  0  0  0  0
 12  8  1  0  0  0  0
 13 15  2  0  0  0  0
 14  3  1  0  0  0  0
 16  6  1  0  0  0  0
 17  2  2  0  0  0  0
 17  6  1  0  0  0  0
 18 14  2  0  0  0  0
 18  8  1  0  0  0  0
 19 13  1  0  0  0  0
 20 10  2  0  0  0  0
 21  1  1  0  0  0  0
 22 21  1  6  0  0  0
 23 26  1  0  0  0  0
 24 22  1  0  0  0  0
 26 22  1  0  0  0  0
 26 25  1  1  0  0  0
 27 23  1  0  0  0  0
 28 23  1  0  0  0  0
 28 24  1  0  0  0  0
M  END
>  <MODEL>
4

>  <REMARK>
 VINA RESULT:      -8.1      1.941      3.372
  Name = 
  2 active torsions:
  status: ('A' for Active; 'I' for Inactive)
    1  A    between atoms: C_1  and  C_2
    2  A    between atoms: C_2  and  C_3
                            x       y       z     vdW  Elec       q    Type
                         _______ _______ _______ _____ _____    ______ ____

>  <TORSDO>
F 2

$$$$
=
 OpenBabel11052418083D

 28 32  0  0  1  0  0  0  0  0999 V2000
  189.4590  174.1310  142.6740 C   0  0  0  0  0  0  0  0  0  0  0  0
  187.5000  177.4960  146.1190 C   0  0  0  0  0  3  0  0  0  0  0  0
  186.6030  177.1280  139.9170 C   0  0  0  0  0  1  0  0  0  0  0  0
  185.7310  178.5560  144.8380 C   0  0  0  0  0  0  0  0  0  0  0  0
  187.2700  176.9770  143.6690 C   0  0  0  0  0  0  0  0  0  0  0  0
  185.9790  179.0410  147.1980 C   0  0  0  0  0  0  0  0  0  0  0  0
  186.8330  177.6790  144.8980 C   0  0  0  0  0  0  0  0  0  0  0  0
  185.8550  178.5820  142.3430 C   0  0  0  0  0  2  0  0  0  0  0  0
  185.3030  179.2220  145.9890 C   0  0  0  0  0  3  0  0  0  0  0  0
  188.0440  175.6110  141.3320 C   0  0  0  0  0  0  0  0  0  0  0  0
  188.1700  175.9100  143.7410 C   0  0  0  0  0  3  0  0  0  0  0  0
  184.9470  178.6950  143.5670 C   0  0  0  0  0  2  0  0  0  0  0  0
  189.3380  173.8480  140.2680 C   0  0  0  0  0  3  0  0  0  0  0  0
  187.1430  176.6930  141.2460 C   0  0  0  0  0  0  0  0  0  0  0  0
  188.4450  174.9160  140.1800 C   0  0  0  0  0  3  0  0  0  0  0  0
  185.5660  179.6940  148.3100 F   0  0  0  0  0  0  0  0  0  0  0  0
  187.0760  178.1760  147.2640 C   0  0  0  0  0  3  0  0  0  0  0  0
  186.7500  177.3690  142.4190 C   0  0  0  0  0  0  0  0  0  0  0  0
  189.8410  173.4580  141.5090 C   0  0  0  0  0  3  0  0  0  0  0  0
  188.5610  175.2160  142.5910 C   0  0  0  0  0  0  0  0  0  0  0  0
  190.0110  173.6550  143.9910 C   0  0  0  0  0  2  0  0  0  0  0  0
  191.4720  174.0570  144.2130 C   0  0  2  0  0  3  0  0  0  0  0  0
  192.6070  175.2110  145.9240 N   0  0  0  0  0  0  0  0  0  0  0  0
  192.1440  173.1050  144.9840 O   0  0  0  0  0  0  0  0  0  0  0  0
  192.0190  176.4520  143.9260 C   0  0  0  0  0  1  0  0  0  0  0  0
  191.5900  175.3850  144.9140 C   0  0  1  0  0  3  0  0  0  0  0  0
  191.9410  175.2910  147.2130 C   0  0  0  0  0  1  0  0  0  0  0  0
  193.0590  173.8340  145.7630 C   0  0  0  0  0  2  0  0  0  0  0  0
  1 21  1  0  0  0  0
  2 17  1  0  0  0  0
  3 14  1  0  0  0  0
  4  7  1  0  0  0  0
  4  9  2  0  0  0  0
  5 11  1  0  0  0  0
  5  7  1  0  0  0  0
  6 17  2  0  0  0  0
  6 16  1  0  0  0  0
  7  2  2  0  0  0  0
  8 18  1  0  0  0  0
  8 12  1  0  0  0  0
  9  6  1  0  0  0  0
 10 20  1  0  0  0  0
 12  4  1  0  0  0  0
 13 19  1  0  0  0  0
 14 10  2  0  0  0  0
 14 18  1  0  0  0  0
 15 13  2  0  0  0  0
 15 10  1  0  0  0  0
 18  5  2  0  0  0  0
 19  1  2  0  0  0  0
 20  1  1  0  0  0  0
 20 11  2  0  0  0  0
 22 21  1  1  0  0  0
 22 26  1  0  0  0  0
 22 24  1  0  0  0  0
 23 27  1  0  0  0  0
 24 28  1  0  0  0  0
 26 25  1  6  0  0  0
 26 23  1  0  0  0  0
 28 23  1  0  0  0  0
M  END
>  <MODEL>
5

>  <REMARK>
 VINA RESULT:      -8.0      2.484      4.971
  Name = 
  2 active torsions:
  status: ('A' for Active; 'I' for Inactive)
    1  A    between atoms: C_1  and  C_2
    2  A    between atoms: C_2  and  C_3
                            x       y       z     vdW  Elec       q    Type
                         _______ _______ _______ _____ _____    ______ ____

>  <TORSDO>
F 2

$$$$
=
 OpenBabel11052418083D

 28 32  0  0  1  0  0  0  0  0999 V2000
  187.6930  177.1810  146.5340 C   0  0  0  0  0  0  0  0  0  0  0  0
  188.1510  175.1330  141.7780 C   0  0  0  0  0  3  0  0  0  0  0  0
  184.1480  179.4760  143.9050 C   0  0  0  0  0  1  0  0  0  0  0  0
  186.8040  176.6510  140.4440 C   0  0  0  0  0  0  0  0  0  0  0  0
  186.8060  176.9210  142.9250 C   0  0  0  0  0  0  0  0  0  0  0  0
  188.1060  174.9150  139.3660 C   0  0  0  0  0  0  0  0  0  0  0  0
  187.2680  176.2210  141.7040 C   0  0  0  0  0  0  0  0  0  0  0  0
  184.9950  177.9840  141.5350 C   0  0  0  0  0  2  0  0  0  0  0  0
  187.2340  176.0040  139.2830 C   0  0  0  0  0  3  0  0  0  0  0  0
  185.9580  178.3070  145.2250 C   0  0  0  0  0  0  0  0  0  0  0  0
  187.4410  176.7090  144.1510 C   0  0  0  0  0  3  0  0  0  0  0  0
  185.9350  177.8680  140.3350 C   0  0  0  0  0  2  0  0  0  0  0  0
  186.2000  178.7680  147.6000 C   0  0  0  0  0  3  0  0  0  0  0  0
  185.3020  178.5230  143.9940 C   0  0  0  0  0  0  0  0  0  0  0  0
  185.5510  178.9850  146.3850 C   0  0  0  0  0  3  0  0  0  0  0  0
  188.5140  174.2860  138.2390 F   0  0  0  0  0  0  0  0  0  0  0  0
  188.5660  174.4810  140.6130 C   0  0  0  0  0  3  0  0  0  0  0  0
  185.7350  177.8350  142.8420 C   0  0  0  0  0  0  0  0  0  0  0  0
  187.2660  177.8710  147.6730 C   0  0  0  0  0  3  0  0  0  0  0  0
  187.0370  177.3920  145.3030 C   0  0  0  0  0  0  0  0  0  0  0  0
  188.8640  176.2440  146.6600 C   0  0  0  0  0  2  0  0  0  0  0  0
  190.2170  176.9510  146.5350 C   0  0  2  0  0  3  0  0  0  0  0  0
  192.4550  176.2330  146.6860 N   0  0  0  0  0  0  0  0  0  0  0  0
  190.7150  176.8560  145.2320 O   0  0  0  0  0  0  0  0  0  0  0  0
  191.4830  177.3060  148.6300 C   0  0  0  0  0  1  0  0  0  0  0  0
  191.2460  176.3650  147.4650 C   0  0  1  0  0  3  0  0  0  0  0  0
  192.6990  174.8100  146.5210 C   0  0  0  0  0  1  0  0  0  0  0  0
  192.1100  176.7610  145.3720 C   0  0  0  0  0  2  0  0  0  0  0  0
  1 21  1  0  0  0  0
  1 19  1  0  0  0  0
  3 14  1  0  0  0  0
  4  7  2  0  0  0  0
  5 11  2  0  0  0  0
  6 17  1  0  0  0  0
  7  2  1  0  0  0  0
  7  5  1  0  0  0  0
  8 18  1  0  0  0  0
  9  6  2  0  0  0  0
  9  4  1  0  0  0  0
 10 20  1  0  0  0  0
 10 15  2  0  0  0  0
 11 20  1  0  0  0  0
 12  4  1  0  0  0  0
 12  8  1  0  0  0  0
 13 19  2  0  0  0  0
 14 10  1  0  0  0  0
 15 13  1  0  0  0  0
 16  6  1  0  0  0  0
 17  2  2  0  0  0  0
 18  5  1  0  0  0  0
 18 14  2  0  0  0  0
 20  1  2  0  0  0  0
 22 21  1  6  0  0  0
 22 26  1  0  0  0  0
 23 26  1  0  0  0  0
 24 28  1  0  0  0  0
 24 22  1  0  0  0  0
 26 25  1  1  0  0  0
 27 23  1  0  0  0  0
 28 23  1  0  0  0  0
M  END
>  <MODEL>
6

>  <REMARK>
 VINA RESULT:      -8.0      2.444      4.449
  Name = 
  2 active torsions:
  status: ('A' for Active; 'I' for Inactive)
    1  A    between atoms: C_1  and  C_2
    2  A    between atoms: C_2  and  C_3
                            x       y       z     vdW  Elec       q    Type
                         _______ _______ _______ _____ _____    ______ ____

>  <TORSDO>
F 2

$$$$
=
 OpenBabel11052418083D

 28 32  0  0  1  0  0  0  0  0999 V2000
  185.6510  177.5030  144.4620 C   0  0  0  0  0  0  0  0  0  0  0  0
  190.6490  176.0940  144.2180 C   0  0  0  0  0  3  0  0  0  0  0  0
  187.5340  179.0410  148.8030 C   0  0  0  0  0  1  0  0  0  0  0  0
  191.3620  176.3650  146.5230 C   0  0  0  0  0  0  0  0  0  0  0  0
  189.0760  177.1310  145.8820 C   0  0  0  0  0  0  0  0  0  0  0  0
  192.8590  175.3730  144.8970 C   0  0  0  0  0  0  0  0  0  0  0  0
  190.3770  176.5170  145.5280 C   0  0  0  0  0  0  0  0  0  0  0  0
  190.1280  177.9340  148.0240 C   0  0  0  0  0  2  0  0  0  0  0  0
  192.5930  175.7830  146.2060 C   0  0  0  0  0  3  0  0  0  0  0  0
  186.5910  178.2480  146.5960 C   0  0  0  0  0  0  0  0  0  0  0  0
  187.9900  177.0540  145.0070 C   0  0  0  0  0  3  0  0  0  0  0  0
  191.0590  176.7240  147.9470 C   0  0  0  0  0  2  0  0  0  0  0  0
  184.2670  178.7070  146.0500 C   0  0  0  0  0  3  0  0  0  0  0  0
  187.6840  178.3400  147.4850 C   0  0  0  0  0  0  0  0  0  0  0  0
  185.3440  178.7980  146.9310 C   0  0  0  0  0  3  0  0  0  0  0  0
  194.0560  174.8170  144.5920 F   0  0  0  0  0  0  0  0  0  0  0  0
  191.8870  175.5260  143.9040 C   0  0  0  0  0  3  0  0  0  0  0  0
  188.9240  177.7720  147.1290 C   0  0  0  0  0  0  0  0  0  0  0  0
  184.4210  178.0610  144.8230 C   0  0  0  0  0  3  0  0  0  0  0  0
  186.7460  177.5970  145.3470 C   0  0  0  0  0  0  0  0  0  0  0  0
  185.7580  176.7960  143.1380 C   0  0  0  0  0  2  0  0  0  0  0  0
  186.0880  177.7390  141.9770 C   0  0  2  0  0  3  0  0  0  0  0  0
  187.0630  177.4370  139.8540 N   0  0  0  0  0  0  0  0  0  0  0  0
  185.0550  177.7580  141.0360 O   0  0  0  0  0  0  0  0  0  0  0  0
  188.4770  178.2820  141.6330 C   0  0  0  0  0  1  0  0  0  0  0  0
  187.3520  177.3340  141.2650 C   0  0  1  0  0  3  0  0  0  0  0  0
  187.0670  176.0850  139.3210 C   0  0  0  0  0  1  0  0  0  0  0  0
  185.6870  177.9150  139.7910 C   0  0  0  0  0  2  0  0  0  0  0  0
  1 19  2  0  0  0  0
  1 20  1  0  0  0  0
  2  7  1  0  0  0  0
  4 12  1  0  0  0  0
  5 18  1  0  0  0  0
  6  9  2  0  0  0  0
  7  5  1  0  0  0  0
  7  4  2  0  0  0  0
  9  4  1  0  0  0  0
 10 15  1  0  0  0  0
 10 14  1  0  0  0  0
 11 20  1  0  0  0  0
 11  5  2  0  0  0  0
 12  8  1  0  0  0  0
 13 15  2  0  0  0  0
 14  3  1  0  0  0  0
 16  6  1  0  0  0  0
 17  2  2  0  0  0  0
 17  6  1  0  0  0  0
 18 14  2  0  0  0  0
 18  8  1  0  0  0  0
 19 13  1  0  0  0  0
 20 10  2  0  0  0  0
 21  1  1  0  0  0  0
 22 21  1  1  0  0  0
 23 26  1  0  0  0  0
 24 22  1  0  0  0  0
 26 25  1  1  0  0  0
 26 22  1  0  0  0  0
 27 23  1  0  0  0  0
 28 23  1  0  0  0  0
 28 24  1  0  0  0  0
M  END
>  <MODEL>
7

>  <REMARK>
 VINA RESULT:      -7.9      3.290      6.177
  Name = 
  2 active torsions:
  status: ('A' for Active; 'I' for Inactive)
    1  A    between atoms: C_1  and  C_2
    2  A    between atoms: C_2  and  C_3
                            x       y       z     vdW  Elec       q    Type
                         _______ _______ _______ _____ _____    ______ ____

>  <TORSDO>
F 2

$$$$
=
 OpenBabel11052418083D

 28 32  0  0  1  0  0  0  0  0999 V2000
  191.3680  176.4500  145.6300 C   0  0  0  0  0  0  0  0  0  0  0  0
  187.8140  176.8440  141.8560 C   0  0  0  0  0  3  0  0  0  0  0  0
  187.3530  178.2440  147.9580 C   0  0  0  0  0  1  0  0  0  0  0  0
  186.1060  178.2080  142.9120 C   0  0  0  0  0  0  0  0  0  0  0  0
  188.0250  177.4130  144.2960 C   0  0  0  0  0  0  0  0  0  0  0  0
  185.9260  177.6390  140.5640 C   0  0  0  0  0  0  0  0  0  0  0  0
  187.3140  177.4870  142.9980 C   0  0  0  0  0  0  0  0  0  0  0  0
  185.9270  178.2570  145.4030 C   0  0  0  0  0  2  0  0  0  0  0  0
  185.4260  178.2900  141.6940 C   0  0  0  0  0  3  0  0  0  0  0  0
  189.3860  177.3390  146.7600 C   0  0  0  0  0  0  0  0  0  0  0  0
  189.3410  176.9480  144.3610 C   0  0  0  0  0  3  0  0  0  0  0  0
  185.6010  178.9780  144.0950 C   0  0  0  0  0  2  0  0  0  0  0  0
  191.3990  176.8320  148.0260 C   0  0  0  0  0  3  0  0  0  0  0  0
  188.0540  177.8020  146.7070 C   0  0  0  0  0  0  0  0  0  0  0  0
  190.0830  177.2920  147.9770 C   0  0  0  0  0  3  0  0  0  0  0  0
  185.2600  177.7150  139.3880 F   0  0  0  0  0  0  0  0  0  0  0  0
  187.1220  176.9190  140.6440 C   0  0  0  0  0  3  0  0  0  0  0  0
  187.3780  177.8470  145.4710 C   0  0  0  0  0  0  0  0  0  0  0  0
  192.0370  176.4150  146.8580 C   0  0  0  0  0  3  0  0  0  0  0  0
  190.0340  176.9090  145.5750 C   0  0  0  0  0  0  0  0  0  0  0  0
  192.1090  176.0130  144.3960 C   0  0  0  0  0  2  0  0  0  0  0  0
  193.5450  175.5650  144.6830 C   0  0  2  0  0  3  0  0  0  0  0  0
  195.0880  174.1960  143.5460 N   0  0  0  0  0  0  0  0  0  0  0  0
  194.4690  176.4070  144.0570 O   0  0  0  0  0  0  0  0  0  0  0  0
  193.8550  173.2150  145.3880 C   0  0  0  0  0  1  0  0  0  0  0  0
  193.8030  174.1610  144.2040 C   0  0  1  0  0  3  0  0  0  0  0  0
  194.8440  173.9700  142.1310 C   0  0  0  0  0  1  0  0  0  0  0  0
  195.5390  175.5750  143.6850 C   0  0  0  0  0  2  0  0  0  0  0  0
  1 19  1  0  0  0  0
  2  7  1  0  0  0  0
  4  7  2  0  0  0  0
  4 12  1  0  0  0  0
  5 11  2  0  0  0  0
  5 18  1  0  0  0  0
  6 17  1  0  0  0  0
  6  9  2  0  0  0  0
  7  5  1  0  0  0  0
  8 18  1  0  0  0  0
  9  4  1  0  0  0  0
 10 15  2  0  0  0  0
 11 20  1  0  0  0  0
 12  8  1  0  0  0  0
 14 10  1  0  0  0  0
 14  3  1  0  0  0  0
 15 13  1  0  0  0  0
 16  6  1  0  0  0  0
 17  2  2  0  0  0  0
 18 14  2  0  0  0  0
 19 13  2  0  0  0  0
 20  1  2  0  0  0  0
 20 10  1  0  0  0  0
 21  1  1  0  0  0  0
 22 21  1  6  0  0  0
 23 28  1  0  0  0  0
 23 26  1  0  0  0  0
 24 22  1  0  0  0  0
 26 22  1  0  0  0  0
 26 25  1  1  0  0  0
 27 23  1  0  0  0  0
 28 24  1  0  0  0  0
M  END
>  <MODEL>
8

>  <REMARK>
 VINA RESULT:      -7.8      2.189      2.609
  Name = 
  2 active torsions:
  status: ('A' for Active; 'I' for Inactive)
    1  A    between atoms: C_1  and  C_2
    2  A    between atoms: C_2  and  C_3
                            x       y       z     vdW  Elec       q    Type
                         _______ _______ _______ _____ _____    ______ ____

>  <TORSDO>
F 2

$$$$
=
 OpenBabel11052418083D

 28 32  0  0  1  0  0  0  0  0999 V2000
  188.6530  176.7140  145.8310 C   0  0  0  0  0  0  0  0  0  0  0  0
  188.7410  174.0040  141.3950 C   0  0  0  0  0  3  0  0  0  0  0  0
  193.2010  174.7000  145.7580 C   0  0  0  0  0  1  0  0  0  0  0  0
  190.7260  172.6350  141.6800 C   0  0  0  0  0  0  0  0  0  0  0  0
  190.2330  174.3930  143.3810 C   0  0  0  0  0  0  0  0  0  0  0  0
  189.2730  172.2850  139.7730 C   0  0  0  0  0  0  0  0  0  0  0  0
  189.8850  173.6700  142.1360 C   0  0  0  0  0  0  0  0  0  0  0  0
  192.5360  173.3870  143.2290 C   0  0  0  0  0  2  0  0  0  0  0  0
  190.4090  171.9400  140.5100 C   0  0  0  0  0  3  0  0  0  0  0  0
  190.8850  175.7100  145.7830 C   0  0  0  0  0  0  0  0  0  0  0  0
  189.3000  175.2260  144.0040 C   0  0  0  0  0  3  0  0  0  0  0  0
  191.9010  172.2000  142.5040 C   0  0  0  0  0  2  0  0  0  0  0  0
  190.2450  177.2010  147.5950 C   0  0  0  0  0  3  0  0  0  0  0  0
  191.8380  174.8780  145.1580 C   0  0  0  0  0  0  0  0  0  0  0  0
  191.1890  176.3770  146.9800 C   0  0  0  0  0  3  0  0  0  0  0  0
  188.9740  171.6160  138.6350 F   0  0  0  0  0  0  0  0  0  0  0  0
  188.4380  173.3150  140.2170 C   0  0  0  0  0  3  0  0  0  0  0  0
  191.5050  174.2120  143.9610 C   0  0  0  0  0  0  0  0  0  0  0  0
  188.9840  177.3660  147.0220 C   0  0  0  0  0  3  0  0  0  0  0  0
  189.6050  175.8840  145.2010 C   0  0  0  0  0  0  0  0  0  0  0  0
  187.2700  176.9060  145.2680 C   0  0  0  0  0  2  0  0  0  0  0  0
  187.1310  178.1850  144.4360 C   0  0  2  0  0  3  0  0  0  0  0  0
  185.6820  178.8580  142.7050 N   0  0  0  0  0  0  0  0  0  0  0  0
  186.1840  179.0480  144.9960 O   0  0  0  0  0  0  0  0  0  0  0  0
  187.8880  178.0670  142.0840 C   0  0  0  0  0  1  0  0  0  0  0  0
  186.7080  177.8920  143.0210 C   0  0  1  0  0  3  0  0  0  0  0  0
  184.4350  178.1240  142.5720 C   0  0  0  0  0  1  0  0  0  0  0  0
  185.5650  179.6800  143.9040 C   0  0  0  0  0  2  0  0  0  0  0  0
  1 19  1  0  0  0  0
  2  7  1  0  0  0  0
  4  7  2  0  0  0  0
  4 12  1  0  0  0  0
  5 18  1  0  0  0  0
  5 11  2  0  0  0  0
  6 17  1  0  0  0  0
  6  9  2  0  0  0  0
  7  5  1  0  0  0  0
  8 18  1  0  0  0  0
  9  4  1  0  0  0  0
 10 15  2  0  0  0  0
 11 20  1  0  0  0  0
 12  8  1  0  0  0  0
 14  3  1  0  0  0  0
 14 10  1  0  0  0  0
 15 13  1  0  0  0  0
 16  6  1  0  0  0  0
 17  2  2  0  0  0  0
 18 14  2  0  0  0  0
 19 13  2  0  0  0  0
 20 10  1  0  0  0  0
 20  1  2  0  0  0  0
 21  1  1  0  0  0  0
 22 24  1  0  0  0  0
 22 21  1  1  0  0  0
 23 26  1  0  0  0  0
 23 28  1  0  0  0  0
 26 25  1  6  0  0  0
 26 22  1  0  0  0  0
 27 23  1  0  0  0  0
 28 24  1  0  0  0  0
M  END
>  <MODEL>
9

>  <REMARK>
 VINA RESULT:      -7.7      3.005      6.336
  Name = 
  2 active torsions:
  status: ('A' for Active; 'I' for Inactive)
    1  A    between atoms: C_1  and  C_2
    2  A    between atoms: C_2  and  C_3
                            x       y       z     vdW  Elec       q    Type
                         _______ _______ _______ _____ _____    ______ ____

>  <TORSDO>
F 2

$$$$
