=
 OpenBabel11052419163D

 32 37  0  0  1  0  0  0  0  0999 V2000
  190.3620  176.1990  144.8540 C   0  0  1  0  0  3  0  0  0  0  0  0
  187.8800  176.8080  144.3650 C   0  0  0  0  0  0  0  0  0  0  0  0
  191.3570  176.0580  146.0190 C   0  0  0  0  0  2  0  0  0  0  0  0
  188.9140  176.4700  145.2830 C   0  0  0  0  0  0  0  0  0  0  0  0
  186.5590  177.0430  144.8380 C   0  0  0  0  0  0  0  0  0  0  0  0
  186.3670  177.7110  139.8370 C   0  0  0  0  0  3  0  0  0  0  0  0
  188.1300  176.9120  142.9870 C   0  0  0  0  0  3  0  0  0  0  0  0
  184.7950  177.8380  141.6730 C   0  0  0  0  0  3  0  0  0  0  0  0
  185.8120  177.4950  142.5690 C   0  0  0  0  0  0  0  0  0  0  0  0
  188.5630  176.2640  146.6400 C   0  0  0  0  0  0  0  0  0  0  0  0
  185.5420  177.3850  143.9300 C   0  0  0  0  0  3  0  0  0  0  0  0
  187.2660  176.5050  147.0880 C   0  0  0  0  0  3  0  0  0  0  0  0
  189.5250  175.7670  147.5720 N   0  0  0  0  0  2  0  0  0  0  0  0
  187.1160  177.2510  142.0910 C   0  0  0  0  0  0  0  0  0  0  0  0
  186.2660  176.9040  146.2070 C   0  0  0  0  0  0  0  0  0  0  0  0
  190.7790  175.1890  147.1170 C   0  0  0  0  0  2  0  0  0  0  0  0
  185.0730  177.9470  140.3090 C   0  0  0  0  0  3  0  0  0  0  0  0
  187.3900  177.3630  140.7260 C   0  0  0  0  0  3  0  0  0  0  0  0
  192.1780  176.6340  142.9930 C   0  0  1  0  0  3  0  0  0  0  0  0
  190.9080  176.3220  142.4650 O   0  0  0  0  0  0  0  0  0  0  0  0
  190.9070  177.0480  143.6730 C   0  0  1  0  0  3  0  0  0  0  0  0
  194.4020  175.4420  143.5100 C   0  0  2  0  0  0  0  0  0  0  0  0
  194.0520  172.5620  141.8110 O   0  0  0  0  0  1  0  0  0  0  0  0
  194.9240  176.2290  142.3100 C   0  0  0  0  0  1  0  0  0  0  0  0
  192.5500  174.1400  142.7660 C   0  0  0  0  0  2  0  0  0  0  0  0
  194.8830  174.0670  143.3910 N   0  0  0  0  0  2  0  0  0  0  0  0
  192.8720  175.3790  143.5560 C   0  0  2  0  0  3  0  0  0  0  0  0
  193.7460  173.2420  142.9900 C   0  0  2  0  0  3  0  0  0  0  0  0
  194.9520  176.0840  144.7780 C   0  0  0  0  0  2  0  0  0  0  0  0
  194.9600  175.1740  145.8390 O   0  0  0  0  0  1  0  0  0  0  0  0
  184.9030  177.1800  146.7600 C   0  0  0  0  0  2  0  0  0  0  0  0
  184.8610  178.5620  147.3830 C   0  0  0  0  0  1  0  0  0  0  0  0
  1  4  1  0  0  0  0
  1  3  1  1  0  0  0
  2  5  1  0  0  0  0
  2  4  2  0  0  0  0
  3 16  1  0  0  0  0
  4 10  1  0  0  0  0
  5 15  2  0  0  0  0
  6 17  1  0  0  0  0
  6 18  2  0  0  0  0
  7  2  1  0  0  0  0
  8  9  1  0  0  0  0
  9 11  2  0  0  0  0
 10 12  2  0  0  0  0
 10 13  1  0  0  0  0
 11  5  1  0  0  0  0
 14  9  1  0  0  0  0
 14  7  2  0  0  0  0
 15 31  1  0  0  0  0
 15 12  1  0  0  0  0
 16 13  1  0  0  0  0
 17  8  2  0  0  0  0
 18 14  1  0  0  0  0
 19 20  1  6  0  0  0
 19 27  1  0  0  0  0
 19 21  1  0  0  0  0
 21 20  1  6  0  0  0
 21  1  1  0  0  0  0
 22 24  1  6  0  0  0
 22 27  1  0  0  0  0
 22 29  1  0  0  0  0
 25 28  1  0  0  0  0
 26 22  1  0  0  0  0
 27 25  1  6  0  0  0
 28 23  1  6  0  0  0
 28 26  1  0  0  0  0
 29 30  1  0  0  0  0
 31 32  1  0  0  0  0
M  END
>  <MODEL>
1

>  <REMARK>
 VINA RESULT:      -8.3      0.000      0.000
  Name = 
  4 active torsions:
  status: ('A' for Active; 'I' for Inactive)
    1  A    between atoms: C_1  and  C_27
    2  A    between atoms: C_3  and  C_22
    3  A    between atoms: C_13  and  C_29
    4  A    between atoms: C_16  and  C_20
                            x       y       z     vdW  Elec       q    Type
                         _______ _______ _______ _____ _____    ______ ____

>  <TORSDO>
F 4

$$$$
=
 OpenBabel11052419163D

 32 37  0  0  1  0  0  0  0  0999 V2000
  189.3460  174.2150  144.8930 C   0  0  1  0  0  3  0  0  0  0  0  0
  188.3030  175.5440  142.9150 C   0  0  0  0  0  0  0  0  0  0  0  0
  189.7990  174.3910  146.3530 C   0  0  0  0  0  2  0  0  0  0  0  0
  188.6370  175.4360  144.2940 C   0  0  0  0  0  0  0  0  0  0  0  0
  187.6410  176.7080  142.4330 C   0  0  0  0  0  0  0  0  0  0  0  0
  188.2870  173.7300  138.4070 C   0  0  0  0  0  3  0  0  0  0  0  0
  188.6060  174.5180  142.0050 C   0  0  0  0  0  3  0  0  0  0  0  0
  187.3190  175.9090  138.8250 C   0  0  0  0  0  3  0  0  0  0  0  0
  187.6400  175.7920  140.1810 C   0  0  0  0  0  0  0  0  0  0  0  0
  188.1920  176.4540  145.1720 C   0  0  0  0  0  0  0  0  0  0  0  0
  187.3200  176.8150  141.0700 C   0  0  0  0  0  3  0  0  0  0  0  0
  187.5510  177.5910  144.6840 C   0  0  0  0  0  3  0  0  0  0  0  0
  188.3560  176.3200  146.5850 N   0  0  0  0  0  2  0  0  0  0  0  0
  188.2840  174.6310  140.6530 C   0  0  0  0  0  0  0  0  0  0  0  0
  187.2840  177.7350  143.3250 C   0  0  0  0  0  0  0  0  0  0  0  0
  188.7070  175.0390  147.1790 C   0  0  0  0  0  2  0  0  0  0  0  0
  187.6430  174.8790  137.9400 C   0  0  0  0  0  3  0  0  0  0  0  0
  188.6080  173.6030  139.7640 C   0  0  0  0  0  3  0  0  0  0  0  0
  191.7710  174.1270  143.8600 C   0  0  1  0  0  3  0  0  0  0  0  0
  191.5080  173.0620  144.7470 O   0  0  0  0  0  0  0  0  0  0  0  0
  190.4060  173.5190  143.9960 C   0  0  1  0  0  3  0  0  0  0  0  0
  192.6230  176.5560  143.7670 C   0  0  2  0  0  0  0  0  0  0  0  0
  194.9430  176.5650  146.2020 O   0  0  0  0  0  1  0  0  0  0  0  0
  193.5710  176.0190  142.6970 C   0  0  0  0  0  1  0  0  0  0  0  0
  192.9870  175.2880  145.7520 C   0  0  0  0  0  2  0  0  0  0  0  0
  193.3970  177.4090  144.6680 N   0  0  0  0  0  2  0  0  0  0  0  0
  192.0060  175.4440  144.6230 C   0  0  2  0  0  3  0  0  0  0  0  0
  193.5820  176.6690  145.9150 C   0  0  2  0  0  3  0  0  0  0  0  0
  191.5360  177.3700  143.0770 C   0  0  0  0  0  2  0  0  0  0  0  0
  190.9690  178.2980  143.9550 O   0  0  0  0  0  1  0  0  0  0  0  0
  186.6250  178.9960  142.8630 C   0  0  0  0  0  2  0  0  0  0  0  0
  185.6780  179.5120  143.9280 C   0  0  0  0  0  1  0  0  0  0  0  0
  1  3  1  1  0  0  0
  2  4  2  0  0  0  0
  3 16  1  0  0  0  0
  4  1  1  0  0  0  0
  4 10  1  0  0  0  0
  5  2  1  0  0  0  0
  5 15  2  0  0  0  0
  6 18  2  0  0  0  0
  7  2  1  0  0  0  0
  8  9  1  0  0  0  0
  9 14  1  0  0  0  0
  9 11  2  0  0  0  0
 10 13  1  0  0  0  0
 11  5  1  0  0  0  0
 12 10  2  0  0  0  0
 13 16  1  0  0  0  0
 14  7  2  0  0  0  0
 15 12  1  0  0  0  0
 17  6  1  0  0  0  0
 17  8  2  0  0  0  0
 18 14  1  0  0  0  0
 19 21  1  0  0  0  0
 19 27  1  0  0  0  0
 19 20  1  1  0  0  0
 21 20  1  1  0  0  0
 21  1  1  0  0  0  0
 22 24  1  6  0  0  0
 22 27  1  0  0  0  0
 22 26  1  0  0  0  0
 25 28  1  0  0  0  0
 26 28  1  0  0  0  0
 27 25  1  1  0  0  0
 28 23  1  6  0  0  0
 29 22  1  0  0  0  0
 29 30  1  0  0  0  0
 31 15  1  0  0  0  0
 31 32  1  0  0  0  0
M  END
>  <MODEL>
2

>  <REMARK>
 VINA RESULT:      -7.9      2.224      3.425
  Name = 
  4 active torsions:
  status: ('A' for Active; 'I' for Inactive)
    1  A    between atoms: C_1  and  C_27
    2  A    between atoms: C_3  and  C_22
    3  A    between atoms: C_13  and  C_29
    4  A    between atoms: C_16  and  C_20
                            x       y       z     vdW  Elec       q    Type
                         _______ _______ _______ _____ _____    ______ ____

>  <TORSDO>
F 4

$$$$
=
 OpenBabel11052419163D

 32 37  0  0  1  0  0  0  0  0999 V2000
  189.4880  175.4170  144.5750 C   0  0  1  0  0  3  0  0  0  0  0  0
  187.2170  176.6290  144.1990 C   0  0  0  0  0  0  0  0  0  0  0  0
  190.4960  175.0710  145.6850 C   0  0  0  0  0  2  0  0  0  0  0  0
  188.1930  176.0740  145.0720 C   0  0  0  0  0  0  0  0  0  0  0  0
  186.0390  177.2200  144.7360 C   0  0  0  0  0  0  0  0  0  0  0  0
  185.6590  177.7020  139.7240 C   0  0  0  0  0  3  0  0  0  0  0  0
  187.3830  176.6070  142.8050 C   0  0  0  0  0  3  0  0  0  0  0  0
  184.3110  178.3120  141.6400 C   0  0  0  0  0  3  0  0  0  0  0  0
  185.2680  177.7540  142.4920 C   0  0  0  0  0  0  0  0  0  0  0  0
  187.9020  176.0240  146.4580 C   0  0  0  0  0  0  0  0  0  0  0  0
  185.0800  177.7760  143.8720 C   0  0  0  0  0  3  0  0  0  0  0  0
  186.7470  176.6120  146.9680 C   0  0  0  0  0  3  0  0  0  0  0  0
  188.7690  175.3340  147.3600 N   0  0  0  0  0  2  0  0  0  0  0  0
  186.4270  177.1590  141.9530 C   0  0  0  0  0  0  0  0  0  0  0  0
  185.8210  177.2210  146.1250 C   0  0  0  0  0  0  0  0  0  0  0  0
  189.7960  174.4300  146.8650 C   0  0  0  0  0  2  0  0  0  0  0  0
  184.5060  178.2860  140.2580 C   0  0  0  0  0  3  0  0  0  0  0  0
  186.6200  177.1370  140.5700 C   0  0  0  0  0  3  0  0  0  0  0  0
  190.9370  175.1720  142.3860 C   0  0  1  0  0  3  0  0  0  0  0  0
  189.5950  175.5220  142.1260 O   0  0  0  0  0  0  0  0  0  0  0  0
  190.1440  176.0440  143.3150 C   0  0  1  0  0  3  0  0  0  0  0  0
  192.4720  173.1170  142.6220 C   0  0  2  0  0  0  0  0  0  0  0  0
  190.8760  170.8450  140.7240 O   0  0  0  0  0  1  0  0  0  0  0  0
  193.2290  173.7420  141.4530 C   0  0  0  0  0  1  0  0  0  0  0  0
  190.2170  172.7900  141.9240 C   0  0  0  0  0  2  0  0  0  0  0  0
  192.3240  171.6880  142.3510 N   0  0  0  0  0  2  0  0  0  0  0  0
  191.0590  173.6890  142.7850 C   0  0  2  0  0  3  0  0  0  0  0  0
  190.9310  171.4580  141.9760 C   0  0  2  0  0  3  0  0  0  0  0  0
  193.2890  173.3300  143.8900 C   0  0  0  0  0  2  0  0  0  0  0  0
  194.0500  174.4990  143.8070 O   0  0  0  0  0  1  0  0  0  0  0  0
  184.6190  177.8650  146.7410 C   0  0  0  0  0  2  0  0  0  0  0  0
  185.0460  178.9430  147.7180 C   0  0  0  0  0  1  0  0  0  0  0  0
  1  4  1  0  0  0  0
  1  3  1  1  0  0  0
  2  5  1  0  0  0  0
  2  4  2  0  0  0  0
  3 16  1  0  0  0  0
  4 10  1  0  0  0  0
  5 15  2  0  0  0  0
  6 17  1  0  0  0  0
  6 18  2  0  0  0  0
  7  2  1  0  0  0  0
  8  9  1  0  0  0  0
  9 11  2  0  0  0  0
 10 12  2  0  0  0  0
 10 13  1  0  0  0  0
 11  5  1  0  0  0  0
 14  9  1  0  0  0  0
 14  7  2  0  0  0  0
 15 31  1  0  0  0  0
 15 12  1  0  0  0  0
 16 13  1  0  0  0  0
 17  8  2  0  0  0  0
 18 14  1  0  0  0  0
 19 20  1  6  0  0  0
 19 27  1  0  0  0  0
 19 21  1  0  0  0  0
 21 20  1  6  0  0  0
 21  1  1  0  0  0  0
 22 24  1  6  0  0  0
 22 27  1  0  0  0  0
 22 29  1  0  0  0  0
 25 28  1  0  0  0  0
 26 22  1  0  0  0  0
 27 25  1  6  0  0  0
 28 23  1  6  0  0  0
 28 26  1  0  0  0  0
 30 29  1  0  0  0  0
 31 32  1  0  0  0  0
M  END
>  <MODEL>
3

>  <REMARK>
 VINA RESULT:      -7.9      1.593      1.871
  Name = 
  4 active torsions:
  status: ('A' for Active; 'I' for Inactive)
    1  A    between atoms: C_1  and  C_27
    2  A    between atoms: C_3  and  C_22
    3  A    between atoms: C_13  and  C_29
    4  A    between atoms: C_16  and  C_20
                            x       y       z     vdW  Elec       q    Type
                         _______ _______ _______ _____ _____    ______ ____

>  <TORSDO>
F 4

$$$$
=
 OpenBabel11052419163D

 32 37  0  0  1  0  0  0  0  0999 V2000
  190.9760  177.0250  145.4010 C   0  0  1  0  0  3  0  0  0  0  0  0
  188.5460  177.6020  144.6750 C   0  0  0  0  0  0  0  0  0  0  0  0
  192.3360  176.6020  144.8180 C   0  0  0  0  0  2  0  0  0  0  0  0
  189.9110  177.3640  144.3510 C   0  0  0  0  0  0  0  0  0  0  0  0
  187.6150  177.9140  143.6450 C   0  0  0  0  0  0  0  0  0  0  0  0
  184.9610  177.9080  147.9400 C   0  0  0  0  0  3  0  0  0  0  0  0
  188.0860  177.5410  146.0010 C   0  0  0  0  0  3  0  0  0  0  0  0
  184.4830  178.2860  145.5970 C   0  0  0  0  0  3  0  0  0  0  0  0
  185.8280  178.0630  145.2860 C   0  0  0  0  0  0  0  0  0  0  0  0
  190.3250  177.5620  143.0110 C   0  0  0  0  0  0  0  0  0  0  0  0
  186.2660  178.1400  143.9670 C   0  0  0  0  0  3  0  0  0  0  0  0
  189.4000  177.8610  142.0130 C   0  0  0  0  0  3  0  0  0  0  0  0
  191.7080  177.4960  142.6590 N   0  0  0  0  0  2  0  0  0  0  0  0
  186.7460  177.7670  146.3130 C   0  0  0  0  0  0  0  0  0  0  0  0
  188.0510  178.0250  142.3120 C   0  0  0  0  0  0  0  0  0  0  0  0
  192.7410  177.5190  143.6820 C   0  0  0  0  0  2  0  0  0  0  0  0
  184.0510  178.2080  146.9220 C   0  0  0  0  0  3  0  0  0  0  0  0
  186.3090  177.6880  147.6380 C   0  0  0  0  0  3  0  0  0  0  0  0
  190.6320  174.6560  146.5070 C   0  0  1  0  0  3  0  0  0  0  0  0
  191.5940  175.4440  147.1740 O   0  0  0  0  0  0  0  0  0  0  0  0
  190.5170  176.1490  146.5990 C   0  0  1  0  0  3  0  0  0  0  0  0
  190.2220  173.1640  144.4470 C   0  0  2  0  0  0  0  0  0  0  0  0
  192.8170  171.0330  144.6130 O   0  0  0  0  0  1  0  0  0  0  0  0
  189.3410  172.3590  145.3990 C   0  0  0  0  0  1  0  0  0  0  0  0
  192.4100  173.2440  145.3880 C   0  0  0  0  0  2  0  0  0  0  0  0
  191.0380  172.2230  143.6820 N   0  0  0  0  0  2  0  0  0  0  0  0
  191.1890  174.0980  145.1840 C   0  0  2  0  0  3  0  0  0  0  0  0
  192.3990  172.2990  144.2070 C   0  0  2  0  0  3  0  0  0  0  0  0
  189.3160  173.9570  143.5130 C   0  0  0  0  0  2  0  0  0  0  0  0
  189.9340  174.1730  142.2780 O   0  0  0  0  0  1  0  0  0  0  0  0
  187.1050  178.3110  141.1880 C   0  0  0  0  0  2  0  0  0  0  0  0
  187.0140  177.1120  140.2640 C   0  0  0  0  0  1  0  0  0  0  0  0
  1  3  1  6  0  0  0
  1 21  1  0  0  0  0
  2  7  1  0  0  0  0
  4  2  1  0  0  0  0
  4  1  1  0  0  0  0
  5 11  1  0  0  0  0
  5  2  2  0  0  0  0
  7 14  2  0  0  0  0
  8 17  2  0  0  0  0
  9  8  1  0  0  0  0
  9 14  1  0  0  0  0
 10  4  2  0  0  0  0
 11  9  2  0  0  0  0
 12 15  2  0  0  0  0
 12 10  1  0  0  0  0
 13 10  1  0  0  0  0
 13 16  1  0  0  0  0
 14 18  1  0  0  0  0
 15  5  1  0  0  0  0
 16  3  1  0  0  0  0
 17  6  1  0  0  0  0
 18  6  2  0  0  0  0
 19 21  1  0  0  0  0
 19 20  1  1  0  0  0
 21 20  1  1  0  0  0
 22 27  1  0  0  0  0
 22 24  1  1  0  0  0
 26 28  1  0  0  0  0
 26 22  1  0  0  0  0
 27 25  1  1  0  0  0
 27 19  1  0  0  0  0
 28 23  1  1  0  0  0
 28 25  1  0  0  0  0
 29 22  1  0  0  0  0
 30 29  1  0  0  0  0
 31 15  1  0  0  0  0
 32 31  1  0  0  0  0
M  END
>  <MODEL>
4

>  <REMARK>
 VINA RESULT:      -7.6      2.176      4.673
  Name = 
  4 active torsions:
  status: ('A' for Active; 'I' for Inactive)
    1  A    between atoms: C_1  and  C_27
    2  A    between atoms: C_3  and  C_22
    3  A    between atoms: C_13  and  C_29
    4  A    between atoms: C_16  and  C_20
                            x       y       z     vdW  Elec       q    Type
                         _______ _______ _______ _____ _____    ______ ____

>  <TORSDO>
F 4

$$$$
=
 OpenBabel11052419163D

 32 37  0  0  1  0  0  0  0  0999 V2000
  189.3450  175.1640  143.3630 C   0  0  1  0  0  3  0  0  0  0  0  0
  187.4400  176.8080  144.0220 C   0  0  0  0  0  0  0  0  0  0  0  0
  189.7250  174.1350  142.2840 C   0  0  0  0  0  2  0  0  0  0  0  0
  188.0570  175.9450  143.0740 C   0  0  0  0  0  0  0  0  0  0  0  0
  186.2460  177.5020  143.6800 C   0  0  0  0  0  0  0  0  0  0  0  0
  187.3010  178.8470  148.4310 C   0  0  0  0  0  3  0  0  0  0  0  0
  187.9860  177.0010  145.3020 C   0  0  0  0  0  3  0  0  0  0  0  0
  185.5670  179.3560  146.8200 C   0  0  0  0  0  3  0  0  0  0  0  0
  186.1840  178.5160  145.8890 C   0  0  0  0  0  0  0  0  0  0  0  0
  187.5180  175.8940  141.7650 C   0  0  0  0  0  0  0  0  0  0  0  0
  185.6340  178.3470  144.6210 C   0  0  0  0  0  3  0  0  0  0  0  0
  186.3440  176.5740  141.4470 C   0  0  0  0  0  3  0  0  0  0  0  0
  188.1880  175.1730  140.7300 N   0  0  0  0  0  2  0  0  0  0  0  0
  187.3740  177.8410  146.2310 C   0  0  0  0  0  0  0  0  0  0  0  0
  185.6960  177.3650  142.3920 C   0  0  0  0  0  0  0  0  0  0  0  0
  189.5620  174.7250  140.8990 C   0  0  0  0  0  2  0  0  0  0  0  0
  186.1250  179.5210  148.0890 C   0  0  0  0  0  3  0  0  0  0  0  0
  187.9280  178.0080  147.5030 C   0  0  0  0  0  3  0  0  0  0  0  0
  190.8950  174.6300  145.4290 C   0  0  1  0  0  3  0  0  0  0  0  0
  189.9590  175.6530  145.6890 O   0  0  0  0  0  0  0  0  0  0  0  0
  189.5270  174.6370  144.8130 C   0  0  1  0  0  3  0  0  0  0  0  0
  193.2410  174.1830  144.4640 C   0  0  2  0  0  0  0  0  0  0  0  0
  194.9340  176.9030  145.4850 O   0  0  0  0  0  1  0  0  0  0  0  0
  193.4570  173.4100  145.7630 C   0  0  0  0  0  1  0  0  0  0  0  0
  192.6470  176.4160  145.0480 C   0  0  0  0  0  2  0  0  0  0  0  0
  194.4270  175.0040  144.2250 N   0  0  0  0  0  2  0  0  0  0  0  0
  192.0430  175.1370  144.5370 C   0  0  2  0  0  3  0  0  0  0  0  0
  194.0650  176.3880  144.5230 C   0  0  2  0  0  3  0  0  0  0  0  0
  193.0590  173.1780  143.3340 C   0  0  0  0  0  2  0  0  0  0  0  0
  193.2830  173.7740  142.0900 O   0  0  0  0  0  1  0  0  0  0  0  0
  184.4210  178.0400  141.9960 C   0  0  0  0  0  2  0  0  0  0  0  0
  184.4050  178.2910  140.5010 C   0  0  0  0  0  1  0  0  0  0  0  0
  1  3  1  6  0  0  0
  1 21  1  0  0  0  0
  2  7  1  0  0  0  0
  4  1  1  0  0  0  0
  4  2  1  0  0  0  0
  5  2  2  0  0  0  0
  5 11  1  0  0  0  0
  7 14  2  0  0  0  0
  8 17  2  0  0  0  0
  9 14  1  0  0  0  0
  9  8  1  0  0  0  0
 10  4  2  0  0  0  0
 11  9  2  0  0  0  0
 12 10  1  0  0  0  0
 12 15  2  0  0  0  0
 13 16  1  0  0  0  0
 13 10  1  0  0  0  0
 14 18  1  0  0  0  0
 15  5  1  0  0  0  0
 16  3  1  0  0  0  0
 17  6  1  0  0  0  0
 18  6  2  0  0  0  0
 19 20  1  1  0  0  0
 21 19  1  0  0  0  0
 21 20  1  1  0  0  0
 22 27  1  0  0  0  0
 22 24  1  1  0  0  0
 26 22  1  0  0  0  0
 26 28  1  0  0  0  0
 27 25  1  1  0  0  0
 27 19  1  0  0  0  0
 28 25  1  0  0  0  0
 28 23  1  1  0  0  0
 29 22  1  0  0  0  0
 30 29  1  0  0  0  0
 31 15  1  0  0  0  0
 32 31  1  0  0  0  0
M  END
>  <MODEL>
5

>  <REMARK>
 VINA RESULT:      -7.4      2.102      4.573
  Name = 
  4 active torsions:
  status: ('A' for Active; 'I' for Inactive)
    1  A    between atoms: C_1  and  C_27
    2  A    between atoms: C_3  and  C_22
    3  A    between atoms: C_13  and  C_29
    4  A    between atoms: C_16  and  C_20
                            x       y       z     vdW  Elec       q    Type
                         _______ _______ _______ _____ _____    ______ ____

>  <TORSDO>
F 4

$$$$
=
 OpenBabel11052419163D

 32 37  0  0  1  0  0  0  0  0999 V2000
  188.6870  175.1360  143.0520 C   0  0  1  0  0  3  0  0  0  0  0  0
  191.0690  174.1940  143.5060 C   0  0  0  0  0  0  0  0  0  0  0  0
  187.4860  174.9610  142.1050 C   0  0  0  0  0  2  0  0  0  0  0  0
  189.8040  174.1030  142.8600 C   0  0  0  0  0  0  0  0  0  0  0  0
  192.0560  173.1950  143.2800 C   0  0  0  0  0  0  0  0  0  0  0  0
  194.1530  176.5030  146.4670 C   0  0  0  0  0  3  0  0  0  0  0  0
  191.3720  175.2550  144.3750 C   0  0  0  0  0  3  0  0  0  0  0  0
  194.8410  174.4490  145.3850 C   0  0  0  0  0  3  0  0  0  0  0  0
  193.5930  174.3580  144.7630 C   0  0  0  0  0  0  0  0  0  0  0  0
  189.5260  172.9430  142.0940 C   0  0  0  0  0  0  0  0  0  0  0  0
  193.3070  173.2920  143.9130 C   0  0  0  0  0  3  0  0  0  0  0  0
  190.5060  171.9770  141.8780 C   0  0  0  0  0  3  0  0  0  0  0  0
  188.2210  172.7220  141.5580 N   0  0  0  0  0  2  0  0  0  0  0  0
  192.6150  175.3450  145.0010 C   0  0  0  0  0  0  0  0  0  0  0  0
  191.7700  172.0960  142.4500 C   0  0  0  0  0  0  0  0  0  0  0  0
  187.0830  173.5040  142.0130 C   0  0  0  0  0  2  0  0  0  0  0  0
  195.1210  175.5200  146.2360 C   0  0  0  0  0  3  0  0  0  0  0  0
  192.9000  176.4160  145.8510 C   0  0  0  0  0  3  0  0  0  0  0  0
  188.2700  177.5540  144.0150 C   0  0  1  0  0  3  0  0  0  0  0  0
  189.4030  176.9240  144.5720 O   0  0  0  0  0  0  0  0  0  0  0  0
  189.1300  176.6140  143.2240 C   0  0  1  0  0  3  0  0  0  0  0  0
  185.7370  177.8530  144.3750 C   0  0  2  0  0  0  0  0  0  0  0  0
  185.4770  177.5690  147.7150 O   0  0  0  0  0  1  0  0  0  0  0  0
  186.0750  179.3420  144.4050 C   0  0  0  0  0  1  0  0  0  0  0  0
  187.0190  176.7920  146.0800 C   0  0  0  0  0  2  0  0  0  0  0  0
  184.8160  177.5780  145.4760 N   0  0  0  0  0  2  0  0  0  0  0  0
  186.9670  176.9640  144.5870 C   0  0  2  0  0  3  0  0  0  0  0  0
  185.5710  176.8740  146.5100 C   0  0  2  0  0  3  0  0  0  0  0  0
  185.0710  177.5410  143.0410 C   0  0  0  0  0  2  0  0  0  0  0  0
  183.9030  178.2900  142.8750 O   0  0  0  0  0  1  0  0  0  0  0  0
  192.7860  171.0410  142.1480 C   0  0  0  0  0  2  0  0  0  0  0  0
  192.4380  169.7560  142.8750 C   0  0  0  0  0  1  0  0  0  0  0  0
  1  3  1  6  0  0  0
  1 21  1  0  0  0  0
  2  7  1  0  0  0  0
  4  1  1  0  0  0  0
  4  2  1  0  0  0  0
  5  2  2  0  0  0  0
  5 11  1  0  0  0  0
  7 14  2  0  0  0  0
  8 17  2  0  0  0  0
  9 14  1  0  0  0  0
  9  8  1  0  0  0  0
 10  4  2  0  0  0  0
 11  9  2  0  0  0  0
 12 10  1  0  0  0  0
 12 15  2  0  0  0  0
 13 16  1  0  0  0  0
 13 10  1  0  0  0  0
 14 18  1  0  0  0  0
 15  5  1  0  0  0  0
 16  3  1  0  0  0  0
 17  6  1  0  0  0  0
 18  6  2  0  0  0  0
 19 20  1  1  0  0  0
 19 27  1  0  0  0  0
 21 19  1  0  0  0  0
 21 20  1  1  0  0  0
 22 24  1  1  0  0  0
 22 27  1  0  0  0  0
 22 26  1  0  0  0  0
 25 28  1  0  0  0  0
 26 28  1  0  0  0  0
 27 25  1  1  0  0  0
 28 23  1  1  0  0  0
 29 22  1  0  0  0  0
 30 29  1  0  0  0  0
 31 15  1  0  0  0  0
 31 32  1  0  0  0  0
M  END
>  <MODEL>
6

>  <REMARK>
 VINA RESULT:      -7.3      3.085      8.213
  Name = 
  4 active torsions:
  status: ('A' for Active; 'I' for Inactive)
    1  A    between atoms: C_1  and  C_27
    2  A    between atoms: C_3  and  C_22
    3  A    between atoms: C_13  and  C_29
    4  A    between atoms: C_16  and  C_20
                            x       y       z     vdW  Elec       q    Type
                         _______ _______ _______ _____ _____    ______ ____

>  <TORSDO>
F 4

$$$$
=
 OpenBabel11052419163D

 32 37  0  0  1  0  0  0  0  0999 V2000
  188.8290  174.9200  141.5340 C   0  0  1  0  0  3  0  0  0  0  0  0
  188.7480  176.2210  143.7850 C   0  0  0  0  0  0  0  0  0  0  0  0
  187.9860  174.6400  140.2770 C   0  0  0  0  0  2  0  0  0  0  0  0
  188.2210  175.9540  142.4910 C   0  0  0  0  0  0  0  0  0  0  0  0
  188.1310  177.1980  144.6160 C   0  0  0  0  0  0  0  0  0  0  0  0
  192.0020  175.3670  147.2920 C   0  0  0  0  0  3  0  0  0  0  0  0
  189.8780  175.5430  144.2710 C   0  0  0  0  0  3  0  0  0  0  0  0
  190.2690  177.0210  147.6420 C   0  0  0  0  0  3  0  0  0  0  0  0
  189.7630  176.7620  146.3650 C   0  0  0  0  0  0  0  0  0  0  0  0
  187.1560  176.7620  142.0220 C   0  0  0  0  0  0  0  0  0  0  0  0
  188.6480  177.4540  145.8970 C   0  0  0  0  0  3  0  0  0  0  0  0
  186.5580  177.7090  142.8500 C   0  0  0  0  0  3  0  0  0  0  0  0
  186.6950  176.6480  140.6750 N   0  0  0  0  0  2  0  0  0  0  0  0
  190.3870  175.8020  145.5430 C   0  0  0  0  0  0  0  0  0  0  0  0
  187.0240  177.9260  144.1440 C   0  0  0  0  0  0  0  0  0  0  0  0
  187.4730  175.9320  139.6760 C   0  0  0  0  0  2  0  0  0  0  0  0
  191.3870  176.3240  148.1040 C   0  0  0  0  0  3  0  0  0  0  0  0
  191.5040  175.1060  146.0100 C   0  0  0  0  0  3  0  0  0  0  0  0
  190.3870  172.7970  141.4010 C   0  0  1  0  0  3  0  0  0  0  0  0
  190.8150  173.7390  142.3600 O   0  0  0  0  0  0  0  0  0  0  0  0
  189.4200  173.6380  142.1820 C   0  0  1  0  0  3  0  0  0  0  0  0
  190.7080  172.1510  138.9290 C   0  0  2  0  0  0  0  0  0  0  0  0
  193.8010  173.3150  138.3100 O   0  0  0  0  0  1  0  0  0  0  0  0
  191.1910  170.8200  139.5010 C   0  0  0  0  0  1  0  0  0  0  0  0
  192.0780  173.8690  139.8520 C   0  0  0  0  0  2  0  0  0  0  0  0
  191.6380  172.5530  137.8740 N   0  0  0  0  0  2  0  0  0  0  0  0
  190.7020  173.2750  139.9710 C   0  0  2  0  0  3  0  0  0  0  0  0
  192.4500  173.6460  138.4030 C   0  0  2  0  0  3  0  0  0  0  0  0
  189.3140  171.9450  138.3500 C   0  0  0  0  0  2  0  0  0  0  0  0
  189.0290  172.9020  137.3730 O   0  0  0  0  0  1  0  0  0  0  0  0
  186.3150  178.9340  144.9920 C   0  0  0  0  0  2  0  0  0  0  0  0
  185.4030  179.7910  144.1360 C   0  0  0  0  0  1  0  0  0  0  0  0
  1  3  1  6  0  0  0
  1 21  1  0  0  0  0
  1  4  1  0  0  0  0
  2  7  2  0  0  0  0
  2  5  1  0  0  0  0
  4  2  1  0  0  0  0
  5 11  2  0  0  0  0
  6 17  1  0  0  0  0
  7 14  1  0  0  0  0
  8 17  2  0  0  0  0
  9  8  1  0  0  0  0
 10  4  2  0  0  0  0
 10 12  1  0  0  0  0
 11  9  1  0  0  0  0
 12 15  2  0  0  0  0
 13 10  1  0  0  0  0
 14 18  1  0  0  0  0
 14  9  2  0  0  0  0
 15  5  1  0  0  0  0
 15 31  1  0  0  0  0
 16  3  1  0  0  0  0
 16 13  1  0  0  0  0
 18  6  2  0  0  0  0
 19 21  1  0  0  0  0
 19 20  1  1  0  0  0
 21 20  1  1  0  0  0
 22 24  1  1  0  0  0
 22 27  1  0  0  0  0
 26 28  1  0  0  0  0
 26 22  1  0  0  0  0
 27 25  1  1  0  0  0
 27 19  1  0  0  0  0
 28 23  1  1  0  0  0
 28 25  1  0  0  0  0
 29 22  1  0  0  0  0
 30 29  1  0  0  0  0
 32 31  1  0  0  0  0
M  END
>  <MODEL>
7

>  <REMARK>
 VINA RESULT:      -6.8      3.287      5.880
  Name = 
  4 active torsions:
  status: ('A' for Active; 'I' for Inactive)
    1  A    between atoms: C_1  and  C_27
    2  A    between atoms: C_3  and  C_22
    3  A    between atoms: C_13  and  C_29
    4  A    between atoms: C_16  and  C_20
                            x       y       z     vdW  Elec       q    Type
                         _______ _______ _______ _____ _____    ______ ____

>  <TORSDO>
F 4

$$$$
=
 OpenBabel11052419163D

 32 37  0  0  1  0  0  0  0  0999 V2000
  191.2030  173.5630  144.8760 C   0  0  1  0  0  3  0  0  0  0  0  0
  192.4800  174.2160  142.7050 C   0  0  0  0  0  0  0  0  0  0  0  0
  189.8340  173.0520  145.3570 C   0  0  0  0  0  2  0  0  0  0  0  0
  191.3660  173.6100  143.3510 C   0  0  0  0  0  0  0  0  0  0  0  0
  192.5620  174.2170  141.2850 C   0  0  0  0  0  0  0  0  0  0  0  0
  196.6970  176.6220  142.9040 C   0  0  0  0  0  3  0  0  0  0  0  0
  193.5160  174.8150  143.4390 C   0  0  0  0  0  3  0  0  0  0  0  0
  195.7570  176.0260  140.7540 C   0  0  0  0  0  3  0  0  0  0  0  0
  194.6710  175.4230  141.3950 C   0  0  0  0  0  0  0  0  0  0  0  0
  190.4220  172.9200  142.5520 C   0  0  0  0  0  0  0  0  0  0  0  0
  193.6590  174.8230  140.6490 C   0  0  0  0  0  3  0  0  0  0  0  0
  190.5130  172.9370  141.1620 C   0  0  0  0  0  3  0  0  0  0  0  0
  189.3750  172.1580  143.1560 N   0  0  0  0  0  2  0  0  0  0  0  0
  194.6020  175.4140  142.8020 C   0  0  0  0  0  0  0  0  0  0  0  0
  191.5630  173.5880  140.5200 C   0  0  0  0  0  0  0  0  0  0  0  0
  189.4120  171.8280  144.5720 C   0  0  0  0  0  2  0  0  0  0  0  0
  196.7680  176.6250  141.5080 C   0  0  0  0  0  3  0  0  0  0  0  0
  195.6150  176.0160  143.5530 C   0  0  0  0  0  3  0  0  0  0  0  0
  190.8520  176.0200  145.7670 C   0  0  1  0  0  3  0  0  0  0  0  0
  190.9190  175.0610  146.8000 O   0  0  0  0  0  0  0  0  0  0  0  0
  191.7160  174.7980  145.6670 C   0  0  1  0  0  3  0  0  0  0  0  0
  189.3270  177.0290  143.9530 C   0  0  2  0  0  0  0  0  0  0  0  0
  186.5570  177.7620  145.7100 O   0  0  0  0  0  1  0  0  0  0  0  0
  190.0410  178.3330  144.2980 C   0  0  0  0  0  1  0  0  0  0  0  0
  188.3340  176.2000  145.9540 C   0  0  0  0  0  2  0  0  0  0  0  0
  187.8960  177.3090  143.8520 N   0  0  0  0  0  2  0  0  0  0  0  0
  189.4990  175.9570  145.0340 C   0  0  2  0  0  3  0  0  0  0  0  0
  187.2600  176.7570  145.0460 C   0  0  2  0  0  3  0  0  0  0  0  0
  189.8620  176.5320  142.6140 C   0  0  0  0  0  2  0  0  0  0  0  0
  188.8320  176.0170  141.8230 O   0  0  0  0  0  1  0  0  0  0  0  0
  191.5830  173.5980  139.0240 C   0  0  0  0  0  2  0  0  0  0  0  0
  190.1710  173.4800  138.4820 C   0  0  0  0  0  1  0  0  0  0  0  0
  1  3  1  6  0  0  0
  1 21  1  0  0  0  0
  2  4  1  0  0  0  0
  2  7  1  0  0  0  0
  4  1  1  0  0  0  0
  5  2  2  0  0  0  0
  6 18  2  0  0  0  0
  8  9  1  0  0  0  0
  8 17  2  0  0  0  0
  9 14  1  0  0  0  0
 10 13  1  0  0  0  0
 10  4  2  0  0  0  0
 11  5  1  0  0  0  0
 11  9  2  0  0  0  0
 12 10  1  0  0  0  0
 13 16  1  0  0  0  0
 14  7  2  0  0  0  0
 14 18  1  0  0  0  0
 15 12  2  0  0  0  0
 15  5  1  0  0  0  0
 16  3  1  0  0  0  0
 17  6  1  0  0  0  0
 19 20  1  1  0  0  0
 21 19  1  0  0  0  0
 21 20  1  1  0  0  0
 22 24  1  1  0  0  0
 22 27  1  0  0  0  0
 26 22  1  0  0  0  0
 26 28  1  0  0  0  0
 27 19  1  0  0  0  0
 27 25  1  1  0  0  0
 28 23  1  1  0  0  0
 28 25  1  0  0  0  0
 29 22  1  0  0  0  0
 30 29  1  0  0  0  0
 31 15  1  0  0  0  0
 32 31  1  0  0  0  0
M  END
>  <MODEL>
8

>  <REMARK>
 VINA RESULT:      -6.7      2.884      7.410
  Name = 
  4 active torsions:
  status: ('A' for Active; 'I' for Inactive)
    1  A    between atoms: C_1  and  C_27
    2  A    between atoms: C_3  and  C_22
    3  A    between atoms: C_13  and  C_29
    4  A    between atoms: C_16  and  C_20
                            x       y       z     vdW  Elec       q    Type
                         _______ _______ _______ _____ _____    ______ ____

>  <TORSDO>
F 4

$$$$
=
 OpenBabel11052419163D

 32 37  0  0  1  0  0  0  0  0999 V2000
  189.1610  174.5470  144.5040 C   0  0  1  0  0  3  0  0  0  0  0  0
  187.4840  176.4560  143.9460 C   0  0  0  0  0  0  0  0  0  0  0  0
  190.0770  174.0450  145.6340 C   0  0  0  0  0  2  0  0  0  0  0  0
  188.2670  175.7330  144.8890 C   0  0  0  0  0  0  0  0  0  0  0  0
  186.6770  177.5440  144.3790 C   0  0  0  0  0  0  0  0  0  0  0  0
  185.9810  177.2190  139.3890 C   0  0  0  0  0  3  0  0  0  0  0  0
  187.4820  176.1190  142.5830 C   0  0  0  0  0  3  0  0  0  0  0  0
  185.1690  178.6410  141.1720 C   0  0  0  0  0  3  0  0  0  0  0  0
  185.9310  177.9190  142.0960 C   0  0  0  0  0  0  0  0  0  0  0  0
  188.1260  176.0520  146.2620 C   0  0  0  0  0  0  0  0  0  0  0  0
  185.9110  178.2620  143.4450 C   0  0  0  0  0  3  0  0  0  0  0  0
  187.3360  177.1250  146.6690 C   0  0  0  0  0  3  0  0  0  0  0  0
  188.7610  175.2560  147.2630 N   0  0  0  0  0  2  0  0  0  0  0  0
  186.7200  176.8340  141.6610 C   0  0  0  0  0  0  0  0  0  0  0  0
  186.6220  177.8820  145.7440 C   0  0  0  0  0  0  0  0  0  0  0  0
  189.3170  173.9510  146.9400 C   0  0  0  0  0  2  0  0  0  0  0  0
  185.1940  178.2910  139.8210 C   0  0  0  0  0  3  0  0  0  0  0  0
  186.7440  176.4890  140.3070 C   0  0  0  0  0  3  0  0  0  0  0  0
  191.3130  175.0330  143.0590 C   0  0  1  0  0  3  0  0  0  0  0  0
  190.9060  173.6820  143.0100 O   0  0  0  0  0  0  0  0  0  0  0  0
  189.8690  174.6300  143.1230 C   0  0  1  0  0  3  0  0  0  0  0  0
  192.3260  176.8480  144.5790 C   0  0  2  0  0  0  0  0  0  0  0  0
  195.4180  175.6440  145.1230 O   0  0  0  0  0  1  0  0  0  0  0  0
  192.6900  177.5290  143.2610 C   0  0  0  0  0  1  0  0  0  0  0  0
  193.3160  174.6810  144.5650 C   0  0  0  0  0  2  0  0  0  0  0  0
  193.4910  176.9190  145.4590 N   0  0  0  0  0  2  0  0  0  0  0  0
  191.9870  175.3640  144.4030 C   0  0  2  0  0  3  0  0  0  0  0  0
  194.0800  175.5830  145.5100 C   0  0  2  0  0  3  0  0  0  0  0  0
  191.1530  177.6000  145.1960 C   0  0  0  0  0  2  0  0  0  0  0  0
  190.4310  178.2930  144.2220 O   0  0  0  0  0  1  0  0  0  0  0  0
  185.8210  179.0420  146.2450 C   0  0  0  0  0  2  0  0  0  0  0  0
  184.5290  178.5540  146.8720 C   0  0  0  0  0  1  0  0  0  0  0  0
  1  4  1  0  0  0  0
  1  3  1  1  0  0  0
  2  5  1  0  0  0  0
  2  4  2  0  0  0  0
  3 16  1  0  0  0  0
  4 10  1  0  0  0  0
  5 15  2  0  0  0  0
  6 17  1  0  0  0  0
  6 18  2  0  0  0  0
  7  2  1  0  0  0  0
  8  9  1  0  0  0  0
  9 11  2  0  0  0  0
 10 12  2  0  0  0  0
 10 13  1  0  0  0  0
 11  5  1  0  0  0  0
 14  9  1  0  0  0  0
 14  7  2  0  0  0  0
 15 31  1  0  0  0  0
 15 12  1  0  0  0  0
 16 13  1  0  0  0  0
 17  8  2  0  0  0  0
 18 14  1  0  0  0  0
 19 20  1  1  0  0  0
 19 21  1  0  0  0  0
 19 27  1  0  0  0  0
 21 20  1  1  0  0  0
 21  1  1  0  0  0  0
 22 24  1  6  0  0  0
 22 29  1  0  0  0  0
 22 26  1  0  0  0  0
 25 28  1  0  0  0  0
 26 28  1  0  0  0  0
 27 25  1  6  0  0  0
 27 22  1  0  0  0  0
 28 23  1  6  0  0  0
 30 29  1  0  0  0  0
 31 32  1  0  0  0  0
M  END
>  <MODEL>
9

>  <REMARK>
 VINA RESULT:      -6.7      1.614      2.288
  Name = 
  4 active torsions:
  status: ('A' for Active; 'I' for Inactive)
    1  A    between atoms: C_1  and  C_27
    2  A    between atoms: C_3  and  C_22
    3  A    between atoms: C_13  and  C_29
    4  A    between atoms: C_16  and  C_20
                            x       y       z     vdW  Elec       q    Type
                         _______ _______ _______ _____ _____    ______ ____

>  <TORSDO>
F 4

$$$$
