=
 OpenBabel11052420553D

 43 49  0  0  1  0  0  0  0  0999 V2000
  189.1880  171.9410  138.8760 C   0  0  0  0  0  0  0  0  0  0  0  0
  188.0690  176.3140  141.2190 C   0  0  0  0  0  0  0  0  0  0  0  0
  189.4220  176.3240  143.7790 C   0  0  2  0  0  3  0  0  0  0  0  0
  188.3820  174.1740  139.4400 C   0  0  0  0  0  0  0  0  0  0  0  0
  189.6200  171.7480  140.3050 C   0  0  0  0  0  2  0  0  0  0  0  0
  189.3430  170.9280  137.9890 F   0  0  0  0  0  0  0  0  0  0  0  0
  189.0780  174.1690  140.6640 C   0  0  0  0  0  0  0  0  0  0  0  0
  188.5510  173.0540  138.4990 C   0  0  0  0  0  3  0  0  0  0  0  0
  190.0650  173.0660  140.9450 C   0  0  0  0  0  2  0  0  0  0  0  0
  189.6490  175.2740  142.7890 N   0  0  0  0  0  2  0  0  0  0  0  0
  188.9160  175.2390  141.5590 C   0  0  0  0  0  0  0  0  0  0  0  0
  187.3810  176.3030  140.0010 C   0  0  0  0  0  3  0  0  0  0  0  0
  187.8690  177.4620  142.1690 C   0  0  2  0  0  3  0  0  0  0  0  0
  189.0840  177.6420  143.0860 C   0  0  0  0  0  2  0  0  0  0  0  0
  187.5400  175.2390  139.1130 C   0  0  0  0  0  3  0  0  0  0  0  0
  190.6140  176.4850  144.6610 C   0  0  0  0  0  0  0  0  0  0  0  0
  191.6980  175.5520  144.5910 N   0  0  0  0  0  2  0  0  0  0  0  0
  190.6740  177.4750  145.4390 O   0  0  0  0  0  0  0  0  0  0  0  0
  192.8960  175.6620  145.4120 C   0  0  1  0  0  3  0  0  0  0  0  0
  192.6680  174.9850  146.7530 C   0  0  0  0  0  1  0  0  0  0  0  0
  194.0530  174.9820  144.7040 C   0  0  2  0  0  3  0  0  0  0  0  0
  195.3100  175.6890  145.0260 N   0  0  2  0  0  0  0  0  0  0  0  0
  196.4000  174.2700  143.4030 N   0  0  0  0  0  2  0  0  0  0  0  0
  194.6530  175.8850  143.7270 C   0  0  1  0  0  3  0  0  0  0  0  0
  196.4770  174.8470  144.7400 C   0  0  2  0  0  3  0  0  0  0  0  0
  195.4260  175.0840  142.6990 C   0  0  0  0  0  2  0  0  0  0  0  0
  196.7310  173.7960  145.8250 C   0  0  0  0  0  2  0  0  0  0  0  0
  197.3220  172.5060  145.2720 C   0  0  0  0  0  2  0  0  0  0  0  0
  196.8060  171.3680  146.0140 N   0  0  0  0  0  0  0  0  0  0  0  0
  194.7870  169.9410  146.2290 C   0  0  0  0  0  2  0  0  0  0  0  0
  196.9250  168.8910  146.1020 C   0  0  0  0  0  2  0  0  0  0  0  0
  195.7820  169.1670  146.9750 N   0  0  0  0  0  2  0  0  0  0  0  0
  197.5270  170.1880  145.5360 C   0  0  0  0  0  2  0  0  0  0  0  0
  195.3920  171.2320  145.6550 C   0  0  0  0  0  2  0  0  0  0  0  0
  186.6680  177.2390  142.9630 N   0  0  0  0  0  2  0  0  0  0  0  0
  184.7330  177.8490  145.3580 N   0  0  0  0  0  0  0  0  0  0  0  0
  185.3170  179.1840  143.4460 C   0  0  0  0  0  2  0  0  0  0  0  0
  186.1820  177.8680  145.2450 C   0  0  0  0  0  2  0  0  0  0  0  0
  186.5210  178.3720  143.8610 C   0  0  1  0  0  3  0  0  0  0  0  0
  184.2670  178.9380  144.5100 C   0  0  0  0  0  2  0  0  0  0  0  0
  184.4070  178.1970  146.7320 C   0  0  0  0  0  2  0  0  0  0  0  0
  185.9220  179.6610  147.8540 O   0  0  0  0  0  1  0  0  0  0  0  0
  185.6780  178.3200  147.5550 C   0  0  0  0  0  2  0  0  0  0  0  0
  1  5  1  0  0  0  0
  2 11  1  0  0  0  0
  2 13  1  0  0  0  0
  3 16  1  6  0  0  0
  4  7  1  0  0  0  0
  5  9  1  0  0  0  0
  6  1  1  0  0  0  0
  7  9  1  0  0  0  0
  7 11  2  0  0  0  0
  8  1  2  0  0  0  0
  8  4  1  0  0  0  0
 10  3  1  0  0  0  0
 11 10  1  0  0  0  0
 12  2  2  0  0  0  0
 13 35  1  1  0  0  0
 13 14  1  0  0  0  0
 14  3  1  0  0  0  0
 15  4  2  0  0  0  0
 15 12  1  0  0  0  0
 16 18  2  0  0  0  0
 17 16  1  0  0  0  0
 17 19  1  0  0  0  0
 19 20  1  1  0  0  0
 21 22  1  0  0  0  0
 21 19  1  1  0  0  0
 23 25  1  0  0  0  0
 24 21  1  0  0  0  0
 24 22  1  0  0  0  0
 25 22  1  0  0  0  0
 25 27  1  0  0  0  0
 26 23  1  0  0  0  0
 26 24  1  0  0  0  0
 28 27  1  0  0  0  0
 28 29  1  0  0  0  0
 30 32  1  0  0  0  0
 31 32  1  0  0  0  0
 33 29  1  0  0  0  0
 33 31  1  0  0  0  0
 34 29  1  0  0  0  0
 34 30  1  0  0  0  0
 35 39  1  0  0  0  0
 36 41  1  0  0  0  0
 37 39  1  0  0  0  0
 37 40  1  0  0  0  0
 38 36  1  0  0  0  0
 39 38  1  0  0  0  0
 40 36  1  0  0  0  0
 41 43  1  0  0  0  0
 43 42  1  0  0  0  0
M  END
>  <MODEL>
1

>  <REMARK>
 VINA RESULT:      -7.5      0.000      0.000
  Name = 
  10 active torsions:
  status: ('A' for Active; 'I' for Inactive)
    1  A    between atoms: N_1  and  C_34
    2  A    between atoms: N_1  and  C_35
    3  A    between atoms: C_2  and  C_13
    4  A    between atoms: C_3  and  C_12
    5  A    between atoms: N_6  and  C_12
    6  A    between atoms: C_9  and  N_19
    7  A    between atoms: C_9  and  C_37
    8  A    between atoms: N_11  and  C_14
    9  A    between atoms: C_14  and  C_41
   10  A    between atoms: C_22  and  C_41
                            x       y       z     vdW  Elec       q    Type
                         _______ _______ _______ _____ _____    ______ ____

>  <TORSDO>
F 10

$$$$
=
 OpenBabel11052420553D

 43 49  0  0  1  0  0  0  0  0999 V2000
  189.4220  171.7340  136.1920 C   0  0  0  0  0  0  0  0  0  0  0  0
  190.7490  170.7740  141.0070 C   0  0  0  0  0  0  0  0  0  0  0  0
  190.6750  173.2740  142.4660 C   0  0  2  0  0  3  0  0  0  0  0  0
  190.0290  170.6700  138.3030 C   0  0  0  0  0  0  0  0  0  0  0  0
  189.6980  173.0810  136.8050 C   0  0  0  0  0  2  0  0  0  0  0  0
  189.0560  171.6540  134.8900 F   0  0  0  0  0  0  0  0  0  0  0  0
  189.9520  171.8930  138.9980 C   0  0  0  0  0  0  0  0  0  0  0  0
  189.6450  170.6110  136.8830 C   0  0  0  0  0  3  0  0  0  0  0  0
  189.3780  173.0990  138.3020 C   0  0  0  0  0  2  0  0  0  0  0  0
  190.2060  173.1700  141.0870 N   0  0  0  0  0  2  0  0  0  0  0  0
  190.3190  171.9460  140.3520 C   0  0  0  0  0  0  0  0  0  0  0  0
  190.8240  169.5680  140.3030 C   0  0  0  0  0  3  0  0  0  0  0  0
  191.1610  170.8110  142.4530 C   0  0  2  0  0  3  0  0  0  0  0  0
  190.4610  171.9520  143.2000 C   0  0  0  0  0  2  0  0  0  0  0  0
  190.4620  169.5150  138.9570 C   0  0  0  0  0  3  0  0  0  0  0  0
  189.9830  174.3870  143.1780 C   0  0  0  0  0  0  0  0  0  0  0  0
  189.7000  175.6160  142.4970 N   0  0  0  0  0  2  0  0  0  0  0  0
  189.6130  174.2200  144.3700 O   0  0  0  0  0  0  0  0  0  0  0  0
  189.0140  176.7350  143.1290 C   0  0  1  0  0  3  0  0  0  0  0  0
  190.0210  177.7970  143.5350 C   0  0  0  0  0  1  0  0  0  0  0  0
  188.0270  177.3370  142.1460 C   0  0  2  0  0  3  0  0  0  0  0  0
  186.7180  176.6660  142.2900 N   0  0  2  0  0  0  0  0  0  0  0  0
  185.9880  177.9080  140.3520 N   0  0  0  0  0  2  0  0  0  0  0  0
  187.6090  176.3370  141.1690 C   0  0  1  0  0  3  0  0  0  0  0  0
  185.6440  177.4720  141.7000 C   0  0  2  0  0  3  0  0  0  0  0  0
  187.0630  177.0260  139.9350 C   0  0  0  0  0  2  0  0  0  0  0  0
  185.2060  178.6300  142.6030 C   0  0  0  0  0  2  0  0  0  0  0  0
  184.4680  178.1600  143.8490 C   0  0  0  0  0  2  0  0  0  0  0  0
  185.3390  178.2590  145.0070 N   0  0  0  0  0  0  0  0  0  0  0  0
  185.3080  178.8450  147.4180 C   0  0  0  0  0  2  0  0  0  0  0  0
  186.4400  176.8600  146.7350 C   0  0  0  0  0  2  0  0  0  0  0  0
  186.6190  178.2060  147.2830 N   0  0  0  0  0  2  0  0  0  0  0  0
  185.6860  176.8920  145.3960 C   0  0  0  0  0  2  0  0  0  0  0  0
  184.5510  178.8670  146.0810 C   0  0  0  0  0  2  0  0  0  0  0  0
  192.6070  170.9620  142.5470 N   0  0  0  0  0  2  0  0  0  0  0  0
  195.1530  171.1490  144.3740 N   0  0  0  0  0  0  0  0  0  0  0  0
  194.1260  169.2480  143.3190 C   0  0  0  0  0  2  0  0  0  0  0  0
  193.7320  171.1780  144.6760 C   0  0  0  0  0  2  0  0  0  0  0  0
  193.0480  170.2260  143.7210 C   0  0  1  0  0  3  0  0  0  0  0  0
  195.4170  169.8010  143.8910 C   0  0  0  0  0  2  0  0  0  0  0  0
  195.8600  171.3060  145.6350 C   0  0  0  0  0  2  0  0  0  0  0  0
  196.5500  169.6060  147.1620 O   0  0  0  0  0  1  0  0  0  0  0  0
  196.7650  170.1110  145.8790 C   0  0  0  0  0  2  0  0  0  0  0  0
  1  5  1  0  0  0  0
  1  8  2  0  0  0  0
  2 13  1  0  0  0  0
  3 16  1  1  0  0  0
  3 14  1  0  0  0  0
  4 15  2  0  0  0  0
  4  7  1  0  0  0  0
  5  9  1  0  0  0  0
  6  1  1  0  0  0  0
  7 11  2  0  0  0  0
  8  4  1  0  0  0  0
  9  7  1  0  0  0  0
 10  3  1  0  0  0  0
 11  2  1  0  0  0  0
 11 10  1  0  0  0  0
 12  2  2  0  0  0  0
 13 35  1  6  0  0  0
 13 14  1  0  0  0  0
 15 12  1  0  0  0  0
 16 18  2  0  0  0  0
 17 19  1  0  0  0  0
 17 16  1  0  0  0  0
 19 20  1  6  0  0  0
 21 22  1  0  0  0  0
 21 19  1  1  0  0  0
 23 25  1  0  0  0  0
 24 21  1  0  0  0  0
 24 22  1  0  0  0  0
 25 22  1  0  0  0  0
 25 27  1  0  0  0  0
 26 23  1  0  0  0  0
 26 24  1  0  0  0  0
 27 28  1  0  0  0  0
 28 29  1  0  0  0  0
 29 33  1  0  0  0  0
 29 34  1  0  0  0  0
 31 32  1  0  0  0  0
 32 30  1  0  0  0  0
 33 31  1  0  0  0  0
 34 30  1  0  0  0  0
 35 39  1  0  0  0  0
 36 38  1  0  0  0  0
 36 41  1  0  0  0  0
 37 39  1  0  0  0  0
 37 40  1  0  0  0  0
 39 38  1  0  0  0  0
 40 36  1  0  0  0  0
 41 43  1  0  0  0  0
 43 42  1  0  0  0  0
M  END
>  <MODEL>
2

>  <REMARK>
 VINA RESULT:      -7.3      2.636      9.365
  Name = 
  10 active torsions:
  status: ('A' for Active; 'I' for Inactive)
    1  A    between atoms: N_1  and  C_34
    2  A    between atoms: N_1  and  C_35
    3  A    between atoms: C_2  and  C_13
    4  A    between atoms: C_3  and  C_12
    5  A    between atoms: N_6  and  C_12
    6  A    between atoms: C_9  and  N_19
    7  A    between atoms: C_9  and  C_37
    8  A    between atoms: N_11  and  C_14
    9  A    between atoms: C_14  and  C_41
   10  A    between atoms: C_22  and  C_41
                            x       y       z     vdW  Elec       q    Type
                         _______ _______ _______ _____ _____    ______ ____

>  <TORSDO>
F 10

$$$$
=
 OpenBabel11052420553D

 43 49  0  0  1  0  0  0  0  0999 V2000
  196.6040  169.9060  146.4970 C   0  0  0  0  0  0  0  0  0  0  0  0
  195.2160  173.8680  143.6270 C   0  0  0  0  0  0  0  0  0  0  0  0
  192.3630  173.6810  143.1700 C   0  0  2  0  0  3  0  0  0  0  0  0
  196.5390  171.9860  145.2230 C   0  0  0  0  0  0  0  0  0  0  0  0
  195.2160  169.5800  146.0130 C   0  0  0  0  0  2  0  0  0  0  0  0
  197.2610  169.0210  147.2850 F   0  0  0  0  0  0  0  0  0  0  0  0
  195.1450  171.8910  145.0440 C   0  0  0  0  0  0  0  0  0  0  0  0
  197.2360  171.0020  146.0670 C   0  0  0  0  0  3  0  0  0  0  0  0
  194.3760  170.8430  145.8060 C   0  0  0  0  0  2  0  0  0  0  0  0
  193.0600  172.7780  144.0810 N   0  0  0  0  0  2  0  0  0  0  0  0
  194.4830  172.8310  144.2390 C   0  0  0  0  0  0  0  0  0  0  0  0
  196.6000  173.9480  143.8100 C   0  0  0  0  0  3  0  0  0  0  0  0
  194.5290  174.8770  142.7480 C   0  0  2  0  0  3  0  0  0  0  0  0
  193.0560  175.0420  143.1390 C   0  0  0  0  0  2  0  0  0  0  0  0
  197.2590  173.0120  144.6090 C   0  0  0  0  0  3  0  0  0  0  0  0
  190.9320  173.8300  143.5650 C   0  0  0  0  0  0  0  0  0  0  0  0
  190.4690  175.0490  144.1600 N   0  0  0  0  0  2  0  0  0  0  0  0
  190.1280  172.8890  143.3330 O   0  0  0  0  0  0  0  0  0  0  0  0
  189.0830  175.2650  144.5530 C   0  0  1  0  0  3  0  0  0  0  0  0
  189.0060  175.5430  146.0440 C   0  0  0  0  0  1  0  0  0  0  0  0
  188.5280  176.4570  143.7970 C   0  0  2  0  0  3  0  0  0  0  0  0
  187.9130  175.9960  142.5350 N   0  0  2  0  0  0  0  0  0  0  0  0
  187.6350  178.3220  141.9440 N   0  0  0  0  0  2  0  0  0  0  0  0
  189.2370  176.6330  142.5340 C   0  0  1  0  0  3  0  0  0  0  0  0
  187.0020  177.0100  141.9910 C   0  0  2  0  0  3  0  0  0  0  0  0
  189.0590  178.0550  142.0410 C   0  0  0  0  0  2  0  0  0  0  0  0
  185.6460  177.0310  142.7030 C   0  0  0  0  0  2  0  0  0  0  0  0
  185.2610  178.4180  143.1990 C   0  0  0  0  0  2  0  0  0  0  0  0
  184.9290  178.3620  144.6130 N   0  0  0  0  0  0  0  0  0  0  0  0
  185.1630  176.9060  146.6080 C   0  0  0  0  0  2  0  0  0  0  0  0
  185.6690  179.2270  146.8170 C   0  0  0  0  0  2  0  0  0  0  0  0
  184.7350  178.1710  147.2100 N   0  0  0  0  0  2  0  0  0  0  0  0
  185.7840  179.3390  145.2880 C   0  0  0  0  0  2  0  0  0  0  0  0
  185.2870  177.0210  145.0810 C   0  0  0  0  0  2  0  0  0  0  0  0
  194.6370  174.4680  141.3540 N   0  0  0  0  0  2  0  0  0  0  0  0
  196.7010  174.9050  139.0300 N   0  0  0  0  0  0  0  0  0  0  0  0
  196.3820  176.1170  141.0820 C   0  0  0  0  0  2  0  0  0  0  0  0
  195.2880  175.2220  139.1520 C   0  0  0  0  0  2  0  0  0  0  0  0
  195.0400  175.6340  140.5850 C   0  0  1  0  0  3  0  0  0  0  0  0
  197.3740  175.7690  139.9900 C   0  0  0  0  0  2  0  0  0  0  0  0
  197.1190  175.3220  137.7010 C   0  0  0  0  0  2  0  0  0  0  0  0
  196.1790  175.8840  135.5800 O   0  0  0  0  0  1  0  0  0  0  0  0
  196.0040  175.0710  136.7000 C   0  0  0  0  0  2  0  0  0  0  0  0
  1  6  1  0  0  0  0
  2 12  2  0  0  0  0
  2 11  1  0  0  0  0
  3 16  1  1  0  0  0
  3 10  1  0  0  0  0
  4  8  1  0  0  0  0
  5  1  1  0  0  0  0
  7  4  1  0  0  0  0
  7  9  1  0  0  0  0
  8  1  2  0  0  0  0
  9  5  1  0  0  0  0
 10 11  1  0  0  0  0
 11  7  2  0  0  0  0
 12 15  1  0  0  0  0
 13 35  1  6  0  0  0
 13 14  1  0  0  0  0
 13  2  1  0  0  0  0
 14  3  1  0  0  0  0
 15  4  2  0  0  0  0
 16 17  1  0  0  0  0
 17 19  1  0  0  0  0
 18 16  2  0  0  0  0
 19 20  1  1  0  0  0
 21 19  1  1  0  0  0
 22 21  1  0  0  0  0
 23 25  1  0  0  0  0
 23 26  1  0  0  0  0
 24 22  1  0  0  0  0
 24 21  1  0  0  0  0
 25 22  1  0  0  0  0
 25 27  1  0  0  0  0
 26 24  1  0  0  0  0
 27 28  1  0  0  0  0
 28 29  1  0  0  0  0
 29 34  1  0  0  0  0
 29 33  1  0  0  0  0
 30 32  1  0  0  0  0
 31 32  1  0  0  0  0
 33 31  1  0  0  0  0
 34 30  1  0  0  0  0
 36 38  1  0  0  0  0
 36 40  1  0  0  0  0
 38 39  1  0  0  0  0
 39 37  1  0  0  0  0
 39 35  1  0  0  0  0
 40 37  1  0  0  0  0
 41 36  1  0  0  0  0
 42 43  1  0  0  0  0
 43 41  1  0  0  0  0
M  END
>  <MODEL>
3

>  <REMARK>
 VINA RESULT:      -7.3      3.488     10.359
  Name = 
  10 active torsions:
  status: ('A' for Active; 'I' for Inactive)
    1  A    between atoms: N_1  and  C_34
    2  A    between atoms: N_1  and  C_35
    3  A    between atoms: C_2  and  C_13
    4  A    between atoms: C_3  and  C_12
    5  A    between atoms: N_6  and  C_12
    6  A    between atoms: C_9  and  N_19
    7  A    between atoms: C_9  and  C_37
    8  A    between atoms: N_11  and  C_14
    9  A    between atoms: C_14  and  C_41
   10  A    between atoms: C_22  and  C_41
                            x       y       z     vdW  Elec       q    Type
                         _______ _______ _______ _____ _____    ______ ____

>  <TORSDO>
F 10

$$$$
=
 OpenBabel11052420553D

 43 49  0  0  1  0  0  0  0  0999 V2000
  189.5010  171.7180  136.8110 C   0  0  0  0  0  0  0  0  0  0  0  0
  190.1690  172.6720  141.7610 C   0  0  0  0  0  0  0  0  0  0  0  0
  189.7470  175.5050  142.1870 C   0  0  2  0  0  3  0  0  0  0  0  0
  189.8540  171.5410  139.2190 C   0  0  0  0  0  0  0  0  0  0  0  0
  189.6100  173.2150  136.9160 C   0  0  0  0  0  2  0  0  0  0  0  0
  189.3310  171.1440  135.5950 F   0  0  0  0  0  0  0  0  0  0  0  0
  189.6100  172.9160  139.4050 C   0  0  0  0  0  0  0  0  0  0  0  0
  189.6830  170.9430  137.8850 C   0  0  0  0  0  3  0  0  0  0  0  0
  189.0770  173.7310  138.2560 C   0  0  0  0  0  2  0  0  0  0  0  0
  189.4880  174.8710  140.8980 N   0  0  0  0  0  2  0  0  0  0  0  0
  189.7740  173.4840  140.6780 C   0  0  0  0  0  0  0  0  0  0  0  0
  190.4120  171.3090  141.5610 C   0  0  0  0  0  3  0  0  0  0  0  0
  190.3660  173.2630  143.1300 C   0  0  2  0  0  3  0  0  0  0  0  0
  189.5030  174.5150  143.3240 C   0  0  0  0  0  2  0  0  0  0  0  0
  190.2510  170.7450  140.2950 C   0  0  0  0  0  3  0  0  0  0  0  0
  188.8990  176.7200  142.3580 C   0  0  0  0  0  0  0  0  0  0  0  0
  187.4840  176.5950  142.5420 N   0  0  0  0  0  2  0  0  0  0  0  0
  189.4470  177.8540  142.3810 O   0  0  0  0  0  0  0  0  0  0  0  0
  186.6030  177.7390  142.7310 C   0  0  1  0  0  3  0  0  0  0  0  0
  185.2540  177.4650  142.0880 C   0  0  0  0  0  1  0  0  0  0  0  0
  186.4040  177.9780  144.2160 C   0  0  2  0  0  3  0  0  0  0  0  0
  185.8320  176.7650  144.8370 N   0  0  2  0  0  0  0  0  0  0  0  0
  185.5980  178.0450  146.8720 N   0  0  0  0  0  2  0  0  0  0  0  0
  184.9850  177.9320  144.5530 C   0  0  1  0  0  3  0  0  0  0  0  0
  186.0230  176.7770  146.2920 C   0  0  2  0  0  3  0  0  0  0  0  0
  184.7470  178.6530  145.8650 C   0  0  0  0  0  2  0  0  0  0  0  0
  187.4430  176.3810  146.7080 C   0  0  0  0  0  2  0  0  0  0  0  0
  188.3220  177.5820  147.0260 C   0  0  0  0  0  2  0  0  0  0  0  0
  189.7180  177.1790  147.0570 N   0  0  0  0  0  0  0  0  0  0  0  0
  191.1560  175.1660  147.2510 C   0  0  0  0  0  2  0  0  0  0  0  0
  191.6560  176.7740  145.5610 C   0  0  0  0  0  2  0  0  0  0  0  0
  192.1190  176.1810  146.8170 N   0  0  0  0  0  2  0  0  0  0  0  0
  190.2420  177.3600  145.7020 C   0  0  0  0  0  2  0  0  0  0  0  0
  189.7410  175.7510  147.3820 C   0  0  0  0  0  2  0  0  0  0  0  0
  191.7720  173.5860  143.3280 N   0  0  0  0  0  2  0  0  0  0  0  0
  194.5140  172.4550  144.3560 N   0  0  0  0  0  0  0  0  0  0  0  0
  192.3180  171.4780  144.3770 C   0  0  0  0  0  2  0  0  0  0  0  0
  193.5920  173.4300  144.9120 C   0  0  0  0  0  2  0  0  0  0  0  0
  192.1920  172.9690  144.5770 C   0  0  1  0  0  3  0  0  0  0  0  0
  193.8050  171.1840  144.4000 C   0  0  0  0  0  2  0  0  0  0  0  0
  195.6380  172.3590  145.2740 C   0  0  0  0  0  2  0  0  0  0  0  0
  197.1880  173.6520  146.5480 O   0  0  0  0  0  1  0  0  0  0  0  0
  196.0730  173.7460  145.7140 C   0  0  0  0  0  2  0  0  0  0  0  0
  1  5  1  0  0  0  0
  1  8  2  0  0  0  0
  2 13  1  0  0  0  0
  3 16  1  1  0  0  0
  3 14  1  0  0  0  0
  4  7  2  0  0  0  0
  4 15  1  0  0  0  0
  5  9  1  0  0  0  0
  6  1  1  0  0  0  0
  7 11  1  0  0  0  0
  8  4  1  0  0  0  0
  9  7  1  0  0  0  0
 10  3  1  0  0  0  0
 11 10  1  0  0  0  0
 11  2  2  0  0  0  0
 12  2  1  0  0  0  0
 13 14  1  0  0  0  0
 13 35  1  6  0  0  0
 15 12  2  0  0  0  0
 16 18  2  0  0  0  0
 16 17  1  0  0  0  0
 17 19  1  0  0  0  0
 19 20  1  6  0  0  0
 21 19  1  6  0  0  0
 21 24  1  0  0  0  0
 21 22  1  0  0  0  0
 22 25  1  0  0  0  0
 24 22  1  0  0  0  0
 24 26  1  0  0  0  0
 25 27  1  0  0  0  0
 25 23  1  0  0  0  0
 26 23  1  0  0  0  0
 27 28  1  0  0  0  0
 28 29  1  0  0  0  0
 29 34  1  0  0  0  0
 30 34  1  0  0  0  0
 31 33  1  0  0  0  0
 31 32  1  0  0  0  0
 32 30  1  0  0  0  0
 33 29  1  0  0  0  0
 35 39  1  0  0  0  0
 36 40  1  0  0  0  0
 36 38  1  0  0  0  0
 36 41  1  0  0  0  0
 37 40  1  0  0  0  0
 37 39  1  0  0  0  0
 39 38  1  0  0  0  0
 41 43  1  0  0  0  0
 43 42  1  0  0  0  0
M  END
>  <MODEL>
4

>  <REMARK>
 VINA RESULT:      -7.1      2.301      7.886
  Name = 
  10 active torsions:
  status: ('A' for Active; 'I' for Inactive)
    1  A    between atoms: N_1  and  C_34
    2  A    between atoms: N_1  and  C_35
    3  A    between atoms: C_2  and  C_13
    4  A    between atoms: C_3  and  C_12
    5  A    between atoms: N_6  and  C_12
    6  A    between atoms: C_9  and  N_19
    7  A    between atoms: C_9  and  C_37
    8  A    between atoms: N_11  and  C_14
    9  A    between atoms: C_14  and  C_41
   10  A    between atoms: C_22  and  C_41
                            x       y       z     vdW  Elec       q    Type
                         _______ _______ _______ _____ _____    ______ ____

>  <TORSDO>
F 10

$$$$
=
 OpenBabel11052420553D

 43 49  0  0  1  0  0  0  0  0999 V2000
  189.0980  172.1510  138.6580 C   0  0  0  0  0  0  0  0  0  0  0  0
  187.8590  176.4570  141.0620 C   0  0  0  0  0  0  0  0  0  0  0  0
  189.0450  176.3760  143.7020 C   0  0  2  0  0  3  0  0  0  0  0  0
  188.2720  174.3720  139.2400 C   0  0  0  0  0  0  0  0  0  0  0  0
  189.4370  171.9100  140.1050 C   0  0  0  0  0  2  0  0  0  0  0  0
  189.3040  171.1650  137.7510 F   0  0  0  0  0  0  0  0  0  0  0  0
  188.8880  174.3230  140.5060 C   0  0  0  0  0  0  0  0  0  0  0  0
  188.4930  173.2800  138.2770 C   0  0  0  0  0  3  0  0  0  0  0  0
  189.8480  173.2040  140.8140 C   0  0  0  0  0  2  0  0  0  0  0  0
  189.3290  175.3560  142.6970 N   0  0  0  0  0  2  0  0  0  0  0  0
  188.6760  175.3660  141.4210 C   0  0  0  0  0  0  0  0  0  0  0  0
  187.2500  176.4900  139.8030 C   0  0  0  0  0  3  0  0  0  0  0  0
  187.6050  177.5770  142.0330 C   0  0  2  0  0  3  0  0  0  0  0  0
  188.7600  177.7180  143.0310 C   0  0  0  0  0  2  0  0  0  0  0  0
  187.4590  175.4530  138.8940 C   0  0  0  0  0  3  0  0  0  0  0  0
  190.1790  176.5000  144.6640 C   0  0  0  0  0  0  0  0  0  0  0  0
  190.8650  175.3320  145.1280 N   0  0  0  0  0  2  0  0  0  0  0  0
  190.5520  177.6460  145.0300 O   0  0  0  0  0  0  0  0  0  0  0  0
  191.9890  175.3850  146.0530 C   0  0  1  0  0  3  0  0  0  0  0  0
  191.4800  175.4100  147.4840 C   0  0  0  0  0  1  0  0  0  0  0  0
  192.8570  174.1560  145.8580 C   0  0  2  0  0  3  0  0  0  0  0  0
  193.7430  174.3610  144.6920 N   0  0  2  0  0  0  0  0  0  0  0  0
  194.4240  172.0570  144.9390 N   0  0  0  0  0  2  0  0  0  0  0  0
  192.5480  173.5120  144.5850 C   0  0  1  0  0  3  0  0  0  0  0  0
  194.8730  173.4260  144.7180 C   0  0  2  0  0  3  0  0  0  0  0  0
  193.0080  172.0690  144.6160 C   0  0  0  0  0  2  0  0  0  0  0  0
  195.9750  173.8530  145.6930 C   0  0  0  0  0  2  0  0  0  0  0  0
  197.1660  174.4930  144.9950 C   0  0  0  0  0  2  0  0  0  0  0  0
  196.8400  174.7600  143.6050 N   0  0  0  0  0  0  0  0  0  0  0  0
  196.6590  176.6210  141.9740 C   0  0  0  0  0  2  0  0  0  0  0  0
  197.8070  174.6350  141.3230 C   0  0  0  0  0  2  0  0  0  0  0  0
  196.6120  175.4500  141.0960 N   0  0  0  0  0  2  0  0  0  0  0  0
  197.9410  174.2300  142.8000 C   0  0  0  0  0  2  0  0  0  0  0  0
  196.8030  176.2160  143.4490 C   0  0  0  0  0  2  0  0  0  0  0  0
  186.3550  177.3390  142.7420 N   0  0  0  0  0  2  0  0  0  0  0  0
  184.6130  177.8950  145.2940 N   0  0  0  0  0  0  0  0  0  0  0  0
  184.6360  178.9880  143.1530 C   0  0  0  0  0  2  0  0  0  0  0  0
  185.9920  178.2160  144.9650 C   0  0  0  0  0  2  0  0  0  0  0  0
  186.0400  178.5450  143.4900 C   0  0  1  0  0  3  0  0  0  0  0  0
  183.8050  178.6960  144.3860 C   0  0  0  0  0  2  0  0  0  0  0  0
  184.3710  178.3850  146.6410 C   0  0  0  0  0  2  0  0  0  0  0  0
  185.9380  177.9550  148.3880 O   0  0  0  0  0  1  0  0  0  0  0  0
  185.6820  178.7840  147.2960 C   0  0  0  0  0  2  0  0  0  0  0  0
  1  5  1  0  0  0  0
  2 11  1  0  0  0  0
  2 13  1  0  0  0  0
  3 16  1  1  0  0  0
  4  7  1  0  0  0  0
  5  9  1  0  0  0  0
  6  1  1  0  0  0  0
  7  9  1  0  0  0  0
  7 11  2  0  0  0  0
  8  1  2  0  0  0  0
  8  4  1  0  0  0  0
 10  3  1  0  0  0  0
 11 10  1  0  0  0  0
 12  2  2  0  0  0  0
 13 35  1  1  0  0  0
 13 14  1  0  0  0  0
 14  3  1  0  0  0  0
 15  4  2  0  0  0  0
 15 12  1  0  0  0  0
 16 18  2  0  0  0  0
 16 17  1  0  0  0  0
 17 19  1  0  0  0  0
 19 20  1  1  0  0  0
 21 19  1  6  0  0  0
 22 25  1  0  0  0  0
 22 21  1  0  0  0  0
 24 26  1  0  0  0  0
 24 22  1  0  0  0  0
 24 21  1  0  0  0  0
 25 23  1  0  0  0  0
 25 27  1  0  0  0  0
 26 23  1  0  0  0  0
 28 27  1  0  0  0  0
 29 28  1  0  0  0  0
 30 34  1  0  0  0  0
 31 33  1  0  0  0  0
 32 31  1  0  0  0  0
 32 30  1  0  0  0  0
 33 29  1  0  0  0  0
 34 29  1  0  0  0  0
 35 39  1  0  0  0  0
 36 41  1  0  0  0  0
 37 39  1  0  0  0  0
 37 40  1  0  0  0  0
 38 36  1  0  0  0  0
 39 38  1  0  0  0  0
 40 36  1  0  0  0  0
 41 43  1  0  0  0  0
 43 42  1  0  0  0  0
M  END
>  <MODEL>
5

>  <REMARK>
 VINA RESULT:      -7.1      1.611      2.811
  Name = 
  10 active torsions:
  status: ('A' for Active; 'I' for Inactive)
    1  A    between atoms: N_1  and  C_34
    2  A    between atoms: N_1  and  C_35
    3  A    between atoms: C_2  and  C_13
    4  A    between atoms: C_3  and  C_12
    5  A    between atoms: N_6  and  C_12
    6  A    between atoms: C_9  and  N_19
    7  A    between atoms: C_9  and  C_37
    8  A    between atoms: N_11  and  C_14
    9  A    between atoms: C_14  and  C_41
   10  A    between atoms: C_22  and  C_41
                            x       y       z     vdW  Elec       q    Type
                         _______ _______ _______ _____ _____    ______ ____

>  <TORSDO>
F 10

$$$$
=
 OpenBabel11052420553D

 43 49  0  0  1  0  0  0  0  0999 V2000
  195.8330  175.9870  143.8500 C   0  0  0  0  0  0  0  0  0  0  0  0
  191.0160  175.3470  145.3510 C   0  0  0  0  0  0  0  0  0  0  0  0
  189.4170  174.7960  143.0010 C   0  0  2  0  0  3  0  0  0  0  0  0
  193.7850  175.7110  145.1480 C   0  0  0  0  0  0  0  0  0  0  0  0
  195.0120  176.0480  142.5900 C   0  0  0  0  0  2  0  0  0  0  0  0
  197.1770  176.1430  143.7800 F   0  0  0  0  0  0  0  0  0  0  0  0
  193.0350  175.4110  143.9940 C   0  0  0  0  0  0  0  0  0  0  0  0
  195.2410  175.8960  145.0460 C   0  0  0  0  0  3  0  0  0  0  0  0
  193.7530  175.1810  142.6900 C   0  0  0  0  0  2  0  0  0  0  0  0
  190.8730  174.8850  142.9410 N   0  0  0  0  0  2  0  0  0  0  0  0
  191.6460  175.2340  144.0950 C   0  0  0  0  0  0  0  0  0  0  0  0
  191.7720  175.6500  146.4880 C   0  0  0  0  0  3  0  0  0  0  0  0
  189.5270  175.1780  145.4800 C   0  0  2  0  0  3  0  0  0  0  0  0
  188.9730  174.2790  144.3680 C   0  0  0  0  0  2  0  0  0  0  0  0
  193.1530  175.8270  146.3880 C   0  0  0  0  0  3  0  0  0  0  0  0
  188.8950  173.9170  141.9140 C   0  0  0  0  0  0  0  0  0  0  0  0
  189.2580  174.1620  140.5500 N   0  0  0  0  0  2  0  0  0  0  0  0
  188.1670  172.9340  142.2130 O   0  0  0  0  0  0  0  0  0  0  0  0
  188.7970  173.3340  139.4440 C   0  0  1  0  0  3  0  0  0  0  0  0
  188.1930  174.2090  138.3590 C   0  0  0  0  0  1  0  0  0  0  0  0
  189.9730  172.5700  138.8660 C   0  0  2  0  0  3  0  0  0  0  0  0
  189.5840  171.1600  138.6480 N   0  0  2  0  0  0  0  0  0  0  0  0
  191.8930  170.7200  138.0910 N   0  0  0  0  0  2  0  0  0  0  0  0
  190.4160  171.5380  139.7990 C   0  0  1  0  0  3  0  0  0  0  0  0
  190.5030  170.4990  137.7140 C   0  0  2  0  0  3  0  0  0  0  0  0
  191.8430  171.1400  139.4800 C   0  0  0  0  0  2  0  0  0  0  0  0
  190.2210  170.8560  136.2510 C   0  0  0  0  0  2  0  0  0  0  0  0
  191.4330  171.4460  135.5440 C   0  0  0  0  0  2  0  0  0  0  0  0
  191.1140  172.7720  135.0420 N   0  0  0  0  0  0  0  0  0  0  0  0
  189.2200  174.3570  134.8040 C   0  0  0  0  0  2  0  0  0  0  0  0
  191.2980  175.1720  135.6450 C   0  0  0  0  0  2  0  0  0  0  0  0
  190.3680  175.2190  134.5140 N   0  0  0  0  0  2  0  0  0  0  0  0
  191.7360  173.7320  135.9560 C   0  0  0  0  0  2  0  0  0  0  0  0
  189.6590  172.9200  135.1250 C   0  0  0  0  0  2  0  0  0  0  0  0
  188.8790  176.4820  145.4420 N   0  0  0  0  0  2  0  0  0  0  0  0
  186.2020  178.0970  145.1590 N   0  0  0  0  0  0  0  0  0  0  0  0
  187.3780  177.3580  147.1210 C   0  0  0  0  0  2  0  0  0  0  0  0
  186.5130  176.6860  144.9950 C   0  0  0  0  0  2  0  0  0  0  0  0
  187.5570  176.3310  146.0280 C   0  0  1  0  0  3  0  0  0  0  0  0
  186.3910  178.3700  146.5760 C   0  0  0  0  0  2  0  0  0  0  0  0
  184.7870  178.2580  144.8680 C   0  0  0  0  0  2  0  0  0  0  0  0
  185.7560  179.3150  142.9600 O   0  0  0  0  0  1  0  0  0  0  0  0
  184.5960  178.6950  143.4260 C   0  0  0  0  0  2  0  0  0  0  0  0
  1  8  2  0  0  0  0
  2 13  1  0  0  0  0
  2 12  1  0  0  0  0
  3 16  1  6  0  0  0
  3 14  1  0  0  0  0
  4 15  1  0  0  0  0
  5  9  1  0  0  0  0
  5  1  1  0  0  0  0
  6  1  1  0  0  0  0
  7 11  1  0  0  0  0
  7  4  2  0  0  0  0
  8  4  1  0  0  0  0
  9  7  1  0  0  0  0
 10  3  1  0  0  0  0
 10 11  1  0  0  0  0
 11  2  2  0  0  0  0
 13 35  1  6  0  0  0
 14 13  1  0  0  0  0
 15 12  2  0  0  0  0
 16 18  2  0  0  0  0
 17 16  1  0  0  0  0
 19 20  1  6  0  0  0
 19 17  1  0  0  0  0
 21 19  1  1  0  0  0
 21 24  1  0  0  0  0
 22 21  1  0  0  0  0
 22 24  1  0  0  0  0
 23 26  1  0  0  0  0
 25 23  1  0  0  0  0
 25 22  1  0  0  0  0
 26 24  1  0  0  0  0
 27 25  1  0  0  0  0
 28 27  1  0  0  0  0
 29 34  1  0  0  0  0
 29 28  1  0  0  0  0
 29 33  1  0  0  0  0
 30 34  1  0  0  0  0
 31 33  1  0  0  0  0
 32 30  1  0  0  0  0
 32 31  1  0  0  0  0
 35 39  1  0  0  0  0
 36 40  1  0  0  0  0
 38 36  1  0  0  0  0
 38 39  1  0  0  0  0
 39 37  1  0  0  0  0
 40 37  1  0  0  0  0
 41 36  1  0  0  0  0
 42 43  1  0  0  0  0
 43 41  1  0  0  0  0
M  END
>  <MODEL>
6

>  <REMARK>
 VINA RESULT:      -7.0      3.802      7.959
  Name = 
  10 active torsions:
  status: ('A' for Active; 'I' for Inactive)
    1  A    between atoms: N_1  and  C_34
    2  A    between atoms: N_1  and  C_35
    3  A    between atoms: C_2  and  C_13
    4  A    between atoms: C_3  and  C_12
    5  A    between atoms: N_6  and  C_12
    6  A    between atoms: C_9  and  N_19
    7  A    between atoms: C_9  and  C_37
    8  A    between atoms: N_11  and  C_14
    9  A    between atoms: C_14  and  C_41
   10  A    between atoms: C_22  and  C_41
                            x       y       z     vdW  Elec       q    Type
                         _______ _______ _______ _____ _____    ______ ____

>  <TORSDO>
F 10

$$$$
=
 OpenBabel11052420553D

 43 49  0  0  1  0  0  0  0  0999 V2000
  196.0290  176.4770  143.3810 C   0  0  0  0  0  0  0  0  0  0  0  0
  191.3630  175.7630  145.2720 C   0  0  0  0  0  0  0  0  0  0  0  0
  189.6520  174.8780  143.1110 C   0  0  2  0  0  3  0  0  0  0  0  0
  194.0880  176.2420  144.8400 C   0  0  0  0  0  0  0  0  0  0  0  0
  195.1280  176.3570  142.1810 C   0  0  0  0  0  2  0  0  0  0  0  0
  197.3550  176.6910  143.2010 F   0  0  0  0  0  0  0  0  0  0  0  0
  193.2850  175.7800  143.7790 C   0  0  0  0  0  0  0  0  0  0  0  0
  195.5220  176.4870  144.6170 C   0  0  0  0  0  3  0  0  0  0  0  0
  193.9300  175.4440  142.4600 C   0  0  0  0  0  2  0  0  0  0  0  0
  191.0930  175.0330  142.9410 N   0  0  0  0  0  2  0  0  0  0  0  0
  191.9170  175.5460  143.9950 C   0  0  0  0  0  0  0  0  0  0  0  0
  192.1710  176.2270  146.3150 C   0  0  0  0  0  3  0  0  0  0  0  0
  189.8970  175.5340  145.5210 C   0  0  2  0  0  3  0  0  0  0  0  0
  189.3260  174.4920  144.5530 C   0  0  0  0  0  2  0  0  0  0  0  0
  193.5300  176.4610  146.1010 C   0  0  0  0  0  3  0  0  0  0  0  0
  189.1130  173.8600  142.1620 C   0  0  0  0  0  0  0  0  0  0  0  0
  189.1520  174.0970  140.7500 N   0  0  0  0  0  2  0  0  0  0  0  0
  188.6640  172.7740  142.6150 O   0  0  0  0  0  0  0  0  0  0  0  0
  188.6580  173.1380  139.7700 C   0  0  1  0  0  3  0  0  0  0  0  0
  188.1930  173.8690  138.5220 C   0  0  0  0  0  1  0  0  0  0  0  0
  189.7760  172.1830  139.3970 C   0  0  2  0  0  3  0  0  0  0  0  0
  190.8570  172.9310  138.7220 N   0  0  2  0  0  0  0  0  0  0  0  0
  191.9060  170.8020  138.2740 N   0  0  0  0  0  2  0  0  0  0  0  0
  189.9180  172.1080  137.9460 C   0  0  1  0  0  3  0  0  0  0  0  0
  192.1120  172.1700  138.7330 C   0  0  2  0  0  3  0  0  0  0  0  0
  190.6370  170.8290  137.5690 C   0  0  0  0  0  2  0  0  0  0  0  0
  192.8370  172.2410  140.0800 C   0  0  0  0  0  2  0  0  0  0  0  0
  193.2610  170.8720  140.5960 C   0  0  0  0  0  2  0  0  0  0  0  0
  193.2770  170.8740  142.0480 N   0  0  0  0  0  0  0  0  0  0  0  0
  194.4150  171.9400  143.9790 C   0  0  0  0  0  2  0  0  0  0  0  0
  192.0360  171.7670  144.0030 C   0  0  0  0  0  2  0  0  0  0  0  0
  193.2720  171.2910  144.6260 N   0  0  0  0  0  2  0  0  0  0  0  0
  192.0390  171.5230  142.4850 C   0  0  0  0  0  2  0  0  0  0  0  0
  194.4120  171.7030  142.4610 C   0  0  0  0  0  2  0  0  0  0  0  0
  189.1750  176.7920  145.3900 N   0  0  0  0  0  2  0  0  0  0  0  0
  186.5850  178.5600  145.2320 N   0  0  0  0  0  0  0  0  0  0  0  0
  187.2840  176.9620  146.8870 C   0  0  0  0  0  2  0  0  0  0  0  0
  186.9780  177.3410  144.5450 C   0  0  0  0  0  2  0  0  0  0  0  0
  187.7570  176.4990  145.5300 C   0  0  1  0  0  3  0  0  0  0  0  0
  186.4200  178.1800  146.6270 C   0  0  0  0  0  2  0  0  0  0  0  0
  185.2760  178.9340  144.7230 C   0  0  0  0  0  2  0  0  0  0  0  0
  183.8020  178.4060  142.9210 O   0  0  0  0  0  1  0  0  0  0  0  0
  185.1490  178.5340  143.2630 C   0  0  0  0  0  2  0  0  0  0  0  0
  1  8  2  0  0  0  0
  2 13  1  0  0  0  0
  2 12  1  0  0  0  0
  3 16  1  6  0  0  0
  3 14  1  0  0  0  0
  4 15  1  0  0  0  0
  5  9  1  0  0  0  0
  5  1  1  0  0  0  0
  6  1  1  0  0  0  0
  7 11  1  0  0  0  0
  7  4  2  0  0  0  0
  8  4  1  0  0  0  0
  9  7  1  0  0  0  0
 10  3  1  0  0  0  0
 10 11  1  0  0  0  0
 11  2  2  0  0  0  0
 13 35  1  6  0  0  0
 14 13  1  0  0  0  0
 15 12  2  0  0  0  0
 16 18  2  0  0  0  0
 17 16  1  0  0  0  0
 19 20  1  6  0  0  0
 19 17  1  0  0  0  0
 21 19  1  6  0  0  0
 22 25  1  0  0  0  0
 22 21  1  0  0  0  0
 23 25  1  0  0  0  0
 24 22  1  0  0  0  0
 24 21  1  0  0  0  0
 25 27  1  0  0  0  0
 26 24  1  0  0  0  0
 26 23  1  0  0  0  0
 27 28  1  0  0  0  0
 28 29  1  0  0  0  0
 29 34  1  0  0  0  0
 29 33  1  0  0  0  0
 30 32  1  0  0  0  0
 31 32  1  0  0  0  0
 33 31  1  0  0  0  0
 34 30  1  0  0  0  0
 35 39  1  0  0  0  0
 36 40  1  0  0  0  0
 38 36  1  0  0  0  0
 38 39  1  0  0  0  0
 39 37  1  0  0  0  0
 40 37  1  0  0  0  0
 41 36  1  0  0  0  0
 42 43  1  0  0  0  0
 43 41  1  0  0  0  0
M  END
>  <MODEL>
7

>  <REMARK>
 VINA RESULT:      -6.9      3.199      6.203
  Name = 
  10 active torsions:
  status: ('A' for Active; 'I' for Inactive)
    1  A    between atoms: N_1  and  C_34
    2  A    between atoms: N_1  and  C_35
    3  A    between atoms: C_2  and  C_13
    4  A    between atoms: C_3  and  C_12
    5  A    between atoms: N_6  and  C_12
    6  A    between atoms: C_9  and  N_19
    7  A    between atoms: C_9  and  C_37
    8  A    between atoms: N_11  and  C_14
    9  A    between atoms: C_14  and  C_41
   10  A    between atoms: C_22  and  C_41
                            x       y       z     vdW  Elec       q    Type
                         _______ _______ _______ _____ _____    ______ ____

>  <TORSDO>
F 10

$$$$
=
 OpenBabel11052420553D

 43 49  0  0  1  0  0  0  0  0999 V2000
  195.7180  169.8320  146.1450 C   0  0  0  0  0  0  0  0  0  0  0  0
  196.4560  173.7880  143.0350 C   0  0  0  0  0  0  0  0  0  0  0  0
  194.0310  175.3700  143.0160 C   0  0  2  0  0  3  0  0  0  0  0  0
  196.6680  171.5070  144.6460 C   0  0  0  0  0  0  0  0  0  0  0  0
  194.3490  170.4120  145.9080 C   0  0  0  0  0  2  0  0  0  0  0  0
  195.8520  168.7390  146.9340 F   0  0  0  0  0  0  0  0  0  0  0  0
  195.4890  172.2780  144.6810 C   0  0  0  0  0  0  0  0  0  0  0  0
  196.7840  170.3120  145.4970 C   0  0  0  0  0  3  0  0  0  0  0  0
  194.4080  171.9230  145.6680 C   0  0  0  0  0  2  0  0  0  0  0  0
  194.2080  174.2390  143.9230 N   0  0  0  0  0  2  0  0  0  0  0  0
  195.3810  173.4170  143.8690 C   0  0  0  0  0  0  0  0  0  0  0  0
  197.6180  173.0100  143.0070 C   0  0  0  0  0  3  0  0  0  0  0  0
  196.3550  174.9950  142.1450 C   0  0  2  0  0  3  0  0  0  0  0  0
  195.3780  176.0270  142.7180 C   0  0  0  0  0  2  0  0  0  0  0  0
  197.7260  171.8760  143.8130 C   0  0  0  0  0  3  0  0  0  0  0  0
  193.0780  176.3630  143.5900 C   0  0  0  0  0  0  0  0  0  0  0  0
  191.7030  176.3610  143.1890 N   0  0  0  0  0  2  0  0  0  0  0  0
  193.4870  177.1760  144.4610 O   0  0  0  0  0  0  0  0  0  0  0  0
  190.7180  177.2920  143.7230 C   0  0  1  0  0  3  0  0  0  0  0  0
  189.9130  177.9010  142.5870 C   0  0  0  0  0  1  0  0  0  0  0  0
  189.7780  176.5490  144.6540 C   0  0  2  0  0  3  0  0  0  0  0  0
  189.9150  177.0870  146.0230 N   0  0  2  0  0  0  0  0  0  0  0  0
  188.4640  175.3020  146.7570 N   0  0  0  0  0  2  0  0  0  0  0  0
  190.5370  175.8070  145.6560 C   0  0  1  0  0  3  0  0  0  0  0  0
  188.7580  176.7260  146.8500 C   0  0  2  0  0  3  0  0  0  0  0  0
  189.6770  174.7010  146.2320 C   0  0  0  0  0  2  0  0  0  0  0  0
  187.5340  177.6040  146.5740 C   0  0  0  0  0  2  0  0  0  0  0  0
  186.2730  176.7930  146.3090 C   0  0  0  0  0  2  0  0  0  0  0  0
  185.5020  177.4120  145.2450 N   0  0  0  0  0  0  0  0  0  0  0  0
  184.9660  179.6310  144.2700 C   0  0  0  0  0  2  0  0  0  0  0  0
  185.5600  177.8470  142.8030 C   0  0  0  0  0  2  0  0  0  0  0  0
  184.4690  178.7220  143.2350 N   0  0  0  0  0  2  0  0  0  0  0  0
  186.1690  177.0770  143.9860 C   0  0  0  0  0  2  0  0  0  0  0  0
  185.5830  178.8610  145.4480 C   0  0  0  0  0  2  0  0  0  0  0  0
  195.9330  174.5890  140.8110 N   0  0  0  0  0  2  0  0  0  0  0  0
  196.3610  174.1140  137.7380 N   0  0  0  0  0  0  0  0  0  0  0  0
  197.8180  173.6820  139.6010 C   0  0  0  0  0  2  0  0  0  0  0  0
  196.4150  175.3140  138.5560 C   0  0  0  0  0  2  0  0  0  0  0  0
  197.0080  174.9230  139.8910 C   0  0  1  0  0  3  0  0  0  0  0  0
  197.4870  173.3010  138.1710 C   0  0  0  0  0  2  0  0  0  0  0  0
  196.6190  174.5210  136.3660 C   0  0  0  0  0  2  0  0  0  0  0  0
  194.6160  174.8460  135.1090 O   0  0  0  0  0  1  0  0  0  0  0  0
  195.5560  175.5040  135.9040 C   0  0  0  0  0  2  0  0  0  0  0  0
  1  6  1  0  0  0  0
  2 11  1  0  0  0  0
  3 16  1  1  0  0  0
  3 10  1  0  0  0  0
  4  7  1  0  0  0  0
  4  8  1  0  0  0  0
  5  1  1  0  0  0  0
  7  9  1  0  0  0  0
  8  1  2  0  0  0  0
  9  5  1  0  0  0  0
 11 10  1  0  0  0  0
 11  7  2  0  0  0  0
 12  2  2  0  0  0  0
 12 15  1  0  0  0  0
 13 35  1  6  0  0  0
 13 14  1  0  0  0  0
 13  2  1  0  0  0  0
 14  3  1  0  0  0  0
 15  4  2  0  0  0  0
 16 18  2  0  0  0  0
 17 16  1  0  0  0  0
 17 19  1  0  0  0  0
 19 20  1  6  0  0  0
 21 19  1  6  0  0  0
 21 24  1  0  0  0  0
 21 22  1  0  0  0  0
 22 25  1  0  0  0  0
 23 25  1  0  0  0  0
 24 22  1  0  0  0  0
 24 26  1  0  0  0  0
 26 23  1  0  0  0  0
 27 25  1  0  0  0  0
 28 27  1  0  0  0  0
 29 34  1  0  0  0  0
 29 28  1  0  0  0  0
 30 34  1  0  0  0  0
 31 32  1  0  0  0  0
 31 33  1  0  0  0  0
 32 30  1  0  0  0  0
 33 29  1  0  0  0  0
 36 40  1  0  0  0  0
 36 38  1  0  0  0  0
 37 39  1  0  0  0  0
 38 39  1  0  0  0  0
 39 35  1  0  0  0  0
 40 37  1  0  0  0  0
 41 36  1  0  0  0  0
 42 43  1  0  0  0  0
 43 41  1  0  0  0  0
M  END
>  <MODEL>
8

>  <REMARK>
 VINA RESULT:      -6.8      3.738     10.457
  Name = 
  10 active torsions:
  status: ('A' for Active; 'I' for Inactive)
    1  A    between atoms: N_1  and  C_34
    2  A    between atoms: N_1  and  C_35
    3  A    between atoms: C_2  and  C_13
    4  A    between atoms: C_3  and  C_12
    5  A    between atoms: N_6  and  C_12
    6  A    between atoms: C_9  and  N_19
    7  A    between atoms: C_9  and  C_37
    8  A    between atoms: N_11  and  C_14
    9  A    between atoms: C_14  and  C_41
   10  A    between atoms: C_22  and  C_41
                            x       y       z     vdW  Elec       q    Type
                         _______ _______ _______ _____ _____    ______ ____

>  <TORSDO>
F 10

$$$$
=
 OpenBabel11052420553D

 43 49  0  0  1  0  0  0  0  0999 V2000
  185.6690  177.9220  146.9750 C   0  0  0  0  0  0  0  0  0  0  0  0
  190.1870  176.2650  145.3270 C   0  0  0  0  0  0  0  0  0  0  0  0
  189.7180  174.4420  143.1270 C   0  0  2  0  0  3  0  0  0  0  0  0
  188.0530  177.5640  146.5930 C   0  0  0  0  0  0  0  0  0  0  0  0
  185.3620  176.7450  146.0870 C   0  0  0  0  0  2  0  0  0  0  0  0
  184.6550  178.5800  147.5870 F   0  0  0  0  0  0  0  0  0  0  0  0
  187.8000  176.7080  145.5040 C   0  0  0  0  0  0  0  0  0  0  0  0
  186.9340  178.2530  147.2560 C   0  0  0  0  0  3  0  0  0  0  0  0
  186.3960  176.5930  144.9680 C   0  0  0  0  0  2  0  0  0  0  0  0
  188.6370  175.2120  143.7360 N   0  0  0  0  0  2  0  0  0  0  0  0
  188.8690  176.0520  144.8730 C   0  0  0  0  0  0  0  0  0  0  0  0
  190.4220  177.1150  146.4130 C   0  0  0  0  0  3  0  0  0  0  0  0
  191.3450  175.5610  144.6770 C   0  0  2  0  0  3  0  0  0  0  0  0
  191.0340  175.2130  143.2170 C   0  0  0  0  0  2  0  0  0  0  0  0
  189.3590  177.7650  147.0410 C   0  0  0  0  0  3  0  0  0  0  0  0
  189.3990  174.1130  141.7080 C   0  0  0  0  0  0  0  0  0  0  0  0
  189.7270  172.8250  141.1730 N   0  0  0  0  0  2  0  0  0  0  0  0
  188.8010  174.9640  140.9980 O   0  0  0  0  0  0  0  0  0  0  0  0
  189.4280  172.4340  139.8020 C   0  0  1  0  0  3  0  0  0  0  0  0
  187.9560  172.6680  139.5070 C   0  0  0  0  0  1  0  0  0  0  0  0
  190.2620  173.2700  138.8500 C   0  0  2  0  0  3  0  0  0  0  0  0
  190.9880  172.3780  137.9200 N   0  0  2  0  0  0  0  0  0  0  0  0
  192.1430  174.3380  137.1100 N   0  0  0  0  0  2  0  0  0  0  0  0
  191.6830  173.0050  139.0530 C   0  0  1  0  0  3  0  0  0  0  0  0
  191.4480  173.1130  136.7370 C   0  0  2  0  0  3  0  0  0  0  0  0
  192.5010  174.1570  138.5050 C   0  0  0  0  0  2  0  0  0  0  0  0
  190.3320  173.3520  135.7150 C   0  0  0  0  0  2  0  0  0  0  0  0
  190.5780  174.5770  134.8460 C   0  0  0  0  0  2  0  0  0  0  0  0
  189.3540  175.3500  134.7220 N   0  0  0  0  0  0  0  0  0  0  0  0
  187.3580  176.0490  136.0180 C   0  0  0  0  0  2  0  0  0  0  0  0
  188.5230  177.6880  134.7350 C   0  0  0  0  0  2  0  0  0  0  0  0
  187.2770  176.9270  134.8490 N   0  0  0  0  0  2  0  0  0  0  0  0
  189.7460  176.7590  134.6620 C   0  0  0  0  0  2  0  0  0  0  0  0
  188.5850  175.1280  135.9490 C   0  0  0  0  0  2  0  0  0  0  0  0
  191.6680  174.3530  145.4250 N   0  0  0  0  0  2  0  0  0  0  0  0
  194.4930  175.1450  144.3070 N   0  0  0  0  0  0  0  0  0  0  0  0
  193.8420  173.3590  145.7790 C   0  0  0  0  0  2  0  0  0  0  0  0
  193.6690  175.7080  145.3640 C   0  0  0  0  0  2  0  0  0  0  0  0
  192.9650  174.5580  146.0480 C   0  0  1  0  0  3  0  0  0  0  0  0
  194.8870  173.8280  144.7860 C   0  0  0  0  0  2  0  0  0  0  0  0
  195.6960  175.9570  144.2250 C   0  0  0  0  0  2  0  0  0  0  0  0
  197.1970  176.7840  142.5630 O   0  0  0  0  0  1  0  0  0  0  0  0
  196.4280  175.6770  142.9240 C   0  0  0  0  0  2  0  0  0  0  0  0
  1  8  2  0  0  0  0
  1  6  1  0  0  0  0
  2 12  1  0  0  0  0
  3 16  1  6  0  0  0
  3 14  1  0  0  0  0
  3 10  1  0  0  0  0
  4 15  1  0  0  0  0
  4  8  1  0  0  0  0
  5  1  1  0  0  0  0
  7  4  2  0  0  0  0
  9  7  1  0  0  0  0
  9  5  1  0  0  0  0
 10 11  1  0  0  0  0
 11  2  2  0  0  0  0
 11  7  1  0  0  0  0
 12 15  2  0  0  0  0
 13  2  1  0  0  0  0
 13 35  1  1  0  0  0
 14 13  1  0  0  0  0
 17 16  1  0  0  0  0
 18 16  2  0  0  0  0
 19 20  1  6  0  0  0
 19 17  1  0  0  0  0
 21 24  1  0  0  0  0
 21 19  1  1  0  0  0
 22 21  1  0  0  0  0
 22 24  1  0  0  0  0
 23 26  1  0  0  0  0
 25 23  1  0  0  0  0
 25 22  1  0  0  0  0
 26 24  1  0  0  0  0
 27 25  1  0  0  0  0
 28 27  1  0  0  0  0
 29 28  1  0  0  0  0
 29 34  1  0  0  0  0
 31 32  1  0  0  0  0
 32 30  1  0  0  0  0
 33 29  1  0  0  0  0
 33 31  1  0  0  0  0
 34 30  1  0  0  0  0
 35 39  1  0  0  0  0
 36 40  1  0  0  0  0
 36 38  1  0  0  0  0
 37 39  1  0  0  0  0
 38 39  1  0  0  0  0
 40 37  1  0  0  0  0
 41 36  1  0  0  0  0
 42 43  1  0  0  0  0
 43 41  1  0  0  0  0
M  END
>  <MODEL>
9

>  <REMARK>
 VINA RESULT:      -6.8      3.929      9.577
  Name = 
  10 active torsions:
  status: ('A' for Active; 'I' for Inactive)
    1  A    between atoms: N_1  and  C_34
    2  A    between atoms: N_1  and  C_35
    3  A    between atoms: C_2  and  C_13
    4  A    between atoms: C_3  and  C_12
    5  A    between atoms: N_6  and  C_12
    6  A    between atoms: C_9  and  N_19
    7  A    between atoms: C_9  and  C_37
    8  A    between atoms: N_11  and  C_14
    9  A    between atoms: C_14  and  C_41
   10  A    between atoms: C_22  and  C_41
                            x       y       z     vdW  Elec       q    Type
                         _______ _______ _______ _____ _____    ______ ____

>  <TORSDO>
F 10

$$$$
