=
 OpenBabel11052419523D

 37 43  0  0  1  0  0  0  0  0999 V2000
  189.9090  175.5280  146.2660 C   0  0  0  0  0  2  0  0  0  0  0  0
  185.0780  178.0950  147.0180 C   0  0  0  0  0  2  0  0  0  0  0  0
  186.9990  177.3520  143.0830 C   0  0  0  0  0  0  0  0  0  0  0  0
  190.9290  176.4120  147.0010 C   0  0  2  0  0  3  0  0  0  0  0  0
  189.9760  175.4770  141.9120 N   0  0  0  0  0  0  0  0  0  0  0  0
  185.7120  178.6520  144.6880 C   0  0  0  0  0  0  0  0  0  0  0  0
  188.1560  176.5770  143.1050 C   0  0  0  0  0  0  0  0  0  0  0  0
  186.8220  177.8430  144.3650 C   0  0  0  0  0  0  0  0  0  0  0  0
  188.7090  175.7580  142.0140 C   0  0  0  0  0  0  0  0  0  0  0  0
  184.7910  178.9410  143.6730 C   0  0  0  0  0  3  0  0  0  0  0  0
  192.1730  176.8240  146.1830 C   0  0  0  0  0  2  0  0  0  0  0  0
  187.8170  177.4110  145.1770 N   0  0  0  0  0  0  0  0  0  0  0  0
  186.9910  177.0230  147.4470 C   0  0  0  0  0  2  0  0  0  0  0  0
  186.2160  177.2040  140.6950 N   0  0  0  0  0  2  0  0  0  0  0  0
  184.9760  178.4490  142.3730 C   0  0  0  0  0  3  0  0  0  0  0  0
  188.0180  177.7450  146.5840 C   0  0  0  0  0  2  0  0  0  0  0  0
  192.3310  176.0740  144.8520 C   0  0  2  0  0  3  0  0  0  0  0  0
  191.0740  175.7460  142.7980 C   0  0  0  0  0  3  0  0  0  0  0  0
  186.0850  177.6550  142.0500 C   0  0  0  0  0  0  0  0  0  0  0  0
  188.6260  176.6370  144.4070 C   0  0  0  0  0  0  0  0  0  0  0  0
  185.4530  179.2090  146.0510 C   0  0  0  0  0  2  0  0  0  0  0  0
  187.7800  175.3570  140.9040 C   0  0  1  0  0  3  0  0  0  0  0  0
  186.0870  177.9510  147.9770 O   0  0  0  0  0  0  0  0  0  0  0  0
  191.0200  175.9700  144.1150 C   0  0  0  0  0  0  0  0  0  0  0  0
  189.8020  175.9560  144.8760 N   0  0  0  0  0  0  0  0  0  0  0  0
  187.3910  176.5830  140.1070 C   0  0  0  0  0  2  0  0  0  0  0  0
  188.6660  172.9110  140.6210 C   0  0  0  0  0  2  0  0  0  0  0  0
  188.3030  174.2590  140.0230 C   0  0  0  0  0  0  0  0  0  0  0  0
  188.3660  174.4840  138.7080 C   0  0  0  0  0  3  0  0  0  0  0  0
  188.8810  173.6630  136.5520 O   0  0  0  0  0  0  0  0  0  0  0  0
  189.3060  172.1630  138.3280 C   0  0  0  0  0  3  0  0  0  0  0  0
  188.8490  173.4460  137.7910 C   0  0  0  0  0  0  0  0  0  0  0  0
  189.2350  171.9180  139.6370 C   0  0  0  0  0  3  0  0  0  0  0  0
  192.9320  174.7220  145.0940 C   0  0  0  0  0  3  0  0  0  0  0  0
  193.7100  174.5440  146.0160 O   0  0  0  0  0  0  0  0  0  0  0  0
  191.6400  177.0830  149.0670 C   0  0  0  0  0  1  0  0  0  0  0  0
  191.2250  175.9770  148.3090 O   0  0  0  0  0  0  0  0  0  0  0  0
  1  4  1  0  0  0  0
  2 23  1  0  0  0  0
  3  7  1  0  0  0  0
  3  8  1  0  0  0  0
  4 37  1  1  0  0  0
  5  9  2  0  0  0  0
  5 18  1  0  0  0  0
  6 21  1  0  0  0  0
  7 20  2  0  0  0  0
  8  6  2  0  0  0  0
  8 12  1  0  0  0  0
  9  7  1  0  0  0  0
 10  6  1  0  0  0  0
 11  4  1  0  0  0  0
 12 16  1  0  0  0  0
 13 23  1  0  0  0  0
 14 19  1  0  0  0  0
 15 10  2  0  0  0  0
 16 13  1  0  0  0  0
 17 34  1  1  0  0  0
 17 11  1  0  0  0  0
 18 24  2  0  0  0  0
 19 15  1  0  0  0  0
 19  3  2  0  0  0  0
 20 25  1  0  0  0  0
 20 12  1  0  0  0  0
 21  2  1  0  0  0  0
 22 28  1  6  0  0  0
 22  9  1  0  0  0  0
 24 17  1  0  0  0  0
 24 25  1  0  0  0  0
 25  1  1  0  0  0  0
 26 14  1  0  0  0  0
 26 22  1  0  0  0  0
 28 27  1  0  0  0  0
 29 28  2  0  0  0  0
 30 32  2  0  0  0  0
 31 33  2  0  0  0  0
 32 31  1  0  0  0  0
 32 29  1  0  0  0  0
 33 27  1  0  0  0  0
 34 35  2  0  0  0  0
 37 36  1  0  0  0  0
M  END
>  <MODEL>
1

>  <REMARK>
 VINA RESULT:      -8.4      0.000      0.000
  Name = 
  3 active torsions:
  status: ('A' for Active; 'I' for Inactive)
    1  A    between atoms: C_5  and  O_23
    2  A    between atoms: C_6  and  C_31
    3  A    between atoms: C_11  and  C_26
                            x       y       z     vdW  Elec       q    Type
                         _______ _______ _______ _____ _____    ______ ____

>  <TORSDO>
F 3

$$$$
=
 OpenBabel11052419523D

 37 43  0  0  1  0  0  0  0  0999 V2000
  190.2370  171.9020  142.0630 C   0  0  0  0  0  2  0  0  0  0  0  0
  194.3860  171.7520  145.7050 C   0  0  0  0  0  2  0  0  0  0  0  0
  191.8080  175.2790  144.9020 C   0  0  0  0  0  0  0  0  0  0  0  0
  190.9110  171.6350  140.7070 C   0  0  2  0  0  3  0  0  0  0  0  0
  188.7650  175.9180  142.8830 N   0  0  0  0  0  0  0  0  0  0  0  0
  193.9120  174.1670  145.4150 C   0  0  0  0  0  0  0  0  0  0  0  0
  190.7390  175.0680  144.0350 C   0  0  0  0  0  0  0  0  0  0  0  0
  192.7160  174.2590  144.6710 C   0  0  0  0  0  0  0  0  0  0  0  0
  189.4760  175.8220  143.9690 C   0  0  0  0  0  0  0  0  0  0  0  0
  194.1520  175.1360  146.3980 C   0  0  0  0  0  3  0  0  0  0  0  0
  190.5890  172.6480  139.5870 C   0  0  0  0  0  2  0  0  0  0  0  0
  192.2590  173.4320  143.7020 N   0  0  0  0  0  0  0  0  0  0  0  0
  192.9290  171.1190  144.1340 C   0  0  0  0  0  2  0  0  0  0  0  0
  191.1720  177.3680  146.1540 N   0  0  0  0  0  2  0  0  0  0  0  0
  193.2350  176.1730  146.6250 C   0  0  0  0  0  3  0  0  0  0  0  0
  192.9400  172.2700  143.1360 C   0  0  0  0  0  2  0  0  0  0  0  0
  189.4430  173.6150  139.9190 C   0  0  2  0  0  3  0  0  0  0  0  0
  188.9170  175.2890  141.6000 C   0  0  0  0  0  3  0  0  0  0  0  0
  192.0530  176.2710  145.8770 C   0  0  0  0  0  0  0  0  0  0  0  0
  191.0520  173.9260  143.3180 C   0  0  0  0  0  0  0  0  0  0  0  0
  194.9310  173.0900  145.2270 C   0  0  0  0  0  2  0  0  0  0  0  0
  189.0780  176.6230  145.1760 C   0  0  1  0  0  3  0  0  0  0  0  0
  194.2260  170.8950  144.6100 O   0  0  0  0  0  0  0  0  0  0  0  0
  189.5580  174.1490  141.3240 C   0  0  0  0  0  0  0  0  0  0  0  0
  190.2040  173.3380  142.3180 N   0  0  0  0  0  0  0  0  0  0  0  0
  190.0360  177.7810  145.3480 C   0  0  0  0  0  2  0  0  0  0  0  0
  186.6490  176.4470  146.1330 C   0  0  0  0  0  2  0  0  0  0  0  0
  187.6460  177.0750  145.1760 C   0  0  0  0  0  0  0  0  0  0  0  0
  187.3050  178.0830  144.3690 C   0  0  0  0  0  3  0  0  0  0  0  0
  185.6250  179.5520  143.5880 O   0  0  0  0  0  0  0  0  0  0  0  0
  184.9050  177.9470  145.1660 C   0  0  0  0  0  3  0  0  0  0  0  0
  185.9270  178.5860  144.3350 C   0  0  0  0  0  0  0  0  0  0  0  0
  185.2330  176.9490  145.9870 C   0  0  0  0  0  3  0  0  0  0  0  0
  188.1230  172.9410  139.6950 C   0  0  0  0  0  3  0  0  0  0  0  0
  187.9680  172.1740  138.7590 O   0  0  0  0  0  0  0  0  0  0  0  0
  190.8230  169.4700  141.4350 C   0  0  0  0  0  1  0  0  0  0  0  0
  190.8480  170.2880  140.2940 O   0  0  0  0  0  0  0  0  0  0  0  0
  1 25  1  0  0  0  0
  3 19  1  0  0  0  0
  4 37  1  6  0  0  0
  4  1  1  0  0  0  0
  5  9  2  0  0  0  0
  6 10  2  0  0  0  0
  7  3  1  0  0  0  0
  8  3  2  0  0  0  0
  8  6  1  0  0  0  0
  9  7  1  0  0  0  0
  9 22  1  0  0  0  0
 10 15  1  0  0  0  0
 11 17  1  0  0  0  0
 11  4  1  0  0  0  0
 12  8  1  0  0  0  0
 13 23  1  0  0  0  0
 16 12  1  0  0  0  0
 16 13  1  0  0  0  0
 17 34  1  1  0  0  0
 17 24  1  0  0  0  0
 18  5  1  0  0  0  0
 19 14  1  0  0  0  0
 19 15  2  0  0  0  0
 20 12  1  0  0  0  0
 20  7  2  0  0  0  0
 21  6  1  0  0  0  0
 21  2  1  0  0  0  0
 22 28  1  6  0  0  0
 22 26  1  0  0  0  0
 23  2  1  0  0  0  0
 24 18  2  0  0  0  0
 24 25  1  0  0  0  0
 25 20  1  0  0  0  0
 26 14  1  0  0  0  0
 28 27  1  0  0  0  0
 29 28  2  0  0  0  0
 30 32  2  0  0  0  0
 31 33  2  0  0  0  0
 32 29  1  0  0  0  0
 32 31  1  0  0  0  0
 33 27  1  0  0  0  0
 35 34  2  0  0  0  0
 37 36  1  0  0  0  0
M  END
>  <MODEL>
2

>  <REMARK>
 VINA RESULT:      -8.4      2.320      7.715
  Name = 
  3 active torsions:
  status: ('A' for Active; 'I' for Inactive)
    1  A    between atoms: C_5  and  O_23
    2  A    between atoms: C_6  and  C_31
    3  A    between atoms: C_11  and  C_26
                            x       y       z     vdW  Elec       q    Type
                         _______ _______ _______ _____ _____    ______ ____

>  <TORSDO>
F 3

$$$$
=
 OpenBabel11052419523D

 37 43  0  0  1  0  0  0  0  0999 V2000
  189.5630  174.2750  140.5540 C   0  0  0  0  0  2  0  0  0  0  0  0
  186.4270  177.9020  143.2940 C   0  0  0  0  0  2  0  0  0  0  0  0
  189.9410  175.7680  144.9760 C   0  0  0  0  0  0  0  0  0  0  0  0
  188.5970  173.1380  140.1850 C   0  0  2  0  0  3  0  0  0  0  0  0
  192.5630  173.5250  143.6200 N   0  0  0  0  0  0  0  0  0  0  0  0
  187.7100  176.7390  145.0660 C   0  0  0  0  0  0  0  0  0  0  0  0
  190.6690  174.9900  144.0790 C   0  0  0  0  0  0  0  0  0  0  0  0
  188.6910  175.9610  144.4130 C   0  0  0  0  0  0  0  0  0  0  0  0
  192.0860  174.6030  144.1740 C   0  0  0  0  0  0  0  0  0  0  0  0
  188.0420  177.3150  146.2990 C   0  0  0  0  0  3  0  0  0  0  0  0
  189.0590  171.7140  140.5670 C   0  0  0  0  0  2  0  0  0  0  0  0
  188.6120  175.3360  143.2150 N   0  0  0  0  0  0  0  0  0  0  0  0
  187.2150  176.6030  141.6550 C   0  0  0  0  0  2  0  0  0  0  0  0
  191.5390  176.1530  146.8820 N   0  0  0  0  0  2  0  0  0  0  0  0
  189.3060  177.1130  146.8710 C   0  0  0  0  0  3  0  0  0  0  0  0
  187.4500  175.2590  142.3320 C   0  0  0  0  0  2  0  0  0  0  0  0
  190.5250  171.6250  141.0160 C   0  0  2  0  0  3  0  0  0  0  0  0
  191.9480  172.5630  142.7480 C   0  0  0  0  0  3  0  0  0  0  0  0
  190.2750  176.3300  146.2280 C   0  0  0  0  0  0  0  0  0  0  0  0
  189.8210  174.7490  143.0120 C   0  0  0  0  0  0  0  0  0  0  0  0
  186.3450  176.9970  144.5150 C   0  0  0  0  0  2  0  0  0  0  0  0
  192.9750  175.4200  145.0660 C   0  0  1  0  0  3  0  0  0  0  0  0
  186.0440  177.1840  142.1550 O   0  0  0  0  0  0  0  0  0  0  0  0
  190.8860  172.7460  141.9570 C   0  0  0  0  0  0  0  0  0  0  0  0
  190.1810  173.9920  141.8450 N   0  0  0  0  0  0  0  0  0  0  0  0
  192.5740  175.2040  146.5090 C   0  0  0  0  0  2  0  0  0  0  0  0
  195.1620  175.8840  143.7060 C   0  0  0  0  0  2  0  0  0  0  0  0
  194.4450  175.1950  144.8540 C   0  0  0  0  0  0  0  0  0  0  0  0
  195.0990  174.4380  145.7380 C   0  0  0  0  0  3  0  0  0  0  0  0
  197.1480  173.5000  146.4530 O   0  0  0  0  0  0  0  0  0  0  0  0
  197.2590  174.7540  144.4530 C   0  0  0  0  0  3  0  0  0  0  0  0
  196.5390  174.1940  145.5990 C   0  0  0  0  0  0  0  0  0  0  0  0
  196.6220  175.5240  143.5700 C   0  0  0  0  0  3  0  0  0  0  0  0
  191.4280  171.6020  139.8190 C   0  0  0  0  0  3  0  0  0  0  0  0
  191.0870  171.0350  138.7940 O   0  0  0  0  0  0  0  0  0  0  0  0
  189.0040  173.8960  138.0680 C   0  0  0  0  0  1  0  0  0  0  0  0
  188.0700  173.2360  138.8810 O   0  0  0  0  0  0  0  0  0  0  0  0
  1 25  1  0  0  0  0
  2 21  1  0  0  0  0
  3 19  1  0  0  0  0
  4 37  1  6  0  0  0
  4  1  1  0  0  0  0
  4 11  1  0  0  0  0
  5  9  2  0  0  0  0
  6 10  2  0  0  0  0
  7  9  1  0  0  0  0
  7  3  1  0  0  0  0
  8  3  2  0  0  0  0
  8  6  1  0  0  0  0
  9 22  1  0  0  0  0
 10 15  1  0  0  0  0
 11 17  1  0  0  0  0
 12  8  1  0  0  0  0
 13 23  1  0  0  0  0
 13 16  1  0  0  0  0
 16 12  1  0  0  0  0
 17 34  1  6  0  0  0
 17 24  1  0  0  0  0
 18  5  1  0  0  0  0
 19 15  2  0  0  0  0
 19 14  1  0  0  0  0
 20 12  1  0  0  0  0
 20  7  2  0  0  0  0
 21  6  1  0  0  0  0
 22 28  1  1  0  0  0
 22 26  1  0  0  0  0
 23  2  1  0  0  0  0
 24 18  2  0  0  0  0
 25 24  1  0  0  0  0
 25 20  1  0  0  0  0
 26 14  1  0  0  0  0
 27 28  1  0  0  0  0
 28 29  2  0  0  0  0
 31 32  1  0  0  0  0
 32 29  1  0  0  0  0
 32 30  2  0  0  0  0
 33 27  1  0  0  0  0
 33 31  2  0  0  0  0
 35 34  2  0  0  0  0
 36 37  1  0  0  0  0
M  END
>  <MODEL>
3

>  <REMARK>
 VINA RESULT:      -8.4      2.397      6.924
  Name = 
  3 active torsions:
  status: ('A' for Active; 'I' for Inactive)
    1  A    between atoms: C_5  and  O_23
    2  A    between atoms: C_6  and  C_31
    3  A    between atoms: C_11  and  C_26
                            x       y       z     vdW  Elec       q    Type
                         _______ _______ _______ _____ _____    ______ ____

>  <TORSDO>
F 3

$$$$
=
 OpenBabel11052419523D

 37 43  0  0  1  0  0  0  0  0999 V2000
  189.2780  174.4650  140.6020 C   0  0  0  0  0  2  0  0  0  0  0  0
  186.1070  178.1280  143.2520 C   0  0  0  0  0  2  0  0  0  0  0  0
  189.5660  175.9770  145.0240 C   0  0  0  0  0  0  0  0  0  0  0  0
  188.3120  173.3330  140.2170 C   0  0  2  0  0  3  0  0  0  0  0  0
  192.2020  173.7080  143.7390 N   0  0  0  0  0  0  0  0  0  0  0  0
  187.3410  176.9640  145.0590 C   0  0  0  0  0  0  0  0  0  0  0  0
  190.3090  175.1900  144.1480 C   0  0  0  0  0  0  0  0  0  0  0  0
  188.3310  176.1760  144.4320 C   0  0  0  0  0  0  0  0  0  0  0  0
  191.7210  174.7920  144.2760 C   0  0  0  0  0  0  0  0  0  0  0  0
  187.6490  177.5440  146.2960 C   0  0  0  0  0  3  0  0  0  0  0  0
  188.7550  171.9080  140.6150 C   0  0  0  0  0  2  0  0  0  0  0  0
  188.2740  175.5460  143.2350 N   0  0  0  0  0  0  0  0  0  0  0  0
  186.9230  176.8150  141.6380 C   0  0  0  0  0  2  0  0  0  0  0  0
  191.1230  176.3600  146.9640 N   0  0  0  0  0  2  0  0  0  0  0  0
  188.8990  177.3360  146.8980 C   0  0  0  0  0  3  0  0  0  0  0  0
  187.1330  175.4730  142.3270 C   0  0  0  0  0  2  0  0  0  0  0  0
  190.2100  171.8100  141.0980 C   0  0  2  0  0  3  0  0  0  0  0  0
  191.6000  172.7470  142.8580 C   0  0  0  0  0  3  0  0  0  0  0  0
  189.8760  176.5430  146.2810 C   0  0  0  0  0  0  0  0  0  0  0  0
  189.4830  174.9490  143.0630 C   0  0  0  0  0  0  0  0  0  0  0  0
  185.9910  177.2290  144.4760 C   0  0  0  0  0  2  0  0  0  0  0  0
  192.5950  175.6080  145.1850 C   0  0  1  0  0  3  0  0  0  0  0  0
  185.7450  177.4070  142.1090 O   0  0  0  0  0  0  0  0  0  0  0  0
  190.5570  172.9330  142.0420 C   0  0  0  0  0  0  0  0  0  0  0  0
  189.8650  174.1840  141.9080 N   0  0  0  0  0  0  0  0  0  0  0  0
  192.1600  175.4010  146.6190 C   0  0  0  0  0  2  0  0  0  0  0  0
  194.7570  174.2550  145.7710 C   0  0  0  0  0  2  0  0  0  0  0  0
  194.0670  175.3710  145.0070 C   0  0  0  0  0  0  0  0  0  0  0  0
  194.7210  176.1170  144.1130 C   0  0  0  0  0  3  0  0  0  0  0  0
  196.7530  176.6170  143.0140 O   0  0  0  0  0  0  0  0  0  0  0  0
  196.8880  174.9280  144.6600 C   0  0  0  0  0  3  0  0  0  0  0  0
  196.1550  175.9240  143.8770 C   0  0  0  0  0  0  0  0  0  0  0  0
  196.2470  174.1650  145.5460 C   0  0  0  0  0  3  0  0  0  0  0  0
  191.1390  171.7750  139.9230 C   0  0  0  0  0  3  0  0  0  0  0  0
  190.7470  171.3970  138.8310 O   0  0  0  0  0  0  0  0  0  0  0  0
  188.7230  174.1740  138.1320 C   0  0  0  0  0  1  0  0  0  0  0  0
  187.8160  173.4290  138.9000 O   0  0  0  0  0  0  0  0  0  0  0  0
  1 25  1  0  0  0  0
  2 21  1  0  0  0  0
  3 19  1  0  0  0  0
  4 37  1  6  0  0  0
  4  1  1  0  0  0  0
  4 11  1  0  0  0  0
  5  9  2  0  0  0  0
  6 10  2  0  0  0  0
  7  9  1  0  0  0  0
  7  3  1  0  0  0  0
  8  3  2  0  0  0  0
  8  6  1  0  0  0  0
  9 22  1  0  0  0  0
 10 15  1  0  0  0  0
 11 17  1  0  0  0  0
 12  8  1  0  0  0  0
 13 23  1  0  0  0  0
 13 16  1  0  0  0  0
 16 12  1  0  0  0  0
 17 34  1  6  0  0  0
 17 24  1  0  0  0  0
 18  5  1  0  0  0  0
 19 15  2  0  0  0  0
 19 14  1  0  0  0  0
 20 12  1  0  0  0  0
 20  7  2  0  0  0  0
 21  6  1  0  0  0  0
 22 28  1  1  0  0  0
 22 26  1  0  0  0  0
 23  2  1  0  0  0  0
 24 18  2  0  0  0  0
 25 24  1  0  0  0  0
 25 20  1  0  0  0  0
 26 14  1  0  0  0  0
 28 27  1  0  0  0  0
 29 28  2  0  0  0  0
 30 32  2  0  0  0  0
 31 33  2  0  0  0  0
 32 29  1  0  0  0  0
 32 31  1  0  0  0  0
 33 27  1  0  0  0  0
 35 34  2  0  0  0  0
 36 37  1  0  0  0  0
M  END
>  <MODEL>
4

>  <REMARK>
 VINA RESULT:      -8.2      2.412      6.640
  Name = 
  3 active torsions:
  status: ('A' for Active; 'I' for Inactive)
    1  A    between atoms: C_5  and  O_23
    2  A    between atoms: C_6  and  C_31
    3  A    between atoms: C_11  and  C_26
                            x       y       z     vdW  Elec       q    Type
                         _______ _______ _______ _____ _____    ______ ____

>  <TORSDO>
F 3

$$$$
=
 OpenBabel11052419523D

 37 43  0  0  1  0  0  0  0  0999 V2000
  190.3270  171.7420  142.0800 C   0  0  0  0  0  2  0  0  0  0  0  0
  194.4080  171.6270  145.8000 C   0  0  0  0  0  2  0  0  0  0  0  0
  191.9440  175.1870  144.8080 C   0  0  0  0  0  0  0  0  0  0  0  0
  191.0160  171.4010  140.7490 C   0  0  2  0  0  3  0  0  0  0  0  0
  188.9550  175.8260  142.7100 N   0  0  0  0  0  0  0  0  0  0  0  0
  194.0070  174.0400  145.4030 C   0  0  0  0  0  0  0  0  0  0  0  0
  190.8840  174.9710  143.9310 C   0  0  0  0  0  0  0  0  0  0  0  0
  192.8270  174.1350  144.6350 C   0  0  0  0  0  0  0  0  0  0  0  0
  189.6440  175.7560  143.8120 C   0  0  0  0  0  0  0  0  0  0  0  0
  194.2570  175.0410  146.3500 C   0  0  0  0  0  3  0  0  0  0  0  0
  190.7420  172.3760  139.5820 C   0  0  0  0  0  2  0  0  0  0  0  0
  192.3630  173.2810  143.6920 N   0  0  0  0  0  0  0  0  0  0  0  0
  192.9600  170.9700  144.2290 C   0  0  0  0  0  2  0  0  0  0  0  0
  191.3460  177.3420  145.9630 N   0  0  0  0  0  2  0  0  0  0  0  0
  193.3660  176.1110  146.5190 C   0  0  0  0  0  3  0  0  0  0  0  0
  193.0210  172.0790  143.1860 C   0  0  0  0  0  2  0  0  0  0  0  0
  189.6180  173.3870  139.8540 C   0  0  2  0  0  3  0  0  0  0  0  0
  189.1110  175.1420  141.4570 C   0  0  0  0  0  3  0  0  0  0  0  0
  192.2000  176.2110  145.7470 C   0  0  0  0  0  0  0  0  0  0  0  0
  191.1770  173.7920  143.2670 C   0  0  0  0  0  0  0  0  0  0  0  0
  194.9990  172.9290  145.2780 C   0  0  0  0  0  2  0  0  0  0  0  0
  189.2490  176.6160  144.9780 C   0  0  1  0  0  3  0  0  0  0  0  0
  194.2430  170.7310  144.7370 O   0  0  0  0  0  0  0  0  0  0  0  0
  189.7240  173.9740  141.2390 C   0  0  0  0  0  0  0  0  0  0  0  0
  190.3300  173.1880  142.2760 N   0  0  0  0  0  0  0  0  0  0  0  0
  190.2360  177.7530  145.1200 C   0  0  0  0  0  2  0  0  0  0  0  0
  187.3940  178.0770  143.8510 C   0  0  0  0  0  2  0  0  0  0  0  0
  187.8300  177.1070  144.9340 C   0  0  0  0  0  0  0  0  0  0  0  0
  186.9650  176.6110  145.8220 C   0  0  0  0  0  3  0  0  0  0  0  0
  184.7510  176.5400  146.6470 O   0  0  0  0  0  0  0  0  0  0  0  0
  185.1110  178.0430  144.8610 C   0  0  0  0  0  3  0  0  0  0  0  0
  185.5610  177.0340  145.8210 C   0  0  0  0  0  0  0  0  0  0  0  0
  185.9600  178.5370  143.9580 C   0  0  0  0  0  3  0  0  0  0  0  0
  188.2830  172.7410  139.6340 C   0  0  0  0  0  3  0  0  0  0  0  0
  187.9750  172.3100  138.5350 O   0  0  0  0  0  0  0  0  0  0  0  0
  190.8060  169.2740  141.5600 C   0  0  0  0  0  1  0  0  0  0  0  0
  190.9220  170.0400  140.3890 O   0  0  0  0  0  0  0  0  0  0  0  0
  1 25  1  0  0  0  0
  3 19  1  0  0  0  0
  4 37  1  6  0  0  0
  4  1  1  0  0  0  0
  5  9  2  0  0  0  0
  6 10  2  0  0  0  0
  7  3  1  0  0  0  0
  8  3  2  0  0  0  0
  8  6  1  0  0  0  0
  9  7  1  0  0  0  0
  9 22  1  0  0  0  0
 10 15  1  0  0  0  0
 11 17  1  0  0  0  0
 11  4  1  0  0  0  0
 12  8  1  0  0  0  0
 13 23  1  0  0  0  0
 16 12  1  0  0  0  0
 16 13  1  0  0  0  0
 17 34  1  1  0  0  0
 17 24  1  0  0  0  0
 18  5  1  0  0  0  0
 19 14  1  0  0  0  0
 19 15  2  0  0  0  0
 20 12  1  0  0  0  0
 20  7  2  0  0  0  0
 21  6  1  0  0  0  0
 21  2  1  0  0  0  0
 22 28  1  6  0  0  0
 22 26  1  0  0  0  0
 23  2  1  0  0  0  0
 24 18  2  0  0  0  0
 24 25  1  0  0  0  0
 25 20  1  0  0  0  0
 26 14  1  0  0  0  0
 27 33  1  0  0  0  0
 27 28  1  0  0  0  0
 28 29  2  0  0  0  0
 31 32  1  0  0  0  0
 32 29  1  0  0  0  0
 32 30  2  0  0  0  0
 33 31  2  0  0  0  0
 35 34  2  0  0  0  0
 37 36  1  0  0  0  0
M  END
>  <MODEL>
5

>  <REMARK>
 VINA RESULT:      -8.0      2.298      7.828
  Name = 
  3 active torsions:
  status: ('A' for Active; 'I' for Inactive)
    1  A    between atoms: C_5  and  O_23
    2  A    between atoms: C_6  and  C_31
    3  A    between atoms: C_11  and  C_26
                            x       y       z     vdW  Elec       q    Type
                         _______ _______ _______ _____ _____    ______ ____

>  <TORSDO>
F 3

$$$$
=
 OpenBabel11052419523D

 37 43  0  0  1  0  0  0  0  0999 V2000
  193.0780  176.4320  144.4400 C   0  0  0  0  0  2  0  0  0  0  0  0
  193.3750  174.4170  139.3070 C   0  0  0  0  0  2  0  0  0  0  0  0
  189.6640  174.7200  141.7290 C   0  0  0  0  0  0  0  0  0  0  0  0
  193.9700  175.4950  145.2700 C   0  0  2  0  0  3  0  0  0  0  0  0
  188.7650  176.2090  145.0030 N   0  0  0  0  0  0  0  0  0  0  0  0
  191.1680  173.6570  140.1370 C   0  0  0  0  0  0  0  0  0  0  0  0
  189.7860  175.3740  142.9530 C   0  0  0  0  0  0  0  0  0  0  0  0
  190.9390  174.3290  141.3570 C   0  0  0  0  0  0  0  0  0  0  0  0
  188.7290  176.0650  143.7100 C   0  0  0  0  0  0  0  0  0  0  0  0
  190.0660  173.4010  139.3110 C   0  0  0  0  0  3  0  0  0  0  0  0
  193.3270  174.9100  146.5460 C   0  0  0  0  0  2  0  0  0  0  0  0
  191.8410  174.7070  142.2940 N   0  0  0  0  0  0  0  0  0  0  0  0
  193.9750  175.3140  141.2640 C   0  0  0  0  0  2  0  0  0  0  0  0
  187.1960  174.8010  141.2410 N   0  0  0  0  0  2  0  0  0  0  0  0
  188.7740  173.7920  139.6930 C   0  0  0  0  0  3  0  0  0  0  0  0
  193.2770  174.4400  142.2980 C   0  0  0  0  0  2  0  0  0  0  0  0
  191.9900  175.5580  146.9330 C   0  0  2  0  0  3  0  0  0  0  0  0
  189.7870  175.8850  145.9590 C   0  0  0  0  0  3  0  0  0  0  0  0
  188.5460  174.4490  140.9100 C   0  0  0  0  0  0  0  0  0  0  0  0
  191.1350  175.3470  143.2640 C   0  0  0  0  0  0  0  0  0  0  0  0
  192.5150  173.2140  139.6670 C   0  0  0  0  0  2  0  0  0  0  0  0
  187.4990  176.4890  142.9610 C   0  0  1  0  0  3  0  0  0  0  0  0
  194.4390  174.5160  140.2100 O   0  0  0  0  0  0  0  0  0  0  0  0
  191.0980  175.7490  145.7330 C   0  0  0  0  0  0  0  0  0  0  0  0
  191.7070  175.9320  144.4450 N   0  0  0  0  0  0  0  0  0  0  0  0
  186.7220  175.2620  142.5350 C   0  0  0  0  0  2  0  0  0  0  0  0
  186.4750  178.8880  143.1690 C   0  0  0  0  0  2  0  0  0  0  0  0
  186.6340  177.4730  143.6950 C   0  0  0  0  0  0  0  0  0  0  0  0
  185.9640  177.0430  144.7680 C   0  0  0  0  0  3  0  0  0  0  0  0
  184.4420  177.5240  146.5120 O   0  0  0  0  0  0  0  0  0  0  0  0
  184.9770  179.3500  145.1110 C   0  0  0  0  0  3  0  0  0  0  0  0
  185.0870  177.9480  145.5190 C   0  0  0  0  0  0  0  0  0  0  0  0
  185.6280  179.7900  144.0330 C   0  0  0  0  0  3  0  0  0  0  0  0
  192.2350  176.8540  147.6450 C   0  0  0  0  0  3  0  0  0  0  0  0
  191.5660  177.1650  148.6170 O   0  0  0  0  0  0  0  0  0  0  0  0
  195.7250  176.5590  144.2630 C   0  0  0  0  0  1  0  0  0  0  0  0
  195.2820  175.9770  145.4610 O   0  0  0  0  0  0  0  0  0  0  0  0
  1 25  1  0  0  0  0
  1  4  1  0  0  0  0
  2 21  1  0  0  0  0
  2 23  1  0  0  0  0
  3  7  1  0  0  0  0
  4 37  1  1  0  0  0
  4 11  1  0  0  0  0
  5 18  1  0  0  0  0
  6  8  2  0  0  0  0
  7 20  2  0  0  0  0
  7  9  1  0  0  0  0
  8  3  1  0  0  0  0
  8 12  1  0  0  0  0
  9  5  2  0  0  0  0
 10 15  2  0  0  0  0
 10  6  1  0  0  0  0
 11 17  1  0  0  0  0
 12 16  1  0  0  0  0
 12 20  1  0  0  0  0
 13 16  1  0  0  0  0
 14 26  1  0  0  0  0
 15 19  1  0  0  0  0
 17 34  1  6  0  0  0
 19 14  1  0  0  0  0
 19  3  2  0  0  0  0
 20 25  1  0  0  0  0
 21  6  1  0  0  0  0
 22 28  1  1  0  0  0
 22  9  1  0  0  0  0
 23 13  1  0  0  0  0
 24 18  2  0  0  0  0
 24 17  1  0  0  0  0
 25 24  1  0  0  0  0
 26 22  1  0  0  0  0
 27 28  1  0  0  0  0
 27 33  1  0  0  0  0
 28 29  2  0  0  0  0
 29 32  1  0  0  0  0
 31 32  1  0  0  0  0
 32 30  2  0  0  0  0
 33 31  2  0  0  0  0
 34 35  2  0  0  0  0
 36 37  1  0  0  0  0
M  END
>  <MODEL>
6

>  <REMARK>
 VINA RESULT:      -7.9      2.131      6.610
  Name = 
  3 active torsions:
  status: ('A' for Active; 'I' for Inactive)
    1  A    between atoms: C_5  and  O_23
    2  A    between atoms: C_6  and  C_31
    3  A    between atoms: C_11  and  C_26
                            x       y       z     vdW  Elec       q    Type
                         _______ _______ _______ _____ _____    ______ ____

>  <TORSDO>
F 3

$$$$
=
 OpenBabel11052419523D

 37 43  0  0  1  0  0  0  0  0999 V2000
  190.5970  175.2900  146.6220 C   0  0  0  0  0  2  0  0  0  0  0  0
  185.7610  177.8570  145.9000 C   0  0  0  0  0  2  0  0  0  0  0  0
  188.2350  176.0950  142.6600 C   0  0  0  0  0  0  0  0  0  0  0  0
  191.5130  176.3660  147.2260 C   0  0  2  0  0  3  0  0  0  0  0  0
  191.3150  174.0360  142.5140 N   0  0  0  0  0  0  0  0  0  0  0  0
  186.7490  177.7610  143.6300 C   0  0  0  0  0  0  0  0  0  0  0  0
  189.3600  175.3830  143.0690 C   0  0  0  0  0  0  0  0  0  0  0  0
  187.8780  176.9180  143.7140 C   0  0  0  0  0  0  0  0  0  0  0  0
  190.0530  174.3060  142.3430 C   0  0  0  0  0  0  0  0  0  0  0  0
  185.9970  177.7360  142.4490 C   0  0  0  0  0  3  0  0  0  0  0  0
  192.8740  176.5620  146.5220 C   0  0  0  0  0  2  0  0  0  0  0  0
  188.7300  176.7500  144.7530 N   0  0  0  0  0  0  0  0  0  0  0  0
  187.5660  176.9890  146.8910 C   0  0  0  0  0  2  0  0  0  0  0  0
  187.8160  175.2730  140.3180 N   0  0  0  0  0  2  0  0  0  0  0  0
  186.3640  176.9070  141.3790 C   0  0  0  0  0  3  0  0  0  0  0  0
  188.7260  177.4660  146.0260 C   0  0  0  0  0  2  0  0  0  0  0  0
  193.2140  175.4760  145.4910 C   0  0  2  0  0  3  0  0  0  0  0  0
  192.2730  174.5640  143.4440 C   0  0  0  0  0  3  0  0  0  0  0  0
  187.4920  176.0790  141.4580 C   0  0  0  0  0  0  0  0  0  0  0  0
  189.6300  175.8110  144.3580 C   0  0  0  0  0  0  0  0  0  0  0  0
  186.3000  178.6670  144.7300 C   0  0  0  0  0  2  0  0  0  0  0  0
  189.2930  173.5920  141.2620 C   0  0  1  0  0  3  0  0  0  0  0  0
  186.6110  178.0070  147.0020 O   0  0  0  0  0  0  0  0  0  0  0  0
  192.0260  175.1430  144.6240 C   0  0  0  0  0  0  0  0  0  0  0  0
  190.7080  175.3140  145.1670 N   0  0  0  0  0  0  0  0  0  0  0  0
  189.0530  174.5400  140.1070 C   0  0  0  0  0  2  0  0  0  0  0  0
  190.0890  171.1550  141.7860 C   0  0  0  0  0  2  0  0  0  0  0  0
  189.9190  172.3050  140.8090 C   0  0  0  0  0  0  0  0  0  0  0  0
  190.2490  172.1850  139.5200 C   0  0  0  0  0  3  0  0  0  0  0  0
  191.1290  170.8380  137.7880 O   0  0  0  0  0  0  0  0  0  0  0  0
  191.1230  169.8440  139.9310 C   0  0  0  0  0  3  0  0  0  0  0  0
  190.8470  170.9470  139.0090 C   0  0  0  0  0  0  0  0  0  0  0  0
  190.7860  169.9430  141.2180 C   0  0  0  0  0  3  0  0  0  0  0  0
  193.7440  174.2580  146.1850 C   0  0  0  0  0  3  0  0  0  0  0  0
  194.7350  173.6840  145.7630 O   0  0  0  0  0  0  0  0  0  0  0  0
  191.5630  177.6290  149.1310 C   0  0  0  0  0  1  0  0  0  0  0  0
  191.6000  176.3170  148.6330 O   0  0  0  0  0  0  0  0  0  0  0  0
  1  4  1  0  0  0  0
  2 23  1  0  0  0  0
  3  7  1  0  0  0  0
  3  8  1  0  0  0  0
  4 37  1  1  0  0  0
  5 18  1  0  0  0  0
  6  8  2  0  0  0  0
  6 21  1  0  0  0  0
  7 20  2  0  0  0  0
  8 12  1  0  0  0  0
  9  5  2  0  0  0  0
  9  7  1  0  0  0  0
 10  6  1  0  0  0  0
 11  4  1  0  0  0  0
 12 16  1  0  0  0  0
 13 23  1  0  0  0  0
 14 19  1  0  0  0  0
 15 19  1  0  0  0  0
 15 10  2  0  0  0  0
 16 13  1  0  0  0  0
 17 34  1  1  0  0  0
 17 11  1  0  0  0  0
 18 24  2  0  0  0  0
 19  3  2  0  0  0  0
 20 12  1  0  0  0  0
 20 25  1  0  0  0  0
 21  2  1  0  0  0  0
 22 28  1  6  0  0  0
 22  9  1  0  0  0  0
 24 25  1  0  0  0  0
 24 17  1  0  0  0  0
 25  1  1  0  0  0  0
 26 14  1  0  0  0  0
 26 22  1  0  0  0  0
 28 27  1  0  0  0  0
 29 28  2  0  0  0  0
 30 32  2  0  0  0  0
 31 33  2  0  0  0  0
 32 29  1  0  0  0  0
 32 31  1  0  0  0  0
 33 27  1  0  0  0  0
 35 34  2  0  0  0  0
 37 36  1  0  0  0  0
M  END
>  <MODEL>
7

>  <REMARK>
 VINA RESULT:      -7.7      1.527      1.996
  Name = 
  3 active torsions:
  status: ('A' for Active; 'I' for Inactive)
    1  A    between atoms: C_5  and  O_23
    2  A    between atoms: C_6  and  C_31
    3  A    between atoms: C_11  and  C_26
                            x       y       z     vdW  Elec       q    Type
                         _______ _______ _______ _____ _____    ______ ____

>  <TORSDO>
F 3

$$$$
=
 OpenBabel11052419523D

 37 43  0  0  1  0  0  0  0  0999 V2000
  193.7550  174.5430  144.3520 C   0  0  0  0  0  2  0  0  0  0  0  0
  189.2870  176.5870  146.8740 C   0  0  0  0  0  2  0  0  0  0  0  0
  189.4850  175.3570  142.6100 C   0  0  0  0  0  0  0  0  0  0  0  0
  194.7960  175.6700  144.4470 C   0  0  2  0  0  3  0  0  0  0  0  0
  191.9980  173.6780  140.4620 N   0  0  0  0  0  0  0  0  0  0  0  0
  188.7650  176.7680  144.4580 C   0  0  0  0  0  0  0  0  0  0  0  0
  190.6710  174.7500  142.2050 C   0  0  0  0  0  0  0  0  0  0  0  0
  189.7710  176.0550  143.7710 C   0  0  0  0  0  0  0  0  0  0  0  0
  190.8620  173.8140  141.0840 C   0  0  0  0  0  0  0  0  0  0  0  0
  187.4660  176.7430  143.9340 C   0  0  0  0  0  3  0  0  0  0  0  0
  195.4760  176.0710  143.1200 C   0  0  0  0  0  2  0  0  0  0  0  0
  191.0770  175.9120  144.0980 N   0  0  0  0  0  0  0  0  0  0  0  0
  191.3720  175.8610  146.5270 C   0  0  0  0  0  2  0  0  0  0  0  0
  187.8180  174.6630  140.8570 N   0  0  0  0  0  2  0  0  0  0  0  0
  187.1800  176.0400  142.7540 C   0  0  0  0  0  3  0  0  0  0  0  0
  191.7810  176.5290  145.2190 C   0  0  0  0  0  2  0  0  0  0  0  0
  195.2030  175.1080  141.9550 C   0  0  2  0  0  3  0  0  0  0  0  0
  193.2910  174.2440  140.7290 C   0  0  0  0  0  3  0  0  0  0  0  0
  188.1820  175.3430  142.0650 C   0  0  0  0  0  0  0  0  0  0  0  0
  191.6220  175.1120  143.1440 C   0  0  0  0  0  0  0  0  0  0  0  0
  188.9980  177.5360  145.7190 C   0  0  0  0  0  2  0  0  0  0  0  0
  189.6510  173.0980  140.5590 C   0  0  1  0  0  3  0  0  0  0  0  0
  190.6120  176.7530  147.2930 O   0  0  0  0  0  0  0  0  0  0  0  0
  193.7520  174.7040  141.8960 C   0  0  0  0  0  0  0  0  0  0  0  0
  192.9930  174.6840  143.1160 N   0  0  0  0  0  0  0  0  0  0  0  0
  188.7340  174.0930  139.8820 C   0  0  0  0  0  2  0  0  0  0  0  0
  190.4810  170.6330  140.2710 C   0  0  0  0  0  2  0  0  0  0  0  0
  189.9590  171.9270  139.6710 C   0  0  0  0  0  0  0  0  0  0  0  0
  189.6920  172.0380  138.3670 C   0  0  0  0  0  3  0  0  0  0  0  0
  189.6720  171.0340  136.2280 O   0  0  0  0  0  0  0  0  0  0  0  0
  190.5480  169.6890  137.9620 C   0  0  0  0  0  3  0  0  0  0  0  0
  189.9510  170.9240  137.4490 C   0  0  0  0  0  0  0  0  0  0  0  0
  190.8070  169.5580  139.2630 C   0  0  0  0  0  3  0  0  0  0  0  0
  196.1000  173.9110  142.0580 C   0  0  0  0  0  3  0  0  0  0  0  0
  197.2510  174.0290  142.4470 O   0  0  0  0  0  0  0  0  0  0  0  0
  195.8980  174.1630  145.7650 C   0  0  0  0  0  1  0  0  0  0  0  0
  195.6910  175.5310  145.5280 O   0  0  0  0  0  0  0  0  0  0  0  0
  1  4  1  0  0  0  0
  2 23  1  0  0  0  0
  3  8  1  0  0  0  0
  4 37  1  1  0  0  0
  5 18  1  0  0  0  0
  5  9  2  0  0  0  0
  6 21  1  0  0  0  0
  7  3  1  0  0  0  0
  7 20  2  0  0  0  0
  8 12  1  0  0  0  0
  8  6  2  0  0  0  0
  9  7  1  0  0  0  0
 10  6  1  0  0  0  0
 11  4  1  0  0  0  0
 12 16  1  0  0  0  0
 13 23  1  0  0  0  0
 14 19  1  0  0  0  0
 15 10  2  0  0  0  0
 16 13  1  0  0  0  0
 17 34  1  1  0  0  0
 17 11  1  0  0  0  0
 18 24  2  0  0  0  0
 19  3  2  0  0  0  0
 19 15  1  0  0  0  0
 20 12  1  0  0  0  0
 21  2  1  0  0  0  0
 22 28  1  6  0  0  0
 22  9  1  0  0  0  0
 24 17  1  0  0  0  0
 24 25  1  0  0  0  0
 25 20  1  0  0  0  0
 25  1  1  0  0  0  0
 26 22  1  0  0  0  0
 26 14  1  0  0  0  0
 28 27  1  0  0  0  0
 29 28  2  0  0  0  0
 30 32  2  0  0  0  0
 31 33  2  0  0  0  0
 32 31  1  0  0  0  0
 32 29  1  0  0  0  0
 33 27  1  0  0  0  0
 34 35  2  0  0  0  0
 37 36  1  0  0  0  0
M  END
>  <MODEL>
8

>  <REMARK>
 VINA RESULT:      -7.4      2.303      3.799
  Name = 
  3 active torsions:
  status: ('A' for Active; 'I' for Inactive)
    1  A    between atoms: C_5  and  O_23
    2  A    between atoms: C_6  and  C_31
    3  A    between atoms: C_11  and  C_26
                            x       y       z     vdW  Elec       q    Type
                         _______ _______ _______ _____ _____    ______ ____

>  <TORSDO>
F 3

$$$$
=
 OpenBabel11052419523D

 37 43  0  0  1  0  0  0  0  0999 V2000
  188.1290  176.0670  145.2490 C   0  0  0  0  0  2  0  0  0  0  0  0
  184.1990  178.0150  141.8940 C   0  0  0  0  0  2  0  0  0  0  0  0
  187.8160  175.7950  140.5850 C   0  0  0  0  0  0  0  0  0  0  0  0
  188.7040  177.3190  145.9300 C   0  0  2  0  0  3  0  0  0  0  0  0
  190.5800  174.0100  142.2950 N   0  0  0  0  0  0  0  0  0  0  0  0
  186.0970  177.5070  140.3850 C   0  0  0  0  0  0  0  0  0  0  0  0
  188.6190  175.2830  141.6010 C   0  0  0  0  0  0  0  0  0  0  0  0
  187.0460  176.7970  141.1510 C   0  0  0  0  0  0  0  0  0  0  0  0
  189.5360  174.1330  141.5260 C   0  0  0  0  0  0  0  0  0  0  0  0
  185.9540  177.1650  139.0340 C   0  0  0  0  0  3  0  0  0  0  0  0
  190.2410  177.4670  145.8750 C   0  0  0  0  0  2  0  0  0  0  0  0
  187.3370  176.9290  142.4670 N   0  0  0  0  0  0  0  0  0  0  0  0
  185.3440  177.5330  143.7510 C   0  0  0  0  0  2  0  0  0  0  0  0
  188.4710  174.4520  138.5590 N   0  0  0  0  0  2  0  0  0  0  0  0
  186.7400  176.1550  138.4600 C   0  0  0  0  0  3  0  0  0  0  0  0
  186.7810  177.9020  143.4030 C   0  0  0  0  0  2  0  0  0  0  0  0
  190.9790  176.2140  145.3820 C   0  0  2  0  0  3  0  0  0  0  0  0
  191.0320  174.8050  143.4020 C   0  0  0  0  0  3  0  0  0  0  0  0
  187.6910  175.4590  139.2190 C   0  0  0  0  0  0  0  0  0  0  0  0
  188.2940  176.0020  142.7390 C   0  0  0  0  0  0  0  0  0  0  0  0
  185.2260  178.5920  140.9300 C   0  0  0  0  0  2  0  0  0  0  0  0
  189.3230  173.1430  140.4180 C   0  0  1  0  0  3  0  0  0  0  0  0
  184.4680  178.4700  143.1900 O   0  0  0  0  0  0  0  0  0  0  0  0
  190.2980  175.6040  144.1830 C   0  0  0  0  0  0  0  0  0  0  0  0
  188.8810  175.7820  144.0320 N   0  0  0  0  0  0  0  0  0  0  0  0
  189.6510  173.7940  139.0920 C   0  0  0  0  0  2  0  0  0  0  0  0
  190.0570  171.1540  141.9530 C   0  0  0  0  0  2  0  0  0  0  0  0
  190.0530  171.8430  140.6000 C   0  0  0  0  0  0  0  0  0  0  0  0
  190.6250  171.2870  139.5280 C   0  0  0  0  0  3  0  0  0  0  0  0
  191.8490  169.4850  138.6110 O   0  0  0  0  0  0  0  0  0  0  0  0
  191.4550  169.3540  140.9370 C   0  0  0  0  0  3  0  0  0  0  0  0
  191.3360  170.0090  139.6330 C   0  0  0  0  0  0  0  0  0  0  0  0
  190.8770  169.8880  142.0130 C   0  0  0  0  0  3  0  0  0  0  0  0
  191.1100  175.2230  146.4990 C   0  0  0  0  0  3  0  0  0  0  0  0
  192.0200  175.3130  147.3070 O   0  0  0  0  0  0  0  0  0  0  0  0
  186.8240  177.1250  147.2150 C   0  0  0  0  0  1  0  0  0  0  0  0
  188.1500  177.5850  147.1990 O   0  0  0  0  0  0  0  0  0  0  0  0
  1  4  1  0  0  0  0
  2 23  1  0  0  0  0
  3  8  1  0  0  0  0
  3  7  1  0  0  0  0
  4 37  1  1  0  0  0
  5 18  1  0  0  0  0
  6 21  1  0  0  0  0
  6  8  2  0  0  0  0
  7 20  2  0  0  0  0
  8 12  1  0  0  0  0
  9  7  1  0  0  0  0
  9  5  2  0  0  0  0
 10  6  1  0  0  0  0
 11  4  1  0  0  0  0
 12 20  1  0  0  0  0
 12 16  1  0  0  0  0
 14 26  1  0  0  0  0
 14 19  1  0  0  0  0
 15 10  2  0  0  0  0
 15 19  1  0  0  0  0
 16 13  1  0  0  0  0
 17 11  1  0  0  0  0
 17 34  1  1  0  0  0
 18 24  2  0  0  0  0
 19  3  2  0  0  0  0
 20 25  1  0  0  0  0
 21  2  1  0  0  0  0
 22 28  1  1  0  0  0
 22  9  1  0  0  0  0
 23 13  1  0  0  0  0
 24 17  1  0  0  0  0
 25 24  1  0  0  0  0
 25  1  1  0  0  0  0
 26 22  1  0  0  0  0
 27 33  1  0  0  0  0
 28 27  1  0  0  0  0
 29 32  1  0  0  0  0
 29 28  2  0  0  0  0
 30 32  2  0  0  0  0
 31 33  2  0  0  0  0
 32 31  1  0  0  0  0
 34 35  2  0  0  0  0
 37 36  1  0  0  0  0
M  END
>  <MODEL>
9

>  <REMARK>
 VINA RESULT:      -7.2      2.123      3.531
  Name = 
  3 active torsions:
  status: ('A' for Active; 'I' for Inactive)
    1  A    between atoms: C_5  and  O_23
    2  A    between atoms: C_6  and  C_31
    3  A    between atoms: C_11  and  C_26
                            x       y       z     vdW  Elec       q    Type
                         _______ _______ _______ _____ _____    ______ ____

>  <TORSDO>
F 3

$$$$
