=
 OpenBabel11052419193D

 32 35  0  0  1  0  0  0  0  0999 V2000
  190.4110  177.1800  145.9240 C   0  0  0  0  0  2  0  0  0  0  0  0
  190.7070  176.3760  147.1930 C   0  0  1  0  0  3  0  0  0  0  0  0
  189.1250  176.7130  145.2340 C   0  0  1  0  0  3  0  0  0  0  0  0
  188.0580  176.2750  146.2530 C   0  0  1  0  0  3  0  0  0  0  0  0
  188.6160  175.2370  147.2460 C   0  0  0  0  0  2  0  0  0  0  0  0
  190.0670  175.0610  147.1340 N   0  0  0  0  0  2  0  0  0  0  0  0
  188.6200  177.7870  144.2790 C   0  0  0  0  0  2  0  0  0  0  0  0
  187.4790  177.2660  143.4210 C   0  0  2  0  0  3  0  0  0  0  0  0
  183.9410  178.1590  140.2610 C   0  0  0  0  0  3  0  0  0  0  0  0
  187.7540  177.6670  141.6520 S   0  0  0  0  0  0  0  0  0  0  0  0
  183.9340  178.1960  142.6930 C   0  0  0  0  0  3  0  0  0  0  0  0
  185.3180  178.0050  142.6750 C   0  0  0  0  0  0  0  0  0  0  0  0
  186.1570  177.8760  143.8870 C   0  0  0  0  0  2  0  0  0  0  0  0
  186.0040  177.9110  141.4830 C   0  0  0  0  0  0  0  0  0  0  0  0
  183.2450  178.2740  141.4740 C   0  0  0  0  0  3  0  0  0  0  0  0
  185.3310  177.9720  140.2620 C   0  0  0  0  0  3  0  0  0  0  0  0
  187.5690  177.3780  146.9620 O   0  0  0  0  0  0  0  0  0  0  0  0
  186.3020  176.9900  147.4010 C   0  0  0  0  0  2  0  0  0  0  0  0
  185.4850  178.2210  147.7360 C   0  0  0  0  0  2  0  0  0  0  0  0
  184.3120  178.3200  146.7830 C   0  0  0  0  0  1  0  0  0  0  0  0
  192.2110  176.2240  147.3580 C   0  0  0  0  0  2  0  0  0  0  0  0
  192.7400  175.0460  146.5470 C   0  0  0  0  0  2  0  0  0  0  0  0
  194.1400  175.3240  146.0030 C   0  0  0  0  0  2  0  0  0  0  0  0
  193.4460  177.0580  144.5420 F   0  0  0  0  0  0  0  0  0  0  0  0
  195.4290  176.0780  144.1010 O   0  0  0  0  0  1  0  0  0  0  0  0
  194.1250  175.8520  144.5600 C   0  0  1  0  0  0  0  0  0  0  0  0
  193.4410  174.9590  143.7040 O   0  0  0  0  0  0  0  0  0  0  0  0
  191.2840  175.2640  142.6230 C   0  0  2  0  0  3  0  0  0  0  0  0
  192.2960  174.7540  141.6180 C   0  0  0  0  0  2  0  0  0  0  0  0
  192.7480  175.6910  142.7190 C   0  0  2  0  0  3  0  0  0  0  0  0
  190.9820  174.2510  143.5380 O   0  0  0  0  0  0  0  0  0  0  0  0
  189.7360  173.7740  143.1360 C   0  0  0  0  0  1  0  0  0  0  0  0
  1  2  1  0  0  0  0
  2 21  1  6  0  0  0
  3  7  1  1  0  0  0
  3  1  1  0  0  0  0
  3  4  1  0  0  0  0
  4 17  1  1  0  0  0
  4  5  1  0  0  0  0
  6  2  1  0  0  0  0
  6  5  1  0  0  0  0
  8 13  1  0  0  0  0
  8  7  1  1  0  0  0
  9 16  2  0  0  0  0
  9 15  1  0  0  0  0
 10  8  1  0  0  0  0
 12 11  1  0  0  0  0
 12 13  1  0  0  0  0
 14 10  1  0  0  0  0
 14 12  2  0  0  0  0
 15 11  2  0  0  0  0
 16 14  1  0  0  0  0
 17 18  1  0  0  0  0
 18 19  1  0  0  0  0
 20 19  1  0  0  0  0
 22 21  1  0  0  0  0
 23 22  1  0  0  0  0
 24 26  1  0  0  0  0
 26 25  1  6  0  0  0
 26 23  1  0  0  0  0
 27 26  1  0  0  0  0
 28 30  1  0  0  0  0
 28 31  1  1  0  0  0
 29 28  1  0  0  0  0
 29 30  1  0  0  0  0
 30 27  1  1  0  0  0
 32 31  1  0  0  0  0
M  END
>  <MODEL>
1

>  <REMARK>
 VINA RESULT:      -6.8      0.000      0.000
  Name = 
  12 active torsions:
  status: ('A' for Active; 'I' for Inactive)
    1  A    between atoms: C_2  and  C_5
    2  A    between atoms: C_2  and  C_6
    3  A    between atoms: C_3  and  O_22
    4  A    between atoms: C_4  and  C_27
    5  A    between atoms: O_7  and  C_19
    6  A    between atoms: O_7  and  C_26
    7  A    between atoms: C_13  and  C_29
    8  A    between atoms: C_14  and  O_18
    9  A    between atoms: O_18  and  C_29
   10  A    between atoms: C_20  and  C_24
   11  A    between atoms: C_20  and  C_26
   12  A    between atoms: C_24  and  C_27
                            x       y       z     vdW  Elec       q    Type
                         _______ _______ _______ _____ _____    ______ ____

>  <TORSDO>
F 12

$$$$
=
 OpenBabel11052419193D

 32 35  0  0  1  0  0  0  0  0999 V2000
  189.9650  173.9340  144.3740 C   0  0  0  0  0  2  0  0  0  0  0  0
  190.6830  172.8320  143.5890 C   0  0  1  0  0  3  0  0  0  0  0  0
  190.7190  174.3130  145.6520 C   0  0  1  0  0  3  0  0  0  0  0  0
  192.2440  174.2380  145.4590 C   0  0  1  0  0  3  0  0  0  0  0  0
  192.6760  172.8720  144.8930 C   0  0  0  0  0  2  0  0  0  0  0  0
  191.5420  172.0430  144.4720 N   0  0  0  0  0  2  0  0  0  0  0  0
  190.2560  175.6770  146.1510 C   0  0  0  0  0  2  0  0  0  0  0  0
  188.8390  175.9780  145.6910 C   0  0  2  0  0  3  0  0  0  0  0  0
  185.0350  178.9480  145.6970 C   0  0  0  0  0  3  0  0  0  0  0  0
  188.7710  177.5680  144.7770 S   0  0  0  0  0  0  0  0  0  0  0  0
  185.6390  177.1520  147.2210 C   0  0  0  0  0  3  0  0  0  0  0  0
  186.8620  177.0330  146.5580 C   0  0  0  0  0  0  0  0  0  0  0  0
  187.9030  176.0380  146.8980 C   0  0  0  0  0  2  0  0  0  0  0  0
  187.1770  177.8610  145.5010 C   0  0  0  0  0  0  0  0  0  0  0  0
  184.7220  178.1180  146.7860 C   0  0  0  0  0  3  0  0  0  0  0  0
  186.2690  178.8180  145.0450 C   0  0  0  0  0  3  0  0  0  0  0  0
  192.6850  175.2540  144.6050 O   0  0  0  0  0  0  0  0  0  0  0  0
  194.0750  175.2550  144.7340 C   0  0  0  0  0  2  0  0  0  0  0  0
  194.4520  175.7120  146.1280 C   0  0  0  0  0  2  0  0  0  0  0  0
  194.4280  177.2250  146.1840 C   0  0  0  0  0  1  0  0  0  0  0  0
  189.6550  171.9370  142.9150 C   0  0  0  0  0  2  0  0  0  0  0  0
  189.3240  172.4340  141.5120 C   0  0  0  0  0  2  0  0  0  0  0  0
  188.0520  173.2790  141.5020 C   0  0  0  0  0  2  0  0  0  0  0  0
  189.5160  175.1420  141.4290 F   0  0  0  0  0  0  0  0  0  0  0  0
  188.3070  174.7150  139.5740 O   0  0  0  0  0  1  0  0  0  0  0  0
  188.2850  174.7030  140.9740 C   0  0  1  0  0  0  0  0  0  0  0  0
  187.3000  175.5900  141.4680 O   0  0  0  0  0  0  0  0  0  0  0  0
  186.5390  177.9000  141.5000 C   0  0  2  0  0  3  0  0  0  0  0  0
  186.6470  177.4140  140.0700 C   0  0  0  0  0  2  0  0  0  0  0  0
  187.6340  176.9100  141.1030 C   0  0  2  0  0  3  0  0  0  0  0  0
  185.4700  177.2580  142.1320 O   0  0  0  0  0  0  0  0  0  0  0  0
  184.3810  178.1040  141.9290 C   0  0  0  0  0  1  0  0  0  0  0  0
  1  3  1  0  0  0  0
  2 21  1  1  0  0  0
  2  1  1  0  0  0  0
  2  6  1  0  0  0  0
  3  7  1  6  0  0  0
  4 17  1  6  0  0  0
  4  3  1  0  0  0  0
  5  4  1  0  0  0  0
  6  5  1  0  0  0  0
  8  7  1  1  0  0  0
  8 13  1  0  0  0  0
  9 15  1  0  0  0  0
 10 14  1  0  0  0  0
 10  8  1  0  0  0  0
 12 13  1  0  0  0  0
 12 11  1  0  0  0  0
 14 12  2  0  0  0  0
 15 11  2  0  0  0  0
 16 14  1  0  0  0  0
 16  9  2  0  0  0  0
 17 18  1  0  0  0  0
 18 19  1  0  0  0  0
 19 20  1  0  0  0  0
 22 21  1  0  0  0  0
 23 22  1  0  0  0  0
 26 25  1  6  0  0  0
 26 24  1  0  0  0  0
 26 27  1  0  0  0  0
 26 23  1  0  0  0  0
 28 31  1  1  0  0  0
 29 30  1  0  0  0  0
 29 28  1  0  0  0  0
 30 27  1  1  0  0  0
 30 28  1  0  0  0  0
 32 31  1  0  0  0  0
M  END
>  <MODEL>
2

>  <REMARK>
 VINA RESULT:      -6.7      2.462      5.978
  Name = 
  12 active torsions:
  status: ('A' for Active; 'I' for Inactive)
    1  A    between atoms: C_2  and  C_5
    2  A    between atoms: C_2  and  C_6
    3  A    between atoms: C_3  and  O_22
    4  A    between atoms: C_4  and  C_27
    5  A    between atoms: O_7  and  C_19
    6  A    between atoms: O_7  and  C_26
    7  A    between atoms: C_13  and  C_29
    8  A    between atoms: C_14  and  O_18
    9  A    between atoms: O_18  and  C_29
   10  A    between atoms: C_20  and  C_24
   11  A    between atoms: C_20  and  C_26
   12  A    between atoms: C_24  and  C_27
                            x       y       z     vdW  Elec       q    Type
                         _______ _______ _______ _____ _____    ______ ____

>  <TORSDO>
F 12

$$$$
=
 OpenBabel11052419193D

 32 35  0  0  1  0  0  0  0  0999 V2000
  190.3850  177.2580  145.7370 C   0  0  0  0  0  2  0  0  0  0  0  0
  190.7470  176.4460  146.9850 C   0  0  1  0  0  3  0  0  0  0  0  0
  189.0910  176.7610  145.0840 C   0  0  1  0  0  3  0  0  0  0  0  0
  188.0710  176.2800  146.1330 C   0  0  1  0  0  3  0  0  0  0  0  0
  188.6920  175.2470  147.0920 C   0  0  0  0  0  2  0  0  0  0  0  0
  190.1430  175.1150  146.9300 N   0  0  0  0  0  2  0  0  0  0  0  0
  188.5230  177.8320  144.1610 C   0  0  0  0  0  2  0  0  0  0  0  0
  187.3530  177.2960  143.3520 C   0  0  2  0  0  3  0  0  0  0  0  0
  183.7780  178.1100  140.2140 C   0  0  0  0  0  3  0  0  0  0  0  0
  187.6040  177.5960  141.5600 S   0  0  0  0  0  0  0  0  0  0  0  0
  183.8190  178.2760  142.6390 C   0  0  0  0  0  3  0  0  0  0  0  0
  185.1970  178.0490  142.6070 C   0  0  0  0  0  0  0  0  0  0  0  0
  186.0560  177.9630  143.8090 C   0  0  0  0  0  2  0  0  0  0  0  0
  185.8570  177.8740  141.4100 C   0  0  0  0  0  0  0  0  0  0  0  0
  183.1080  178.3070  141.4310 C   0  0  0  0  0  3  0  0  0  0  0  0
  185.1620  177.8880  140.1990 C   0  0  0  0  0  3  0  0  0  0  0  0
  187.5740  177.3590  146.8710 O   0  0  0  0  0  0  0  0  0  0  0  0
  186.4500  176.8580  147.5290 C   0  0  0  0  0  2  0  0  0  0  0  0
  185.2530  176.9200  146.6020 C   0  0  0  0  0  2  0  0  0  0  0  0
  184.4460  178.1640  146.9050 C   0  0  0  0  0  1  0  0  0  0  0  0
  192.2590  176.3360  147.0970 C   0  0  0  0  0  2  0  0  0  0  0  0
  192.7630  175.0200  146.5160 C   0  0  0  0  0  2  0  0  0  0  0  0
  193.3580  175.2130  145.1230 C   0  0  0  0  0  2  0  0  0  0  0  0
  194.8590  177.0250  145.4080 F   0  0  0  0  0  0  0  0  0  0  0  0
  195.5210  175.0140  146.1860 O   0  0  0  0  0  1  0  0  0  0  0  0
  194.8260  175.6650  145.1580 C   0  0  1  0  0  0  0  0  0  0  0  0
  195.4520  175.4390  143.9110 O   0  0  0  0  0  0  0  0  0  0  0  0
  196.4690  176.6290  142.0490 C   0  0  2  0  0  3  0  0  0  0  0  0
  197.5460  176.1310  142.9920 C   0  0  0  0  0  2  0  0  0  0  0  0
  196.2110  176.5730  143.5550 C   0  0  2  0  0  3  0  0  0  0  0  0
  195.8900  175.5440  141.3860 O   0  0  0  0  0  0  0  0  0  0  0  0
  196.7470  175.2870  140.3170 C   0  0  0  0  0  1  0  0  0  0  0  0
  1  2  1  0  0  0  0
  2 21  1  6  0  0  0
  3  7  1  1  0  0  0
  3  1  1  0  0  0  0
  3  4  1  0  0  0  0
  4 17  1  1  0  0  0
  4  5  1  0  0  0  0
  6  2  1  0  0  0  0
  6  5  1  0  0  0  0
  8 13  1  0  0  0  0
  8  7  1  1  0  0  0
  9 15  1  0  0  0  0
 10  8  1  0  0  0  0
 12 11  1  0  0  0  0
 12 13  1  0  0  0  0
 14 10  1  0  0  0  0
 14 12  2  0  0  0  0
 15 11  2  0  0  0  0
 16  9  2  0  0  0  0
 16 14  1  0  0  0  0
 17 18  1  0  0  0  0
 19 20  1  0  0  0  0
 19 18  1  0  0  0  0
 22 21  1  0  0  0  0
 23 26  1  0  0  0  0
 23 22  1  0  0  0  0
 26 24  1  1  0  0  0
 26 25  1  0  0  0  0
 27 26  1  0  0  0  0
 28 31  1  6  0  0  0
 28 29  1  0  0  0  0
 28 30  1  0  0  0  0
 29 30  1  0  0  0  0
 30 27  1  6  0  0  0
 32 31  1  0  0  0  0
M  END
>  <MODEL>
3

>  <REMARK>
 VINA RESULT:      -6.6      1.555      2.386
  Name = 
  12 active torsions:
  status: ('A' for Active; 'I' for Inactive)
    1  A    between atoms: C_2  and  C_5
    2  A    between atoms: C_2  and  C_6
    3  A    between atoms: C_3  and  O_22
    4  A    between atoms: C_4  and  C_27
    5  A    between atoms: O_7  and  C_19
    6  A    between atoms: O_7  and  C_26
    7  A    between atoms: C_13  and  C_29
    8  A    between atoms: C_14  and  O_18
    9  A    between atoms: O_18  and  C_29
   10  A    between atoms: C_20  and  C_24
   11  A    between atoms: C_20  and  C_26
   12  A    between atoms: C_24  and  C_27
                            x       y       z     vdW  Elec       q    Type
                         _______ _______ _______ _____ _____    ______ ____

>  <TORSDO>
F 12

$$$$
=
 OpenBabel11052419193D

 32 35  0  0  1  0  0  0  0  0999 V2000
  191.8440  174.9200  145.6830 C   0  0  0  0  0  2  0  0  0  0  0  0
  192.2430  175.3000  147.1120 C   0  0  1  0  0  3  0  0  0  0  0  0
  192.6500  175.6940  144.6350 C   0  0  1  0  0  3  0  0  0  0  0  0
  194.0990  175.9380  145.0960 C   0  0  1  0  0  3  0  0  0  0  0  0
  194.1460  176.5910  146.4900 C   0  0  0  0  0  2  0  0  0  0  0  0
  192.8350  176.6380  147.1450 N   0  0  0  0  0  2  0  0  0  0  0  0
  192.5740  174.9890  143.2860 C   0  0  0  0  0  2  0  0  0  0  0  0
  191.6100  175.7000  142.3500 C   0  0  2  0  0  3  0  0  0  0  0  0
  187.3730  177.9110  141.6770 C   0  0  0  0  0  3  0  0  0  0  0  0
  191.2150  177.3820  142.9690 S   0  0  0  0  0  0  0  0  0  0  0  0
  187.9700  175.5590  141.5200 C   0  0  0  0  0  3  0  0  0  0  0  0
  189.2370  175.8720  142.0170 C   0  0  0  0  0  0  0  0  0  0  0  0
  190.3230  174.8860  142.2140 C   0  0  0  0  0  2  0  0  0  0  0  0
  189.5640  177.1680  142.3550 C   0  0  0  0  0  0  0  0  0  0  0  0
  187.0330  176.5880  141.3520 C   0  0  0  0  0  3  0  0  0  0  0  0
  188.6480  178.2070  142.1800 C   0  0  0  0  0  3  0  0  0  0  0  0
  194.8180  174.7380  145.1210 O   0  0  0  0  0  0  0  0  0  0  0  0
  196.1320  175.1000  144.8160 C   0  0  0  0  0  2  0  0  0  0  0  0
  196.2410  175.4060  143.3370 C   0  0  0  0  0  2  0  0  0  0  0  0
  197.0700  176.6570  143.1430 C   0  0  0  0  0  1  0  0  0  0  0  0
  191.0200  175.2420  148.0130 C   0  0  0  0  0  2  0  0  0  0  0  0
  189.7800  174.8150  147.2360 C   0  0  0  0  0  2  0  0  0  0  0  0
  188.6390  175.8150  147.4070 C   0  0  0  0  0  2  0  0  0  0  0  0
  189.4460  177.4320  145.8730 F   0  0  0  0  0  0  0  0  0  0  0  0
  188.1760  175.7680  145.0350 O   0  0  0  0  0  1  0  0  0  0  0  0
  188.3550  176.6220  146.1310 C   0  0  1  0  0  0  0  0  0  0  0  0
  187.2280  177.4570  146.3040 O   0  0  0  0  0  0  0  0  0  0  0  0
  185.2210  177.9590  145.0240 C   0  0  2  0  0  3  0  0  0  0  0  0
  184.8430  177.3190  146.3440 C   0  0  0  0  0  2  0  0  0  0  0  0
  186.1180  176.8900  145.6460 C   0  0  2  0  0  3  0  0  0  0  0  0
  185.7190  179.2450  145.2540 O   0  0  0  0  0  0  0  0  0  0  0  0
  185.3860  179.9620  144.1050 C   0  0  0  0  0  1  0  0  0  0  0  0
  1  2  1  0  0  0  0
  2  6  1  0  0  0  0
  2 21  1  1  0  0  0
  3  7  1  6  0  0  0
  3  4  1  0  0  0  0
  3  1  1  0  0  0  0
  4 17  1  1  0  0  0
  4  5  1  0  0  0  0
  5  6  1  0  0  0  0
  8 10  1  0  0  0  0
  8  7  1  1  0  0  0
  9 16  1  0  0  0  0
 11 12  2  0  0  0  0
 12 13  1  0  0  0  0
 12 14  1  0  0  0  0
 13  8  1  0  0  0  0
 14 10  1  0  0  0  0
 15 11  1  0  0  0  0
 15  9  2  0  0  0  0
 16 14  2  0  0  0  0
 18 17  1  0  0  0  0
 19 18  1  0  0  0  0
 20 19  1  0  0  0  0
 22 23  1  0  0  0  0
 22 21  1  0  0  0  0
 24 26  1  0  0  0  0
 26 25  1  6  0  0  0
 26 27  1  0  0  0  0
 26 23  1  0  0  0  0
 28 31  1  1  0  0  0
 28 30  1  0  0  0  0
 28 29  1  0  0  0  0
 30 27  1  1  0  0  0
 30 29  1  0  0  0  0
 32 31  1  0  0  0  0
M  END
>  <MODEL>
4

>  <REMARK>
 VINA RESULT:      -6.5      2.129      6.364
  Name = 
  12 active torsions:
  status: ('A' for Active; 'I' for Inactive)
    1  A    between atoms: C_2  and  C_5
    2  A    between atoms: C_2  and  C_6
    3  A    between atoms: C_3  and  O_22
    4  A    between atoms: C_4  and  C_27
    5  A    between atoms: O_7  and  C_19
    6  A    between atoms: O_7  and  C_26
    7  A    between atoms: C_13  and  C_29
    8  A    between atoms: C_14  and  O_18
    9  A    between atoms: O_18  and  C_29
   10  A    between atoms: C_20  and  C_24
   11  A    between atoms: C_20  and  C_26
   12  A    between atoms: C_24  and  C_27
                            x       y       z     vdW  Elec       q    Type
                         _______ _______ _______ _____ _____    ______ ____

>  <TORSDO>
F 12

$$$$
=
 OpenBabel11052419193D

 32 35  0  0  1  0  0  0  0  0999 V2000
  189.5870  174.9410  145.8890 C   0  0  0  0  0  2  0  0  0  0  0  0
  190.0110  176.4130  145.9340 C   0  0  1  0  0  3  0  0  0  0  0  0
  190.0600  174.2460  144.6080 C   0  0  1  0  0  3  0  0  0  0  0  0
  191.4340  174.7680  144.1490 C   0  0  1  0  0  3  0  0  0  0  0  0
  191.4460  176.3050  144.0350 C   0  0  0  0  0  2  0  0  0  0  0  0
  190.2360  176.9280  144.5830 N   0  0  0  0  0  2  0  0  0  0  0  0
  190.0380  172.7340  144.7920 C   0  0  0  0  0  2  0  0  0  0  0  0
  189.5460  172.0350  143.5350 C   0  0  2  0  0  3  0  0  0  0  0  0
  189.6840  171.5860  138.7320 C   0  0  0  0  0  3  0  0  0  0  0  0
  190.9450  171.2910  142.6090 S   0  0  0  0  0  0  0  0  0  0  0  0
  188.3120  173.0110  140.1460 C   0  0  0  0  0  3  0  0  0  0  0  0
  189.0600  172.5950  141.2500 C   0  0  0  0  0  0  0  0  0  0  0  0
  188.8100  173.0330  142.6410 C   0  0  0  0  0  2  0  0  0  0  0  0
  190.1070  171.7100  141.1010 C   0  0  0  0  0  0  0  0  0  0  0  0
  188.6300  172.5020  138.8800 C   0  0  0  0  0  3  0  0  0  0  0  0
  190.4270  171.1820  139.8490 C   0  0  0  0  0  3  0  0  0  0  0  0
  192.4380  174.3620  145.0340 O   0  0  0  0  0  0  0  0  0  0  0  0
  193.5080  175.2230  144.7850 C   0  0  0  0  0  2  0  0  0  0  0  0
  194.3290  175.3860  146.0480 C   0  0  0  0  0  2  0  0  0  0  0  0
  194.0290  176.7320  146.6730 C   0  0  0  0  0  1  0  0  0  0  0  0
  188.9380  177.2280  146.6380 C   0  0  0  0  0  2  0  0  0  0  0  0
  187.5480  176.6640  146.3690 C   0  0  0  0  0  2  0  0  0  0  0  0
  186.4630  177.4920  147.0540 C   0  0  0  0  0  2  0  0  0  0  0  0
  184.5580  176.1370  146.6650 F   0  0  0  0  0  0  0  0  0  0  0  0
  184.2180  178.3600  146.8320 O   0  0  0  0  0  1  0  0  0  0  0  0
  185.0960  177.3750  146.3630 C   0  0  1  0  0  0  0  0  0  0  0  0
  185.2340  177.4550  144.9580 O   0  0  0  0  0  0  0  0  0  0  0  0
  184.7190  178.7710  142.9790 C   0  0  2  0  0  3  0  0  0  0  0  0
  185.4670  179.6240  143.9830 C   0  0  0  0  0  2  0  0  0  0  0  0
  184.5060  178.5620  144.4770 C   0  0  2  0  0  3  0  0  0  0  0  0
  185.5830  177.8130  142.4430 O   0  0  0  0  0  0  0  0  0  0  0  0
  185.4970  177.9930  141.0630 C   0  0  0  0  0  1  0  0  0  0  0  0
  1  2  1  0  0  0  0
  2 21  1  6  0  0  0
  3  7  1  1  0  0  0
  3  1  1  0  0  0  0
  4  3  1  0  0  0  0
  4 17  1  1  0  0  0
  5  4  1  0  0  0  0
  5  6  1  0  0  0  0
  6  2  1  0  0  0  0
  8  7  1  1  0  0  0
  9 15  2  0  0  0  0
  9 16  1  0  0  0  0
 10  8  1  0  0  0  0
 11 12  2  0  0  0  0
 12 13  1  0  0  0  0
 13  8  1  0  0  0  0
 14 12  1  0  0  0  0
 14 10  1  0  0  0  0
 15 11  1  0  0  0  0
 16 14  2  0  0  0  0
 18 17  1  0  0  0  0
 18 19  1  0  0  0  0
 19 20  1  0  0  0  0
 22 21  1  0  0  0  0
 22 23  1  0  0  0  0
 26 24  1  1  0  0  0
 26 25  1  0  0  0  0
 26 23  1  0  0  0  0
 27 26  1  0  0  0  0
 28 31  1  1  0  0  0
 28 29  1  0  0  0  0
 28 30  1  0  0  0  0
 29 30  1  0  0  0  0
 30 27  1  1  0  0  0
 32 31  1  0  0  0  0
M  END
>  <MODEL>
5

>  <REMARK>
 VINA RESULT:      -6.5      3.167      7.178
  Name = 
  12 active torsions:
  status: ('A' for Active; 'I' for Inactive)
    1  A    between atoms: C_2  and  C_5
    2  A    between atoms: C_2  and  C_6
    3  A    between atoms: C_3  and  O_22
    4  A    between atoms: C_4  and  C_27
    5  A    between atoms: O_7  and  C_19
    6  A    between atoms: O_7  and  C_26
    7  A    between atoms: C_13  and  C_29
    8  A    between atoms: C_14  and  O_18
    9  A    between atoms: O_18  and  C_29
   10  A    between atoms: C_20  and  C_24
   11  A    between atoms: C_20  and  C_26
   12  A    between atoms: C_24  and  C_27
                            x       y       z     vdW  Elec       q    Type
                         _______ _______ _______ _____ _____    ______ ____

>  <TORSDO>
F 12

$$$$
=
 OpenBabel11052419193D

 32 35  0  0  1  0  0  0  0  0999 V2000
  188.2880  175.5130  143.4090 C   0  0  0  0  0  2  0  0  0  0  0  0
  187.5670  174.9910  142.1620 C   0  0  1  0  0  3  0  0  0  0  0  0
  188.5910  177.0110  143.3130 C   0  0  1  0  0  3  0  0  0  0  0  0
  187.4760  177.7730  142.5730 C   0  0  1  0  0  3  0  0  0  0  0  0
  187.1680  177.1350  141.2040 C   0  0  0  0  0  2  0  0  0  0  0  0
  187.8420  175.8470  141.0090 N   0  0  0  0  0  2  0  0  0  0  0  0
  188.8710  177.5810  144.6980 C   0  0  0  0  0  2  0  0  0  0  0  0
  190.3640  177.7480  144.9310 C   0  0  2  0  0  3  0  0  0  0  0  0
  194.8010  175.8530  144.8270 C   0  0  0  0  0  3  0  0  0  0  0  0
  191.3080  177.4180  143.3920 S   0  0  0  0  0  0  0  0  0  0  0  0
  193.1220  175.8470  146.5860 C   0  0  0  0  0  3  0  0  0  0  0  0
  192.2170  176.4200  145.6890 C   0  0  0  0  0  0  0  0  0  0  0  0
  190.8280  176.7960  146.0330 C   0  0  0  0  0  2  0  0  0  0  0  0
  192.5840  176.6890  144.3880 C   0  0  0  0  0  0  0  0  0  0  0  0
  194.4220  175.5610  146.1470 C   0  0  0  0  0  3  0  0  0  0  0  0
  193.8790  176.4240  143.9390 C   0  0  0  0  0  3  0  0  0  0  0  0
  186.3070  177.8080  143.3410 O   0  0  0  0  0  0  0  0  0  0  0  0
  185.6900  179.0130  143.0020 C   0  0  0  0  0  2  0  0  0  0  0  0
  185.4190  179.8130  144.2590 C   0  0  0  0  0  2  0  0  0  0  0  0
  185.4990  178.8990  145.4630 C   0  0  0  0  0  1  0  0  0  0  0  0
  188.0110  173.5650  141.8790 C   0  0  0  0  0  2  0  0  0  0  0  0
  189.5310  173.4490  141.8750 C   0  0  0  0  0  2  0  0  0  0  0  0
  189.9990  172.1830  142.5900 C   0  0  0  0  0  2  0  0  0  0  0  0
  190.7790  173.8060  144.1320 F   0  0  0  0  0  0  0  0  0  0  0  0
  189.5230  172.1250  144.9600 O   0  0  0  0  0  1  0  0  0  0  0  0
  190.5040  172.4550  144.0150 C   0  0  1  0  0  0  0  0  0  0  0  0
  191.7010  171.7470  144.2690 O   0  0  0  0  0  0  0  0  0  0  0  0
  194.0420  172.2660  143.8600 C   0  0  2  0  0  3  0  0  0  0  0  0
  193.8310  171.9630  145.3290 C   0  0  0  0  0  2  0  0  0  0  0  0
  192.7370  172.6620  144.5490 C   0  0  2  0  0  3  0  0  0  0  0  0
  193.8950  171.0930  143.1150 O   0  0  0  0  0  0  0  0  0  0  0  0
  194.9290  170.2670  143.5520 C   0  0  0  0  0  1  0  0  0  0  0  0
  2 21  1  6  0  0  0
  2  1  1  0  0  0  0
  3  1  1  0  0  0  0
  3  7  1  1  0  0  0
  4  3  1  0  0  0  0
  4 17  1  1  0  0  0
  5  4  1  0  0  0  0
  6  5  1  0  0  0  0
  6  2  1  0  0  0  0
  8  7  1  6  0  0  0
  8 13  1  0  0  0  0
  9 15  1  0  0  0  0
 10 14  1  0  0  0  0
 10  8  1  0  0  0  0
 12 13  1  0  0  0  0
 12 11  1  0  0  0  0
 14 12  2  0  0  0  0
 15 11  2  0  0  0  0
 16 14  1  0  0  0  0
 16  9  2  0  0  0  0
 18 17  1  0  0  0  0
 18 19  1  0  0  0  0
 19 20  1  0  0  0  0
 22 21  1  0  0  0  0
 22 23  1  0  0  0  0
 23 26  1  0  0  0  0
 26 24  1  1  0  0  0
 26 27  1  0  0  0  0
 26 25  1  0  0  0  0
 28 31  1  6  0  0  0
 28 30  1  0  0  0  0
 28 29  1  0  0  0  0
 30 27  1  6  0  0  0
 30 29  1  0  0  0  0
 31 32  1  0  0  0  0
M  END
>  <MODEL>
6

>  <REMARK>
 VINA RESULT:      -6.4      2.711      6.176
  Name = 
  12 active torsions:
  status: ('A' for Active; 'I' for Inactive)
    1  A    between atoms: C_2  and  C_5
    2  A    between atoms: C_2  and  C_6
    3  A    between atoms: C_3  and  O_22
    4  A    between atoms: C_4  and  C_27
    5  A    between atoms: O_7  and  C_19
    6  A    between atoms: O_7  and  C_26
    7  A    between atoms: C_13  and  C_29
    8  A    between atoms: C_14  and  O_18
    9  A    between atoms: O_18  and  C_29
   10  A    between atoms: C_20  and  C_24
   11  A    between atoms: C_20  and  C_26
   12  A    between atoms: C_24  and  C_27
                            x       y       z     vdW  Elec       q    Type
                         _______ _______ _______ _____ _____    ______ ____

>  <TORSDO>
F 12

$$$$
=
 OpenBabel11052419193D

 32 35  0  0  1  0  0  0  0  0999 V2000
  190.7550  177.0800  145.2870 C   0  0  0  0  0  2  0  0  0  0  0  0
  191.3120  176.1920  146.4040 C   0  0  1  0  0  3  0  0  0  0  0  0
  189.3340  176.6720  144.8850 C   0  0  1  0  0  3  0  0  0  0  0  0
  188.5160  176.1830  146.0950 C   0  0  1  0  0  3  0  0  0  0  0  0
  189.2590  175.0770  146.8690 C   0  0  0  0  0  2  0  0  0  0  0  0
  190.6420  174.8920  146.4160 N   0  0  0  0  0  2  0  0  0  0  0  0
  188.6510  177.8110  144.1380 C   0  0  0  0  0  2  0  0  0  0  0  0
  187.4400  177.3140  143.3670 C   0  0  2  0  0  3  0  0  0  0  0  0
  183.6720  178.2870  140.5120 C   0  0  0  0  0  3  0  0  0  0  0  0
  187.5780  177.7360  141.5860 S   0  0  0  0  0  0  0  0  0  0  0  0
  183.8590  178.2910  142.9360 C   0  0  0  0  0  3  0  0  0  0  0  0
  185.2350  178.0860  142.8060 C   0  0  0  0  0  0  0  0  0  0  0  0
  186.1660  177.9320  143.9450 C   0  0  0  0  0  2  0  0  0  0  0  0
  185.8230  178.0000  141.5620 C   0  0  0  0  0  0  0  0  0  0  0  0
  183.0760  178.3930  141.7780 C   0  0  0  0  0  3  0  0  0  0  0  0
  185.0550  178.0850  140.3990 C   0  0  0  0  0  3  0  0  0  0  0  0
  188.2310  177.2440  146.9610 O   0  0  0  0  0  0  0  0  0  0  0  0
  186.8960  177.0620  147.3250 C   0  0  0  0  0  2  0  0  0  0  0  0
  186.2630  178.4080  147.6140 C   0  0  0  0  0  2  0  0  0  0  0  0
  184.7910  178.3560  147.2670 C   0  0  0  0  0  1  0  0  0  0  0  0
  192.8090  176.0130  146.2100 C   0  0  0  0  0  2  0  0  0  0  0  0
  193.3090  176.8010  145.0050 C   0  0  0  0  0  2  0  0  0  0  0  0
  193.6130  175.8840  143.8220 C   0  0  0  0  0  2  0  0  0  0  0  0
  195.3790  175.4130  142.3130 F   0  0  0  0  0  0  0  0  0  0  0  0
  195.8770  176.6820  144.1090 O   0  0  0  0  0  1  0  0  0  0  0  0
  195.1140  175.5980  143.6580 C   0  0  1  0  0  0  0  0  0  0  0  0
  195.4770  174.4120  144.3370 O   0  0  0  0  0  0  0  0  0  0  0  0
  197.5260  173.2280  144.9010 C   0  0  2  0  0  3  0  0  0  0  0  0
  196.8790  173.7660  146.1610 C   0  0  0  0  0  2  0  0  0  0  0  0
  196.7730  174.5580  144.8740 C   0  0  2  0  0  3  0  0  0  0  0  0
  196.7490  172.1870  144.3840 O   0  0  0  0  0  0  0  0  0  0  0  0
  197.5130  171.0400  144.5970 C   0  0  0  0  0  1  0  0  0  0  0  0
  1  2  1  0  0  0  0
  2 21  1  6  0  0  0
  2  6  1  0  0  0  0
  3  7  1  1  0  0  0
  3  1  1  0  0  0  0
  3  4  1  0  0  0  0
  4  5  1  0  0  0  0
  4 17  1  1  0  0  0
  6  5  1  0  0  0  0
  8 13  1  0  0  0  0
  8  7  1  1  0  0  0
  9 15  1  0  0  0  0
 10  8  1  0  0  0  0
 12 11  1  0  0  0  0
 12 13  1  0  0  0  0
 14 10  1  0  0  0  0
 14 12  2  0  0  0  0
 15 11  2  0  0  0  0
 16  9  2  0  0  0  0
 16 14  1  0  0  0  0
 17 18  1  0  0  0  0
 18 19  1  0  0  0  0
 20 19  1  0  0  0  0
 22 21  1  0  0  0  0
 23 22  1  0  0  0  0
 26 24  1  6  0  0  0
 26 23  1  0  0  0  0
 26 25  1  0  0  0  0
 26 27  1  0  0  0  0
 28 31  1  6  0  0  0
 28 29  1  0  0  0  0
 30 27  1  6  0  0  0
 30 28  1  0  0  0  0
 30 29  1  0  0  0  0
 31 32  1  0  0  0  0
M  END
>  <MODEL>
7

>  <REMARK>
 VINA RESULT:      -6.4      1.860      2.844
  Name = 
  12 active torsions:
  status: ('A' for Active; 'I' for Inactive)
    1  A    between atoms: C_2  and  C_5
    2  A    between atoms: C_2  and  C_6
    3  A    between atoms: C_3  and  O_22
    4  A    between atoms: C_4  and  C_27
    5  A    between atoms: O_7  and  C_19
    6  A    between atoms: O_7  and  C_26
    7  A    between atoms: C_13  and  C_29
    8  A    between atoms: C_14  and  O_18
    9  A    between atoms: O_18  and  C_29
   10  A    between atoms: C_20  and  C_24
   11  A    between atoms: C_20  and  C_26
   12  A    between atoms: C_24  and  C_27
                            x       y       z     vdW  Elec       q    Type
                         _______ _______ _______ _____ _____    ______ ____

>  <TORSDO>
F 12

$$$$
=
 OpenBabel11052419193D

 32 35  0  0  1  0  0  0  0  0999 V2000
  190.3500  176.4100  145.5200 C   0  0  0  0  0  2  0  0  0  0  0  0
  189.2510  175.3590  145.7020 C   0  0  1  0  0  3  0  0  0  0  0  0
  191.6050  175.8220  144.8660 C   0  0  1  0  0  3  0  0  0  0  0  0
  191.2540  174.7430  143.8250 C   0  0  1  0  0  3  0  0  0  0  0  0
  190.3260  173.6650  144.4180 C   0  0  0  0  0  2  0  0  0  0  0  0
  189.8230  174.0140  145.7510 N   0  0  0  0  0  2  0  0  0  0  0  0
  192.4690  176.9360  144.2890 C   0  0  0  0  0  2  0  0  0  0  0  0
  193.9430  176.6880  144.5690 C   0  0  2  0  0  3  0  0  0  0  0  0
  197.6700  173.6240  144.6890 C   0  0  0  0  0  3  0  0  0  0  0  0
  194.7920  176.0400  143.0770 S   0  0  0  0  0  0  0  0  0  0  0  0
  196.0140  174.1660  146.3860 C   0  0  0  0  0  3  0  0  0  0  0  0
  195.3290  174.9300  145.4390 C   0  0  0  0  0  0  0  0  0  0  0  0
  194.0930  175.6940  145.7200 C   0  0  0  0  0  2  0  0  0  0  0  0
  195.7870  175.0270  144.1420 C   0  0  0  0  0  0  0  0  0  0  0  0
  197.1920  173.5090  146.0040 C   0  0  0  0  0  3  0  0  0  0  0  0
  196.9670  174.3920  143.7500 C   0  0  0  0  0  3  0  0  0  0  0  0
  190.6410  175.3170  142.7060 O   0  0  0  0  0  0  0  0  0  0  0  0
  189.9830  174.2610  142.0750 C   0  0  0  0  0  2  0  0  0  0  0  0
  188.7480  174.7840  141.3700 C   0  0  0  0  0  2  0  0  0  0  0  0
  187.6380  174.9800  142.3810 C   0  0  0  0  0  1  0  0  0  0  0  0
  188.4770  175.6510  146.9770 C   0  0  0  0  0  2  0  0  0  0  0  0
  187.7080  176.9630  146.8710 C   0  0  0  0  0  2  0  0  0  0  0  0
  186.2430  176.7890  147.2650 C   0  0  0  0  0  2  0  0  0  0  0  0
  184.0090  177.4850  146.8910 F   0  0  0  0  0  0  0  0  0  0  0  0
  185.5650  179.1040  147.1030 O   0  0  0  0  0  1  0  0  0  0  0  0
  185.3190  177.8200  146.6000 C   0  0  1  0  0  0  0  0  0  0  0  0
  185.4680  177.7960  145.1940 O   0  0  0  0  0  0  0  0  0  0  0  0
  184.7140  178.7560  143.0910 C   0  0  2  0  0  3  0  0  0  0  0  0
  185.4780  179.7950  143.8860 C   0  0  0  0  0  2  0  0  0  0  0  0
  184.6320  178.7730  144.6170 C   0  0  2  0  0  3  0  0  0  0  0  0
  185.5970  177.7750  142.6330 O   0  0  0  0  0  0  0  0  0  0  0  0
  185.5940  177.9180  141.2460 C   0  0  0  0  0  1  0  0  0  0  0  0
  1  2  1  0  0  0  0
  2  6  1  0  0  0  0
  2 21  1  1  0  0  0
  3  7  1  6  0  0  0
  3  1  1  0  0  0  0
  4 17  1  6  0  0  0
  4  5  1  0  0  0  0
  4  3  1  0  0  0  0
  5  6  1  0  0  0  0
  8  7  1  6  0  0  0
  8 13  1  0  0  0  0
  9 15  1  0  0  0  0
 10 14  1  0  0  0  0
 10  8  1  0  0  0  0
 12 13  1  0  0  0  0
 12 11  1  0  0  0  0
 14 12  2  0  0  0  0
 15 11  2  0  0  0  0
 16 14  1  0  0  0  0
 16  9  2  0  0  0  0
 18 17  1  0  0  0  0
 19 18  1  0  0  0  0
 19 20  1  0  0  0  0
 22 21  1  0  0  0  0
 22 23  1  0  0  0  0
 26 24  1  1  0  0  0
 26 25  1  0  0  0  0
 26 23  1  0  0  0  0
 27 26  1  0  0  0  0
 28 31  1  1  0  0  0
 28 29  1  0  0  0  0
 28 30  1  0  0  0  0
 29 30  1  0  0  0  0
 30 27  1  1  0  0  0
 32 31  1  0  0  0  0
M  END
>  <MODEL>
8

>  <REMARK>
 VINA RESULT:      -6.4      2.974      8.329
  Name = 
  12 active torsions:
  status: ('A' for Active; 'I' for Inactive)
    1  A    between atoms: C_2  and  C_5
    2  A    between atoms: C_2  and  C_6
    3  A    between atoms: C_3  and  O_22
    4  A    between atoms: C_4  and  C_27
    5  A    between atoms: O_7  and  C_19
    6  A    between atoms: O_7  and  C_26
    7  A    between atoms: C_13  and  C_29
    8  A    between atoms: C_14  and  O_18
    9  A    between atoms: O_18  and  C_29
   10  A    between atoms: C_20  and  C_24
   11  A    between atoms: C_20  and  C_26
   12  A    between atoms: C_24  and  C_27
                            x       y       z     vdW  Elec       q    Type
                         _______ _______ _______ _____ _____    ______ ____

>  <TORSDO>
F 12

$$$$
=
 OpenBabel11052419193D

 32 35  0  0  1  0  0  0  0  0999 V2000
  188.5030  176.3390  144.9820 C   0  0  0  0  0  2  0  0  0  0  0  0
  188.1350  176.3770  146.4680 C   0  0  1  0  0  3  0  0  0  0  0  0
  189.8000  177.1020  144.6920 C   0  0  1  0  0  3  0  0  0  0  0  0
  190.8140  176.9610  145.8420 C   0  0  1  0  0  3  0  0  0  0  0  0
  190.1880  177.3390  147.1980 C   0  0  0  0  0  2  0  0  0  0  0  0
  188.7370  177.5390  147.1220 N   0  0  0  0  0  2  0  0  0  0  0  0
  190.3730  176.6720  143.3470 C   0  0  0  0  0  2  0  0  0  0  0  0
  189.8040  175.3320  142.9100 C   0  0  2  0  0  3  0  0  0  0  0  0
  189.6520  171.7670  139.6610 C   0  0  0  0  0  3  0  0  0  0  0  0
  191.1410  174.0990  142.6700 S   0  0  0  0  0  0  0  0  0  0  0  0
  188.3730  173.8300  139.8030 C   0  0  0  0  0  3  0  0  0  0  0  0
  189.1840  174.2310  140.8670 C   0  0  0  0  0  0  0  0  0  0  0  0
  189.0190  175.5010  141.6090 C   0  0  0  0  0  2  0  0  0  0  0  0
  190.2170  173.4320  141.3090 C   0  0  0  0  0  0  0  0  0  0  0  0
  188.6130  172.5890  139.1970 C   0  0  0  0  0  3  0  0  0  0  0  0
  190.4590  172.1870  140.7270 C   0  0  0  0  0  3  0  0  0  0  0  0
  191.3090  175.6540  145.9080 O   0  0  0  0  0  0  0  0  0  0  0  0
  192.2900  175.6900  146.9000 C   0  0  0  0  0  2  0  0  0  0  0  0
  193.6200  175.2700  146.3100 C   0  0  0  0  0  2  0  0  0  0  0  0
  194.4660  176.4980  146.0520 C   0  0  0  0  0  1  0  0  0  0  0  0
  186.6220  176.4140  146.6150 C   0  0  0  0  0  2  0  0  0  0  0  0
  186.1480  177.7730  147.1170 C   0  0  0  0  0  2  0  0  0  0  0  0
  184.6980  178.0420  146.7210 C   0  0  0  0  0  2  0  0  0  0  0  0
  183.3460  179.4220  145.3470 F   0  0  0  0  0  0  0  0  0  0  0  0
  185.5750  179.7540  145.2550 O   0  0  0  0  0  1  0  0  0  0  0  0
  184.5720  178.7830  145.3810 C   0  0  1  0  0  0  0  0  0  0  0  0
  184.6160  177.8760  144.2970 O   0  0  0  0  0  0  0  0  0  0  0  0
  185.1600  178.3170  141.9680 C   0  0  2  0  0  3  0  0  0  0  0  0
  185.9330  177.1090  142.4570 C   0  0  0  0  0  2  0  0  0  0  0  0
  185.6500  178.2490  143.4140 C   0  0  2  0  0  3  0  0  0  0  0  0
  183.8040  177.9940  141.8680 O   0  0  0  0  0  0  0  0  0  0  0  0
  183.4700  178.2830  140.5460 C   0  0  0  0  0  1  0  0  0  0  0  0
  1  2  1  0  0  0  0
  2 21  1  6  0  0  0
  2  6  1  0  0  0  0
  3  7  1  6  0  0  0
  3  1  1  0  0  0  0
  3  4  1  0  0  0  0
  4 17  1  1  0  0  0
  4  5  1  0  0  0  0
  6  5  1  0  0  0  0
  8  7  1  6  0  0  0
  9 16  1  0  0  0  0
 10  8  1  0  0  0  0
 11 12  2  0  0  0  0
 12 14  1  0  0  0  0
 12 13  1  0  0  0  0
 13  8  1  0  0  0  0
 14 10  1  0  0  0  0
 15  9  2  0  0  0  0
 15 11  1  0  0  0  0
 16 14  2  0  0  0  0
 17 18  1  0  0  0  0
 19 18  1  0  0  0  0
 20 19  1  0  0  0  0
 21 22  1  0  0  0  0
 23 22  1  0  0  0  0
 24 26  1  0  0  0  0
 26 25  1  6  0  0  0
 26 23  1  0  0  0  0
 27 26  1  0  0  0  0
 28 31  1  1  0  0  0
 28 29  1  0  0  0  0
 28 30  1  0  0  0  0
 29 30  1  0  0  0  0
 30 27  1  1  0  0  0
 32 31  1  0  0  0  0
M  END
>  <MODEL>
9

>  <REMARK>
 VINA RESULT:      -6.3      3.100      6.906
  Name = 
  12 active torsions:
  status: ('A' for Active; 'I' for Inactive)
    1  A    between atoms: C_2  and  C_5
    2  A    between atoms: C_2  and  C_6
    3  A    between atoms: C_3  and  O_22
    4  A    between atoms: C_4  and  C_27
    5  A    between atoms: O_7  and  C_19
    6  A    between atoms: O_7  and  C_26
    7  A    between atoms: C_13  and  C_29
    8  A    between atoms: C_14  and  O_18
    9  A    between atoms: O_18  and  C_29
   10  A    between atoms: C_20  and  C_24
   11  A    between atoms: C_20  and  C_26
   12  A    between atoms: C_24  and  C_27
                            x       y       z     vdW  Elec       q    Type
                         _______ _______ _______ _____ _____    ______ ____

>  <TORSDO>
F 12

$$$$
