=
 OpenBabel11052418263D

 27 30  0  0  1  0  0  0  0  0999 V2000
  190.2820  173.7480  143.8310 C   0  0  0  0  0  2  0  0  0  0  0  0
  189.3200  175.7230  145.0880 C   0  0  0  0  0  0  0  0  0  0  0  0
  188.3440  176.4160  143.0010 O   0  0  0  0  0  0  0  0  0  0  0  0
  185.9860  177.0160  147.4340 C   0  0  0  0  0  2  0  0  0  0  0  0
  185.4250  178.3860  147.1510 C   0  0  0  0  0  2  0  0  0  0  0  0
  189.2410  175.5470  146.4320 N   0  0  0  0  0  0  0  0  0  0  0  0
  186.1460  177.6180  144.3420 C   0  0  0  0  0  3  0  0  0  0  0  0
  188.2740  174.1800  140.7010 C   0  0  2  0  0  3  0  0  0  0  0  0
  185.0120  178.2190  144.7150 C   0  0  0  0  0  3  0  0  0  0  0  0
  188.5190  173.8420  139.3710 O   0  0  0  0  0  1  0  0  0  0  0  0
  187.1460  176.8370  145.1200 C   0  0  0  0  0  0  0  0  0  0  0  0
  190.5010  175.1810  144.3230 C   0  0  1  0  0  3  0  0  0  0  0  0
  184.3910  178.2170  146.0690 C   0  0  0  0  0  2  0  0  0  0  0  0
  187.1200  176.6500  146.5300 C   0  0  0  0  0  0  0  0  0  0  0  0
  189.1250  173.6950  142.9420 N   0  0  0  0  0  2  0  0  0  0  0  0
  188.2580  176.3330  144.3970 C   0  0  0  0  0  0  0  0  0  0  0  0
  187.8400  175.6490  140.7740 C   0  0  0  0  0  2  0  0  0  0  0  0
  188.1790  175.9870  147.1480 C   0  0  0  0  0  3  0  0  0  0  0  0
  190.4840  174.8590  141.3740 O   0  0  0  0  0  1  0  0  0  0  0  0
  189.5150  173.8600  141.5390 C   0  0  2  0  0  3  0  0  0  0  0  0
  187.2830  176.0220  142.1400 C   0  0  0  0  0  2  0  0  0  0  0  0
  194.2600  175.5830  146.3750 C   0  0  0  0  0  3  0  0  0  0  0  0
  191.8030  175.3420  145.0490 C   0  0  0  0  0  0  0  0  0  0  0  0
  192.5010  174.1980  145.4520 C   0  0  0  0  0  3  0  0  0  0  0  0
  193.7260  174.3180  146.1150 C   0  0  0  0  0  3  0  0  0  0  0  0
  193.5700  176.7300  145.9700 C   0  0  0  0  0  3  0  0  0  0  0  0
  192.3460  176.6110  145.3070 C   0  0  0  0  0  3  0  0  0  0  0  0
  1 12  1  0  0  0  0
  2  6  1  0  0  0  0
  3 16  1  0  0  0  0
  5  4  1  0  0  0  0
  6 18  2  0  0  0  0
  7  9  2  0  0  0  0
  7 11  1  0  0  0  0
  8 10  1  6  0  0  0
  8 17  1  0  0  0  0
  8 20  1  0  0  0  0
  9 13  1  0  0  0  0
 11 14  2  0  0  0  0
 12 23  1  1  0  0  0
 12  2  1  0  0  0  0
 13  5  1  0  0  0  0
 14 18  1  0  0  0  0
 14  4  1  0  0  0  0
 15  1  1  0  0  0  0
 16  2  2  0  0  0  0
 16 11  1  0  0  0  0
 17 21  1  0  0  0  0
 20 19  1  1  0  0  0
 20 15  1  0  0  0  0
 21  3  1  0  0  0  0
 23 27  2  0  0  0  0
 23 24  1  0  0  0  0
 24 25  2  0  0  0  0
 25 22  1  0  0  0  0
 26 22  2  0  0  0  0
 27 26  1  0  0  0  0
M  END
>  <MODEL>
1

>  <REMARK>
 VINA RESULT:      -8.6      0.000      0.000
  Name = 
  1 active torsions:
  status: ('A' for Active; 'I' for Inactive)
    1  A    between atoms: C_9  and  C_15
                            x       y       z     vdW  Elec       q    Type
                         _______ _______ _______ _____ _____    ______ ____

>  <TORSDO>
F 1

$$$$
=
 OpenBabel11052418263D

 27 30  0  0  1  0  0  0  0  0999 V2000
  191.2990  176.0210  142.9410 C   0  0  0  0  0  2  0  0  0  0  0  0
  188.8930  176.1970  143.7060 C   0  0  0  0  0  0  0  0  0  0  0  0
  189.7210  175.9630  145.9530 O   0  0  0  0  0  0  0  0  0  0  0  0
  185.8220  178.9670  144.7930 C   0  0  0  0  0  2  0  0  0  0  0  0
  184.9790  178.6340  145.9980 C   0  0  0  0  0  2  0  0  0  0  0  0
  188.0600  176.7780  142.8050 N   0  0  0  0  0  0  0  0  0  0  0  0
  187.5970  177.5470  146.9800 C   0  0  0  0  0  3  0  0  0  0  0  0
  192.8770  176.4130  146.3140 C   0  0  2  0  0  3  0  0  0  0  0  0
  186.7380  178.2720  147.7040 C   0  0  0  0  0  3  0  0  0  0  0  0
  194.0830  175.9630  146.8480 O   0  0  0  0  0  1  0  0  0  0  0  0
  187.7530  177.3880  145.5080 C   0  0  0  0  0  0  0  0  0  0  0  0
  189.9930  175.2780  143.2360 C   0  0  1  0  0  3  0  0  0  0  0  0
  185.6920  179.2030  147.1980 C   0  0  0  0  0  2  0  0  0  0  0  0
  186.8890  177.9530  144.5290 C   0  0  0  0  0  0  0  0  0  0  0  0
  191.7770  176.6910  144.1470 N   0  0  0  0  0  2  0  0  0  0  0  0
  188.7860  176.5190  145.0700 C   0  0  0  0  0  0  0  0  0  0  0  0
  191.7360  176.0430  147.2690 C   0  0  0  0  0  2  0  0  0  0  0  0
  187.0840  177.6370  143.1850 C   0  0  0  0  0  3  0  0  0  0  0  0
  192.2820  174.5130  144.9600 O   0  0  0  0  0  1  0  0  0  0  0  0
  192.7080  175.8470  144.9010 C   0  0  2  0  0  3  0  0  0  0  0  0
  190.4310  176.7380  146.9110 C   0  0  0  0  0  2  0  0  0  0  0  0
  188.8700  172.6990  139.9820 C   0  0  0  0  0  3  0  0  0  0  0  0
  189.5780  174.3850  142.1050 C   0  0  0  0  0  0  0  0  0  0  0  0
  190.4250  174.2510  140.9990 C   0  0  0  0  0  3  0  0  0  0  0  0
  190.0710  173.4110  139.9390 C   0  0  0  0  0  3  0  0  0  0  0  0
  188.0220  172.8240  141.0860 C   0  0  0  0  0  3  0  0  0  0  0  0
  188.3750  173.6630  142.1470 C   0  0  0  0  0  3  0  0  0  0  0  0
  1 12  1  0  0  0  0
  1 15  1  0  0  0  0
  2 16  1  0  0  0  0
  3 21  1  0  0  0  0
  4  5  1  0  0  0  0
  5 13  1  0  0  0  0
  6 18  1  0  0  0  0
  6  2  2  0  0  0  0
  7  9  2  0  0  0  0
  8 10  1  1  0  0  0
  8 17  1  0  0  0  0
 11  7  1  0  0  0  0
 12 23  1  6  0  0  0
 12  2  1  0  0  0  0
 13  9  1  0  0  0  0
 14  4  1  0  0  0  0
 14 11  1  0  0  0  0
 15 20  1  0  0  0  0
 16 11  2  0  0  0  0
 16  3  1  0  0  0  0
 18 14  2  0  0  0  0
 20 19  1  1  0  0  0
 20  8  1  0  0  0  0
 21 17  1  0  0  0  0
 22 26  1  0  0  0  0
 23 27  1  0  0  0  0
 24 23  2  0  0  0  0
 25 22  2  0  0  0  0
 25 24  1  0  0  0  0
 26 27  2  0  0  0  0
M  END
>  <MODEL>
2

>  <REMARK>
 VINA RESULT:      -8.3      2.264      4.998
  Name = 
  1 active torsions:
  status: ('A' for Active; 'I' for Inactive)
    1  A    between atoms: C_9  and  C_15
                            x       y       z     vdW  Elec       q    Type
                         _______ _______ _______ _____ _____    ______ ____

>  <TORSDO>
F 1

$$$$
=
 OpenBabel11052418263D

 27 30  0  0  1  0  0  0  0  0999 V2000
  190.9430  175.4710  142.7930 C   0  0  0  0  0  2  0  0  0  0  0  0
  188.4420  175.8600  142.7770 C   0  0  0  0  0  0  0  0  0  0  0  0
  188.4910  175.4600  145.1490 O   0  0  0  0  0  0  0  0  0  0  0  0
  185.4280  178.8820  143.0330 C   0  0  0  0  0  2  0  0  0  0  0  0
  184.2210  178.5920  143.8890 C   0  0  0  0  0  2  0  0  0  0  0  0
  187.9900  176.5550  141.7020 N   0  0  0  0  0  0  0  0  0  0  0  0
  186.2910  177.2100  145.5640 C   0  0  0  0  0  3  0  0  0  0  0  0
  191.3950  175.5770  146.5080 C   0  0  2  0  0  3  0  0  0  0  0  0
  185.3110  177.9910  146.0310 C   0  0  0  0  0  3  0  0  0  0  0  0
  192.3280  174.9880  147.3600 O   0  0  0  0  0  1  0  0  0  0  0  0
  186.8930  177.0910  144.2080 C   0  0  0  0  0  0  0  0  0  0  0  0
  189.5540  174.8530  142.6130 C   0  0  1  0  0  3  0  0  0  0  0  0
  184.5610  179.0410  145.2870 C   0  0  0  0  0  2  0  0  0  0  0  0
  186.4350  177.7770  143.0480 C   0  0  0  0  0  0  0  0  0  0  0  0
  191.0670  176.0450  144.1290 N   0  0  0  0  0  2  0  0  0  0  0  0
  187.9350  176.1410  144.0570 C   0  0  0  0  0  0  0  0  0  0  0  0
  189.9830  175.2880  147.0310 C   0  0  0  0  0  2  0  0  0  0  0  0
  187.0190  177.4930  141.8150 C   0  0  0  0  0  3  0  0  0  0  0  0
  191.1040  173.7990  144.9110 O   0  0  0  0  0  1  0  0  0  0  0  0
  191.6370  175.0840  145.0780 C   0  0  2  0  0  3  0  0  0  0  0  0
  188.9220  176.1240  146.3310 C   0  0  0  0  0  2  0  0  0  0  0  0
  189.3120  172.5250  139.0050 C   0  0  0  0  0  3  0  0  0  0  0  0
  189.4460  174.0490  141.3530 C   0  0  0  0  0  0  0  0  0  0  0  0
  190.5730  173.9160  140.5340 C   0  0  0  0  0  3  0  0  0  0  0  0
  190.5060  173.1580  139.3610 C   0  0  0  0  0  3  0  0  0  0  0  0
  188.1830  172.6500  139.8210 C   0  0  0  0  0  3  0  0  0  0  0  0
  188.2500  173.4080  140.9940 C   0  0  0  0  0  3  0  0  0  0  0  0
  1 15  1  0  0  0  0
  2 16  1  0  0  0  0
  3 21  1  0  0  0  0
  4 14  1  0  0  0  0
  4  5  1  0  0  0  0
  5 13  1  0  0  0  0
  6 18  1  0  0  0  0
  6  2  2  0  0  0  0
  7  9  2  0  0  0  0
  8 17  1  0  0  0  0
  8 10  1  1  0  0  0
 11  7  1  0  0  0  0
 12 23  1  6  0  0  0
 12  2  1  0  0  0  0
 12  1  1  0  0  0  0
 13  9  1  0  0  0  0
 14 11  1  0  0  0  0
 15 20  1  0  0  0  0
 16 11  2  0  0  0  0
 16  3  1  0  0  0  0
 18 14  2  0  0  0  0
 20 19  1  1  0  0  0
 20  8  1  0  0  0  0
 21 17  1  0  0  0  0
 22 25  2  0  0  0  0
 22 26  1  0  0  0  0
 24 23  2  0  0  0  0
 25 24  1  0  0  0  0
 26 27  2  0  0  0  0
 27 23  1  0  0  0  0
M  END
>  <MODEL>
3

>  <REMARK>
 VINA RESULT:      -7.9      2.164      5.049
  Name = 
  1 active torsions:
  status: ('A' for Active; 'I' for Inactive)
    1  A    between atoms: C_9  and  C_15
                            x       y       z     vdW  Elec       q    Type
                         _______ _______ _______ _____ _____    ______ ____

>  <TORSDO>
F 1

$$$$
=
 OpenBabel11052418263D

 27 30  0  0  1  0  0  0  0  0999 V2000
  188.1340  176.7030  142.4520 C   0  0  0  0  0  2  0  0  0  0  0  0
  189.6930  176.3850  144.4200 C   0  0  0  0  0  0  0  0  0  0  0  0
  189.9320  174.1010  143.7010 O   0  0  0  0  0  0  0  0  0  0  0  0
  193.7650  176.7420  145.6770 C   0  0  0  0  0  2  0  0  0  0  0  0
  194.3360  175.6240  146.5130 C   0  0  0  0  0  2  0  0  0  0  0  0
  190.2260  177.5360  144.9050 N   0  0  0  0  0  0  0  0  0  0  0  0
  192.5820  173.9790  144.7200 C   0  0  0  0  0  3  0  0  0  0  0  0
  188.9290  173.4820  140.7170 C   0  0  2  0  0  3  0  0  0  0  0  0
  193.8340  173.6720  145.0740 C   0  0  0  0  0  3  0  0  0  0  0  0
  188.1920  172.6660  139.8610 O   0  0  0  0  0  1  0  0  0  0  0  0
  191.8440  175.2720  144.7360 C   0  0  0  0  0  0  0  0  0  0  0  0
  188.2640  176.3570  143.9380 C   0  0  1  0  0  3  0  0  0  0  0  0
  194.8920  174.6040  145.5530 C   0  0  0  0  0  2  0  0  0  0  0  0
  192.3500  176.4950  145.2590 C   0  0  0  0  0  0  0  0  0  0  0  0
  188.8850  175.7440  141.6470 N   0  0  0  0  0  2  0  0  0  0  0  0
  190.5000  175.2410  144.2860 C   0  0  0  0  0  0  0  0  0  0  0  0
  189.5210  172.6260  141.8430 C   0  0  0  0  0  2  0  0  0  0  0  0
  191.5150  177.6090  145.3130 C   0  0  0  0  0  3  0  0  0  0  0  0
  187.1950  174.1770  142.2350 O   0  0  0  0  0  1  0  0  0  0  0  0
  188.0420  174.6270  141.2130 C   0  0  2  0  0  3  0  0  0  0  0  0
  190.5660  173.3750  142.6550 C   0  0  0  0  0  2  0  0  0  0  0  0
  185.5530  178.6790  146.3370 C   0  0  0  0  0  3  0  0  0  0  0  0
  187.3330  177.1620  144.7940 C   0  0  0  0  0  0  0  0  0  0  0  0
  186.7130  178.2910  144.2470 C   0  0  0  0  0  3  0  0  0  0  0  0
  185.8260  179.0490  145.0180 C   0  0  0  0  0  3  0  0  0  0  0  0
  186.1650  177.5490  146.8870 C   0  0  0  0  0  3  0  0  0  0  0  0
  187.0510  176.7900  146.1180 C   0  0  0  0  0  3  0  0  0  0  0  0
  1 12  1  0  0  0  0
  2  6  1  0  0  0  0
  3 16  1  0  0  0  0
  4  5  1  0  0  0  0
  6 18  2  0  0  0  0
  7 11  1  0  0  0  0
  7  9  2  0  0  0  0
  8 10  1  6  0  0  0
  8 20  1  0  0  0  0
  8 17  1  0  0  0  0
  9 13  1  0  0  0  0
 11 14  2  0  0  0  0
 12  2  1  0  0  0  0
 12 23  1  1  0  0  0
 13  5  1  0  0  0  0
 14 18  1  0  0  0  0
 14  4  1  0  0  0  0
 15  1  1  0  0  0  0
 16  2  2  0  0  0  0
 16 11  1  0  0  0  0
 17 21  1  0  0  0  0
 20 15  1  0  0  0  0
 20 19  1  1  0  0  0
 21  3  1  0  0  0  0
 22 26  1  0  0  0  0
 23 27  1  0  0  0  0
 24 23  2  0  0  0  0
 24 25  1  0  0  0  0
 25 22  2  0  0  0  0
 27 26  2  0  0  0  0
M  END
>  <MODEL>
4

>  <REMARK>
 VINA RESULT:      -7.8      1.309      5.868
  Name = 
  1 active torsions:
  status: ('A' for Active; 'I' for Inactive)
    1  A    between atoms: C_9  and  C_15
                            x       y       z     vdW  Elec       q    Type
                         _______ _______ _______ _____ _____    ______ ____

>  <TORSDO>
F 1

$$$$
=
 OpenBabel11052418263D

 27 30  0  0  1  0  0  0  0  0999 V2000
  191.0000  173.7550  145.2270 C   0  0  0  0  0  2  0  0  0  0  0  0
  189.8600  175.9720  144.7910 C   0  0  0  0  0  0  0  0  0  0  0  0
  189.1960  175.0690  142.6620 O   0  0  0  0  0  0  0  0  0  0  0  0
  186.2180  178.1400  145.3580 C   0  0  0  0  0  2  0  0  0  0  0  0
  185.7000  178.9490  144.1960 C   0  0  0  0  0  2  0  0  0  0  0  0
  189.5870  176.6920  145.9090 N   0  0  0  0  0  0  0  0  0  0  0  0
  186.8230  176.6330  142.6550 C   0  0  0  0  0  3  0  0  0  0  0  0
  189.4670  171.8860  142.3690 C   0  0  2  0  0  3  0  0  0  0  0  0
  185.6450  177.2210  142.4220 C   0  0  0  0  0  3  0  0  0  0  0  0
  189.9020  170.7990  141.6110 O   0  0  0  0  0  1  0  0  0  0  0  0
  187.7020  176.6320  143.8560 C   0  0  0  0  0  0  0  0  0  0  0  0
  191.1420  175.1830  144.6930 C   0  0  1  0  0  3  0  0  0  0  0  0
  184.8350  178.0280  143.3770 C   0  0  0  0  0  2  0  0  0  0  0  0
  187.4720  177.3910  145.0370 C   0  0  0  0  0  0  0  0  0  0  0  0
  189.9840  173.0340  144.4650 N   0  0  0  0  0  2  0  0  0  0  0  0
  188.9080  175.8920  143.7590 C   0  0  0  0  0  0  0  0  0  0  0  0
  189.0230  173.0100  141.4250 C   0  0  0  0  0  2  0  0  0  0  0  0
  188.4310  177.3840  146.0490 C   0  0  0  0  0  3  0  0  0  0  0  0
  191.5530  173.0470  142.6770 O   0  0  0  0  0  1  0  0  0  0  0  0
  190.5730  172.2980  143.3430 C   0  0  2  0  0  3  0  0  0  0  0  0
  188.2720  174.1150  142.1520 C   0  0  0  0  0  2  0  0  0  0  0  0
  194.5250  177.2780  146.3240 C   0  0  0  0  0  3  0  0  0  0  0  0
  192.3240  175.8950  145.2790 C   0  0  0  0  0  0  0  0  0  0  0  0
  193.1730  176.6130  144.4290 C   0  0  0  0  0  3  0  0  0  0  0  0
  194.2730  177.3010  144.9500 C   0  0  0  0  0  3  0  0  0  0  0  0
  193.6780  176.5660  147.1790 C   0  0  0  0  0  3  0  0  0  0  0  0
  192.5780  175.8790  146.6590 C   0  0  0  0  0  3  0  0  0  0  0  0
  2  6  1  0  0  0  0
  3 16  1  0  0  0  0
  5  4  1  0  0  0  0
  6 18  2  0  0  0  0
  7 11  1  0  0  0  0
  8 10  1  6  0  0  0
  8 20  1  0  0  0  0
  9  7  2  0  0  0  0
  9 13  1  0  0  0  0
 11 14  2  0  0  0  0
 12  2  1  0  0  0  0
 12  1  1  0  0  0  0
 12 23  1  1  0  0  0
 13  5  1  0  0  0  0
 14  4  1  0  0  0  0
 14 18  1  0  0  0  0
 15  1  1  0  0  0  0
 16 11  1  0  0  0  0
 16  2  2  0  0  0  0
 17 21  1  0  0  0  0
 17  8  1  0  0  0  0
 20 19  1  6  0  0  0
 20 15  1  0  0  0  0
 21  3  1  0  0  0  0
 22 26  1  0  0  0  0
 23 27  1  0  0  0  0
 24 25  1  0  0  0  0
 24 23  2  0  0  0  0
 25 22  2  0  0  0  0
 27 26  2  0  0  0  0
M  END
>  <MODEL>
5

>  <REMARK>
 VINA RESULT:      -7.6      1.605      2.202
  Name = 
  1 active torsions:
  status: ('A' for Active; 'I' for Inactive)
    1  A    between atoms: C_9  and  C_15
                            x       y       z     vdW  Elec       q    Type
                         _______ _______ _______ _____ _____    ______ ____

>  <TORSDO>
F 1

$$$$
=
 OpenBabel11052418263D

 27 30  0  0  1  0  0  0  0  0999 V2000
  187.8920  177.4920  142.9940 C   0  0  0  0  0  2  0  0  0  0  0  0
  189.4540  176.6030  144.7770 C   0  0  0  0  0  0  0  0  0  0  0  0
  189.6220  174.6010  143.4530 O   0  0  0  0  0  0  0  0  0  0  0  0
  193.5410  176.4930  146.0290 C   0  0  0  0  0  2  0  0  0  0  0  0
  194.0850  175.1740  146.5160 C   0  0  0  0  0  2  0  0  0  0  0  0
  190.0220  177.5610  145.5530 N   0  0  0  0  0  0  0  0  0  0  0  0
  192.2740  174.1340  144.3630 C   0  0  0  0  0  3  0  0  0  0  0  0
  188.5850  174.8560  140.4280 C   0  0  2  0  0  3  0  0  0  0  0  0
  193.5180  173.7080  144.6020 C   0  0  0  0  0  3  0  0  0  0  0  0
  187.8190  174.3260  139.3910 O   0  0  0  0  0  1  0  0  0  0  0  0
  191.5740  175.3900  144.7450 C   0  0  0  0  0  0  0  0  0  0  0  0
  188.0210  176.7460  144.3250 C   0  0  1  0  0  3  0  0  0  0  0  0
  194.6050  174.4440  145.3050 C   0  0  0  0  0  2  0  0  0  0  0  0
  192.1180  176.4080  145.5780 C   0  0  0  0  0  0  0  0  0  0  0  0
  188.6100  176.7730  141.9460 N   0  0  0  0  0  2  0  0  0  0  0  0
  190.2260  175.5200  144.3220 C   0  0  0  0  0  0  0  0  0  0  0  0
  189.1580  173.7060  141.2660 C   0  0  0  0  0  2  0  0  0  0  0  0
  191.3150  177.4860  145.9480 C   0  0  0  0  0  3  0  0  0  0  0  0
  186.8800  175.1490  142.1020 O   0  0  0  0  0  1  0  0  0  0  0  0
  187.7330  175.8420  141.2320 C   0  0  2  0  0  3  0  0  0  0  0  0
  190.2290  174.1760  142.2390 C   0  0  0  0  0  2  0  0  0  0  0  0
  185.4770  178.3340  147.4080 C   0  0  0  0  0  3  0  0  0  0  0  0
  187.1190  177.3070  145.3830 C   0  0  0  0  0  0  0  0  0  0  0  0
  187.0280  176.6520  146.6160 C   0  0  0  0  0  3  0  0  0  0  0  0
  186.2080  177.1630  147.6260 C   0  0  0  0  0  3  0  0  0  0  0  0
  185.5670  178.9960  146.1800 C   0  0  0  0  0  3  0  0  0  0  0  0
  186.3870  178.4860  145.1700 C   0  0  0  0  0  3  0  0  0  0  0  0
  1 12  1  0  0  0  0
  2  6  1  0  0  0  0
  3 16  1  0  0  0  0
  4  5  1  0  0  0  0
  6 18  2  0  0  0  0
  7  9  2  0  0  0  0
  7 11  1  0  0  0  0
  8 10  1  6  0  0  0
  8 20  1  0  0  0  0
  8 17  1  0  0  0  0
  9 13  1  0  0  0  0
 11 14  2  0  0  0  0
 12  2  1  0  0  0  0
 12 23  1  1  0  0  0
 13  5  1  0  0  0  0
 14 18  1  0  0  0  0
 14  4  1  0  0  0  0
 15  1  1  0  0  0  0
 16 11  1  0  0  0  0
 16  2  2  0  0  0  0
 17 21  1  0  0  0  0
 20 15  1  0  0  0  0
 20 19  1  1  0  0  0
 21  3  1  0  0  0  0
 22 25  1  0  0  0  0
 23 24  1  0  0  0  0
 24 25  2  0  0  0  0
 26 22  2  0  0  0  0
 27 23  2  0  0  0  0
 27 26  1  0  0  0  0
M  END
>  <MODEL>
6

>  <REMARK>
 VINA RESULT:      -7.5      1.279      5.734
  Name = 
  1 active torsions:
  status: ('A' for Active; 'I' for Inactive)
    1  A    between atoms: C_9  and  C_15
                            x       y       z     vdW  Elec       q    Type
                         _______ _______ _______ _____ _____    ______ ____

>  <TORSDO>
F 1

$$$$
=
 OpenBabel11052418263D

 27 30  0  0  1  0  0  0  0  0999 V2000
  187.7490  176.1060  146.2520 C   0  0  0  0  0  2  0  0  0  0  0  0
  188.1980  175.9890  143.7640 C   0  0  0  0  0  0  0  0  0  0  0  0
  190.5240  176.2900  144.2950 O   0  0  0  0  0  0  0  0  0  0  0  0
  188.9630  173.3000  140.5280 C   0  0  0  0  0  2  0  0  0  0  0  0
  190.0360  173.6850  139.5410 C   0  0  0  0  0  2  0  0  0  0  0  0
  187.2150  175.3880  143.0450 N   0  0  0  0  0  0  0  0  0  0  0  0
  191.3160  174.7710  142.0270 C   0  0  0  0  0  3  0  0  0  0  0  0
  191.3110  175.8110  147.3690 C   0  0  2  0  0  3  0  0  0  0  0  0
  191.9440  174.0840  141.0690 C   0  0  0  0  0  3  0  0  0  0  0  0
  191.9830  176.2630  148.5030 O   0  0  0  0  0  1  0  0  0  0  0  0
  189.8730  174.8770  142.3770 C   0  0  0  0  0  0  0  0  0  0  0  0
  187.8460  176.8760  144.9320 C   0  0  1  0  0  3  0  0  0  0  0  0
  191.3360  173.1490  140.0810 C   0  0  0  0  0  2  0  0  0  0  0  0
  188.8080  174.2890  141.6390 C   0  0  0  0  0  0  0  0  0  0  0  0
  189.0290  175.4720  146.5550 N   0  0  0  0  0  2  0  0  0  0  0  0
  189.5450  175.7150  143.4730 C   0  0  0  0  0  0  0  0  0  0  0  0
  192.0960  176.2290  146.1200 C   0  0  0  0  0  2  0  0  0  0  0  0
  187.4920  174.5560  142.0120 C   0  0  0  0  0  3  0  0  0  0  0  0
  189.8290  177.6700  146.9890 O   0  0  0  0  0  1  0  0  0  0  0  0
  189.8700  176.3290  147.3950 C   0  0  2  0  0  3  0  0  0  0  0  0
  191.5930  175.5390  144.8600 C   0  0  0  0  0  2  0  0  0  0  0  0
  184.3800  179.3420  144.2900 C   0  0  0  0  0  3  0  0  0  0  0  0
  186.6420  177.7350  144.6840 C   0  0  0  0  0  0  0  0  0  0  0  0
  185.5280  177.6010  145.5210 C   0  0  0  0  0  3  0  0  0  0  0  0
  184.3990  178.4010  145.3240 C   0  0  0  0  0  3  0  0  0  0  0  0
  185.4910  179.4840  143.4540 C   0  0  0  0  0  3  0  0  0  0  0  0
  186.6200  178.6850  143.6500 C   0  0  0  0  0  3  0  0  0  0  0  0
  1 15  1  0  0  0  0
  2 12  1  0  0  0  0
  3 21  1  0  0  0  0
  4 14  1  0  0  0  0
  5 13  1  0  0  0  0
  5  4  1  0  0  0  0
  6  2  2  0  0  0  0
  7 11  1  0  0  0  0
  8 20  1  0  0  0  0
  8 10  1  1  0  0  0
  9  7  2  0  0  0  0
 11 16  2  0  0  0  0
 12 23  1  6  0  0  0
 12  1  1  0  0  0  0
 13  9  1  0  0  0  0
 14 18  2  0  0  0  0
 14 11  1  0  0  0  0
 15 20  1  0  0  0  0
 16  2  1  0  0  0  0
 16  3  1  0  0  0  0
 17  8  1  0  0  0  0
 18  6  1  0  0  0  0
 20 19  1  6  0  0  0
 21 17  1  0  0  0  0
 22 25  1  0  0  0  0
 23 24  1  0  0  0  0
 25 24  2  0  0  0  0
 26 27  1  0  0  0  0
 26 22  2  0  0  0  0
 27 23  2  0  0  0  0
M  END
>  <MODEL>
7

>  <REMARK>
 VINA RESULT:      -7.5      2.160      6.928
  Name = 
  1 active torsions:
  status: ('A' for Active; 'I' for Inactive)
    1  A    between atoms: C_9  and  C_15
                            x       y       z     vdW  Elec       q    Type
                         _______ _______ _______ _____ _____    ______ ____

>  <TORSDO>
F 1

$$$$
=
 OpenBabel11052418263D

 27 30  0  0  1  0  0  0  0  0999 V2000
  188.9890  175.9680  142.4710 C   0  0  0  0  0  2  0  0  0  0  0  0
  190.5740  175.6570  144.4200 C   0  0  0  0  0  0  0  0  0  0  0  0
  190.8250  173.3790  143.6900 O   0  0  0  0  0  0  0  0  0  0  0  0
  194.6560  176.0470  145.6320 C   0  0  0  0  0  2  0  0  0  0  0  0
  195.2480  174.9320  146.4560 C   0  0  0  0  0  2  0  0  0  0  0  0
  191.1010  176.8110  144.9030 N   0  0  0  0  0  0  0  0  0  0  0  0
  193.4880  173.2780  144.6770 C   0  0  0  0  0  3  0  0  0  0  0  0
  189.7940  172.7610  140.7150 C   0  0  2  0  0  3  0  0  0  0  0  0
  194.7470  172.9800  145.0160 C   0  0  0  0  0  3  0  0  0  0  0  0
  189.0540  171.9410  139.8650 O   0  0  0  0  0  1  0  0  0  0  0  0
  192.7390  174.5630  144.7070 C   0  0  0  0  0  0  0  0  0  0  0  0
  189.1400  175.6180  143.9540 C   0  0  1  0  0  3  0  0  0  0  0  0
  195.8010  173.9210  145.4860 C   0  0  0  0  0  2  0  0  0  0  0  0
  193.2390  175.7890  145.2290 C   0  0  0  0  0  0  0  0  0  0  0  0
  189.7390  175.0190  141.6540 N   0  0  0  0  0  2  0  0  0  0  0  0
  191.3890  174.5210  144.2730 C   0  0  0  0  0  0  0  0  0  0  0  0
  190.4070  171.9060  141.8310 C   0  0  0  0  0  2  0  0  0  0  0  0
  192.3950  176.8950  145.2970 C   0  0  0  0  0  3  0  0  0  0  0  0
  188.0710  173.4340  142.2550 O   0  0  0  0  0  1  0  0  0  0  0  0
  188.9020  173.8960  141.2250 C   0  0  2  0  0  3  0  0  0  0  0  0
  191.4540  172.6630  142.6340 C   0  0  0  0  0  2  0  0  0  0  0  0
  186.4340  177.9040  146.3930 C   0  0  0  0  0  3  0  0  0  0  0  0
  188.2110  176.4110  144.8240 C   0  0  0  0  0  0  0  0  0  0  0  0
  187.5530  177.5200  144.2810 C   0  0  0  0  0  3  0  0  0  0  0  0
  186.6680  178.2660  145.0640 C   0  0  0  0  0  3  0  0  0  0  0  0
  187.0850  176.7950  146.9410 C   0  0  0  0  0  3  0  0  0  0  0  0
  187.9690  176.0470  146.1580 C   0  0  0  0  0  3  0  0  0  0  0  0
  1 12  1  0  0  0  0
  2  6  1  0  0  0  0
  3 16  1  0  0  0  0
  4  5  1  0  0  0  0
  6 18  2  0  0  0  0
  7 11  1  0  0  0  0
  7  9  2  0  0  0  0
  8 10  1  6  0  0  0
  8 20  1  0  0  0  0
  8 17  1  0  0  0  0
  9 13  1  0  0  0  0
 11 14  2  0  0  0  0
 12  2  1  0  0  0  0
 12 23  1  1  0  0  0
 13  5  1  0  0  0  0
 14 18  1  0  0  0  0
 14  4  1  0  0  0  0
 15  1  1  0  0  0  0
 16  2  2  0  0  0  0
 16 11  1  0  0  0  0
 17 21  1  0  0  0  0
 20 15  1  0  0  0  0
 20 19  1  1  0  0  0
 21  3  1  0  0  0  0
 22 26  1  0  0  0  0
 23 27  1  0  0  0  0
 24 23  2  0  0  0  0
 24 25  1  0  0  0  0
 25 22  2  0  0  0  0
 27 26  2  0  0  0  0
M  END
>  <MODEL>
8

>  <REMARK>
 VINA RESULT:      -7.3      1.614      6.084
  Name = 
  1 active torsions:
  status: ('A' for Active; 'I' for Inactive)
    1  A    between atoms: C_9  and  C_15
                            x       y       z     vdW  Elec       q    Type
                         _______ _______ _______ _____ _____    ______ ____

>  <TORSDO>
F 1

$$$$
=
 OpenBabel11052418263D

 27 30  0  0  1  0  0  0  0  0999 V2000
  192.1190  176.3080  144.3260 C   0  0  0  0  0  2  0  0  0  0  0  0
  189.8340  176.3470  143.2380 C   0  0  0  0  0  0  0  0  0  0  0  0
  188.9750  175.4490  145.2980 O   0  0  0  0  0  0  0  0  0  0  0  0
  186.4070  178.8020  142.5170 C   0  0  0  0  0  2  0  0  0  0  0  0
  185.0490  178.1710  142.6890 C   0  0  0  0  0  2  0  0  0  0  0  0
  189.7310  177.1920  142.1800 N   0  0  0  0  0  0  0  0  0  0  0  0
  186.4790  176.7510  144.9120 C   0  0  0  0  0  3  0  0  0  0  0  0
  190.9450  175.6590  147.8210 C   0  0  2  0  0  3  0  0  0  0  0  0
  185.2490  177.2700  144.9880 C   0  0  0  0  0  3  0  0  0  0  0  0
  191.5410  175.0300  148.9140 O   0  0  0  0  0  1  0  0  0  0  0  0
  187.6010  177.0140  143.9700 C   0  0  0  0  0  0  0  0  0  0  0  0
  191.1020  175.5610  143.4570 C   0  0  1  0  0  3  0  0  0  0  0  0
  184.6690  178.3460  144.1360 C   0  0  0  0  0  2  0  0  0  0  0  0
  187.5310  177.8680  142.8340 C   0  0  0  0  0  0  0  0  0  0  0  0
  191.5450  176.5870  145.6390 N   0  0  0  0  0  2  0  0  0  0  0  0
  188.7910  176.2700  144.1770 C   0  0  0  0  0  0  0  0  0  0  0  0
  189.5440  175.0740  147.6080 C   0  0  0  0  0  2  0  0  0  0  0  0
  188.6230  177.9420  141.9700 C   0  0  0  0  0  3  0  0  0  0  0  0
  191.7430  174.2500  146.0390 O   0  0  0  0  0  1  0  0  0  0  0  0
  191.8620  175.5290  146.6020 C   0  0  2  0  0  3  0  0  0  0  0  0
  188.7180  175.8900  146.6260 C   0  0  0  0  0  2  0  0  0  0  0  0
  192.9060  174.0850  139.8420 C   0  0  0  0  0  3  0  0  0  0  0  0
  191.7090  175.0450  142.1870 C   0  0  0  0  0  0  0  0  0  0  0  0
  192.9650  175.5180  141.7930 C   0  0  0  0  0  3  0  0  0  0  0  0
  193.5620  175.0410  140.6220 C   0  0  0  0  0  3  0  0  0  0  0  0
  191.6520  173.6050  140.2320 C   0  0  0  0  0  3  0  0  0  0  0  0
  191.0550  174.0810  141.4030 C   0  0  0  0  0  3  0  0  0  0  0  0
  1 15  1  0  0  0  0
  2 12  1  0  0  0  0
  2 16  1  0  0  0  0
  3 21  1  0  0  0  0
  4  5  1  0  0  0  0
  4 14  1  0  0  0  0
  5 13  1  0  0  0  0
  6  2  2  0  0  0  0
  7  9  2  0  0  0  0
  8 10  1  1  0  0  0
 11 16  2  0  0  0  0
 11  7  1  0  0  0  0
 12 23  1  6  0  0  0
 12  1  1  0  0  0  0
 13  9  1  0  0  0  0
 14 11  1  0  0  0  0
 15 20  1  0  0  0  0
 16  3  1  0  0  0  0
 17  8  1  0  0  0  0
 18  6  1  0  0  0  0
 18 14  2  0  0  0  0
 20 19  1  6  0  0  0
 20  8  1  0  0  0  0
 21 17  1  0  0  0  0
 22 26  2  0  0  0  0
 22 25  1  0  0  0  0
 24 23  1  0  0  0  0
 25 24  2  0  0  0  0
 26 27  1  0  0  0  0
 27 23  2  0  0  0  0
M  END
>  <MODEL>
9

>  <REMARK>
 VINA RESULT:      -7.2      2.713      4.825
  Name = 
  1 active torsions:
  status: ('A' for Active; 'I' for Inactive)
    1  A    between atoms: C_9  and  C_15
                            x       y       z     vdW  Elec       q    Type
                         _______ _______ _______ _____ _____    ______ ____

>  <TORSDO>
F 1

$$$$
