=
 OpenBabel11052418183D

 28 30  0  0  1  0  0  0  0  0999 V2000
  187.0080  178.6020  142.5410 C   0  0  0  0  0  2  0  0  0  0  0  0
  184.6180  177.8710  144.2560 C   0  0  0  0  0  1  0  0  0  0  0  0
  186.0520  177.9080  144.7860 C   0  0  1  0  0  0  0  0  0  0  0  0
  187.2150  175.8530  141.2020 O   0  0  0  0  0  0  0  0  0  0  0  0
  184.3260  177.7370  147.3530 O   0  0  0  0  0  1  0  0  0  0  0  0
  186.3470  179.2160  145.2220 O   0  0  0  0  0  0  0  0  0  0  0  0
  187.5560  176.5800  146.3490 C   0  0  0  0  0  2  0  0  0  0  0  0
  188.2570  175.9430  145.1650 C   0  0  1  0  0  3  0  0  0  0  0  0
  186.1310  176.9930  146.0090 C   0  0  1  0  0  3  0  0  0  0  0  0
  188.2800  174.1320  142.2880 O   0  0  0  0  0  0  0  0  0  0  0  0
  188.3700  176.9510  144.0150 C   0  0  1  0  0  3  0  0  0  0  0  0
  187.2710  177.0920  140.4830 C   0  0  0  0  0  2  0  0  0  0  0  0
  189.1050  176.2990  142.8260 C   0  0  0  0  0  2  0  0  0  0  0  0
  188.2120  175.3680  142.0600 C   0  0  0  0  0  0  0  0  0  0  0  0
  185.6910  177.9030  147.1180 C   0  0  1  0  0  3  0  0  0  0  0  0
  187.8160  178.2730  141.2880 C   0  0  0  0  0  2  0  0  0  0  0  0
  186.9710  177.4900  143.6090 C   0  0  2  0  0  3  0  0  0  0  0  0
  185.9480  179.2960  146.5740 C   0  0  0  0  0  2  0  0  0  0  0  0
  189.6250  175.3680  145.5780 C   0  0  2  0  0  3  0  0  0  0  0  0
  189.8160  173.1700  145.3640 C   0  0  0  0  0  1  0  0  0  0  0  0
  189.4710  174.1670  146.2790 O   0  0  0  0  0  0  0  0  0  0  0  0
  190.5060  176.3610  146.3520 C   0  0  2  0  0  3  0  0  0  0  0  0
  191.8410  176.4230  145.7470 C   0  0  0  0  0  0  0  0  0  0  0  0
  192.9390  176.4740  145.2510 C   0  0  0  0  0  0  0  0  0  0  0  0
  194.2710  176.5360  144.6490 C   0  0  0  0  0  1  0  0  0  0  0  0
  190.6130  175.9960  147.6980 O   0  0  0  0  0  0  0  0  0  0  0  0
  191.2030  177.0960  148.3240 C   0  0  0  0  0  2  0  0  0  0  0  0
  190.2940  178.1530  148.3610 O   0  0  0  0  0  1  0  0  0  0  0  0
  3  2  1  6  0  0  0
  3  6  1  0  0  0  0
  3  9  1  0  0  0  0
  4 14  1  0  0  0  0
  6 18  1  0  0  0  0
  8 19  1  1  0  0  0
  8  7  1  0  0  0  0
  9  7  1  1  0  0  0
  9 15  1  0  0  0  0
 11 13  1  6  0  0  0
 11  8  1  0  0  0  0
 12  4  1  0  0  0  0
 12 16  1  0  0  0  0
 14 10  2  0  0  0  0
 14 13  1  0  0  0  0
 15  5  1  6  0  0  0
 16  1  1  0  0  0  0
 17  1  1  6  0  0  0
 17 11  1  0  0  0  0
 17  3  1  0  0  0  0
 18 15  1  0  0  0  0
 19 21  1  1  0  0  0
 19 22  1  0  0  0  0
 20 21  1  0  0  0  0
 22 23  1  6  0  0  0
 22 26  1  0  0  0  0
 24 23  3  0  0  0  0
 25 24  1  0  0  0  0
 26 27  1  0  0  0  0
 27 28  1  0  0  0  0
M  END
>  <MODEL>
1

>  <REMARK>
 VINA RESULT:      -6.4      0.000      0.000
  Name = 
  6 active torsions:
  status: ('A' for Active; 'I' for Inactive)
    1  A    between atoms: C_9  and  C_12
    2  A    between atoms: C_9  and  C_13
    3  A    between atoms: C_9  and  O_14
    4  A    between atoms: C_10  and  C_13
    5  A    between atoms: C_13  and  O_24
    6  A    between atoms: O_14  and  C_18
                            x       y       z     vdW  Elec       q    Type
                         _______ _______ _______ _____ _____    ______ ____

>  <TORSDO>
F 6

$$$$
=
 OpenBabel11052418183D

 28 30  0  0  1  0  0  0  0  0999 V2000
  188.2640  175.3890  147.3190 C   0  0  0  0  0  2  0  0  0  0  0  0
  186.9930  178.0950  147.8220 C   0  0  0  0  0  1  0  0  0  0  0  0
  186.9250  177.3720  146.4760 C   0  0  1  0  0  0  0  0  0  0  0  0
  191.0990  176.4970  146.9620 O   0  0  0  0  0  0  0  0  0  0  0  0
  184.8300  179.6390  146.1980 O   0  0  0  0  0  1  0  0  0  0  0  0
  185.8090  176.5110  146.4730 O   0  0  0  0  0  0  0  0  0  0  0  0
  187.0590  177.9170  143.9950 C   0  0  0  0  0  2  0  0  0  0  0  0
  188.4820  177.3990  143.9380 C   0  0  1  0  0  3  0  0  0  0  0  0
  186.6930  178.4190  145.3850 C   0  0  1  0  0  3  0  0  0  0  0  0
  191.7300  177.3840  144.9400 O   0  0  0  0  0  0  0  0  0  0  0  0
  188.6440  176.1980  144.8790 C   0  0  1  0  0  3  0  0  0  0  0  0
  190.7880  175.3610  147.7780 C   0  0  0  0  0  2  0  0  0  0  0  0
  190.0890  175.6660  144.7940 C   0  0  0  0  0  2  0  0  0  0  0  0
  191.0470  176.5280  145.5610 C   0  0  0  0  0  0  0  0  0  0  0  0
  185.2000  178.5620  145.3910 C   0  0  1  0  0  3  0  0  0  0  0  0
  189.5540  174.5730  147.3330 C   0  0  0  0  0  2  0  0  0  0  0  0
  188.2460  176.5740  146.3330 C   0  0  2  0  0  3  0  0  0  0  0  0
  184.7080  177.2680  146.0120 C   0  0  0  0  0  2  0  0  0  0  0  0
  188.8920  177.0690  142.4900 C   0  0  2  0  0  3  0  0  0  0  0  0
  190.5180  178.5710  142.5770 C   0  0  0  0  0  1  0  0  0  0  0  0
  189.3910  178.2030  141.8410 O   0  0  0  0  0  0  0  0  0  0  0  0
  187.7800  176.3960  141.6700 C   0  0  2  0  0  3  0  0  0  0  0  0
  188.1960  175.0460  141.2760 C   0  0  0  0  0  0  0  0  0  0  0  0
  188.5370  173.9370  140.9500 C   0  0  0  0  0  0  0  0  0  0  0  0
  188.9520  172.5900  140.5540 C   0  0  0  0  0  1  0  0  0  0  0  0
  187.4680  177.1480  140.5320 O   0  0  0  0  0  0  0  0  0  0  0  0
  186.0750  177.2430  140.5330 C   0  0  0  0  0  2  0  0  0  0  0  0
  185.6980  178.5350  140.8970 O   0  0  0  0  0  1  0  0  0  0  0  0
  1 16  1  0  0  0  0
  3  2  1  1  0  0  0
  4 12  1  0  0  0  0
  6  3  1  0  0  0  0
  8 19  1  6  0  0  0
  8  7  1  0  0  0  0
  8 11  1  0  0  0  0
  9  7  1  6  0  0  0
  9 15  1  0  0  0  0
  9  3  1  0  0  0  0
 10 14  2  0  0  0  0
 11 13  1  1  0  0  0
 11 17  1  0  0  0  0
 13 14  1  0  0  0  0
 14  4  1  0  0  0  0
 15 18  1  0  0  0  0
 15  5  1  1  0  0  0
 16 12  1  0  0  0  0
 17  3  1  0  0  0  0
 17  1  1  1  0  0  0
 18  6  1  0  0  0  0
 19 21  1  6  0  0  0
 21 20  1  0  0  0  0
 22 23  1  6  0  0  0
 22 19  1  0  0  0  0
 24 23  3  0  0  0  0
 25 24  1  0  0  0  0
 26 27  1  0  0  0  0
 26 22  1  0  0  0  0
 27 28  1  0  0  0  0
M  END
>  <MODEL>
2

>  <REMARK>
 VINA RESULT:      -6.0      1.774      5.397
  Name = 
  6 active torsions:
  status: ('A' for Active; 'I' for Inactive)
    1  A    between atoms: C_9  and  C_12
    2  A    between atoms: C_9  and  C_13
    3  A    between atoms: C_9  and  O_14
    4  A    between atoms: C_10  and  C_13
    5  A    between atoms: C_13  and  O_24
    6  A    between atoms: O_14  and  C_18
                            x       y       z     vdW  Elec       q    Type
                         _______ _______ _______ _____ _____    ______ ____

>  <TORSDO>
F 6

$$$$
=
 OpenBabel11052418183D

 28 30  0  0  1  0  0  0  0  0999 V2000
  185.2290  177.1080  145.0980 C   0  0  0  0  0  2  0  0  0  0  0  0
  186.2470  179.0100  142.9680 C   0  0  0  0  0  1  0  0  0  0  0  0
  187.0330  177.7890  143.4500 C   0  0  1  0  0  0  0  0  0  0  0  0
  185.9660  178.9320  147.4470 O   0  0  0  0  0  0  0  0  0  0  0  0
  188.5350  178.6640  140.8840 O   0  0  0  0  0  1  0  0  0  0  0  0
  186.6470  176.6660  142.6900 O   0  0  0  0  0  0  0  0  0  0  0  0
  189.4330  177.1440  143.9940 C   0  0  0  0  0  2  0  0  0  0  0  0
  189.1470  177.2550  145.4780 C   0  0  1  0  0  3  0  0  0  0  0  0
  188.5160  178.0390  143.1710 C   0  0  1  0  0  3  0  0  0  0  0  0
  188.1240  178.9610  148.2340 O   0  0  0  0  0  0  0  0  0  0  0  0
  187.7160  176.7880  145.7760 C   0  0  1  0  0  3  0  0  0  0  0  0
  184.6990  178.2750  147.3210 C   0  0  0  0  0  2  0  0  0  0  0  0
  187.4460  176.8830  147.2910 C   0  0  0  0  0  2  0  0  0  0  0  0
  187.1850  178.2960  147.7240 C   0  0  0  0  0  0  0  0  0  0  0  0
  188.6570  177.5770  141.7500 C   0  0  1  0  0  3  0  0  0  0  0  0
  184.7360  176.9620  146.5350 C   0  0  0  0  0  2  0  0  0  0  0  0
  186.6830  177.5990  144.9480 C   0  0  2  0  0  3  0  0  0  0  0  0
  187.4840  176.6340  141.5530 C   0  0  0  0  0  2  0  0  0  0  0  0
  190.1990  176.4880  146.3020 C   0  0  2  0  0  3  0  0  0  0  0  0
  190.9980  176.6800  148.3590 C   0  0  0  0  0  1  0  0  0  0  0  0
  190.9060  177.3550  147.1410 O   0  0  0  0  0  0  0  0  0  0  0  0
  191.1480  175.6320  145.4490 C   0  0  2  0  0  3  0  0  0  0  0  0
  190.5560  174.3110  145.2130 C   0  0  0  0  0  0  0  0  0  0  0  0
  190.0680  173.2260  145.0190 C   0  0  0  0  0  0  0  0  0  0  0  0
  189.4760  171.9090  144.7850 C   0  0  0  0  0  1  0  0  0  0  0  0
  192.3930  175.4890  146.0720 O   0  0  0  0  0  0  0  0  0  0  0  0
  193.3290  175.6480  145.0480 C   0  0  0  0  0  2  0  0  0  0  0  0
  193.0050  176.7750  144.2930 O   0  0  0  0  0  1  0  0  0  0  0  0
  1 16  1  0  0  0  0
  3  2  1  6  0  0  0
  3 17  1  0  0  0  0
  4 14  1  0  0  0  0
  6  3  1  0  0  0  0
  7  8  1  0  0  0  0
  8 11  1  0  0  0  0
  8 19  1  1  0  0  0
  9  3  1  0  0  0  0
  9  7  1  1  0  0  0
 11 13  1  1  0  0  0
 12  4  1  0  0  0  0
 13 14  1  0  0  0  0
 14 10  2  0  0  0  0
 15  5  1  6  0  0  0
 15  9  1  0  0  0  0
 16 12  1  0  0  0  0
 17  1  1  6  0  0  0
 17 11  1  0  0  0  0
 18 15  1  0  0  0  0
 18  6  1  0  0  0  0
 19 21  1  6  0  0  0
 21 20  1  0  0  0  0
 22 23  1  1  0  0  0
 22 26  1  0  0  0  0
 22 19  1  0  0  0  0
 24 23  3  0  0  0  0
 25 24  1  0  0  0  0
 27 26  1  0  0  0  0
 28 27  1  0  0  0  0
M  END
>  <MODEL>
3

>  <REMARK>
 VINA RESULT:      -5.8      1.627      4.720
  Name = 
  6 active torsions:
  status: ('A' for Active; 'I' for Inactive)
    1  A    between atoms: C_9  and  C_12
    2  A    between atoms: C_9  and  C_13
    3  A    between atoms: C_9  and  O_14
    4  A    between atoms: C_10  and  C_13
    5  A    between atoms: C_13  and  O_24
    6  A    between atoms: O_14  and  C_18
                            x       y       z     vdW  Elec       q    Type
                         _______ _______ _______ _____ _____    ______ ____

>  <TORSDO>
F 6

$$$$
=
 OpenBabel11052418183D

 28 30  0  0  1  0  0  0  0  0999 V2000
  188.5020  175.5120  146.3710 C   0  0  0  0  0  2  0  0  0  0  0  0
  187.8580  178.0790  144.8920 C   0  0  0  0  0  1  0  0  0  0  0  0
  188.0090  176.7240  144.1980 C   0  0  1  0  0  0  0  0  0  0  0  0
  191.4990  176.1000  146.6170 O   0  0  0  0  0  0  0  0  0  0  0  0
  186.7250  178.5230  142.0260 O   0  0  0  0  0  1  0  0  0  0  0  0
  186.7640  176.0620  144.2070 O   0  0  0  0  0  0  0  0  0  0  0  0
  188.9970  175.7620  142.0600 C   0  0  0  0  0  2  0  0  0  0  0  0
  190.1970  175.2420  142.8260 C   0  0  1  0  0  3  0  0  0  0  0  0
  188.3770  176.9780  142.7360 C   0  0  1  0  0  3  0  0  0  0  0  0
  192.8970  175.6570  144.8490 O   0  0  0  0  0  0  0  0  0  0  0  0
  189.7700  174.7800  144.2250 C   0  0  1  0  0  3  0  0  0  0  0  0
  190.6890  175.6400  147.7060 C   0  0  0  0  0  2  0  0  0  0  0  0
  190.9950  174.2320  144.9850 C   0  0  0  0  0  2  0  0  0  0  0  0
  191.8700  175.3340  145.5030 C   0  0  0  0  0  0  0  0  0  0  0  0
  187.0330  177.1640  142.0950 C   0  0  1  0  0  3  0  0  0  0  0  0
  189.4840  174.7930  147.2920 C   0  0  0  0  0  2  0  0  0  0  0  0
  189.0710  175.9300  145.0000 C   0  0  2  0  0  3  0  0  0  0  0  0
  186.0740  176.4720  143.0450 C   0  0  0  0  0  2  0  0  0  0  0  0
  190.9170  174.1320  142.0360 C   0  0  2  0  0  3  0  0  0  0  0  0
  193.1150  174.0710  141.7630 C   0  0  0  0  0  1  0  0  0  0  0  0
  191.9550  174.6630  141.2620 O   0  0  0  0  0  0  0  0  0  0  0  0
  189.9730  173.2630  141.1900 C   0  0  2  0  0  3  0  0  0  0  0  0
  190.2830  171.8440  141.3940 C   0  0  0  0  0  0  0  0  0  0  0  0
  190.5390  170.6780  141.5630 C   0  0  0  0  0  0  0  0  0  0  0  0
  190.8500  169.2630  141.7670 C   0  0  0  0  0  1  0  0  0  0  0  0
  190.0790  173.5810  139.8320 O   0  0  0  0  0  0  0  0  0  0  0  0
  188.8470  173.2190  139.2810 C   0  0  0  0  0  2  0  0  0  0  0  0
  188.1790  174.3630  138.8450 O   0  0  0  0  0  1  0  0  0  0  0  0
  1 16  1  0  0  0  0
  3  6  1  0  0  0  0
  3  2  1  1  0  0  0
  3 17  1  0  0  0  0
  4 12  1  0  0  0  0
  7  8  1  0  0  0  0
  8 19  1  6  0  0  0
  8 11  1  0  0  0  0
  9  7  1  6  0  0  0
  9  3  1  0  0  0  0
 10 14  2  0  0  0  0
 11 13  1  1  0  0  0
 11 17  1  0  0  0  0
 13 14  1  0  0  0  0
 14  4  1  0  0  0  0
 15  5  1  1  0  0  0
 15  9  1  0  0  0  0
 15 18  1  0  0  0  0
 16 12  1  0  0  0  0
 17  1  1  1  0  0  0
 18  6  1  0  0  0  0
 19 21  1  6  0  0  0
 21 20  1  0  0  0  0
 22 23  1  6  0  0  0
 22 19  1  0  0  0  0
 23 24  3  0  0  0  0
 24 25  1  0  0  0  0
 26 22  1  0  0  0  0
 27 26  1  0  0  0  0
 28 27  1  0  0  0  0
M  END
>  <MODEL>
4

>  <REMARK>
 VINA RESULT:      -5.7      2.700      5.940
  Name = 
  6 active torsions:
  status: ('A' for Active; 'I' for Inactive)
    1  A    between atoms: C_9  and  C_12
    2  A    between atoms: C_9  and  C_13
    3  A    between atoms: C_9  and  O_14
    4  A    between atoms: C_10  and  C_13
    5  A    between atoms: C_13  and  O_24
    6  A    between atoms: O_14  and  C_18
                            x       y       z     vdW  Elec       q    Type
                         _______ _______ _______ _____ _____    ______ ____

>  <TORSDO>
F 6

$$$$
=
 OpenBabel11052418183D

 28 30  0  0  1  0  0  0  0  0999 V2000
  192.4430  172.3100  144.2760 C   0  0  0  0  0  2  0  0  0  0  0  0
  194.7410  173.9840  143.2240 C   0  0  0  0  0  1  0  0  0  0  0  0
  193.6490  174.5370  144.1400 C   0  0  1  0  0  0  0  0  0  0  0  0
  190.8120  172.4510  141.6860 O   0  0  0  0  0  0  0  0  0  0  0  0
  195.8250  176.7440  144.1750 O   0  0  0  0  0  1  0  0  0  0  0  0
  194.0230  174.3230  145.4820 O   0  0  0  0  0  0  0  0  0  0  0  0
  192.2580  176.6500  144.4100 C   0  0  0  0  0  2  0  0  0  0  0  0
  191.0600  175.9650  143.7830 C   0  0  1  0  0  3  0  0  0  0  0  0
  193.5720  176.0500  143.9270 C   0  0  1  0  0  3  0  0  0  0  0  0
  189.5190  174.2990  141.2520 O   0  0  0  0  0  0  0  0  0  0  0  0
  191.0270  174.4860  144.1890 C   0  0  1  0  0  3  0  0  0  0  0  0
  191.0410  171.2390  142.4130 C   0  0  0  0  0  2  0  0  0  0  0  0
  189.7910  173.8060  143.5650 C   0  0  0  0  0  2  0  0  0  0  0  0
  189.9940  173.5080  142.1090 C   0  0  0  0  0  0  0  0  0  0  0  0
  194.6260  176.5600  144.8640 C   0  0  1  0  0  3  0  0  0  0  0  0
  191.2510  171.4260  143.9180 C   0  0  0  0  0  2  0  0  0  0  0  0
  192.3470  173.7710  143.7930 C   0  0  2  0  0  3  0  0  0  0  0  0
  194.7880  175.4420  145.8780 C   0  0  0  0  0  2  0  0  0  0  0  0
  189.7540  176.7010  144.1390 C   0  0  2  0  0  3  0  0  0  0  0  0
  189.1890  177.9360  142.3880 C   0  0  0  0  0  1  0  0  0  0  0  0
  189.7720  178.0130  143.6540 O   0  0  0  0  0  0  0  0  0  0  0  0
  189.4100  176.6600  145.6360 C   0  0  2  0  0  3  0  0  0  0  0  0
  187.9540  176.7080  145.8160 C   0  0  0  0  0  0  0  0  0  0  0  0
  186.7580  176.7460  145.9620 C   0  0  0  0  0  0  0  0  0  0  0  0
  185.3070  176.7940  146.1390 C   0  0  0  0  0  1  0  0  0  0  0  0
  190.0060  177.7260  146.3190 O   0  0  0  0  0  0  0  0  0  0  0  0
  190.2220  177.2480  147.6140 C   0  0  0  0  0  2  0  0  0  0  0  0
  191.0280  176.1110  147.5610 O   0  0  0  0  0  1  0  0  0  0  0  0
  3  2  1  6  0  0  0
  3  6  1  0  0  0  0
  4 14  1  0  0  0  0
  4 12  1  0  0  0  0
  6 18  1  0  0  0  0
  8 19  1  1  0  0  0
  8 11  1  0  0  0  0
  8  7  1  0  0  0  0
  9  3  1  0  0  0  0
  9  7  1  1  0  0  0
  9 15  1  0  0  0  0
 10 14  2  0  0  0  0
 11 13  1  6  0  0  0
 12 16  1  0  0  0  0
 14 13  1  0  0  0  0
 15  5  1  6  0  0  0
 15 18  1  0  0  0  0
 16  1  1  0  0  0  0
 17  3  1  0  0  0  0
 17 11  1  0  0  0  0
 17  1  1  1  0  0  0
 19 21  1  1  0  0  0
 19 22  1  0  0  0  0
 20 21  1  0  0  0  0
 22 23  1  6  0  0  0
 22 26  1  0  0  0  0
 23 24  3  0  0  0  0
 24 25  1  0  0  0  0
 26 27  1  0  0  0  0
 28 27  1  0  0  0  0
M  END
>  <MODEL>
5

>  <REMARK>
 VINA RESULT:      -5.7      2.532      6.508
  Name = 
  6 active torsions:
  status: ('A' for Active; 'I' for Inactive)
    1  A    between atoms: C_9  and  C_12
    2  A    between atoms: C_9  and  C_13
    3  A    between atoms: C_9  and  O_14
    4  A    between atoms: C_10  and  C_13
    5  A    between atoms: C_13  and  O_24
    6  A    between atoms: O_14  and  C_18
                            x       y       z     vdW  Elec       q    Type
                         _______ _______ _______ _____ _____    ______ ____

>  <TORSDO>
F 6

$$$$
=
 OpenBabel11052418183D

 28 30  0  0  1  0  0  0  0  0999 V2000
  184.9200  177.3780  145.1450 C   0  0  0  0  0  2  0  0  0  0  0  0
  186.1640  179.0500  142.9430 C   0  0  0  0  0  1  0  0  0  0  0  0
  186.7730  177.7420  143.4510 C   0  0  1  0  0  0  0  0  0  0  0  0
  185.9600  179.1390  147.4260 O   0  0  0  0  0  0  0  0  0  0  0  0
  188.3370  178.3140  140.8370 O   0  0  0  0  0  1  0  0  0  0  0  0
  186.2130  176.6660  142.7320 O   0  0  0  0  0  0  0  0  0  0  0  0
  189.0630  176.7670  143.9780 C   0  0  0  0  0  2  0  0  0  0  0  0
  188.8250  176.9610  145.4630 C   0  0  1  0  0  3  0  0  0  0  0  0
  188.2700  177.7630  143.1420 C   0  0  1  0  0  3  0  0  0  0  0  0
  188.1140  178.8750  148.1800 O   0  0  0  0  0  0  0  0  0  0  0  0
  187.3470  176.7160  145.7960 C   0  0  1  0  0  3  0  0  0  0  0  0
  184.6090  178.6720  147.3380 C   0  0  0  0  0  2  0  0  0  0  0  0
  187.1230  176.8930  147.3120 C   0  0  0  0  0  2  0  0  0  0  0  0
  187.0790  178.3400  147.7040 C   0  0  0  0  0  0  0  0  0  0  0  0
  188.3160  177.2460  141.7350 C   0  0  1  0  0  3  0  0  0  0  0  0
  184.4390  177.3460  146.5930 C   0  0  0  0  0  2  0  0  0  0  0  0
  186.4270  177.6460  144.9590 C   0  0  2  0  0  3  0  0  0  0  0  0
  187.0140  176.4800  141.5830 C   0  0  0  0  0  2  0  0  0  0  0  0
  189.7690  176.0710  146.2940 C   0  0  2  0  0  3  0  0  0  0  0  0
  189.3190  173.9650  146.8170 C   0  0  0  0  0  1  0  0  0  0  0  0
  189.0460  175.2810  147.1950 O   0  0  0  0  0  0  0  0  0  0  0  0
  190.8890  176.8500  147.0010 C   0  0  2  0  0  3  0  0  0  0  0  0
  192.1960  176.4090  146.5030 C   0  0  0  0  0  0  0  0  0  0  0  0
  193.2700  176.0490  146.0910 C   0  0  0  0  0  0  0  0  0  0  0  0
  194.5740  175.6100  145.5920 C   0  0  0  0  0  1  0  0  0  0  0  0
  190.8260  176.6720  148.3880 O   0  0  0  0  0  0  0  0  0  0  0  0
  191.7860  177.5440  148.9060 C   0  0  0  0  0  2  0  0  0  0  0  0
  191.1870  178.4000  149.8290 O   0  0  0  0  0  1  0  0  0  0  0  0
  1 16  1  0  0  0  0
  3  2  1  6  0  0  0
  3 17  1  0  0  0  0
  4 14  1  0  0  0  0
  6  3  1  0  0  0  0
  7  8  1  0  0  0  0
  8 11  1  0  0  0  0
  8 19  1  1  0  0  0
  9  3  1  0  0  0  0
  9  7  1  1  0  0  0
 11 13  1  1  0  0  0
 12  4  1  0  0  0  0
 13 14  1  0  0  0  0
 14 10  2  0  0  0  0
 15  5  1  6  0  0  0
 15  9  1  0  0  0  0
 16 12  1  0  0  0  0
 17  1  1  6  0  0  0
 17 11  1  0  0  0  0
 18 15  1  0  0  0  0
 18  6  1  0  0  0  0
 19 22  1  0  0  0  0
 19 21  1  1  0  0  0
 20 21  1  0  0  0  0
 22 23  1  6  0  0  0
 22 26  1  0  0  0  0
 24 23  3  0  0  0  0
 25 24  1  0  0  0  0
 26 27  1  0  0  0  0
 27 28  1  0  0  0  0
M  END
>  <MODEL>
6

>  <REMARK>
 VINA RESULT:      -5.6      1.439      4.135
  Name = 
  6 active torsions:
  status: ('A' for Active; 'I' for Inactive)
    1  A    between atoms: C_9  and  C_12
    2  A    between atoms: C_9  and  C_13
    3  A    between atoms: C_9  and  O_14
    4  A    between atoms: C_10  and  C_13
    5  A    between atoms: C_13  and  O_24
    6  A    between atoms: O_14  and  C_18
                            x       y       z     vdW  Elec       q    Type
                         _______ _______ _______ _____ _____    ______ ____

>  <TORSDO>
F 6

$$$$
=
 OpenBabel11052418183D

 28 30  0  0  1  0  0  0  0  0999 V2000
  186.2140  178.6320  143.2180 C   0  0  0  0  0  2  0  0  0  0  0  0
  184.8350  177.2460  145.5350 C   0  0  0  0  0  1  0  0  0  0  0  0
  186.2260  177.8750  145.6390 C   0  0  1  0  0  0  0  0  0  0  0  0
  187.1180  176.0360  141.8650 O   0  0  0  0  0  0  0  0  0  0  0  0
  185.4380  177.3440  148.5890 O   0  0  0  0  0  1  0  0  0  0  0  0
  186.0900  179.2360  145.9790 O   0  0  0  0  0  0  0  0  0  0  0  0
  188.4800  177.3820  146.7100 C   0  0  0  0  0  2  0  0  0  0  0  0
  189.0380  176.9320  145.3750 C   0  0  1  0  0  3  0  0  0  0  0  0
  186.9710  177.1920  146.7870 C   0  0  1  0  0  3  0  0  0  0  0  0
  189.0130  174.9660  142.6020 O   0  0  0  0  0  0  0  0  0  0  0  0
  188.4440  177.7800  144.2420 C   0  0  1  0  0  3  0  0  0  0  0  0
  186.4970  177.1200  141.1650 C   0  0  0  0  0  2  0  0  0  0  0  0
  189.0380  177.3280  142.8930 C   0  0  0  0  0  2  0  0  0  0  0  0
  188.4120  176.0550  142.4060 C   0  0  0  0  0  0  0  0  0  0  0  0
  186.5170  177.9830  147.9790 C   0  0  1  0  0  3  0  0  0  0  0  0
  186.7290  178.4990  141.7870 C   0  0  0  0  0  2  0  0  0  0  0  0
  186.8930  177.7090  144.2500 C   0  0  2  0  0  3  0  0  0  0  0  0
  186.0600  179.3050  147.3900 C   0  0  0  0  0  2  0  0  0  0  0  0
  190.5780  176.9590  145.3830 C   0  0  2  0  0  3  0  0  0  0  0  0
  192.4610  177.2230  144.2450 C   0  0  0  0  0  1  0  0  0  0  0  0
  191.0830  177.0760  144.0830 O   0  0  0  0  0  0  0  0  0  0  0  0
  191.2140  175.7750  146.1280 C   0  0  2  0  0  3  0  0  0  0  0  0
  190.6200  174.5150  145.6670 C   0  0  0  0  0  0  0  0  0  0  0  0
  190.1300  173.4810  145.2880 C   0  0  0  0  0  0  0  0  0  0  0  0
  189.5350  172.2250  144.8300 C   0  0  0  0  0  1  0  0  0  0  0  0
  191.0430  175.9010  147.5110 O   0  0  0  0  0  0  0  0  0  0  0  0
  191.9400  176.9000  147.8950 C   0  0  0  0  0  2  0  0  0  0  0  0
  191.4650  177.5360  149.0420 O   0  0  0  0  0  1  0  0  0  0  0  0
  3  2  1  6  0  0  0
  3  6  1  0  0  0  0
  3  9  1  0  0  0  0
  4 14  1  0  0  0  0
  6 18  1  0  0  0  0
  8 19  1  1  0  0  0
  8  7  1  0  0  0  0
  9  7  1  6  0  0  0
  9 15  1  0  0  0  0
 11 13  1  6  0  0  0
 11 17  1  0  0  0  0
 11  8  1  0  0  0  0
 12 16  1  0  0  0  0
 12  4  1  0  0  0  0
 14 10  2  0  0  0  0
 14 13  1  0  0  0  0
 15  5  1  6  0  0  0
 16  1  1  0  0  0  0
 17  1  1  6  0  0  0
 17  3  1  0  0  0  0
 18 15  1  0  0  0  0
 19 21  1  6  0  0  0
 19 22  1  0  0  0  0
 21 20  1  0  0  0  0
 22 23  1  6  0  0  0
 22 26  1  0  0  0  0
 24 23  3  0  0  0  0
 25 24  1  0  0  0  0
 26 27  1  0  0  0  0
 27 28  1  0  0  0  0
M  END
>  <MODEL>
7

>  <REMARK>
 VINA RESULT:      -5.6      1.267      2.176
  Name = 
  6 active torsions:
  status: ('A' for Active; 'I' for Inactive)
    1  A    between atoms: C_9  and  C_12
    2  A    between atoms: C_9  and  C_13
    3  A    between atoms: C_9  and  O_14
    4  A    between atoms: C_10  and  C_13
    5  A    between atoms: C_13  and  O_24
    6  A    between atoms: O_14  and  C_18
                            x       y       z     vdW  Elec       q    Type
                         _______ _______ _______ _____ _____    ______ ____

>  <TORSDO>
F 6

$$$$
=
 OpenBabel11052418183D

 28 30  0  0  1  0  0  0  0  0999 V2000
  190.2780  173.0540  142.9910 C   0  0  0  0  0  2  0  0  0  0  0  0
  192.6530  174.9370  142.9560 C   0  0  0  0  0  1  0  0  0  0  0  0
  191.4050  175.1730  143.8090 C   0  0  1  0  0  0  0  0  0  0  0  0
  189.0890  174.0880  140.3630 O   0  0  0  0  0  0  0  0  0  0  0  0
  193.4620  177.1960  144.9410 O   0  0  0  0  0  1  0  0  0  0  0  0
  191.5630  174.5140  145.0450 O   0  0  0  0  0  0  0  0  0  0  0  0
  189.9110  177.1010  144.5330 C   0  0  0  0  0  2  0  0  0  0  0  0
  188.8580  176.6900  143.5220 C   0  0  1  0  0  3  0  0  0  0  0  0
  191.3080  176.6710  144.1030 C   0  0  1  0  0  3  0  0  0  0  0  0
  187.8160  176.0000  140.3620 O   0  0  0  0  0  0  0  0  0  0  0  0
  188.8140  175.1610  143.4000 C   0  0  1  0  0  3  0  0  0  0  0  0
  189.2410  172.6970  140.6710 C   0  0  0  0  0  2  0  0  0  0  0  0
  187.7240  174.7550  142.3880 C   0  0  0  0  0  2  0  0  0  0  0  0
  188.1730  174.9580  140.9710 C   0  0  0  0  0  0  0  0  0  0  0  0
  192.1750  176.8160  145.3190 C   0  0  1  0  0  3  0  0  0  0  0  0
  189.1940  172.3650  142.1640 C   0  0  0  0  0  2  0  0  0  0  0  0
  190.2070  174.5940  143.0140 C   0  0  2  0  0  3  0  0  0  0  0  0
  192.2100  175.4200  145.9140 C   0  0  0  0  0  2  0  0  0  0  0  0
  187.4860  177.2900  143.8810 C   0  0  2  0  0  3  0  0  0  0  0  0
  186.0480  178.0830  142.3920 C   0  0  0  0  0  1  0  0  0  0  0  0
  187.2100  178.4120  143.0920 O   0  0  0  0  0  0  0  0  0  0  0  0
  187.3170  177.5980  145.3760 C   0  0  2  0  0  3  0  0  0  0  0  0
  187.8940  176.5140  146.1800 C   0  0  0  0  0  0  0  0  0  0  0  0
  188.3670  175.6230  146.8380 C   0  0  0  0  0  0  0  0  0  0  0  0
  188.9410  174.5400  147.6380 C   0  0  0  0  0  1  0  0  0  0  0  0
  185.9670  177.7660  145.7060 O   0  0  0  0  0  0  0  0  0  0  0  0
  185.9190  178.9620  146.4260 C   0  0  0  0  0  2  0  0  0  0  0  0
  185.0360  178.8250  147.4970 O   0  0  0  0  0  1  0  0  0  0  0  0
  3  2  1  6  0  0  0
  3  9  1  0  0  0  0
  3  6  1  0  0  0  0
  4 12  1  0  0  0  0
  4 14  1  0  0  0  0
  6 18  1  0  0  0  0
  8 19  1  1  0  0  0
  8  7  1  0  0  0  0
  9  7  1  1  0  0  0
  9 15  1  0  0  0  0
 10 14  2  0  0  0  0
 11 13  1  6  0  0  0
 11  8  1  0  0  0  0
 12 16  1  0  0  0  0
 14 13  1  0  0  0  0
 15  5  1  6  0  0  0
 15 18  1  0  0  0  0
 16  1  1  0  0  0  0
 17  1  1  1  0  0  0
 17 11  1  0  0  0  0
 17  3  1  0  0  0  0
 19 21  1  6  0  0  0
 19 22  1  0  0  0  0
 20 21  1  0  0  0  0
 22 26  1  0  0  0  0
 22 23  1  1  0  0  0
 23 24  3  0  0  0  0
 24 25  1  0  0  0  0
 26 27  1  0  0  0  0
 27 28  1  0  0  0  0
M  END
>  <MODEL>
8

>  <REMARK>
 VINA RESULT:      -5.4      1.935      5.410
  Name = 
  6 active torsions:
  status: ('A' for Active; 'I' for Inactive)
    1  A    between atoms: C_9  and  C_12
    2  A    between atoms: C_9  and  C_13
    3  A    between atoms: C_9  and  O_14
    4  A    between atoms: C_10  and  C_13
    5  A    between atoms: C_13  and  O_24
    6  A    between atoms: O_14  and  C_18
                            x       y       z     vdW  Elec       q    Type
                         _______ _______ _______ _____ _____    ______ ____

>  <TORSDO>
F 6

$$$$
=
 OpenBabel11052418183D

 28 30  0  0  1  0  0  0  0  0999 V2000
  197.0470  174.0910  144.8680 C   0  0  0  0  0  2  0  0  0  0  0  0
  197.3580  173.8550  141.8620 C   0  0  0  0  0  1  0  0  0  0  0  0
  196.2330  174.6460  142.5300 C   0  0  1  0  0  0  0  0  0  0  0  0
  195.7660  171.3280  145.2130 O   0  0  0  0  0  0  0  0  0  0  0  0
  196.1000  175.5420  139.5670 O   0  0  0  0  0  1  0  0  0  0  0  0
  196.6790  175.9600  142.7770 O   0  0  0  0  0  0  0  0  0  0  0  0
  193.7460  175.0830  142.2190 C   0  0  0  0  0  2  0  0  0  0  0  0
  193.4160  174.1160  143.3390 C   0  0  1  0  0  3  0  0  0  0  0  0
  195.0680  174.7400  141.5440 C   0  0  1  0  0  3  0  0  0  0  0  0
  193.5220  171.0530  144.8100 O   0  0  0  0  0  0  0  0  0  0  0  0
  194.4870  174.1940  144.4350 C   0  0  1  0  0  3  0  0  0  0  0  0
  196.8290  171.8190  146.0390 C   0  0  0  0  0  2  0  0  0  0  0  0
  194.1270  173.2230  145.5780 C   0  0  0  0  0  2  0  0  0  0  0  0
  194.4460  171.8010  145.2240 C   0  0  0  0  0  0  0  0  0  0  0  0
  195.4360  175.9430  140.7260 C   0  0  1  0  0  3  0  0  0  0  0  0
  196.8730  173.3410  146.1860 C   0  0  0  0  0  2  0  0  0  0  0  0
  195.8990  173.9110  143.8540 C   0  0  2  0  0  3  0  0  0  0  0  0
  196.3900  176.7150  141.6180 C   0  0  0  0  0  2  0  0  0  0  0  0
  191.9980  174.3670  143.8850 C   0  0  2  0  0  3  0  0  0  0  0  0
  190.5350  172.7020  143.8900 C   0  0  0  0  0  1  0  0  0  0  0  0
  191.0370  173.7300  143.0910 O   0  0  0  0  0  0  0  0  0  0  0  0
  191.6660  175.8530  144.0850 C   0  0  2  0  0  3  0  0  0  0  0  0
  191.5720  176.1570  145.5170 C   0  0  0  0  0  0  0  0  0  0  0  0
  191.4940  176.4050  146.6940 C   0  0  0  0  0  0  0  0  0  0  0  0
  191.3980  176.7080  148.1230 C   0  0  0  0  0  1  0  0  0  0  0  0
  190.4660  176.1910  143.4500 O   0  0  0  0  0  0  0  0  0  0  0  0
  190.6540  177.4990  142.9960 C   0  0  0  0  0  2  0  0  0  0  0  0
  189.5070  177.9300  142.3300 O   0  0  0  0  0  1  0  0  0  0  0  0
  1 16  1  0  0  0  0
  3  2  1  6  0  0  0
  3  6  1  0  0  0  0
  3 17  1  0  0  0  0
  4 14  1  0  0  0  0
  4 12  1  0  0  0  0
  7  8  1  0  0  0  0
  8 19  1  1  0  0  0
  8 11  1  0  0  0  0
  9  7  1  1  0  0  0
  9  3  1  0  0  0  0
 10 14  2  0  0  0  0
 11 13  1  1  0  0  0
 12 16  1  0  0  0  0
 14 13  1  0  0  0  0
 15  5  1  6  0  0  0
 15  9  1  0  0  0  0
 15 18  1  0  0  0  0
 17 11  1  0  0  0  0
 17  1  1  1  0  0  0
 18  6  1  0  0  0  0
 19 21  1  6  0  0  0
 19 22  1  0  0  0  0
 21 20  1  0  0  0  0
 22 23  1  1  0  0  0
 23 24  3  0  0  0  0
 24 25  1  0  0  0  0
 26 22  1  0  0  0  0
 27 26  1  0  0  0  0
 28 27  1  0  0  0  0
M  END
>  <MODEL>
9

>  <REMARK>
 VINA RESULT:      -5.4      4.089      8.554
  Name = 
  6 active torsions:
  status: ('A' for Active; 'I' for Inactive)
    1  A    between atoms: C_9  and  C_12
    2  A    between atoms: C_9  and  C_13
    3  A    between atoms: C_9  and  O_14
    4  A    between atoms: C_10  and  C_13
    5  A    between atoms: C_13  and  O_24
    6  A    between atoms: O_14  and  C_18
                            x       y       z     vdW  Elec       q    Type
                         _______ _______ _______ _____ _____    ______ ____

>  <TORSDO>
F 6

$$$$
