=
 OpenBabel11052417213D

 30 31  0  0  1  0  0  0  0  0999 V2000
  189.7750  175.2100  146.5290 C   0  0  0  0  0  0  0  0  0  0  0  0
  191.3700  175.0530  143.9980 C   0  0  0  0  0  0  0  0  0  0  0  0
  192.0820  176.2510  143.3510 C   0  0  1  0  0  3  0  0  0  0  0  0
  189.2770  174.1270  145.8000 O   0  0  0  0  0  0  0  0  0  0  0  0
  190.5990  175.0110  147.4600 O   0  0  0  0  0  0  0  0  0  0  0  0
  191.3040  173.7820  144.3740 C   0  0  0  0  0  3  0  0  0  0  0  0
  190.1230  173.2720  145.0850 C   0  0  0  0  0  0  0  0  0  0  0  0
  189.4500  176.6170  146.1250 C   0  0  1  0  0  3  0  0  0  0  0  0
  190.7550  176.4460  143.8720 C   0  0  2  0  0  0  0  0  0  0  0  0
  193.2070  176.7100  144.2710 C   0  0  0  0  0  1  0  0  0  0  0  0
  189.8520  172.0450  145.0230 O   0  0  0  0  0  0  0  0  0  0  0  0
  190.5490  177.1870  145.2110 C   0  0  0  0  0  2  0  0  0  0  0  0
  188.0270  176.7860  145.5590 C   0  0  1  0  0  3  0  0  0  0  0  0
  186.9540  176.3520  146.5470 C   0  0  0  0  0  1  0  0  0  0  0  0
  187.7480  178.1930  144.9900 C   0  0  0  0  0  2  0  0  0  0  0  0
  186.4320  178.4080  144.2220 C   0  0  2  0  0  3  0  0  0  0  0  0
  186.6330  178.6030  142.7240 C   0  0  0  0  0  2  0  0  0  0  0  0
  186.3470  177.5020  140.4980 C   0  0  0  0  0  1  0  0  0  0  0  0
  184.5100  177.8540  141.9600 O   0  0  0  0  0  1  0  0  0  0  0  0
  185.8690  177.5480  141.9380 C   0  0  2  0  0  3  0  0  0  0  0  0
  185.5720  179.5070  144.8300 C   0  0  0  0  0  2  0  0  0  0  0  0
  185.5500  179.4090  147.3220 O   0  0  0  0  0  1  0  0  0  0  0  0
  183.9000  178.3810  146.1050 O   0  0  0  0  0  0  0  0  0  0  0  0
  184.9630  179.0560  146.1140 C   0  0  0  0  0  0  0  0  0  0  0  0
  189.6560  176.5040  142.8150 C   0  0  0  0  0  2  0  0  0  0  0  0
  189.5440  175.1970  142.0440 C   0  0  0  0  0  2  0  0  0  0  0  0
  188.1550  174.6030  142.1870 C   0  0  0  0  0  2  0  0  0  0  0  0
  188.1290  173.2370  141.5970 C   0  0  0  0  0  0  0  0  0  0  0  0
  188.2140  173.0710  140.2210 O   0  0  0  0  0  0  0  0  0  0  0  0
  187.9970  172.2320  142.3440 O   0  0  0  0  0  1  0  0  0  0  0  0
  1  5  2  0  0  0  0
  2  6  2  0  0  0  0
  3  9  1  0  0  0  0
  3  2  1  0  0  0  0
  3 10  1  1  0  0  0
  4  1  1  0  0  0  0
  6  7  1  0  0  0  0
  7  4  1  0  0  0  0
  8 13  1  6  0  0  0
  8  1  1  0  0  0  0
  9 25  1  6  0  0  0
  9  2  1  0  0  0  0
  9 12  1  0  0  0  0
 11  7  2  0  0  0  0
 12  8  1  0  0  0  0
 13 14  1  1  0  0  0
 15 13  1  0  0  0  0
 16 17  1  6  0  0  0
 16 21  1  0  0  0  0
 16 15  1  0  0  0  0
 20 18  1  6  0  0  0
 20 19  1  0  0  0  0
 20 17  1  0  0  0  0
 21 24  1  0  0  0  0
 23 24  2  0  0  0  0
 24 22  1  0  0  0  0
 26 27  1  0  0  0  0
 26 25  1  0  0  0  0
 28 27  1  0  0  0  0
 28 30  1  0  0  0  0
 29 28  2  0  0  0  0
M  END
>  <MODEL>
1

>  <REMARK>
 VINA RESULT:      -6.3      0.000      0.000
  Name = 
  11 active torsions:
  status: ('A' for Active; 'I' for Inactive)
    1  A    between atoms: C_1  and  C_4
    2  A    between atoms: C_1  and  C_22
    3  A    between atoms: C_4  and  C_12
    4  A    between atoms: C_7  and  C_23
    5  A    between atoms: C_7  and  C_25
    6  A    between atoms: C_8  and  C_12
    7  A    between atoms: C_8  and  C_30
    8  A    between atoms: C_9  and  C_12
    9  A    between atoms: C_9  and  C_21
   10  A    between atoms: C_10  and  C_15
   11  A    between atoms: C_15  and  C_25
                            x       y       z     vdW  Elec       q    Type
                         _______ _______ _______ _____ _____    ______ ____

>  <TORSDO>
F 11

$$$$
=
 OpenBabel11052417213D

 30 31  0  0  1  0  0  0  0  0999 V2000
  192.8580  176.3760  143.3870 C   0  0  0  0  0  0  0  0  0  0  0  0
  191.9630  173.7850  144.5960 C   0  0  0  0  0  0  0  0  0  0  0  0
  190.9930  172.8060  143.9170 C   0  0  1  0  0  3  0  0  0  0  0  0
  192.9670  176.5140  144.7730 O   0  0  0  0  0  0  0  0  0  0  0  0
  193.8800  176.0950  142.7050 O   0  0  0  0  0  0  0  0  0  0  0  0
  193.0510  174.0700  145.3020 C   0  0  0  0  0  3  0  0  0  0  0  0
  193.4160  175.4660  145.5830 C   0  0  0  0  0  0  0  0  0  0  0  0
  191.5170  176.4170  142.7170 C   0  0  1  0  0  3  0  0  0  0  0  0
  190.7000  174.2130  143.8500 C   0  0  2  0  0  0  0  0  0  0  0  0
  191.6630  172.2290  142.6770 C   0  0  0  0  0  1  0  0  0  0  0  0
  194.1230  175.7230  146.5910 O   0  0  0  0  0  0  0  0  0  0  0  0
  190.9530  174.9950  142.5430 C   0  0  0  0  0  2  0  0  0  0  0  0
  190.5270  177.3980  143.3730 C   0  0  1  0  0  3  0  0  0  0  0  0
  191.2010  178.6820  143.8340 C   0  0  0  0  0  1  0  0  0  0  0  0
  189.2760  177.6840  142.5160 C   0  0  0  0  0  2  0  0  0  0  0  0
  187.9130  177.7210  143.2270 C   0  0  2  0  0  3  0  0  0  0  0  0
  188.0250  177.7090  144.7480 C   0  0  0  0  0  2  0  0  0  0  0  0
  185.9450  178.8760  145.4930 C   0  0  0  0  0  1  0  0  0  0  0  0
  186.8070  176.9980  146.6610 O   0  0  0  0  0  1  0  0  0  0  0  0
  186.6550  177.5390  145.3860 C   0  0  2  0  0  3  0  0  0  0  0  0
  186.9570  176.6510  142.7180 C   0  0  0  0  0  2  0  0  0  0  0  0
  186.2040  177.3510  140.4460 O   0  0  0  0  0  0  0  0  0  0  0  0
  184.8230  177.6110  142.2590 O   0  0  0  0  0  1  0  0  0  0  0  0
  185.9380  177.2410  141.8050 C   0  0  0  0  0  0  0  0  0  0  0  0
  189.5970  174.6820  144.7940 C   0  0  0  0  0  2  0  0  0  0  0  0
  189.5850  173.8820  146.0890 C   0  0  0  0  0  2  0  0  0  0  0  0
  189.2330  174.7700  147.2690 C   0  0  0  0  0  2  0  0  0  0  0  0
  190.3960  175.6290  147.6170 C   0  0  0  0  0  0  0  0  0  0  0  0
  190.4580  176.9370  147.1540 O   0  0  0  0  0  0  0  0  0  0  0  0
  191.3420  175.1600  148.3020 O   0  0  0  0  0  1  0  0  0  0  0  0
  1  4  1  0  0  0  0
  2  6  2  0  0  0  0
  3 10  1  6  0  0  0
  3  2  1  0  0  0  0
  4  7  1  0  0  0  0
  5  1  2  0  0  0  0
  6  7  1  0  0  0  0
  7 11  2  0  0  0  0
  8 13  1  1  0  0  0
  8  1  1  0  0  0  0
  9  3  1  0  0  0  0
  9  2  1  0  0  0  0
  9 25  1  1  0  0  0
 12  8  1  0  0  0  0
 12  9  1  0  0  0  0
 13 14  1  6  0  0  0
 15 13  1  0  0  0  0
 16 15  1  6  0  0  0
 16 17  1  0  0  0  0
 17 20  1  0  0  0  0
 20 18  1  1  0  0  0
 20 19  1  0  0  0  0
 21 16  1  0  0  0  0
 22 24  2  0  0  0  0
 24 23  1  0  0  0  0
 24 21  1  0  0  0  0
 25 26  1  0  0  0  0
 26 27  1  0  0  0  0
 27 28  1  0  0  0  0
 28 30  1  0  0  0  0
 29 28  2  0  0  0  0
M  END
>  <MODEL>
2

>  <REMARK>
 VINA RESULT:      -6.2      2.307      4.693
  Name = 
  11 active torsions:
  status: ('A' for Active; 'I' for Inactive)
    1  A    between atoms: C_1  and  C_4
    2  A    between atoms: C_1  and  C_22
    3  A    between atoms: C_4  and  C_12
    4  A    between atoms: C_7  and  C_23
    5  A    between atoms: C_7  and  C_25
    6  A    between atoms: C_8  and  C_12
    7  A    between atoms: C_8  and  C_30
    8  A    between atoms: C_9  and  C_12
    9  A    between atoms: C_9  and  C_21
   10  A    between atoms: C_10  and  C_15
   11  A    between atoms: C_15  and  C_25
                            x       y       z     vdW  Elec       q    Type
                         _______ _______ _______ _____ _____    ______ ____

>  <TORSDO>
F 11

$$$$
=
 OpenBabel11052417213D

 30 31  0  0  1  0  0  0  0  0999 V2000
  188.3950  177.7760  141.8410 C   0  0  0  0  0  0  0  0  0  0  0  0
  185.5760  178.3640  142.6680 C   0  0  0  0  0  0  0  0  0  0  0  0
  185.1810  178.9490  144.0320 C   0  0  1  0  0  3  0  0  0  0  0  0
  187.5680  176.9280  141.1000 O   0  0  0  0  0  0  0  0  0  0  0  0
  188.8230  178.8410  141.3220 O   0  0  0  0  0  0  0  0  0  0  0  0
  185.4750  178.2760  141.3470 C   0  0  0  0  0  3  0  0  0  0  0  0
  186.3400  177.3610  140.5890 C   0  0  0  0  0  0  0  0  0  0  0  0
  188.6630  177.5070  143.2910 C   0  0  1  0  0  3  0  0  0  0  0  0
  186.1860  177.9190  143.9960 C   0  0  2  0  0  0  0  0  0  0  0  0
  185.7210  180.3700  144.1320 C   0  0  0  0  0  1  0  0  0  0  0  0
  185.9530  176.9360  139.4700 O   0  0  0  0  0  0  0  0  0  0  0  0
  187.6740  178.2830  144.1800 C   0  0  0  0  0  2  0  0  0  0  0  0
  188.7590  176.0090  143.6370 C   0  0  1  0  0  3  0  0  0  0  0  0
  189.5340  175.2210  142.5910 C   0  0  0  0  0  1  0  0  0  0  0  0
  189.2760  175.7320  145.0640 C   0  0  0  0  0  2  0  0  0  0  0  0
  190.3710  176.6560  145.6220 C   0  0  2  0  0  3  0  0  0  0  0  0
  191.7750  176.0750  145.4930 C   0  0  0  0  0  2  0  0  0  0  0  0
  192.9950  176.3030  143.3240 C   0  0  0  0  0  1  0  0  0  0  0  0
  193.8300  177.2570  145.3310 O   0  0  0  0  0  1  0  0  0  0  0  0
  192.6530  176.9770  144.6410 C   0  0  2  0  0  3  0  0  0  0  0  0
  190.0760  177.1240  147.0400 C   0  0  0  0  0  2  0  0  0  0  0  0
  191.1200  175.2070  148.2470 O   0  0  0  0  0  0  0  0  0  0  0  0
  191.8990  177.3400  148.5620 O   0  0  0  0  0  1  0  0  0  0  0  0
  191.0750  176.5720  147.9990 C   0  0  0  0  0  0  0  0  0  0  0  0
  185.7000  176.5390  144.4270 C   0  0  0  0  0  2  0  0  0  0  0  0
  185.1670  176.5480  145.8530 C   0  0  0  0  0  2  0  0  0  0  0  0
  186.2720  176.8720  146.8420 C   0  0  0  0  0  2  0  0  0  0  0  0
  185.9380  178.1220  147.5760 C   0  0  0  0  0  0  0  0  0  0  0  0
  186.9270  178.8070  148.2690 O   0  0  0  0  0  1  0  0  0  0  0  0
  184.7520  178.5410  147.5980 O   0  0  0  0  0  0  0  0  0  0  0  0
  1  8  1  0  0  0  0
  2  9  1  0  0  0  0
  2  3  1  0  0  0  0
  3 10  1  6  0  0  0
  4  1  1  0  0  0  0
  5  1  2  0  0  0  0
  6  2  2  0  0  0  0
  7  4  1  0  0  0  0
  7  6  1  0  0  0  0
  8 13  1  6  0  0  0
  8 12  1  0  0  0  0
  9  3  1  0  0  0  0
  9 12  1  0  0  0  0
  9 25  1  1  0  0  0
 11  7  2  0  0  0  0
 13 14  1  6  0  0  0
 13 15  1  0  0  0  0
 16 15  1  1  0  0  0
 16 21  1  0  0  0  0
 17 16  1  0  0  0  0
 20 18  1  6  0  0  0
 20 19  1  0  0  0  0
 20 17  1  0  0  0  0
 21 24  1  0  0  0  0
 24 22  2  0  0  0  0
 24 23  1  0  0  0  0
 25 26  1  0  0  0  0
 26 27  1  0  0  0  0
 27 28  1  0  0  0  0
 28 30  2  0  0  0  0
 28 29  1  0  0  0  0
M  END
>  <MODEL>
3

>  <REMARK>
 VINA RESULT:      -6.1      2.130      6.697
  Name = 
  11 active torsions:
  status: ('A' for Active; 'I' for Inactive)
    1  A    between atoms: C_1  and  C_4
    2  A    between atoms: C_1  and  C_22
    3  A    between atoms: C_4  and  C_12
    4  A    between atoms: C_7  and  C_23
    5  A    between atoms: C_7  and  C_25
    6  A    between atoms: C_8  and  C_12
    7  A    between atoms: C_8  and  C_30
    8  A    between atoms: C_9  and  C_12
    9  A    between atoms: C_9  and  C_21
   10  A    between atoms: C_10  and  C_15
   11  A    between atoms: C_15  and  C_25
                            x       y       z     vdW  Elec       q    Type
                         _______ _______ _______ _____ _____    ______ ____

>  <TORSDO>
F 11

$$$$
=
 OpenBabel11052417213D

 30 31  0  0  1  0  0  0  0  0999 V2000
  188.1940  174.1210  141.6260 C   0  0  0  0  0  0  0  0  0  0  0  0
  191.0530  173.3710  142.1140 C   0  0  0  0  0  0  0  0  0  0  0  0
  191.7380  173.4290  143.4870 C   0  0  1  0  0  3  0  0  0  0  0  0
  188.8730  174.3030  140.4200 O   0  0  0  0  0  0  0  0  0  0  0  0
  187.5300  173.0670  141.8180 O   0  0  0  0  0  0  0  0  0  0  0  0
  190.8010  172.7960  140.9430 C   0  0  0  0  0  3  0  0  0  0  0  0
  189.8640  173.4120  139.9930 C   0  0  0  0  0  0  0  0  0  0  0  0
  188.3580  175.0990  142.7520 C   0  0  1  0  0  3  0  0  0  0  0  0
  190.8760  174.5170  143.1080 C   0  0  2  0  0  0  0  0  0  0  0  0
  191.0990  172.3910  144.4000 C   0  0  0  0  0  1  0  0  0  0  0  0
  189.9760  173.1550  138.7670 O   0  0  0  0  0  0  0  0  0  0  0  0
  189.4630  174.6350  143.7180 C   0  0  0  0  0  2  0  0  0  0  0  0
  188.5190  176.5580  142.2860 C   0  0  1  0  0  3  0  0  0  0  0  0
  187.4500  176.9690  141.2830 C   0  0  0  0  0  1  0  0  0  0  0  0
  188.6360  177.5710  143.4440 C   0  0  0  0  0  2  0  0  0  0  0  0
  187.6300  177.4570  144.6020 C   0  0  2  0  0  3  0  0  0  0  0  0
  186.5060  178.4850  144.5300 C   0  0  0  0  0  2  0  0  0  0  0  0
  184.4610  178.2330  143.1160 C   0  0  0  0  0  1  0  0  0  0  0  0
  184.3590  178.1310  145.4850 O   0  0  0  0  0  1  0  0  0  0  0  0
  185.1570  177.7980  144.3920 C   0  0  2  0  0  3  0  0  0  0  0  0
  188.3050  177.4450  145.9660 C   0  0  0  0  0  2  0  0  0  0  0  0
  188.4670  175.2000  147.0390 O   0  0  0  0  0  0  0  0  0  0  0  0
  186.6270  176.5230  147.3880 O   0  0  0  0  0  1  0  0  0  0  0  0
  187.7430  176.3660  146.8270 C   0  0  0  0  0  0  0  0  0  0  0  0
  191.6030  175.7850  142.6700 C   0  0  0  0  0  2  0  0  0  0  0  0
  192.6690  176.2000  143.6740 C   0  0  0  0  0  2  0  0  0  0  0  0
  192.0480  176.9260  144.8530 C   0  0  0  0  0  2  0  0  0  0  0  0
  192.4400  176.2530  146.1210 C   0  0  0  0  0  0  0  0  0  0  0  0
  193.5530  176.6900  146.8250 O   0  0  0  0  0  1  0  0  0  0  0  0
  191.7800  175.2660  146.5380 O   0  0  0  0  0  0  0  0  0  0  0  0
  1  5  2  0  0  0  0
  1  8  1  0  0  0  0
  2  9  1  0  0  0  0
  2  3  1  0  0  0  0
  3 10  1  1  0  0  0
  4  1  1  0  0  0  0
  6  2  2  0  0  0  0
  7  4  1  0  0  0  0
  7  6  1  0  0  0  0
  8 13  1  6  0  0  0
  8 12  1  0  0  0  0
  9 25  1  6  0  0  0
  9  3  1  0  0  0  0
  9 12  1  0  0  0  0
 11  7  2  0  0  0  0
 13 14  1  1  0  0  0
 13 15  1  0  0  0  0
 16 15  1  6  0  0  0
 16 21  1  0  0  0  0
 17 16  1  0  0  0  0
 20 18  1  6  0  0  0
 20 17  1  0  0  0  0
 20 19  1  0  0  0  0
 21 24  1  0  0  0  0
 24 22  2  0  0  0  0
 24 23  1  0  0  0  0
 25 26  1  0  0  0  0
 26 27  1  0  0  0  0
 27 28  1  0  0  0  0
 28 30  2  0  0  0  0
 28 29  1  0  0  0  0
M  END
>  <MODEL>
4

>  <REMARK>
 VINA RESULT:      -6.1      1.686      4.524
  Name = 
  11 active torsions:
  status: ('A' for Active; 'I' for Inactive)
    1  A    between atoms: C_1  and  C_4
    2  A    between atoms: C_1  and  C_22
    3  A    between atoms: C_4  and  C_12
    4  A    between atoms: C_7  and  C_23
    5  A    between atoms: C_7  and  C_25
    6  A    between atoms: C_8  and  C_12
    7  A    between atoms: C_8  and  C_30
    8  A    between atoms: C_9  and  C_12
    9  A    between atoms: C_9  and  C_21
   10  A    between atoms: C_10  and  C_15
   11  A    between atoms: C_15  and  C_25
                            x       y       z     vdW  Elec       q    Type
                         _______ _______ _______ _____ _____    ______ ____

>  <TORSDO>
F 11

$$$$
=
 OpenBabel11052417213D

 30 31  0  0  1  0  0  0  0  0999 V2000
  192.6830  176.4000  143.3490 C   0  0  0  0  0  0  0  0  0  0  0  0
  191.9320  173.7150  144.4460 C   0  0  0  0  0  0  0  0  0  0  0  0
  191.0130  172.7160  143.7280 C   0  0  1  0  0  3  0  0  0  0  0  0
  192.7900  176.4840  144.7390 O   0  0  0  0  0  0  0  0  0  0  0  0
  193.7150  176.2040  142.6520 O   0  0  0  0  0  0  0  0  0  0  0  0
  193.0070  174.0280  145.1620 C   0  0  0  0  0  3  0  0  0  0  0  0
  193.2990  175.4280  145.5020 C   0  0  0  0  0  0  0  0  0  0  0  0
  191.3390  176.3980  142.6840 C   0  0  1  0  0  3  0  0  0  0  0  0
  190.6460  174.1080  143.7230 C   0  0  2  0  0  0  0  0  0  0  0  0
  191.7080  172.2300  142.4630 C   0  0  0  0  0  1  0  0  0  0  0  0
  193.9950  175.6800  146.5180 O   0  0  0  0  0  0  0  0  0  0  0  0
  190.8500  174.9570  142.4500 C   0  0  0  0  0  2  0  0  0  0  0  0
  190.3010  177.2960  143.3830 C   0  0  1  0  0  3  0  0  0  0  0  0
  190.8830  178.6370  143.8050 C   0  0  0  0  0  1  0  0  0  0  0  0
  188.9890  177.4650  142.5880 C   0  0  0  0  0  2  0  0  0  0  0  0
  187.6770  177.0450  143.2720 C   0  0  2  0  0  3  0  0  0  0  0  0
  186.5710  176.6840  142.2860 C   0  0  0  0  0  2  0  0  0  0  0  0
  184.6580  178.1390  141.6000 C   0  0  0  0  0  1  0  0  0  0  0  0
  186.4780  177.7010  140.1400 O   0  0  0  0  0  1  0  0  0  0  0  0
  186.1530  177.9030  141.4790 C   0  0  2  0  0  3  0  0  0  0  0  0
  187.2080  178.0540  144.3100 C   0  0  0  0  0  2  0  0  0  0  0  0
  184.8770  177.6460  145.1000 O   0  0  0  0  0  0  0  0  0  0  0  0
  186.6560  176.6830  146.1820 O   0  0  0  0  0  1  0  0  0  0  0  0
  186.2400  177.4300  145.2570 C   0  0  0  0  0  0  0  0  0  0  0  0
  189.5240  174.4760  144.6880 C   0  0  0  0  0  2  0  0  0  0  0  0
  189.6780  173.7710  146.0280 C   0  0  0  0  0  2  0  0  0  0  0  0
  189.2350  174.6710  147.1670 C   0  0  0  0  0  2  0  0  0  0  0  0
  190.3330  175.6130  147.5190 C   0  0  0  0  0  0  0  0  0  0  0  0
  190.3410  176.8990  146.9960 O   0  0  0  0  0  0  0  0  0  0  0  0
  191.2720  175.2320  148.2650 O   0  0  0  0  0  1  0  0  0  0  0  0
  1  4  1  0  0  0  0
  2  6  2  0  0  0  0
  3 10  1  6  0  0  0
  3  2  1  0  0  0  0
  4  7  1  0  0  0  0
  5  1  2  0  0  0  0
  6  7  1  0  0  0  0
  7 11  2  0  0  0  0
  8  1  1  0  0  0  0
  8 13  1  1  0  0  0
  9  3  1  0  0  0  0
  9  2  1  0  0  0  0
  9 25  1  1  0  0  0
 12  8  1  0  0  0  0
 12  9  1  0  0  0  0
 13 14  1  6  0  0  0
 15 16  1  0  0  0  0
 15 13  1  0  0  0  0
 16 17  1  6  0  0  0
 16 21  1  0  0  0  0
 19 20  1  0  0  0  0
 20 18  1  6  0  0  0
 20 17  1  0  0  0  0
 21 24  1  0  0  0  0
 22 24  2  0  0  0  0
 24 23  1  0  0  0  0
 25 26  1  0  0  0  0
 26 27  1  0  0  0  0
 27 28  1  0  0  0  0
 28 30  1  0  0  0  0
 29 28  2  0  0  0  0
M  END
>  <MODEL>
5

>  <REMARK>
 VINA RESULT:      -6.0      2.386      4.132
  Name = 
  11 active torsions:
  status: ('A' for Active; 'I' for Inactive)
    1  A    between atoms: C_1  and  C_4
    2  A    between atoms: C_1  and  C_22
    3  A    between atoms: C_4  and  C_12
    4  A    between atoms: C_7  and  C_23
    5  A    between atoms: C_7  and  C_25
    6  A    between atoms: C_8  and  C_12
    7  A    between atoms: C_8  and  C_30
    8  A    between atoms: C_9  and  C_12
    9  A    between atoms: C_9  and  C_21
   10  A    between atoms: C_10  and  C_15
   11  A    between atoms: C_15  and  C_25
                            x       y       z     vdW  Elec       q    Type
                         _______ _______ _______ _____ _____    ______ ____

>  <TORSDO>
F 11

$$$$
=
 OpenBabel11052417213D

 30 31  0  0  1  0  0  0  0  0999 V2000
  190.7810  175.6990  142.4270 C   0  0  0  0  0  0  0  0  0  0  0  0
  190.9160  174.2410  145.0400 C   0  0  0  0  0  0  0  0  0  0  0  0
  189.8290  173.2820  145.5510 C   0  0  1  0  0  3  0  0  0  0  0  0
  191.5990  176.4530  143.2710 O   0  0  0  0  0  0  0  0  0  0  0  0
  191.3010  174.9240  141.5800 O   0  0  0  0  0  0  0  0  0  0  0  0
  192.1800  174.5950  144.8440 C   0  0  0  0  0  3  0  0  0  0  0  0
  192.5070  175.8470  144.1460 C   0  0  0  0  0  0  0  0  0  0  0  0
  189.2930  175.6940  142.6090 C   0  0  1  0  0  3  0  0  0  0  0  0
  189.4170  174.5150  144.9330 C   0  0  2  0  0  0  0  0  0  0  0  0
  189.7840  172.0620  144.6410 C   0  0  0  0  0  1  0  0  0  0  0  0
  193.6160  176.4000  144.3660 O   0  0  0  0  0  0  0  0  0  0  0  0
  188.8580  174.5110  143.4940 C   0  0  0  0  0  2  0  0  0  0  0  0
  188.7190  177.0490  143.0640 C   0  0  1  0  0  3  0  0  0  0  0  0
  189.0120  178.1660  142.0730 C   0  0  0  0  0  1  0  0  0  0  0  0
  187.2240  176.9960  143.4420 C   0  0  0  0  0  2  0  0  0  0  0  0
  186.5950  178.2580  144.0560 C   0  0  2  0  0  3  0  0  0  0  0  0
  185.6700  177.9620  145.2310 C   0  0  0  0  0  2  0  0  0  0  0  0
  186.2110  177.0930  147.5110 C   0  0  0  0  0  1  0  0  0  0  0  0
  185.8040  179.3980  147.1190 O   0  0  0  0  0  1  0  0  0  0  0  0
  186.3660  178.2580  146.5500 C   0  0  2  0  0  3  0  0  0  0  0  0
  185.9260  179.1450  143.0140 C   0  0  0  0  0  2  0  0  0  0  0  0
  185.5930  177.9990  140.8240 O   0  0  0  0  0  0  0  0  0  0  0  0
  183.9620  177.9220  142.4350 O   0  0  0  0  0  1  0  0  0  0  0  0
  185.0980  178.3320  142.0780 C   0  0  0  0  0  0  0  0  0  0  0  0
  188.9510  175.5920  145.9080 C   0  0  0  0  0  2  0  0  0  0  0  0
  189.8780  175.7060  147.1090 C   0  0  0  0  0  2  0  0  0  0  0  0
  190.3200  177.1440  147.3170 C   0  0  0  0  0  2  0  0  0  0  0  0
  191.5760  177.1730  148.1130 C   0  0  0  0  0  0  0  0  0  0  0  0
  192.7690  176.7420  147.5490 O   0  0  0  0  0  0  0  0  0  0  0  0
  191.5520  177.5580  149.3110 O   0  0  0  0  0  1  0  0  0  0  0  0
  1  8  1  0  0  0  0
  1  4  1  0  0  0  0
  2  3  1  0  0  0  0
  3 10  1  6  0  0  0
  4  7  1  0  0  0  0
  5  1  2  0  0  0  0
  6  2  2  0  0  0  0
  7 11  2  0  0  0  0
  7  6  1  0  0  0  0
  8 13  1  1  0  0  0
  8 12  1  0  0  0  0
  9  2  1  0  0  0  0
  9  3  1  0  0  0  0
  9 25  1  1  0  0  0
 12  9  1  0  0  0  0
 13 14  1  6  0  0  0
 13 15  1  0  0  0  0
 15 16  1  0  0  0  0
 16 21  1  6  0  0  0
 16 17  1  0  0  0  0
 17 20  1  0  0  0  0
 20 19  1  0  0  0  0
 20 18  1  1  0  0  0
 22 24  2  0  0  0  0
 24 23  1  0  0  0  0
 24 21  1  0  0  0  0
 25 26  1  0  0  0  0
 26 27  1  0  0  0  0
 27 28  1  0  0  0  0
 28 30  1  0  0  0  0
 29 28  2  0  0  0  0
M  END
>  <MODEL>
6

>  <REMARK>
 VINA RESULT:      -6.0      2.074      5.013
  Name = 
  11 active torsions:
  status: ('A' for Active; 'I' for Inactive)
    1  A    between atoms: C_1  and  C_4
    2  A    between atoms: C_1  and  C_22
    3  A    between atoms: C_4  and  C_12
    4  A    between atoms: C_7  and  C_23
    5  A    between atoms: C_7  and  C_25
    6  A    between atoms: C_8  and  C_12
    7  A    between atoms: C_8  and  C_30
    8  A    between atoms: C_9  and  C_12
    9  A    between atoms: C_9  and  C_21
   10  A    between atoms: C_10  and  C_15
   11  A    between atoms: C_15  and  C_25
                            x       y       z     vdW  Elec       q    Type
                         _______ _______ _______ _____ _____    ______ ____

>  <TORSDO>
F 11

$$$$
=
 OpenBabel11052417213D

 30 31  0  0  1  0  0  0  0  0999 V2000
  190.0140  173.4590  144.4480 C   0  0  0  0  0  0  0  0  0  0  0  0
  192.2270  174.8470  145.9140 C   0  0  0  0  0  0  0  0  0  0  0  0
  192.0110  175.9580  146.9520 C   0  0  1  0  0  3  0  0  0  0  0  0
  191.1530  173.3690  143.6450 O   0  0  0  0  0  0  0  0  0  0  0  0
  189.6840  172.4850  145.1770 O   0  0  0  0  0  0  0  0  0  0  0  0
  192.8240  173.7470  145.4680 C   0  0  0  0  0  3  0  0  0  0  0  0
  192.4200  173.1420  144.1900 C   0  0  0  0  0  0  0  0  0  0  0  0
  189.2580  174.7490  144.5620 C   0  0  1  0  0  3  0  0  0  0  0  0
  191.2240  175.9870  145.7470 C   0  0  2  0  0  0  0  0  0  0  0  0
  191.3050  175.3660  148.1660 C   0  0  0  0  0  1  0  0  0  0  0  0
  193.2450  172.4310  143.5610 O   0  0  0  0  0  0  0  0  0  0  0  0
  189.7430  175.5570  145.7790 C   0  0  0  0  0  2  0  0  0  0  0  0
  189.2220  175.5640  143.2550 C   0  0  1  0  0  3  0  0  0  0  0  0
  188.8220  174.7190  142.0550 C   0  0  0  0  0  1  0  0  0  0  0  0
  188.3850  176.8560  143.3510 C   0  0  0  0  0  2  0  0  0  0  0  0
  186.9780  176.7550  143.9640 C   0  0  2  0  0  3  0  0  0  0  0  0
  185.8660  176.7190  142.9220 C   0  0  0  0  0  2  0  0  0  0  0  0
  183.9160  178.2500  142.6070 C   0  0  0  0  0  1  0  0  0  0  0  0
  185.8670  178.4220  141.2650 O   0  0  0  0  0  1  0  0  0  0  0  0
  185.4280  178.1270  142.5540 C   0  0  2  0  0  3  0  0  0  0  0  0
  186.7260  177.8140  145.0290 C   0  0  0  0  0  2  0  0  0  0  0  0
  186.6370  176.5730  147.1910 O   0  0  0  0  0  1  0  0  0  0  0  0
  184.7160  177.3910  146.2410 O   0  0  0  0  0  0  0  0  0  0  0  0
  185.9650  177.2420  146.1760 C   0  0  0  0  0  0  0  0  0  0  0  0
  191.6770  177.0140  144.7150 C   0  0  0  0  0  2  0  0  0  0  0  0
  193.0450  176.6740  144.1420 C   0  0  0  0  0  2  0  0  0  0  0  0
  192.9530  176.3880  142.6540 C   0  0  0  0  0  2  0  0  0  0  0  0
  194.2850  175.9690  142.1390 C   0  0  0  0  0  0  0  0  0  0  0  0
  195.1270  175.2000  142.9320 O   0  0  0  0  0  1  0  0  0  0  0  0
  194.6630  176.3390  140.9980 O   0  0  0  0  0  0  0  0  0  0  0  0
  1  8  1  0  0  0  0
  1  5  2  0  0  0  0
  2  3  1  0  0  0  0
  3 10  1  1  0  0  0
  4  7  1  0  0  0  0
  4  1  1  0  0  0  0
  6  2  2  0  0  0  0
  7  6  1  0  0  0  0
  8 13  1  6  0  0  0
  8 12  1  0  0  0  0
  9 25  1  6  0  0  0
  9 12  1  0  0  0  0
  9  2  1  0  0  0  0
  9  3  1  0  0  0  0
 11  7  2  0  0  0  0
 13 14  1  6  0  0  0
 13 15  1  0  0  0  0
 15 16  1  0  0  0  0
 16 17  1  6  0  0  0
 16 21  1  0  0  0  0
 19 20  1  0  0  0  0
 20 18  1  6  0  0  0
 20 17  1  0  0  0  0
 21 24  1  0  0  0  0
 24 23  2  0  0  0  0
 24 22  1  0  0  0  0
 26 25  1  0  0  0  0
 27 26  1  0  0  0  0
 28 27  1  0  0  0  0
 28 29  1  0  0  0  0
 30 28  2  0  0  0  0
M  END
>  <MODEL>
7

>  <REMARK>
 VINA RESULT:      -5.9      2.450      3.679
  Name = 
  11 active torsions:
  status: ('A' for Active; 'I' for Inactive)
    1  A    between atoms: C_1  and  C_4
    2  A    between atoms: C_1  and  C_22
    3  A    between atoms: C_4  and  C_12
    4  A    between atoms: C_7  and  C_23
    5  A    between atoms: C_7  and  C_25
    6  A    between atoms: C_8  and  C_12
    7  A    between atoms: C_8  and  C_30
    8  A    between atoms: C_9  and  C_12
    9  A    between atoms: C_9  and  C_21
   10  A    between atoms: C_10  and  C_15
   11  A    between atoms: C_15  and  C_25
                            x       y       z     vdW  Elec       q    Type
                         _______ _______ _______ _____ _____    ______ ____

>  <TORSDO>
F 11

$$$$
=
 OpenBabel11052417213D

 30 31  0  0  1  0  0  0  0  0999 V2000
  189.5140  177.3220  142.3920 C   0  0  0  0  0  0  0  0  0  0  0  0
  187.4350  176.3590  144.3230 C   0  0  0  0  0  0  0  0  0  0  0  0
  187.3160  176.8460  145.7750 C   0  0  1  0  0  3  0  0  0  0  0  0
  189.1310  176.0450  141.9750 O   0  0  0  0  0  0  0  0  0  0  0  0
  189.0150  178.3370  141.8370 O   0  0  0  0  0  0  0  0  0  0  0  0
  186.9230  176.0070  143.1500 C   0  0  0  0  0  3  0  0  0  0  0  0
  187.7990  175.6210  142.0350 C   0  0  0  0  0  0  0  0  0  0  0  0
  190.4030  177.5020  143.5860 C   0  0  1  0  0  3  0  0  0  0  0  0
  188.6290  176.5680  145.2540 C   0  0  2  0  0  0  0  0  0  0  0  0
  186.9210  178.3170  145.7700 C   0  0  0  0  0  1  0  0  0  0  0  0
  187.3490  174.8680  141.1330 O   0  0  0  0  0  0  0  0  0  0  0  0
  189.5660  177.7280  144.8570 C   0  0  0  0  0  2  0  0  0  0  0  0
  191.4690  176.4000  143.7370 C   0  0  1  0  0  3  0  0  0  0  0  0
  191.9450  175.8650  142.3940 C   0  0  0  0  0  1  0  0  0  0  0  0
  192.6500  176.7980  144.6460 C   0  0  0  0  0  2  0  0  0  0  0  0
  193.8780  175.8730  144.6720 C   0  0  2  0  0  3  0  0  0  0  0  0
  193.7590  174.7380  145.6830 C   0  0  0  0  0  2  0  0  0  0  0  0
  192.2170  173.0060  144.7510 C   0  0  0  0  0  1  0  0  0  0  0  0
  194.2870  172.4220  145.7550 O   0  0  0  0  0  1  0  0  0  0  0  0
  193.6660  173.3950  144.9750 C   0  0  2  0  0  3  0  0  0  0  0  0
  195.1850  176.6380  144.8260 C   0  0  0  0  0  2  0  0  0  0  0  0
  197.1800  177.2130  143.4430 O   0  0  0  0  0  1  0  0  0  0  0  0
  195.8840  175.3960  142.9140 O   0  0  0  0  0  0  0  0  0  0  0  0
  196.0900  176.3820  143.6690 C   0  0  0  0  0  0  0  0  0  0  0  0
  189.2360  175.2510  145.7260 C   0  0  0  0  0  2  0  0  0  0  0  0
  189.3810  175.2050  147.2400 C   0  0  0  0  0  2  0  0  0  0  0  0
  190.8400  175.2990  147.6480 C   0  0  0  0  0  2  0  0  0  0  0  0
  191.1880  176.7140  147.9490 C   0  0  0  0  0  0  0  0  0  0  0  0
  192.5180  177.1050  148.0130 O   0  0  0  0  0  0  0  0  0  0  0  0
  190.2760  177.5500  148.1800 O   0  0  0  0  0  1  0  0  0  0  0  0
  1  8  1  0  0  0  0
  2  9  1  0  0  0  0
  2  3  1  0  0  0  0
  3 10  1  6  0  0  0
  4  7  1  0  0  0  0
  4  1  1  0  0  0  0
  5  1  2  0  0  0  0
  6  2  2  0  0  0  0
  7  6  1  0  0  0  0
  8 13  1  1  0  0  0
  8 12  1  0  0  0  0
  9 25  1  1  0  0  0
  9  3  1  0  0  0  0
 11  7  2  0  0  0  0
 12  9  1  0  0  0  0
 13 14  1  6  0  0  0
 13 15  1  0  0  0  0
 16 15  1  1  0  0  0
 16 21  1  0  0  0  0
 16 17  1  0  0  0  0
 20 18  1  1  0  0  0
 20 17  1  0  0  0  0
 20 19  1  0  0  0  0
 22 24  1  0  0  0  0
 23 24  2  0  0  0  0
 24 21  1  0  0  0  0
 25 26  1  0  0  0  0
 26 27  1  0  0  0  0
 27 28  1  0  0  0  0
 28 29  2  0  0  0  0
 28 30  1  0  0  0  0
M  END
>  <MODEL>
8

>  <REMARK>
 VINA RESULT:      -5.8      2.835      7.398
  Name = 
  11 active torsions:
  status: ('A' for Active; 'I' for Inactive)
    1  A    between atoms: C_1  and  C_4
    2  A    between atoms: C_1  and  C_22
    3  A    between atoms: C_4  and  C_12
    4  A    between atoms: C_7  and  C_23
    5  A    between atoms: C_7  and  C_25
    6  A    between atoms: C_8  and  C_12
    7  A    between atoms: C_8  and  C_30
    8  A    between atoms: C_9  and  C_12
    9  A    between atoms: C_9  and  C_21
   10  A    between atoms: C_10  and  C_15
   11  A    between atoms: C_15  and  C_25
                            x       y       z     vdW  Elec       q    Type
                         _______ _______ _______ _____ _____    ______ ____

>  <TORSDO>
F 11

$$$$
=
 OpenBabel11052417213D

 30 31  0  0  1  0  0  0  0  0999 V2000
  192.9700  174.3100  144.4400 C   0  0  0  0  0  0  0  0  0  0  0  0
  192.4720  176.4230  146.5050 C   0  0  0  0  0  0  0  0  0  0  0  0
  191.2370  176.4630  147.4180 C   0  0  1  0  0  3  0  0  0  0  0  0
  193.6580  175.4540  144.0270 O   0  0  0  0  0  0  0  0  0  0  0  0
  193.5880  173.3910  145.0400 O   0  0  0  0  0  0  0  0  0  0  0  0
  193.7740  176.5490  146.2740 C   0  0  0  0  0  3  0  0  0  0  0  0
  194.3260  176.2780  144.9390 C   0  0  0  0  0  0  0  0  0  0  0  0
  191.4790  174.2250  144.3050 C   0  0  1  0  0  3  0  0  0  0  0  0
  191.0490  176.1360  146.0290 C   0  0  2  0  0  0  0  0  0  0  0  0
  191.2820  175.2670  148.3600 C   0  0  0  0  0  1  0  0  0  0  0  0
  195.4070  176.8250  144.6000 O   0  0  0  0  0  0  0  0  0  0  0  0
  190.7890  174.6740  145.6070 C   0  0  0  0  0  2  0  0  0  0  0  0
  190.9300  174.9200  143.0450 C   0  0  1  0  0  3  0  0  0  0  0  0
  191.7040  174.5430  141.7900 C   0  0  0  0  0  1  0  0  0  0  0  0
  189.4080  174.7470  142.8520 C   0  0  0  0  0  2  0  0  0  0  0  0
  188.7610  175.4150  141.6280 C   0  0  2  0  0  3  0  0  0  0  0  0
  187.5060  176.2120  141.9680 C   0  0  0  0  0  2  0  0  0  0  0  0
  188.9210  178.2720  142.0040 C   0  0  0  0  0  1  0  0  0  0  0  0
  186.5500  178.3880  141.9530 O   0  0  0  0  0  1  0  0  0  0  0  0
  187.6360  177.6490  141.4880 C   0  0  2  0  0  3  0  0  0  0  0  0
  188.5220  174.4380  140.4850 C   0  0  0  0  0  2  0  0  0  0  0  0
  189.4310  172.1400  140.8200 O   0  0  0  0  0  0  0  0  0  0  0  0
  187.3530  172.6950  141.6170 O   0  0  0  0  0  1  0  0  0  0  0  0
  188.3920  173.0440  140.9970 C   0  0  0  0  0  0  0  0  0  0  0  0
  190.4810  177.2670  145.1780 C   0  0  0  0  0  2  0  0  0  0  0  0
  189.2430  177.8850  145.8130 C   0  0  0  0  0  2  0  0  0  0  0  0
  187.9840  177.1860  145.3340 C   0  0  0  0  0  2  0  0  0  0  0  0
  187.2310  176.6510  146.5010 C   0  0  0  0  0  0  0  0  0  0  0  0
  187.7990  175.6720  147.3060 O   0  0  0  0  0  1  0  0  0  0  0  0
  186.0650  177.0600  146.7390 O   0  0  0  0  0  0  0  0  0  0  0  0
  1  5  2  0  0  0  0
  2  3  1  0  0  0  0
  3 10  1  1  0  0  0
  4  1  1  0  0  0  0
  4  7  1  0  0  0  0
  6  2  2  0  0  0  0
  7  6  1  0  0  0  0
  8 13  1  6  0  0  0
  8  1  1  0  0  0  0
  8 12  1  0  0  0  0
  9 25  1  6  0  0  0
  9  2  1  0  0  0  0
  9  3  1  0  0  0  0
 11  7  2  0  0  0  0
 12  9  1  0  0  0  0
 13 14  1  6  0  0  0
 15 13  1  0  0  0  0
 16 21  1  6  0  0  0
 16 17  1  0  0  0  0
 16 15  1  0  0  0  0
 20 19  1  0  0  0  0
 20 17  1  0  0  0  0
 20 18  1  1  0  0  0
 21 24  1  0  0  0  0
 22 24  2  0  0  0  0
 24 23  1  0  0  0  0
 25 26  1  0  0  0  0
 27 26  1  0  0  0  0
 27 28  1  0  0  0  0
 28 30  2  0  0  0  0
 28 29  1  0  0  0  0
M  END
>  <MODEL>
9

>  <REMARK>
 VINA RESULT:      -5.8      2.205      5.313
  Name = 
  11 active torsions:
  status: ('A' for Active; 'I' for Inactive)
    1  A    between atoms: C_1  and  C_4
    2  A    between atoms: C_1  and  C_22
    3  A    between atoms: C_4  and  C_12
    4  A    between atoms: C_7  and  C_23
    5  A    between atoms: C_7  and  C_25
    6  A    between atoms: C_8  and  C_12
    7  A    between atoms: C_8  and  C_30
    8  A    between atoms: C_9  and  C_12
    9  A    between atoms: C_9  and  C_21
   10  A    between atoms: C_10  and  C_15
   11  A    between atoms: C_15  and  C_25
                            x       y       z     vdW  Elec       q    Type
                         _______ _______ _______ _____ _____    ______ ____

>  <TORSDO>
F 11

$$$$
