=
 OpenBabel11052418293D

 27 31  0  0  1  0  0  0  0  0999 V2000
  187.4340  176.1770  143.0460 C   0  0  0  0  0  3  0  0  0  0  0  0
  189.8830  176.0120  142.9470 C   0  0  0  0  0  0  0  0  0  0  0  0
  188.8230  177.3370  144.5980 O   0  0  0  0  0  0  0  0  0  0  0  0
  193.7860  175.4960  144.8680 C   0  0  0  0  0  3  0  0  0  0  0  0
  193.3610  175.7490  147.2630 F   0  0  0  0  0  0  0  0  0  0  0  0
  191.1530  175.5000  142.5690 N   0  0  0  0  0  0  0  0  0  0  0  0
  191.7630  176.5940  145.7690 C   0  0  0  0  0  0  0  0  0  0  0  0
  190.8040  177.1660  147.1270 Cl  0  0  0  0  0  0  0  0  0  0  0  0
  191.3860  177.0070  144.3640 C   0  0  1  0  0  3  0  0  0  0  0  0
  188.6060  175.6280  142.4010 N   0  0  0  0  0  0  0  0  0  0  0  0
  192.9410  175.9760  145.9940 C   0  0  0  0  0  0  0  0  0  0  0  0
  192.0040  176.0600  143.3710 C   0  0  0  0  0  0  0  0  0  0  0  0
  187.5450  177.0040  144.1070 C   0  0  0  0  0  0  0  0  0  0  0  0
  189.9620  176.7990  143.9970 C   0  0  0  0  0  0  0  0  0  0  0  0
  193.3400  175.5140  143.6070 C   0  0  0  0  0  3  0  0  0  0  0  0
  188.1910  173.0920  139.0470 N   0  0  0  0  0  0  0  0  0  0  0  0
  188.4580  174.7540  141.2610 C   0  0  0  0  0  0  0  0  0  0  0  0
  188.5920  173.3630  141.3860 C   0  0  0  0  0  3  0  0  0  0  0  0
  188.4530  172.5440  140.2640 C   0  0  0  0  0  3  0  0  0  0  0  0
  188.0600  174.4360  138.8900 C   0  0  0  0  0  3  0  0  0  0  0  0
  188.1910  175.2870  139.9890 C   0  0  0  0  0  3  0  0  0  0  0  0
  184.6160  179.2690  144.8510 C   0  0  0  0  0  3  0  0  0  0  0  0
  184.0700  178.6640  145.9850 C   0  0  0  0  0  3  0  0  0  0  0  0
  185.7500  178.7210  144.2430 C   0  0  0  0  0  3  0  0  0  0  0  0
  184.6570  177.5110  146.5130 C   0  0  0  0  0  3  0  0  0  0  0  0
  185.7900  176.9640  145.9050 C   0  0  0  0  0  3  0  0  0  0  0  0
  186.3480  177.5650  144.7640 C   0  0  0  0  0  0  0  0  0  0  0  0
  1 13  2  0  0  0  0
  2 14  2  0  0  0  0
  4 11  1  0  0  0  0
  6  2  1  0  0  0  0
  6 12  2  0  0  0  0
  7 11  2  0  0  0  0
  7  8  1  0  0  0  0
  9 12  1  6  0  0  0
  9  7  1  0  0  0  0
 10  2  1  0  0  0  0
 10  1  1  0  0  0  0
 11  5  1  0  0  0  0
 12 15  1  0  0  0  0
 13  3  1  0  0  0  0
 13 27  1  0  0  0  0
 14  9  1  0  0  0  0
 14  3  1  0  0  0  0
 15  4  2  0  0  0  0
 16 19  1  0  0  0  0
 17 18  1  0  0  0  0
 17 10  1  0  0  0  0
 19 18  2  0  0  0  0
 20 16  2  0  0  0  0
 20 21  1  0  0  0  0
 21 17  2  0  0  0  0
 22 23  1  0  0  0  0
 23 25  2  0  0  0  0
 24 27  1  0  0  0  0
 24 22  2  0  0  0  0
 26 25  1  0  0  0  0
 27 26  2  0  0  0  0
M  END
>  <MODEL>
1

>  <REMARK>
 VINA RESULT:      -7.7      0.000      0.000
  Name = 
  2 active torsions:
  status: ('A' for Active; 'I' for Inactive)
    1  A    between atoms: C_9  and  N_15
    2  A    between atoms: C_18  and  C_26
                            x       y       z     vdW  Elec       q    Type
                         _______ _______ _______ _____ _____    ______ ____

>  <TORSDO>
F 2

$$$$
=
 OpenBabel11052418293D

 27 31  0  0  1  0  0  0  0  0999 V2000
  188.2440  175.5460  143.2840 C   0  0  0  0  0  3  0  0  0  0  0  0
  190.6590  175.6460  142.8400 C   0  0  0  0  0  0  0  0  0  0  0  0
  189.7220  176.7580  144.7090 O   0  0  0  0  0  0  0  0  0  0  0  0
  194.8280  175.4380  144.1720 C   0  0  0  0  0  3  0  0  0  0  0  0
  194.7260  175.5100  146.6140 F   0  0  0  0  0  0  0  0  0  0  0  0
  191.9060  175.2920  142.2580 N   0  0  0  0  0  0  0  0  0  0  0  0
  192.8570  176.2650  145.4140 C   0  0  0  0  0  0  0  0  0  0  0  0
  192.0500  176.6550  146.9270 Cl  0  0  0  0  0  0  0  0  0  0  0  0
  192.2450  176.7130  144.1050 C   0  0  1  0  0  3  0  0  0  0  0  0
  189.3600  175.1610  142.4480 N   0  0  0  0  0  0  0  0  0  0  0  0
  194.1090  175.7630  145.4320 C   0  0  0  0  0  0  0  0  0  0  0  0
  192.8040  175.8940  142.9740 C   0  0  0  0  0  0  0  0  0  0  0  0
  188.4250  176.3200  144.3750 C   0  0  0  0  0  0  0  0  0  0  0  0
  190.8110  176.3770  143.9220 C   0  0  0  0  0  0  0  0  0  0  0  0
  194.2060  175.4780  142.9870 C   0  0  0  0  0  3  0  0  0  0  0  0
  188.7130  172.7890  139.0120 N   0  0  0  0  0  0  0  0  0  0  0  0
  189.1360  174.3410  141.2800 C   0  0  0  0  0  0  0  0  0  0  0  0
  189.6080  173.0210  141.2140 C   0  0  0  0  0  3  0  0  0  0  0  0
  189.3850  172.2560  140.0680 C   0  0  0  0  0  3  0  0  0  0  0  0
  188.2460  174.0640  139.0410 C   0  0  0  0  0  3  0  0  0  0  0  0
  188.4490  174.8600  140.1700 C   0  0  0  0  0  3  0  0  0  0  0  0
  185.0500  177.6480  145.4250 C   0  0  0  0  0  3  0  0  0  0  0  0
  185.0960  177.4790  146.8100 C   0  0  0  0  0  3  0  0  0  0  0  0
  186.1400  177.2670  144.6360 C   0  0  0  0  0  3  0  0  0  0  0  0
  186.2330  176.9280  147.4090 C   0  0  0  0  0  3  0  0  0  0  0  0
  187.3220  176.5480  146.6210 C   0  0  0  0  0  3  0  0  0  0  0  0
  187.2850  176.7140  145.2260 C   0  0  0  0  0  0  0  0  0  0  0  0
  1 13  2  0  0  0  0
  2 14  2  0  0  0  0
  4 11  1  0  0  0  0
  6  2  1  0  0  0  0
  6 12  2  0  0  0  0
  7 11  2  0  0  0  0
  7  8  1  0  0  0  0
  9 12  1  6  0  0  0
  9  7  1  0  0  0  0
 10  2  1  0  0  0  0
 10  1  1  0  0  0  0
 11  5  1  0  0  0  0
 12 15  1  0  0  0  0
 13  3  1  0  0  0  0
 13 27  1  0  0  0  0
 14  9  1  0  0  0  0
 14  3  1  0  0  0  0
 15  4  2  0  0  0  0
 16 20  2  0  0  0  0
 16 19  1  0  0  0  0
 17 10  1  0  0  0  0
 18 17  1  0  0  0  0
 19 18  2  0  0  0  0
 20 21  1  0  0  0  0
 21 17  2  0  0  0  0
 22 23  1  0  0  0  0
 23 25  2  0  0  0  0
 24 27  1  0  0  0  0
 24 22  2  0  0  0  0
 26 25  1  0  0  0  0
 27 26  2  0  0  0  0
M  END
>  <MODEL>
2

>  <REMARK>
 VINA RESULT:      -7.6      1.037      1.207
  Name = 
  2 active torsions:
  status: ('A' for Active; 'I' for Inactive)
    1  A    between atoms: C_9  and  N_15
    2  A    between atoms: C_18  and  C_26
                            x       y       z     vdW  Elec       q    Type
                         _______ _______ _______ _____ _____    ______ ____

>  <TORSDO>
F 2

$$$$
=
 OpenBabel11052418293D

 27 31  0  0  1  0  0  0  0  0999 V2000
  187.5710  175.7910  143.1410 C   0  0  0  0  0  3  0  0  0  0  0  0
  188.6690  176.1010  145.3170 C   0  0  0  0  0  0  0  0  0  0  0  0
  189.6060  174.6710  143.6800 O   0  0  0  0  0  0  0  0  0  0  0  0
  192.2360  176.7900  147.7650 C   0  0  0  0  0  3  0  0  0  0  0  0
  194.1270  176.4460  146.2530 F   0  0  0  0  0  0  0  0  0  0  0  0
  188.9500  176.6970  146.5760 N   0  0  0  0  0  0  0  0  0  0  0  0
  192.0500  175.5510  145.6340 C   0  0  0  0  0  0  0  0  0  0  0  0
  192.7770  174.8870  144.1770 Cl  0  0  0  0  0  0  0  0  0  0  0  0
  190.6390  175.1570  146.0090 C   0  0  1  0  0  3  0  0  0  0  0  0
  187.5720  176.4250  144.4400 N   0  0  0  0  0  0  0  0  0  0  0  0
  192.8150  176.2300  146.5140 C   0  0  0  0  0  0  0  0  0  0  0  0
  190.0660  176.1650  146.9680 C   0  0  0  0  0  0  0  0  0  0  0  0
  188.5570  174.9430  142.7790 C   0  0  0  0  0  0  0  0  0  0  0  0
  189.6290  175.2920  144.9300 C   0  0  0  0  0  0  0  0  0  0  0  0
  190.9170  176.7820  147.9850 C   0  0  0  0  0  3  0  0  0  0  0  0
  184.4380  179.0370  145.5400 N   0  0  0  0  0  0  0  0  0  0  0  0
  186.4990  177.3200  144.8060 C   0  0  0  0  0  0  0  0  0  0  0  0
  186.3690  178.5840  144.2100 C   0  0  0  0  0  3  0  0  0  0  0  0
  185.3270  179.4320  144.5900 C   0  0  0  0  0  3  0  0  0  0  0  0
  184.5370  177.8210  146.1400 C   0  0  0  0  0  3  0  0  0  0  0  0
  185.5650  176.9460  145.7860 C   0  0  0  0  0  3  0  0  0  0  0  0
  188.9290  172.3150  140.0920 C   0  0  0  0  0  3  0  0  0  0  0  0
  188.5650  173.0260  138.9470 C   0  0  0  0  0  3  0  0  0  0  0  0
  188.9240  172.9470  141.3400 C   0  0  0  0  0  3  0  0  0  0  0  0
  188.1940  174.3700  139.0470 C   0  0  0  0  0  3  0  0  0  0  0  0
  188.1890  175.0010  140.2940 C   0  0  0  0  0  3  0  0  0  0  0  0
  188.5540  174.2950  141.4530 C   0  0  0  0  0  0  0  0  0  0  0  0
  1 10  1  0  0  0  0
  2  6  1  0  0  0  0
  3 14  1  0  0  0  0
  4 15  2  0  0  0  0
  5 11  1  0  0  0  0
  6 12  2  0  0  0  0
  7  9  1  0  0  0  0
  7 11  2  0  0  0  0
  8  7  1  0  0  0  0
  9 14  1  6  0  0  0
  9 12  1  0  0  0  0
 10 17  1  0  0  0  0
 10  2  1  0  0  0  0
 11  4  1  0  0  0  0
 12 15  1  0  0  0  0
 13  1  2  0  0  0  0
 13  3  1  0  0  0  0
 14  2  2  0  0  0  0
 16 20  1  0  0  0  0
 17 21  1  0  0  0  0
 18 19  1  0  0  0  0
 18 17  2  0  0  0  0
 19 16  2  0  0  0  0
 21 20  2  0  0  0  0
 22 24  1  0  0  0  0
 23 25  1  0  0  0  0
 23 22  2  0  0  0  0
 24 27  2  0  0  0  0
 25 26  2  0  0  0  0
 26 27  1  0  0  0  0
 27 13  1  0  0  0  0
M  END
>  <MODEL>
3

>  <REMARK>
 VINA RESULT:      -7.6      2.151      5.700
  Name = 
  2 active torsions:
  status: ('A' for Active; 'I' for Inactive)
    1  A    between atoms: C_9  and  N_15
    2  A    between atoms: C_18  and  C_26
                            x       y       z     vdW  Elec       q    Type
                         _______ _______ _______ _____ _____    ______ ____

>  <TORSDO>
F 2

$$$$
=
 OpenBabel11052418293D

 27 31  0  0  1  0  0  0  0  0999 V2000
  188.5990  175.1780  141.5980 C   0  0  0  0  0  3  0  0  0  0  0  0
  190.6550  175.0970  142.9410 C   0  0  0  0  0  0  0  0  0  0  0  0
  189.0390  176.7890  143.2990 O   0  0  0  0  0  0  0  0  0  0  0  0
  192.7560  175.3150  146.7790 C   0  0  0  0  0  3  0  0  0  0  0  0
  191.1200  176.2190  148.3560 F   0  0  0  0  0  0  0  0  0  0  0  0
  191.8470  174.5520  143.4910 N   0  0  0  0  0  0  0  0  0  0  0  0
  190.7290  176.5360  146.0650 C   0  0  0  0  0  0  0  0  0  0  0  0
  189.2620  177.4280  146.4450 Cl  0  0  0  0  0  0  0  0  0  0  0  0
  191.2420  176.5160  144.6430 C   0  0  1  0  0  3  0  0  0  0  0  0
  189.8520  174.5190  141.8930 N   0  0  0  0  0  0  0  0  0  0  0  0
  191.5000  176.0580  147.0640 C   0  0  0  0  0  0  0  0  0  0  0  0
  192.1790  175.3540  144.4550 C   0  0  0  0  0  0  0  0  0  0  0  0
  188.2110  176.2760  142.2810 C   0  0  0  0  0  0  0  0  0  0  0  0
  190.2430  176.1510  143.6070 C   0  0  0  0  0  0  0  0  0  0  0  0
  193.0830  174.9540  145.5330 C   0  0  0  0  0  3  0  0  0  0  0  0
  191.0350  171.1200  139.6790 N   0  0  0  0  0  0  0  0  0  0  0  0
  190.2470  173.3520  141.1390 C   0  0  0  0  0  0  0  0  0  0  0  0
  190.1190  172.0600  141.6740 C   0  0  0  0  0  3  0  0  0  0  0  0
  190.5180  170.9520  140.9260 C   0  0  0  0  0  3  0  0  0  0  0  0
  191.1760  172.3560  139.1320 C   0  0  0  0  0  3  0  0  0  0  0  0
  190.7880  173.4890  139.8500 C   0  0  0  0  0  3  0  0  0  0  0  0
  184.7450  177.7110  142.7160 C   0  0  0  0  0  3  0  0  0  0  0  0
  184.4860  178.2190  141.4420 C   0  0  0  0  0  3  0  0  0  0  0  0
  185.9640  177.0780  142.9830 C   0  0  0  0  0  3  0  0  0  0  0  0
  185.4450  178.0960  140.4320 C   0  0  0  0  0  3  0  0  0  0  0  0
  186.6620  177.4630  140.6990 C   0  0  0  0  0  3  0  0  0  0  0  0
  186.9330  176.9480  141.9780 C   0  0  0  0  0  0  0  0  0  0  0  0
  1 10  1  0  0  0  0
  1 13  2  0  0  0  0
  2  6  1  0  0  0  0
  2 14  2  0  0  0  0
  3 14  1  0  0  0  0
  4 11  1  0  0  0  0
  6 12  2  0  0  0  0
  7  8  1  0  0  0  0
  7 11  2  0  0  0  0
  9 14  1  6  0  0  0
  9  7  1  0  0  0  0
 10  2  1  0  0  0  0
 11  5  1  0  0  0  0
 12  9  1  0  0  0  0
 12 15  1  0  0  0  0
 13  3  1  0  0  0  0
 15  4  2  0  0  0  0
 16 19  1  0  0  0  0
 17 18  1  0  0  0  0
 17 10  1  0  0  0  0
 19 18  2  0  0  0  0
 20 16  2  0  0  0  0
 20 21  1  0  0  0  0
 21 17  2  0  0  0  0
 22 24  1  0  0  0  0
 23 22  2  0  0  0  0
 25 26  2  0  0  0  0
 25 23  1  0  0  0  0
 26 27  1  0  0  0  0
 27 13  1  0  0  0  0
 27 24  2  0  0  0  0
M  END
>  <MODEL>
4

>  <REMARK>
 VINA RESULT:      -7.3      2.031      2.740
  Name = 
  2 active torsions:
  status: ('A' for Active; 'I' for Inactive)
    1  A    between atoms: C_9  and  N_15
    2  A    between atoms: C_18  and  C_26
                            x       y       z     vdW  Elec       q    Type
                         _______ _______ _______ _____ _____    ______ ____

>  <TORSDO>
F 2

$$$$
=
 OpenBabel11052418293D

 27 31  0  0  1  0  0  0  0  0999 V2000
  189.6470  177.1320  144.6300 C   0  0  0  0  0  3  0  0  0  0  0  0
  190.6140  175.1410  143.5630 C   0  0  0  0  0  0  0  0  0  0  0  0
  188.4050  175.8320  143.0630 O   0  0  0  0  0  0  0  0  0  0  0  0
  191.3780  172.6500  140.0400 C   0  0  0  0  0  3  0  0  0  0  0  0
  189.9010  173.5280  138.3010 F   0  0  0  0  0  0  0  0  0  0  0  0
  191.6210  174.2260  143.1510 N   0  0  0  0  0  0  0  0  0  0  0  0
  189.4020  174.0520  140.5320 C   0  0  0  0  0  0  0  0  0  0  0  0
  187.9830  174.9430  140.0000 Cl  0  0  0  0  0  0  0  0  0  0  0  0
  189.6090  173.7900  142.0070 C   0  0  1  0  0  3  0  0  0  0  0  0
  190.7780  176.2450  144.4750 N   0  0  0  0  0  0  0  0  0  0  0  0
  190.1810  173.4270  139.6240 C   0  0  0  0  0  0  0  0  0  0  0  0
  191.0530  173.4630  142.2700 C   0  0  0  0  0  0  0  0  0  0  0  0
  188.5020  176.9270  143.9450 C   0  0  0  0  0  0  0  0  0  0  0  0
  189.4970  174.9790  142.8900 C   0  0  0  0  0  0  0  0  0  0  0  0
  191.8180  172.6750  141.3040 C   0  0  0  0  0  3  0  0  0  0  0  0
  194.3110  176.9100  146.6950 N   0  0  0  0  0  0  0  0  0  0  0  0
  191.9880  176.4810  145.2280 C   0  0  0  0  0  0  0  0  0  0  0  0
  193.1740  176.8850  144.5950 C   0  0  0  0  0  3  0  0  0  0  0  0
  194.3300  177.0970  145.3480 C   0  0  0  0  0  3  0  0  0  0  0  0
  193.1810  176.5150  147.3390 C   0  0  0  0  0  3  0  0  0  0  0  0
  192.0050  176.2940  146.6200 C   0  0  0  0  0  3  0  0  0  0  0  0
  185.6670  179.2760  143.1030 C   0  0  0  0  0  3  0  0  0  0  0  0
  185.1500  179.5620  144.3680 C   0  0  0  0  0  3  0  0  0  0  0  0
  186.7610  178.4150  142.9720 C   0  0  0  0  0  3  0  0  0  0  0  0
  185.7260  178.9870  145.5040 C   0  0  0  0  0  3  0  0  0  0  0  0
  186.8190  178.1270  145.3740 C   0  0  0  0  0  3  0  0  0  0  0  0
  187.3470  177.8320  144.1050 C   0  0  0  0  0  0  0  0  0  0  0  0
  2 10  1  0  0  0  0
  3 13  1  0  0  0  0
  4 15  2  0  0  0  0
  5 11  1  0  0  0  0
  6  2  1  0  0  0  0
  8  7  1  0  0  0  0
  9  7  1  6  0  0  0
  9 12  1  0  0  0  0
  9 14  1  0  0  0  0
 10  1  1  0  0  0  0
 10 17  1  0  0  0  0
 11  4  1  0  0  0  0
 11  7  2  0  0  0  0
 12  6  2  0  0  0  0
 13 27  1  0  0  0  0
 13  1  2  0  0  0  0
 14  3  1  0  0  0  0
 14  2  2  0  0  0  0
 15 12  1  0  0  0  0
 16 20  1  0  0  0  0
 17 21  1  0  0  0  0
 18 17  2  0  0  0  0
 18 19  1  0  0  0  0
 19 16  2  0  0  0  0
 21 20  2  0  0  0  0
 22 23  1  0  0  0  0
 23 25  2  0  0  0  0
 24 22  2  0  0  0  0
 24 27  1  0  0  0  0
 26 25  1  0  0  0  0
 27 26  2  0  0  0  0
M  END
>  <MODEL>
5

>  <REMARK>
 VINA RESULT:      -7.2      3.084      5.497
  Name = 
  2 active torsions:
  status: ('A' for Active; 'I' for Inactive)
    1  A    between atoms: C_9  and  N_15
    2  A    between atoms: C_18  and  C_26
                            x       y       z     vdW  Elec       q    Type
                         _______ _______ _______ _____ _____    ______ ____

>  <TORSDO>
F 2

$$$$
=
 OpenBabel11052418293D

 27 31  0  0  1  0  0  0  0  0999 V2000
  189.6430  177.1000  144.6490 C   0  0  0  0  0  3  0  0  0  0  0  0
  190.6170  175.1130  143.5800 C   0  0  0  0  0  0  0  0  0  0  0  0
  188.4120  175.8080  143.0680 O   0  0  0  0  0  0  0  0  0  0  0  0
  191.4060  172.6370  140.0530 C   0  0  0  0  0  3  0  0  0  0  0  0
  189.9420  173.5240  138.3070 F   0  0  0  0  0  0  0  0  0  0  0  0
  191.6260  174.1990  143.1730 N   0  0  0  0  0  0  0  0  0  0  0  0
  189.4270  174.0380  140.5360 C   0  0  0  0  0  0  0  0  0  0  0  0
  188.0120  174.9330  139.9970 Cl  0  0  0  0  0  0  0  0  0  0  0  0
  189.6220  173.7700  142.0120 C   0  0  1  0  0  3  0  0  0  0  0  0
  190.7750  176.2130  144.4990 N   0  0  0  0  0  0  0  0  0  0  0  0
  190.2120  173.4170  139.6310 C   0  0  0  0  0  0  0  0  0  0  0  0
  191.0650  173.4400  142.2840 C   0  0  0  0  0  0  0  0  0  0  0  0
  188.5030  176.8990  143.9550 C   0  0  0  0  0  0  0  0  0  0  0  0
  189.5050  174.9550  142.8990 C   0  0  0  0  0  0  0  0  0  0  0  0
  191.8360  172.6560  141.3200 C   0  0  0  0  0  3  0  0  0  0  0  0
  194.3020  176.9190  146.7140 N   0  0  0  0  0  0  0  0  0  0  0  0
  191.9790  176.4450  145.2620 C   0  0  0  0  0  0  0  0  0  0  0  0
  192.0050  176.2700  146.6550 C   0  0  0  0  0  3  0  0  0  0  0  0
  193.1810  176.5120  147.3660 C   0  0  0  0  0  3  0  0  0  0  0  0
  194.3110  177.1020  145.3670 C   0  0  0  0  0  3  0  0  0  0  0  0
  193.1540  176.8700  144.6210 C   0  0  0  0  0  3  0  0  0  0  0  0
  185.7530  178.9290  145.5600 C   0  0  0  0  0  3  0  0  0  0  0  0
  185.1500  179.5200  144.4480 C   0  0  0  0  0  3  0  0  0  0  0  0
  186.8470  178.0750  145.3920 C   0  0  0  0  0  3  0  0  0  0  0  0
  185.6400  179.2580  143.1650 C   0  0  0  0  0  3  0  0  0  0  0  0
  186.7330  178.4040  142.9970 C   0  0  0  0  0  3  0  0  0  0  0  0
  187.3480  177.8040  144.1100 C   0  0  0  0  0  0  0  0  0  0  0  0
  2 10  1  0  0  0  0
  3 13  1  0  0  0  0
  4 15  2  0  0  0  0
  5 11  1  0  0  0  0
  6  2  1  0  0  0  0
  8  7  1  0  0  0  0
  9  7  1  6  0  0  0
  9 12  1  0  0  0  0
  9 14  1  0  0  0  0
 10  1  1  0  0  0  0
 10 17  1  0  0  0  0
 11  4  1  0  0  0  0
 11  7  2  0  0  0  0
 12  6  2  0  0  0  0
 13 27  1  0  0  0  0
 13  1  2  0  0  0  0
 14  3  1  0  0  0  0
 14  2  2  0  0  0  0
 15 12  1  0  0  0  0
 16 19  1  0  0  0  0
 17 18  1  0  0  0  0
 18 19  2  0  0  0  0
 20 16  2  0  0  0  0
 21 17  2  0  0  0  0
 21 20  1  0  0  0  0
 23 22  2  0  0  0  0
 24 22  1  0  0  0  0
 25 23  1  0  0  0  0
 26 25  2  0  0  0  0
 26 27  1  0  0  0  0
 27 24  2  0  0  0  0
M  END
>  <MODEL>
6

>  <REMARK>
 VINA RESULT:      -7.2      3.086      5.511
  Name = 
  2 active torsions:
  status: ('A' for Active; 'I' for Inactive)
    1  A    between atoms: C_9  and  N_15
    2  A    between atoms: C_18  and  C_26
                            x       y       z     vdW  Elec       q    Type
                         _______ _______ _______ _____ _____    ______ ____

>  <TORSDO>
F 2

$$$$
=
 OpenBabel11052418293D

 27 31  0  0  1  0  0  0  0  0999 V2000
  188.8340  175.2140  143.1190 C   0  0  0  0  0  3  0  0  0  0  0  0
  190.4950  175.6770  144.8700 C   0  0  0  0  0  0  0  0  0  0  0  0
  191.0650  174.3880  142.9670 O   0  0  0  0  0  0  0  0  0  0  0  0
  194.5160  176.8590  146.1430 C   0  0  0  0  0  3  0  0  0  0  0  0
  195.8800  176.7790  144.1150 F   0  0  0  0  0  0  0  0  0  0  0  0
  191.0670  176.3080  146.0060 N   0  0  0  0  0  0  0  0  0  0  0  0
  193.8520  175.6030  144.1200 C   0  0  0  0  0  0  0  0  0  0  0  0
  194.1780  175.0440  142.4850 Cl  0  0  0  0  0  0  0  0  0  0  0  0
  192.6890  175.0170  144.8900 C   0  0  1  0  0  3  0  0  0  0  0  0
  189.1480  175.8440  144.3810 N   0  0  0  0  0  0  0  0  0  0  0  0
  194.7520  176.3830  144.7540 C   0  0  0  0  0  0  0  0  0  0  0  0
  192.3090  175.9370  146.0180 C   0  0  0  0  0  0  0  0  0  0  0  0
  189.7640  174.5100  142.4400 C   0  0  0  0  0  0  0  0  0  0  0  0
  191.3880  175.0080  144.1760 C   0  0  0  0  0  0  0  0  0  0  0  0
  193.3410  176.6680  146.7530 C   0  0  0  0  0  3  0  0  0  0  0  0
  186.1530  178.0030  146.4340 N   0  0  0  0  0  0  0  0  0  0  0  0
  188.1300  176.5820  145.0920 C   0  0  0  0  0  0  0  0  0  0  0  0
  187.7350  176.2160  146.3890 C   0  0  0  0  0  3  0  0  0  0  0  0
  186.7420  176.9420  147.0470 C   0  0  0  0  0  3  0  0  0  0  0  0
  186.5080  178.3820  145.1780 C   0  0  0  0  0  3  0  0  0  0  0  0
  187.4980  177.6800  144.4880 C   0  0  0  0  0  3  0  0  0  0  0  0
  189.6990  171.9870  139.6300 C   0  0  0  0  0  3  0  0  0  0  0  0
  188.8520  172.6080  138.7100 C   0  0  0  0  0  3  0  0  0  0  0  0
  189.9920  172.6130  140.8460 C   0  0  0  0  0  3  0  0  0  0  0  0
  188.2970  173.8560  139.0040 C   0  0  0  0  0  3  0  0  0  0  0  0
  188.5900  174.4830  140.2180 C   0  0  0  0  0  3  0  0  0  0  0  0
  189.4410  173.8660  141.1520 C   0  0  0  0  0  0  0  0  0  0  0  0
  1 10  1  0  0  0  0
  2  6  1  0  0  0  0
  3 14  1  0  0  0  0
  4 15  2  0  0  0  0
  5 11  1  0  0  0  0
  6 12  2  0  0  0  0
  7 11  2  0  0  0  0
  8  7  1  0  0  0  0
  9  7  1  6  0  0  0
  9 12  1  0  0  0  0
 10  2  1  0  0  0  0
 10 17  1  0  0  0  0
 11  4  1  0  0  0  0
 12 15  1  0  0  0  0
 13  3  1  0  0  0  0
 13  1  2  0  0  0  0
 14  2  2  0  0  0  0
 14  9  1  0  0  0  0
 16 19  1  0  0  0  0
 17 18  1  0  0  0  0
 18 19  2  0  0  0  0
 20 16  2  0  0  0  0
 21 17  2  0  0  0  0
 21 20  1  0  0  0  0
 22 24  1  0  0  0  0
 23 25  1  0  0  0  0
 23 22  2  0  0  0  0
 24 27  2  0  0  0  0
 25 26  2  0  0  0  0
 26 27  1  0  0  0  0
 27 13  1  0  0  0  0
M  END
>  <MODEL>
7

>  <REMARK>
 VINA RESULT:      -7.1      2.442      5.753
  Name = 
  2 active torsions:
  status: ('A' for Active; 'I' for Inactive)
    1  A    between atoms: C_9  and  N_15
    2  A    between atoms: C_18  and  C_26
                            x       y       z     vdW  Elec       q    Type
                         _______ _______ _______ _____ _____    ______ ____

>  <TORSDO>
F 2

$$$$
=
 OpenBabel11052418293D

 27 31  0  0  1  0  0  0  0  0999 V2000
  187.0520  176.3880  142.5820 C   0  0  0  0  0  3  0  0  0  0  0  0
  188.2550  175.8330  144.6510 C   0  0  0  0  0  0  0  0  0  0  0  0
  188.9520  174.9480  142.5690 O   0  0  0  0  0  0  0  0  0  0  0  0
  191.9640  175.2860  146.9180 C   0  0  0  0  0  3  0  0  0  0  0  0
  193.7440  175.2760  145.2420 F   0  0  0  0  0  0  0  0  0  0  0  0
  188.6510  175.9390  146.0120 N   0  0  0  0  0  0  0  0  0  0  0  0
  191.5530  174.8610  144.5180 C   0  0  0  0  0  0  0  0  0  0  0  0
  192.1420  174.6540  142.8740 Cl  0  0  0  0  0  0  0  0  0  0  0  0
  190.1180  174.5130  144.8460 C   0  0  1  0  0  3  0  0  0  0  0  0
  187.1760  176.5450  144.0140 N   0  0  0  0  0  0  0  0  0  0  0  0
  192.4250  175.1220  145.5140 C   0  0  0  0  0  0  0  0  0  0  0  0
  189.7060  175.1940  146.1220 C   0  0  0  0  0  0  0  0  0  0  0  0
  187.9130  175.6140  141.8880 C   0  0  0  0  0  0  0  0  0  0  0  0
  189.0940  175.1060  143.9490 C   0  0  0  0  0  0  0  0  0  0  0  0
  190.6620  175.3410  147.2200 C   0  0  0  0  0  3  0  0  0  0  0  0
  184.4110  178.9750  146.0870 N   0  0  0  0  0  0  0  0  0  0  0  0
  186.2340  177.3720  144.7320 C   0  0  0  0  0  0  0  0  0  0  0  0
  185.4610  176.8530  145.7830 C   0  0  0  0  0  3  0  0  0  0  0  0
  184.5520  177.6730  146.4530 C   0  0  0  0  0  3  0  0  0  0  0  0
  185.1400  179.5090  145.0720 C   0  0  0  0  0  3  0  0  0  0  0  0
  186.0600  178.7200  144.3790 C   0  0  0  0  0  3  0  0  0  0  0  0
  188.2550  174.1720  138.4150 C   0  0  0  0  0  3  0  0  0  0  0  0
  187.5650  175.1120  137.6470 C   0  0  0  0  0  3  0  0  0  0  0  0
  188.3640  174.3410  139.7990 C   0  0  0  0  0  3  0  0  0  0  0  0
  186.9830  176.2240  138.2630 C   0  0  0  0  0  3  0  0  0  0  0  0
  187.0930  176.3940  139.6450 C   0  0  0  0  0  3  0  0  0  0  0  0
  187.7850  175.4530  140.4270 C   0  0  0  0  0  0  0  0  0  0  0  0
  1 10  1  0  0  0  0
  2  6  1  0  0  0  0
  3 14  1  0  0  0  0
  4 15  2  0  0  0  0
  5 11  1  0  0  0  0
  6 12  2  0  0  0  0
  7  9  1  0  0  0  0
  7 11  2  0  0  0  0
  8  7  1  0  0  0  0
  9 14  1  6  0  0  0
  9 12  1  0  0  0  0
 10  2  1  0  0  0  0
 10 17  1  0  0  0  0
 11  4  1  0  0  0  0
 12 15  1  0  0  0  0
 13  3  1  0  0  0  0
 13  1  2  0  0  0  0
 14  2  2  0  0  0  0
 16 19  1  0  0  0  0
 17 18  1  0  0  0  0
 18 19  2  0  0  0  0
 20 16  2  0  0  0  0
 21 17  2  0  0  0  0
 21 20  1  0  0  0  0
 22 24  1  0  0  0  0
 23 25  1  0  0  0  0
 23 22  2  0  0  0  0
 24 27  2  0  0  0  0
 25 26  2  0  0  0  0
 26 27  1  0  0  0  0
 27 13  1  0  0  0  0
M  END
>  <MODEL>
8

>  <REMARK>
 VINA RESULT:      -7.1      2.305      5.611
  Name = 
  2 active torsions:
  status: ('A' for Active; 'I' for Inactive)
    1  A    between atoms: C_9  and  N_15
    2  A    between atoms: C_18  and  C_26
                            x       y       z     vdW  Elec       q    Type
                         _______ _______ _______ _____ _____    ______ ____

>  <TORSDO>
F 2

$$$$
=
 OpenBabel11052418293D

 27 31  0  0  1  0  0  0  0  0999 V2000
  189.8470  176.8880  144.6420 C   0  0  0  0  0  3  0  0  0  0  0  0
  190.6680  174.6020  144.2730 C   0  0  0  0  0  0  0  0  0  0  0  0
  188.4800  175.2250  143.6170 O   0  0  0  0  0  0  0  0  0  0  0  0
  191.1660  171.0520  141.7550 C   0  0  0  0  0  3  0  0  0  0  0  0
  189.6690  171.3990  139.8540 F   0  0  0  0  0  0  0  0  0  0  0  0
  191.6100  173.5430  144.1670 N   0  0  0  0  0  0  0  0  0  0  0  0
  189.2850  172.6550  141.7960 C   0  0  0  0  0  0  0  0  0  0  0  0
  187.8940  173.4080  141.0280 Cl  0  0  0  0  0  0  0  0  0  0  0  0
  189.5350  172.8800  143.2710 C   0  0  1  0  0  3  0  0  0  0  0  0
  190.9240  175.9320  144.7670 N   0  0  0  0  0  0  0  0  0  0  0  0
  189.9950  171.7210  141.1300 C   0  0  0  0  0  0  0  0  0  0  0  0
  190.9700  172.5690  143.5980 C   0  0  0  0  0  0  0  0  0  0  0  0
  188.6670  176.5410  144.0870 C   0  0  0  0  0  0  0  0  0  0  0  0
  189.5190  174.2970  143.7140 C   0  0  0  0  0  0  0  0  0  0  0  0
  191.6550  171.4630  142.9310 C   0  0  0  0  0  3  0  0  0  0  0  0
  194.5790  177.1140  146.5250 N   0  0  0  0  0  0  0  0  0  0  0  0
  192.1730  176.3280  145.3750 C   0  0  0  0  0  0  0  0  0  0  0  0
  192.3200  176.3800  146.7700 C   0  0  0  0  0  3  0  0  0  0  0  0
  193.5360  176.7760  147.3300 C   0  0  0  0  0  3  0  0  0  0  0  0
  194.4700  177.0790  145.1710 C   0  0  0  0  0  3  0  0  0  0  0  0
  193.2690  176.6880  144.5750 C   0  0  0  0  0  3  0  0  0  0  0  0
  186.1290  178.8780  142.5510 C   0  0  0  0  0  3  0  0  0  0  0  0
  185.4810  179.3770  143.6830 C   0  0  0  0  0  3  0  0  0  0  0  0
  187.1670  177.9520  142.6900 C   0  0  0  0  0  3  0  0  0  0  0  0
  185.8700  178.9510  144.9560 C   0  0  0  0  0  3  0  0  0  0  0  0
  186.9090  178.0260  145.0950 C   0  0  0  0  0  3  0  0  0  0  0  0
  187.5670  177.5170  143.9620 C   0  0  0  0  0  0  0  0  0  0  0  0
  1 10  1  0  0  0  0
  2 10  1  0  0  0  0
  3 14  1  0  0  0  0
  3 13  1  0  0  0  0
  4 15  2  0  0  0  0
  5 11  1  0  0  0  0
  6  2  1  0  0  0  0
  8  7  1  0  0  0  0
  9  7  1  6  0  0  0
  9 12  1  0  0  0  0
  9 14  1  0  0  0  0
 10 17  1  0  0  0  0
 11  4  1  0  0  0  0
 11  7  2  0  0  0  0
 12  6  2  0  0  0  0
 13  1  2  0  0  0  0
 14  2  2  0  0  0  0
 15 12  1  0  0  0  0
 16 19  1  0  0  0  0
 17 18  1  0  0  0  0
 18 19  2  0  0  0  0
 20 16  2  0  0  0  0
 21 20  1  0  0  0  0
 21 17  2  0  0  0  0
 22 24  2  0  0  0  0
 22 23  1  0  0  0  0
 23 25  2  0  0  0  0
 24 27  1  0  0  0  0
 25 26  1  0  0  0  0
 27 13  1  0  0  0  0
 27 26  2  0  0  0  0
M  END
>  <MODEL>
9

>  <REMARK>
 VINA RESULT:      -7.1      3.191      5.546
  Name = 
  2 active torsions:
  status: ('A' for Active; 'I' for Inactive)
    1  A    between atoms: C_9  and  N_15
    2  A    between atoms: C_18  and  C_26
                            x       y       z     vdW  Elec       q    Type
                         _______ _______ _______ _____ _____    ______ ____

>  <TORSDO>
F 2

$$$$
