=
 OpenBabel11052417313D

 25 27  0  0  1  0  0  0  0  0999 V2000
  188.1640  176.3160  146.4200 C   0  0  0  0  0  0  0  0  0  0  0  0
  188.9650  176.5960  145.2010 C   0  0  0  0  0  0  0  0  0  0  0  0
  189.8050  174.5560  146.9090 C   0  0  0  0  0  3  0  0  0  0  0  0
  190.6040  174.9240  145.9500 N   0  0  0  0  0  0  0  0  0  0  0  0
  191.0290  176.0930  143.8280 C   0  0  0  0  0  0  0  0  0  0  0  0
  192.3090  175.4960  143.6590 N   0  0  0  0  0  1  0  0  0  0  0  0
  188.4320  177.1720  144.1220 C   0  0  0  0  0  3  0  0  0  0  0  0
  188.5900  175.3350  147.2270 C   0  0  0  0  0  3  0  0  0  0  0  0
  190.4640  176.6830  142.8180 N   0  0  0  0  0  0  0  0  0  0  0  0
  189.2150  177.3210  142.9340 N   0  0  0  0  0  0  0  0  0  0  0  0
  190.4180  176.1730  145.2040 C   0  0  1  0  0  3  0  0  0  0  0  0
  186.9360  177.0850  146.7580 C   0  0  0  0  0  0  0  0  0  0  0  0
  184.5770  178.5090  147.3290 C   0  0  0  0  0  3  0  0  0  0  0  0
  186.9780  178.2580  147.5440 C   0  0  0  0  0  0  0  0  0  0  0  0
  185.8020  178.9590  147.8250 C   0  0  0  0  0  3  0  0  0  0  0  0
  184.5230  177.3520  146.5520 C   0  0  0  0  0  3  0  0  0  0  0  0
  188.1460  178.7140  148.0630 F   0  0  0  0  0  0  0  0  0  0  0  0
  185.6950  176.6460  146.2670 C   0  0  0  0  0  3  0  0  0  0  0  0
  188.6320  177.9710  141.7740 C   0  0  0  0  0  2  0  0  0  0  0  0
  187.6250  177.0450  141.1130 C   0  0  0  0  0  2  0  0  0  0  0  0
  186.2130  177.5870  141.2850 C   0  0  2  0  0  3  0  0  0  0  0  0
  185.5480  177.7550  139.9310 C   0  0  0  0  0  1  0  0  0  0  0  0
  186.1860  178.8950  142.0790 C   0  0  0  0  0  2  0  0  0  0  0  0
  185.2230  178.8420  143.2570 C   0  0  0  0  0  2  0  0  0  0  0  0
  185.4850  180.0160  144.1760 C   0  0  0  0  0  1  0  0  0  0  0  0
  1 12  1  0  0  0  0
  1  8  2  0  0  0  0
  2 11  1  0  0  0  0
  2  1  1  0  0  0  0
  3  8  1  0  0  0  0
  4  3  2  0  0  0  0
  6  5  1  0  0  0  0
  7  2  2  0  0  0  0
  9 10  1  0  0  0  0
  9  5  2  0  0  0  0
 10  7  1  0  0  0  0
 11  5  1  6  0  0  0
 11  4  1  0  0  0  0
 12 14  1  0  0  0  0
 13 15  1  0  0  0  0
 14 15  2  0  0  0  0
 14 17  1  0  0  0  0
 16 13  2  0  0  0  0
 18 16  1  0  0  0  0
 18 12  2  0  0  0  0
 19 10  1  0  0  0  0
 20 21  1  0  0  0  0
 20 19  1  0  0  0  0
 21 22  1  6  0  0  0
 21 23  1  0  0  0  0
 23 24  1  0  0  0  0
 24 25  1  0  0  0  0
M  END
>  <MODEL>
1

>  <REMARK>
 VINA RESULT:      -7.2      0.000      0.000
  Name = 
  6 active torsions:
  status: ('A' for Active; 'I' for Inactive)
    1  A    between atoms: C_1  and  C_5
    2  A    between atoms: C_2  and  C_7
    3  A    between atoms: C_2  and  C_21
    4  A    between atoms: C_6  and  C_15
    5  A    between atoms: C_6  and  N_23
    6  A    between atoms: C_15  and  C_21
                            x       y       z     vdW  Elec       q    Type
                         _______ _______ _______ _____ _____    ______ ____

>  <TORSDO>
F 6

$$$$
=
 OpenBabel11052417313D

 25 27  0  0  1  0  0  0  0  0999 V2000
  187.3020  177.3770  145.7920 C   0  0  0  0  0  0  0  0  0  0  0  0
  186.7440  177.1560  144.4330 C   0  0  0  0  0  0  0  0  0  0  0  0
  185.4920  179.0060  146.1040 C   0  0  0  0  0  3  0  0  0  0  0  0
  184.8970  178.6770  144.9950 N   0  0  0  0  0  0  0  0  0  0  0  0
  184.9230  177.6640  142.7540 C   0  0  0  0  0  0  0  0  0  0  0  0
  183.6550  178.2070  142.4020 N   0  0  0  0  0  1  0  0  0  0  0  0
  187.4920  176.6980  143.4280 C   0  0  0  0  0  3  0  0  0  0  0  0
  186.6800  178.2670  146.5780 C   0  0  0  0  0  3  0  0  0  0  0  0
  185.6910  177.1880  141.8210 N   0  0  0  0  0  0  0  0  0  0  0  0
  186.9400  176.6060  142.1120 N   0  0  0  0  0  0  0  0  0  0  0  0
  185.2890  177.5040  144.2070 C   0  0  1  0  0  3  0  0  0  0  0  0
  188.4990  176.6470  146.2880 C   0  0  0  0  0  0  0  0  0  0  0  0
  190.7180  175.2340  147.2880 C   0  0  0  0  0  3  0  0  0  0  0  0
  189.8120  177.1100  146.0500 C   0  0  0  0  0  0  0  0  0  0  0  0
  190.9090  176.4020  146.5480 C   0  0  0  0  0  3  0  0  0  0  0  0
  189.4260  174.7670  147.5300 C   0  0  0  0  0  3  0  0  0  0  0  0
  190.0400  178.2280  145.3150 F   0  0  0  0  0  0  0  0  0  0  0  0
  188.3250  175.4700  147.0350 C   0  0  0  0  0  3  0  0  0  0  0  0
  187.7550  176.0820  141.0310 C   0  0  0  0  0  2  0  0  0  0  0  0
  188.2740  174.7020  141.3970 C   0  0  0  0  0  2  0  0  0  0  0  0
  189.7950  174.7030  141.4540 C   0  0  2  0  0  3  0  0  0  0  0  0
  190.3490  173.5150  140.6900 C   0  0  0  0  0  1  0  0  0  0  0  0
  190.3210  174.7300  142.8900 C   0  0  0  0  0  2  0  0  0  0  0  0
  189.5190  173.8340  143.8230 C   0  0  0  0  0  2  0  0  0  0  0  0
  190.4360  172.7980  144.4390 C   0  0  0  0  0  1  0  0  0  0  0  0
  1 12  1  0  0  0  0
  1  8  2  0  0  0  0
  2  1  1  0  0  0  0
  3  8  1  0  0  0  0
  4  3  2  0  0  0  0
  6  5  1  0  0  0  0
  7  2  2  0  0  0  0
  9 10  1  0  0  0  0
  9  5  2  0  0  0  0
 10  7  1  0  0  0  0
 11  5  1  6  0  0  0
 11  2  1  0  0  0  0
 11  4  1  0  0  0  0
 12 18  1  0  0  0  0
 13 16  1  0  0  0  0
 14 12  2  0  0  0  0
 14 15  1  0  0  0  0
 15 13  2  0  0  0  0
 17 14  1  0  0  0  0
 18 16  2  0  0  0  0
 19 20  1  0  0  0  0
 19 10  1  0  0  0  0
 20 21  1  0  0  0  0
 21 22  1  1  0  0  0
 21 23  1  0  0  0  0
 23 24  1  0  0  0  0
 24 25  1  0  0  0  0
M  END
>  <MODEL>
2

>  <REMARK>
 VINA RESULT:      -7.0      2.539      5.183
  Name = 
  6 active torsions:
  status: ('A' for Active; 'I' for Inactive)
    1  A    between atoms: C_1  and  C_5
    2  A    between atoms: C_2  and  C_7
    3  A    between atoms: C_2  and  C_21
    4  A    between atoms: C_6  and  C_15
    5  A    between atoms: C_6  and  N_23
    6  A    between atoms: C_15  and  C_21
                            x       y       z     vdW  Elec       q    Type
                         _______ _______ _______ _____ _____    ______ ____

>  <TORSDO>
F 6

$$$$
=
 OpenBabel11052417313D

 25 27  0  0  1  0  0  0  0  0999 V2000
  185.2580  178.2090  144.1210 C   0  0  0  0  0  0  0  0  0  0  0  0
  186.2790  177.8020  143.1240 C   0  0  0  0  0  0  0  0  0  0  0  0
  183.7760  178.6250  142.2080 C   0  0  0  0  0  3  0  0  0  0  0  0
  184.6000  178.0920  141.3530 N   0  0  0  0  0  0  0  0  0  0  0  0
  186.8570  177.3660  140.7000 C   0  0  0  0  0  0  0  0  0  0  0  0
  186.4940  177.1800  139.3370 N   0  0  0  0  0  1  0  0  0  0  0  0
  187.5860  177.8580  143.3870 C   0  0  0  0  0  3  0  0  0  0  0  0
  184.0610  178.5970  143.6580 C   0  0  0  0  0  3  0  0  0  0  0  0
  188.1150  177.4150  141.0230 N   0  0  0  0  0  0  0  0  0  0  0  0
  188.5340  177.5610  142.3590 N   0  0  0  0  0  0  0  0  0  0  0  0
  185.7910  177.3450  141.7670 C   0  0  1  0  0  3  0  0  0  0  0  0
  185.5240  178.1910  145.5850 C   0  0  0  0  0  0  0  0  0  0  0  0
  186.0630  178.2320  148.3470 C   0  0  0  0  0  3  0  0  0  0  0  0
  185.6520  176.9850  146.3090 C   0  0  0  0  0  0  0  0  0  0  0  0
  185.9180  177.0140  147.6810 C   0  0  0  0  0  3  0  0  0  0  0  0
  185.9390  179.4290  147.6420 C   0  0  0  0  0  3  0  0  0  0  0  0
  185.4950  175.7820  145.7020 F   0  0  0  0  0  0  0  0  0  0  0  0
  185.6730  179.4090  146.2710 C   0  0  0  0  0  3  0  0  0  0  0  0
  189.9530  177.6020  142.6630 C   0  0  0  0  0  2  0  0  0  0  0  0
  190.1720  178.2460  144.0210 C   0  0  0  0  0  2  0  0  0  0  0  0
  190.6800  177.2180  145.0210 C   0  0  2  0  0  3  0  0  0  0  0  0
  191.1050  175.9520  144.3010 C   0  0  0  0  0  1  0  0  0  0  0  0
  189.6520  176.9130  146.1130 C   0  0  0  0  0  2  0  0  0  0  0  0
  189.0070  175.5450  145.9420 C   0  0  0  0  0  2  0  0  0  0  0  0
  189.0610  174.7930  147.2550 C   0  0  0  0  0  1  0  0  0  0  0  0
  1 12  1  0  0  0  0
  2  7  2  0  0  0  0
  2  1  1  0  0  0  0
  3  8  1  0  0  0  0
  4 11  1  0  0  0  0
  4  3  2  0  0  0  0
  5  9  2  0  0  0  0
  6  5  1  0  0  0  0
  8  1  2  0  0  0  0
  9 10  1  0  0  0  0
 10 19  1  0  0  0  0
 10  7  1  0  0  0  0
 11  5  1  6  0  0  0
 11  2  1  0  0  0  0
 12 18  2  0  0  0  0
 12 14  1  0  0  0  0
 14 15  2  0  0  0  0
 15 13  1  0  0  0  0
 16 13  2  0  0  0  0
 17 14  1  0  0  0  0
 18 16  1  0  0  0  0
 19 20  1  0  0  0  0
 20 21  1  0  0  0  0
 21 22  1  6  0  0  0
 21 23  1  0  0  0  0
 24 23  1  0  0  0  0
 24 25  1  0  0  0  0
M  END
>  <MODEL>
3

>  <REMARK>
 VINA RESULT:      -7.0      2.030      4.982
  Name = 
  6 active torsions:
  status: ('A' for Active; 'I' for Inactive)
    1  A    between atoms: C_1  and  C_5
    2  A    between atoms: C_2  and  C_7
    3  A    between atoms: C_2  and  C_21
    4  A    between atoms: C_6  and  C_15
    5  A    between atoms: C_6  and  N_23
    6  A    between atoms: C_15  and  C_21
                            x       y       z     vdW  Elec       q    Type
                         _______ _______ _______ _____ _____    ______ ____

>  <TORSDO>
F 6

$$$$
=
 OpenBabel11052417313D

 25 27  0  0  1  0  0  0  0  0999 V2000
  188.9450  175.5250  143.4250 C   0  0  0  0  0  0  0  0  0  0  0  0
  188.0720  176.5290  142.7650 C   0  0  0  0  0  0  0  0  0  0  0  0
  188.7640  174.2280  141.3480 C   0  0  0  0  0  3  0  0  0  0  0  0
  188.1600  175.1860  140.7080 N   0  0  0  0  0  0  0  0  0  0  0  0
  186.8430  177.2630  140.6800 C   0  0  0  0  0  0  0  0  0  0  0  0
  186.5590  177.1630  139.2900 N   0  0  0  0  0  1  0  0  0  0  0  0
  187.3160  177.3760  143.4650 C   0  0  0  0  0  3  0  0  0  0  0  0
  189.2680  174.4300  142.7220 C   0  0  0  0  0  3  0  0  0  0  0  0
  186.1510  178.0820  141.4140 N   0  0  0  0  0  0  0  0  0  0  0  0
  186.4090  178.2490  142.7870 N   0  0  0  0  0  0  0  0  0  0  0  0
  188.0370  176.5420  141.2530 C   0  0  1  0  0  3  0  0  0  0  0  0
  189.4620  175.7070  144.8080 C   0  0  0  0  0  0  0  0  0  0  0  0
  190.3690  176.0140  147.4540 C   0  0  0  0  0  3  0  0  0  0  0  0
  190.3770  176.7310  145.1380 C   0  0  0  0  0  0  0  0  0  0  0  0
  190.8240  176.8760  146.4540 C   0  0  0  0  0  3  0  0  0  0  0  0
  189.4650  175.0000  147.1390 C   0  0  0  0  0  3  0  0  0  0  0  0
  190.8600  177.5740  144.1910 F   0  0  0  0  0  0  0  0  0  0  0  0
  189.0140  174.8480  145.8260 C   0  0  0  0  0  3  0  0  0  0  0  0
  185.6090  179.1840  143.5570 C   0  0  0  0  0  2  0  0  0  0  0  0
  185.9480  179.0610  145.0340 C   0  0  0  0  0  2  0  0  0  0  0  0
  185.0470  178.0330  145.7020 C   0  0  2  0  0  3  0  0  0  0  0  0
  183.7640  178.6890  146.1760 C   0  0  0  0  0  1  0  0  0  0  0  0
  185.7500  177.3040  146.8490 C   0  0  0  0  0  2  0  0  0  0  0  0
  187.1340  177.8680  147.1370 C   0  0  0  0  0  2  0  0  0  0  0  0
  187.0660  178.7830  148.3410 C   0  0  0  0  0  1  0  0  0  0  0  0
  1 12  1  0  0  0  0
  2  1  1  0  0  0  0
  2  7  2  0  0  0  0
  3  8  1  0  0  0  0
  4 11  1  0  0  0  0
  4  3  2  0  0  0  0
  5  9  2  0  0  0  0
  6  5  1  0  0  0  0
  8  1  2  0  0  0  0
  9 10  1  0  0  0  0
 10  7  1  0  0  0  0
 10 19  1  0  0  0  0
 11  5  1  1  0  0  0
 11  2  1  0  0  0  0
 12 14  2  0  0  0  0
 12 18  1  0  0  0  0
 14 15  1  0  0  0  0
 15 13  2  0  0  0  0
 16 13  1  0  0  0  0
 17 14  1  0  0  0  0
 18 16  2  0  0  0  0
 19 20  1  0  0  0  0
 20 21  1  0  0  0  0
 21 22  1  1  0  0  0
 21 23  1  0  0  0  0
 23 24  1  0  0  0  0
 24 25  1  0  0  0  0
M  END
>  <MODEL>
4

>  <REMARK>
 VINA RESULT:      -6.9      2.298      4.818
  Name = 
  6 active torsions:
  status: ('A' for Active; 'I' for Inactive)
    1  A    between atoms: C_1  and  C_5
    2  A    between atoms: C_2  and  C_7
    3  A    between atoms: C_2  and  C_21
    4  A    between atoms: C_6  and  C_15
    5  A    between atoms: C_6  and  N_23
    6  A    between atoms: C_15  and  C_21
                            x       y       z     vdW  Elec       q    Type
                         _______ _______ _______ _____ _____    ______ ____

>  <TORSDO>
F 6

$$$$
=
 OpenBabel11052417313D

 25 27  0  0  1  0  0  0  0  0999 V2000
  189.8380  173.7680  144.0200 C   0  0  0  0  0  0  0  0  0  0  0  0
  189.2900  174.5940  142.9140 C   0  0  0  0  0  0  0  0  0  0  0  0
  189.5180  171.8400  142.5350 C   0  0  0  0  0  3  0  0  0  0  0  0
  189.2190  172.5800  141.5080 N   0  0  0  0  0  0  0  0  0  0  0  0
  188.4500  174.7020  140.5310 C   0  0  0  0  0  0  0  0  0  0  0  0
  188.2650  174.1370  139.2380 N   0  0  0  0  0  1  0  0  0  0  0  0
  188.7070  175.7730  143.1350 C   0  0  0  0  0  3  0  0  0  0  0  0
  189.9420  172.4480  143.8130 C   0  0  0  0  0  3  0  0  0  0  0  0
  187.9190  175.8560  140.8030 N   0  0  0  0  0  0  0  0  0  0  0  0
  188.0970  176.4810  142.0520 N   0  0  0  0  0  0  0  0  0  0  0  0
  189.3830  174.0370  141.5110 C   0  0  1  0  0  3  0  0  0  0  0  0
  190.2680  174.3590  145.3160 C   0  0  0  0  0  0  0  0  0  0  0  0
  191.0020  175.4970  147.7830 C   0  0  0  0  0  3  0  0  0  0  0  0
  191.5710  174.8680  145.5130 C   0  0  0  0  0  0  0  0  0  0  0  0
  191.9280  175.4300  146.7420 C   0  0  0  0  0  3  0  0  0  0  0  0
  189.7120  174.9990  147.6010 C   0  0  0  0  0  3  0  0  0  0  0  0
  192.5070  174.8000  144.5320 F   0  0  0  0  0  0  0  0  0  0  0  0
  189.3470  174.4360  146.3750 C   0  0  0  0  0  3  0  0  0  0  0  0
  187.4860  177.7740  142.2990 C   0  0  0  0  0  2  0  0  0  0  0  0
  187.2620  177.9650  143.7890 C   0  0  0  0  0  2  0  0  0  0  0  0
  185.7950  178.2530  144.0740 C   0  0  2  0  0  3  0  0  0  0  0  0
  185.5600  179.7500  144.1460 C   0  0  0  0  0  1  0  0  0  0  0  0
  185.3020  177.5550  145.3430 C   0  0  0  0  0  2  0  0  0  0  0  0
  186.3760  176.6910  145.9880 C   0  0  0  0  0  2  0  0  0  0  0  0
  186.3570  176.8980  147.4880 C   0  0  0  0  0  1  0  0  0  0  0  0
  1 12  1  0  0  0  0
  2  7  2  0  0  0  0
  2  1  1  0  0  0  0
  3  8  1  0  0  0  0
  4 11  1  0  0  0  0
  4  3  2  0  0  0  0
  5  9  2  0  0  0  0
  6  5  1  0  0  0  0
  8  1  2  0  0  0  0
  9 10  1  0  0  0  0
 10 19  1  0  0  0  0
 10  7  1  0  0  0  0
 11  5  1  6  0  0  0
 11  2  1  0  0  0  0
 12 14  2  0  0  0  0
 12 18  1  0  0  0  0
 14 15  1  0  0  0  0
 15 13  2  0  0  0  0
 16 13  1  0  0  0  0
 17 14  1  0  0  0  0
 18 16  2  0  0  0  0
 19 20  1  0  0  0  0
 20 21  1  0  0  0  0
 21 22  1  1  0  0  0
 21 23  1  0  0  0  0
 23 24  1  0  0  0  0
 24 25  1  0  0  0  0
M  END
>  <MODEL>
5

>  <REMARK>
 VINA RESULT:      -6.9      2.806      4.643
  Name = 
  6 active torsions:
  status: ('A' for Active; 'I' for Inactive)
    1  A    between atoms: C_1  and  C_5
    2  A    between atoms: C_2  and  C_7
    3  A    between atoms: C_2  and  C_21
    4  A    between atoms: C_6  and  C_15
    5  A    between atoms: C_6  and  N_23
    6  A    between atoms: C_15  and  C_21
                            x       y       z     vdW  Elec       q    Type
                         _______ _______ _______ _____ _____    ______ ____

>  <TORSDO>
F 6

$$$$
=
 OpenBabel11052417313D

 25 27  0  0  1  0  0  0  0  0999 V2000
  187.7710  177.2040  141.8580 C   0  0  0  0  0  0  0  0  0  0  0  0
  186.4760  177.7070  142.3820 C   0  0  0  0  0  0  0  0  0  0  0  0
  186.6210  176.9290  139.7070 C   0  0  0  0  0  3  0  0  0  0  0  0
  185.5470  177.5420  140.1120 N   0  0  0  0  0  0  0  0  0  0  0  0
  184.0760  178.3510  141.9090 C   0  0  0  0  0  0  0  0  0  0  0  0
  183.0070  178.6440  141.0170 N   0  0  0  0  0  1  0  0  0  0  0  0
  186.1660  177.6460  143.6780 C   0  0  0  0  0  3  0  0  0  0  0  0
  187.8180  176.8410  140.5690 C   0  0  0  0  0  3  0  0  0  0  0  0
  183.8410  178.2920  143.1860 N   0  0  0  0  0  0  0  0  0  0  0  0
  184.8650  178.0410  144.1190 N   0  0  0  0  0  0  0  0  0  0  0  0
  185.4870  178.2690  141.3840 C   0  0  1  0  0  3  0  0  0  0  0  0
  188.9880  177.1040  142.7080 C   0  0  0  0  0  0  0  0  0  0  0  0
  191.3140  176.9880  144.2870 C   0  0  0  0  0  3  0  0  0  0  0  0
  189.5160  175.8590  143.1180 C   0  0  0  0  0  0  0  0  0  0  0  0
  190.6700  175.8100  143.9040 C   0  0  0  0  0  3  0  0  0  0  0  0
  190.8030  178.2220  143.8880 C   0  0  0  0  0  3  0  0  0  0  0  0
  188.9050  174.6940  142.7860 F   0  0  0  0  0  0  0  0  0  0  0  0
  189.6490  178.2790  143.1020 C   0  0  0  0  0  3  0  0  0  0  0  0
  184.5470  177.9940  145.5340 C   0  0  0  0  0  2  0  0  0  0  0  0
  185.3980  176.9390  146.2210 C   0  0  0  0  0  2  0  0  0  0  0  0
  186.2850  177.5780  147.2800 C   0  0  2  0  0  3  0  0  0  0  0  0
  185.9390  179.0480  147.4350 C   0  0  0  0  0  1  0  0  0  0  0  0
  187.7730  177.3900  146.9820 C   0  0  0  0  0  2  0  0  0  0  0  0
  188.0810  176.0220  146.3900 C   0  0  0  0  0  2  0  0  0  0  0  0
  189.0950  175.3120  147.2610 C   0  0  0  0  0  1  0  0  0  0  0  0
  1  2  1  0  0  0  0
  1 12  1  0  0  0  0
  2  7  2  0  0  0  0
  3  4  2  0  0  0  0
  3  8  1  0  0  0  0
  5  9  2  0  0  0  0
  6  5  1  0  0  0  0
  7 10  1  0  0  0  0
  8  1  2  0  0  0  0
  9 10  1  0  0  0  0
 10 19  1  0  0  0  0
 11  4  1  6  0  0  0
 11  5  1  0  0  0  0
 11  2  1  0  0  0  0
 12 18  2  0  0  0  0
 12 14  1  0  0  0  0
 14 15  2  0  0  0  0
 15 13  1  0  0  0  0
 16 13  2  0  0  0  0
 17 14  1  0  0  0  0
 18 16  1  0  0  0  0
 19 20  1  0  0  0  0
 20 21  1  0  0  0  0
 21 22  1  6  0  0  0
 23 21  1  0  0  0  0
 24 23  1  0  0  0  0
 24 25  1  0  0  0  0
M  END
>  <MODEL>
6

>  <REMARK>
 VINA RESULT:      -6.8      3.062      6.416
  Name = 
  6 active torsions:
  status: ('A' for Active; 'I' for Inactive)
    1  A    between atoms: C_1  and  C_5
    2  A    between atoms: C_2  and  C_7
    3  A    between atoms: C_2  and  C_21
    4  A    between atoms: C_6  and  C_15
    5  A    between atoms: C_6  and  N_23
    6  A    between atoms: C_15  and  C_21
                            x       y       z     vdW  Elec       q    Type
                         _______ _______ _______ _____ _____    ______ ____

>  <TORSDO>
F 6

$$$$
=
 OpenBabel11052417313D

 25 27  0  0  1  0  0  0  0  0999 V2000
  186.8970  177.3840  143.5710 C   0  0  0  0  0  0  0  0  0  0  0  0
  187.7430  176.1740  143.4160 C   0  0  0  0  0  0  0  0  0  0  0  0
  187.2410  177.7460  141.1680 C   0  0  0  0  0  3  0  0  0  0  0  0
  187.8190  176.5930  140.9960 N   0  0  0  0  0  0  0  0  0  0  0  0
  189.0220  174.6340  141.8700 C   0  0  0  0  0  0  0  0  0  0  0  0
  189.3720  174.1650  140.5730 N   0  0  0  0  0  1  0  0  0  0  0  0
  188.4200  175.6490  144.4390 C   0  0  0  0  0  3  0  0  0  0  0  0
  186.6660  178.1220  142.4760 C   0  0  0  0  0  3  0  0  0  0  0  0
  189.6350  174.1500  142.9080 N   0  0  0  0  0  0  0  0  0  0  0  0
  189.3070  174.5490  144.2180 N   0  0  0  0  0  0  0  0  0  0  0  0
  187.8440  175.5610  142.0370 C   0  0  1  0  0  3  0  0  0  0  0  0
  186.3110  177.7830  144.8790 C   0  0  0  0  0  0  0  0  0  0  0  0
  185.2650  178.4980  147.3920 C   0  0  0  0  0  3  0  0  0  0  0  0
  184.9260  178.0100  145.0420 C   0  0  0  0  0  0  0  0  0  0  0  0
  184.4150  178.3670  146.2930 C   0  0  0  0  0  3  0  0  0  0  0  0
  186.6340  178.2760  147.2430 C   0  0  0  0  0  3  0  0  0  0  0  0
  184.0700  177.9150  143.9930 F   0  0  0  0  0  0  0  0  0  0  0  0
  187.1520  177.9190  145.9960 C   0  0  0  0  0  3  0  0  0  0  0  0
  190.0200  173.9710  145.3420 C   0  0  0  0  0  2  0  0  0  0  0  0
  189.5810  174.6400  146.6330 C   0  0  0  0  0  2  0  0  0  0  0  0
  190.7450  175.3880  147.2670 C   0  0  2  0  0  3  0  0  0  0  0  0
  190.4390  176.8730  147.3350 C   0  0  0  0  0  1  0  0  0  0  0  0
  192.0660  175.1290  146.5390 C   0  0  0  0  0  2  0  0  0  0  0  0
  192.7550  176.4150  146.1060 C   0  0  0  0  0  2  0  0  0  0  0  0
  194.2130  176.3680  146.5120 C   0  0  0  0  0  1  0  0  0  0  0  0
  1 12  1  0  0  0  0
  2  1  1  0  0  0  0
  2  7  2  0  0  0  0
  3  8  1  0  0  0  0
  4  3  2  0  0  0  0
  5 11  1  0  0  0  0
  5  9  2  0  0  0  0
  6  5  1  0  0  0  0
  8  1  2  0  0  0  0
  9 10  1  0  0  0  0
 10  7  1  0  0  0  0
 10 19  1  0  0  0  0
 11  4  1  6  0  0  0
 11  2  1  0  0  0  0
 12 14  2  0  0  0  0
 12 18  1  0  0  0  0
 14 15  1  0  0  0  0
 15 13  2  0  0  0  0
 16 13  1  0  0  0  0
 17 14  1  0  0  0  0
 18 16  2  0  0  0  0
 19 20  1  0  0  0  0
 20 21  1  0  0  0  0
 21 22  1  6  0  0  0
 23 21  1  0  0  0  0
 24 25  1  0  0  0  0
 24 23  1  0  0  0  0
M  END
>  <MODEL>
7

>  <REMARK>
 VINA RESULT:      -6.6      2.293      5.327
  Name = 
  6 active torsions:
  status: ('A' for Active; 'I' for Inactive)
    1  A    between atoms: C_1  and  C_5
    2  A    between atoms: C_2  and  C_7
    3  A    between atoms: C_2  and  C_21
    4  A    between atoms: C_6  and  C_15
    5  A    between atoms: C_6  and  N_23
    6  A    between atoms: C_15  and  C_21
                            x       y       z     vdW  Elec       q    Type
                         _______ _______ _______ _____ _____    ______ ____

>  <TORSDO>
F 6

$$$$
=
 OpenBabel11052417313D

 25 27  0  0  1  0  0  0  0  0999 V2000
  188.1710  177.4390  145.7800 C   0  0  0  0  0  0  0  0  0  0  0  0
  188.9100  176.9250  144.5990 C   0  0  0  0  0  0  0  0  0  0  0  0
  190.2640  177.1460  147.0290 C   0  0  0  0  0  3  0  0  0  0  0  0
  190.9570  176.8780  145.9600 N   0  0  0  0  0  0  0  0  0  0  0  0
  191.1070  176.1470  143.6170 C   0  0  0  0  0  0  0  0  0  0  0  0
  192.5210  175.9920  143.6680 N   0  0  0  0  0  1  0  0  0  0  0  0
  188.2870  176.3440  143.5730 C   0  0  0  0  0  3  0  0  0  0  0  0
  188.8430  177.5400  146.9350 C   0  0  0  0  0  3  0  0  0  0  0  0
  190.4450  175.6160  142.6330 N   0  0  0  0  0  0  0  0  0  0  0  0
  189.0510  175.7660  142.5100 N   0  0  0  0  0  0  0  0  0  0  0  0
  190.4180  177.0510  144.6070 C   0  0  1  0  0  3  0  0  0  0  0  0
  186.7390  177.8390  145.7090 C   0  0  0  0  0  0  0  0  0  0  0  0
  184.0550  178.6680  145.5400 C   0  0  0  0  0  3  0  0  0  0  0  0
  185.7730  177.3300  146.6050 C   0  0  0  0  0  0  0  0  0  0  0  0
  184.4420  177.7450  146.5130 C   0  0  0  0  0  3  0  0  0  0  0  0
  185.0010  179.1780  144.6500 C   0  0  0  0  0  3  0  0  0  0  0  0
  186.1050  176.4140  147.5490 F   0  0  0  0  0  0  0  0  0  0  0  0
  186.3340  178.7680  144.7360 C   0  0  0  0  0  3  0  0  0  0  0  0
  188.3620  175.1570  141.3870 C   0  0  0  0  0  2  0  0  0  0  0  0
  189.2440  174.0940  140.7540 C   0  0  0  0  0  2  0  0  0  0  0  0
  188.8600  172.7120  141.2640 C   0  0  2  0  0  3  0  0  0  0  0  0
  187.4780  172.7500  141.8890 C   0  0  0  0  0  1  0  0  0  0  0  0
  189.8920  172.1470  142.2410 C   0  0  0  0  0  2  0  0  0  0  0  0
  189.3150  171.9150  143.6310 C   0  0  0  0  0  2  0  0  0  0  0  0
  190.1080  172.7110  144.6460 C   0  0  0  0  0  1  0  0  0  0  0  0
  1  8  2  0  0  0  0
  2 11  1  0  0  0  0
  2  1  1  0  0  0  0
  4  3  2  0  0  0  0
  5  6  1  0  0  0  0
  7  2  2  0  0  0  0
  8  3  1  0  0  0  0
  9  5  2  0  0  0  0
 10  9  1  0  0  0  0
 10  7  1  0  0  0  0
 11  5  1  6  0  0  0
 11  4  1  0  0  0  0
 12  1  1  0  0  0  0
 12 14  1  0  0  0  0
 13 15  1  0  0  0  0
 14 17  1  0  0  0  0
 15 14  2  0  0  0  0
 16 18  1  0  0  0  0
 16 13  2  0  0  0  0
 18 12  2  0  0  0  0
 19 10  1  0  0  0  0
 20 21  1  0  0  0  0
 20 19  1  0  0  0  0
 21 22  1  1  0  0  0
 21 23  1  0  0  0  0
 23 24  1  0  0  0  0
 24 25  1  0  0  0  0
M  END
>  <MODEL>
8

>  <REMARK>
 VINA RESULT:      -6.3      2.356      3.709
  Name = 
  6 active torsions:
  status: ('A' for Active; 'I' for Inactive)
    1  A    between atoms: C_1  and  C_5
    2  A    between atoms: C_2  and  C_7
    3  A    between atoms: C_2  and  C_21
    4  A    between atoms: C_6  and  C_15
    5  A    between atoms: C_6  and  N_23
    6  A    between atoms: C_15  and  C_21
                            x       y       z     vdW  Elec       q    Type
                         _______ _______ _______ _____ _____    ______ ____

>  <TORSDO>
F 6

$$$$
=
 OpenBabel11052417313D

 25 27  0  0  1  0  0  0  0  0999 V2000
  190.4700  173.7970  144.1510 C   0  0  0  0  0  0  0  0  0  0  0  0
  189.7870  174.4300  142.9940 C   0  0  0  0  0  0  0  0  0  0  0  0
  190.1730  171.6670  142.9670 C   0  0  0  0  0  3  0  0  0  0  0  0
  189.7480  172.2400  141.8790 N   0  0  0  0  0  0  0  0  0  0  0  0
  188.7670  174.1600  140.6960 C   0  0  0  0  0  0  0  0  0  0  0  0
  188.5250  173.4120  139.5100 N   0  0  0  0  0  1  0  0  0  0  0  0
  189.1440  175.5930  143.1040 C   0  0  0  0  0  3  0  0  0  0  0  0
  190.6480  172.4690  144.1130 C   0  0  0  0  0  3  0  0  0  0  0  0
  188.1800  175.3080  140.8550 N   0  0  0  0  0  0  0  0  0  0  0  0
  188.4080  176.1080  141.9900 N   0  0  0  0  0  0  0  0  0  0  0  0
  189.8130  173.6900  141.6750 C   0  0  1  0  0  3  0  0  0  0  0  0
  190.9550  174.5850  145.3170 C   0  0  0  0  0  0  0  0  0  0  0  0
  191.9490  176.0600  147.4970 C   0  0  0  0  0  3  0  0  0  0  0  0
  190.1940  174.7190  146.4990 C   0  0  0  0  0  0  0  0  0  0  0  0
  190.6940  175.4550  147.5770 C   0  0  0  0  0  3  0  0  0  0  0  0
  192.7090  175.9340  146.3340 C   0  0  0  0  0  3  0  0  0  0  0  0
  188.9600  174.1650  146.6070 F   0  0  0  0  0  0  0  0  0  0  0  0
  192.2160  175.2000  145.2530 C   0  0  0  0  0  3  0  0  0  0  0  0
  187.7310  177.3860  142.1130 C   0  0  0  0  0  2  0  0  0  0  0  0
  186.6620  177.3050  143.1890 C   0  0  0  0  0  2  0  0  0  0  0  0
  186.9660  178.2820  144.3160 C   0  0  2  0  0  3  0  0  0  0  0  0
  187.6210  177.5570  145.4760 C   0  0  0  0  0  1  0  0  0  0  0  0
  185.7210  179.0450  144.7730 C   0  0  0  0  0  2  0  0  0  0  0  0
  185.5600  179.0440  146.2870 C   0  0  0  0  0  2  0  0  0  0  0  0
  184.2890  178.3100  146.6590 C   0  0  0  0  0  1  0  0  0  0  0  0
  1 12  1  0  0  0  0
  2  7  2  0  0  0  0
  2  1  1  0  0  0  0
  3  8  1  0  0  0  0
  4  3  2  0  0  0  0
  5  9  2  0  0  0  0
  6  5  1  0  0  0  0
  8  1  2  0  0  0  0
  9 10  1  0  0  0  0
 10 19  1  0  0  0  0
 10  7  1  0  0  0  0
 11  5  1  6  0  0  0
 11  4  1  0  0  0  0
 11  2  1  0  0  0  0
 12 14  1  0  0  0  0
 13 15  1  0  0  0  0
 14 17  1  0  0  0  0
 14 15  2  0  0  0  0
 16 13  2  0  0  0  0
 18 12  2  0  0  0  0
 18 16  1  0  0  0  0
 19 20  1  0  0  0  0
 20 21  1  0  0  0  0
 21 23  1  0  0  0  0
 21 22  1  1  0  0  0
 23 24  1  0  0  0  0
 24 25  1  0  0  0  0
M  END
>  <MODEL>
9

>  <REMARK>
 VINA RESULT:      -6.3      2.759      4.698
  Name = 
  6 active torsions:
  status: ('A' for Active; 'I' for Inactive)
    1  A    between atoms: C_1  and  C_5
    2  A    between atoms: C_2  and  C_7
    3  A    between atoms: C_2  and  C_21
    4  A    between atoms: C_6  and  C_15
    5  A    between atoms: C_6  and  N_23
    6  A    between atoms: C_15  and  C_21
                            x       y       z     vdW  Elec       q    Type
                         _______ _______ _______ _____ _____    ______ ____

>  <TORSDO>
F 6

$$$$
