=
 OpenBabel11052418153D

 28 32  0  0  0  0  0  0  0  0999 V2000
  188.1260  177.1570  144.5950 C   0  0  0  0  0  0  0  0  0  0  0  0
  192.5810  175.9160  142.4890 C   0  0  0  0  0  3  0  0  0  0  0  0
  191.2030  176.8330  148.3650 O   0  0  0  0  0  1  0  0  0  0  0  0
  194.2300  176.2300  144.2820 C   0  0  0  0  0  0  0  0  0  0  0  0
  191.7370  176.4620  144.7230 C   0  0  0  0  0  0  0  0  0  0  0  0
  195.0360  175.5760  142.0810 C   0  0  0  0  0  0  0  0  0  0  0  0
  192.8370  176.1990  143.7740 C   0  0  0  0  0  0  0  0  0  0  0  0
  193.3800  176.1860  146.6270 C   0  0  0  0  0  2  0  0  0  0  0  0
  195.2590  175.9430  143.4860 C   0  0  0  0  0  3  0  0  0  0  0  0
  189.6640  177.0110  146.5000 C   0  0  0  0  0  0  0  0  0  0  0  0
  190.4710  176.6720  144.2710 N   0  0  0  0  0  0  0  0  0  0  0  0
  194.4850  176.6760  145.6890 C   0  0  0  0  0  2  0  0  0  0  0  0
  187.3300  177.5400  146.8700 C   0  0  0  0  0  3  0  0  0  0  0  0
  190.9580  176.7880  146.9940 C   0  0  0  0  0  0  0  0  0  0  0  0
  188.6110  177.3100  147.3690 C   0  0  0  0  0  3  0  0  0  0  0  0
  196.0130  175.2330  141.3670 O   0  0  0  0  0  0  0  0  0  0  0  0
  193.6620  175.6410  141.4750 C   0  0  0  0  0  2  0  0  0  0  0  0
  192.0050  176.5200  146.1040 C   0  0  0  0  0  0  0  0  0  0  0  0
  187.0930  177.4660  145.4970 C   0  0  0  0  0  3  0  0  0  0  0  0
  189.4290  176.9350  145.1050 C   0  0  0  0  0  0  0  0  0  0  0  0
  187.8130  177.0750  143.1420 C   0  0  0  0  0  0  0  0  0  0  0  0
  188.1560  175.9750  142.4560 C   0  0  0  0  0  3  0  0  0  0  0  0
  187.1110  176.9090  140.3460 C   0  0  0  0  0  0  0  0  0  0  0  0
  187.2200  178.2760  142.4270 C   0  0  0  0  0  2  0  0  0  0  0  0
  188.2510  174.8310  140.3900 O   0  0  0  0  0  0  0  0  0  0  0  0
  187.8720  175.8520  141.0220 C   0  0  0  0  0  0  0  0  0  0  0  0
  186.7130  176.7520  139.0230 O   0  0  0  0  0  1  0  0  0  0  0  0
  186.7810  178.0170  141.0060 C   0  0  0  0  0  3  0  0  0  0  0  0
  1 20  2  0  0  0  0
  1 19  1  0  0  0  0
  2  7  2  0  0  0  0
  4 12  1  0  0  0  0
  5 18  1  0  0  0  0
  6  9  1  0  0  0  0
  7  4  1  0  0  0  0
  7  5  1  0  0  0  0
  9  4  2  0  0  0  0
 10 14  1  0  0  0  0
 10 15  2  0  0  0  0
 11  5  2  0  0  0  0
 11 20  1  0  0  0  0
 12  8  1  0  0  0  0
 13 15  1  0  0  0  0
 14  3  1  0  0  0  0
 16  6  2  0  0  0  0
 17  6  1  0  0  0  0
 17  2  1  0  0  0  0
 18  8  1  0  0  0  0
 18 14  2  0  0  0  0
 19 13  2  0  0  0  0
 20 10  1  0  0  0  0
 21  1  1  0  0  0  0
 22 21  2  0  0  0  0
 23 28  2  0  0  0  0
 23 26  1  0  0  0  0
 24 21  1  0  0  0  0
 25 26  2  0  0  0  0
 26 22  1  0  0  0  0
 27 23  1  0  0  0  0
 28 24  1  0  0  0  0
M  END
>  <MODEL>
1

>  <REMARK>
 VINA RESULT:      -8.3      0.000      0.000
  Name = 
  1 active torsions:
  status: ('A' for Active; 'I' for Inactive)
    1  A    between atoms: C_1  and  C_2
                            x       y       z     vdW  Elec       q    Type
                         _______ _______ _______ _____ _____    ______ ____

>  <TORSDO>
F 1

$$$$
=
 OpenBabel11052418153D

 28 32  0  0  0  0  0  0  0  0999 V2000
  186.7000  177.3940  144.7430 C   0  0  0  0  0  0  0  0  0  0  0  0
  188.4030  174.1590  141.2120 C   0  0  0  0  0  3  0  0  0  0  0  0
  190.2230  174.8840  146.9940 O   0  0  0  0  0  1  0  0  0  0  0  0
  190.4780  173.2430  142.1530 C   0  0  0  0  0  0  0  0  0  0  0  0
  188.9750  174.7750  143.5140 C   0  0  0  0  0  0  0  0  0  0  0  0
  189.8300  172.5550  139.9110 C   0  0  0  0  0  0  0  0  0  0  0  0
  189.2520  174.0710  142.2470 C   0  0  0  0  0  0  0  0  0  0  0  0
  190.7550  173.3670  144.6300 C   0  0  0  0  0  2  0  0  0  0  0  0
  190.7500  172.5370  141.0560 C   0  0  0  0  0  3  0  0  0  0  0  0
  188.4780  176.1490  145.8840 C   0  0  0  0  0  0  0  0  0  0  0  0
  187.9980  175.7220  143.5780 N   0  0  0  0  0  0  0  0  0  0  0  0
  191.4660  173.2710  143.2780 C   0  0  0  0  0  2  0  0  0  0  0  0
  187.2300  177.8450  147.0810 C   0  0  0  0  0  3  0  0  0  0  0  0
  189.4840  175.1720  145.8490 C   0  0  0  0  0  0  0  0  0  0  0  0
  188.2240  176.8690  147.0570 C   0  0  0  0  0  3  0  0  0  0  0  0
  190.0650  171.8220  138.9160 O   0  0  0  0  0  0  0  0  0  0  0  0
  188.6340  173.4640  139.8960 C   0  0  0  0  0  2  0  0  0  0  0  0
  189.7430  174.4840  144.6570 C   0  0  0  0  0  0  0  0  0  0  0  0
  186.4790  178.1050  145.9350 C   0  0  0  0  0  3  0  0  0  0  0  0
  187.7180  176.4100  144.7180 C   0  0  0  0  0  0  0  0  0  0  0  0
  185.8570  177.7010  143.5540 C   0  0  0  0  0  0  0  0  0  0  0  0
  186.3930  177.6160  142.3280 C   0  0  0  0  0  3  0  0  0  0  0  0
  184.1730  178.2150  141.2650 C   0  0  0  0  0  0  0  0  0  0  0  0
  184.4430  178.2210  143.7430 C   0  0  0  0  0  2  0  0  0  0  0  0
  186.1440  177.8760  139.9920 O   0  0  0  0  0  0  0  0  0  0  0  0
  185.6030  177.9130  141.1280 C   0  0  0  0  0  0  0  0  0  0  0  0
  183.3760  178.3670  140.1370 O   0  0  0  0  0  1  0  0  0  0  0  0
  183.6300  178.3250  142.4760 C   0  0  0  0  0  3  0  0  0  0  0  0
  1 19  1  0  0  0  0
  2  7  2  0  0  0  0
  4  7  1  0  0  0  0
  4 12  1  0  0  0  0
  5 11  2  0  0  0  0
  5 18  1  0  0  0  0
  6  9  1  0  0  0  0
  7  5  1  0  0  0  0
  8 18  1  0  0  0  0
  9  4  2  0  0  0  0
 10 15  2  0  0  0  0
 11 20  1  0  0  0  0
 12  8  1  0  0  0  0
 14 10  1  0  0  0  0
 14  3  1  0  0  0  0
 15 13  1  0  0  0  0
 16  6  2  0  0  0  0
 17  6  1  0  0  0  0
 17  2  1  0  0  0  0
 18 14  2  0  0  0  0
 19 13  2  0  0  0  0
 20  1  2  0  0  0  0
 20 10  1  0  0  0  0
 21 24  1  0  0  0  0
 21  1  1  0  0  0  0
 22 21  2  0  0  0  0
 23 28  2  0  0  0  0
 25 26  2  0  0  0  0
 26 23  1  0  0  0  0
 26 22  1  0  0  0  0
 27 23  1  0  0  0  0
 28 24  1  0  0  0  0
M  END
>  <MODEL>
2

>  <REMARK>
 VINA RESULT:      -8.2      3.063      3.843
  Name = 
  1 active torsions:
  status: ('A' for Active; 'I' for Inactive)
    1  A    between atoms: C_1  and  C_2
                            x       y       z     vdW  Elec       q    Type
                         _______ _______ _______ _____ _____    ______ ____

>  <TORSDO>
F 1

$$$$
=
 OpenBabel11052418153D

 28 32  0  0  0  0  0  0  0  0999 V2000
  190.6950  176.2800  145.3500 C   0  0  0  0  0  0  0  0  0  0  0  0
  186.9660  177.4620  142.1050 C   0  0  0  0  0  3  0  0  0  0  0  0
  187.3330  178.4780  148.1140 O   0  0  0  0  0  1  0  0  0  0  0  0
  185.0770  178.1110  143.5340 C   0  0  0  0  0  0  0  0  0  0  0  0
  187.3670  177.6110  144.5180 C   0  0  0  0  0  0  0  0  0  0  0  0
  184.7350  178.0680  141.1260 C   0  0  0  0  0  0  0  0  0  0  0  0
  186.4900  177.7090  143.3340 C   0  0  0  0  0  0  0  0  0  0  0  0
  185.6090  178.8390  145.8610 C   0  0  0  0  0  2  0  0  0  0  0  0
  184.2550  178.2740  142.4980 C   0  0  0  0  0  3  0  0  0  0  0  0
  189.0080  177.3720  146.7550 C   0  0  0  0  0  0  0  0  0  0  0  0
  188.5930  177.0290  144.4220 N   0  0  0  0  0  0  0  0  0  0  0  0
  184.5480  178.2530  144.9280 C   0  0  0  0  0  2  0  0  0  0  0  0
  191.0830  176.6010  147.7370 C   0  0  0  0  0  3  0  0  0  0  0  0
  187.7520  177.9850  146.8810 C   0  0  0  0  0  0  0  0  0  0  0  0
  189.8410  177.2200  147.8680 C   0  0  0  0  0  3  0  0  0  0  0  0
  183.9650  178.3020  140.1580 O   0  0  0  0  0  0  0  0  0  0  0  0
  186.1190  177.5450  140.8620 C   0  0  0  0  0  2  0  0  0  0  0  0
  186.9200  178.1000  145.7600 C   0  0  0  0  0  0  0  0  0  0  0  0
  191.5020  176.1350  146.4910 C   0  0  0  0  0  3  0  0  0  0  0  0
  189.4290  176.9000  145.4880 C   0  0  0  0  0  0  0  0  0  0  0  0
  191.2000  175.7790  144.0420 C   0  0  0  0  0  0  0  0  0  0  0  0
  192.3370  176.2820  143.5390 C   0  0  0  0  0  3  0  0  0  0  0  0
  192.2020  174.7220  141.5480 C   0  0  0  0  0  0  0  0  0  0  0  0
  190.3700  174.7970  143.2360 C   0  0  0  0  0  2  0  0  0  0  0  0
  193.9120  176.3480  141.7780 O   0  0  0  0  0  0  0  0  0  0  0  0
  192.8710  175.8220  142.2520 C   0  0  0  0  0  0  0  0  0  0  0  0
  192.7630  174.1800  140.3980 O   0  0  0  0  0  1  0  0  0  0  0  0
  191.0600  174.2260  142.0210 C   0  0  0  0  0  3  0  0  0  0  0  0
  1 20  2  0  0  0  0
  1 19  1  0  0  0  0
  2  7  2  0  0  0  0
  4 12  1  0  0  0  0
  5 18  1  0  0  0  0
  6  9  1  0  0  0  0
  7  4  1  0  0  0  0
  7  5  1  0  0  0  0
  9  4  2  0  0  0  0
 10 14  1  0  0  0  0
 10 15  2  0  0  0  0
 11  5  2  0  0  0  0
 11 20  1  0  0  0  0
 12  8  1  0  0  0  0
 13 15  1  0  0  0  0
 14  3  1  0  0  0  0
 16  6  2  0  0  0  0
 17  6  1  0  0  0  0
 17  2  1  0  0  0  0
 18  8  1  0  0  0  0
 18 14  2  0  0  0  0
 19 13  2  0  0  0  0
 20 10  1  0  0  0  0
 21  1  1  0  0  0  0
 22 21  2  0  0  0  0
 23 28  2  0  0  0  0
 23 26  1  0  0  0  0
 24 21  1  0  0  0  0
 25 26  2  0  0  0  0
 26 22  1  0  0  0  0
 27 23  1  0  0  0  0
 28 24  1  0  0  0  0
M  END
>  <MODEL>
3

>  <REMARK>
 VINA RESULT:      -8.2      1.972      6.414
  Name = 
  1 active torsions:
  status: ('A' for Active; 'I' for Inactive)
    1  A    between atoms: C_1  and  C_2
                            x       y       z     vdW  Elec       q    Type
                         _______ _______ _______ _____ _____    ______ ____

>  <TORSDO>
F 1

$$$$
=
 OpenBabel11052418153D

 28 32  0  0  0  0  0  0  0  0999 V2000
  189.2520  176.6640  145.9140 C   0  0  0  0  0  0  0  0  0  0  0  0
  188.8660  173.7390  141.7750 C   0  0  0  0  0  3  0  0  0  0  0  0
  193.3100  173.9600  145.9540 O   0  0  0  0  0  1  0  0  0  0  0  0
  191.0920  172.7400  141.5060 C   0  0  0  0  0  0  0  0  0  0  0  0
  190.5170  174.1540  143.5380 C   0  0  0  0  0  0  0  0  0  0  0  0
  189.4010  172.2490  139.8270 C   0  0  0  0  0  0  0  0  0  0  0  0
  190.1070  173.5600  142.2500 C   0  0  0  0  0  0  0  0  0  0  0  0
  192.5510  172.6500  143.5290 C   0  0  0  0  0  2  0  0  0  0  0  0
  190.7610  172.1310  140.3680 C   0  0  0  0  0  3  0  0  0  0  0  0
  191.3040  175.3210  145.9400 C   0  0  0  0  0  0  0  0  0  0  0  0
  189.7390  175.0950  144.1420 N   0  0  0  0  0  0  0  0  0  0  0  0
  192.5040  172.6690  142.0000 C   0  0  0  0  0  2  0  0  0  0  0  0
  190.8770  176.9110  147.7170 C   0  0  0  0  0  3  0  0  0  0  0  0
  192.1190  174.3470  145.3440 C   0  0  0  0  0  0  0  0  0  0  0  0
  191.6880  175.9370  147.1360 C   0  0  0  0  0  3  0  0  0  0  0  0
  189.0870  171.6030  138.7940 O   0  0  0  0  0  0  0  0  0  0  0  0
  188.3920  173.1590  140.4690 C   0  0  0  0  0  2  0  0  0  0  0  0
  191.7310  173.7640  144.1320 C   0  0  0  0  0  0  0  0  0  0  0  0
  189.6740  177.2700  147.1100 C   0  0  0  0  0  3  0  0  0  0  0  0
  190.0830  175.6820  145.3200 C   0  0  0  0  0  0  0  0  0  0  0  0
  187.9510  177.0740  145.3190 C   0  0  0  0  0  0  0  0  0  0  0  0
  187.9420  177.8110  144.1980 C   0  0  0  0  0  3  0  0  0  0  0  0
  185.4110  177.7780  144.1390 C   0  0  0  0  0  0  0  0  0  0  0  0
  186.6540  176.7600  146.0440 C   0  0  0  0  0  2  0  0  0  0  0  0
  186.7060  178.9780  142.5560 O   0  0  0  0  0  0  0  0  0  0  0  0
  186.6850  178.2430  143.5790 C   0  0  0  0  0  0  0  0  0  0  0  0
  184.2140  178.0620  143.4920 O   0  0  0  0  0  1  0  0  0  0  0  0
  185.3990  177.0640  145.2630 C   0  0  0  0  0  3  0  0  0  0  0  0
  1 19  1  0  0  0  0
  2  7  2  0  0  0  0
  4 12  1  0  0  0  0
  4  7  1  0  0  0  0
  5 18  1  0  0  0  0
  5 11  2  0  0  0  0
  6  9  1  0  0  0  0
  6 17  1  0  0  0  0
  7  5  1  0  0  0  0
  8 18  1  0  0  0  0
  9  4  2  0  0  0  0
 10 15  2  0  0  0  0
 11 20  1  0  0  0  0
 12  8  1  0  0  0  0
 14 10  1  0  0  0  0
 14  3  1  0  0  0  0
 15 13  1  0  0  0  0
 16  6  2  0  0  0  0
 17  2  1  0  0  0  0
 18 14  2  0  0  0  0
 19 13  2  0  0  0  0
 20  1  2  0  0  0  0
 20 10  1  0  0  0  0
 21  1  1  0  0  0  0
 21 24  1  0  0  0  0
 22 21  2  0  0  0  0
 23 28  2  0  0  0  0
 25 26  2  0  0  0  0
 26 23  1  0  0  0  0
 26 22  1  0  0  0  0
 27 23  1  0  0  0  0
 28 24  1  0  0  0  0
M  END
>  <MODEL>
4

>  <REMARK>
 VINA RESULT:      -8.2      2.786      4.414
  Name = 
  1 active torsions:
  status: ('A' for Active; 'I' for Inactive)
    1  A    between atoms: C_1  and  C_2
                            x       y       z     vdW  Elec       q    Type
                         _______ _______ _______ _____ _____    ______ ____

>  <TORSDO>
F 1

$$$$
=
 OpenBabel11052418153D

 28 32  0  0  0  0  0  0  0  0999 V2000
  190.1140  175.2480  145.0380 C   0  0  0  0  0  0  0  0  0  0  0  0
  186.5230  177.1750  142.0020 C   0  0  0  0  0  3  0  0  0  0  0  0
  187.4520  178.0980  147.9650 O   0  0  0  0  0  1  0  0  0  0  0  0
  184.8990  178.2040  143.5300 C   0  0  0  0  0  0  0  0  0  0  0  0
  187.0900  177.2400  144.3850 C   0  0  0  0  0  0  0  0  0  0  0  0
  184.4120  178.2300  141.1460 C   0  0  0  0  0  0  0  0  0  0  0  0
  186.1830  177.5170  143.2530 C   0  0  0  0  0  0  0  0  0  0  0  0
  185.7090  178.8070  145.8120 C   0  0  0  0  0  2  0  0  0  0  0  0
  184.0680  178.5330  142.5420 C   0  0  0  0  0  3  0  0  0  0  0  0
  188.7770  176.6670  146.5250 C   0  0  0  0  0  0  0  0  0  0  0  0
  188.1620  176.4150  144.2250 N   0  0  0  0  0  0  0  0  0  0  0  0
  184.4950  178.4530  144.9500 C   0  0  0  0  0  2  0  0  0  0  0  0
  190.7030  175.4830  147.3940 C   0  0  0  0  0  3  0  0  0  0  0  0
  187.6850  177.5270  146.7160 C   0  0  0  0  0  0  0  0  0  0  0  0
  189.6260  176.3460  147.5890 C   0  0  0  0  0  3  0  0  0  0  0  0
  183.6510  178.6180  140.2220 O   0  0  0  0  0  0  0  0  0  0  0  0
  185.6400  177.4310  140.8100 C   0  0  0  0  0  2  0  0  0  0  0  0
  186.8290  177.8110  145.6450 C   0  0  0  0  0  0  0  0  0  0  0  0
  190.9410  174.9390  146.1330 C   0  0  0  0  0  3  0  0  0  0  0  0
  189.0150  176.1170  145.2420 C   0  0  0  0  0  0  0  0  0  0  0  0
  190.4260  174.6510  143.7100 C   0  0  0  0  0  0  0  0  0  0  0  0
  189.7150  173.5990  143.2780 C   0  0  0  0  0  3  0  0  0  0  0  0
  190.9930  173.5750  141.0910 C   0  0  0  0  0  0  0  0  0  0  0  0
  191.6140  175.1580  142.9130 C   0  0  0  0  0  2  0  0  0  0  0  0
  189.3410  171.9580  141.6190 O   0  0  0  0  0  0  0  0  0  0  0  0
  189.9890  172.9760  141.9790 C   0  0  0  0  0  0  0  0  0  0  0  0
  191.1740  173.0840  139.8040 O   0  0  0  0  0  1  0  0  0  0  0  0
  191.7230  174.6060  141.5130 C   0  0  0  0  0  3  0  0  0  0  0  0
  1 20  2  0  0  0  0
  1 19  1  0  0  0  0
  2  7  2  0  0  0  0
  4 12  1  0  0  0  0
  5 18  1  0  0  0  0
  6  9  1  0  0  0  0
  7  4  1  0  0  0  0
  7  5  1  0  0  0  0
  9  4  2  0  0  0  0
 10 14  1  0  0  0  0
 10 15  2  0  0  0  0
 11  5  2  0  0  0  0
 11 20  1  0  0  0  0
 12  8  1  0  0  0  0
 13 15  1  0  0  0  0
 14  3  1  0  0  0  0
 16  6  2  0  0  0  0
 17  6  1  0  0  0  0
 17  2  1  0  0  0  0
 18  8  1  0  0  0  0
 18 14  2  0  0  0  0
 19 13  2  0  0  0  0
 20 10  1  0  0  0  0
 21  1  1  0  0  0  0
 22 21  2  0  0  0  0
 23 28  2  0  0  0  0
 23 26  1  0  0  0  0
 24 21  1  0  0  0  0
 25 26  2  0  0  0  0
 26 22  1  0  0  0  0
 27 23  1  0  0  0  0
 28 24  1  0  0  0  0
M  END
>  <MODEL>
5

>  <REMARK>
 VINA RESULT:      -8.2      2.521      6.377
  Name = 
  1 active torsions:
  status: ('A' for Active; 'I' for Inactive)
    1  A    between atoms: C_1  and  C_2
                            x       y       z     vdW  Elec       q    Type
                         _______ _______ _______ _____ _____    ______ ____

>  <TORSDO>
F 1

$$$$
=
 OpenBabel11052418153D

 28 32  0  0  0  0  0  0  0  0999 V2000
  191.3090  174.2090  144.4250 C   0  0  0  0  0  0  0  0  0  0  0  0
  186.9340  176.6790  143.6610 C   0  0  0  0  0  3  0  0  0  0  0  0
  190.8930  177.1630  148.2830 O   0  0  0  0  0  1  0  0  0  0  0  0
  186.4620  177.7910  145.8000 C   0  0  0  0  0  0  0  0  0  0  0  0
  188.6450  176.5490  145.4100 C   0  0  0  0  0  0  0  0  0  0  0  0
  184.8280  178.0020  144.0090 C   0  0  0  0  0  0  0  0  0  0  0  0
  187.3280  176.9850  144.9060 C   0  0  0  0  0  0  0  0  0  0  0  0
  188.3940  178.1750  147.3320 C   0  0  0  0  0  2  0  0  0  0  0  0
  185.2890  178.2620  145.3790 C   0  0  0  0  0  3  0  0  0  0  0  0
  191.1070  175.6790  146.3780 C   0  0  0  0  0  0  0  0  0  0  0  0
  189.3740  175.6240  144.7270 N   0  0  0  0  0  0  0  0  0  0  0  0
  186.8770  178.0030  147.2230 C   0  0  0  0  0  2  0  0  0  0  0  0
  193.0460  174.2470  146.1380 C   0  0  0  0  0  3  0  0  0  0  0  0
  190.3820  176.6410  147.0970 C   0  0  0  0  0  0  0  0  0  0  0  0
  192.3360  175.2100  146.8540 C   0  0  0  0  0  3  0  0  0  0  0  0
  183.7550  178.5210  143.6070 O   0  0  0  0  0  0  0  0  0  0  0  0
  185.6020  177.0950  143.0940 C   0  0  0  0  0  2  0  0  0  0  0  0
  189.1390  177.0750  146.6190 C   0  0  0  0  0  0  0  0  0  0  0  0
  192.5350  173.7520  144.9390 C   0  0  0  0  0  3  0  0  0  0  0  0
  190.5840  175.1790  145.1600 C   0  0  0  0  0  0  0  0  0  0  0  0
  190.8190  173.6570  143.1320 C   0  0  0  0  0  0  0  0  0  0  0  0
  191.4680  173.9620  141.9980 C   0  0  0  0  0  3  0  0  0  0  0  0
  189.9000  172.5000  140.6510 C   0  0  0  0  0  0  0  0  0  0  0  0
  189.5300  172.8580  143.0890 C   0  0  0  0  0  2  0  0  0  0  0  0
  191.6170  173.7900  139.6460 O   0  0  0  0  0  0  0  0  0  0  0  0
  191.0210  173.4470  140.7010 C   0  0  0  0  0  0  0  0  0  0  0  0
  189.5450  171.8950  139.4520 O   0  0  0  0  0  1  0  0  0  0  0  0
  189.2300  172.2030  141.7630 C   0  0  0  0  0  3  0  0  0  0  0  0
  1 19  2  0  0  0  0
  1 20  1  0  0  0  0
  2  7  2  0  0  0  0
  4 12  1  0  0  0  0
  5 18  1  0  0  0  0
  6  9  1  0  0  0  0
  7  5  1  0  0  0  0
  7  4  1  0  0  0  0
  9  4  2  0  0  0  0
 10 15  1  0  0  0  0
 10 14  1  0  0  0  0
 11 20  1  0  0  0  0
 11  5  2  0  0  0  0
 12  8  1  0  0  0  0
 13 15  2  0  0  0  0
 14  3  1  0  0  0  0
 16  6  2  0  0  0  0
 17  2  1  0  0  0  0
 17  6  1  0  0  0  0
 18 14  2  0  0  0  0
 18  8  1  0  0  0  0
 19 13  1  0  0  0  0
 20 10  2  0  0  0  0
 21  1  1  0  0  0  0
 22 21  2  0  0  0  0
 23 26  1  0  0  0  0
 23 28  2  0  0  0  0
 24 21  1  0  0  0  0
 25 26  2  0  0  0  0
 26 22  1  0  0  0  0
 27 23  1  0  0  0  0
 28 24  1  0  0  0  0
M  END
>  <MODEL>
6

>  <REMARK>
 VINA RESULT:      -8.1      2.545      6.080
  Name = 
  1 active torsions:
  status: ('A' for Active; 'I' for Inactive)
    1  A    between atoms: C_1  and  C_2
                            x       y       z     vdW  Elec       q    Type
                         _______ _______ _______ _____ _____    ______ ____

>  <TORSDO>
F 1

$$$$
=
 OpenBabel11052418153D

 28 32  0  0  0  0  0  0  0  0999 V2000
  189.4580  176.6600  146.2200 C   0  0  0  0  0  0  0  0  0  0  0  0
  188.7560  173.9280  141.9920 C   0  0  0  0  0  3  0  0  0  0  0  0
  193.4420  173.8650  145.9040 O   0  0  0  0  0  1  0  0  0  0  0  0
  190.9370  172.8910  141.5480 C   0  0  0  0  0  0  0  0  0  0  0  0
  190.5170  174.2280  143.6690 C   0  0  0  0  0  0  0  0  0  0  0  0
  189.1380  172.5120  139.9540 C   0  0  0  0  0  0  0  0  0  0  0  0
  190.0180  173.7000  142.3840 C   0  0  0  0  0  0  0  0  0  0  0  0
  192.5080  172.6800  143.4750 C   0  0  0  0  0  2  0  0  0  0  0  0
  190.5240  172.3390  140.4080 C   0  0  0  0  0  3  0  0  0  0  0  0
  191.4730  175.2700  146.0670 C   0  0  0  0  0  0  0  0  0  0  0  0
  189.8010  175.1580  144.3580 N   0  0  0  0  0  0  0  0  0  0  0  0
  192.3730  172.7660  141.9540 C   0  0  0  0  0  2  0  0  0  0  0  0
  191.1920  176.7910  147.9310 C   0  0  0  0  0  3  0  0  0  0  0  0
  192.2270  174.3050  145.3830 C   0  0  0  0  0  0  0  0  0  0  0  0
  191.9420  175.8250  147.2620 C   0  0  0  0  0  3  0  0  0  0  0  0
  188.7470  171.9190  138.9150 O   0  0  0  0  0  0  0  0  0  0  0  0
  188.1910  173.4170  140.6920 C   0  0  0  0  0  2  0  0  0  0  0  0
  191.7540  173.7840  144.1720 C   0  0  0  0  0  0  0  0  0  0  0  0
  189.9650  177.2030  147.4130 C   0  0  0  0  0  3  0  0  0  0  0  0
  190.2280  175.6860  145.5370 C   0  0  0  0  0  0  0  0  0  0  0  0
  188.1350  177.1250  145.7210 C   0  0  0  0  0  0  0  0  0  0  0  0
  187.0200  176.7600  146.3710 C   0  0  0  0  0  3  0  0  0  0  0  0
  185.5910  178.1180  144.7820 C   0  0  0  0  0  0  0  0  0  0  0  0
  188.0480  177.9040  144.4210 C   0  0  0  0  0  2  0  0  0  0  0  0
  184.6620  176.7910  146.5130 O   0  0  0  0  0  0  0  0  0  0  0  0
  185.6950  177.1900  145.9140 C   0  0  0  0  0  0  0  0  0  0  0  0
  184.3580  178.6450  144.4170 O   0  0  0  0  0  1  0  0  0  0  0  0
  186.6850  178.4740  144.1110 C   0  0  0  0  0  3  0  0  0  0  0  0
  1 19  1  0  0  0  0
  2  7  2  0  0  0  0
  4 12  1  0  0  0  0
  4  7  1  0  0  0  0
  5 18  1  0  0  0  0
  5 11  2  0  0  0  0
  6  9  1  0  0  0  0
  6 17  1  0  0  0  0
  7  5  1  0  0  0  0
  8 18  1  0  0  0  0
  9  4  2  0  0  0  0
 10 15  2  0  0  0  0
 11 20  1  0  0  0  0
 12  8  1  0  0  0  0
 14  3  1  0  0  0  0
 14 10  1  0  0  0  0
 15 13  1  0  0  0  0
 16  6  2  0  0  0  0
 17  2  1  0  0  0  0
 18 14  2  0  0  0  0
 19 13  2  0  0  0  0
 20 10  1  0  0  0  0
 20  1  2  0  0  0  0
 21  1  1  0  0  0  0
 21 22  2  0  0  0  0
 23 26  1  0  0  0  0
 24 21  1  0  0  0  0
 26 22  1  0  0  0  0
 26 25  2  0  0  0  0
 27 23  1  0  0  0  0
 28 24  1  0  0  0  0
 28 23  2  0  0  0  0
M  END
>  <MODEL>
7

>  <REMARK>
 VINA RESULT:      -8.1      2.959      4.676
  Name = 
  1 active torsions:
  status: ('A' for Active; 'I' for Inactive)
    1  A    between atoms: C_1  and  C_2
                            x       y       z     vdW  Elec       q    Type
                         _______ _______ _______ _____ _____    ______ ____

>  <TORSDO>
F 1

$$$$
=
 OpenBabel11052418153D

 28 32  0  0  0  0  0  0  0  0999 V2000
  188.3240  175.5340  143.4940 C   0  0  0  0  0  0  0  0  0  0  0  0
  193.0750  173.9340  144.3270 C   0  0  0  0  0  3  0  0  0  0  0  0
  189.7200  177.9160  147.5140 O   0  0  0  0  0  1  0  0  0  0  0  0
  193.9610  175.4670  146.0290 C   0  0  0  0  0  0  0  0  0  0  0  0
  191.5260  175.5610  145.3070 C   0  0  0  0  0  0  0  0  0  0  0  0
  195.4500  173.7680  145.1240 C   0  0  0  0  0  0  0  0  0  0  0  0
  192.8640  174.9490  145.1780 C   0  0  0  0  0  0  0  0  0  0  0  0
  192.3000  176.6870  147.4350 C   0  0  0  0  0  2  0  0  0  0  0  0
  195.1740  174.9150  145.9990 C   0  0  0  0  0  3  0  0  0  0  0  0
  189.0160  176.7490  145.5090 C   0  0  0  0  0  0  0  0  0  0  0  0
  190.5510  175.2860  144.3970 N   0  0  0  0  0  0  0  0  0  0  0  0
  193.7220  176.6820  146.8700 C   0  0  0  0  0  2  0  0  0  0  0  0
  186.7860  177.0610  144.6160 C   0  0  0  0  0  3  0  0  0  0  0  0
  189.9990  177.0430  146.4650 C   0  0  0  0  0  0  0  0  0  0  0  0
  187.7550  177.3500  145.5760 C   0  0  0  0  0  3  0  0  0  0  0  0
  196.5780  173.2130  145.1680 O   0  0  0  0  0  0  0  0  0  0  0  0
  194.4170  173.2720  144.1520 C   0  0  0  0  0  2  0  0  0  0  0  0
  191.2660  176.4540  146.3630 C   0  0  0  0  0  0  0  0  0  0  0  0
  187.0700  176.1640  143.5870 C   0  0  0  0  0  3  0  0  0  0  0  0
  189.3090  175.8380  144.4650 C   0  0  0  0  0  0  0  0  0  0  0  0
  188.5670  174.5730  142.3830 C   0  0  0  0  0  0  0  0  0  0  0  0
  188.3450  174.9590  141.1180 C   0  0  0  0  0  3  0  0  0  0  0  0
  189.1330  172.7160  140.2450 C   0  0  0  0  0  0  0  0  0  0  0  0
  188.9450  173.1360  142.6950 C   0  0  0  0  0  2  0  0  0  0  0  0
  188.3000  174.4170  138.8190 O   0  0  0  0  0  0  0  0  0  0  0  0
  188.5650  174.0460  139.9920 C   0  0  0  0  0  0  0  0  0  0  0  0
  189.4760  171.8850  139.1860 O   0  0  0  0  0  1  0  0  0  0  0  0
  189.3390  172.3080  141.4970 C   0  0  0  0  0  3  0  0  0  0  0  0
  1 19  2  0  0  0  0
  1 20  1  0  0  0  0
  2  7  2  0  0  0  0
  4 12  1  0  0  0  0
  5 18  1  0  0  0  0
  6 16  2  0  0  0  0
  6  9  1  0  0  0  0
  7  5  1  0  0  0  0
  7  4  1  0  0  0  0
  9  4  2  0  0  0  0
 10 15  1  0  0  0  0
 10 14  1  0  0  0  0
 11 20  1  0  0  0  0
 11  5  2  0  0  0  0
 12  8  1  0  0  0  0
 13 15  2  0  0  0  0
 14  3  1  0  0  0  0
 17  2  1  0  0  0  0
 17  6  1  0  0  0  0
 18 14  2  0  0  0  0
 18  8  1  0  0  0  0
 19 13  1  0  0  0  0
 20 10  2  0  0  0  0
 21 24  1  0  0  0  0
 21  1  1  0  0  0  0
 22 21  2  0  0  0  0
 23 28  2  0  0  0  0
 25 26  2  0  0  0  0
 26 23  1  0  0  0  0
 26 22  1  0  0  0  0
 27 23  1  0  0  0  0
 28 24  1  0  0  0  0
M  END
>  <MODEL>
8

>  <REMARK>
 VINA RESULT:      -8.0      2.097      2.938
  Name = 
  1 active torsions:
  status: ('A' for Active; 'I' for Inactive)
    1  A    between atoms: C_1  and  C_2
                            x       y       z     vdW  Elec       q    Type
                         _______ _______ _______ _____ _____    ______ ____

>  <TORSDO>
F 1

$$$$
=
 OpenBabel11052418153D

 28 32  0  0  0  0  0  0  0  0999 V2000
  188.1750  175.0450  140.8080 C   0  0  0  0  0  0  0  0  0  0  0  0
  187.0480  176.6360  145.5010 C   0  0  0  0  0  3  0  0  0  0  0  0
  184.9700  178.6570  140.1280 O   0  0  0  0  0  1  0  0  0  0  0  0
  185.8380  178.7470  145.1710 C   0  0  0  0  0  0  0  0  0  0  0  0
  186.5050  177.2870  143.2020 C   0  0  0  0  0  0  0  0  0  0  0  0
  186.2870  178.0230  147.4510 C   0  0  0  0  0  0  0  0  0  0  0  0
  186.4950  177.5220  144.6590 C   0  0  0  0  0  0  0  0  0  0  0  0
  184.7730  179.1120  142.9440 C   0  0  0  0  0  2  0  0  0  0  0  0
  185.7460  178.9830  146.4800 C   0  0  0  0  0  3  0  0  0  0  0  0
  186.5740  176.8680  140.4500 C   0  0  0  0  0  0  0  0  0  0  0  0
  187.2870  176.3090  142.6660 N   0  0  0  0  0  0  0  0  0  0  0  0
  185.3470  179.7750  144.1980 C   0  0  0  0  0  2  0  0  0  0  0  0
  187.4690  175.6560  138.5540 C   0  0  0  0  0  3  0  0  0  0  0  0
  185.7530  177.8760  140.9760 C   0  0  0  0  0  0  0  0  0  0  0  0
  186.6430  176.6530  139.0690 C   0  0  0  0  0  3  0  0  0  0  0  0
  186.1210  178.2260  148.6810 O   0  0  0  0  0  0  0  0  0  0  0  0
  187.0680  176.8230  146.9960 C   0  0  0  0  0  2  0  0  0  0  0  0
  185.7210  178.0960  142.3590 C   0  0  0  0  0  0  0  0  0  0  0  0
  188.2270  174.8640  139.4150 C   0  0  0  0  0  3  0  0  0  0  0  0
  187.3420  176.0660  141.3280 C   0  0  0  0  0  0  0  0  0  0  0  0
  188.9930  174.1590  141.6810 C   0  0  0  0  0  0  0  0  0  0  0  0
  190.2330  174.5380  142.0260 C   0  0  0  0  0  3  0  0  0  0  0  0
  190.5220  172.4630  143.4490 C   0  0  0  0  0  0  0  0  0  0  0  0
  188.4690  172.7900  142.0730 C   0  0  0  0  0  2  0  0  0  0  0  0
  192.2550  174.0520  143.1470 O   0  0  0  0  0  0  0  0  0  0  0  0
  191.0770  173.6970  142.8800 C   0  0  0  0  0  0  0  0  0  0  0  0
  191.2550  171.7200  144.3660 O   0  0  0  0  0  1  0  0  0  0  0  0
  189.3010  172.0600  143.0990 C   0  0  0  0  0  3  0  0  0  0  0  0
  1 20  1  0  0  0  0
  1 21  1  0  0  0  0
  2 17  1  0  0  0  0
  3 14  1  0  0  0  0
  4  9  2  0  0  0  0
  5  7  1  0  0  0  0
  6 16  2  0  0  0  0
  7  4  1  0  0  0  0
  7  2  2  0  0  0  0
  8 12  1  0  0  0  0
  9  6  1  0  0  0  0
 10 14  2  0  0  0  0
 10 20  1  0  0  0  0
 11  5  1  0  0  0  0
 12  4  1  0  0  0  0
 13 15  2  0  0  0  0
 13 19  1  0  0  0  0
 14 18  1  0  0  0  0
 15 10  1  0  0  0  0
 17  6  1  0  0  0  0
 18  8  1  0  0  0  0
 18  5  2  0  0  0  0
 19  1  2  0  0  0  0
 20 11  2  0  0  0  0
 21 22  2  0  0  0  0
 21 24  1  0  0  0  0
 22 26  1  0  0  0  0
 23 27  1  0  0  0  0
 24 28  1  0  0  0  0
 26 25  2  0  0  0  0
 26 23  1  0  0  0  0
 28 23  2  0  0  0  0
M  END
>  <MODEL>
9

>  <REMARK>
 VINA RESULT:      -8.0      3.322      7.586
  Name = 
  1 active torsions:
  status: ('A' for Active; 'I' for Inactive)
    1  A    between atoms: C_1  and  C_2
                            x       y       z     vdW  Elec       q    Type
                         _______ _______ _______ _____ _____    ______ ____

>  <TORSDO>
F 1

$$$$
