=
 OpenBabel11052420273D

 34 38  0  0  1  0  0  0  0  0999 V2000
  192.8870  174.6000  145.1080 C   0  0  0  0  0  0  0  0  0  0  0  0
  191.7330  174.2560  141.5940 C   0  0  0  0  0  2  0  0  0  0  0  0
  193.8670  174.1900  142.4770 C   0  0  0  0  0  3  0  0  0  0  0  0
  195.2820  174.7860  145.6500 N   0  0  0  0  0  0  0  0  0  0  0  0
  196.3630  174.6540  144.8340 C   0  0  0  0  0  3  0  0  0  0  0  0
  194.7120  174.3800  143.5590 C   0  0  0  0  0  0  0  0  0  0  0  0
  194.2490  174.6090  144.8090 C   0  0  0  0  0  0  0  0  0  0  0  0
  196.0170  174.4100  143.5800 O   0  0  0  0  0  0  0  0  0  0  0  0
  190.2830  174.6020  141.5280 C   0  0  0  0  0  2  0  0  0  0  0  0
  189.4270  173.6550  142.2890 C   0  0  0  0  0  0  0  0  0  0  0  0
  189.5940  173.4910  143.6000 C   0  0  0  0  0  3  0  0  0  0  0  0
  192.4780  174.2130  142.7010 C   0  0  0  0  0  0  0  0  0  0  0  0
  190.7070  174.0120  144.4120 C   0  0  0  0  0  2  0  0  0  0  0  0
  191.9700  174.3220  144.0490 C   0  0  0  0  0  0  0  0  0  0  0  0
  188.2760  173.0340  141.6130 C   0  0  0  0  0  0  0  0  0  0  0  0
  188.1930  173.0490  140.2260 O   0  0  0  0  0  0  0  0  0  0  0  0
  187.3560  172.4870  142.2800 O   0  0  0  0  0  1  0  0  0  0  0  0
  192.4450  174.8400  146.5260 C   0  0  0  0  0  2  0  0  0  0  0  0
  192.2960  176.3020  146.7730 C   0  0  0  0  0  0  0  0  0  0  0  0
  193.3170  176.9890  147.0430 O   0  0  0  0  0  0  0  0  0  0  0  0
  191.0240  176.8810  146.6800 O   0  0  0  0  0  0  0  0  0  0  0  0
  190.2790  177.9520  143.2230 C   0  0  0  0  0  3  0  0  0  0  0  0
  188.9470  176.7660  145.3710 C   0  0  0  0  0  3  0  0  0  0  0  0
  186.7210  177.8710  141.9190 C   0  0  2  0  0  3  0  0  0  0  0  0
  188.2410  177.8640  141.7840 C   0  0  0  0  0  2  0  0  0  0  0  0
  188.9260  177.6310  143.1020 C   0  0  0  0  0  0  0  0  0  0  0  0
  186.7860  176.7080  144.1240 C   0  0  0  0  0  2  0  0  0  0  0  0
  188.2570  177.0100  144.1800 C   0  0  0  0  0  0  0  0  0  0  0  0
  186.2630  176.6400  142.6920 C   0  0  0  0  0  2  0  0  0  0  0  0
  190.3040  177.0970  145.4950 C   0  0  0  0  0  0  0  0  0  0  0  0
  190.9620  177.6930  144.4150 C   0  0  0  0  0  3  0  0  0  0  0  0
  186.0830  177.9080  140.5720 C   0  0  0  0  0  0  0  0  0  0  0  0
  186.7430  177.5490  139.5610 O   0  0  0  0  0  0  0  0  0  0  0  0
  184.7700  178.3380  140.4230 O   0  0  0  0  0  1  0  0  0  0  0  0
  1 18  1  0  0  0  0
  2 12  1  0  0  0  0
  3 12  2  0  0  0  0
  3  6  1  0  0  0  0
  5  4  2  0  0  0  0
  6  8  1  0  0  0  0
  6  7  2  0  0  0  0
  7  1  1  0  0  0  0
  7  4  1  0  0  0  0
  8  5  1  0  0  0  0
  9  2  1  0  0  0  0
  9 10  1  0  0  0  0
 10 11  2  0  0  0  0
 11 13  1  0  0  0  0
 12 14  1  0  0  0  0
 14 13  1  0  0  0  0
 14  1  2  0  0  0  0
 15 17  1  0  0  0  0
 15 10  1  0  0  0  0
 16 15  2  0  0  0  0
 18 19  1  0  0  0  0
 19 20  2  0  0  0  0
 21 19  1  0  0  0  0
 22 31  1  0  0  0  0
 23 30  1  0  0  0  0
 24 32  1  6  0  0  0
 24 29  1  0  0  0  0
 25 24  1  0  0  0  0
 25 26  1  0  0  0  0
 26 22  2  0  0  0  0
 26 28  1  0  0  0  0
 27 28  1  0  0  0  0
 28 23  2  0  0  0  0
 29 27  1  0  0  0  0
 30 21  1  0  0  0  0
 31 30  2  0  0  0  0
 33 32  2  0  0  0  0
 34 32  1  0  0  0  0
M  END
>  <MODEL>
1

>  <REMARK>
 VINA RESULT:      -7.7      0.000      0.000
  Name = 
  6 active torsions:
  status: ('A' for Active; 'I' for Inactive)
    1  A    between atoms: C_1  and  C_9
    2  A    between atoms: C_3  and  C_25
    3  A    between atoms: C_7  and  C_11
    4  A    between atoms: C_8  and  C_9
    5  A    between atoms: C_8  and  O_18
    6  A    between atoms: O_18  and  C_30
                            x       y       z     vdW  Elec       q    Type
                         _______ _______ _______ _____ _____    ______ ____

>  <TORSDO>
F 6

$$$$
=
 OpenBabel11052420273D

 34 38  0  0  1  0  0  0  0  0999 V2000
  194.3460  175.2500  144.3860 C   0  0  0  0  0  0  0  0  0  0  0  0
  192.0180  174.5750  141.5700 C   0  0  0  0  0  2  0  0  0  0  0  0
  194.1510  175.4660  141.5640 C   0  0  0  0  0  3  0  0  0  0  0  0
  196.4390  176.5020  144.0370 N   0  0  0  0  0  0  0  0  0  0  0  0
  197.0050  176.9250  142.8750 C   0  0  0  0  0  3  0  0  0  0  0  0
  195.2280  175.9760  142.2700 C   0  0  0  0  0  0  0  0  0  0  0  0
  195.3100  175.9050  143.6190 C   0  0  0  0  0  0  0  0  0  0  0  0
  196.2760  176.6090  141.8170 O   0  0  0  0  0  0  0  0  0  0  0  0
  190.6830  174.2100  142.1280 C   0  0  0  0  0  2  0  0  0  0  0  0
  190.7050  172.9400  142.8970 C   0  0  0  0  0  0  0  0  0  0  0  0
  191.4780  172.8100  143.9740 C   0  0  0  0  0  3  0  0  0  0  0  0
  193.1200  174.8310  142.2810 C   0  0  0  0  0  0  0  0  0  0  0  0
  192.5220  173.7500  144.4200 C   0  0  0  0  0  2  0  0  0  0  0  0
  193.2560  174.6280  143.7050 C   0  0  0  0  0  0  0  0  0  0  0  0
  189.7310  171.8870  142.5630 C   0  0  0  0  0  0  0  0  0  0  0  0
  188.3720  172.1760  142.5510 O   0  0  0  0  0  1  0  0  0  0  0  0
  190.1160  170.7180  142.2880 O   0  0  0  0  0  0  0  0  0  0  0  0
  194.5140  175.1900  145.8790 C   0  0  0  0  0  2  0  0  0  0  0  0
  193.8800  176.3810  146.5110 C   0  0  0  0  0  0  0  0  0  0  0  0
  194.5290  177.4580  146.5890 O   0  0  0  0  0  0  0  0  0  0  0  0
  192.5670  176.2790  146.9890 O   0  0  0  0  0  0  0  0  0  0  0  0
  189.1250  175.5560  145.8570 C   0  0  0  0  0  3  0  0  0  0  0  0
  191.3220  177.0620  145.0200 C   0  0  0  0  0  3  0  0  0  0  0  0
  187.9290  176.7710  142.4710 C   0  0  2  0  0  3  0  0  0  0  0  0
  187.7480  176.3040  143.9140 C   0  0  0  0  0  2  0  0  0  0  0  0
  189.0470  176.2880  144.6700 C   0  0  0  0  0  0  0  0  0  0  0  0
  190.1410  177.8160  142.9540 C   0  0  0  0  0  2  0  0  0  0  0  0
  190.1500  177.0680  144.2580 C   0  0  0  0  0  0  0  0  0  0  0  0
  188.7260  178.0700  142.4430 C   0  0  0  0  0  2  0  0  0  0  0  0
  191.4030  176.3200  146.2080 C   0  0  0  0  0  0  0  0  0  0  0  0
  190.2980  175.5680  146.6170 C   0  0  0  0  0  3  0  0  0  0  0  0
  186.6010  176.9600  141.8200 C   0  0  0  0  0  0  0  0  0  0  0  0
  185.5600  176.9990  142.5280 O   0  0  0  0  0  1  0  0  0  0  0  0
  186.5030  177.0900  140.4400 O   0  0  0  0  0  0  0  0  0  0  0  0
  1 18  1  0  0  0  0
  2  9  1  0  0  0  0
  2 12  1  0  0  0  0
  3  6  2  0  0  0  0
  3 12  1  0  0  0  0
  5  4  2  0  0  0  0
  6  7  1  0  0  0  0
  7  4  1  0  0  0  0
  7  1  2  0  0  0  0
  8  6  1  0  0  0  0
  8  5  1  0  0  0  0
  9 10  1  0  0  0  0
 10 11  2  0  0  0  0
 11 13  1  0  0  0  0
 12 14  2  0  0  0  0
 14  1  1  0  0  0  0
 14 13  1  0  0  0  0
 15 10  1  0  0  0  0
 16 15  1  0  0  0  0
 17 15  2  0  0  0  0
 18 19  1  0  0  0  0
 19 20  2  0  0  0  0
 19 21  1  0  0  0  0
 22 31  1  0  0  0  0
 23 30  1  0  0  0  0
 24 32  1  1  0  0  0
 24 25  1  0  0  0  0
 25 26  1  0  0  0  0
 26 22  2  0  0  0  0
 27 28  1  0  0  0  0
 28 26  1  0  0  0  0
 28 23  2  0  0  0  0
 29 24  1  0  0  0  0
 29 27  1  0  0  0  0
 30 31  2  0  0  0  0
 30 21  1  0  0  0  0
 32 33  1  0  0  0  0
 34 32  2  0  0  0  0
M  END
>  <MODEL>
2

>  <REMARK>
 VINA RESULT:      -7.5      1.598      2.273
  Name = 
  6 active torsions:
  status: ('A' for Active; 'I' for Inactive)
    1  A    between atoms: C_1  and  C_9
    2  A    between atoms: C_3  and  C_25
    3  A    between atoms: C_7  and  C_11
    4  A    between atoms: C_8  and  C_9
    5  A    between atoms: C_8  and  O_18
    6  A    between atoms: O_18  and  C_30
                            x       y       z     vdW  Elec       q    Type
                         _______ _______ _______ _____ _____    ______ ____

>  <TORSDO>
F 6

$$$$
=
 OpenBabel11052420273D

 34 38  0  0  1  0  0  0  0  0999 V2000
  193.1800  174.1720  144.9810 C   0  0  0  0  0  0  0  0  0  0  0  0
  191.4900  174.3450  141.6770 C   0  0  0  0  0  2  0  0  0  0  0  0
  193.6580  173.7540  142.2160 C   0  0  0  0  0  3  0  0  0  0  0  0
  195.6070  173.7940  145.1530 N   0  0  0  0  0  0  0  0  0  0  0  0
  196.5030  173.4920  144.1750 C   0  0  0  0  0  3  0  0  0  0  0  0
  194.6690  173.6760  143.1610 C   0  0  0  0  0  0  0  0  0  0  0  0
  194.4520  173.9080  144.4760 C   0  0  0  0  0  0  0  0  0  0  0  0
  195.9370  173.4220  142.9810 O   0  0  0  0  0  0  0  0  0  0  0  0
  190.1610  175.0010  141.8510 C   0  0  0  0  0  2  0  0  0  0  0  0
  189.2310  174.2080  142.6970 C   0  0  0  0  0  0  0  0  0  0  0  0
  189.5410  173.9160  143.9580 C   0  0  0  0  0  3  0  0  0  0  0  0
  192.3570  174.0610  142.6540 C   0  0  0  0  0  0  0  0  0  0  0  0
  190.8470  174.1220  144.6090 C   0  0  0  0  0  2  0  0  0  0  0  0
  192.0820  174.1780  144.0670 C   0  0  0  0  0  0  0  0  0  0  0  0
  187.8860  173.9020  142.1830 C   0  0  0  0  0  0  0  0  0  0  0  0
  186.8910  174.8710  142.2180 O   0  0  0  0  0  1  0  0  0  0  0  0
  187.6210  172.7630  141.7090 O   0  0  0  0  0  0  0  0  0  0  0  0
  193.0090  174.3970  146.4590 C   0  0  0  0  0  2  0  0  0  0  0  0
  193.0250  175.8560  146.7570 C   0  0  0  0  0  0  0  0  0  0  0  0
  194.0870  176.5110  146.5810 O   0  0  0  0  0  0  0  0  0  0  0  0
  191.8500  176.4700  147.2100 O   0  0  0  0  0  0  0  0  0  0  0  0
  189.8770  177.7780  144.3730 C   0  0  0  0  0  3  0  0  0  0  0  0
  189.4210  176.5620  146.8450 C   0  0  0  0  0  3  0  0  0  0  0  0
  186.1000  177.9980  144.6090 C   0  0  2  0  0  3  0  0  0  0  0  0
  187.4340  177.9010  143.8740 C   0  0  0  0  0  2  0  0  0  0  0  0
  188.5660  177.5510  144.7990 C   0  0  0  0  0  0  0  0  0  0  0  0
  186.9450  176.7120  146.5720 C   0  0  0  0  0  2  0  0  0  0  0  0
  188.3360  176.9160  146.0390 C   0  0  0  0  0  0  0  0  0  0  0  0
  185.8910  176.7570  145.4690 C   0  0  0  0  0  2  0  0  0  0  0  0
  190.7380  176.7980  146.4210 C   0  0  0  0  0  0  0  0  0  0  0  0
  190.9550  177.4100  145.1830 C   0  0  0  0  0  3  0  0  0  0  0  0
  184.9830  178.1500  143.6340 C   0  0  0  0  0  0  0  0  0  0  0  0
  183.9390  178.7670  143.9730 O   0  0  0  0  0  1  0  0  0  0  0  0
  185.0830  177.6130  142.3560 O   0  0  0  0  0  0  0  0  0  0  0  0
  1 18  1  0  0  0  0
  2  9  1  0  0  0  0
  2 12  1  0  0  0  0
  3 12  2  0  0  0  0
  3  6  1  0  0  0  0
  5  4  2  0  0  0  0
  6  7  2  0  0  0  0
  7  1  1  0  0  0  0
  7  4  1  0  0  0  0
  8  6  1  0  0  0  0
  8  5  1  0  0  0  0
  9 10  1  0  0  0  0
 10 11  2  0  0  0  0
 11 13  1  0  0  0  0
 12 14  1  0  0  0  0
 14 13  1  0  0  0  0
 14  1  2  0  0  0  0
 15 16  1  0  0  0  0
 15 10  1  0  0  0  0
 17 15  2  0  0  0  0
 18 19  1  0  0  0  0
 19 21  1  0  0  0  0
 20 19  2  0  0  0  0
 22 26  2  0  0  0  0
 22 31  1  0  0  0  0
 24 32  1  6  0  0  0
 24 29  1  0  0  0  0
 25 24  1  0  0  0  0
 25 26  1  0  0  0  0
 26 28  1  0  0  0  0
 28 27  1  0  0  0  0
 28 23  2  0  0  0  0
 29 27  1  0  0  0  0
 30 23  1  0  0  0  0
 30 21  1  0  0  0  0
 31 30  2  0  0  0  0
 32 33  1  0  0  0  0
 34 32  2  0  0  0  0
M  END
>  <MODEL>
3

>  <REMARK>
 VINA RESULT:      -7.4      1.367      1.752
  Name = 
  6 active torsions:
  status: ('A' for Active; 'I' for Inactive)
    1  A    between atoms: C_1  and  C_9
    2  A    between atoms: C_3  and  C_25
    3  A    between atoms: C_7  and  C_11
    4  A    between atoms: C_8  and  C_9
    5  A    between atoms: C_8  and  O_18
    6  A    between atoms: O_18  and  C_30
                            x       y       z     vdW  Elec       q    Type
                         _______ _______ _______ _____ _____    ______ ____

>  <TORSDO>
F 6

$$$$
=
 OpenBabel11052420273D

 34 38  0  0  1  0  0  0  0  0999 V2000
  192.7130  174.6020  145.2980 C   0  0  0  0  0  0  0  0  0  0  0  0
  191.7250  174.2250  141.7370 C   0  0  0  0  0  2  0  0  0  0  0  0
  193.8140  174.1530  142.7230 C   0  0  0  0  0  3  0  0  0  0  0  0
  195.0810  174.7760  145.9530 N   0  0  0  0  0  0  0  0  0  0  0  0
  196.1980  174.6270  145.1910 C   0  0  0  0  0  3  0  0  0  0  0  0
  194.6080  174.3500  143.8410 C   0  0  0  0  0  0  0  0  0  0  0  0
  194.0880  174.5970  145.0650 C   0  0  0  0  0  0  0  0  0  0  0  0
  195.9110  174.3710  143.9240 O   0  0  0  0  0  0  0  0  0  0  0  0
  190.2830  174.5810  141.5990 C   0  0  0  0  0  2  0  0  0  0  0  0
  189.3840  173.6490  142.3290 C   0  0  0  0  0  0  0  0  0  0  0  0
  189.4870  173.4990  143.6480 C   0  0  0  0  0  3  0  0  0  0  0  0
  192.4160  174.1890  142.8800 C   0  0  0  0  0  0  0  0  0  0  0  0
  190.5650  174.0210  144.5060 C   0  0  0  0  0  2  0  0  0  0  0  0
  191.8450  174.3180  144.2000 C   0  0  0  0  0  0  0  0  0  0  0  0
  188.2620  173.0280  141.6050 C   0  0  0  0  0  0  0  0  0  0  0  0
  187.2960  172.3140  142.3020 O   0  0  0  0  0  1  0  0  0  0  0  0
  188.1660  173.1350  140.3520 O   0  0  0  0  0  0  0  0  0  0  0  0
  192.2060  174.8620  146.6910 C   0  0  0  0  0  2  0  0  0  0  0  0
  191.9830  176.3210  146.8870 C   0  0  0  0  0  0  0  0  0  0  0  0
  192.2220  176.8370  148.0120 O   0  0  0  0  0  0  0  0  0  0  0  0
  191.5280  177.0910  145.8090 O   0  0  0  0  0  0  0  0  0  0  0  0
  187.8640  177.4060  146.1650 C   0  0  0  0  0  3  0  0  0  0  0  0
  189.7850  177.5800  144.1460 C   0  0  0  0  0  3  0  0  0  0  0  0
  185.6670  177.7720  143.0980 C   0  0  2  0  0  3  0  0  0  0  0  0
  186.0080  177.9240  144.5780 C   0  0  0  0  0  2  0  0  0  0  0  0
  187.4630  177.6670  144.8530 C   0  0  0  0  0  0  0  0  0  0  0  0
  188.0510  177.9870  142.3980 C   0  0  0  0  0  2  0  0  0  0  0  0
  188.4360  177.7770  143.8350 C   0  0  0  0  0  0  0  0  0  0  0  0
  186.6500  178.5760  142.2550 C   0  0  0  0  0  2  0  0  0  0  0  0
  190.1860  177.3090  145.4630 C   0  0  0  0  0  0  0  0  0  0  0  0
  189.2160  177.2220  146.4660 C   0  0  0  0  0  3  0  0  0  0  0  0
  184.2700  178.2250  142.8410 C   0  0  0  0  0  0  0  0  0  0  0  0
  183.6390  178.8400  143.7400 O   0  0  0  0  0  1  0  0  0  0  0  0
  183.6580  177.9680  141.6190 O   0  0  0  0  0  0  0  0  0  0  0  0
  1 18  1  0  0  0  0
  2 12  1  0  0  0  0
  3 12  2  0  0  0  0
  3  6  1  0  0  0  0
  5  4  2  0  0  0  0
  6  8  1  0  0  0  0
  6  7  2  0  0  0  0
  7  1  1  0  0  0  0
  7  4  1  0  0  0  0
  8  5  1  0  0  0  0
  9  2  1  0  0  0  0
  9 10  1  0  0  0  0
 10 11  2  0  0  0  0
 11 13  1  0  0  0  0
 12 14  1  0  0  0  0
 14 13  1  0  0  0  0
 14  1  2  0  0  0  0
 15 16  1  0  0  0  0
 15 10  1  0  0  0  0
 17 15  2  0  0  0  0
 18 19  1  0  0  0  0
 19 20  2  0  0  0  0
 21 19  1  0  0  0  0
 22 31  1  0  0  0  0
 23 30  1  0  0  0  0
 24 32  1  1  0  0  0
 24 25  1  0  0  0  0
 25 26  1  0  0  0  0
 26 22  2  0  0  0  0
 27 28  1  0  0  0  0
 28 23  2  0  0  0  0
 28 26  1  0  0  0  0
 29 27  1  0  0  0  0
 29 24  1  0  0  0  0
 30 21  1  0  0  0  0
 30 31  2  0  0  0  0
 32 33  1  0  0  0  0
 34 32  2  0  0  0  0
M  END
>  <MODEL>
4

>  <REMARK>
 VINA RESULT:      -7.1      1.065      1.812
  Name = 
  6 active torsions:
  status: ('A' for Active; 'I' for Inactive)
    1  A    between atoms: C_1  and  C_9
    2  A    between atoms: C_3  and  C_25
    3  A    between atoms: C_7  and  C_11
    4  A    between atoms: C_8  and  C_9
    5  A    between atoms: C_8  and  O_18
    6  A    between atoms: O_18  and  C_30
                            x       y       z     vdW  Elec       q    Type
                         _______ _______ _______ _____ _____    ______ ____

>  <TORSDO>
F 6

$$$$
=
 OpenBabel11052420273D

 34 38  0  0  1  0  0  0  0  0999 V2000
  195.1040  174.5480  142.2810 C   0  0  0  0  0  0  0  0  0  0  0  0
  191.5740  174.2420  141.1650 C   0  0  0  0  0  2  0  0  0  0  0  0
  193.5090  174.5270  139.9350 C   0  0  0  0  0  3  0  0  0  0  0  0
  196.8930  175.1550  140.7000 N   0  0  0  0  0  0  0  0  0  0  0  0
  196.8360  175.2940  139.3480 C   0  0  0  0  0  3  0  0  0  0  0  0
  194.8670  174.7990  139.9020 C   0  0  0  0  0  0  0  0  0  0  0  0
  195.6260  174.8420  141.0220 C   0  0  0  0  0  0  0  0  0  0  0  0
  195.6190  175.0800  138.8730 O   0  0  0  0  0  0  0  0  0  0  0  0
  190.6850  174.3040  142.3620 C   0  0  0  0  0  2  0  0  0  0  0  0
  190.8770  173.1560  143.2860 C   0  0  0  0  0  0  0  0  0  0  0  0
  192.0600  172.9330  143.8550 C   0  0  0  0  0  3  0  0  0  0  0  0
  192.9100  174.2640  141.1800 C   0  0  0  0  0  0  0  0  0  0  0  0
  193.3320  173.5990  143.5220 C   0  0  0  0  0  2  0  0  0  0  0  0
  193.7280  174.1740  142.3670 C   0  0  0  0  0  0  0  0  0  0  0  0
  189.7020  172.3740  143.7050 C   0  0  0  0  0  0  0  0  0  0  0  0
  189.6030  171.9160  145.0130 O   0  0  0  0  0  1  0  0  0  0  0  0
  188.7790  172.1110  142.8870 O   0  0  0  0  0  0  0  0  0  0  0  0
  196.0110  174.5940  143.4800 C   0  0  0  0  0  2  0  0  0  0  0  0
  195.9790  175.9520  144.0910 C   0  0  0  0  0  0  0  0  0  0  0  0
  196.5340  176.9120  143.4930 O   0  0  0  0  0  0  0  0  0  0  0  0
  195.3150  176.1320  145.3120 O   0  0  0  0  0  0  0  0  0  0  0  0
  191.9910  175.3400  146.7180 C   0  0  0  0  0  3  0  0  0  0  0  0
  193.0710  176.9060  144.6740 C   0  0  0  0  0  3  0  0  0  0  0  0
  188.8430  176.5600  144.9950 C   0  0  2  0  0  3  0  0  0  0  0  0
  189.6660  176.0750  146.1860 C   0  0  0  0  0  2  0  0  0  0  0  0
  191.1410  176.0810  145.8950 C   0  0  0  0  0  0  0  0  0  0  0  0
  190.8120  177.6520  143.9210 C   0  0  0  0  0  2  0  0  0  0  0  0
  191.6880  176.8910  144.8760 C   0  0  0  0  0  0  0  0  0  0  0  0
  189.4090  177.8780  144.4780 C   0  0  0  0  0  2  0  0  0  0  0  0
  193.9240  176.1530  145.4950 C   0  0  0  0  0  0  0  0  0  0  0  0
  193.3740  175.3710  146.5140 C   0  0  0  0  0  3  0  0  0  0  0  0
  187.4150  176.7250  145.3870 C   0  0  0  0  0  0  0  0  0  0  0  0
  186.5470  176.9440  144.5010 O   0  0  0  0  0  0  0  0  0  0  0  0
  187.0350  176.6430  146.7220 O   0  0  0  0  0  1  0  0  0  0  0  0
  1 14  1  0  0  0  0
  1 18  1  0  0  0  0
  2 12  1  0  0  0  0
  2  9  1  0  0  0  0
  3 12  1  0  0  0  0
  4  7  1  0  0  0  0
  5  4  2  0  0  0  0
  6  3  2  0  0  0  0
  6  7  1  0  0  0  0
  7  1  2  0  0  0  0
  8  5  1  0  0  0  0
  8  6  1  0  0  0  0
  9 10  1  0  0  0  0
 10 15  1  0  0  0  0
 10 11  2  0  0  0  0
 12 14  2  0  0  0  0
 13 11  1  0  0  0  0
 14 13  1  0  0  0  0
 15 16  1  0  0  0  0
 17 15  2  0  0  0  0
 18 19  1  0  0  0  0
 19 21  1  0  0  0  0
 20 19  2  0  0  0  0
 21 30  1  0  0  0  0
 23 28  2  0  0  0  0
 23 30  1  0  0  0  0
 24 32  1  1  0  0  0
 24 25  1  0  0  0  0
 26 25  1  0  0  0  0
 26 22  2  0  0  0  0
 27 29  1  0  0  0  0
 27 28  1  0  0  0  0
 28 26  1  0  0  0  0
 29 24  1  0  0  0  0
 30 31  2  0  0  0  0
 31 22  1  0  0  0  0
 32 34  1  0  0  0  0
 33 32  2  0  0  0  0
M  END
>  <MODEL>
5

>  <REMARK>
 VINA RESULT:      -6.8      2.477      4.012
  Name = 
  6 active torsions:
  status: ('A' for Active; 'I' for Inactive)
    1  A    between atoms: C_1  and  C_9
    2  A    between atoms: C_3  and  C_25
    3  A    between atoms: C_7  and  C_11
    4  A    between atoms: C_8  and  C_9
    5  A    between atoms: C_8  and  O_18
    6  A    between atoms: O_18  and  C_30
                            x       y       z     vdW  Elec       q    Type
                         _______ _______ _______ _____ _____    ______ ____

>  <TORSDO>
F 6

$$$$
=
 OpenBabel11052420273D

 34 38  0  0  1  0  0  0  0  0999 V2000
  194.7550  173.9010  143.9190 C   0  0  0  0  0  0  0  0  0  0  0  0
  197.3970  171.6030  145.1580 C   0  0  0  0  0  2  0  0  0  0  0  0
  197.5350  173.8070  144.4770 C   0  0  0  0  0  3  0  0  0  0  0  0
  195.3210  176.1080  142.9850 N   0  0  0  0  0  0  0  0  0  0  0  0
  196.5230  176.7440  142.9460 C   0  0  0  0  0  3  0  0  0  0  0  0
  196.9380  174.9050  143.8800 C   0  0  0  0  0  0  0  0  0  0  0  0
  195.6190  174.9420  143.5820 C   0  0  0  0  0  0  0  0  0  0  0  0
  197.4910  176.0200  143.4840 O   0  0  0  0  0  0  0  0  0  0  0  0
  196.8330  170.2240  145.2460 C   0  0  0  0  0  2  0  0  0  0  0  0
  195.7450  170.1080  146.2520 C   0  0  0  0  0  0  0  0  0  0  0  0
  194.6350  170.8340  146.1400 C   0  0  0  0  0  3  0  0  0  0  0  0
  196.7260  172.7020  144.8050 C   0  0  0  0  0  0  0  0  0  0  0  0
  194.4080  171.9460  145.2000 C   0  0  0  0  0  2  0  0  0  0  0  0
  195.2960  172.7780  144.6160 C   0  0  0  0  0  0  0  0  0  0  0  0
  195.8300  169.0510  147.2740 C   0  0  0  0  0  0  0  0  0  0  0  0
  194.6700  168.5110  147.8140 O   0  0  0  0  0  1  0  0  0  0  0  0
  196.9500  168.6280  147.6710 O   0  0  0  0  0  0  0  0  0  0  0  0
  193.2950  174.0200  143.5770 C   0  0  0  0  0  2  0  0  0  0  0  0
  192.5430  174.5790  144.7350 C   0  0  0  0  0  0  0  0  0  0  0  0
  193.0340  175.5420  145.3830 O   0  0  0  0  0  0  0  0  0  0  0  0
  191.2970  174.0300  145.0660 O   0  0  0  0  0  0  0  0  0  0  0  0
  188.5920  175.2780  147.2510 C   0  0  0  0  0  3  0  0  0  0  0  0
  189.4470  175.5830  144.6100 C   0  0  0  0  0  3  0  0  0  0  0  0
  185.7750  177.3640  145.8080 C   0  0  2  0  0  3  0  0  0  0  0  0
  186.6920  176.8630  146.9210 C   0  0  0  0  0  2  0  0  0  0  0  0
  187.8700  176.1010  146.3830 C   0  0  0  0  0  0  0  0  0  0  0  0
  187.5360  177.0910  144.0630 C   0  0  0  0  0  2  0  0  0  0  0  0
  188.3160  176.2730  145.0540 C   0  0  0  0  0  0  0  0  0  0  0  0
  186.5960  178.0830  144.7440 C   0  0  0  0  0  2  0  0  0  0  0  0
  190.1660  174.7490  145.4800 C   0  0  0  0  0  0  0  0  0  0  0  0
  189.7280  174.6020  146.8000 C   0  0  0  0  0  3  0  0  0  0  0  0
  184.7350  178.2750  146.3660 C   0  0  0  0  0  0  0  0  0  0  0  0
  184.6830  178.4730  147.6090 O   0  0  0  0  0  1  0  0  0  0  0  0
  183.8220  178.9030  145.5280 O   0  0  0  0  0  0  0  0  0  0  0  0
  1 14  1  0  0  0  0
  2  9  1  0  0  0  0
  3 12  1  0  0  0  0
  4  7  1  0  0  0  0
  5  4  2  0  0  0  0
  5  8  1  0  0  0  0
  6  3  2  0  0  0  0
  7  6  1  0  0  0  0
  7  1  2  0  0  0  0
  8  6  1  0  0  0  0
  9 10  1  0  0  0  0
 10 15  1  0  0  0  0
 11 10  2  0  0  0  0
 12  2  1  0  0  0  0
 13 11  1  0  0  0  0
 14 12  2  0  0  0  0
 14 13  1  0  0  0  0
 15 17  2  0  0  0  0
 15 16  1  0  0  0  0
 18  1  1  0  0  0  0
 18 19  1  0  0  0  0
 19 21  1  0  0  0  0
 19 20  2  0  0  0  0
 21 30  1  0  0  0  0
 23 28  2  0  0  0  0
 23 30  1  0  0  0  0
 24 32  1  1  0  0  0
 24 25  1  0  0  0  0
 26 25  1  0  0  0  0
 26 22  2  0  0  0  0
 27 29  1  0  0  0  0
 27 28  1  0  0  0  0
 28 26  1  0  0  0  0
 29 24  1  0  0  0  0
 30 31  2  0  0  0  0
 31 22  1  0  0  0  0
 32 33  1  0  0  0  0
 34 32  2  0  0  0  0
M  END
>  <MODEL>
6

>  <REMARK>
 VINA RESULT:      -6.8      3.386      5.400
  Name = 
  6 active torsions:
  status: ('A' for Active; 'I' for Inactive)
    1  A    between atoms: C_1  and  C_9
    2  A    between atoms: C_3  and  C_25
    3  A    between atoms: C_7  and  C_11
    4  A    between atoms: C_8  and  C_9
    5  A    between atoms: C_8  and  O_18
    6  A    between atoms: O_18  and  C_30
                            x       y       z     vdW  Elec       q    Type
                         _______ _______ _______ _____ _____    ______ ____

>  <TORSDO>
F 6

$$$$
=
 OpenBabel11052420273D

 34 38  0  0  1  0  0  0  0  0999 V2000
  194.2550  173.2010  144.0430 C   0  0  0  0  0  0  0  0  0  0  0  0
  193.4150  176.4280  145.6800 C   0  0  0  0  0  2  0  0  0  0  0  0
  195.2670  175.0680  145.9240 C   0  0  0  0  0  3  0  0  0  0  0  0
  196.1900  171.8650  144.7770 N   0  0  0  0  0  0  0  0  0  0  0  0
  197.1630  172.1790  145.6740 C   0  0  0  0  0  3  0  0  0  0  0  0
  195.8950  173.8580  145.6730 C   0  0  0  0  0  0  0  0  0  0  0  0
  195.3990  172.9510  144.8010 C   0  0  0  0  0  0  0  0  0  0  0  0
  196.9830  173.3760  146.2100 O   0  0  0  0  0  0  0  0  0  0  0  0
  192.0030  176.7810  145.3510 C   0  0  0  0  0  2  0  0  0  0  0  0
  191.7950  177.0400  143.9020 C   0  0  0  0  0  0  0  0  0  0  0  0
  192.0410  176.0920  143.0000 C   0  0  0  0  0  3  0  0  0  0  0  0
  194.0830  175.3650  145.2240 C   0  0  0  0  0  0  0  0  0  0  0  0
  192.7160  174.8050  143.2440 C   0  0  0  0  0  2  0  0  0  0  0  0
  193.6130  174.4680  144.1940 C   0  0  0  0  0  0  0  0  0  0  0  0
  191.1430  178.2940  143.4890 C   0  0  0  0  0  0  0  0  0  0  0  0
  190.0280  178.2590  142.6620 O   0  0  0  0  0  0  0  0  0  0  0  0
  191.5880  179.4090  143.8780 O   0  0  0  0  0  1  0  0  0  0  0  0
  193.7730  172.1540  143.0760 C   0  0  0  0  0  2  0  0  0  0  0  0
  192.8040  171.2450  143.7500 C   0  0  0  0  0  0  0  0  0  0  0  0
  193.2240  170.4200  144.6040 O   0  0  0  0  0  0  0  0  0  0  0  0
  191.4440  171.3440  143.4300 O   0  0  0  0  0  0  0  0  0  0  0  0
  189.0930  174.1400  142.8780 C   0  0  0  0  0  3  0  0  0  0  0  0
  190.4780  172.9690  145.0010 C   0  0  0  0  0  3  0  0  0  0  0  0
  188.3020  176.5580  145.6890 C   0  0  2  0  0  3  0  0  0  0  0  0
  188.0240  175.8260  144.3790 C   0  0  0  0  0  2  0  0  0  0  0  0
  188.9680  174.6750  144.1620 C   0  0  0  0  0  0  0  0  0  0  0  0
  189.6030  174.6480  146.6260 C   0  0  0  0  0  2  0  0  0  0  0  0
  189.6500  174.0690  145.2400 C   0  0  0  0  0  0  0  0  0  0  0  0
  188.3940  175.5550  146.8330 C   0  0  0  0  0  2  0  0  0  0  0  0
  190.6110  172.4370  143.7090 C   0  0  0  0  0  0  0  0  0  0  0  0
  189.9150  173.0330  142.6530 C   0  0  0  0  0  3  0  0  0  0  0  0
  187.2300  177.5590  145.9580 C   0  0  0  0  0  0  0  0  0  0  0  0
  186.8410  178.3180  145.0320 O   0  0  0  0  0  0  0  0  0  0  0  0
  186.6610  177.6620  147.2220 O   0  0  0  0  0  1  0  0  0  0  0  0
  1 14  2  0  0  0  0
  1  7  1  0  0  0  0
  4  7  1  0  0  0  0
  4  5  2  0  0  0  0
  5  8  1  0  0  0  0
  6  3  1  0  0  0  0
  6  8  1  0  0  0  0
  7  6  2  0  0  0  0
  9  2  1  0  0  0  0
 10  9  1  0  0  0  0
 11 13  1  0  0  0  0
 11 10  2  0  0  0  0
 12  2  1  0  0  0  0
 12  3  2  0  0  0  0
 13 14  1  0  0  0  0
 14 12  1  0  0  0  0
 15 17  1  0  0  0  0
 15 10  1  0  0  0  0
 16 15  2  0  0  0  0
 18 19  1  0  0  0  0
 18  1  1  0  0  0  0
 19 20  2  0  0  0  0
 21 30  1  0  0  0  0
 21 19  1  0  0  0  0
 22 26  1  0  0  0  0
 23 28  1  0  0  0  0
 24 32  1  1  0  0  0
 24 29  1  0  0  0  0
 25 24  1  0  0  0  0
 26 25  1  0  0  0  0
 26 28  2  0  0  0  0
 27 29  1  0  0  0  0
 28 27  1  0  0  0  0
 30 23  2  0  0  0  0
 31 22  2  0  0  0  0
 31 30  1  0  0  0  0
 32 34  1  0  0  0  0
 33 32  2  0  0  0  0
M  END
>  <MODEL>
7

>  <REMARK>
 VINA RESULT:      -6.8      2.655      4.642
  Name = 
  6 active torsions:
  status: ('A' for Active; 'I' for Inactive)
    1  A    between atoms: C_1  and  C_9
    2  A    between atoms: C_3  and  C_25
    3  A    between atoms: C_7  and  C_11
    4  A    between atoms: C_8  and  C_9
    5  A    between atoms: C_8  and  O_18
    6  A    between atoms: O_18  and  C_30
                            x       y       z     vdW  Elec       q    Type
                         _______ _______ _______ _____ _____    ______ ____

>  <TORSDO>
F 6

$$$$
=
 OpenBabel11052420273D

 34 38  0  0  1  0  0  0  0  0999 V2000
  192.1450  176.2970  144.3900 C   0  0  0  0  0  0  0  0  0  0  0  0
  190.1960  175.8680  147.5230 C   0  0  0  0  0  2  0  0  0  0  0  0
  192.4780  175.8000  147.1630 C   0  0  0  0  0  3  0  0  0  0  0  0
  194.5670  175.8530  144.3250 N   0  0  0  0  0  0  0  0  0  0  0  0
  195.4180  175.5680  145.3470 C   0  0  0  0  0  3  0  0  0  0  0  0
  193.5400  175.7670  146.2750 C   0  0  0  0  0  0  0  0  0  0  0  0
  193.3820  175.9710  144.9470 C   0  0  0  0  0  0  0  0  0  0  0  0
  194.7990  175.5170  146.5150 O   0  0  0  0  0  0  0  0  0  0  0  0
  188.7470  175.7750  147.1790 C   0  0  0  0  0  2  0  0  0  0  0  0
  188.2120  177.0260  146.5830 C   0  0  0  0  0  0  0  0  0  0  0  0
  188.7160  177.5090  145.4490 C   0  0  0  0  0  3  0  0  0  0  0  0
  191.1940  176.0800  146.6600 C   0  0  0  0  0  0  0  0  0  0  0  0
  189.9360  177.0430  144.7650 C   0  0  0  0  0  2  0  0  0  0  0  0
  191.0280  176.4320  145.2690 C   0  0  0  0  0  0  0  0  0  0  0  0
  187.0010  177.6310  147.1630 C   0  0  0  0  0  0  0  0  0  0  0  0
  185.7460  177.1780  146.7780 O   0  0  0  0  0  0  0  0  0  0  0  0
  187.0880  178.5620  148.0090 O   0  0  0  0  0  1  0  0  0  0  0  0
  192.0470  176.5320  142.9070 C   0  0  0  0  0  2  0  0  0  0  0  0
  191.9300  175.2300  142.1920 C   0  0  0  0  0  0  0  0  0  0  0  0
  192.9360  174.4740  142.1160 O   0  0  0  0  0  0  0  0  0  0  0  0
  190.6970  174.8700  141.6340 O   0  0  0  0  0  0  0  0  0  0  0  0
  187.3000  174.9880  143.0830 C   0  0  0  0  0  3  0  0  0  0  0  0
  189.0340  176.6780  141.6930 C   0  0  0  0  0  3  0  0  0  0  0  0
  185.0600  177.9840  142.4690 C   0  0  2  0  0  3  0  0  0  0  0  0
  185.5420  176.7540  143.2340 C   0  0  0  0  0  2  0  0  0  0  0  0
  186.8870  176.2810  142.7570 C   0  0  0  0  0  0  0  0  0  0  0  0
  187.3510  178.5200  141.6390 C   0  0  0  0  0  2  0  0  0  0  0  0
  187.7720  177.1450  142.0740 C   0  0  0  0  0  0  0  0  0  0  0  0
  186.1590  179.0400  142.4390 C   0  0  0  0  0  2  0  0  0  0  0  0
  189.4450  175.3760  142.0130 C   0  0  0  0  0  0  0  0  0  0  0  0
  188.5680  174.5360  142.7070 C   0  0  0  0  0  3  0  0  0  0  0  0
  183.8270  178.5340  143.0990 C   0  0  0  0  0  0  0  0  0  0  0  0
  183.8620  178.9330  144.2930 O   0  0  0  0  0  1  0  0  0  0  0  0
  182.6380  178.6040  142.3820 O   0  0  0  0  0  0  0  0  0  0  0  0
  1  7  2  0  0  0  0
  1 14  1  0  0  0  0
  4  7  1  0  0  0  0
  4  5  2  0  0  0  0
  5  8  1  0  0  0  0
  6  8  1  0  0  0  0
  6  3  2  0  0  0  0
  7  6  1  0  0  0  0
  9  2  1  0  0  0  0
 10 15  1  0  0  0  0
 10  9  1  0  0  0  0
 11 10  2  0  0  0  0
 12  3  1  0  0  0  0
 12  2  1  0  0  0  0
 13 14  1  0  0  0  0
 13 11  1  0  0  0  0
 14 12  2  0  0  0  0
 15 17  1  0  0  0  0
 16 15  2  0  0  0  0
 18  1  1  0  0  0  0
 19 18  1  0  0  0  0
 20 19  2  0  0  0  0
 21 30  1  0  0  0  0
 21 19  1  0  0  0  0
 23 30  2  0  0  0  0
 23 28  1  0  0  0  0
 24 32  1  1  0  0  0
 24 25  1  0  0  0  0
 26 22  1  0  0  0  0
 26 25  1  0  0  0  0
 27 28  1  0  0  0  0
 27 29  1  0  0  0  0
 28 26  2  0  0  0  0
 29 24  1  0  0  0  0
 30 31  1  0  0  0  0
 31 22  2  0  0  0  0
 32 33  1  0  0  0  0
 34 32  2  0  0  0  0
M  END
>  <MODEL>
8

>  <REMARK>
 VINA RESULT:      -6.6      2.236      4.446
  Name = 
  6 active torsions:
  status: ('A' for Active; 'I' for Inactive)
    1  A    between atoms: C_1  and  C_9
    2  A    between atoms: C_3  and  C_25
    3  A    between atoms: C_7  and  C_11
    4  A    between atoms: C_8  and  C_9
    5  A    between atoms: C_8  and  O_18
    6  A    between atoms: O_18  and  C_30
                            x       y       z     vdW  Elec       q    Type
                         _______ _______ _______ _____ _____    ______ ____

>  <TORSDO>
F 6

$$$$
=
 OpenBabel11052420273D

 34 38  0  0  1  0  0  0  0  0999 V2000
  189.4300  175.2140  145.7360 C   0  0  0  0  0  0  0  0  0  0  0  0
  187.1710  176.8980  143.3150 C   0  0  0  0  0  2  0  0  0  0  0  0
  188.5540  175.0660  143.0420 C   0  0  0  0  0  3  0  0  0  0  0  0
  191.0000  173.4610  145.0090 N   0  0  0  0  0  0  0  0  0  0  0  0
  191.1160  172.8600  143.7940 C   0  0  0  0  0  3  0  0  0  0  0  0
  189.5610  174.2530  143.5370 C   0  0  0  0  0  0  0  0  0  0  0  0
  190.0050  174.3430  144.8120 C   0  0  0  0  0  0  0  0  0  0  0  0
  190.2520  173.3380  142.9130 O   0  0  0  0  0  0  0  0  0  0  0  0
  186.6770  178.1680  143.9220 C   0  0  0  0  0  2  0  0  0  0  0  0
  185.8270  177.9440  145.1210 C   0  0  0  0  0  0  0  0  0  0  0  0
  186.3130  177.3190  146.1910 C   0  0  0  0  0  3  0  0  0  0  0  0
  187.9600  176.0000  143.9120 C   0  0  0  0  0  0  0  0  0  0  0  0
  187.6000  176.6060  146.2790 C   0  0  0  0  0  2  0  0  0  0  0  0
  188.3290  176.0160  145.3080 C   0  0  0  0  0  0  0  0  0  0  0  0
  184.5000  178.5780  145.1820 C   0  0  0  0  0  0  0  0  0  0  0  0
  183.9920  179.2370  144.0690 O   0  0  0  0  0  0  0  0  0  0  0  0
  183.8130  178.5330  146.2390 O   0  0  0  0  0  1  0  0  0  0  0  0
  189.9600  175.2440  147.1440 C   0  0  0  0  0  2  0  0  0  0  0  0
  190.8420  176.4310  147.3310 C   0  0  0  0  0  0  0  0  0  0  0  0
  190.3240  177.5740  147.4370 O   0  0  0  0  0  0  0  0  0  0  0  0
  192.2280  176.2430  147.4030 O   0  0  0  0  0  0  0  0  0  0  0  0
  195.3070  175.4810  145.5060 C   0  0  0  0  0  3  0  0  0  0  0  0
  192.6880  176.3030  144.9890 C   0  0  0  0  0  3  0  0  0  0  0  0
  195.4810  176.1730  141.7830 C   0  0  2  0  0  3  0  0  0  0  0  0
  195.8880  175.4750  143.0780 C   0  0  0  0  0  2  0  0  0  0  0  0
  194.9100  175.7310  144.1910 C   0  0  0  0  0  0  0  0  0  0  0  0
  193.1230  176.4730  142.5370 C   0  0  0  0  0  2  0  0  0  0  0  0
  193.5790  176.1250  143.9270 C   0  0  0  0  0  0  0  0  0  0  0  0
  194.0230  175.8660  141.4640 C   0  0  0  0  0  2  0  0  0  0  0  0
  193.0900  176.0600  146.3110 C   0  0  0  0  0  0  0  0  0  0  0  0
  194.4040  175.6520  146.5590 C   0  0  0  0  0  3  0  0  0  0  0  0
  196.3630  175.7370  140.6630 C   0  0  0  0  0  0  0  0  0  0  0  0
  197.5980  175.5920  140.8620 O   0  0  0  0  0  1  0  0  0  0  0  0
  195.8330  175.4930  139.4010 O   0  0  0  0  0  0  0  0  0  0  0  0
  1 18  1  0  0  0  0
  2 12  1  0  0  0  0
  2  9  1  0  0  0  0
  3  6  2  0  0  0  0
  3 12  1  0  0  0  0
  5  4  2  0  0  0  0
  6  7  1  0  0  0  0
  7  4  1  0  0  0  0
  7  1  2  0  0  0  0
  8  6  1  0  0  0  0
  8  5  1  0  0  0  0
  9 10  1  0  0  0  0
 10 15  1  0  0  0  0
 10 11  2  0  0  0  0
 11 13  1  0  0  0  0
 12 14  2  0  0  0  0
 14  1  1  0  0  0  0
 14 13  1  0  0  0  0
 15 17  1  0  0  0  0
 16 15  2  0  0  0  0
 18 19  1  0  0  0  0
 19 21  1  0  0  0  0
 19 20  2  0  0  0  0
 22 31  1  0  0  0  0
 23 30  1  0  0  0  0
 24 32  1  6  0  0  0
 24 25  1  0  0  0  0
 25 26  1  0  0  0  0
 26 22  2  0  0  0  0
 27 28  1  0  0  0  0
 28 26  1  0  0  0  0
 28 23  2  0  0  0  0
 29 24  1  0  0  0  0
 29 27  1  0  0  0  0
 30 31  2  0  0  0  0
 30 21  1  0  0  0  0
 32 33  1  0  0  0  0
 34 32  2  0  0  0  0
M  END
>  <MODEL>
9

>  <REMARK>
 VINA RESULT:      -6.6      2.448      6.304
  Name = 
  6 active torsions:
  status: ('A' for Active; 'I' for Inactive)
    1  A    between atoms: C_1  and  C_9
    2  A    between atoms: C_3  and  C_25
    3  A    between atoms: C_7  and  C_11
    4  A    between atoms: C_8  and  C_9
    5  A    between atoms: C_8  and  O_18
    6  A    between atoms: O_18  and  C_30
                            x       y       z     vdW  Elec       q    Type
                         _______ _______ _______ _____ _____    ______ ____

>  <TORSDO>
F 6

$$$$
