=
 OpenBabel11052420183D

 34 38  0  0  1  0  0  0  0  0999 V2000
  193.3430  173.2920  145.3390 C   0  0  0  0  0  0  0  0  0  0  0  0
  197.1720  173.2870  145.5510 C   0  0  0  0  0  2  0  0  0  0  0  0
  195.4470  174.9790  146.1550 C   0  0  0  0  0  3  0  0  0  0  0  0
  192.2930  172.4610  144.9630 O   0  0  0  0  0  1  0  0  0  0  0  0
  191.7650  175.2030  146.0930 C   0  0  2  0  0  3  0  0  0  0  0  0
  192.1120  176.4650  146.8960 C   0  0  0  0  0  3  0  0  0  0  0  0
  194.1170  175.3750  146.2730 C   0  0  0  0  0  0  0  0  0  0  0  0
  193.0890  174.5650  145.8630 C   0  0  0  0  0  0  0  0  0  0  0  0
  193.6360  176.6420  146.8570 C   0  0  0  0  0  3  0  0  0  0  0  0
  197.3950  172.1200  144.5920 C   0  0  0  0  0  2  0  0  0  0  0  0
  196.3720  171.0070  144.8250 C   0  0  2  0  0  3  0  0  0  0  0  0
  195.7370  173.7260  145.5990 C   0  0  0  0  0  0  0  0  0  0  0  0
  194.9600  171.5270  144.5630 C   0  0  0  0  0  2  0  0  0  0  0  0
  194.6790  172.8610  145.2070 C   0  0  0  0  0  0  0  0  0  0  0  0
  191.1360  175.6340  144.7730 C   0  0  0  0  0  2  0  0  0  0  0  0
  189.7470  175.0370  144.5960 C   0  0  0  0  0  2  0  0  0  0  0  0
  187.8550  175.4210  142.4800 O   0  0  0  0  0  0  0  0  0  0  0  0
  187.2680  177.2810  146.1210 C   0  0  0  0  0  2  0  0  0  0  0  0
  184.5050  178.0060  142.8890 C   0  0  0  0  0  0  0  0  0  0  0  0
  185.6260  177.1870  142.6860 C   0  0  0  0  0  3  0  0  0  0  0  0
  186.5420  176.9660  143.7210 C   0  0  0  0  0  0  0  0  0  0  0  0
  188.7340  176.0840  144.5520 N   0  0  0  0  0  0  0  0  0  0  0  0
  185.2170  178.3770  145.1840 C   0  0  0  0  0  3  0  0  0  0  0  0
  186.3390  177.5720  144.9750 C   0  0  0  0  0  0  0  0  0  0  0  0
  184.3090  178.5980  144.1470 C   0  0  0  0  0  3  0  0  0  0  0  0
  188.6980  177.0760  145.6240 C   0  0  0  0  0  2  0  0  0  0  0  0
  187.7300  176.1190  143.5230 C   0  0  0  0  0  0  0  0  0  0  0  0
  182.3210  178.3910  142.0410 O   0  0  0  0  0  0  0  0  0  0  0  0
  183.5460  178.2350  141.7900 C   0  0  0  0  0  0  0  0  0  0  0  0
  184.0010  178.2880  140.3710 C   0  0  0  0  0  1  0  0  0  0  0  0
  196.4730  170.3960  146.2220 C   0  0  0  0  0  2  0  0  0  0  0  0
  195.2540  169.5410  146.5450 C   0  0  0  0  0  2  0  0  0  0  0  0
  195.5570  168.5210  147.6310 C   0  0  0  0  0  2  0  0  0  0  0  0
  197.0480  168.4620  147.9040 C   0  0  0  0  0  1  0  0  0  0  0  0
  1  8  1  0  0  0  0
  2 12  1  0  0  0  0
  3  7  1  0  0  0  0
  4  1  1  0  0  0  0
  5 15  1  6  0  0  0
  5  6  1  0  0  0  0
  7  9  1  0  0  0  0
  8  5  1  0  0  0  0
  8  7  2  0  0  0  0
  9  6  2  0  0  0  0
 10 11  1  0  0  0  0
 10  2  1  0  0  0  0
 11 31  1  1  0  0  0
 12  3  2  0  0  0  0
 13 11  1  0  0  0  0
 13 14  1  0  0  0  0
 14  1  2  0  0  0  0
 14 12  1  0  0  0  0
 16 15  1  0  0  0  0
 17 27  2  0  0  0  0
 19 25  1  0  0  0  0
 20 19  2  0  0  0  0
 20 21  1  0  0  0  0
 21 24  2  0  0  0  0
 22 16  1  0  0  0  0
 22 26  1  0  0  0  0
 24 23  1  0  0  0  0
 24 18  1  0  0  0  0
 25 23  2  0  0  0  0
 26 18  1  0  0  0  0
 27 21  1  0  0  0  0
 27 22  1  0  0  0  0
 29 28  2  0  0  0  0
 29 19  1  0  0  0  0
 30 29  1  0  0  0  0
 31 32  1  0  0  0  0
 32 33  1  0  0  0  0
 33 34  1  0  0  0  0
M  END
>  <MODEL>
1

>  <REMARK>
 VINA RESULT:      -8.6      0.000      0.000
  Name = 
  7 active torsions:
  status: ('A' for Active; 'I' for Inactive)
    1  A    between atoms: C_3  and  C_24
    2  A    between atoms: C_7  and  C_15
    3  A    between atoms: C_8  and  C_17
    4  A    between atoms: C_8  and  N_18
    5  A    between atoms: C_10  and  C_17
    6  A    between atoms: C_24  and  C_25
    7  A    between atoms: C_25  and  C_27
                            x       y       z     vdW  Elec       q    Type
                         _______ _______ _______ _____ _____    ______ ____

>  <TORSDO>
F 7

$$$$
=
 OpenBabel11052420183D

 34 38  0  0  1  0  0  0  0  0999 V2000
  193.7900  172.6950  145.0140 C   0  0  0  0  0  0  0  0  0  0  0  0
  197.6000  172.4180  145.3480 C   0  0  0  0  0  2  0  0  0  0  0  0
  195.9990  174.2830  145.7460 C   0  0  0  0  0  3  0  0  0  0  0  0
  192.6870  171.9170  144.6800 O   0  0  0  0  0  1  0  0  0  0  0  0
  192.3490  174.7820  145.5480 C   0  0  2  0  0  3  0  0  0  0  0  0
  192.7750  176.0800  146.2480 C   0  0  0  0  0  3  0  0  0  0  0  0
  194.7020  174.7890  145.7860 C   0  0  0  0  0  0  0  0  0  0  0  0
  193.6240  174.0260  145.4170 C   0  0  0  0  0  0  0  0  0  0  0  0
  194.3080  176.1360  146.2420 C   0  0  0  0  0  3  0  0  0  0  0  0
  197.7550  171.1550  144.5020 C   0  0  0  0  0  2  0  0  0  0  0  0
  196.6420  170.1490  144.7990 C   0  0  2  0  0  3  0  0  0  0  0  0
  196.2030  172.9670  145.3110 C   0  0  0  0  0  0  0  0  0  0  0  0
  195.2810  170.7500  144.4480 C   0  0  0  0  0  2  0  0  0  0  0  0
  195.0900  172.1540  144.9630 C   0  0  0  0  0  0  0  0  0  0  0  0
  191.7890  175.1380  144.1750 C   0  0  0  0  0  2  0  0  0  0  0  0
  191.4590  176.6210  144.0760 C   0  0  0  0  0  2  0  0  0  0  0  0
  189.4160  177.1270  146.0190 O   0  0  0  0  0  0  0  0  0  0  0  0
  188.6700  177.8490  142.0210 C   0  0  0  0  0  2  0  0  0  0  0  0
  185.5290  178.4500  144.9160 C   0  0  0  0  0  0  0  0  0  0  0  0
  186.7790  177.9590  145.3250 C   0  0  0  0  0  3  0  0  0  0  0  0
  187.7970  177.7360  144.3890 C   0  0  0  0  0  0  0  0  0  0  0  0
  190.0460  176.8190  143.7800 N   0  0  0  0  0  0  0  0  0  0  0  0
  186.3260  178.5060  142.6190 C   0  0  0  0  0  3  0  0  0  0  0  0
  187.5650  178.0040  143.0270 C   0  0  0  0  0  0  0  0  0  0  0  0
  185.3130  178.7210  143.5560 C   0  0  0  0  0  3  0  0  0  0  0  0
  189.5900  176.6880  142.3980 C   0  0  0  0  0  2  0  0  0  0  0  0
  189.1100  177.2120  144.7980 C   0  0  0  0  0  0  0  0  0  0  0  0
  183.3150  179.0390  145.5350 O   0  0  0  0  0  0  0  0  0  0  0  0
  184.4620  178.6780  145.9090 C   0  0  0  0  0  0  0  0  0  0  0  0
  184.7140  178.4890  147.3670 C   0  0  0  0  0  1  0  0  0  0  0  0
  196.6590  169.6600  146.2460 C   0  0  0  0  0  2  0  0  0  0  0  0
  195.4270  168.8240  146.5670 C   0  0  0  0  0  2  0  0  0  0  0  0
  195.5290  168.1770  147.9390 C   0  0  0  0  0  2  0  0  0  0  0  0
  196.9700  168.1670  148.4150 C   0  0  0  0  0  1  0  0  0  0  0  0
  1  8  1  0  0  0  0
  3  7  1  0  0  0  0
  4  1  1  0  0  0  0
  5 15  1  6  0  0  0
  5  6  1  0  0  0  0
  7  9  1  0  0  0  0
  8  5  1  0  0  0  0
  8  7  2  0  0  0  0
  9  6  2  0  0  0  0
 10 11  1  0  0  0  0
 10  2  1  0  0  0  0
 11 31  1  1  0  0  0
 12  2  1  0  0  0  0
 12  3  2  0  0  0  0
 13 11  1  0  0  0  0
 13 14  1  0  0  0  0
 14  1  2  0  0  0  0
 14 12  1  0  0  0  0
 16 15  1  0  0  0  0
 18 26  1  0  0  0  0
 18 24  1  0  0  0  0
 19 20  1  0  0  0  0
 19 29  1  0  0  0  0
 21 27  1  0  0  0  0
 21 20  2  0  0  0  0
 22 16  1  0  0  0  0
 22 27  1  0  0  0  0
 23 24  2  0  0  0  0
 23 25  1  0  0  0  0
 24 21  1  0  0  0  0
 25 19  2  0  0  0  0
 26 22  1  0  0  0  0
 27 17  2  0  0  0  0
 28 29  2  0  0  0  0
 29 30  1  0  0  0  0
 31 32  1  0  0  0  0
 32 33  1  0  0  0  0
 33 34  1  0  0  0  0
M  END
>  <MODEL>
2

>  <REMARK>
 VINA RESULT:      -8.4      1.560      2.357
  Name = 
  7 active torsions:
  status: ('A' for Active; 'I' for Inactive)
    1  A    between atoms: C_3  and  C_24
    2  A    between atoms: C_7  and  C_15
    3  A    between atoms: C_8  and  C_17
    4  A    between atoms: C_8  and  N_18
    5  A    between atoms: C_10  and  C_17
    6  A    between atoms: C_24  and  C_25
    7  A    between atoms: C_25  and  C_27
                            x       y       z     vdW  Elec       q    Type
                         _______ _______ _______ _____ _____    ______ ____

>  <TORSDO>
F 7

$$$$
=
 OpenBabel11052420183D

 34 38  0  0  1  0  0  0  0  0999 V2000
  193.0640  174.1820  145.1100 C   0  0  0  0  0  0  0  0  0  0  0  0
  195.8440  176.6180  144.0870 C   0  0  0  0  0  2  0  0  0  0  0  0
  194.0080  176.7550  145.7630 C   0  0  0  0  0  3  0  0  0  0  0  0
  192.6010  172.9040  144.8160 O   0  0  0  0  0  1  0  0  0  0  0  0
  191.2830  174.5700  146.9510 C   0  0  2  0  0  3  0  0  0  0  0  0
  191.2210  175.6930  147.9960 C   0  0  0  0  0  3  0  0  0  0  0  0
  192.9190  176.1950  146.4280 C   0  0  0  0  0  0  0  0  0  0  0  0
  192.4450  174.9500  146.1040 C   0  0  0  0  0  0  0  0  0  0  0  0
  192.1730  176.8080  147.5440 C   0  0  0  0  0  3  0  0  0  0  0  0
  196.1800  175.9450  142.7570 C   0  0  0  0  0  2  0  0  0  0  0  0
  196.1740  174.4210  142.8890 C   0  0  2  0  0  3  0  0  0  0  0  0
  194.6260  176.0280  144.7370 C   0  0  0  0  0  0  0  0  0  0  0  0
  194.7830  173.9330  143.2900 C   0  0  0  0  0  2  0  0  0  0  0  0
  194.1680  174.7200  144.4200 C   0  0  0  0  0  0  0  0  0  0  0  0
  189.9920  174.5990  146.1410 C   0  0  0  0  0  2  0  0  0  0  0  0
  190.1190  175.5010  144.9210 C   0  0  0  0  0  2  0  0  0  0  0  0
  188.3410  175.7890  142.6930 O   0  0  0  0  0  0  0  0  0  0  0  0
  187.3120  177.3900  146.3600 C   0  0  0  0  0  2  0  0  0  0  0  0
  184.7080  177.9790  142.9720 C   0  0  0  0  0  0  0  0  0  0  0  0
  185.9230  177.2960  142.8150 C   0  0  0  0  0  3  0  0  0  0  0  0
  186.7870  177.1210  143.9030 C   0  0  0  0  0  0  0  0  0  0  0  0
  189.0030  176.4360  144.8500 N   0  0  0  0  0  0  0  0  0  0  0  0
  185.2210  178.3080  145.3270 C   0  0  0  0  0  3  0  0  0  0  0  0
  186.4370  177.6380  145.1640 C   0  0  0  0  0  0  0  0  0  0  0  0
  184.3650  178.4830  144.2370 C   0  0  0  0  0  3  0  0  0  0  0  0
  188.7870  177.3630  145.9580 C   0  0  0  0  0  2  0  0  0  0  0  0
  188.0710  176.4160  143.7540 C   0  0  0  0  0  0  0  0  0  0  0  0
  182.5620  178.2530  141.9960 O   0  0  0  0  0  0  0  0  0  0  0  0
  183.8060  178.1610  141.8180 C   0  0  0  0  0  0  0  0  0  0  0  0
  184.3400  178.2370  140.4280 C   0  0  0  0  0  1  0  0  0  0  0  0
  197.2290  173.9100  143.8690 C   0  0  0  0  0  2  0  0  0  0  0  0
  196.9710  172.4610  144.2600 C   0  0  0  0  0  2  0  0  0  0  0  0
  196.7050  172.3200  145.7500 C   0  0  0  0  0  2  0  0  0  0  0  0
  197.0120  173.6200  146.4690 C   0  0  0  0  0  1  0  0  0  0  0  0
  1  8  1  0  0  0  0
  2 12  1  0  0  0  0
  3  7  1  0  0  0  0
  4  1  1  0  0  0  0
  5 15  1  6  0  0  0
  5  6  1  0  0  0  0
  7  9  1  0  0  0  0
  8  7  2  0  0  0  0
  8  5  1  0  0  0  0
  9  6  2  0  0  0  0
 10 11  1  0  0  0  0
 10  2  1  0  0  0  0
 11 13  1  0  0  0  0
 11 31  1  1  0  0  0
 12  3  2  0  0  0  0
 13 14  1  0  0  0  0
 14 12  1  0  0  0  0
 14  1  2  0  0  0  0
 16 15  1  0  0  0  0
 17 27  2  0  0  0  0
 19 25  1  0  0  0  0
 20 19  2  0  0  0  0
 20 21  1  0  0  0  0
 21 24  2  0  0  0  0
 22 16  1  0  0  0  0
 22 26  1  0  0  0  0
 24 23  1  0  0  0  0
 24 18  1  0  0  0  0
 25 23  2  0  0  0  0
 26 18  1  0  0  0  0
 27 21  1  0  0  0  0
 27 22  1  0  0  0  0
 29 28  2  0  0  0  0
 29 19  1  0  0  0  0
 30 29  1  0  0  0  0
 31 32  1  0  0  0  0
 32 33  1  0  0  0  0
 33 34  1  0  0  0  0
M  END
>  <MODEL>
3

>  <REMARK>
 VINA RESULT:      -8.3      1.556      2.266
  Name = 
  7 active torsions:
  status: ('A' for Active; 'I' for Inactive)
    1  A    between atoms: C_3  and  C_24
    2  A    between atoms: C_7  and  C_15
    3  A    between atoms: C_8  and  C_17
    4  A    between atoms: C_8  and  N_18
    5  A    between atoms: C_10  and  C_17
    6  A    between atoms: C_24  and  C_25
    7  A    between atoms: C_25  and  C_27
                            x       y       z     vdW  Elec       q    Type
                         _______ _______ _______ _____ _____    ______ ____

>  <TORSDO>
F 7

$$$$
=
 OpenBabel11052420183D

 34 38  0  0  1  0  0  0  0  0999 V2000
  193.6930  173.1810  145.2790 C   0  0  0  0  0  0  0  0  0  0  0  0
  197.5280  173.1910  145.3230 C   0  0  0  0  0  2  0  0  0  0  0  0
  195.8260  174.9140  145.9010 C   0  0  0  0  0  3  0  0  0  0  0  0
  192.6300  172.3290  144.9990 O   0  0  0  0  0  1  0  0  0  0  0  0
  192.1440  175.1320  145.9880 C   0  0  2  0  0  3  0  0  0  0  0  0
  192.5220  176.4390  146.6990 C   0  0  0  0  0  3  0  0  0  0  0  0
  194.5010  175.3160  146.0540 C   0  0  0  0  0  0  0  0  0  0  0  0
  193.4580  174.4830  145.7380 C   0  0  0  0  0  0  0  0  0  0  0  0
  194.0420  176.6140  146.5830 C   0  0  0  0  0  3  0  0  0  0  0  0
  197.7130  171.9690  144.4240 C   0  0  0  0  0  2  0  0  0  0  0  0
  196.7050  170.8710  144.7670 C   0  0  2  0  0  3  0  0  0  0  0  0
  196.0950  173.6300  145.4070 C   0  0  0  0  0  0  0  0  0  0  0  0
  195.2800  171.3740  144.5370 C   0  0  0  0  0  2  0  0  0  0  0  0
  195.0230  172.7440  145.1140 C   0  0  0  0  0  0  0  0  0  0  0  0
  191.4570  175.4840  144.6740 C   0  0  0  0  0  2  0  0  0  0  0  0
  191.3250  176.9900  144.4980 C   0  0  0  0  0  2  0  0  0  0  0  0
  189.4560  177.4390  142.3730 O   0  0  0  0  0  0  0  0  0  0  0  0
  188.0960  177.0480  146.2550 C   0  0  0  0  0  2  0  0  0  0  0  0
  185.2910  177.8950  143.0890 C   0  0  0  0  0  0  0  0  0  0  0  0
  186.6630  177.8080  142.8090 C   0  0  0  0  0  3  0  0  0  0  0  0
  187.5840  177.5590  143.8340 C   0  0  0  0  0  0  0  0  0  0  0  0
  189.9410  177.4130  144.6690 N   0  0  0  0  0  0  0  0  0  0  0  0
  185.7650  177.4690  145.4370 C   0  0  0  0  0  3  0  0  0  0  0  0
  187.1310  177.3970  145.1560 C   0  0  0  0  0  0  0  0  0  0  0  0
  184.8510  177.7230  144.4110 C   0  0  0  0  0  3  0  0  0  0  0  0
  189.4540  177.7070  146.0150 C   0  0  0  0  0  2  0  0  0  0  0  0
  189.0280  177.4760  143.5600 C   0  0  0  0  0  0  0  0  0  0  0  0
  183.1090  178.3430  142.2670 O   0  0  0  0  0  0  0  0  0  0  0  0
  184.3280  178.1610  142.0030 C   0  0  0  0  0  0  0  0  0  0  0  0
  184.7700  178.2210  140.5800 C   0  0  0  0  0  1  0  0  0  0  0  0
  196.8680  170.3440  146.1910 C   0  0  0  0  0  2  0  0  0  0  0  0
  197.1090  168.8400  146.2050 C   0  0  0  0  0  2  0  0  0  0  0  0
  196.4080  168.1700  147.3760 C   0  0  0  0  0  2  0  0  0  0  0  0
  194.9980  168.7080  147.5300 C   0  0  0  0  0  1  0  0  0  0  0  0
  1  8  1  0  0  0  0
  2 12  1  0  0  0  0
  3  7  1  0  0  0  0
  4  1  1  0  0  0  0
  5 15  1  6  0  0  0
  5  6  1  0  0  0  0
  7  9  1  0  0  0  0
  8  5  1  0  0  0  0
  8  7  2  0  0  0  0
  9  6  2  0  0  0  0
 10 11  1  0  0  0  0
 10  2  1  0  0  0  0
 11 31  1  1  0  0  0
 12  3  2  0  0  0  0
 13 11  1  0  0  0  0
 13 14  1  0  0  0  0
 14  1  2  0  0  0  0
 14 12  1  0  0  0  0
 16 22  1  0  0  0  0
 16 15  1  0  0  0  0
 17 27  2  0  0  0  0
 19 25  1  0  0  0  0
 20 19  2  0  0  0  0
 20 21  1  0  0  0  0
 21 24  2  0  0  0  0
 22 26  1  0  0  0  0
 24 23  1  0  0  0  0
 24 18  1  0  0  0  0
 25 23  2  0  0  0  0
 26 18  1  0  0  0  0
 27 21  1  0  0  0  0
 27 22  1  0  0  0  0
 29 28  2  0  0  0  0
 29 19  1  0  0  0  0
 30 29  1  0  0  0  0
 31 32  1  0  0  0  0
 32 33  1  0  0  0  0
 33 34  1  0  0  0  0
M  END
>  <MODEL>
4

>  <REMARK>
 VINA RESULT:      -8.3      0.967      1.114
  Name = 
  7 active torsions:
  status: ('A' for Active; 'I' for Inactive)
    1  A    between atoms: C_3  and  C_24
    2  A    between atoms: C_7  and  C_15
    3  A    between atoms: C_8  and  C_17
    4  A    between atoms: C_8  and  N_18
    5  A    between atoms: C_10  and  C_17
    6  A    between atoms: C_24  and  C_25
    7  A    between atoms: C_25  and  C_27
                            x       y       z     vdW  Elec       q    Type
                         _______ _______ _______ _____ _____    ______ ____

>  <TORSDO>
F 7

$$$$
=
 OpenBabel11052420183D

 34 38  0  0  1  0  0  0  0  0999 V2000
  188.3970  176.9440  145.3810 C   0  0  0  0  0  0  0  0  0  0  0  0
  186.4950  177.1900  142.0600 C   0  0  0  0  0  2  0  0  0  0  0  0
  188.1170  175.5290  142.9600 C   0  0  0  0  0  3  0  0  0  0  0  0
  188.5270  177.6190  146.5900 O   0  0  0  0  0  1  0  0  0  0  0  0
  190.0170  175.0490  146.0860 C   0  0  2  0  0  3  0  0  0  0  0  0
  190.2700  173.7030  145.3910 C   0  0  0  0  0  3  0  0  0  0  0  0
  188.9410  175.0590  143.9800 C   0  0  0  0  0  0  0  0  0  0  0  0
  189.0940  175.7510  145.1540 C   0  0  0  0  0  0  0  0  0  0  0  0
  189.7050  173.7960  143.9680 C   0  0  0  0  0  3  0  0  0  0  0  0
  186.1290  178.6690  142.1810 C   0  0  0  0  0  2  0  0  0  0  0  0
  185.7120  179.0220  143.6090 C   0  0  2  0  0  3  0  0  0  0  0  0
  187.4360  176.7410  143.1400 C   0  0  0  0  0  0  0  0  0  0  0  0
  186.8720  178.7750  144.5730 C   0  0  0  0  0  2  0  0  0  0  0  0
  187.5550  177.4460  144.3680 C   0  0  0  0  0  0  0  0  0  0  0  0
  191.3450  175.7910  146.1900 C   0  0  0  0  0  2  0  0  0  0  0  0
  192.4530  174.8820  146.7040 C   0  0  0  0  0  2  0  0  0  0  0  0
  193.6980  173.2460  144.7090 O   0  0  0  0  0  0  0  0  0  0  0  0
  194.9420  177.1510  145.2300 C   0  0  0  0  0  2  0  0  0  0  0  0
  196.9410  174.6450  142.3440 C   0  0  0  0  0  0  0  0  0  0  0  0
  195.9120  174.1190  143.1390 C   0  0  0  0  0  3  0  0  0  0  0  0
  195.2740  174.9170  144.0960 C   0  0  0  0  0  0  0  0  0  0  0  0
  193.7160  175.1780  146.0400 N   0  0  0  0  0  0  0  0  0  0  0  0
  196.6850  176.7880  143.4660 C   0  0  0  0  0  3  0  0  0  0  0  0
  195.6690  176.2570  144.2650 C   0  0  0  0  0  0  0  0  0  0  0  0
  197.3210  175.9860  142.5160 C   0  0  0  0  0  3  0  0  0  0  0  0
  194.4680  176.3620  146.4510 C   0  0  0  0  0  2  0  0  0  0  0  0
  194.2000  174.3790  144.9470 C   0  0  0  0  0  0  0  0  0  0  0  0
  197.9350  172.6120  141.6270 O   0  0  0  0  0  0  0  0  0  0  0  0
  197.6100  173.7950  141.3400 C   0  0  0  0  0  0  0  0  0  0  0  0
  197.9140  174.3110  139.9740 C   0  0  0  0  0  1  0  0  0  0  0  0
  184.4640  178.2670  144.0620 C   0  0  0  0  0  2  0  0  0  0  0  0
  184.0240  178.7010  145.4550 C   0  0  0  0  0  2  0  0  0  0  0  0
  184.4640  177.7080  146.5180 C   0  0  0  0  0  2  0  0  0  0  0  0
  185.2550  178.4100  147.6050 C   0  0  0  0  0  1  0  0  0  0  0  0
  1  4  1  0  0  0  0
  2 10  1  0  0  0  0
  2 12  1  0  0  0  0
  3 12  2  0  0  0  0
  3  7  1  0  0  0  0
  5 15  1  6  0  0  0
  6  5  1  0  0  0  0
  7  8  2  0  0  0  0
  8  1  1  0  0  0  0
  8  5  1  0  0  0  0
  9  7  1  0  0  0  0
  9  6  2  0  0  0  0
 10 11  1  0  0  0  0
 11 31  1  1  0  0  0
 11 13  1  0  0  0  0
 12 14  1  0  0  0  0
 14 13  1  0  0  0  0
 14  1  2  0  0  0  0
 15 16  1  0  0  0  0
 17 27  2  0  0  0  0
 18 26  1  0  0  0  0
 19 25  2  0  0  0  0
 19 20  1  0  0  0  0
 20 21  2  0  0  0  0
 21 24  1  0  0  0  0
 21 27  1  0  0  0  0
 22 26  1  0  0  0  0
 22 16  1  0  0  0  0
 23 24  2  0  0  0  0
 24 18  1  0  0  0  0
 25 23  1  0  0  0  0
 27 22  1  0  0  0  0
 29 28  2  0  0  0  0
 29 19  1  0  0  0  0
 30 29  1  0  0  0  0
 31 32  1  0  0  0  0
 32 33  1  0  0  0  0
 33 34  1  0  0  0  0
M  END
>  <MODEL>
5

>  <REMARK>
 VINA RESULT:      -8.1      3.157     10.264
  Name = 
  7 active torsions:
  status: ('A' for Active; 'I' for Inactive)
    1  A    between atoms: C_3  and  C_24
    2  A    between atoms: C_7  and  C_15
    3  A    between atoms: C_8  and  C_17
    4  A    between atoms: C_8  and  N_18
    5  A    between atoms: C_10  and  C_17
    6  A    between atoms: C_24  and  C_25
    7  A    between atoms: C_25  and  C_27
                            x       y       z     vdW  Elec       q    Type
                         _______ _______ _______ _____ _____    ______ ____

>  <TORSDO>
F 7

$$$$
=
 OpenBabel11052420183D

 34 38  0  0  1  0  0  0  0  0999 V2000
  192.9250  173.7050  144.2130 C   0  0  0  0  0  0  0  0  0  0  0  0
  189.9590  174.2750  141.8500 C   0  0  0  0  0  2  0  0  0  0  0  0
  192.2340  175.2780  141.9800 C   0  0  0  0  0  3  0  0  0  0  0  0
  193.2890  172.9180  145.3010 O   0  0  0  0  0  1  0  0  0  0  0  0
  195.2340  174.8740  144.0890 C   0  0  2  0  0  3  0  0  0  0  0  0
  195.7920  175.7650  142.9710 C   0  0  0  0  0  3  0  0  0  0  0  0
  193.4980  175.3630  142.5600 C   0  0  0  0  0  0  0  0  0  0  0  0
  193.8350  174.6120  143.6560 C   0  0  0  0  0  0  0  0  0  0  0  0
  194.6160  176.2020  142.0870 C   0  0  0  0  0  3  0  0  0  0  0  0
  188.9020  173.6270  142.7430 C   0  0  0  0  0  2  0  0  0  0  0  0
  189.4350  172.3540  143.4010 C   0  0  2  0  0  3  0  0  0  0  0  0
  191.2870  174.4080  142.5360 C   0  0  0  0  0  0  0  0  0  0  0  0
  190.6270  172.6840  144.2990 C   0  0  0  0  0  2  0  0  0  0  0  0
  191.6380  173.5950  143.6490 C   0  0  0  0  0  0  0  0  0  0  0  0
  195.2570  175.6680  145.3900 C   0  0  0  0  0  2  0  0  0  0  0  0
  194.4460  176.9510  145.2750 C   0  0  0  0  0  2  0  0  0  0  0  0
  191.9700  177.8500  144.1480 O   0  0  0  0  0  0  0  0  0  0  0  0
  191.9420  175.1390  147.2650 C   0  0  0  0  0  2  0  0  0  0  0  0
  188.2070  176.6150  145.6920 C   0  0  0  0  0  0  0  0  0  0  0  0
  189.4240  177.0960  145.1840 C   0  0  0  0  0  3  0  0  0  0  0  0
  190.6410  176.6420  145.7050 C   0  0  0  0  0  0  0  0  0  0  0  0
  193.1340  176.7940  145.8900 N   0  0  0  0  0  0  0  0  0  0  0  0
  189.4370  175.2070  147.2470 C   0  0  0  0  0  3  0  0  0  0  0  0
  190.6460  175.6980  146.7490 C   0  0  0  0  0  0  0  0  0  0  0  0
  188.2250  175.6670  146.7270 C   0  0  0  0  0  3  0  0  0  0  0  0
  193.0460  176.1950  147.2200 C   0  0  0  0  0  2  0  0  0  0  0  0
  191.9270  177.1440  145.1920 C   0  0  0  0  0  0  0  0  0  0  0  0
  186.9100  177.7290  144.0450 O   0  0  0  0  0  0  0  0  0  0  0  0
  186.9290  177.1030  145.1380 C   0  0  0  0  0  0  0  0  0  0  0  0
  185.6410  176.8690  145.8530 C   0  0  0  0  0  1  0  0  0  0  0  0
  189.8080  171.2770  142.3830 C   0  0  0  0  0  2  0  0  0  0  0  0
  191.2070  170.7300  142.6380 C   0  0  0  0  0  2  0  0  0  0  0  0
  191.9910  170.5720  141.3450 C   0  0  0  0  0  2  0  0  0  0  0  0
  193.3000  171.3360  141.4210 C   0  0  0  0  0  1  0  0  0  0  0  0
  1  4  1  0  0  0  0
  2 12  1  0  0  0  0
  2 10  1  0  0  0  0
  3 12  2  0  0  0  0
  3  7  1  0  0  0  0
  5 15  1  1  0  0  0
  6  5  1  0  0  0  0
  7  8  2  0  0  0  0
  8  5  1  0  0  0  0
  8  1  1  0  0  0  0
  9  7  1  0  0  0  0
  9  6  2  0  0  0  0
 10 11  1  0  0  0  0
 11 31  1  6  0  0  0
 11 13  1  0  0  0  0
 12 14  1  0  0  0  0
 14  1  2  0  0  0  0
 14 13  1  0  0  0  0
 16 15  1  0  0  0  0
 16 22  1  0  0  0  0
 17 27  2  0  0  0  0
 19 25  1  0  0  0  0
 20 19  2  0  0  0  0
 20 21  1  0  0  0  0
 21 24  2  0  0  0  0
 22 26  1  0  0  0  0
 24 23  1  0  0  0  0
 24 18  1  0  0  0  0
 25 23  2  0  0  0  0
 26 18  1  0  0  0  0
 27 21  1  0  0  0  0
 27 22  1  0  0  0  0
 28 29  2  0  0  0  0
 29 19  1  0  0  0  0
 29 30  1  0  0  0  0
 31 32  1  0  0  0  0
 33 34  1  0  0  0  0
 33 32  1  0  0  0  0
M  END
>  <MODEL>
6

>  <REMARK>
 VINA RESULT:      -8.0      3.353      5.400
  Name = 
  7 active torsions:
  status: ('A' for Active; 'I' for Inactive)
    1  A    between atoms: C_3  and  C_24
    2  A    between atoms: C_7  and  C_15
    3  A    between atoms: C_8  and  C_17
    4  A    between atoms: C_8  and  N_18
    5  A    between atoms: C_10  and  C_17
    6  A    between atoms: C_24  and  C_25
    7  A    between atoms: C_25  and  C_27
                            x       y       z     vdW  Elec       q    Type
                         _______ _______ _______ _____ _____    ______ ____

>  <TORSDO>
F 7

$$$$
=
 OpenBabel11052420183D

 34 38  0  0  1  0  0  0  0  0999 V2000
  193.6960  174.5260  145.2060 C   0  0  0  0  0  0  0  0  0  0  0  0
  195.6010  171.1990  145.2730 C   0  0  0  0  0  2  0  0  0  0  0  0
  193.2270  171.7790  144.7920 C   0  0  0  0  0  3  0  0  0  0  0  0
  193.9170  175.8880  145.3820 O   0  0  0  0  0  1  0  0  0  0  0  0
  191.1940  174.8520  144.6180 C   0  0  2  0  0  3  0  0  0  0  0  0
  190.2120  173.8290  144.0300 C   0  0  0  0  0  3  0  0  0  0  0  0
  192.2090  172.7160  144.6350 C   0  0  0  0  0  0  0  0  0  0  0  0
  192.4270  174.0530  144.8500 C   0  0  0  0  0  0  0  0  0  0  0  0
  190.8260  172.4340  144.2040 C   0  0  0  0  0  3  0  0  0  0  0  0
  196.8010  171.7050  146.0710 C   0  0  0  0  0  2  0  0  0  0  0  0
  197.2270  173.0990  145.6090 C   0  0  2  0  0  3  0  0  0  0  0  0
  194.5000  172.2150  145.1840 C   0  0  0  0  0  0  0  0  0  0  0  0
  196.0930  174.0980  145.8380 C   0  0  0  0  0  2  0  0  0  0  0  0
  194.7470  173.6030  145.3710 C   0  0  0  0  0  0  0  0  0  0  0  0
  190.6230  175.3600  145.9370 C   0  0  0  0  0  2  0  0  0  0  0  0
  190.6040  176.8820  145.9870 C   0  0  0  0  0  2  0  0  0  0  0  0
  189.3260  177.2950  143.4560 O   0  0  0  0  0  0  0  0  0  0  0  0
  187.0640  177.2290  146.9120 C   0  0  0  0  0  2  0  0  0  0  0  0
  185.1510  178.0250  143.1280 C   0  0  0  0  0  0  0  0  0  0  0  0
  186.5410  177.8450  143.1900 C   0  0  0  0  0  3  0  0  0  0  0  0
  187.1750  177.6120  144.4170 C   0  0  0  0  0  0  0  0  0  0  0  0
  189.2510  177.3900  145.8000 N   0  0  0  0  0  0  0  0  0  0  0  0
  185.0260  177.7250  145.5390 C   0  0  0  0  0  3  0  0  0  0  0  0
  186.4120  177.5600  145.5980 C   0  0  0  0  0  0  0  0  0  0  0  0
  184.4000  177.9630  144.3130 C   0  0  0  0  0  3  0  0  0  0  0  0
  188.4820  177.7960  146.9740 C   0  0  0  0  0  2  0  0  0  0  0  0
  188.6330  177.4310  144.5020 C   0  0  0  0  0  0  0  0  0  0  0  0
  183.2510  178.4770  141.7800 O   0  0  0  0  0  0  0  0  0  0  0  0
  184.4930  178.2740  141.8310 C   0  0  0  0  0  0  0  0  0  0  0  0
  185.2760  178.2910  140.5620 C   0  0  0  0  0  1  0  0  0  0  0  0
  197.6810  173.1240  144.1500 C   0  0  0  0  0  2  0  0  0  0  0  0
  197.9410  174.5470  143.6720 C   0  0  0  0  0  2  0  0  0  0  0  0
  197.3840  174.7810  142.2770 C   0  0  0  0  0  2  0  0  0  0  0  0
  196.1780  173.8930  142.0310 C   0  0  0  0  0  1  0  0  0  0  0  0
  1 14  1  0  0  0  0
  1  4  1  0  0  0  0
  2 10  1  0  0  0  0
  3 12  1  0  0  0  0
  5  8  1  0  0  0  0
  5 15  1  1  0  0  0
  6  9  2  0  0  0  0
  6  5  1  0  0  0  0
  7  3  2  0  0  0  0
  7  8  1  0  0  0  0
  8  1  2  0  0  0  0
  9  7  1  0  0  0  0
 11 31  1  6  0  0  0
 11 13  1  0  0  0  0
 11 10  1  0  0  0  0
 12  2  1  0  0  0  0
 12 14  2  0  0  0  0
 14 13  1  0  0  0  0
 15 16  1  0  0  0  0
 17 27  2  0  0  0  0
 18 26  1  0  0  0  0
 19 20  2  0  0  0  0
 19 25  1  0  0  0  0
 20 21  1  0  0  0  0
 21 27  1  0  0  0  0
 21 24  2  0  0  0  0
 22 16  1  0  0  0  0
 22 26  1  0  0  0  0
 23 24  1  0  0  0  0
 24 18  1  0  0  0  0
 25 23  2  0  0  0  0
 27 22  1  0  0  0  0
 28 29  2  0  0  0  0
 29 19  1  0  0  0  0
 30 29  1  0  0  0  0
 32 31  1  0  0  0  0
 33 32  1  0  0  0  0
 34 33  1  0  0  0  0
M  END
>  <MODEL>
7

>  <REMARK>
 VINA RESULT:      -7.9      1.671      3.228
  Name = 
  7 active torsions:
  status: ('A' for Active; 'I' for Inactive)
    1  A    between atoms: C_3  and  C_24
    2  A    between atoms: C_7  and  C_15
    3  A    between atoms: C_8  and  C_17
    4  A    between atoms: C_8  and  N_18
    5  A    between atoms: C_10  and  C_17
    6  A    between atoms: C_24  and  C_25
    7  A    between atoms: C_25  and  C_27
                            x       y       z     vdW  Elec       q    Type
                         _______ _______ _______ _____ _____    ______ ____

>  <TORSDO>
F 7

$$$$
=
 OpenBabel11052420183D

 34 38  0  0  1  0  0  0  0  0999 V2000
  193.7640  172.1410  144.6980 C   0  0  0  0  0  0  0  0  0  0  0  0
  197.3490  171.2060  143.7090 C   0  0  0  0  0  2  0  0  0  0  0  0
  196.3630  173.2270  144.7780 C   0  0  0  0  0  3  0  0  0  0  0  0
  192.4790  171.6090  144.6880 O   0  0  0  0  0  1  0  0  0  0  0  0
  193.0130  174.3320  145.8600 C   0  0  2  0  0  3  0  0  0  0  0  0
  193.8880  175.4280  146.4850 C   0  0  0  0  0  3  0  0  0  0  0  0
  195.2730  173.9240  145.2950 C   0  0  0  0  0  0  0  0  0  0  0  0
  194.0040  173.4080  145.2450 C   0  0  0  0  0  0  0  0  0  0  0  0
  195.3210  175.2360  145.9690 C   0  0  0  0  0  3  0  0  0  0  0  0
  196.9740  170.0720  142.7560 C   0  0  0  0  0  2  0  0  0  0  0  0
  195.8320  169.2270  143.3220 C   0  0  2  0  0  3  0  0  0  0  0  0
  196.1520  171.9730  144.1900 C   0  0  0  0  0  0  0  0  0  0  0  0
  194.5800  170.0850  143.5000 C   0  0  0  0  0  2  0  0  0  0  0  0
  194.8460  171.4110  144.1680 C   0  0  0  0  0  0  0  0  0  0  0  0
  192.1350  174.9720  144.7910 C   0  0  0  0  0  2  0  0  0  0  0  0
  191.9620  176.4650  145.0310 C   0  0  0  0  0  2  0  0  0  0  0  0
  189.8240  178.0060  143.9080 O   0  0  0  0  0  0  0  0  0  0  0  0
  189.1160  175.5970  147.1880 C   0  0  0  0  0  2  0  0  0  0  0  0
  185.9300  178.0430  145.6140 C   0  0  0  0  0  0  0  0  0  0  0  0
  187.2130  178.1080  145.0490 C   0  0  0  0  0  3  0  0  0  0  0  0
  188.2600  177.3370  145.5690 C   0  0  0  0  0  0  0  0  0  0  0  0
  190.6900  176.7420  145.6850 N   0  0  0  0  0  0  0  0  0  0  0  0
  186.7470  176.4140  147.2260 C   0  0  0  0  0  3  0  0  0  0  0  0
  188.0260  176.4920  146.6690 C   0  0  0  0  0  0  0  0  0  0  0  0
  185.7070  177.1890  146.7060 C   0  0  0  0  0  3  0  0  0  0  0  0
  190.4820  176.2680  147.0520 C   0  0  0  0  0  2  0  0  0  0  0  0
  189.6140  177.4010  144.9950 C   0  0  0  0  0  0  0  0  0  0  0  0
  183.6860  178.8140  145.5780 O   0  0  0  0  0  0  0  0  0  0  0  0
  184.8340  178.8620  145.0620 C   0  0  0  0  0  0  0  0  0  0  0  0
  185.0580  179.7560  143.8890 C   0  0  0  0  0  1  0  0  0  0  0  0
  196.2040  168.5350  144.6320 C   0  0  0  0  0  2  0  0  0  0  0  0
  194.9730  168.2640  145.4890 C   0  0  0  0  0  2  0  0  0  0  0  0
  195.1100  168.8720  146.8750 C   0  0  0  0  0  2  0  0  0  0  0  0
  196.4570  169.5530  147.0260 C   0  0  0  0  0  1  0  0  0  0  0  0
  1  8  1  0  0  0  0
  2 12  1  0  0  0  0
  3  7  1  0  0  0  0
  4  1  1  0  0  0  0
  5 15  1  6  0  0  0
  5  6  1  0  0  0  0
  7  9  1  0  0  0  0
  8  7  2  0  0  0  0
  8  5  1  0  0  0  0
  9  6  2  0  0  0  0
 10 11  1  0  0  0  0
 10  2  1  0  0  0  0
 11 13  1  0  0  0  0
 11 31  1  1  0  0  0
 12  3  2  0  0  0  0
 13 14  1  0  0  0  0
 14 12  1  0  0  0  0
 14  1  2  0  0  0  0
 15 16  1  0  0  0  0
 16 22  1  0  0  0  0
 17 27  2  0  0  0  0
 19 25  1  0  0  0  0
 20 21  1  0  0  0  0
 20 19  2  0  0  0  0
 21 24  2  0  0  0  0
 22 26  1  0  0  0  0
 24 18  1  0  0  0  0
 24 23  1  0  0  0  0
 25 23  2  0  0  0  0
 26 18  1  0  0  0  0
 27 21  1  0  0  0  0
 27 22  1  0  0  0  0
 29 28  2  0  0  0  0
 29 19  1  0  0  0  0
 30 29  1  0  0  0  0
 31 32  1  0  0  0  0
 32 33  1  0  0  0  0
 33 34  1  0  0  0  0
M  END
>  <MODEL>
8

>  <REMARK>
 VINA RESULT:      -7.9      1.792      2.520
  Name = 
  7 active torsions:
  status: ('A' for Active; 'I' for Inactive)
    1  A    between atoms: C_3  and  C_24
    2  A    between atoms: C_7  and  C_15
    3  A    between atoms: C_8  and  C_17
    4  A    between atoms: C_8  and  N_18
    5  A    between atoms: C_10  and  C_17
    6  A    between atoms: C_24  and  C_25
    7  A    between atoms: C_25  and  C_27
                            x       y       z     vdW  Elec       q    Type
                         _______ _______ _______ _____ _____    ______ ____

>  <TORSDO>
F 7

$$$$
=
 OpenBabel11052420183D

 34 38  0  0  1  0  0  0  0  0999 V2000
  189.9090  177.3940  144.2800 C   0  0  0  0  0  0  0  0  0  0  0  0
  187.2810  175.4170  142.3080 C   0  0  0  0  0  2  0  0  0  0  0  0
  188.6650  174.8650  144.3030 C   0  0  0  0  0  3  0  0  0  0  0  0
  190.5140  178.6460  144.2970 O   0  0  0  0  0  1  0  0  0  0  0  0
  191.1850  176.5790  146.3830 C   0  0  2  0  0  3  0  0  0  0  0  0
  190.9260  175.3240  147.2280 C   0  0  0  0  0  3  0  0  0  0  0  0
  189.6070  175.2160  145.2680 C   0  0  0  0  0  0  0  0  0  0  0  0
  190.2270  176.4380  145.2540 C   0  0  0  0  0  0  0  0  0  0  0  0
  190.0300  174.3840  146.4110 C   0  0  0  0  0  3  0  0  0  0  0  0
  187.3080  176.2950  141.0580 C   0  0  0  0  0  2  0  0  0  0  0  0
  187.3880  177.7780  141.4230 C   0  0  2  0  0  3  0  0  0  0  0  0
  188.3530  175.7850  143.2920 C   0  0  0  0  0  0  0  0  0  0  0  0
  188.6790  178.0620  142.1900 C   0  0  0  0  0  2  0  0  0  0  0  0
  188.9600  177.0700  143.2900 C   0  0  0  0  0  0  0  0  0  0  0  0
  192.6230  176.5290  145.8800 C   0  0  0  0  0  2  0  0  0  0  0  0
  193.1130  175.0950  145.7320 C   0  0  0  0  0  2  0  0  0  0  0  0
  192.4140  172.4180  144.9900 O   0  0  0  0  0  0  0  0  0  0  0  0
  192.0400  175.4740  142.2370 C   0  0  0  0  0  2  0  0  0  0  0  0
  191.1490  171.4220  141.0560 C   0  0  0  0  0  0  0  0  0  0  0  0
  191.6160  171.6910  142.3510 C   0  0  0  0  0  3  0  0  0  0  0  0
  191.9320  173.0000  142.7360 C   0  0  0  0  0  0  0  0  0  0  0  0
  192.9260  174.6210  144.3660 N   0  0  0  0  0  0  0  0  0  0  0  0
  191.3060  173.7910  140.5300 C   0  0  0  0  0  3  0  0  0  0  0  0
  191.7840  174.0540  141.8160 C   0  0  0  0  0  0  0  0  0  0  0  0
  190.9970  172.4840  140.1500 C   0  0  0  0  0  3  0  0  0  0  0  0
  193.1740  175.5420  143.2600 C   0  0  0  0  0  2  0  0  0  0  0  0
  192.4340  173.2990  144.0880 C   0  0  0  0  0  0  0  0  0  0  0  0
  190.8240  169.1160  141.5170 O   0  0  0  0  0  0  0  0  0  0  0  0
  190.8220  170.0390  140.6580 C   0  0  0  0  0  0  0  0  0  0  0  0
  190.4840  169.7040  139.2450 C   0  0  0  0  0  1  0  0  0  0  0  0
  186.1730  178.2560  142.2170 C   0  0  0  0  0  2  0  0  0  0  0  0
  186.5300  179.4150  143.1390 C   0  0  0  0  0  2  0  0  0  0  0  0
  185.7480  179.3570  144.4410 C   0  0  0  0  0  2  0  0  0  0  0  0
  185.9510  178.0180  145.1240 C   0  0  0  0  0  1  0  0  0  0  0  0
  1  4  1  0  0  0  0
  1  8  1  0  0  0  0
  2 12  1  0  0  0  0
  3  7  1  0  0  0  0
  5 15  1  6  0  0  0
  5  6  1  0  0  0  0
  7  9  1  0  0  0  0
  8  7  2  0  0  0  0
  8  5  1  0  0  0  0
  9  6  2  0  0  0  0
 10 11  1  0  0  0  0
 10  2  1  0  0  0  0
 11 13  1  0  0  0  0
 11 31  1  1  0  0  0
 12  3  2  0  0  0  0
 13 14  1  0  0  0  0
 14 12  1  0  0  0  0
 14  1  2  0  0  0  0
 16 15  1  0  0  0  0
 18 26  1  0  0  0  0
 19 20  1  0  0  0  0
 20 21  2  0  0  0  0
 21 27  1  0  0  0  0
 22 16  1  0  0  0  0
 23 24  2  0  0  0  0
 24 18  1  0  0  0  0
 24 21  1  0  0  0  0
 25 23  1  0  0  0  0
 25 19  2  0  0  0  0
 26 22  1  0  0  0  0
 27 22  1  0  0  0  0
 27 17  2  0  0  0  0
 29 19  1  0  0  0  0
 29 28  2  0  0  0  0
 30 29  1  0  0  0  0
 31 32  1  0  0  0  0
 32 33  1  0  0  0  0
 33 34  1  0  0  0  0
M  END
>  <MODEL>
9

>  <REMARK>
 VINA RESULT:      -7.7      3.506      8.717
  Name = 
  7 active torsions:
  status: ('A' for Active; 'I' for Inactive)
    1  A    between atoms: C_3  and  C_24
    2  A    between atoms: C_7  and  C_15
    3  A    between atoms: C_8  and  C_17
    4  A    between atoms: C_8  and  N_18
    5  A    between atoms: C_10  and  C_17
    6  A    between atoms: C_24  and  C_25
    7  A    between atoms: C_25  and  C_27
                            x       y       z     vdW  Elec       q    Type
                         _______ _______ _______ _____ _____    ______ ____

>  <TORSDO>
F 7

$$$$
