=
 OpenBabel11052418303D

 27 31  0  0  0  0  0  0  0  0999 V2000
  188.8320  176.6230  146.0560 C   0  0  0  0  0  3  0  0  0  0  0  0
  188.2410  176.4580  143.6270 C   0  0  0  0  0  0  0  0  0  0  0  0
  190.7540  176.1020  143.8140 C   0  0  0  0  0  3  0  0  0  0  0  0
  188.4490  174.3960  139.9150 C   0  0  0  0  0  3  0  0  0  0  0  0
  189.5570  172.8530  138.4290 O   0  0  0  0  0  1  0  0  0  0  0  0
  187.1870  176.5910  142.5890 C   0  0  0  0  0  3  0  0  0  0  0  0
  190.6000  173.4660  140.5160 C   0  0  0  0  0  3  0  0  0  0  0  0
  194.1320  176.5590  146.8120 O   0  0  0  0  0  0  0  0  0  0  0  0
  190.5790  174.1890  141.7110 C   0  0  0  0  0  3  0  0  0  0  0  0
  192.8900  176.5040  146.6210 C   0  0  0  0  0  0  0  0  0  0  0  0
  189.4930  175.0280  142.0230 C   0  0  0  0  0  0  0  0  0  0  0  0
  187.9580  176.8410  144.8920 C   0  0  0  0  0  0  0  0  0  0  0  0
  189.5360  173.5710  139.6170 C   0  0  0  0  0  0  0  0  0  0  0  0
  188.4240  175.1170  141.1120 C   0  0  0  0  0  0  0  0  0  0  0  0
  190.1460  176.4370  146.1540 C   0  0  0  0  0  0  0  0  0  0  0  0
  189.4700  175.7940  143.2510 N   0  0  0  0  0  0  0  0  0  0  0  0
  192.4000  176.4320  145.3560 N   0  0  0  0  0  2  0  0  0  0  0  0
  187.2760  175.9730  141.4160 C   0  0  0  0  0  3  0  0  0  0  0  0
  192.0190  176.4930  147.7020 C   0  0  0  0  0  3  0  0  0  0  0  0
  190.6480  176.4660  147.4590 C   0  0  0  0  0  3  0  0  0  0  0  0
  191.0660  176.3660  145.0810 C   0  0  0  0  0  0  0  0  0  0  0  0
  184.2290  178.6860  145.9490 C   0  0  0  0  0  3  0  0  0  0  0  0
  186.6570  177.4730  145.2350 C   0  0  0  0  0  0  0  0  0  0  0  0
  186.3270  178.7470  144.7450 C   0  0  0  0  0  3  0  0  0  0  0  0
  185.1160  179.3480  145.0960 C   0  0  0  0  0  3  0  0  0  0  0  0
  184.5540  177.4240  146.4530 C   0  0  0  0  0  3  0  0  0  0  0  0
  185.7650  176.8220  146.1010 C   0  0  0  0  0  3  0  0  0  0  0  0
  1 15  2  0  0  0  0
  2 12  2  0  0  0  0
  3 21  2  0  0  0  0
  4 14  1  0  0  0  0
  5 13  1  0  0  0  0
  6  2  1  0  0  0  0
  7  9  2  0  0  0  0
  9 11  1  0  0  0  0
 10  8  2  0  0  0  0
 10 19  1  0  0  0  0
 11 16  1  0  0  0  0
 12 23  1  0  0  0  0
 12  1  1  0  0  0  0
 13  4  2  0  0  0  0
 13  7  1  0  0  0  0
 14 18  1  0  0  0  0
 14 11  2  0  0  0  0
 15 20  1  0  0  0  0
 16  2  1  0  0  0  0
 16  3  1  0  0  0  0
 17 10  1  0  0  0  0
 18  6  2  0  0  0  0
 20 19  2  0  0  0  0
 21 17  1  0  0  0  0
 21 15  1  0  0  0  0
 22 26  1  0  0  0  0
 23 27  1  0  0  0  0
 24 25  1  0  0  0  0
 24 23  2  0  0  0  0
 25 22  2  0  0  0  0
 27 26  2  0  0  0  0
M  END
>  <MODEL>
1

>  <REMARK>
 VINA RESULT:      -9.1      0.000      0.000
  Name = 
  1 active torsions:
  status: ('A' for Active; 'I' for Inactive)
    1  A    between atoms: C_9  and  C_15
                            x       y       z     vdW  Elec       q    Type
                         _______ _______ _______ _____ _____    ______ ____

>  <TORSDO>
F 1

$$$$
=
 OpenBabel11052418303D

 27 31  0  0  0  0  0  0  0  0999 V2000
  187.4470  176.7580  142.6620 C   0  0  0  0  0  3  0  0  0  0  0  0
  188.7850  176.3580  144.7420 C   0  0  0  0  0  0  0  0  0  0  0  0
  189.7930  174.9080  142.9080 C   0  0  0  0  0  3  0  0  0  0  0  0
  192.5430  176.0910  146.7110 C   0  0  0  0  0  3  0  0  0  0  0  0
  194.9250  175.7170  146.6480 O   0  0  0  0  0  1  0  0  0  0  0  0
  188.9350  176.6160  146.1970 C   0  0  0  0  0  3  0  0  0  0  0  0
  193.6090  175.4020  144.6520 C   0  0  0  0  0  3  0  0  0  0  0  0
  188.8530  173.4130  138.7260 O   0  0  0  0  0  0  0  0  0  0  0  0
  192.3710  175.4190  144.0040 C   0  0  0  0  0  3  0  0  0  0  0  0
  188.5830  174.2350  139.6400 C   0  0  0  0  0  0  0  0  0  0  0  0
  191.2020  175.7710  144.7030 C   0  0  0  0  0  0  0  0  0  0  0  0
  187.6670  176.7930  144.1170 C   0  0  0  0  0  0  0  0  0  0  0  0
  193.6950  175.7360  146.0050 C   0  0  0  0  0  0  0  0  0  0  0  0
  191.3040  176.1130  146.0650 C   0  0  0  0  0  0  0  0  0  0  0  0
  187.9730  176.0000  141.7040 C   0  0  0  0  0  0  0  0  0  0  0  0
  189.9110  175.7750  144.0460 N   0  0  0  0  0  0  0  0  0  0  0  0
  189.2080  174.1440  140.8420 N   0  0  0  0  0  2  0  0  0  0  0  0
  190.1060  176.4950  146.8130 C   0  0  0  0  0  3  0  0  0  0  0  0
  187.6630  175.2510  139.4120 C   0  0  0  0  0  3  0  0  0  0  0  0
  187.3590  176.1250  140.4530 C   0  0  0  0  0  3  0  0  0  0  0  0
  188.9640  175.0050  141.8710 C   0  0  0  0  0  0  0  0  0  0  0  0
  184.4240  178.6360  146.2400 C   0  0  0  0  0  3  0  0  0  0  0  0
  186.5600  177.4320  144.8730 C   0  0  0  0  0  0  0  0  0  0  0  0
  185.7660  176.6810  145.7550 C   0  0  0  0  0  3  0  0  0  0  0  0
  184.7060  177.2820  146.4390 C   0  0  0  0  0  3  0  0  0  0  0  0
  185.1990  179.3880  145.3550 C   0  0  0  0  0  3  0  0  0  0  0  0
  186.2600  178.7880  144.6710 C   0  0  0  0  0  3  0  0  0  0  0  0
  1 12  1  0  0  0  0
  2  6  1  0  0  0  0
  3 16  1  0  0  0  0
  6 18  2  0  0  0  0
  7 13  1  0  0  0  0
  8 10  2  0  0  0  0
  9  7  2  0  0  0  0
  9 11  1  0  0  0  0
 10 17  1  0  0  0  0
 11 14  2  0  0  0  0
 12  2  2  0  0  0  0
 12 23  1  0  0  0  0
 13  5  1  0  0  0  0
 13  4  2  0  0  0  0
 14  4  1  0  0  0  0
 14 18  1  0  0  0  0
 15 21  1  0  0  0  0
 15  1  2  0  0  0  0
 16 11  1  0  0  0  0
 16  2  1  0  0  0  0
 17 21  1  0  0  0  0
 19 10  1  0  0  0  0
 19 20  2  0  0  0  0
 20 15  1  0  0  0  0
 21  3  2  0  0  0  0
 22 25  1  0  0  0  0
 23 24  1  0  0  0  0
 24 25  2  0  0  0  0
 26 22  2  0  0  0  0
 27 23  2  0  0  0  0
 27 26  1  0  0  0  0
M  END
>  <MODEL>
2

>  <REMARK>
 VINA RESULT:      -8.4      1.073      5.499
  Name = 
  1 active torsions:
  status: ('A' for Active; 'I' for Inactive)
    1  A    between atoms: C_9  and  C_15
                            x       y       z     vdW  Elec       q    Type
                         _______ _______ _______ _____ _____    ______ ____

>  <TORSDO>
F 1

$$$$
=
 OpenBabel11052418303D

 27 31  0  0  0  0  0  0  0  0999 V2000
  187.9960  177.5000  144.6250 C   0  0  0  0  0  3  0  0  0  0  0  0
  188.7500  175.4900  143.3350 C   0  0  0  0  0  0  0  0  0  0  0  0
  186.5270  176.2310  142.3400 C   0  0  0  0  0  3  0  0  0  0  0  0
  189.5190  173.5710  139.6200 C   0  0  0  0  0  3  0  0  0  0  0  0
  189.1310  173.3510  137.2490 O   0  0  0  0  0  1  0  0  0  0  0  0
  189.7450  174.3950  143.2020 C   0  0  0  0  0  3  0  0  0  0  0  0
  187.8160  174.9080  138.5400 C   0  0  0  0  0  3  0  0  0  0  0  0
  183.0390  178.9890  143.2530 O   0  0  0  0  0  0  0  0  0  0  0  0
  187.5040  175.5010  139.7660 C   0  0  0  0  0  3  0  0  0  0  0  0
  184.2270  178.6670  143.5140 C   0  0  0  0  0  0  0  0  0  0  0  0
  188.1950  175.1350  140.9360 C   0  0  0  0  0  0  0  0  0  0  0  0
  188.8010  176.2840  144.4280 C   0  0  0  0  0  0  0  0  0  0  0  0
  188.8220  173.9420  138.4670 C   0  0  0  0  0  0  0  0  0  0  0  0
  189.2110  174.1660  140.8470 C   0  0  0  0  0  0  0  0  0  0  0  0
  186.8330  177.8870  144.1060 C   0  0  0  0  0  0  0  0  0  0  0  0
  187.8670  175.7310  142.2150 N   0  0  0  0  0  0  0  0  0  0  0  0
  184.7840  177.5840  142.9130 N   0  0  0  0  0  2  0  0  0  0  0  0
  189.9540  173.7750  142.0450 C   0  0  0  0  0  3  0  0  0  0  0  0
  184.9780  179.4300  144.3980 C   0  0  0  0  0  3  0  0  0  0  0  0
  186.2790  179.0290  144.6940 C   0  0  0  0  0  3  0  0  0  0  0  0
  186.0670  177.1840  143.1480 C   0  0  0  0  0  0  0  0  0  0  0  0
  191.5660  175.5930  147.6370 C   0  0  0  0  0  3  0  0  0  0  0  0
  189.7630  176.0220  145.5280 C   0  0  0  0  0  0  0  0  0  0  0  0
  189.4060  175.2080  146.6160 C   0  0  0  0  0  3  0  0  0  0  0  0
  190.3050  174.9910  147.6620 C   0  0  0  0  0  3  0  0  0  0  0  0
  191.9260  176.4160  146.5670 C   0  0  0  0  0  3  0  0  0  0  0  0
  191.0270  176.6330  145.5190 C   0  0  0  0  0  3  0  0  0  0  0  0
  2 12  2  0  0  0  0
  3 21  2  0  0  0  0
  4 14  1  0  0  0  0
  5 13  1  0  0  0  0
  6  2  1  0  0  0  0
  7  9  2  0  0  0  0
  8 10  2  0  0  0  0
  9 11  1  0  0  0  0
 10 19  1  0  0  0  0
 11 16  1  0  0  0  0
 12  1  1  0  0  0  0
 12 23  1  0  0  0  0
 13  7  1  0  0  0  0
 13  4  2  0  0  0  0
 14 11  2  0  0  0  0
 14 18  1  0  0  0  0
 15  1  2  0  0  0  0
 15 20  1  0  0  0  0
 16  3  1  0  0  0  0
 16  2  1  0  0  0  0
 17 21  1  0  0  0  0
 17 10  1  0  0  0  0
 18  6  2  0  0  0  0
 19 20  2  0  0  0  0
 21 15  1  0  0  0  0
 22 25  1  0  0  0  0
 23 24  1  0  0  0  0
 24 25  2  0  0  0  0
 26 22  2  0  0  0  0
 27 23  2  0  0  0  0
 27 26  1  0  0  0  0
M  END
>  <MODEL>
3

>  <REMARK>
 VINA RESULT:      -8.4      2.738      5.367
  Name = 
  1 active torsions:
  status: ('A' for Active; 'I' for Inactive)
    1  A    between atoms: C_9  and  C_15
                            x       y       z     vdW  Elec       q    Type
                         _______ _______ _______ _____ _____    ______ ____

>  <TORSDO>
F 1

$$$$
=
 OpenBabel11052418303D

 27 31  0  0  0  0  0  0  0  0999 V2000
  188.0560  177.4210  144.5610 C   0  0  0  0  0  3  0  0  0  0  0  0
  188.8990  175.3390  143.4520 C   0  0  0  0  0  0  0  0  0  0  0  0
  186.7220  175.9760  142.2980 C   0  0  0  0  0  3  0  0  0  0  0  0
  189.8820  173.1840  139.9220 C   0  0  0  0  0  3  0  0  0  0  0  0
  189.6190  172.7970  137.5560 O   0  0  0  0  0  1  0  0  0  0  0  0
  189.9130  174.2530  143.4460 C   0  0  0  0  0  3  0  0  0  0  0  0
  188.2210  174.4170  138.6680 C   0  0  0  0  0  3  0  0  0  0  0  0
  183.1590  178.7370  142.8410 O   0  0  0  0  0  0  0  0  0  0  0  0
  187.8390  175.0880  139.8330 C   0  0  0  0  0  3  0  0  0  0  0  0
  184.3360  178.4510  143.1830 C   0  0  0  0  0  0  0  0  0  0  0  0
  188.4730  174.8130  141.0590 C   0  0  0  0  0  0  0  0  0  0  0  0
  188.8840  176.2070  144.4900 C   0  0  0  0  0  0  0  0  0  0  0  0
  189.2410  173.4640  138.7130 C   0  0  0  0  0  0  0  0  0  0  0  0
  189.5040  173.8560  141.0880 C   0  0  0  0  0  0  0  0  0  0  0  0
  186.9170  177.7540  143.9580 C   0  0  0  0  0  0  0  0  0  0  0  0
  188.0720  175.4900  142.2750 N   0  0  0  0  0  0  0  0  0  0  0  0
  184.9360  177.3390  142.6870 N   0  0  0  0  0  2  0  0  0  0  0  0
  190.1890  173.5590  142.3470 C   0  0  0  0  0  3  0  0  0  0  0  0
  185.0310  179.2850  144.0490 C   0  0  0  0  0  3  0  0  0  0  0  0
  186.3190  178.9250  144.4370 C   0  0  0  0  0  3  0  0  0  0  0  0
  186.2100  176.9750  143.0130 C   0  0  0  0  0  0  0  0  0  0  0  0
  191.5260  175.6460  147.8250 C   0  0  0  0  0  3  0  0  0  0  0  0
  189.7920  176.0360  145.6530 C   0  0  0  0  0  0  0  0  0  0  0  0
  191.0640  176.6310  145.6630 C   0  0  0  0  0  3  0  0  0  0  0  0
  191.9250  176.4410  146.7470 C   0  0  0  0  0  3  0  0  0  0  0  0
  190.2690  175.0390  147.8180 C   0  0  0  0  0  3  0  0  0  0  0  0
  189.4060  175.2290  146.7340 C   0  0  0  0  0  3  0  0  0  0  0  0
  2 12  2  0  0  0  0
  3 21  2  0  0  0  0
  4 14  1  0  0  0  0
  5 13  1  0  0  0  0
  6  2  1  0  0  0  0
  7 13  1  0  0  0  0
  7  9  2  0  0  0  0
  8 10  2  0  0  0  0
  9 11  1  0  0  0  0
 10 19  1  0  0  0  0
 11 14  2  0  0  0  0
 11 16  1  0  0  0  0
 12  1  1  0  0  0  0
 12 23  1  0  0  0  0
 13  4  2  0  0  0  0
 14 18  1  0  0  0  0
 15 20  1  0  0  0  0
 15  1  2  0  0  0  0
 16  3  1  0  0  0  0
 16  2  1  0  0  0  0
 17 21  1  0  0  0  0
 17 10  1  0  0  0  0
 18  6  2  0  0  0  0
 19 20  2  0  0  0  0
 21 15  1  0  0  0  0
 23 24  2  0  0  0  0
 23 27  1  0  0  0  0
 24 25  1  0  0  0  0
 25 22  2  0  0  0  0
 26 22  1  0  0  0  0
 27 26  2  0  0  0  0
M  END
>  <MODEL>
4

>  <REMARK>
 VINA RESULT:      -8.4      2.689      5.274
  Name = 
  1 active torsions:
  status: ('A' for Active; 'I' for Inactive)
    1  A    between atoms: C_9  and  C_15
                            x       y       z     vdW  Elec       q    Type
                         _______ _______ _______ _____ _____    ______ ____

>  <TORSDO>
F 1

$$$$
=
 OpenBabel11052418303D

 27 31  0  0  0  0  0  0  0  0999 V2000
  190.7990  174.6070  143.2120 C   0  0  0  0  0  3  0  0  0  0  0  0
  189.9810  176.3390  144.8260 C   0  0  0  0  0  0  0  0  0  0  0  0
  188.2960  176.2310  142.9210 C   0  0  0  0  0  3  0  0  0  0  0  0
  186.8590  177.9830  147.1980 C   0  0  0  0  0  3  0  0  0  0  0  0
  184.5110  178.3040  147.6500 O   0  0  0  0  0  1  0  0  0  0  0  0
  190.2530  177.1230  146.0580 C   0  0  0  0  0  3  0  0  0  0  0  0
  185.2000  177.1610  145.6410 C   0  0  0  0  0  3  0  0  0  0  0  0
  187.8590  174.5220  138.7380 O   0  0  0  0  0  0  0  0  0  0  0  0
  186.2160  176.6730  144.8150 C   0  0  0  0  0  3  0  0  0  0  0  0
  188.4960  174.5090  139.8230 C   0  0  0  0  0  0  0  0  0  0  0  0
  187.5680  176.8360  145.1700 C   0  0  0  0  0  0  0  0  0  0  0  0
  190.9640  175.5600  144.3220 C   0  0  0  0  0  0  0  0  0  0  0  0
  185.5210  177.8170  146.8310 C   0  0  0  0  0  0  0  0  0  0  0  0
  187.8770  177.4920  146.3760 C   0  0  0  0  0  0  0  0  0  0  0  0
  189.9190  174.5510  142.2160 C   0  0  0  0  0  0  0  0  0  0  0  0
  188.6280  176.3490  144.3120 N   0  0  0  0  0  0  0  0  0  0  0  0
  188.1900  175.4010  140.8000 N   0  0  0  0  0  2  0  0  0  0  0  0
  189.2740  177.6650  146.7740 C   0  0  0  0  0  3  0  0  0  0  0  0
  189.4970  173.5690  140.0330 C   0  0  0  0  0  3  0  0  0  0  0  0
  190.2080  173.6020  141.2290 C   0  0  0  0  0  3  0  0  0  0  0  0
  188.8380  175.4370  142.0000 C   0  0  0  0  0  0  0  0  0  0  0  0
  194.9170  175.4870  145.9920 C   0  0  0  0  0  3  0  0  0  0  0  0
  192.3240  175.5490  144.9200 C   0  0  0  0  0  0  0  0  0  0  0  0
  193.1860  176.6460  144.7610 C   0  0  0  0  0  3  0  0  0  0  0  0
  194.4740  176.6170  145.3000 C   0  0  0  0  0  3  0  0  0  0  0  0
  194.0720  174.3850  146.1430 C   0  0  0  0  0  3  0  0  0  0  0  0
  192.7820  174.4130  145.6050 C   0  0  0  0  0  3  0  0  0  0  0  0
  1 12  1  0  0  0  0
  2  6  1  0  0  0  0
  3 16  1  0  0  0  0
  6 18  2  0  0  0  0
  7 13  2  0  0  0  0
  8 10  2  0  0  0  0
  9 11  2  0  0  0  0
  9  7  1  0  0  0  0
 10 19  1  0  0  0  0
 10 17  1  0  0  0  0
 11 14  1  0  0  0  0
 12  2  2  0  0  0  0
 12 23  1  0  0  0  0
 13  4  1  0  0  0  0
 13  5  1  0  0  0  0
 14 18  1  0  0  0  0
 14  4  2  0  0  0  0
 15  1  2  0  0  0  0
 16  2  1  0  0  0  0
 16 11  1  0  0  0  0
 17 21  1  0  0  0  0
 19 20  2  0  0  0  0
 20 15  1  0  0  0  0
 21 15  1  0  0  0  0
 21  3  2  0  0  0  0
 22 26  1  0  0  0  0
 23 27  1  0  0  0  0
 24 23  2  0  0  0  0
 24 25  1  0  0  0  0
 25 22  2  0  0  0  0
 27 26  2  0  0  0  0
M  END
>  <MODEL>
5

>  <REMARK>
 VINA RESULT:      -8.2      2.433      7.155
  Name = 
  1 active torsions:
  status: ('A' for Active; 'I' for Inactive)
    1  A    between atoms: C_9  and  C_15
                            x       y       z     vdW  Elec       q    Type
                         _______ _______ _______ _____ _____    ______ ____

>  <TORSDO>
F 1

$$$$
=
 OpenBabel11052418303D

 27 31  0  0  0  0  0  0  0  0999 V2000
  190.3000  176.2740  145.6300 C   0  0  0  0  0  3  0  0  0  0  0  0
  189.1160  175.7220  143.4920 C   0  0  0  0  0  0  0  0  0  0  0  0
  191.6130  175.4990  143.0480 C   0  0  0  0  0  3  0  0  0  0  0  0
  188.5210  173.1360  140.1710 C   0  0  0  0  0  3  0  0  0  0  0  0
  189.3260  171.4330  138.6640 O   0  0  0  0  0  1  0  0  0  0  0  0
  187.8230  175.6550  142.7640 C   0  0  0  0  0  3  0  0  0  0  0  0
  190.8200  172.3930  140.2960 C   0  0  0  0  0  3  0  0  0  0  0  0
  195.6030  176.5370  144.9470 O   0  0  0  0  0  0  0  0  0  0  0  0
  191.0520  173.2870  141.3450 C   0  0  0  0  0  3  0  0  0  0  0  0
  194.3620  176.4040  145.1030 C   0  0  0  0  0  0  0  0  0  0  0  0
  190.0210  174.1180  141.8200 C   0  0  0  0  0  0  0  0  0  0  0  0
  189.1400  176.2800  144.7230 C   0  0  0  0  0  0  0  0  0  0  0  0
  189.5560  172.3190  139.7080 C   0  0  0  0  0  0  0  0  0  0  0  0
  188.7490  174.0270  141.2220 C   0  0  0  0  0  0  0  0  0  0  0  0
  191.6050  176.1580  145.3980 C   0  0  0  0  0  0  0  0  0  0  0  0
  190.2550  175.0590  142.8950 N   0  0  0  0  0  0  0  0  0  0  0  0
  193.5700  176.1240  144.0370 N   0  0  0  0  0  2  0  0  0  0  0  0
  187.6550  174.8720  141.7040 C   0  0  0  0  0  3  0  0  0  0  0  0
  193.8030  176.5210  146.3700 C   0  0  0  0  0  3  0  0  0  0  0  0
  192.4220  176.4030  146.5070 C   0  0  0  0  0  3  0  0  0  0  0  0
  192.2190  175.9630  144.1390 C   0  0  0  0  0  0  0  0  0  0  0  0
  185.5940  178.0430  146.3770 C   0  0  0  0  0  3  0  0  0  0  0  0
  187.9270  176.9020  145.3120 C   0  0  0  0  0  0  0  0  0  0  0  0
  187.3590  176.3920  146.4910 C   0  0  0  0  0  3  0  0  0  0  0  0
  186.2010  176.9630  147.0230 C   0  0  0  0  0  3  0  0  0  0  0  0
  186.1420  178.5490  145.1970 C   0  0  0  0  0  3  0  0  0  0  0  0
  187.3020  177.9790  144.6640 C   0  0  0  0  0  3  0  0  0  0  0  0
  2 12  2  0  0  0  0
  3 21  2  0  0  0  0
  4 14  1  0  0  0  0
  5 13  1  0  0  0  0
  6  2  1  0  0  0  0
  7  9  2  0  0  0  0
  8 10  2  0  0  0  0
  9 11  1  0  0  0  0
 10 19  1  0  0  0  0
 11 16  1  0  0  0  0
 12 23  1  0  0  0  0
 12  1  1  0  0  0  0
 13  4  2  0  0  0  0
 13  7  1  0  0  0  0
 14 18  1  0  0  0  0
 14 11  2  0  0  0  0
 15  1  2  0  0  0  0
 15 20  1  0  0  0  0
 16  3  1  0  0  0  0
 16  2  1  0  0  0  0
 17 21  1  0  0  0  0
 17 10  1  0  0  0  0
 18  6  2  0  0  0  0
 19 20  2  0  0  0  0
 21 15  1  0  0  0  0
 22 25  1  0  0  0  0
 23 24  1  0  0  0  0
 24 25  2  0  0  0  0
 26 22  2  0  0  0  0
 27 26  1  0  0  0  0
 27 23  2  0  0  0  0
M  END
>  <MODEL>
6

>  <REMARK>
 VINA RESULT:      -8.1      1.236      1.772
  Name = 
  1 active torsions:
  status: ('A' for Active; 'I' for Inactive)
    1  A    between atoms: C_9  and  C_15
                            x       y       z     vdW  Elec       q    Type
                         _______ _______ _______ _____ _____    ______ ____

>  <TORSDO>
F 1

$$$$
=
 OpenBabel11052418303D

 27 31  0  0  0  0  0  0  0  0999 V2000
  190.3960  174.0570  142.7610 C   0  0  0  0  0  3  0  0  0  0  0  0
  189.5480  176.1540  143.8390 C   0  0  0  0  0  0  0  0  0  0  0  0
  188.1760  175.7880  141.7260 C   0  0  0  0  0  3  0  0  0  0  0  0
  186.3140  178.5180  145.2620 C   0  0  0  0  0  3  0  0  0  0  0  0
  183.9790  179.1240  145.2250 O   0  0  0  0  0  1  0  0  0  0  0  0
  189.7180  177.1550  144.9240 C   0  0  0  0  0  3  0  0  0  0  0  0
  184.8290  177.5280  143.6290 C   0  0  0  0  0  3  0  0  0  0  0  0
  188.1920  173.2760  137.9450 O   0  0  0  0  0  0  0  0  0  0  0  0
  185.8960  176.7930  143.1040 C   0  0  0  0  0  3  0  0  0  0  0  0
  188.6480  173.4400  139.1060 C   0  0  0  0  0  0  0  0  0  0  0  0
  187.1870  176.9130  143.6520 C   0  0  0  0  0  0  0  0  0  0  0  0
  190.4980  175.2060  143.6760 C   0  0  0  0  0  0  0  0  0  0  0  0
  185.0390  178.3920  144.7060 C   0  0  0  0  0  0  0  0  0  0  0  0
  187.3810  177.7810  144.7420 C   0  0  0  0  0  0  0  0  0  0  0  0
  189.6790  173.8660  141.6570 C   0  0  0  0  0  0  0  0  0  0  0  0
  188.3020  176.1680  143.1040 N   0  0  0  0  0  0  0  0  0  0  0  0
  188.3020  174.5400  139.8220 N   0  0  0  0  0  2  0  0  0  0  0  0
  188.7110  177.9160  145.3380 C   0  0  0  0  0  3  0  0  0  0  0  0
  189.4860  172.4840  139.6660 C   0  0  0  0  0  3  0  0  0  0  0  0
  190.0030  172.7090  140.9400 C   0  0  0  0  0  3  0  0  0  0  0  0
  188.7570  174.7750  141.0870 C   0  0  0  0  0  0  0  0  0  0  0  0
  194.0650  175.2760  146.0630 C   0  0  0  0  0  3  0  0  0  0  0  0
  191.7380  175.2070  144.4940 C   0  0  0  0  0  0  0  0  0  0  0  0
  191.7830  174.5430  145.7310 C   0  0  0  0  0  3  0  0  0  0  0  0
  192.9420  174.5740  146.5090 C   0  0  0  0  0  3  0  0  0  0  0  0
  194.0270  175.9510  144.8400 C   0  0  0  0  0  3  0  0  0  0  0  0
  192.8670  175.9210  144.0610 C   0  0  0  0  0  3  0  0  0  0  0  0
  1 12  1  0  0  0  0
  2  6  1  0  0  0  0
  3 16  1  0  0  0  0
  6 18  2  0  0  0  0
  7 13  1  0  0  0  0
  8 10  2  0  0  0  0
  9  7  2  0  0  0  0
  9 11  1  0  0  0  0
 10 19  1  0  0  0  0
 10 17  1  0  0  0  0
 11 14  2  0  0  0  0
 12  2  2  0  0  0  0
 12 23  1  0  0  0  0
 13  5  1  0  0  0  0
 13  4  2  0  0  0  0
 14  4  1  0  0  0  0
 14 18  1  0  0  0  0
 15  1  2  0  0  0  0
 16 11  1  0  0  0  0
 16  2  1  0  0  0  0
 17 21  1  0  0  0  0
 19 20  2  0  0  0  0
 20 15  1  0  0  0  0
 21 15  1  0  0  0  0
 21  3  2  0  0  0  0
 22 25  1  0  0  0  0
 23 24  1  0  0  0  0
 24 25  2  0  0  0  0
 26 22  2  0  0  0  0
 27 23  2  0  0  0  0
 27 26  1  0  0  0  0
M  END
>  <MODEL>
7

>  <REMARK>
 VINA RESULT:      -8.1      2.625      6.982
  Name = 
  1 active torsions:
  status: ('A' for Active; 'I' for Inactive)
    1  A    between atoms: C_9  and  C_15
                            x       y       z     vdW  Elec       q    Type
                         _______ _______ _______ _____ _____    ______ ____

>  <TORSDO>
F 1

$$$$
=
 OpenBabel11052418303D

 27 31  0  0  0  0  0  0  0  0999 V2000
  187.7680  176.2530  142.0350 C   0  0  0  0  0  3  0  0  0  0  0  0
  188.9560  176.2860  144.2400 C   0  0  0  0  0  0  0  0  0  0  0  0
  190.0570  174.4820  142.8200 C   0  0  0  0  0  3  0  0  0  0  0  0
  192.5690  176.4150  146.4780 C   0  0  0  0  0  3  0  0  0  0  0  0
  194.9420  176.0240  146.6590 O   0  0  0  0  0  1  0  0  0  0  0  0
  189.0130  176.8390  145.6170 C   0  0  0  0  0  3  0  0  0  0  0  0
  193.7570  175.3090  144.6840 C   0  0  0  0  0  3  0  0  0  0  0  0
  189.3710  172.1580  138.9810 O   0  0  0  0  0  0  0  0  0  0  0  0
  192.5650  175.1970  143.9630 C   0  0  0  0  0  3  0  0  0  0  0  0
  189.0560  173.1530  139.6840 C   0  0  0  0  0  0  0  0  0  0  0  0
  191.3590  175.6920  144.4910 C   0  0  0  0  0  0  0  0  0  0  0  0
  187.8920  176.5870  143.4630 C   0  0  0  0  0  0  0  0  0  0  0  0
  193.7580  175.9160  145.9420 C   0  0  0  0  0  0  0  0  0  0  0  0
  191.3760  176.3080  145.7570 C   0  0  0  0  0  0  0  0  0  0  0  0
  188.3430  175.3100  141.2920 C   0  0  0  0  0  0  0  0  0  0  0  0
  190.1160  175.5660  143.7590 N   0  0  0  0  0  0  0  0  0  0  0  0
  189.5970  173.3090  140.9200 N   0  0  0  0  0  2  0  0  0  0  0  0
  190.1380  176.8430  146.3250 C   0  0  0  0  0  3  0  0  0  0  0  0
  188.1740  174.1040  139.1890 C   0  0  0  0  0  3  0  0  0  0  0  0
  187.8170  175.1760  140.0030 C   0  0  0  0  0  3  0  0  0  0  0  0
  189.3020  174.3670  141.7290 C   0  0  0  0  0  0  0  0  0  0  0  0
  184.6290  178.8800  145.0490 C   0  0  0  0  0  3  0  0  0  0  0  0
  186.7480  177.3750  143.9910 C   0  0  0  0  0  0  0  0  0  0  0  0
  186.4940  178.6740  143.5220 C   0  0  0  0  0  3  0  0  0  0  0  0
  185.4360  179.4200  144.0440 C   0  0  0  0  0  3  0  0  0  0  0  0
  184.8810  177.5950  145.5320 C   0  0  0  0  0  3  0  0  0  0  0  0
  185.9400  176.8460  145.0090 C   0  0  0  0  0  3  0  0  0  0  0  0
  1 12  1  0  0  0  0
  2  6  1  0  0  0  0
  3 16  1  0  0  0  0
  6 18  2  0  0  0  0
  7 13  2  0  0  0  0
  8 10  2  0  0  0  0
  9 11  2  0  0  0  0
  9  7  1  0  0  0  0
 10 17  1  0  0  0  0
 11 14  1  0  0  0  0
 12 23  1  0  0  0  0
 12  2  2  0  0  0  0
 13  4  1  0  0  0  0
 13  5  1  0  0  0  0
 14 18  1  0  0  0  0
 14  4  2  0  0  0  0
 15 21  1  0  0  0  0
 15  1  2  0  0  0  0
 16  2  1  0  0  0  0
 16 11  1  0  0  0  0
 17 21  1  0  0  0  0
 19 10  1  0  0  0  0
 19 20  2  0  0  0  0
 20 15  1  0  0  0  0
 21  3  2  0  0  0  0
 22 26  1  0  0  0  0
 23 27  1  0  0  0  0
 24 23  2  0  0  0  0
 24 25  1  0  0  0  0
 25 22  2  0  0  0  0
 27 26  2  0  0  0  0
M  END
>  <MODEL>
8

>  <REMARK>
 VINA RESULT:      -7.9      1.222      5.493
  Name = 
  1 active torsions:
  status: ('A' for Active; 'I' for Inactive)
    1  A    between atoms: C_9  and  C_15
                            x       y       z     vdW  Elec       q    Type
                         _______ _______ _______ _____ _____    ______ ____

>  <TORSDO>
F 1

$$$$
=
 OpenBabel11052418303D

 27 31  0  0  0  0  0  0  0  0999 V2000
  189.0030  177.2710  144.0860 C   0  0  0  0  0  3  0  0  0  0  0  0
  189.8080  175.1460  143.0300 C   0  0  0  0  0  0  0  0  0  0  0  0
  187.4330  175.5430  142.2040 C   0  0  0  0  0  3  0  0  0  0  0  0
  190.3670  172.7270  139.5800 C   0  0  0  0  0  3  0  0  0  0  0  0
  189.7570  172.1030  137.3310 O   0  0  0  0  0  1  0  0  0  0  0  0
  190.8840  174.1260  142.9470 C   0  0  0  0  0  3  0  0  0  0  0  0
  188.4410  173.7370  138.5200 C   0  0  0  0  0  3  0  0  0  0  0  0
  183.8110  178.1300  143.0990 O   0  0  0  0  0  0  0  0  0  0  0  0
  188.2020  174.4920  139.6720 C   0  0  0  0  0  3  0  0  0  0  0  0
  185.0460  177.9470  143.2630 C   0  0  0  0  0  0  0  0  0  0  0  0
  189.0430  174.3720  140.7940 C   0  0  0  0  0  0  0  0  0  0  0  0
  189.8960  176.1060  143.9790 C   0  0  0  0  0  0  0  0  0  0  0  0
  189.5220  172.8540  138.4750 C   0  0  0  0  0  0  0  0  0  0  0  0
  190.1330  173.4830  140.7310 C   0  0  0  0  0  0  0  0  0  0  0  0
  187.7620  177.4780  143.6550 C   0  0  0  0  0  0  0  0  0  0  0  0
  188.7940  175.1360  141.9990 N   0  0  0  0  0  0  0  0  0  0  0  0
  185.6380  176.8290  142.7690 N   0  0  0  0  0  2  0  0  0  0  0  0
  191.0300  173.3480  141.8790 C   0  0  0  0  0  3  0  0  0  0  0  0
  185.8080  178.8980  143.9290 C   0  0  0  0  0  3  0  0  0  0  0  0
  187.1640  178.6520  144.1260 C   0  0  0  0  0  3  0  0  0  0  0  0
  186.9700  176.5740  142.9090 C   0  0  0  0  0  0  0  0  0  0  0  0
  193.0680  176.0160  146.8690 C   0  0  0  0  0  3  0  0  0  0  0  0
  190.9880  176.0990  144.9860 C   0  0  0  0  0  0  0  0  0  0  0  0
  192.2360  176.6740  144.6940 C   0  0  0  0  0  3  0  0  0  0  0  0
  193.2690  176.6380  145.6330 C   0  0  0  0  0  3  0  0  0  0  0  0
  191.8360  175.4290  147.1630 C   0  0  0  0  0  3  0  0  0  0  0  0
  190.8020  175.4650  146.2240 C   0  0  0  0  0  3  0  0  0  0  0  0
  2 12  2  0  0  0  0
  3 21  2  0  0  0  0
  4 14  1  0  0  0  0
  5 13  1  0  0  0  0
  6  2  1  0  0  0  0
  7  9  2  0  0  0  0
  8 10  2  0  0  0  0
  9 11  1  0  0  0  0
 10 19  1  0  0  0  0
 11 16  1  0  0  0  0
 12  1  1  0  0  0  0
 12 23  1  0  0  0  0
 13  7  1  0  0  0  0
 13  4  2  0  0  0  0
 14 11  2  0  0  0  0
 14 18  1  0  0  0  0
 15  1  2  0  0  0  0
 15 20  1  0  0  0  0
 16  3  1  0  0  0  0
 16  2  1  0  0  0  0
 17 21  1  0  0  0  0
 17 10  1  0  0  0  0
 18  6  2  0  0  0  0
 19 20  2  0  0  0  0
 21 15  1  0  0  0  0
 22 26  1  0  0  0  0
 23 27  1  0  0  0  0
 24 23  2  0  0  0  0
 24 25  1  0  0  0  0
 25 22  2  0  0  0  0
 27 26  2  0  0  0  0
M  END
>  <MODEL>
9

>  <REMARK>
 VINA RESULT:      -7.6      2.753      5.390
  Name = 
  1 active torsions:
  status: ('A' for Active; 'I' for Inactive)
    1  A    between atoms: C_9  and  C_15
                            x       y       z     vdW  Elec       q    Type
                         _______ _______ _______ _____ _____    ______ ____

>  <TORSDO>
F 1

$$$$
