=
 OpenBabel11052418293D

 27 32  0  0  0  0  0  0  0  0999 V2000
  189.3560  175.9090  144.1130 C   0  0  0  0  0  0  0  0  0  0  0  0
  188.1320  176.4470  143.8410 C   0  0  0  0  0  0  0  0  0  0  0  0
  188.0530  177.5980  145.8910 N   0  0  0  0  0  0  0  0  0  0  0  0
  184.4600  177.8080  142.5550 C   0  0  0  0  0  3  0  0  0  0  0  0
  183.7080  178.6660  143.3620 C   0  0  0  0  0  0  0  0  0  0  0  0
  187.6440  176.0670  142.6300 C   0  0  0  0  0  0  0  0  0  0  0  0
  189.7880  173.7290  140.5190 C   0  0  0  0  0  0  0  0  0  0  0  0
  185.4360  178.6180  145.0670 C   0  0  0  0  0  3  0  0  0  0  0  0
  189.6950  175.0870  142.9410 C   0  0  0  0  0  0  0  0  0  0  0  0
  191.1300  176.8950  147.7830 C   0  0  0  0  0  0  0  0  0  0  0  0
  188.6610  174.5170  140.8120 C   0  0  0  0  0  3  0  0  0  0  0  0
  184.1930  179.0680  144.6120 C   0  0  0  0  0  3  0  0  0  0  0  0
  191.7090  177.2270  149.0000 O   0  0  0  0  0  1  0  0  0  0  0  0
  186.2020  177.7600  144.2720 C   0  0  0  0  0  0  0  0  0  0  0  0
  188.6420  175.1860  142.0320 C   0  0  0  0  0  0  0  0  0  0  0  0
  182.5010  179.1100  142.9340 F   0  0  0  0  0  0  0  0  0  0  0  0
  185.7040  177.3460  142.9880 C   0  0  0  0  0  0  0  0  0  0  0  0
  189.9810  176.2130  145.3250 C   0  0  0  0  0  0  0  0  0  0  0  0
  187.4600  177.2860  144.6990 C   0  0  0  0  0  0  0  0  0  0  0  0
  189.8760  177.4150  147.4450 C   0  0  0  0  0  3  0  0  0  0  0  0
  186.4380  176.5040  142.1870 N   0  0  0  0  0  0  0  0  0  0  0  0
  191.8040  176.0430  146.9010 C   0  0  0  0  0  3  0  0  0  0  0  0
  189.8520  173.0430  139.3130 O   0  0  0  0  0  1  0  0  0  0  0  0
  191.2330  175.6990  145.6720 C   0  0  0  0  0  3  0  0  0  0  0  0
  190.8550  173.6270  141.4380 C   0  0  0  0  0  3  0  0  0  0  0  0
  189.2870  177.0850  146.2220 C   0  0  0  0  0  0  0  0  0  0  0  0
  190.8180  174.3110  142.6660 C   0  0  0  0  0  3  0  0  0  0  0  0
  1 18  1  0  0  0  0
  2  1  2  0  0  0  0
  2 19  1  0  0  0  0
  3 26  1  0  0  0  0
  4 17  2  0  0  0  0
  4  5  1  0  0  0  0
  5 12  2  0  0  0  0
  6  2  1  0  0  0  0
  7 11  2  0  0  0  0
  7 25  1  0  0  0  0
  9  1  1  0  0  0  0
 10 13  1  0  0  0  0
 11 15  1  0  0  0  0
 12  8  1  0  0  0  0
 14 19  1  0  0  0  0
 14  8  2  0  0  0  0
 15  6  1  0  0  0  0
 15  9  2  0  0  0  0
 16  5  1  0  0  0  0
 17 14  1  0  0  0  0
 18 24  2  0  0  0  0
 18 26  1  0  0  0  0
 19  3  2  0  0  0  0
 20 10  1  0  0  0  0
 21  6  2  0  0  0  0
 21 17  1  0  0  0  0
 22 10  2  0  0  0  0
 23  7  1  0  0  0  0
 24 22  1  0  0  0  0
 25 27  2  0  0  0  0
 26 20  2  0  0  0  0
 27  9  1  0  0  0  0
M  END
>  <MODEL>
1

>  <REMARK>
 VINA RESULT:      -8.6      0.000      0.000
  Name = 
  0 active torsions:
  status: ('A' for Active; 'I' for Inactive)
                            x       y       z     vdW  Elec       q    Type
                         _______ _______ _______ _____ _____    ______ ____

>  <TORSDO>
F 0

$$$$
=
 OpenBabel11052418293D

 27 32  0  0  0  0  0  0  0  0999 V2000
  189.8230  175.7120  144.1340 C   0  0  0  0  0  0  0  0  0  0  0  0
  188.6400  176.3920  144.1580 C   0  0  0  0  0  0  0  0  0  0  0  0
  188.0070  175.5970  142.0370 N   0  0  0  0  0  0  0  0  0  0  0  0
  185.2190  178.6230  144.7110 C   0  0  0  0  0  3  0  0  0  0  0  0
  184.2280  178.6450  143.7250 C   0  0  0  0  0  0  0  0  0  0  0  0
  188.4650  177.1110  145.2990 C   0  0  0  0  0  0  0  0  0  0  0  0
  191.2330  176.9690  147.9140 C   0  0  0  0  0  0  0  0  0  0  0  0
  185.5430  177.1490  142.3360 C   0  0  0  0  0  3  0  0  0  0  0  0
  190.4860  176.0300  145.4080 C   0  0  0  0  0  0  0  0  0  0  0  0
  190.6560  173.3980  140.7370 C   0  0  0  0  0  0  0  0  0  0  0  0
  189.9990  177.3750  147.3780 C   0  0  0  0  0  3  0  0  0  0  0  0
  184.3900  177.9130  142.5440 C   0  0  0  0  0  3  0  0  0  0  0  0
  190.9220  172.6340  139.6090 O   0  0  0  0  0  1  0  0  0  0  0  0
  186.5440  177.1150  143.3120 C   0  0  0  0  0  0  0  0  0  0  0  0
  189.6500  176.8880  146.1220 C   0  0  0  0  0  0  0  0  0  0  0  0
  183.1060  179.3810  143.9120 F   0  0  0  0  0  0  0  0  0  0  0  0
  186.3780  177.8680  144.5260 C   0  0  0  0  0  0  0  0  0  0  0  0
  190.1380  174.9290  143.0210 C   0  0  0  0  0  0  0  0  0  0  0  0
  187.7200  176.3570  143.1370 C   0  0  0  0  0  0  0  0  0  0  0  0
  189.4600  174.1180  140.8220 C   0  0  0  0  0  3  0  0  0  0  0  0
  187.3470  177.8520  145.5020 N   0  0  0  0  0  0  0  0  0  0  0  0
  191.5840  173.4420  141.7840 C   0  0  0  0  0  3  0  0  0  0  0  0
  191.6240  177.4280  149.1650 O   0  0  0  0  0  1  0  0  0  0  0  0
  191.3290  174.2060  142.9260 C   0  0  0  0  0  3  0  0  0  0  0  0
  192.0820  176.1000  147.1930 C   0  0  0  0  0  3  0  0  0  0  0  0
  189.1850  174.8890  141.9540 C   0  0  0  0  0  0  0  0  0  0  0  0
  191.7120  175.6180  145.9250 C   0  0  0  0  0  3  0  0  0  0  0  0
  1  2  1  0  0  0  0
  1  9  1  0  0  0  0
  2  6  1  0  0  0  0
  3 19  1  0  0  0  0
  5 16  1  0  0  0  0
  5  4  2  0  0  0  0
  6 21  2  0  0  0  0
  6 15  1  0  0  0  0
  7 23  1  0  0  0  0
  8 12  2  0  0  0  0
  8 14  1  0  0  0  0
  9 27  2  0  0  0  0
  9 15  1  0  0  0  0
 10 20  2  0  0  0  0
 10 22  1  0  0  0  0
 11  7  1  0  0  0  0
 12  5  1  0  0  0  0
 13 10  1  0  0  0  0
 14 17  2  0  0  0  0
 15 11  2  0  0  0  0
 17  4  1  0  0  0  0
 17 21  1  0  0  0  0
 18  1  2  0  0  0  0
 19 14  1  0  0  0  0
 19  2  2  0  0  0  0
 20 26  1  0  0  0  0
 22 24  2  0  0  0  0
 24 18  1  0  0  0  0
 25  7  2  0  0  0  0
 26  3  2  0  0  0  0
 26 18  1  0  0  0  0
 27 25  1  0  0  0  0
M  END
>  <MODEL>
2

>  <REMARK>
 VINA RESULT:      -8.4      0.748      5.072
  Name = 
  0 active torsions:
  status: ('A' for Active; 'I' for Inactive)
                            x       y       z     vdW  Elec       q    Type
                         _______ _______ _______ _____ _____    ______ ____

>  <TORSDO>
F 0

$$$$
=
 OpenBabel11052418293D

 27 32  0  0  0  0  0  0  0  0999 V2000
  190.2110  175.3230  143.4790 C   0  0  0  0  0  0  0  0  0  0  0  0
  189.0460  175.8640  143.9410 C   0  0  0  0  0  0  0  0  0  0  0  0
  190.0480  176.6080  145.9350 N   0  0  0  0  0  0  0  0  0  0  0  0
  185.3090  177.3250  144.8810 C   0  0  0  0  0  3  0  0  0  0  0  0
  185.1010  177.9930  146.0920 C   0  0  0  0  0  0  0  0  0  0  0  0
  188.0080  175.7010  143.0780 C   0  0  0  0  0  0  0  0  0  0  0  0
  188.7000  173.8670  139.8100 C   0  0  0  0  0  0  0  0  0  0  0  0
  187.4320  177.6820  146.6930 C   0  0  0  0  0  3  0  0  0  0  0  0
  189.8840  174.7450  142.1660 C   0  0  0  0  0  0  0  0  0  0  0  0
  193.6040  175.6610  145.9200 C   0  0  0  0  0  0  0  0  0  0  0  0
  187.9120  174.5510  140.7520 C   0  0  0  0  0  3  0  0  0  0  0  0
  186.1570  178.1690  146.9930 C   0  0  0  0  0  3  0  0  0  0  0  0
  194.7220  175.7790  146.7350 O   0  0  0  0  0  1  0  0  0  0  0  0
  187.6590  177.0120  145.4870 C   0  0  0  0  0  0  0  0  0  0  0  0
  188.5310  174.9800  141.9220 C   0  0  0  0  0  0  0  0  0  0  0  0
  183.8700  178.4700  146.3950 F   0  0  0  0  0  0  0  0  0  0  0  0
  186.5740  176.8300  144.5610 C   0  0  0  0  0  0  0  0  0  0  0  0
  191.3640  175.4150  144.2620 C   0  0  0  0  0  0  0  0  0  0  0  0
  188.9320  176.5060  145.1510 C   0  0  0  0  0  0  0  0  0  0  0  0
  192.3810  176.1950  146.3380 C   0  0  0  0  0  3  0  0  0  0  0  0
  186.7700  176.1750  143.3680 N   0  0  0  0  0  0  0  0  0  0  0  0
  193.7080  175.0100  144.6850 C   0  0  0  0  0  3  0  0  0  0  0  0
  188.1260  173.4210  138.6280 O   0  0  0  0  0  1  0  0  0  0  0  0
  192.5910  174.8850  143.8540 C   0  0  0  0  0  3  0  0  0  0  0  0
  190.0710  173.6290  140.0550 C   0  0  0  0  0  3  0  0  0  0  0  0
  191.2520  176.0810  145.5230 C   0  0  0  0  0  0  0  0  0  0  0  0
  190.6790  174.0700  141.2440 C   0  0  0  0  0  3  0  0  0  0  0  0
  1  2  2  0  0  0  0
  1 18  1  0  0  0  0
  2 19  1  0  0  0  0
  4  5  1  0  0  0  0
  5 16  1  0  0  0  0
  5 12  2  0  0  0  0
  6 21  2  0  0  0  0
  6  2  1  0  0  0  0
  7 25  2  0  0  0  0
  7 11  1  0  0  0  0
  8 12  1  0  0  0  0
  9  1  1  0  0  0  0
 10 20  1  0  0  0  0
 10 13  1  0  0  0  0
 11 15  2  0  0  0  0
 14  8  2  0  0  0  0
 15  9  1  0  0  0  0
 15  6  1  0  0  0  0
 17  4  2  0  0  0  0
 17 14  1  0  0  0  0
 18 26  1  0  0  0  0
 19 14  1  0  0  0  0
 19  3  2  0  0  0  0
 21 17  1  0  0  0  0
 22 10  2  0  0  0  0
 23  7  1  0  0  0  0
 24 18  2  0  0  0  0
 24 22  1  0  0  0  0
 25 27  1  0  0  0  0
 26  3  1  0  0  0  0
 26 20  2  0  0  0  0
 27  9  2  0  0  0  0
M  END
>  <MODEL>
3

>  <REMARK>
 VINA RESULT:      -8.4      1.765      2.284
  Name = 
  0 active torsions:
  status: ('A' for Active; 'I' for Inactive)
                            x       y       z     vdW  Elec       q    Type
                         _______ _______ _______ _____ _____    ______ ____

>  <TORSDO>
F 0

$$$$
=
 OpenBabel11052418293D

 27 32  0  0  0  0  0  0  0  0999 V2000
  190.1090  175.4350  143.5630 C   0  0  0  0  0  0  0  0  0  0  0  0
  189.2020  176.0300  144.3910 C   0  0  0  0  0  0  0  0  0  0  0  0
  187.4200  175.6450  142.9030 N   0  0  0  0  0  0  0  0  0  0  0  0
  186.8690  177.9060  147.2230 C   0  0  0  0  0  3  0  0  0  0  0  0
  185.4980  178.0720  147.0060 C   0  0  0  0  0  0  0  0  0  0  0  0
  189.7580  176.4910  145.5430 C   0  0  0  0  0  0  0  0  0  0  0  0
  193.5030  175.9800  146.0220 C   0  0  0  0  0  0  0  0  0  0  0  0
  185.6800  176.9640  144.8530 C   0  0  0  0  0  3  0  0  0  0  0  0
  191.4000  175.5260  144.2640 C   0  0  0  0  0  0  0  0  0  0  0  0
  188.6980  173.9060  139.9220 C   0  0  0  0  0  0  0  0  0  0  0  0
  192.2150  176.4160  146.3780 C   0  0  0  0  0  3  0  0  0  0  0  0
  184.9070  177.6040  145.8270 C   0  0  0  0  0  3  0  0  0  0  0  0
  188.2210  173.4030  138.7200 O   0  0  0  0  0  1  0  0  0  0  0  0
  187.0530  176.7900  145.0550 C   0  0  0  0  0  0  0  0  0  0  0  0
  191.1810  176.1740  145.4790 C   0  0  0  0  0  0  0  0  0  0  0  0
  184.7360  178.6900  147.9410 F   0  0  0  0  0  0  0  0  0  0  0  0
  187.6610  177.2710  146.2660 C   0  0  0  0  0  0  0  0  0  0  0  0
  189.6790  174.9130  142.3410 C   0  0  0  0  0  0  0  0  0  0  0  0
  187.8640  176.1500  144.0950 C   0  0  0  0  0  0  0  0  0  0  0  0
  187.8160  174.5270  140.8140 C   0  0  0  0  0  3  0  0  0  0  0  0
  189.0080  177.1120  146.4890 N   0  0  0  0  0  0  0  0  0  0  0  0
  190.0570  173.7900  140.2360 C   0  0  0  0  0  3  0  0  0  0  0  0
  194.5660  176.1980  146.8880 O   0  0  0  0  0  1  0  0  0  0  0  0
  190.5510  174.2930  141.4430 C   0  0  0  0  0  3  0  0  0  0  0  0
  193.7270  175.3230  144.7920 C   0  0  0  0  0  3  0  0  0  0  0  0
  188.2890  175.0360  142.0260 C   0  0  0  0  0  0  0  0  0  0  0  0
  192.6690  175.0890  143.8960 C   0  0  0  0  0  3  0  0  0  0  0  0
  1  9  1  0  0  0  0
  1  2  1  0  0  0  0
  2  6  1  0  0  0  0
  3 19  1  0  0  0  0
  5  4  1  0  0  0  0
  5 16  1  0  0  0  0
  6 21  2  0  0  0  0
  7 11  1  0  0  0  0
  7 23  1  0  0  0  0
  8 14  2  0  0  0  0
  8 12  1  0  0  0  0
  9 15  1  0  0  0  0
 10 22  1  0  0  0  0
 10 20  2  0  0  0  0
 12  5  2  0  0  0  0
 13 10  1  0  0  0  0
 14 17  1  0  0  0  0
 15  6  1  0  0  0  0
 15 11  2  0  0  0  0
 17 21  1  0  0  0  0
 17  4  2  0  0  0  0
 18  1  2  0  0  0  0
 19  2  2  0  0  0  0
 19 14  1  0  0  0  0
 20 26  1  0  0  0  0
 22 24  2  0  0  0  0
 24 18  1  0  0  0  0
 25  7  2  0  0  0  0
 26 18  1  0  0  0  0
 26  3  2  0  0  0  0
 27  9  2  0  0  0  0
 27 25  1  0  0  0  0
M  END
>  <MODEL>
4

>  <REMARK>
 VINA RESULT:      -8.3      1.865      5.322
  Name = 
  0 active torsions:
  status: ('A' for Active; 'I' for Inactive)
                            x       y       z     vdW  Elec       q    Type
                         _______ _______ _______ _____ _____    ______ ____

>  <TORSDO>
F 0

$$$$
=
 OpenBabel11052418293D

 27 32  0  0  0  0  0  0  0  0999 V2000
  187.9010  176.3100  143.1330 C   0  0  0  0  0  0  0  0  0  0  0  0
  188.5460  176.5690  144.3070 C   0  0  0  0  0  0  0  0  0  0  0  0
  190.3930  175.2340  143.7210 N   0  0  0  0  0  0  0  0  0  0  0  0
  190.0740  177.6550  147.9780 C   0  0  0  0  0  3  0  0  0  0  0  0
  191.3230  177.1780  148.3880 C   0  0  0  0  0  0  0  0  0  0  0  0
  187.8420  177.3940  145.1280 C   0  0  0  0  0  0  0  0  0  0  0  0
  184.4540  178.6320  143.9000 C   0  0  0  0  0  0  0  0  0  0  0  0
  191.5630  175.9470  146.3090 C   0  0  0  0  0  3  0  0  0  0  0  0
  186.6340  177.0530  143.2080 C   0  0  0  0  0  0  0  0  0  0  0  0
  189.8220  173.7910  140.3850 C   0  0  0  0  0  0  0  0  0  0  0  0
  185.5230  178.5150  144.8060 C   0  0  0  0  0  3  0  0  0  0  0  0
  192.0620  176.3280  147.5580 C   0  0  0  0  0  3  0  0  0  0  0  0
  190.4650  172.9560  139.4810 O   0  0  0  0  0  1  0  0  0  0  0  0
  190.3160  176.4160  145.8820 C   0  0  0  0  0  0  0  0  0  0  0  0
  186.6010  177.7180  144.4330 C   0  0  0  0  0  0  0  0  0  0  0  0
  191.8190  177.5380  149.5960 F   0  0  0  0  0  0  0  0  0  0  0  0
  189.5550  177.2890  146.7350 C   0  0  0  0  0  0  0  0  0  0  0  0
  188.5080  175.4760  142.1910 C   0  0  0  0  0  0  0  0  0  0  0  0
  189.7800  176.0530  144.6300 C   0  0  0  0  0  0  0  0  0  0  0  0
  190.4320  174.0950  141.6060 C   0  0  0  0  0  3  0  0  0  0  0  0
  188.3270  177.7640  146.3410 N   0  0  0  0  0  0  0  0  0  0  0  0
  188.5670  174.3230  140.0690 C   0  0  0  0  0  3  0  0  0  0  0  0
  183.3570  179.4160  144.2280 O   0  0  0  0  0  1  0  0  0  0  0  0
  187.9060  175.1650  140.9690 C   0  0  0  0  0  3  0  0  0  0  0  0
  184.4860  177.9590  142.6580 C   0  0  0  0  0  3  0  0  0  0  0  0
  189.7900  174.9340  142.5200 C   0  0  0  0  0  0  0  0  0  0  0  0
  185.5840  177.1580  142.2990 C   0  0  0  0  0  3  0  0  0  0  0  0
  1  9  1  0  0  0  0
  1  2  1  0  0  0  0
  2 19  2  0  0  0  0
  2  6  1  0  0  0  0
  3 19  1  0  0  0  0
  4  5  1  0  0  0  0
  5 16  1  0  0  0  0
  6 21  2  0  0  0  0
  7 23  1  0  0  0  0
  7 11  1  0  0  0  0
  8 12  1  0  0  0  0
  9 15  1  0  0  0  0
 10 20  2  0  0  0  0
 12  5  2  0  0  0  0
 13 10  1  0  0  0  0
 14  8  2  0  0  0  0
 14 17  1  0  0  0  0
 15 11  2  0  0  0  0
 15  6  1  0  0  0  0
 17  4  2  0  0  0  0
 18 26  1  0  0  0  0
 18  1  2  0  0  0  0
 19 14  1  0  0  0  0
 20 26  1  0  0  0  0
 21 17  1  0  0  0  0
 22 10  1  0  0  0  0
 22 24  2  0  0  0  0
 24 18  1  0  0  0  0
 25  7  2  0  0  0  0
 26  3  2  0  0  0  0
 27 25  1  0  0  0  0
 27  9  2  0  0  0  0
M  END
>  <MODEL>
5

>  <REMARK>
 VINA RESULT:      -8.2      3.108      6.658
  Name = 
  0 active torsions:
  status: ('A' for Active; 'I' for Inactive)
                            x       y       z     vdW  Elec       q    Type
                         _______ _______ _______ _____ _____    ______ ____

>  <TORSDO>
F 0

$$$$
=
 OpenBabel11052418293D

 27 32  0  0  0  0  0  0  0  0999 V2000
  187.8650  176.9490  144.3430 C   0  0  0  0  0  0  0  0  0  0  0  0
  188.4700  176.1500  143.4170 C   0  0  0  0  0  0  0  0  0  0  0  0
  186.6850  176.3630  141.8990 N   0  0  0  0  0  0  0  0  0  0  0  0
  190.6970  173.6950  140.9670 C   0  0  0  0  0  3  0  0  0  0  0  0
  190.2090  173.3290  139.7090 C   0  0  0  0  0  0  0  0  0  0  0  0
  189.6840  175.6910  143.8240 C   0  0  0  0  0  0  0  0  0  0  0  0
  190.9070  176.7580  147.2710 C   0  0  0  0  0  0  0  0  0  0  0  0
  188.1910  174.6240  140.0870 C   0  0  0  0  0  3  0  0  0  0  0  0
  188.7980  177.0100  145.4790 C   0  0  0  0  0  0  0  0  0  0  0  0
  184.1000  178.5240  143.3780 C   0  0  0  0  0  0  0  0  0  0  0  0
  190.9840  176.0930  146.0350 C   0  0  0  0  0  3  0  0  0  0  0  0
  188.9630  173.7910  139.2720 C   0  0  0  0  0  3  0  0  0  0  0  0
  182.8550  179.0410  143.0500 O   0  0  0  0  0  1  0  0  0  0  0  0
  188.6640  175.0010  141.3480 C   0  0  0  0  0  0  0  0  0  0  0  0
  189.9140  176.2370  145.1570 C   0  0  0  0  0  0  0  0  0  0  0  0
  190.9460  172.5210  138.9090 F   0  0  0  0  0  0  0  0  0  0  0  0
  189.9450  174.5260  141.7980 C   0  0  0  0  0  0  0  0  0  0  0  0
  186.6110  177.4930  144.0600 C   0  0  0  0  0  0  0  0  0  0  0  0
  187.9140  175.8400  142.1980 C   0  0  0  0  0  0  0  0  0  0  0  0
  184.7720  177.6980  142.4700 C   0  0  0  0  0  3  0  0  0  0  0  0
  190.4330  174.8810  143.0330 N   0  0  0  0  0  0  0  0  0  0  0  0
  184.6780  178.8320  144.6150 C   0  0  0  0  0  3  0  0  0  0  0  0
  191.9510  176.6450  148.1790 O   0  0  0  0  0  1  0  0  0  0  0  0
  185.9320  178.3180  144.9600 C   0  0  0  0  0  3  0  0  0  0  0  0
  189.7780  177.5420  147.5990 C   0  0  0  0  0  3  0  0  0  0  0  0
  186.0260  177.1740  142.7940 C   0  0  0  0  0  0  0  0  0  0  0  0
  188.7060  177.6760  146.6980 C   0  0  0  0  0  3  0  0  0  0  0  0
  1  9  1  0  0  0  0
  2  6  1  0  0  0  0
  2  1  2  0  0  0  0
  3 19  2  0  0  0  0
  3 26  1  0  0  0  0
  4 17  1  0  0  0  0
  5  4  2  0  0  0  0
  6 15  1  0  0  0  0
  7 25  1  0  0  0  0
  7 23  1  0  0  0  0
  8 14  1  0  0  0  0
  9 27  1  0  0  0  0
 10 22  1  0  0  0  0
 11  7  2  0  0  0  0
 12  5  1  0  0  0  0
 12  8  2  0  0  0  0
 13 10  1  0  0  0  0
 14 17  2  0  0  0  0
 14 19  1  0  0  0  0
 15  9  2  0  0  0  0
 15 11  1  0  0  0  0
 16  5  1  0  0  0  0
 17 21  1  0  0  0  0
 18  1  1  0  0  0  0
 18 24  1  0  0  0  0
 19  2  1  0  0  0  0
 20 26  1  0  0  0  0
 20 10  2  0  0  0  0
 21  6  2  0  0  0  0
 22 24  2  0  0  0  0
 26 18  2  0  0  0  0
 27 25  2  0  0  0  0
M  END
>  <MODEL>
6

>  <REMARK>
 VINA RESULT:      -8.1      3.114      6.610
  Name = 
  0 active torsions:
  status: ('A' for Active; 'I' for Inactive)
                            x       y       z     vdW  Elec       q    Type
                         _______ _______ _______ _____ _____    ______ ____

>  <TORSDO>
F 0

$$$$
=
 OpenBabel11052418293D

 27 32  0  0  0  0  0  0  0  0999 V2000
  188.0740  176.8470  144.3970 C   0  0  0  0  0  0  0  0  0  0  0  0
  188.3440  176.1380  143.2630 C   0  0  0  0  0  0  0  0  0  0  0  0
  190.4280  175.4100  144.0750 N   0  0  0  0  0  0  0  0  0  0  0  0
  188.6840  174.1640  139.6610 C   0  0  0  0  0  3  0  0  0  0  0  0
  189.8240  173.4050  139.3810 C   0  0  0  0  0  0  0  0  0  0  0  0
  187.3490  176.2180  142.3390 C   0  0  0  0  0  0  0  0  0  0  0  0
  184.2910  178.3140  143.2170 C   0  0  0  0  0  0  0  0  0  0  0  0
  190.7630  173.9720  141.5470 C   0  0  0  0  0  3  0  0  0  0  0  0
  186.7530  177.4550  144.1770 C   0  0  0  0  0  0  0  0  0  0  0  0
  190.9580  176.7970  147.4420 C   0  0  0  0  0  0  0  0  0  0  0  0
  185.0820  177.4820  142.4070 C   0  0  0  0  0  3  0  0  0  0  0  0
  190.8580  173.3110  140.3190 C   0  0  0  0  0  3  0  0  0  0  0  0
  191.9180  176.7740  148.4450 O   0  0  0  0  0  1  0  0  0  0  0  0
  189.6290  174.7350  141.8440 C   0  0  0  0  0  0  0  0  0  0  0  0
  186.3100  177.0670  142.9130 C   0  0  0  0  0  0  0  0  0  0  0  0
  189.9300  172.7590  138.1950 F   0  0  0  0  0  0  0  0  0  0  0  0
  188.5660  174.8330  140.8800 C   0  0  0  0  0  0  0  0  0  0  0  0
  189.0090  176.8550  145.4350 C   0  0  0  0  0  0  0  0  0  0  0  0
  189.4990  175.4160  143.0710 C   0  0  0  0  0  0  0  0  0  0  0  0
  191.1750  176.0890  146.2550 C   0  0  0  0  0  3  0  0  0  0  0  0
  187.4410  175.5760  141.1470 N   0  0  0  0  0  0  0  0  0  0  0  0
  189.7780  177.5270  147.6250 C   0  0  0  0  0  3  0  0  0  0  0  0
  183.0570  178.7530  142.7550 O   0  0  0  0  0  1  0  0  0  0  0  0
  188.8020  177.5590  146.6240 C   0  0  0  0  0  3  0  0  0  0  0  0
  184.7370  178.7080  144.4980 C   0  0  0  0  0  3  0  0  0  0  0  0
  190.2130  176.1070  145.2420 C   0  0  0  0  0  0  0  0  0  0  0  0
  185.9810  178.2780  144.9930 C   0  0  0  0  0  3  0  0  0  0  0  0
  1 18  1  0  0  0  0
  2  1  2  0  0  0  0
  3 26  1  0  0  0  0
  4 17  1  0  0  0  0
  5  4  2  0  0  0  0
  5 12  1  0  0  0  0
  6 15  1  0  0  0  0
  6  2  1  0  0  0  0
  7 25  1  0  0  0  0
  8 14  1  0  0  0  0
  9  1  1  0  0  0  0
  9 27  1  0  0  0  0
 10 22  1  0  0  0  0
 10 13  1  0  0  0  0
 11 15  1  0  0  0  0
 11  7  2  0  0  0  0
 12  8  2  0  0  0  0
 14 19  1  0  0  0  0
 15  9  2  0  0  0  0
 16  5  1  0  0  0  0
 17 21  1  0  0  0  0
 17 14  2  0  0  0  0
 18 24  1  0  0  0  0
 19  2  1  0  0  0  0
 19  3  2  0  0  0  0
 20 10  2  0  0  0  0
 21  6  2  0  0  0  0
 23  7  1  0  0  0  0
 24 22  2  0  0  0  0
 25 27  2  0  0  0  0
 26 18  2  0  0  0  0
 26 20  1  0  0  0  0
M  END
>  <MODEL>
7

>  <REMARK>
 VINA RESULT:      -8.1      2.968      5.496
  Name = 
  0 active torsions:
  status: ('A' for Active; 'I' for Inactive)
                            x       y       z     vdW  Elec       q    Type
                         _______ _______ _______ _____ _____    ______ ____

>  <TORSDO>
F 0

$$$$
=
 OpenBabel11052418293D

 27 32  0  0  0  0  0  0  0  0999 V2000
  190.0810  175.3690  142.9340 C   0  0  0  0  0  0  0  0  0  0  0  0
  189.0630  176.1120  143.4590 C   0  0  0  0  0  0  0  0  0  0  0  0
  187.5780  175.5030  141.7380 N   0  0  0  0  0  0  0  0  0  0  0  0
  186.3300  178.4850  145.4290 C   0  0  0  0  0  3  0  0  0  0  0  0
  185.0340  178.6310  144.9250 C   0  0  0  0  0  0  0  0  0  0  0  0
  189.4120  176.7570  144.6030 C   0  0  0  0  0  0  0  0  0  0  0  0
  192.9710  176.2800  145.8800 C   0  0  0  0  0  0  0  0  0  0  0  0
  185.5660  177.1650  143.0640 C   0  0  0  0  0  3  0  0  0  0  0  0
  191.2180  175.5610  143.8470 C   0  0  0  0  0  0  0  0  0  0  0  0
  189.3110  173.2560  139.3950 C   0  0  0  0  0  0  0  0  0  0  0  0
  191.6610  176.7890  145.9020 C   0  0  0  0  0  3  0  0  0  0  0  0
  184.6550  177.9750  143.7480 C   0  0  0  0  0  3  0  0  0  0  0  0
  189.0470  172.5590  138.2230 O   0  0  0  0  0  1  0  0  0  0  0  0
  186.8670  177.0070  143.5550 C   0  0  0  0  0  0  0  0  0  0  0  0
  190.8050  176.4120  144.8710 C   0  0  0  0  0  0  0  0  0  0  0  0
  184.1410  179.4130  145.5770 F   0  0  0  0  0  0  0  0  0  0  0  0
  187.2570  177.6810  144.7640 C   0  0  0  0  0  0  0  0  0  0  0  0
  189.8650  174.6500  141.7560 C   0  0  0  0  0  0  0  0  0  0  0  0
  187.8130  176.1990  142.8920 C   0  0  0  0  0  0  0  0  0  0  0  0
  188.3080  174.0340  139.9820 C   0  0  0  0  0  3  0  0  0  0  0  0
  188.5280  177.5430  145.2680 N   0  0  0  0  0  0  0  0  0  0  0  0
  190.5790  173.1750  139.9820 C   0  0  0  0  0  3  0  0  0  0  0  0
  193.8600  176.6270  146.8880 O   0  0  0  0  0  1  0  0  0  0  0  0
  190.8600  173.8710  141.1610 C   0  0  0  0  0  3  0  0  0  0  0  0
  193.3910  175.4160  144.8440 C   0  0  0  0  0  3  0  0  0  0  0  0
  188.5670  174.7380  141.1610 C   0  0  0  0  0  0  0  0  0  0  0  0
  192.5120  175.0460  143.8110 C   0  0  0  0  0  3  0  0  0  0  0  0
  1  2  1  0  0  0  0
  1  9  1  0  0  0  0
  2  6  1  0  0  0  0
  3 19  1  0  0  0  0
  5  4  1  0  0  0  0
  5 16  1  0  0  0  0
  6 15  1  0  0  0  0
  6 21  2  0  0  0  0
  7 11  1  0  0  0  0
  7 23  1  0  0  0  0
  8 14  2  0  0  0  0
  8 12  1  0  0  0  0
  9 15  1  0  0  0  0
 10 22  1  0  0  0  0
 10 20  2  0  0  0  0
 12  5  2  0  0  0  0
 13 10  1  0  0  0  0
 14 17  1  0  0  0  0
 15 11  2  0  0  0  0
 17 21  1  0  0  0  0
 17  4  2  0  0  0  0
 18  1  2  0  0  0  0
 19  2  2  0  0  0  0
 19 14  1  0  0  0  0
 20 26  1  0  0  0  0
 22 24  2  0  0  0  0
 24 18  1  0  0  0  0
 25  7  2  0  0  0  0
 26  3  2  0  0  0  0
 26 18  1  0  0  0  0
 27  9  2  0  0  0  0
 27 25  1  0  0  0  0
M  END
>  <MODEL>
8

>  <REMARK>
 VINA RESULT:      -8.0      1.423      5.232
  Name = 
  0 active torsions:
  status: ('A' for Active; 'I' for Inactive)
                            x       y       z     vdW  Elec       q    Type
                         _______ _______ _______ _____ _____    ______ ____

>  <TORSDO>
F 0

$$$$
=
 OpenBabel11052418293D

 27 32  0  0  0  0  0  0  0  0999 V2000
  189.7220  176.0780  144.5800 C   0  0  0  0  0  0  0  0  0  0  0  0
  189.4650  175.5500  143.3470 C   0  0  0  0  0  0  0  0  0  0  0  0
  191.6900  174.8390  143.0620 N   0  0  0  0  0  0  0  0  0  0  0  0
  188.1890  174.1210  139.6980 C   0  0  0  0  0  3  0  0  0  0  0  0
  189.0880  173.4770  138.8430 C   0  0  0  0  0  0  0  0  0  0  0  0
  188.1690  175.7000  142.9660 C   0  0  0  0  0  0  0  0  0  0  0  0
  185.8140  177.4710  145.3820 C   0  0  0  0  0  0  0  0  0  0  0  0
  190.8800  173.7900  140.4510 C   0  0  0  0  0  3  0  0  0  0  0  0
  188.4410  176.6320  145.0450 C   0  0  0  0  0  0  0  0  0  0  0  0
  193.6420  175.7720  146.0380 C   0  0  0  0  0  0  0  0  0  0  0  0
  186.1670  176.8080  144.1940 C   0  0  0  0  0  3  0  0  0  0  0  0
  190.4260  173.3130  139.2180 C   0  0  0  0  0  3  0  0  0  0  0  0
  194.9420  175.6650  146.5130 O   0  0  0  0  0  1  0  0  0  0  0  0
  189.9940  174.4360  141.3190 C   0  0  0  0  0  0  0  0  0  0  0  0
  187.4900  176.3990  144.0530 C   0  0  0  0  0  0  0  0  0  0  0  0
  188.6620  173.0100  137.6450 F   0  0  0  0  0  0  0  0  0  0  0  0
  188.6190  174.6060  140.9350 C   0  0  0  0  0  0  0  0  0  0  0  0
  191.0150  175.9960  145.1010 C   0  0  0  0  0  0  0  0  0  0  0  0
  190.4170  174.9310  142.5700 C   0  0  0  0  0  0  0  0  0  0  0  0
  193.3160  175.2500  144.7820 C   0  0  0  0  0  3  0  0  0  0  0  0
  187.7280  175.2370  141.7690 N   0  0  0  0  0  0  0  0  0  0  0  0
  192.6650  176.3990  146.8190 C   0  0  0  0  0  3  0  0  0  0  0  0
  184.5060  177.8980  145.5680 O   0  0  0  0  0  1  0  0  0  0  0  0
  191.3510  176.5140  146.3550 C   0  0  0  0  0  3  0  0  0  0  0  0
  186.7760  177.7090  146.3880 C   0  0  0  0  0  3  0  0  0  0  0  0
  192.0090  175.3540  144.2980 C   0  0  0  0  0  0  0  0  0  0  0  0
  188.1080  177.2870  146.2270 C   0  0  0  0  0  3  0  0  0  0  0  0
  1  9  1  0  0  0  0
  1 18  1  0  0  0  0
  2  1  2  0  0  0  0
  3 26  1  0  0  0  0
  4 17  1  0  0  0  0
  5 12  1  0  0  0  0
  5  4  2  0  0  0  0
  6  2  1  0  0  0  0
  6 15  1  0  0  0  0
  7 23  1  0  0  0  0
  7 25  1  0  0  0  0
  8 14  1  0  0  0  0
  9 27  1  0  0  0  0
 10 13  1  0  0  0  0
 10 22  1  0  0  0  0
 11  7  2  0  0  0  0
 12  8  2  0  0  0  0
 14 19  1  0  0  0  0
 15 11  1  0  0  0  0
 15  9  2  0  0  0  0
 16  5  1  0  0  0  0
 17 14  2  0  0  0  0
 17 21  1  0  0  0  0
 18 24  1  0  0  0  0
 19  3  2  0  0  0  0
 19  2  1  0  0  0  0
 20 10  2  0  0  0  0
 21  6  2  0  0  0  0
 24 22  2  0  0  0  0
 26 20  1  0  0  0  0
 26 18  2  0  0  0  0
 27 25  2  0  0  0  0
M  END
>  <MODEL>
9

>  <REMARK>
 VINA RESULT:      -8.0      3.200      5.577
  Name = 
  0 active torsions:
  status: ('A' for Active; 'I' for Inactive)
                            x       y       z     vdW  Elec       q    Type
                         _______ _______ _______ _____ _____    ______ ____

>  <TORSDO>
F 0

$$$$
