=
 OpenBabel11052418433D

 34 37  0  0  1  0  0  0  0  0999 V2000
  193.4170  176.0550  145.4210 C   0  0  1  0  0  3  0  0  0  0  0  0
  188.5580  176.3290  145.1620 C   0  0  2  0  0  3  0  0  0  0  0  0
  191.6960  174.6210  142.7280 C   0  0  1  0  0  3  0  0  0  0  0  0
  190.1170  178.0380  143.2560 O   0  0  0  0  0  1  0  0  0  0  0  0
  195.0760  174.4180  146.1310 O   0  0  0  0  0  1  0  0  0  0  0  0
  191.0040  175.7240  144.9070 N   0  0  0  0  0  0  0  0  0  0  0  0
  191.9630  176.3100  145.8590 C   0  0  1  0  0  3  0  0  0  0  0  0
  187.8470  176.1440  143.8250 C   0  0  0  0  0  2  0  0  0  0  0  0
  190.1840  176.7440  142.7390 C   0  0  2  0  0  3  0  0  0  0  0  0
  194.3740  177.0280  146.1020 C   0  0  0  0  0  1  0  0  0  0  0  0
  189.4960  174.2120  145.8490 O   0  0  0  0  0  0  0  0  0  0  0  0
  192.4070  173.6260  143.6680 C   0  0  1  0  0  0  0  0  0  0  0  0
  193.8150  174.5730  145.5480 C   0  0  2  0  0  3  0  0  0  0  0  0
  189.6910  175.3520  145.3490 C   0  0  0  0  0  0  0  0  0  0  0  0
  191.5850  172.6250  144.3810 C   0  0  0  0  0  2  0  0  0  0  0  0
  192.2870  172.3020  143.2060 O   0  0  0  0  0  0  0  0  0  0  0  0
  188.7760  176.1230  142.6000 C   0  0  1  0  0  3  0  0  0  0  0  0
  191.2640  175.9130  143.4690 C   0  0  2  0  0  3  0  0  0  0  0  0
  193.8170  173.8970  144.1840 C   0  0  0  0  0  2  0  0  0  0  0  0
  194.8320  175.8740  141.0420 C   0  0  0  0  0  0  0  0  0  0  0  0
  194.8830  175.0540  139.8170 C   0  0  0  0  0  3  0  0  0  0  0  0
  192.5840  174.9360  141.4980 C   0  0  1  0  0  3  0  0  0  0  0  0
  194.0240  174.0440  139.6500 C   0  0  0  0  0  3  0  0  0  0  0  0
  193.7780  175.7900  141.8610 C   0  0  0  0  0  3  0  0  0  0  0  0
  193.0600  173.6820  140.7480 C   0  0  0  0  0  2  0  0  0  0  0  0
  195.9600  176.7800  141.3770 C   0  0  0  0  0  1  0  0  0  0  0  0
  187.9080  177.5550  147.1550 C   0  0  0  0  0  1  0  0  0  0  0  0
  187.6010  176.4310  146.2780 N   0  0  0  0  0  0  0  0  0  0  0  0
  186.2570  176.6200  145.7540 C   0  0  0  0  0  1  0  0  0  0  0  0
  188.7450  174.8160  141.8730 C   0  0  0  0  0  0  0  0  0  0  0  0
  188.4800  173.6470  142.5740 O   0  0  0  0  0  1  0  0  0  0  0  0
  188.9250  174.7690  140.6270 O   0  0  0  0  0  0  0  0  0  0  0  0
  191.7160  175.8450  147.2990 C   0  0  0  0  0  2  0  0  0  0  0  0
  191.3780  177.0260  148.1870 C   0  0  0  0  0  1  0  0  0  0  0  0
  1 13  1  0  0  0  0
  1  7  1  0  0  0  0
  1 10  1  1  0  0  0
  2 14  1  0  0  0  0
  2 28  1  1  0  0  0
  3 22  1  6  0  0  0
  3 18  1  0  0  0  0
  3 12  1  0  0  0  0
  6 14  1  0  0  0  0
  6  7  1  0  0  0  0
  7 33  1  1  0  0  0
  8  2  1  0  0  0  0
  9  4  1  1  0  0  0
  9 18  1  0  0  0  0
 12 19  1  1  0  0  0
 12 15  1  0  0  0  0
 13  5  1  6  0  0  0
 14 11  2  0  0  0  0
 16 12  1  0  0  0  0
 16 15  1  0  0  0  0
 17 30  1  1  0  0  0
 17  9  1  0  0  0  0
 17  8  1  0  0  0  0
 18  6  1  1  0  0  0
 19 13  1  0  0  0  0
 20 26  1  0  0  0  0
 20 24  2  0  0  0  0
 21 20  1  0  0  0  0
 22 25  1  1  0  0  0
 22 24  1  0  0  0  0
 23 21  2  0  0  0  0
 23 25  1  0  0  0  0
 28 27  1  0  0  0  0
 29 28  1  0  0  0  0
 30 31  1  0  0  0  0
 32 30  2  0  0  0  0
 33 34  1  0  0  0  0
M  END
>  <MODEL>
1

>  <REMARK>
 VINA RESULT:      -7.1      0.000      0.000
  Name = 
  4 active torsions:
  status: ('A' for Active; 'I' for Inactive)
    1  A    between atoms: C_2  and  C_15
    2  A    between atoms: C_3  and  N_14
    3  A    between atoms: C_4  and  C_12
    4  A    between atoms: C_13  and  C_29
                            x       y       z     vdW  Elec       q    Type
                         _______ _______ _______ _____ _____    ______ ____

>  <TORSDO>
F 4

$$$$
=
 OpenBabel11052418433D

 34 37  0  0  1  0  0  0  0  0999 V2000
  193.2870  173.6100  144.9000 C   0  0  1  0  0  3  0  0  0  0  0  0
  190.6610  172.3830  140.9830 C   0  0  2  0  0  3  0  0  0  0  0  0
  190.4270  175.4380  144.0330 C   0  0  1  0  0  3  0  0  0  0  0  0
  189.4630  171.7790  143.6630 O   0  0  0  0  0  1  0  0  0  0  0  0
  195.0080  175.2440  145.4550 O   0  0  0  0  0  1  0  0  0  0  0  0
  191.7430  173.5570  142.9500 N   0  0  0  0  0  0  0  0  0  0  0  0
  192.9090  172.9140  143.5800 C   0  0  1  0  0  3  0  0  0  0  0  0
  189.2100  172.8370  140.8550 C   0  0  0  0  0  2  0  0  0  0  0  0
  189.3000  173.1530  143.4810 C   0  0  2  0  0  3  0  0  0  0  0  0
  194.1470  172.7010  145.7730 C   0  0  0  0  0  1  0  0  0  0  0  0
  192.1050  174.3070  140.7690 O   0  0  0  0  0  0  0  0  0  0  0  0
  191.7630  176.1980  143.9130 C   0  0  1  0  0  0  0  0  0  0  0  0
  193.8710  175.0170  144.6750 C   0  0  2  0  0  3  0  0  0  0  0  0
  191.5560  173.4660  141.5300 C   0  0  0  0  0  0  0  0  0  0  0  0
  192.1650  176.7040  142.5830 C   0  0  0  0  0  2  0  0  0  0  0  0
  191.5630  177.5400  143.5400 O   0  0  0  0  0  0  0  0  0  0  0  0
  188.6180  173.4610  142.1300 C   0  0  1  0  0  3  0  0  0  0  0  0
  190.6050  173.9130  143.8150 C   0  0  2  0  0  3  0  0  0  0  0  0
  192.8350  176.0880  144.9930 C   0  0  0  0  0  2  0  0  0  0  0  0
  187.5060  176.3970  146.2220 C   0  0  0  0  0  0  0  0  0  0  0  0
  187.8170  175.7050  147.4870 C   0  0  0  0  0  3  0  0  0  0  0  0
  189.7470  175.7460  145.3910 C   0  0  1  0  0  3  0  0  0  0  0  0
  188.8400  174.8480  147.5480 C   0  0  0  0  0  3  0  0  0  0  0  0
  188.3860  176.3820  145.2160 C   0  0  0  0  0  3  0  0  0  0  0  0
  189.6250  174.5180  146.3080 C   0  0  0  0  0  2  0  0  0  0  0  0
  186.2050  177.0960  146.0590 C   0  0  0  0  0  1  0  0  0  0  0  0
  191.7070  170.4040  140.0410 C   0  0  0  0  0  1  0  0  0  0  0  0
  191.1320  171.7130  139.7570 N   0  0  0  0  0  0  0  0  0  0  0  0
  190.0160  171.5290  138.8420 C   0  0  0  0  0  1  0  0  0  0  0  0
  188.2300  174.8950  141.9450 C   0  0  0  0  0  0  0  0  0  0  0  0
  187.0650  175.3720  142.5310 O   0  0  0  0  0  1  0  0  0  0  0  0
  188.9650  175.6800  141.2890 O   0  0  0  0  0  0  0  0  0  0  0  0
  194.1080  172.8140  142.6300 C   0  0  0  0  0  2  0  0  0  0  0  0
  194.4640  171.3630  142.3760 C   0  0  0  0  0  1  0  0  0  0  0  0
  1 10  1  6  0  0  0
  2 28  1  6  0  0  0
  2 14  1  0  0  0  0
  3 22  1  1  0  0  0
  6  7  1  0  0  0  0
  7 33  1  6  0  0  0
  7  1  1  0  0  0  0
  8  2  1  0  0  0  0
  8 17  1  0  0  0  0
  9  4  1  6  0  0  0
  9 18  1  0  0  0  0
 11 14  2  0  0  0  0
 12 15  1  6  0  0  0
 12  3  1  0  0  0  0
 12 19  1  0  0  0  0
 13  1  1  0  0  0  0
 13 19  1  0  0  0  0
 13  5  1  1  0  0  0
 14  6  1  0  0  0  0
 15 16  1  0  0  0  0
 16 12  1  0  0  0  0
 17 30  1  6  0  0  0
 17  9  1  0  0  0  0
 18  6  1  6  0  0  0
 18  3  1  0  0  0  0
 20 21  1  0  0  0  0
 21 23  2  0  0  0  0
 22 24  1  6  0  0  0
 22 25  1  0  0  0  0
 24 20  2  0  0  0  0
 25 23  1  0  0  0  0
 26 20  1  0  0  0  0
 28 27  1  0  0  0  0
 29 28  1  0  0  0  0
 30 31  1  0  0  0  0
 32 30  2  0  0  0  0
 34 33  1  0  0  0  0
M  END
>  <MODEL>
2

>  <REMARK>
 VINA RESULT:      -7.0      2.291      5.950
  Name = 
  4 active torsions:
  status: ('A' for Active; 'I' for Inactive)
    1  A    between atoms: C_2  and  C_15
    2  A    between atoms: C_3  and  N_14
    3  A    between atoms: C_4  and  C_12
    4  A    between atoms: C_13  and  C_29
                            x       y       z     vdW  Elec       q    Type
                         _______ _______ _______ _____ _____    ______ ____

>  <TORSDO>
F 4

$$$$
=
 OpenBabel11052418433D

 34 37  0  0  1  0  0  0  0  0999 V2000
  190.7440  173.6980  140.8120 C   0  0  1  0  0  3  0  0  0  0  0  0
  194.3740  175.6030  143.4470 C   0  0  2  0  0  3  0  0  0  0  0  0
  190.2520  174.5270  144.1800 C   0  0  1  0  0  3  0  0  0  0  0  0
  192.1490  177.4530  142.6660 O   0  0  0  0  0  1  0  0  0  0  0  0
  189.7370  171.5030  140.4870 O   0  0  0  0  0  1  0  0  0  0  0  0
  192.2590  174.4770  142.6260 N   0  0  0  0  0  0  0  0  0  0  0  0
  192.1700  174.1350  141.1960 C   0  0  1  0  0  3  0  0  0  0  0  0
  194.0720  176.3850  144.7210 C   0  0  0  0  0  2  0  0  0  0  0  0
  191.6440  176.6800  143.7130 C   0  0  2  0  0  3  0  0  0  0  0  0
  190.5250  173.8030  139.3060 C   0  0  0  0  0  1  0  0  0  0  0  0
  193.8630  173.2720  143.8180 O   0  0  0  0  0  0  0  0  0  0  0  0
  190.1880  173.0220  143.8500 C   0  0  1  0  0  0  0  0  0  0  0  0
  190.3660  172.3340  141.4180 C   0  0  2  0  0  3  0  0  0  0  0  0
  193.5150  174.3720  143.3110 C   0  0  0  0  0  0  0  0  0  0  0  0
  191.1700  172.1200  144.4900 C   0  0  0  0  0  2  0  0  0  0  0  0
  189.8600  172.2570  144.9840 O   0  0  0  0  0  0  0  0  0  0  0  0
  192.5860  176.7130  144.9370 C   0  0  1  0  0  3  0  0  0  0  0  0
  191.1790  175.2960  143.2040 C   0  0  2  0  0  3  0  0  0  0  0  0
  189.4450  172.5140  142.6170 C   0  0  0  0  0  2  0  0  0  0  0  0
  187.5160  176.6640  145.6590 C   0  0  0  0  0  0  0  0  0  0  0  0
  186.7520  177.0720  144.4650 C   0  0  0  0  0  3  0  0  0  0  0  0
  188.8280  175.1360  144.2170 C   0  0  1  0  0  3  0  0  0  0  0  0
  187.2140  176.7880  143.2440 C   0  0  0  0  0  3  0  0  0  0  0  0
  188.5220  175.7920  145.5450 C   0  0  0  0  0  3  0  0  0  0  0  0
  188.5580  176.1320  143.0780 C   0  0  0  0  0  2  0  0  0  0  0  0
  187.1800  177.2380  146.9870 C   0  0  0  0  0  1  0  0  0  0  0  0
  196.4670  176.5920  142.7080 C   0  0  0  0  0  1  0  0  0  0  0  0
  195.8230  175.4050  143.2590 N   0  0  0  0  0  0  0  0  0  0  0  0
  196.4450  175.1060  144.5400 C   0  0  0  0  0  1  0  0  0  0  0  0
  192.0250  176.0720  146.1670 C   0  0  0  0  0  0  0  0  0  0  0  0
  192.4670  174.8120  146.5470 O   0  0  0  0  0  0  0  0  0  0  0  0
  191.1780  176.6760  146.8780 O   0  0  0  0  0  1  0  0  0  0  0  0
  193.2130  173.0920  140.7770 C   0  0  0  0  0  2  0  0  0  0  0  0
  194.2180  173.7020  139.8220 C   0  0  0  0  0  1  0  0  0  0  0  0
  1 10  1  6  0  0  0
  1  7  1  0  0  0  0
  1 13  1  0  0  0  0
  2 28  1  1  0  0  0
  2  8  1  0  0  0  0
  3 22  1  6  0  0  0
  6 14  1  0  0  0  0
  7 33  1  1  0  0  0
  7  6  1  0  0  0  0
  8 17  1  0  0  0  0
  9  4  1  6  0  0  0
  9 17  1  0  0  0  0
 12 19  1  6  0  0  0
 12  3  1  0  0  0  0
 12 15  1  0  0  0  0
 12 16  1  0  0  0  0
 13  5  1  6  0  0  0
 13 19  1  0  0  0  0
 14  2  1  0  0  0  0
 14 11  2  0  0  0  0
 15 16  1  0  0  0  0
 17 30  1  1  0  0  0
 18  6  1  1  0  0  0
 18  9  1  0  0  0  0
 18  3  1  0  0  0  0
 20 26  1  0  0  0  0
 21 20  1  0  0  0  0
 22 25  1  6  0  0  0
 22 24  1  0  0  0  0
 23 21  2  0  0  0  0
 24 20  2  0  0  0  0
 25 23  1  0  0  0  0
 27 28  1  0  0  0  0
 28 29  1  0  0  0  0
 30 31  2  0  0  0  0
 30 32  1  0  0  0  0
 34 33  1  0  0  0  0
M  END
>  <MODEL>
3

>  <REMARK>
 VINA RESULT:      -7.0      2.008      6.427
  Name = 
  4 active torsions:
  status: ('A' for Active; 'I' for Inactive)
    1  A    between atoms: C_2  and  C_15
    2  A    between atoms: C_3  and  N_14
    3  A    between atoms: C_4  and  C_12
    4  A    between atoms: C_13  and  C_29
                            x       y       z     vdW  Elec       q    Type
                         _______ _______ _______ _____ _____    ______ ____

>  <TORSDO>
F 4

$$$$
=
 OpenBabel11052418433D

 34 37  0  0  1  0  0  0  0  0999 V2000
  191.3220  173.7530  140.4720 C   0  0  1  0  0  3  0  0  0  0  0  0
  193.1570  175.6680  144.5600 C   0  0  2  0  0  3  0  0  0  0  0  0
  189.2160  174.6030  143.1400 C   0  0  1  0  0  3  0  0  0  0  0  0
  191.6280  177.5170  142.7640 O   0  0  0  0  0  1  0  0  0  0  0  0
  190.6020  171.5590  139.6960 O   0  0  0  0  0  1  0  0  0  0  0  0
  191.7310  174.5410  142.7970 N   0  0  0  0  0  0  0  0  0  0  0  0
  192.3660  174.1900  141.5160 C   0  0  1  0  0  3  0  0  0  0  0  0
  192.2620  176.4570  145.5100 C   0  0  0  0  0  2  0  0  0  0  0  0
  190.6640  176.7510  143.4220 C   0  0  2  0  0  3  0  0  0  0  0  0
  191.8850  173.8510  139.0580 C   0  0  0  0  0  1  0  0  0  0  0  0
  192.5190  173.3400  144.6370 O   0  0  0  0  0  0  0  0  0  0  0  0
  189.3190  173.0960  142.8280 C   0  0  1  0  0  0  0  0  0  0  0  0
  190.6850  172.3940  140.8140 C   0  0  2  0  0  3  0  0  0  0  0  0
  192.4760  174.4370  144.0190 C   0  0  0  0  0  0  0  0  0  0  0  0
  189.8450  172.1960  143.8780 C   0  0  0  0  0  2  0  0  0  0  0  0
  188.4640  172.3380  143.6500 O   0  0  0  0  0  0  0  0  0  0  0  0
  190.8690  176.7900  144.9530 C   0  0  1  0  0  3  0  0  0  0  0  0
  190.5100  175.3650  142.7540 C   0  0  2  0  0  3  0  0  0  0  0  0
  189.2880  172.5820  141.3910 C   0  0  0  0  0  2  0  0  0  0  0  0
  186.1870  176.8500  143.0010 C   0  0  0  0  0  0  0  0  0  0  0  0
  186.0920  177.1660  141.5630 C   0  0  0  0  0  3  0  0  0  0  0  0
  187.9660  175.2150  142.4580 C   0  0  1  0  0  3  0  0  0  0  0  0
  187.0650  176.7900  140.7290 C   0  0  0  0  0  3  0  0  0  0  0  0
  187.0950  175.9710  143.4350 C   0  0  0  0  0  3  0  0  0  0  0  0
  188.3030  176.1220  141.2630 C   0  0  0  0  0  2  0  0  0  0  0  0
  185.2860  177.5250  143.9700 C   0  0  0  0  0  1  0  0  0  0  0  0
  195.5340  176.1030  144.3090 C   0  0  0  0  0  1  0  0  0  0  0  0
  194.5050  175.4660  145.1230 N   0  0  0  0  0  0  0  0  0  0  0  0
  194.5670  176.0380  146.4600 C   0  0  0  0  0  1  0  0  0  0  0  0
  189.7650  176.1570  145.7400 C   0  0  0  0  0  0  0  0  0  0  0  0
  188.5960  176.8680  145.9770 O   0  0  0  0  0  0  0  0  0  0  0  0
  189.8730  174.9760  146.1650 O   0  0  0  0  0  1  0  0  0  0  0  0
  193.4740  173.1430  141.6790 C   0  0  0  0  0  2  0  0  0  0  0  0
  194.8270  173.7500  141.3650 C   0  0  0  0  0  1  0  0  0  0  0  0
  1 10  1  6  0  0  0
  1 13  1  0  0  0  0
  1  7  1  0  0  0  0
  2 28  1  1  0  0  0
  2  8  1  0  0  0  0
  3 22  1  6  0  0  0
  6 14  1  0  0  0  0
  7 33  1  1  0  0  0
  7  6  1  0  0  0  0
  9  4  1  6  0  0  0
  9 17  1  0  0  0  0
 12 19  1  6  0  0  0
 12  3  1  0  0  0  0
 12 16  1  0  0  0  0
 12 15  1  0  0  0  0
 13  5  1  6  0  0  0
 13 19  1  0  0  0  0
 14  2  1  0  0  0  0
 14 11  2  0  0  0  0
 16 15  1  0  0  0  0
 17  8  1  0  0  0  0
 17 30  1  1  0  0  0
 18  6  1  1  0  0  0
 18  3  1  0  0  0  0
 18  9  1  0  0  0  0
 20 24  2  0  0  0  0
 20 26  1  0  0  0  0
 21 20  1  0  0  0  0
 22 25  1  6  0  0  0
 22 24  1  0  0  0  0
 23 25  1  0  0  0  0
 23 21  2  0  0  0  0
 27 28  1  0  0  0  0
 28 29  1  0  0  0  0
 30 31  2  0  0  0  0
 30 32  1  0  0  0  0
 34 33  1  0  0  0  0
M  END
>  <MODEL>
4

>  <REMARK>
 VINA RESULT:      -6.8      2.075      5.928
  Name = 
  4 active torsions:
  status: ('A' for Active; 'I' for Inactive)
    1  A    between atoms: C_2  and  C_15
    2  A    between atoms: C_3  and  N_14
    3  A    between atoms: C_4  and  C_12
    4  A    between atoms: C_13  and  C_29
                            x       y       z     vdW  Elec       q    Type
                         _______ _______ _______ _____ _____    ______ ____

>  <TORSDO>
F 4

$$$$
=
 OpenBabel11052418433D

 34 37  0  0  1  0  0  0  0  0999 V2000
  189.3820  174.3490  141.3790 C   0  0  1  0  0  3  0  0  0  0  0  0
  194.0740  175.0800  142.4750 C   0  0  2  0  0  3  0  0  0  0  0  0
  190.3580  174.9880  144.6820 C   0  0  1  0  0  3  0  0  0  0  0  0
  192.2760  177.4770  142.5420 O   0  0  0  0  0  1  0  0  0  0  0  0
  187.7940  172.5040  141.4730 O   0  0  0  0  0  1  0  0  0  0  0  0
  191.5910  174.5790  142.5010 N   0  0  0  0  0  0  0  0  0  0  0  0
  190.9120  174.3900  141.2090 C   0  0  1  0  0  3  0  0  0  0  0  0
  194.4610  175.8020  143.7620 C   0  0  0  0  0  2  0  0  0  0  0  0
  191.9970  176.7670  143.7110 C   0  0  2  0  0  3  0  0  0  0  0  0
  188.6740  174.6310  140.0580 C   0  0  0  0  0  1  0  0  0  0  0  0
  193.1450  172.9220  143.0370 O   0  0  0  0  0  0  0  0  0  0  0  0
  189.7940  173.5780  144.4170 C   0  0  1  0  0  0  0  0  0  0  0  0
  188.9060  173.0740  142.0990 C   0  0  2  0  0  3  0  0  0  0  0  0
  192.9360  174.1120  142.6790 C   0  0  0  0  0  0  0  0  0  0  0  0
  190.6700  172.4130  144.6640 C   0  0  0  0  0  2  0  0  0  0  0  0
  189.7060  172.8250  145.6020 O   0  0  0  0  0  0  0  0  0  0  0  0
  193.2890  176.4650  144.5030 C   0  0  1  0  0  3  0  0  0  0  0  0
  191.0400  175.5870  143.4250 C   0  0  2  0  0  3  0  0  0  0  0  0
  188.5540  173.3730  143.5500 C   0  0  0  0  0  2  0  0  0  0  0  0
  186.9660  176.6410  144.5980 C   0  0  0  0  0  0  0  0  0  0  0  0
  186.6710  176.8320  146.0310 C   0  0  0  0  0  3  0  0  0  0  0  0
  189.2510  175.9230  145.2320 C   0  0  1  0  0  3  0  0  0  0  0  0
  187.4730  176.2990  146.9580 C   0  0  0  0  0  3  0  0  0  0  0  0
  188.1570  176.1690  144.2170 C   0  0  0  0  0  3  0  0  0  0  0  0
  188.6280  175.4270  146.5470 C   0  0  0  0  0  2  0  0  0  0  0  0
  185.9310  176.9520  143.5790 C   0  0  0  0  0  1  0  0  0  0  0  0
  195.3270  175.0240  140.3950 C   0  0  0  0  0  1  0  0  0  0  0  0
  195.2560  174.5490  141.7720 N   0  0  0  0  0  0  0  0  0  0  0  0
  196.4650  174.9740  142.4600 C   0  0  0  0  0  1  0  0  0  0  0  0
  193.0590  175.8810  145.8610 C   0  0  0  0  0  0  0  0  0  0  0  0
  193.4380  174.5690  146.1170 O   0  0  0  0  0  0  0  0  0  0  0  0
  192.5530  176.5740  146.7830 O   0  0  0  0  0  1  0  0  0  0  0  0
  191.4280  173.1620  140.4490 C   0  0  0  0  0  2  0  0  0  0  0  0
  192.0820  173.5810  139.1470 C   0  0  0  0  0  1  0  0  0  0  0  0
  1 10  1  6  0  0  0
  1 13  1  0  0  0  0
  2 28  1  1  0  0  0
  2 14  1  0  0  0  0
  2  8  1  0  0  0  0
  3 22  1  6  0  0  0
  6 14  1  0  0  0  0
  7 33  1  1  0  0  0
  7  1  1  0  0  0  0
  7  6  1  0  0  0  0
  8 17  1  0  0  0  0
  9  4  1  6  0  0  0
  9 17  1  0  0  0  0
 12 19  1  6  0  0  0
 12 15  1  0  0  0  0
 12  3  1  0  0  0  0
 12 16  1  0  0  0  0
 13  5  1  6  0  0  0
 13 19  1  0  0  0  0
 14 11  2  0  0  0  0
 15 16  1  0  0  0  0
 17 30  1  1  0  0  0
 18  6  1  1  0  0  0
 18  9  1  0  0  0  0
 18  3  1  0  0  0  0
 20 21  1  0  0  0  0
 21 23  2  0  0  0  0
 22 24  1  6  0  0  0
 22 25  1  0  0  0  0
 24 20  2  0  0  0  0
 25 23  1  0  0  0  0
 26 20  1  0  0  0  0
 27 28  1  0  0  0  0
 28 29  1  0  0  0  0
 30 31  2  0  0  0  0
 30 32  1  0  0  0  0
 34 33  1  0  0  0  0
M  END
>  <MODEL>
5

>  <REMARK>
 VINA RESULT:      -6.3      1.850      6.794
  Name = 
  4 active torsions:
  status: ('A' for Active; 'I' for Inactive)
    1  A    between atoms: C_2  and  C_15
    2  A    between atoms: C_3  and  N_14
    3  A    between atoms: C_4  and  C_12
    4  A    between atoms: C_13  and  C_29
                            x       y       z     vdW  Elec       q    Type
                         _______ _______ _______ _____ _____    ______ ____

>  <TORSDO>
F 4

$$$$
=
 OpenBabel11052418433D

 34 37  0  0  1  0  0  0  0  0999 V2000
  191.2290  172.1030  142.5400 C   0  0  1  0  0  3  0  0  0  0  0  0
  189.5400  176.2970  144.3600 C   0  0  2  0  0  3  0  0  0  0  0  0
  193.3290  174.2140  144.3860 C   0  0  1  0  0  3  0  0  0  0  0  0
  190.0530  174.0800  146.3110 O   0  0  0  0  0  1  0  0  0  0  0  0
  192.5070  171.3900  140.5920 O   0  0  0  0  0  1  0  0  0  0  0  0
  190.9590  174.3870  143.4910 N   0  0  0  0  0  0  0  0  0  0  0  0
  190.2810  173.2930  142.7760 C   0  0  1  0  0  3  0  0  0  0  0  0
  190.2600  176.9780  145.5200 C   0  0  0  0  0  2  0  0  0  0  0  0
  191.3100  174.5950  145.9910 C   0  0  2  0  0  3  0  0  0  0  0  0
  190.4460  170.8270  142.2490 C   0  0  0  0  0  1  0  0  0  0  0  0
  190.9240  176.4430  142.3870 O   0  0  0  0  0  0  0  0  0  0  0  0
  193.6870  174.0590  142.8950 C   0  0  1  0  0  0  0  0  0  0  0  0
  192.3300  172.4260  141.5130 C   0  0  2  0  0  3  0  0  0  0  0  0
  190.4980  175.7370  143.3390 C   0  0  0  0  0  0  0  0  0  0  0  0
  193.6680  175.2650  142.0390 C   0  0  0  0  0  2  0  0  0  0  0  0
  194.8660  174.7550  142.5710 O   0  0  0  0  0  0  0  0  0  0  0  0
  191.3530  176.1270  146.1870 C   0  0  1  0  0  3  0  0  0  0  0  0
  191.8100  174.0310  144.6400 C   0  0  2  0  0  3  0  0  0  0  0  0
  193.6560  172.6940  142.2120 C   0  0  0  0  0  2  0  0  0  0  0  0
  194.5930  170.8100  145.4150 C   0  0  0  0  0  0  0  0  0  0  0  0
  195.9390  171.1160  145.9350 C   0  0  0  0  0  3  0  0  0  0  0  0
  194.1740  173.2460  145.2520 C   0  0  1  0  0  3  0  0  0  0  0  0
  196.4480  172.3440  145.7980 C   0  0  0  0  0  3  0  0  0  0  0  0
  193.7760  171.8020  145.0470 C   0  0  0  0  0  3  0  0  0  0  0  0
  195.6890  173.3960  145.0350 C   0  0  0  0  0  2  0  0  0  0  0  0
  194.1520  169.3980  145.2800 C   0  0  0  0  0  1  0  0  0  0  0  0
  187.4500  176.3380  143.1230 C   0  0  0  0  0  1  0  0  0  0  0  0
  188.4470  177.1320  143.8320 N   0  0  0  0  0  0  0  0  0  0  0  0
  187.7820  177.8190  144.9290 C   0  0  0  0  0  1  0  0  0  0  0  0
  192.7160  176.7300  146.0530 C   0  0  0  0  0  0  0  0  0  0  0  0
  193.0380  177.4550  144.9130 O   0  0  0  0  0  0  0  0  0  0  0  0
  193.5650  176.6120  146.9760 O   0  0  0  0  0  1  0  0  0  0  0  0
  189.6280  173.7630  141.4700 C   0  0  0  0  0  2  0  0  0  0  0  0
  188.1900  173.2900  141.3970 C   0  0  0  0  0  1  0  0  0  0  0  0
  1 10  1  6  0  0  0
  1  7  1  0  0  0  0
  2 28  1  6  0  0  0
  2  8  1  0  0  0  0
  3 18  1  0  0  0  0
  3 22  1  1  0  0  0
  7 33  1  6  0  0  0
  7  6  1  0  0  0  0
  8 17  1  0  0  0  0
  9 17  1  0  0  0  0
  9  4  1  6  0  0  0
 11 14  2  0  0  0  0
 12 15  1  6  0  0  0
 12  3  1  0  0  0  0
 13  5  1  6  0  0  0
 13 19  1  0  0  0  0
 13  1  1  0  0  0  0
 14  6  1  0  0  0  0
 14  2  1  0  0  0  0
 15 16  1  0  0  0  0
 16 12  1  0  0  0  0
 17 30  1  6  0  0  0
 18  6  1  6  0  0  0
 18  9  1  0  0  0  0
 19 12  1  0  0  0  0
 20 21  1  0  0  0  0
 22 25  1  6  0  0  0
 23 21  2  0  0  0  0
 24 22  1  0  0  0  0
 24 20  2  0  0  0  0
 25 23  1  0  0  0  0
 26 20  1  0  0  0  0
 27 28  1  0  0  0  0
 28 29  1  0  0  0  0
 30 32  1  0  0  0  0
 31 30  2  0  0  0  0
 34 33  1  0  0  0  0
M  END
>  <MODEL>
6

>  <REMARK>
 VINA RESULT:      -6.2      2.226      5.177
  Name = 
  4 active torsions:
  status: ('A' for Active; 'I' for Inactive)
    1  A    between atoms: C_2  and  C_15
    2  A    between atoms: C_3  and  N_14
    3  A    between atoms: C_4  and  C_12
    4  A    between atoms: C_13  and  C_29
                            x       y       z     vdW  Elec       q    Type
                         _______ _______ _______ _____ _____    ______ ____

>  <TORSDO>
F 4

$$$$
=
 OpenBabel11052418433D

 34 37  0  0  1  0  0  0  0  0999 V2000
  189.5110  176.9520  143.1560 C   0  0  1  0  0  3  0  0  0  0  0  0
  190.2780  172.6710  140.9570 C   0  0  2  0  0  3  0  0  0  0  0  0
  191.5470  174.5240  144.6510 C   0  0  1  0  0  3  0  0  0  0  0  0
  192.5640  174.6090  140.9880 O   0  0  0  0  0  1  0  0  0  0  0  0
  188.0670  177.8200  144.9170 O   0  0  0  0  0  1  0  0  0  0  0  0
  190.0570  174.5900  142.5960 N   0  0  0  0  0  0  0  0  0  0  0  0
  189.3390  175.7960  142.1540 C   0  0  1  0  0  3  0  0  0  0  0  0
  191.4860  171.8190  141.3320 C   0  0  0  0  0  2  0  0  0  0  0  0
  192.5150  174.0680  142.2740 C   0  0  2  0  0  3  0  0  0  0  0  0
  189.1940  178.2950  142.5060 C   0  0  0  0  0  1  0  0  0  0  0  0
  188.7260  172.6840  142.8070 O   0  0  0  0  0  0  0  0  0  0  0  0
  190.2310  174.8350  145.3910 C   0  0  1  0  0  0  0  0  0  0  0  0
  188.7700  176.6930  144.4810 C   0  0  2  0  0  3  0  0  0  0  0  0
  189.6190  173.2940  142.1620 C   0  0  0  0  0  0  0  0  0  0  0  0
  189.2520  173.7420  145.5720 C   0  0  0  0  0  2  0  0  0  0  0  0
  190.1360  174.1190  146.5990 O   0  0  0  0  0  0  0  0  0  0  0  0
  192.5160  172.5230  142.2300 C   0  0  1  0  0  3  0  0  0  0  0  0
  191.4230  174.7590  143.1230 C   0  0  2  0  0  3  0  0  0  0  0  0
  189.7450  176.2710  145.5720 C   0  0  0  0  0  2  0  0  0  0  0  0
  195.1270  175.0100  145.7450 C   0  0  0  0  0  0  0  0  0  0  0  0
  195.3180  176.4620  145.5680 C   0  0  0  0  0  3  0  0  0  0  0  0
  192.7190  175.3350  145.2610 C   0  0  1  0  0  3  0  0  0  0  0  0
  194.3730  177.1950  144.9720 C   0  0  0  0  0  3  0  0  0  0  0  0
  193.9210  174.4660  145.5560 C   0  0  0  0  0  3  0  0  0  0  0  0
  193.1510  176.5310  144.3980 C   0  0  0  0  0  2  0  0  0  0  0  0
  196.2800  174.1490  146.1130 C   0  0  0  0  0  1  0  0  0  0  0  0
  188.5490  172.8920  139.2650 C   0  0  0  0  0  1  0  0  0  0  0  0
  189.3820  171.9660  140.0230 N   0  0  0  0  0  0  0  0  0  0  0  0
  190.1730  171.1920  139.0780 C   0  0  0  0  0  1  0  0  0  0  0  0
  192.6620  171.8670  143.5670 C   0  0  0  0  0  0  0  0  0  0  0  0
  191.5350  171.3910  144.2240 O   0  0  0  0  0  1  0  0  0  0  0  0
  193.7980  171.7140  144.0880 O   0  0  0  0  0  0  0  0  0  0  0  0
  187.8600  175.5210  141.8560 C   0  0  0  0  0  2  0  0  0  0  0  0
  187.4410  176.2060  140.5710 C   0  0  0  0  0  1  0  0  0  0  0  0
  1 10  1  6  0  0  0
  1 13  1  0  0  0  0
  2 28  1  1  0  0  0
  2  8  1  0  0  0  0
  2 14  1  0  0  0  0
  3 22  1  1  0  0  0
  3 12  1  0  0  0  0
  7 33  1  1  0  0  0
  7  6  1  0  0  0  0
  7  1  1  0  0  0  0
  8 17  1  0  0  0  0
  9  4  1  6  0  0  0
  9 18  1  0  0  0  0
 12 19  1  6  0  0  0
 12 15  1  0  0  0  0
 12 16  1  0  0  0  0
 13  5  1  1  0  0  0
 13 19  1  0  0  0  0
 14  6  1  0  0  0  0
 14 11  2  0  0  0  0
 15 16  1  0  0  0  0
 17  9  1  0  0  0  0
 17 30  1  1  0  0  0
 18  6  1  6  0  0  0
 18  3  1  0  0  0  0
 20 26  1  0  0  0  0
 21 20  1  0  0  0  0
 22 25  1  6  0  0  0
 22 24  1  0  0  0  0
 23 21  2  0  0  0  0
 24 20  2  0  0  0  0
 25 23  1  0  0  0  0
 27 28  1  0  0  0  0
 29 28  1  0  0  0  0
 30 32  2  0  0  0  0
 30 31  1  0  0  0  0
 34 33  1  0  0  0  0
M  END
>  <MODEL>
7

>  <REMARK>
 VINA RESULT:      -6.1      2.234      5.512
  Name = 
  4 active torsions:
  status: ('A' for Active; 'I' for Inactive)
    1  A    between atoms: C_2  and  C_15
    2  A    between atoms: C_3  and  N_14
    3  A    between atoms: C_4  and  C_12
    4  A    between atoms: C_13  and  C_29
                            x       y       z     vdW  Elec       q    Type
                         _______ _______ _______ _____ _____    ______ ____

>  <TORSDO>
F 4

$$$$
=
 OpenBabel11052418433D

 34 37  0  0  1  0  0  0  0  0999 V2000
  190.4940  173.7630  140.7840 C   0  0  1  0  0  3  0  0  0  0  0  0
  194.9480  173.8940  142.7580 C   0  0  2  0  0  3  0  0  0  0  0  0
  190.9830  175.1050  143.9830 C   0  0  1  0  0  3  0  0  0  0  0  0
  193.7940  176.5030  141.8390 O   0  0  0  0  0  1  0  0  0  0  0  0
  188.5200  172.3420  140.9270 O   0  0  0  0  0  1  0  0  0  0  0  0
  192.4540  173.8860  142.3120 N   0  0  0  0  0  0  0  0  0  0  0  0
  191.9940  173.4730  140.9760 C   0  0  1  0  0  3  0  0  0  0  0  0
  195.2580  174.8610  143.8960 C   0  0  0  0  0  2  0  0  0  0  0  0
  193.1470  176.2100  143.0410 C   0  0  2  0  0  3  0  0  0  0  0  0
  190.1240  173.7910  139.3050 C   0  0  0  0  0  1  0  0  0  0  0  0
  193.4440  172.1870  143.5700 O   0  0  0  0  0  0  0  0  0  0  0  0
  190.1550  173.8060  143.9270 C   0  0  1  0  0  0  0  0  0  0  0  0
  189.6050  172.8490  141.6470 C   0  0  2  0  0  3  0  0  0  0  0  0
  193.5940  173.2480  142.9070 C   0  0  0  0  0  0  0  0  0  0  0  0
  190.6670  172.6150  144.6390 C   0  0  0  0  0  2  0  0  0  0  0  0
  189.6770  173.4420  145.2000 O   0  0  0  0  0  0  0  0  0  0  0  0
  194.1650  175.9090  144.1640 C   0  0  1  0  0  3  0  0  0  0  0  0
  192.0030  175.1940  142.8190 C   0  0  2  0  0  3  0  0  0  0  0  0
  189.0790  173.5990  142.8640 C   0  0  0  0  0  2  0  0  0  0  0  0
  188.3020  177.3760  142.6050 C   0  0  0  0  0  0  0  0  0  0  0  0
  187.6830  177.9160  143.8300 C   0  0  0  0  0  3  0  0  0  0  0  0
  190.0510  176.3430  144.0230 C   0  0  1  0  0  3  0  0  0  0  0  0
  188.0270  177.4290  145.0260 C   0  0  0  0  0  3  0  0  0  0  0  0
  189.3860  176.5980  142.6890 C   0  0  0  0  0  3  0  0  0  0  0  0
  188.9810  176.2690  145.1240 C   0  0  0  0  0  2  0  0  0  0  0  0
  187.7090  177.6810  141.2770 C   0  0  0  0  0  1  0  0  0  0  0  0
  196.8040  173.3480  141.2890 C   0  0  0  0  0  1  0  0  0  0  0  0
  196.0750  172.9810  142.4980 N   0  0  0  0  0  0  0  0  0  0  0  0
  197.0040  173.0200  143.6160 C   0  0  0  0  0  1  0  0  0  0  0  0
  193.5610  175.7780  145.5270 C   0  0  0  0  0  0  0  0  0  0  0  0
  193.5060  174.5310  146.1360 O   0  0  0  0  0  0  0  0  0  0  0  0
  193.1290  176.7910  146.1390 O   0  0  0  0  0  1  0  0  0  0  0  0
  192.3300  172.0090  140.6670 C   0  0  0  0  0  2  0  0  0  0  0  0
  193.3030  171.9220  139.5090 C   0  0  0  0  0  1  0  0  0  0  0  0
  1 10  1  6  0  0  0
  1  7  1  0  0  0  0
  1 13  1  0  0  0  0
  2 28  1  1  0  0  0
  2 14  1  0  0  0  0
  2  8  1  0  0  0  0
  3 22  1  6  0  0  0
  6 14  1  0  0  0  0
  7 33  1  1  0  0  0
  7  6  1  0  0  0  0
  8 17  1  0  0  0  0
  9  4  1  6  0  0  0
  9 17  1  0  0  0  0
 12 19  1  6  0  0  0
 12  3  1  0  0  0  0
 12 15  1  0  0  0  0
 12 16  1  0  0  0  0
 13  5  1  6  0  0  0
 13 19  1  0  0  0  0
 14 11  2  0  0  0  0
 15 16  1  0  0  0  0
 17 30  1  1  0  0  0
 18  6  1  1  0  0  0
 18  9  1  0  0  0  0
 18  3  1  0  0  0  0
 20 24  2  0  0  0  0
 20 21  1  0  0  0  0
 21 23  2  0  0  0  0
 22 24  1  6  0  0  0
 22 25  1  0  0  0  0
 23 25  1  0  0  0  0
 26 20  1  0  0  0  0
 27 28  1  0  0  0  0
 28 29  1  0  0  0  0
 30 31  2  0  0  0  0
 30 32  1  0  0  0  0
 34 33  1  0  0  0  0
M  END
>  <MODEL>
8

>  <REMARK>
 VINA RESULT:      -6.0      2.294      6.709
  Name = 
  4 active torsions:
  status: ('A' for Active; 'I' for Inactive)
    1  A    between atoms: C_2  and  C_15
    2  A    between atoms: C_3  and  N_14
    3  A    between atoms: C_4  and  C_12
    4  A    between atoms: C_13  and  C_29
                            x       y       z     vdW  Elec       q    Type
                         _______ _______ _______ _____ _____    ______ ____

>  <TORSDO>
F 4

$$$$
=
 OpenBabel11052418433D

 34 37  0  0  1  0  0  0  0  0999 V2000
  192.2060  171.5340  142.0170 C   0  0  1  0  0  3  0  0  0  0  0  0
  195.7740  174.7960  141.4030 C   0  0  2  0  0  3  0  0  0  0  0  0
  193.4160  173.3790  144.7380 C   0  0  1  0  0  3  0  0  0  0  0  0
  193.0200  175.8730  141.8960 O   0  0  0  0  0  1  0  0  0  0  0  0
  192.0080  169.2280  142.7800 O   0  0  0  0  0  1  0  0  0  0  0  0
  194.0960  173.1270  142.3050 N   0  0  0  0  0  0  0  0  0  0  0  0
  193.3530  172.3030  141.3360 C   0  0  1  0  0  3  0  0  0  0  0  0
  195.9840  175.9080  142.4260 C   0  0  0  0  0  2  0  0  0  0  0  0
  193.4800  175.4370  143.1390 C   0  0  2  0  0  3  0  0  0  0  0  0
  191.1690  171.0770  140.9950 C   0  0  0  0  0  1  0  0  0  0  0  0
  196.3860  172.6860  142.4050 O   0  0  0  0  0  0  0  0  0  0  0  0
  193.6960  171.8640  144.7850 C   0  0  1  0  0  0  0  0  0  0  0  0
  192.7190  170.4200  142.9480 C   0  0  2  0  0  3  0  0  0  0  0  0
  195.4660  173.4700  142.0520 C   0  0  0  0  0  0  0  0  0  0  0  0
  195.1040  171.4110  144.8070 C   0  0  0  0  0  2  0  0  0  0  0  0
  194.3360  171.4930  145.9820 O   0  0  0  0  0  0  0  0  0  0  0  0
  194.8630  176.0430  143.4690 C   0  0  1  0  0  3  0  0  0  0  0  0
  193.3170  173.9060  143.2830 C   0  0  2  0  0  3  0  0  0  0  0  0
  192.6220  170.8480  144.4060 C   0  0  0  0  0  2  0  0  0  0  0  0
  191.3280  175.5630  147.0010 C   0  0  0  0  0  0  0  0  0  0  0  0
  189.9530  175.2180  146.5930 C   0  0  0  0  0  3  0  0  0  0  0  0
  192.1470  173.7220  145.5580 C   0  0  1  0  0  3  0  0  0  0  0  0
  189.7450  174.4370  145.5290 C   0  0  0  0  0  3  0  0  0  0  0  0
  192.3660  174.8980  146.4840 C   0  0  0  0  0  3  0  0  0  0  0  0
  190.9060  173.9800  144.6880 C   0  0  0  0  0  2  0  0  0  0  0  0
  191.5620  176.6630  147.9700 C   0  0  0  0  0  1  0  0  0  0  0  0
  196.3640  175.2880  139.0990 C   0  0  0  0  0  1  0  0  0  0  0  0
  196.8380  174.7850  140.3830 N   0  0  0  0  0  0  0  0  0  0  0  0
  197.9410  175.6270  140.8200 C   0  0  0  0  0  1  0  0  0  0  0  0
  195.3360  175.7820  144.8640 C   0  0  0  0  0  0  0  0  0  0  0  0
  196.2700  174.7810  145.0960 O   0  0  0  0  0  0  0  0  0  0  0  0
  194.9200  176.4810  145.8260 O   0  0  0  0  0  1  0  0  0  0  0  0
  194.2680  171.3650  140.5400 C   0  0  0  0  0  2  0  0  0  0  0  0
  194.2800  171.7540  139.0750 C   0  0  0  0  0  1  0  0  0  0  0  0
  1 10  1  6  0  0  0
  1 13  1  0  0  0  0
  2 28  1  1  0  0  0
  2 14  1  0  0  0  0
  2  8  1  0  0  0  0
  3 12  1  0  0  0  0
  3 22  1  1  0  0  0
  7 33  1  1  0  0  0
  7  1  1  0  0  0  0
  7  6  1  0  0  0  0
  8 17  1  0  0  0  0
  9  4  1  6  0  0  0
  9 18  1  0  0  0  0
  9 17  1  0  0  0  0
 12 19  1  6  0  0  0
 12 15  1  0  0  0  0
 12 16  1  0  0  0  0
 13  5  1  1  0  0  0
 13 19  1  0  0  0  0
 14  6  1  0  0  0  0
 14 11  2  0  0  0  0
 15 16  1  0  0  0  0
 17 30  1  1  0  0  0
 18  6  1  6  0  0  0
 18  3  1  0  0  0  0
 20 26  1  0  0  0  0
 21 20  1  0  0  0  0
 22 25  1  6  0  0  0
 22 24  1  0  0  0  0
 23 21  2  0  0  0  0
 24 20  2  0  0  0  0
 25 23  1  0  0  0  0
 27 28  1  0  0  0  0
 28 29  1  0  0  0  0
 30 31  2  0  0  0  0
 30 32  1  0  0  0  0
 34 33  1  0  0  0  0
M  END
>  <MODEL>
9

>  <REMARK>
 VINA RESULT:      -6.0      3.072      7.099
  Name = 
  4 active torsions:
  status: ('A' for Active; 'I' for Inactive)
    1  A    between atoms: C_2  and  C_15
    2  A    between atoms: C_3  and  N_14
    3  A    between atoms: C_4  and  C_12
    4  A    between atoms: C_13  and  C_29
                            x       y       z     vdW  Elec       q    Type
                         _______ _______ _______ _____ _____    ______ ____

>  <TORSDO>
F 4

$$$$
