=
 OpenBabel11052418093D

 28 32  0  0  0  0  0  0  0  0999 V2000
  189.0110  173.6220  142.1200 N   0  0  0  0  0  0  0  0  0  0  0  0
  187.2040  176.8080  145.6080 C   0  0  0  0  0  3  0  0  0  0  0  0
  186.8020  177.1900  139.4100 C   0  0  0  0  0  1  0  0  0  0  0  0
  186.1200  178.5560  144.3100 C   0  0  0  0  0  0  0  0  0  0  0  0
  187.2010  176.7090  143.1640 C   0  0  0  0  0  0  0  0  0  0  0  0
  186.1180  178.6620  146.7290 C   0  0  0  0  0  0  0  0  0  0  0  0
  186.8490  177.3460  144.3620 C   0  0  0  0  0  0  0  0  0  0  0  0
  186.0980  178.4850  141.9370 C   0  0  0  0  0  3  0  0  0  0  0  0
  185.7600  179.2060  145.4920 C   0  0  0  0  0  3  0  0  0  0  0  0
  187.9090  175.3920  140.7720 C   0  0  0  0  0  0  0  0  0  0  0  0
  187.9430  175.4760  143.1800 N   0  0  0  0  0  0  0  0  0  0  0  0
  185.7690  179.0880  143.1090 N   0  0  0  0  0  0  0  0  0  0  0  0
  188.9790  173.5030  139.7600 C   0  0  0  0  0  3  0  0  0  0  0  0
  187.1770  176.6250  140.7020 N   0  0  0  0  0  0  0  0  0  0  0  0
  188.2500  174.7410  139.6980 N   0  0  0  0  0  0  0  0  0  0  0  0
  185.7330  179.3560  147.9850 C   0  0  0  0  0  1  0  0  0  0  0  0
  186.8390  177.4650  146.7860 C   0  0  0  0  0  3  0  0  0  0  0  0
  186.8210  177.2840  141.9330 C   0  0  0  0  0  0  0  0  0  0  0  0
  189.3280  172.9870  140.9040 N   0  0  0  0  0  0  0  0  0  0  0  0
  188.2780  174.8530  142.0890 C   0  0  0  0  0  0  0  0  0  0  0  0
  189.3750  172.9820  143.3770 C   0  0  0  0  0  2  0  0  0  0  0  0
  190.3340  173.8380  144.1320 C   0  0  0  0  0  0  0  0  0  0  0  0
  192.1580  175.3990  145.5680 C   0  0  0  0  0  0  0  0  0  0  0  0
  191.4980  174.3050  143.5110 C   0  0  0  0  0  3  0  0  0  0  0  0
  190.0880  174.1470  145.4750 C   0  0  0  0  0  3  0  0  0  0  0  0
  190.9990  174.9280  146.1920 C   0  0  0  0  0  3  0  0  0  0  0  0
  193.0400  176.1570  146.2630 F   0  0  0  0  0  0  0  0  0  0  0  0
  192.4080  175.0870  144.2290 C   0  0  0  0  0  3  0  0  0  0  0  0
  1 21  1  0  0  0  0
  2 17  1  0  0  0  0
  3 14  1  0  0  0  0
  4  7  1  0  0  0  0
  4  9  2  0  0  0  0
  5 11  1  0  0  0  0
  5  7  1  0  0  0  0
  6 17  2  0  0  0  0
  6 16  1  0  0  0  0
  7  2  2  0  0  0  0
  8 12  2  0  0  0  0
  9  6  1  0  0  0  0
 10 20  1  0  0  0  0
 12  4  1  0  0  0  0
 13 19  2  0  0  0  0
 14 10  1  0  0  0  0
 14 18  1  0  0  0  0
 15 13  1  0  0  0  0
 15 10  2  0  0  0  0
 18  8  1  0  0  0  0
 18  5  2  0  0  0  0
 19  1  1  0  0  0  0
 20  1  1  0  0  0  0
 20 11  2  0  0  0  0
 21 22  1  0  0  0  0
 22 25  1  0  0  0  0
 23 26  1  0  0  0  0
 23 27  1  0  0  0  0
 24 22  2  0  0  0  0
 24 28  1  0  0  0  0
 25 26  2  0  0  0  0
 28 23  2  0  0  0  0
M  END
>  <MODEL>
1

>  <REMARK>
 VINA RESULT:      -8.0      0.000      0.000
  Name = 
  2 active torsions:
  status: ('A' for Active; 'I' for Inactive)
    1  A    between atoms: N_1  and  C_2
    2  A    between atoms: C_2  and  C_3
                            x       y       z     vdW  Elec       q    Type
                         _______ _______ _______ _____ _____    ______ ____

>  <TORSDO>
F 2

$$$$
=
 OpenBabel11052418093D

 28 32  0  0  0  0  0  0  0  0999 V2000
  191.3150  173.4860  143.6190 N   0  0  0  0  0  0  0  0  0  0  0  0
  187.9860  176.4790  145.9750 C   0  0  0  0  0  3  0  0  0  0  0  0
  188.2060  174.8780  139.9660 C   0  0  0  0  0  1  0  0  0  0  0  0
  186.4580  177.1680  144.2130 C   0  0  0  0  0  0  0  0  0  0  0  0
  188.3140  175.6970  143.6800 C   0  0  0  0  0  0  0  0  0  0  0  0
  186.1260  177.9470  146.4820 C   0  0  0  0  0  0  0  0  0  0  0  0
  187.5970  176.4420  144.6280 C   0  0  0  0  0  0  0  0  0  0  0  0
  186.7490  176.4230  141.9780 C   0  0  0  0  0  3  0  0  0  0  0  0
  185.7300  177.9160  145.1420 C   0  0  0  0  0  3  0  0  0  0  0  0
  189.7680  174.1740  141.8040 C   0  0  0  0  0  0  0  0  0  0  0  0
  189.4780  174.9450  144.0680 N   0  0  0  0  0  0  0  0  0  0  0  0
  186.0700  177.1400  142.9110 N   0  0  0  0  0  0  0  0  0  0  0  0
  191.6150  172.6990  141.4110 C   0  0  0  0  0  3  0  0  0  0  0  0
  188.6180  174.9140  141.3650 N   0  0  0  0  0  0  0  0  0  0  0  0
  190.4650  173.4480  140.9780 N   0  0  0  0  0  0  0  0  0  0  0  0
  185.3490  178.7430  147.4670 C   0  0  0  0  0  1  0  0  0  0  0  0
  187.2520  177.2290  146.8980 C   0  0  0  0  0  3  0  0  0  0  0  0
  187.8850  175.6850  142.3370 C   0  0  0  0  0  0  0  0  0  0  0  0
  192.0010  172.7240  142.6550 N   0  0  0  0  0  0  0  0  0  0  0  0
  190.1610  174.2350  143.2180 C   0  0  0  0  0  0  0  0  0  0  0  0
  191.7510  173.4420  145.0090 C   0  0  0  0  0  2  0  0  0  0  0  0
  192.5780  174.6420  145.3280 C   0  0  0  0  0  0  0  0  0  0  0  0
  194.1600  176.8620  145.9550 C   0  0  0  0  0  0  0  0  0  0  0  0
  193.6070  175.0350  144.4650 C   0  0  0  0  0  3  0  0  0  0  0  0
  192.3450  175.3570  146.5090 C   0  0  0  0  0  3  0  0  0  0  0  0
  193.1360  176.4660  146.8210 C   0  0  0  0  0  3  0  0  0  0  0  0
  194.9250  177.9380  146.2590 F   0  0  0  0  0  0  0  0  0  0  0  0
  194.3970  176.1460  144.7790 C   0  0  0  0  0  3  0  0  0  0  0  0
  1 21  1  0  0  0  0
  2 17  1  0  0  0  0
  3 14  1  0  0  0  0
  4  7  1  0  0  0  0
  4  9  2  0  0  0  0
  5 11  1  0  0  0  0
  5  7  1  0  0  0  0
  6 17  2  0  0  0  0
  6 16  1  0  0  0  0
  7  2  2  0  0  0  0
  8 18  1  0  0  0  0
  8 12  2  0  0  0  0
  9  6  1  0  0  0  0
 10 20  1  0  0  0  0
 12  4  1  0  0  0  0
 13 19  2  0  0  0  0
 14 10  1  0  0  0  0
 14 18  1  0  0  0  0
 15 13  1  0  0  0  0
 15 10  2  0  0  0  0
 18  5  2  0  0  0  0
 19  1  1  0  0  0  0
 20  1  1  0  0  0  0
 20 11  2  0  0  0  0
 21 22  1  0  0  0  0
 22 25  1  0  0  0  0
 23 27  1  0  0  0  0
 23 26  1  0  0  0  0
 24 28  1  0  0  0  0
 24 22  2  0  0  0  0
 25 26  2  0  0  0  0
 28 23  2  0  0  0  0
M  END
>  <MODEL>
2

>  <REMARK>
 VINA RESULT:      -7.9      1.672      2.250
  Name = 
  2 active torsions:
  status: ('A' for Active; 'I' for Inactive)
    1  A    between atoms: N_1  and  C_2
    2  A    between atoms: C_2  and  C_3
                            x       y       z     vdW  Elec       q    Type
                         _______ _______ _______ _____ _____    ______ ____

>  <TORSDO>
F 2

$$$$
=
 OpenBabel11052418093D

 28 32  0  0  0  0  0  0  0  0999 V2000
  189.7560  172.5700  143.4430 N   0  0  0  0  0  0  0  0  0  0  0  0
  187.2410  176.8820  144.2620 C   0  0  0  0  0  3  0  0  0  0  0  0
  188.6220  174.1540  138.8430 C   0  0  0  0  0  1  0  0  0  0  0  0
  186.6760  177.6720  142.0330 C   0  0  0  0  0  0  0  0  0  0  0  0
  187.9190  175.6030  142.2910 C   0  0  0  0  0  0  0  0  0  0  0  0
  186.0000  178.9440  143.9790 C   0  0  0  0  0  0  0  0  0  0  0  0
  187.2850  176.7110  142.8710 C   0  0  0  0  0  0  0  0  0  0  0  0
  187.3180  176.4500  140.1010 C   0  0  0  0  0  3  0  0  0  0  0  0
  186.0380  178.7820  142.5920 C   0  0  0  0  0  3  0  0  0  0  0  0
  189.1890  173.3540  141.1560 C   0  0  0  0  0  0  0  0  0  0  0  0
  188.5490  174.6050  143.1140 N   0  0  0  0  0  0  0  0  0  0  0  0
  186.7100  177.5170  140.6830 N   0  0  0  0  0  0  0  0  0  0  0  0
  190.3820  171.3130  141.5420 C   0  0  0  0  0  3  0  0  0  0  0  0
  188.5830  174.3270  140.2910 N   0  0  0  0  0  0  0  0  0  0  0  0
  189.7770  172.2950  140.6820 N   0  0  0  0  0  0  0  0  0  0  0  0
  185.3210  180.1260  144.5710 C   0  0  0  0  0  1  0  0  0  0  0  0
  186.6000  177.9960  144.8130 C   0  0  0  0  0  3  0  0  0  0  0  0
  187.9360  175.4690  140.8870 C   0  0  0  0  0  0  0  0  0  0  0  0
  190.3620  171.4540  142.8370 N   0  0  0  0  0  0  0  0  0  0  0  0
  189.1390  173.5600  142.6110 C   0  0  0  0  0  0  0  0  0  0  0  0
  189.7120  172.6600  144.8960 C   0  0  0  0  0  2  0  0  0  0  0  0
  190.6200  173.7420  145.3740 C   0  0  0  0  0  0  0  0  0  0  0  0
  192.3320  175.7440  146.3160 C   0  0  0  0  0  0  0  0  0  0  0  0
  191.9780  173.7180  145.0370 C   0  0  0  0  0  3  0  0  0  0  0  0
  190.1210  174.7650  146.1890 C   0  0  0  0  0  3  0  0  0  0  0  0
  190.9760  175.7650  146.6580 C   0  0  0  0  0  3  0  0  0  0  0  0
  193.1600  176.7150  146.7700 F   0  0  0  0  0  0  0  0  0  0  0  0
  192.8330  174.7200  145.5070 C   0  0  0  0  0  3  0  0  0  0  0  0
  1 21  1  0  0  0  0
  2 17  1  0  0  0  0
  3 14  1  0  0  0  0
  4  9  2  0  0  0  0
  4  7  1  0  0  0  0
  5  7  1  0  0  0  0
  5 11  1  0  0  0  0
  6 16  1  0  0  0  0
  6 17  2  0  0  0  0
  7  2  2  0  0  0  0
  8 12  2  0  0  0  0
  8 18  1  0  0  0  0
  9  6  1  0  0  0  0
 10 20  1  0  0  0  0
 12  4  1  0  0  0  0
 13 19  2  0  0  0  0
 14 18  1  0  0  0  0
 14 10  1  0  0  0  0
 15 10  2  0  0  0  0
 15 13  1  0  0  0  0
 18  5  2  0  0  0  0
 19  1  1  0  0  0  0
 20 11  2  0  0  0  0
 20  1  1  0  0  0  0
 21 22  1  0  0  0  0
 22 25  1  0  0  0  0
 23 26  1  0  0  0  0
 23 27  1  0  0  0  0
 24 22  2  0  0  0  0
 24 28  1  0  0  0  0
 25 26  2  0  0  0  0
 28 23  2  0  0  0  0
M  END
>  <MODEL>
3

>  <REMARK>
 VINA RESULT:      -7.8      1.395      2.254
  Name = 
  2 active torsions:
  status: ('A' for Active; 'I' for Inactive)
    1  A    between atoms: N_1  and  C_2
    2  A    between atoms: C_2  and  C_3
                            x       y       z     vdW  Elec       q    Type
                         _______ _______ _______ _____ _____    ______ ____

>  <TORSDO>
F 2

$$$$
=
 OpenBabel11052418093D

 28 32  0  0  0  0  0  0  0  0999 V2000
  192.2640  174.9490  143.6710 N   0  0  0  0  0  0  0  0  0  0  0  0
  188.3160  176.9960  146.0800 C   0  0  0  0  0  3  0  0  0  0  0  0
  188.5400  174.5430  140.3660 C   0  0  0  0  0  1  0  0  0  0  0  0
  186.4870  176.8080  144.4880 C   0  0  0  0  0  0  0  0  0  0  0  0
  188.6890  175.9840  143.8850 C   0  0  0  0  0  0  0  0  0  0  0  0
  186.1080  177.8100  146.6600 C   0  0  0  0  0  0  0  0  0  0  0  0
  187.8440  176.5950  144.8220 C   0  0  0  0  0  0  0  0  0  0  0  0
  186.8180  175.8280  142.3510 C   0  0  0  0  0  3  0  0  0  0  0  0
  185.6280  177.4140  145.4080 C   0  0  0  0  0  3  0  0  0  0  0  0
  190.4130  174.7420  142.0290 C   0  0  0  0  0  0  0  0  0  0  0  0
  190.0760  175.7520  144.1910 N   0  0  0  0  0  0  0  0  0  0  0  0
  186.0160  176.4230  143.2730 N   0  0  0  0  0  0  0  0  0  0  0  0
  192.6200  173.9370  141.5650 C   0  0  0  0  0  3  0  0  0  0  0  0
  189.0390  174.9610  141.6720 N   0  0  0  0  0  0  0  0  0  0  0  0
  191.2440  174.1640  141.2120 N   0  0  0  0  0  0  0  0  0  0  0  0
  185.1920  178.4550  147.6370 C   0  0  0  0  0  1  0  0  0  0  0  0
  187.4490  177.6020  146.9950 C   0  0  0  0  0  3  0  0  0  0  0  0
  188.1710  175.5940  142.6320 C   0  0  0  0  0  0  0  0  0  0  0  0
  193.0850  174.3080  142.7240 N   0  0  0  0  0  0  0  0  0  0  0  0
  190.8860  175.1800  143.3500 C   0  0  0  0  0  0  0  0  0  0  0  0
  192.8130  175.2980  144.9740 C   0  0  0  0  0  2  0  0  0  0  0  0
  193.9750  174.4210  145.2960 C   0  0  0  0  0  0  0  0  0  0  0  0
  196.1630  172.7680  145.8470 C   0  0  0  0  0  0  0  0  0  0  0  0
  195.2460  174.9790  145.4790 C   0  0  0  0  0  3  0  0  0  0  0  0
  193.8020  173.0350  145.3820 C   0  0  0  0  0  3  0  0  0  0  0  0
  194.8950  172.2100  145.6580 C   0  0  0  0  0  3  0  0  0  0  0  0
  197.2220  171.9670  146.1160 F   0  0  0  0  0  0  0  0  0  0  0  0
  196.3390  174.1520  145.7560 C   0  0  0  0  0  3  0  0  0  0  0  0
  1 21  1  0  0  0  0
  2 17  1  0  0  0  0
  3 14  1  0  0  0  0
  4  7  1  0  0  0  0
  4  9  2  0  0  0  0
  5 11  1  0  0  0  0
  5  7  1  0  0  0  0
  6 17  2  0  0  0  0
  6 16  1  0  0  0  0
  7  2  2  0  0  0  0
  8 18  1  0  0  0  0
  8 12  2  0  0  0  0
  9  6  1  0  0  0  0
 10 20  1  0  0  0  0
 12  4  1  0  0  0  0
 13 19  2  0  0  0  0
 14 10  1  0  0  0  0
 14 18  1  0  0  0  0
 15 13  1  0  0  0  0
 15 10  2  0  0  0  0
 18  5  2  0  0  0  0
 19  1  1  0  0  0  0
 20  1  1  0  0  0  0
 20 11  2  0  0  0  0
 21 22  1  0  0  0  0
 22 25  2  0  0  0  0
 22 24  1  0  0  0  0
 23 27  1  0  0  0  0
 24 28  2  0  0  0  0
 25 26  1  0  0  0  0
 26 23  2  0  0  0  0
 28 23  1  0  0  0  0
M  END
>  <MODEL>
4

>  <REMARK>
 VINA RESULT:      -7.7      2.596      3.306
  Name = 
  2 active torsions:
  status: ('A' for Active; 'I' for Inactive)
    1  A    between atoms: N_1  and  C_2
    2  A    between atoms: C_2  and  C_3
                            x       y       z     vdW  Elec       q    Type
                         _______ _______ _______ _____ _____    ______ ____

>  <TORSDO>
F 2

$$$$
=
 OpenBabel11052418093D

 28 32  0  0  0  0  0  0  0  0999 V2000
  187.6390  177.4530  142.3490 N   0  0  0  0  0  0  0  0  0  0  0  0
  191.2150  174.4140  144.2380 C   0  0  0  0  0  3  0  0  0  0  0  0
  188.2070  173.9750  138.8080 C   0  0  0  0  0  1  0  0  0  0  0  0
  191.5110  172.7110  142.5280 C   0  0  0  0  0  0  0  0  0  0  0  0
  189.8850  174.4820  142.1860 C   0  0  0  0  0  0  0  0  0  0  0  0
  192.8310  172.6370  144.5560 C   0  0  0  0  0  0  0  0  0  0  0  0
  190.8650  173.8800  142.9900 C   0  0  0  0  0  0  0  0  0  0  0  0
  190.2370  172.7520  140.5240 C   0  0  0  0  0  3  0  0  0  0  0  0
  192.4890  172.0970  143.3130 C   0  0  0  0  0  3  0  0  0  0  0  0
  187.9240  175.7270  140.5870 C   0  0  0  0  0  0  0  0  0  0  0  0
  189.2080  175.6730  142.6250 N   0  0  0  0  0  0  0  0  0  0  0  0
  191.1810  172.1840  141.3190 N   0  0  0  0  0  0  0  0  0  0  0  0
  186.3790  177.5420  140.3520 C   0  0  0  0  0  3  0  0  0  0  0  0
  188.5650  174.5350  140.1080 N   0  0  0  0  0  0  0  0  0  0  0  0
  187.0210  176.3440  139.8810 N   0  0  0  0  0  0  0  0  0  0  0  0
  193.8730  171.9810  145.3890 C   0  0  0  0  0  1  0  0  0  0  0  0
  192.1960  173.7940  145.0170 C   0  0  0  0  0  3  0  0  0  0  0  0
  189.5660  173.9120  140.9360 C   0  0  0  0  0  0  0  0  0  0  0  0
  186.6810  178.0530  141.5120 N   0  0  0  0  0  0  0  0  0  0  0  0
  188.3020  176.2630  141.9020 C   0  0  0  0  0  0  0  0  0  0  0  0
  187.9840  178.0880  143.6140 C   0  0  0  0  0  2  0  0  0  0  0  0
  186.8310  178.0150  144.5580 C   0  0  0  0  0  0  0  0  0  0  0  0
  184.7030  177.8930  146.3680 C   0  0  0  0  0  0  0  0  0  0  0  0
  185.9630  179.1040  144.6920 C   0  0  0  0  0  3  0  0  0  0  0  0
  186.6380  176.8680  145.3370 C   0  0  0  0  0  3  0  0  0  0  0  0
  185.5740  176.8070  146.2400 C   0  0  0  0  0  3  0  0  0  0  0  0
  183.6700  177.8330  147.2440 F   0  0  0  0  0  0  0  0  0  0  0  0
  184.8980  179.0420  145.5960 C   0  0  0  0  0  3  0  0  0  0  0  0
  1 21  1  0  0  0  0
  2 17  1  0  0  0  0
  3 14  1  0  0  0  0
  4  7  1  0  0  0  0
  4  9  2  0  0  0  0
  5 11  1  0  0  0  0
  5  7  1  0  0  0  0
  6 17  2  0  0  0  0
  6 16  1  0  0  0  0
  7  2  2  0  0  0  0
  8 18  1  0  0  0  0
  8 12  2  0  0  0  0
  9  6  1  0  0  0  0
 10 20  1  0  0  0  0
 12  4  1  0  0  0  0
 13 19  2  0  0  0  0
 14 10  1  0  0  0  0
 14 18  1  0  0  0  0
 15 13  1  0  0  0  0
 15 10  2  0  0  0  0
 18  5  2  0  0  0  0
 19  1  1  0  0  0  0
 20  1  1  0  0  0  0
 20 11  2  0  0  0  0
 21 22  1  0  0  0  0
 22 24  2  0  0  0  0
 22 25  1  0  0  0  0
 23 27  1  0  0  0  0
 24 28  1  0  0  0  0
 25 26  2  0  0  0  0
 26 23  1  0  0  0  0
 28 23  2  0  0  0  0
M  END
>  <MODEL>
5

>  <REMARK>
 VINA RESULT:      -7.6      2.386      6.377
  Name = 
  2 active torsions:
  status: ('A' for Active; 'I' for Inactive)
    1  A    between atoms: N_1  and  C_2
    2  A    between atoms: C_2  and  C_3
                            x       y       z     vdW  Elec       q    Type
                         _______ _______ _______ _____ _____    ______ ____

>  <TORSDO>
F 2

$$$$
=
 OpenBabel11052418093D

 28 32  0  0  0  0  0  0  0  0999 V2000
  187.8040  176.3770  146.5730 N   0  0  0  0  0  0  0  0  0  0  0  0
  189.1000  173.7020  142.4800 C   0  0  0  0  0  3  0  0  0  0  0  0
  185.9170  179.0400  142.7910 C   0  0  0  0  0  1  0  0  0  0  0  0
  188.1910  174.9830  140.6230 C   0  0  0  0  0  0  0  0  0  0  0  0
  187.8770  175.7800  142.8940 C   0  0  0  0  0  0  0  0  0  0  0  0
  189.4010  172.9270  140.2040 C   0  0  0  0  0  0  0  0  0  0  0  0
  188.3920  174.8180  142.0120 C   0  0  0  0  0  0  0  0  0  0  0  0
  187.0030  177.0040  140.9930 C   0  0  0  0  0  3  0  0  0  0  0  0
  188.6970  174.0370  139.7280 C   0  0  0  0  0  3  0  0  0  0  0  0
  186.8700  177.7040  144.6940 C   0  0  0  0  0  0  0  0  0  0  0  0
  188.0620  175.6440  144.3150 N   0  0  0  0  0  0  0  0  0  0  0  0
  187.5080  176.0610  140.1560 N   0  0  0  0  0  0  0  0  0  0  0  0
  186.6550  178.4030  146.9750 C   0  0  0  0  0  3  0  0  0  0  0  0
  186.6500  177.8790  143.2860 N   0  0  0  0  0  0  0  0  0  0  0  0
  186.4350  178.5690  145.5630 N   0  0  0  0  0  0  0  0  0  0  0  0
  189.9380  171.9230  139.2490 C   0  0  0  0  0  1  0  0  0  0  0  0
  189.6030  172.7610  141.5770 C   0  0  0  0  0  3  0  0  0  0  0  0
  187.1730  176.8890  142.3800 C   0  0  0  0  0  0  0  0  0  0  0  0
  187.3030  177.3700  147.4350 N   0  0  0  0  0  0  0  0  0  0  0  0
  187.6070  176.5210  145.1610 C   0  0  0  0  0  0  0  0  0  0  0  0
  188.5680  175.2670  147.1270 C   0  0  0  0  0  2  0  0  0  0  0  0
  190.0300  175.5220  146.9800 C   0  0  0  0  0  0  0  0  0  0  0  0
  192.7810  175.9720  146.7490 C   0  0  0  0  0  0  0  0  0  0  0  0
  190.8080  174.6960  146.1620 C   0  0  0  0  0  3  0  0  0  0  0  0
  190.6310  176.5690  147.6890 C   0  0  0  0  0  3  0  0  0  0  0  0
  192.0050  176.7940  147.5730 C   0  0  0  0  0  3  0  0  0  0  0  0
  194.1130  176.1910  146.6360 F   0  0  0  0  0  0  0  0  0  0  0  0
  192.1830  174.9230  146.0450 C   0  0  0  0  0  3  0  0  0  0  0  0
  1 21  1  0  0  0  0
  1 19  1  0  0  0  0
  3 14  1  0  0  0  0
  4  7  1  0  0  0  0
  5 11  1  0  0  0  0
  6 17  1  0  0  0  0
  7  2  1  0  0  0  0
  7  5  2  0  0  0  0
  8 18  2  0  0  0  0
  9  6  2  0  0  0  0
  9  4  1  0  0  0  0
 10 20  1  0  0  0  0
 10 15  2  0  0  0  0
 11 20  2  0  0  0  0
 12  4  2  0  0  0  0
 12  8  1  0  0  0  0
 13 19  2  0  0  0  0
 14 10  1  0  0  0  0
 15 13  1  0  0  0  0
 16  6  1  0  0  0  0
 17  2  2  0  0  0  0
 18  5  1  0  0  0  0
 18 14  1  0  0  0  0
 20  1  1  0  0  0  0
 22 21  1  0  0  0  0
 22 25  1  0  0  0  0
 23 26  1  0  0  0  0
 24 22  2  0  0  0  0
 26 25  2  0  0  0  0
 27 23  1  0  0  0  0
 28 24  1  0  0  0  0
 28 23  2  0  0  0  0
M  END
>  <MODEL>
6

>  <REMARK>
 VINA RESULT:      -7.5      1.727      5.369
  Name = 
  2 active torsions:
  status: ('A' for Active; 'I' for Inactive)
    1  A    between atoms: N_1  and  C_2
    2  A    between atoms: C_2  and  C_3
                            x       y       z     vdW  Elec       q    Type
                         _______ _______ _______ _____ _____    ______ ____

>  <TORSDO>
F 2

$$$$
=
 OpenBabel11052418093D

 28 32  0  0  0  0  0  0  0  0999 V2000
  190.0880  176.5910  144.5960 N   0  0  0  0  0  0  0  0  0  0  0  0
  185.8030  177.6090  142.1080 C   0  0  0  0  0  3  0  0  0  0  0  0
  187.0500  178.3260  148.1620 C   0  0  0  0  0  1  0  0  0  0  0  0
  184.3070  178.4580  143.8270 C   0  0  0  0  0  0  0  0  0  0  0  0
  186.5590  177.7810  144.4280 C   0  0  0  0  0  0  0  0  0  0  0  0
  183.5510  178.2910  141.5320 C   0  0  0  0  0  0  0  0  0  0  0  0
  185.5680  177.9440  143.4490 C   0  0  0  0  0  0  0  0  0  0  0  0
  185.0130  178.6400  146.0860 C   0  0  0  0  0  3  0  0  0  0  0  0
  183.3070  178.6290  142.8670 C   0  0  0  0  0  3  0  0  0  0  0  0
  188.5810  177.4580  146.3690 C   0  0  0  0  0  0  0  0  0  0  0  0
  187.8550  177.2600  144.0790 N   0  0  0  0  0  0  0  0  0  0  0  0
  184.0660  178.7880  145.1230 N   0  0  0  0  0  0  0  0  0  0  0  0
  190.8350  176.7900  146.8300 C   0  0  0  0  0  3  0  0  0  0  0  0
  187.3010  177.9720  146.7690 N   0  0  0  0  0  0  0  0  0  0  0  0
  189.5490  177.3000  147.2240 N   0  0  0  0  0  0  0  0  0  0  0  0
  182.4840  178.4740  140.5130 C   0  0  0  0  0  1  0  0  0  0  0  0
  184.7970  177.7830  141.1540 C   0  0  0  0  0  3  0  0  0  0  0  0
  186.2810  178.1340  145.7650 C   0  0  0  0  0  0  0  0  0  0  0  0
  191.0750  176.4640  145.5920 N   0  0  0  0  0  0  0  0  0  0  0  0
  188.8000  177.1050  144.9590 C   0  0  0  0  0  0  0  0  0  0  0  0
  190.4180  176.2640  143.2150 C   0  0  0  0  0  2  0  0  0  0  0  0
  190.3230  174.7920  142.9980 C   0  0  0  0  0  0  0  0  0  0  0  0
  190.1500  172.0390  142.5360 C   0  0  0  0  0  0  0  0  0  0  0  0
  191.4630  173.9900  143.1130 C   0  0  0  0  0  3  0  0  0  0  0  0
  189.0970  174.2160  142.6430 C   0  0  0  0  0  3  0  0  0  0  0  0
  189.0110  172.8400  142.4140 C   0  0  0  0  0  3  0  0  0  0  0  0
  190.0660  170.7040  142.3150 F   0  0  0  0  0  0  0  0  0  0  0  0
  191.3760  172.6130  142.8840 C   0  0  0  0  0  3  0  0  0  0  0  0
  1 20  1  0  0  0  0
  1 19  1  0  0  0  0
  2  7  1  0  0  0  0
  4 12  1  0  0  0  0
  5 18  2  0  0  0  0
  6  9  2  0  0  0  0
  7  4  2  0  0  0  0
  7  5  1  0  0  0  0
  9  4  1  0  0  0  0
 10 14  1  0  0  0  0
 10 15  2  0  0  0  0
 11  5  1  0  0  0  0
 11 20  2  0  0  0  0
 12  8  2  0  0  0  0
 13 15  1  0  0  0  0
 14  3  1  0  0  0  0
 16  6  1  0  0  0  0
 17  6  1  0  0  0  0
 17  2  2  0  0  0  0
 18  8  1  0  0  0  0
 18 14  1  0  0  0  0
 19 13  2  0  0  0  0
 20 10  1  0  0  0  0
 21  1  1  0  0  0  0
 22 24  1  0  0  0  0
 22 21  1  0  0  0  0
 23 28  1  0  0  0  0
 25 22  2  0  0  0  0
 26 23  2  0  0  0  0
 26 25  1  0  0  0  0
 27 23  1  0  0  0  0
 28 24  2  0  0  0  0
M  END
>  <MODEL>
7

>  <REMARK>
 VINA RESULT:      -7.4      2.724      5.007
  Name = 
  2 active torsions:
  status: ('A' for Active; 'I' for Inactive)
    1  A    between atoms: N_1  and  C_2
    2  A    between atoms: C_2  and  C_3
                            x       y       z     vdW  Elec       q    Type
                         _______ _______ _______ _____ _____    ______ ____

>  <TORSDO>
F 2

$$$$
=
 OpenBabel11052418093D

 28 32  0  0  0  0  0  0  0  0999 V2000
  189.0770  173.5500  141.9770 N   0  0  0  0  0  0  0  0  0  0  0  0
  187.2530  176.7640  145.4310 C   0  0  0  0  0  3  0  0  0  0  0  0
  186.8250  177.0630  139.2300 C   0  0  0  0  0  1  0  0  0  0  0  0
  186.1490  178.4850  144.1150 C   0  0  0  0  0  0  0  0  0  0  0  0
  187.2420  176.6330  142.9880 C   0  0  0  0  0  0  0  0  0  0  0  0
  186.1540  178.6210  146.5320 C   0  0  0  0  0  0  0  0  0  0  0  0
  186.8890  177.2830  144.1800 C   0  0  0  0  0  0  0  0  0  0  0  0
  186.1190  178.3840  141.7430 C   0  0  0  0  0  3  0  0  0  0  0  0
  185.7860  179.1470  145.2900 C   0  0  0  0  0  3  0  0  0  0  0  0
  187.9540  175.2930  140.6110 C   0  0  0  0  0  0  0  0  0  0  0  0
  187.9950  175.4070  143.0180 N   0  0  0  0  0  0  0  0  0  0  0  0
  185.7880  178.9980  142.9090 N   0  0  0  0  0  0  0  0  0  0  0  0
  189.0380  173.4010  139.6190 C   0  0  0  0  0  3  0  0  0  0  0  0
  187.2100  176.5180  140.5280 N   0  0  0  0  0  0  0  0  0  0  0  0
  188.2970  174.6320  139.5440 N   0  0  0  0  0  0  0  0  0  0  0  0
  185.7660  179.3280  147.7810 C   0  0  0  0  0  1  0  0  0  0  0  0
  186.8850  177.4320  146.6030 C   0  0  0  0  0  3  0  0  0  0  0  0
  186.8520  177.1890  141.7520 C   0  0  0  0  0  0  0  0  0  0  0  0
  189.3950  172.9030  140.7680 N   0  0  0  0  0  0  0  0  0  0  0  0
  188.3320  174.7730  141.9330 C   0  0  0  0  0  0  0  0  0  0  0  0
  189.4500  172.9290  143.2410 C   0  0  0  0  0  2  0  0  0  0  0  0
  190.9200  173.0560  143.4630 C   0  0  0  0  0  0  0  0  0  0  0  0
  193.6670  173.2990  143.9310 C   0  0  0  0  0  0  0  0  0  0  0  0
  191.7020  171.9110  143.6520 C   0  0  0  0  0  3  0  0  0  0  0  0
  191.5120  174.3230  143.5160 C   0  0  0  0  0  3  0  0  0  0  0  0
  192.8850  174.4440  143.7480 C   0  0  0  0  0  3  0  0  0  0  0  0
  194.9980  173.4170  144.1560 F   0  0  0  0  0  0  0  0  0  0  0  0
  193.0760  172.0330  143.8840 C   0  0  0  0  0  3  0  0  0  0  0  0
  1 21  1  0  0  0  0
  2 17  1  0  0  0  0
  3 14  1  0  0  0  0
  4  7  1  0  0  0  0
  4  9  2  0  0  0  0
  5 11  1  0  0  0  0
  5  7  1  0  0  0  0
  6 17  2  0  0  0  0
  6 16  1  0  0  0  0
  7  2  2  0  0  0  0
  8 18  1  0  0  0  0
  8 12  2  0  0  0  0
  9  6  1  0  0  0  0
 10 20  1  0  0  0  0
 12  4  1  0  0  0  0
 13 19  2  0  0  0  0
 14 10  1  0  0  0  0
 14 18  1  0  0  0  0
 15 13  1  0  0  0  0
 15 10  2  0  0  0  0
 18  5  2  0  0  0  0
 19  1  1  0  0  0  0
 20  1  1  0  0  0  0
 20 11  2  0  0  0  0
 21 22  1  0  0  0  0
 22 25  2  0  0  0  0
 22 24  1  0  0  0  0
 23 27  1  0  0  0  0
 24 28  2  0  0  0  0
 25 26  1  0  0  0  0
 26 23  2  0  0  0  0
 28 23  1  0  0  0  0
M  END
>  <MODEL>
8

>  <REMARK>
 VINA RESULT:      -7.4      1.155      1.448
  Name = 
  2 active torsions:
  status: ('A' for Active; 'I' for Inactive)
    1  A    between atoms: N_1  and  C_2
    2  A    between atoms: C_2  and  C_3
                            x       y       z     vdW  Elec       q    Type
                         _______ _______ _______ _____ _____    ______ ____

>  <TORSDO>
F 2

$$$$
=
 OpenBabel11052418093D

 28 32  0  0  0  0  0  0  0  0999 V2000
  188.4610  176.7230  143.3730 N   0  0  0  0  0  0  0  0  0  0  0  0
  193.0100  175.3420  145.0980 C   0  0  0  0  0  3  0  0  0  0  0  0
  190.0400  173.4120  139.9820 C   0  0  0  0  0  1  0  0  0  0  0  0
  193.8010  173.7280  143.4600 C   0  0  0  0  0  0  0  0  0  0  0  0
  191.6230  174.7600  143.1700 C   0  0  0  0  0  0  0  0  0  0  0  0
  195.1810  174.2990  145.3660 C   0  0  0  0  0  0  0  0  0  0  0  0
  192.8020  174.6190  143.9150 C   0  0  0  0  0  0  0  0  0  0  0  0
  192.4780  173.1460  141.5760 C   0  0  0  0  0  3  0  0  0  0  0  0
  194.9830  173.5740  144.1870 C   0  0  0  0  0  3  0  0  0  0  0  0
  189.2460  175.0810  141.6850 C   0  0  0  0  0  0  0  0  0  0  0  0
  190.5860  175.6580  143.6040 N   0  0  0  0  0  0  0  0  0  0  0  0
  193.6130  173.0220  142.3130 N   0  0  0  0  0  0  0  0  0  0  0  0
  187.1330  176.1920  141.4920 C   0  0  0  0  0  3  0  0  0  0  0  0
  190.2480  174.1660  141.2140 N   0  0  0  0  0  0  0  0  0  0  0  0
  188.1380  175.2720  141.0300 N   0  0  0  0  0  0  0  0  0  0  0  0
  196.4400  174.1320  146.1380 C   0  0  0  0  0  1  0  0  0  0  0  0
  194.1970  175.1810  145.8200 C   0  0  0  0  0  3  0  0  0  0  0  0
  191.4570  174.0150  141.9830 C   0  0  0  0  0  0  0  0  0  0  0  0
  187.2990  176.8690  142.5920 N   0  0  0  0  0  0  0  0  0  0  0  0
  189.4830  175.8210  142.9330 C   0  0  0  0  0  0  0  0  0  0  0  0
  188.6270  177.5400  144.5680 C   0  0  0  0  0  2  0  0  0  0  0  0
  187.3140  177.7290  145.2500 C   0  0  0  0  0  0  0  0  0  0  0  0
  184.8770  178.1080  146.5680 C   0  0  0  0  0  0  0  0  0  0  0  0
  186.5170  178.8380  144.9440 C   0  0  0  0  0  3  0  0  0  0  0  0
  186.8930  176.8140  146.2220 C   0  0  0  0  0  3  0  0  0  0  0  0
  185.6750  177.0030  146.8800 C   0  0  0  0  0  3  0  0  0  0  0  0
  183.6950  178.2910  147.2060 F   0  0  0  0  0  0  0  0  0  0  0  0
  185.2980  179.0260  145.6020 C   0  0  0  0  0  3  0  0  0  0  0  0
  1 21  1  0  0  0  0
  2 17  1  0  0  0  0
  3 14  1  0  0  0  0
  4  7  1  0  0  0  0
  4  9  2  0  0  0  0
  5 11  1  0  0  0  0
  5  7  1  0  0  0  0
  6 17  2  0  0  0  0
  6 16  1  0  0  0  0
  7  2  2  0  0  0  0
  8 18  1  0  0  0  0
  8 12  2  0  0  0  0
  9  6  1  0  0  0  0
 10 20  1  0  0  0  0
 12  4  1  0  0  0  0
 13 19  2  0  0  0  0
 14 10  1  0  0  0  0
 14 18  1  0  0  0  0
 15 13  1  0  0  0  0
 15 10  2  0  0  0  0
 18  5  2  0  0  0  0
 19  1  1  0  0  0  0
 20  1  1  0  0  0  0
 20 11  2  0  0  0  0
 21 22  1  0  0  0  0
 22 25  1  0  0  0  0
 23 26  1  0  0  0  0
 23 27  1  0  0  0  0
 24 22  2  0  0  0  0
 24 28  1  0  0  0  0
 25 26  2  0  0  0  0
 28 23  2  0  0  0  0
M  END
>  <MODEL>
9

>  <REMARK>
 VINA RESULT:      -7.4      2.692      6.775
  Name = 
  2 active torsions:
  status: ('A' for Active; 'I' for Inactive)
    1  A    between atoms: N_1  and  C_2
    2  A    between atoms: C_2  and  C_3
                            x       y       z     vdW  Elec       q    Type
                         _______ _______ _______ _____ _____    ______ ____

>  <TORSDO>
F 2

$$$$
