=
 OpenBabel11052420123D

 37 36  0  0  1  0  0  0  0  0999 V2000
  189.1810  174.6890  147.2410 O   0  0  0  0  0  1  0  0  0  0  0  0
  189.4090  175.4190  146.0630 C   0  0  1  0  0  0  0  0  0  0  0  0
  190.6790  177.3340  145.2770 O   0  0  0  0  0  1  0  0  0  0  0  0
  190.5670  176.4040  146.3140 C   0  0  2  0  0  3  0  0  0  0  0  0
  191.9140  175.7310  146.5830 C   0  0  0  0  0  2  0  0  0  0  0  0
  192.9830  176.1460  145.5770 C   0  0  0  0  0  2  0  0  0  0  0  0
  194.9720  175.4770  146.7000 F   0  0  0  0  0  0  0  0  0  0  0  0
  194.2590  176.5850  146.2790 C   0  0  0  0  0  0  0  0  0  0  0  0
  193.9270  177.3520  147.3790 F   0  0  0  0  0  0  0  0  0  0  0  0
  195.0390  177.3410  145.4220 F   0  0  0  0  0  0  0  0  0  0  0  0
  189.8300  174.4540  144.9330 C   0  0  2  0  0  3  0  0  0  0  0  0
  189.7290  175.1590  142.4460 C   0  0  0  0  0  0  0  0  0  0  0  0
  189.1280  174.7270  143.6740 N   0  0  0  0  0  2  0  0  0  0  0  0
  191.1150  175.4810  142.3790 N   0  0  0  0  0  1  0  0  0  0  0  0
  189.0170  175.2730  141.4170 O   0  0  0  0  0  0  0  0  0  0  0  0
  189.7840  172.9750  145.3210 C   0  0  0  0  0  2  0  0  0  0  0  0
  190.6650  172.1660  144.3870 C   0  0  0  0  0  2  0  0  0  0  0  0
  192.1060  172.5990  144.5310 C   0  0  0  0  0  2  0  0  0  0  0  0
  193.1830  171.1630  144.2520 S   0  0  0  0  0  0  0  0  0  0  0  0
  194.9440  171.7060  142.1510 S   0  0  0  0  0  0  0  0  0  0  0  0
  194.4360  172.1380  143.4220 C   0  0  0  0  0  0  0  0  0  0  0  0
  194.7190  173.5250  143.9140 C   0  0  0  0  0  2  0  0  0  0  0  0
  196.8260  174.8540  144.0470 C   0  0  0  0  0  1  0  0  0  0  0  0
  195.8280  174.1910  143.1160 C   0  0  0  0  0  2  0  0  0  0  0  0
  188.2660  176.1580  145.6870 O   0  0  0  0  0  0  0  0  0  0  0  0
  187.5130  176.3420  146.7850 O   0  0  0  0  0  0  0  0  0  0  0  0
  187.2940  177.6150  147.2610 N   0  0  0  0  0  0  0  0  0  0  0  0
  186.2260  178.2800  146.9580 C   0  0  0  0  0  0  0  0  0  0  0  0
  186.0780  179.5440  147.4290 F   0  0  0  0  0  0  0  0  0  0  0  0
  184.3930  176.7900  146.8400 O   0  0  0  0  0  1  0  0  0  0  0  0
  185.1640  177.6830  146.0910 C   0  0  1  0  0  3  0  0  0  0  0  0
  184.3340  178.7120  145.5670 O   0  0  0  0  0  0  0  0  0  0  0  0
  184.5180  179.2370  144.2850 C   0  0  0  0  0  0  0  0  0  0  0  0
  185.3360  180.1810  144.0930 O   0  0  0  0  0  0  0  0  0  0  0  0
  183.8050  178.6890  143.2200 O   0  0  0  0  0  0  0  0  0  0  0  0
  184.4620  178.0790  142.1190 C   0  0  0  0  0  2  0  0  0  0  0  0
  185.3300  177.0950  142.5850 O   0  0  0  0  0  1  0  0  0  0  0  0
  2  4  1  0  0  0  0
  2  1  1  1  0  0  0
  4  3  1  6  0  0  0
  4  5  1  0  0  0  0
  6  8  1  0  0  0  0
  6  5  1  0  0  0  0
  8  7  1  0  0  0  0
  8  9  1  0  0  0  0
 10  8  1  0  0  0  0
 11 16  1  1  0  0  0
 11  2  1  0  0  0  0
 12 13  1  0  0  0  0
 13 11  1  0  0  0  0
 14 12  1  0  0  0  0
 15 12  2  0  0  0  0
 17 18  1  0  0  0  0
 17 16  1  0  0  0  0
 19 18  1  0  0  0  0
 20 21  2  0  0  0  0
 21 22  1  0  0  0  0
 21 19  1  0  0  0  0
 24 22  1  0  0  0  0
 24 23  1  0  0  0  0
 25  2  1  0  0  0  0
 25 26  1  0  0  0  0
 26 27  1  0  0  0  0
 28 27  2  0  0  0  0
 28 29  1  0  0  0  0
 31 30  1  1  0  0  0
 31 28  1  0  0  0  0
 32 31  1  0  0  0  0
 33 32  1  0  0  0  0
 34 33  2  0  0  0  0
 35 33  1  0  0  0  0
 36 37  1  0  0  0  0
 36 35  1  0  0  0  0
M  END
>  <MODEL>
1

>  <REMARK>
 VINA RESULT:      -5.5      0.000      0.000
  Name = 
  21 active torsions:
  status: ('A' for Active; 'I' for Inactive)
    1  A    between atoms: N_1  and  O_36
    2  A    between atoms: C_5  and  C_17
    3  A    between atoms: C_6  and  S_8
    4  A    between atoms: C_6  and  C_31
    5  A    between atoms: C_7  and  O_33
    6  A    between atoms: S_8  and  C_19
    7  A    between atoms: C_10  and  C_14
    8  A    between atoms: C_10  and  C_20
    9  A    between atoms: C_10  and  N_22
   10  A    between atoms: C_11  and  O_26
   11  A    between atoms: C_11  and  O_33
   12  A    between atoms: C_14  and  C_31
   13  A    between atoms: C_16  and  C_21
   14  A    between atoms: C_16  and  C_30
   15  A    between atoms: C_17  and  O_26
   16  A    between atoms: C_18  and  C_19
   17  A    between atoms: C_18  and  C_35
   18  A    between atoms: C_20  and  C_24
   19  A    between atoms: C_20  and  O_29
   20  A    between atoms: C_24  and  C_30
   21  A    between atoms: O_29  and  O_36
                            x       y       z     vdW  Elec       q    Type
                         _______ _______ _______ _____ _____    ______ ____

>  <TORSDO>
F 21

$$$$
=
 OpenBabel11052420123D

 37 36  0  0  1  0  0  0  0  0999 V2000
  189.6530  173.6110  145.3290 O   0  0  0  0  0  1  0  0  0  0  0  0
  190.1880  174.8990  145.4940 C   0  0  1  0  0  0  0  0  0  0  0  0
  188.9090  174.5360  147.5260 O   0  0  0  0  0  1  0  0  0  0  0  0
  189.6930  175.4660  146.8380 C   0  0  2  0  0  3  0  0  0  0  0  0
  188.9630  176.8060  146.7200 C   0  0  0  0  0  2  0  0  0  0  0  0
  187.4710  176.6830  147.0090 C   0  0  0  0  0  2  0  0  0  0  0  0
  185.7430  178.2460  146.5240 F   0  0  0  0  0  0  0  0  0  0  0  0
  186.6430  177.3760  145.9370 C   0  0  0  0  0  0  0  0  0  0  0  0
  185.9480  176.4230  145.2180 F   0  0  0  0  0  0  0  0  0  0  0  0
  187.4700  178.0760  145.0760 F   0  0  0  0  0  0  0  0  0  0  0  0
  191.7290  174.8130  145.5420 C   0  0  2  0  0  3  0  0  0  0  0  0
  192.7730  173.2510  143.7640 C   0  0  0  0  0  0  0  0  0  0  0  0
  192.2340  173.5210  145.0640 N   0  0  0  0  0  2  0  0  0  0  0  0
  192.7610  174.2430  142.7410 N   0  0  0  0  0  1  0  0  0  0  0  0
  193.2490  172.1140  143.5160 O   0  0  0  0  0  0  0  0  0  0  0  0
  192.3390  175.2190  146.8850 C   0  0  0  0  0  2  0  0  0  0  0  0
  193.2930  176.3830  146.6910 C   0  0  0  0  0  2  0  0  0  0  0  0
  194.6680  175.8710  146.3300 C   0  0  0  0  0  2  0  0  0  0  0  0
  195.0890  176.4410  144.6570 S   0  0  0  0  0  0  0  0  0  0  0  0
  197.2450  175.2440  143.3420 S   0  0  0  0  0  0  0  0  0  0  0  0
  196.2880  175.1330  144.4060 C   0  0  0  0  0  0  0  0  0  0  0  0
  196.4670  174.0980  145.4750 C   0  0  0  0  0  2  0  0  0  0  0  0
  196.7670  171.6750  145.9850 C   0  0  0  0  0  1  0  0  0  0  0  0
  196.4340  172.6890  144.9060 C   0  0  0  0  0  2  0  0  0  0  0  0
  189.7700  175.7650  144.4600 O   0  0  0  0  0  0  0  0  0  0  0  0
  188.6720  175.2350  143.8950 O   0  0  0  0  0  0  0  0  0  0  0  0
  188.6870  174.8870  142.5630 N   0  0  0  0  0  0  0  0  0  0  0  0
  188.3890  175.7370  141.6340 C   0  0  0  0  0  0  0  0  0  0  0  0
  188.3880  175.3290  140.3390 F   0  0  0  0  0  0  0  0  0  0  0  0
  189.2010  177.9150  142.0690 O   0  0  0  0  0  1  0  0  0  0  0  0
  188.0360  177.1510  141.9660 C   0  0  1  0  0  3  0  0  0  0  0  0
  187.1960  177.6890  140.9520 O   0  0  0  0  0  0  0  0  0  0  0  0
  185.8050  177.7140  141.0710 C   0  0  0  0  0  0  0  0  0  0  0  0
  185.0830  177.9910  140.0720 O   0  0  0  0  0  0  0  0  0  0  0  0
  185.2240  177.4060  142.3000 O   0  0  0  0  0  0  0  0  0  0  0  0
  184.3900  178.3280  142.9840 C   0  0  0  0  0  2  0  0  0  0  0  0
  183.1330  178.3490  142.3850 O   0  0  0  0  0  1  0  0  0  0  0  0
  2  1  1  6  0  0  0
  2 11  1  0  0  0  0
  2  4  1  0  0  0  0
  4  3  1  6  0  0  0
  5  4  1  0  0  0  0
  5  6  1  0  0  0  0
  8  7  1  0  0  0  0
  8  6  1  0  0  0  0
  9  8  1  0  0  0  0
 10  8  1  0  0  0  0
 11 16  1  1  0  0  0
 12 13  1  0  0  0  0
 13 11  1  0  0  0  0
 14 12  1  0  0  0  0
 15 12  2  0  0  0  0
 17 16  1  0  0  0  0
 18 17  1  0  0  0  0
 19 18  1  0  0  0  0
 20 21  2  0  0  0  0
 21 19  1  0  0  0  0
 21 22  1  0  0  0  0
 24 22  1  0  0  0  0
 24 23  1  0  0  0  0
 25  2  1  0  0  0  0
 26 25  1  0  0  0  0
 27 26  1  0  0  0  0
 28 31  1  0  0  0  0
 28 27  2  0  0  0  0
 29 28  1  0  0  0  0
 31 30  1  6  0  0  0
 32 33  1  0  0  0  0
 32 31  1  0  0  0  0
 33 35  1  0  0  0  0
 34 33  2  0  0  0  0
 35 36  1  0  0  0  0
 37 36  1  0  0  0  0
M  END
>  <MODEL>
2

>  <REMARK>
 VINA RESULT:      -5.4      3.148      4.871
  Name = 
  21 active torsions:
  status: ('A' for Active; 'I' for Inactive)
    1  A    between atoms: N_1  and  O_36
    2  A    between atoms: C_5  and  C_17
    3  A    between atoms: C_6  and  S_8
    4  A    between atoms: C_6  and  C_31
    5  A    between atoms: C_7  and  O_33
    6  A    between atoms: S_8  and  C_19
    7  A    between atoms: C_10  and  C_14
    8  A    between atoms: C_10  and  C_20
    9  A    between atoms: C_10  and  N_22
   10  A    between atoms: C_11  and  O_26
   11  A    between atoms: C_11  and  O_33
   12  A    between atoms: C_14  and  C_31
   13  A    between atoms: C_16  and  C_21
   14  A    between atoms: C_16  and  C_30
   15  A    between atoms: C_17  and  O_26
   16  A    between atoms: C_18  and  C_19
   17  A    between atoms: C_18  and  C_35
   18  A    between atoms: C_20  and  C_24
   19  A    between atoms: C_20  and  O_29
   20  A    between atoms: C_24  and  C_30
   21  A    between atoms: O_29  and  O_36
                            x       y       z     vdW  Elec       q    Type
                         _______ _______ _______ _____ _____    ______ ____

>  <TORSDO>
F 21

$$$$
=
 OpenBabel11052420123D

 37 36  0  0  1  0  0  0  0  0999 V2000
  189.0060  175.0380  147.1890 O   0  0  0  0  0  1  0  0  0  0  0  0
  189.8090  175.9960  146.5490 C   0  0  1  0  0  0  0  0  0  0  0  0
  191.1340  176.9760  148.3320 O   0  0  0  0  0  1  0  0  0  0  0  0
  191.1660  176.0620  147.2750 C   0  0  2  0  0  3  0  0  0  0  0  0
  192.3550  176.3430  146.3540 C   0  0  0  0  0  2  0  0  0  0  0  0
  193.3900  175.2220  146.3820 C   0  0  0  0  0  2  0  0  0  0  0  0
  195.7520  174.9340  146.4130 F   0  0  0  0  0  0  0  0  0  0  0  0
  194.7390  175.7060  145.8730 C   0  0  0  0  0  0  0  0  0  0  0  0
  194.9200  177.0210  146.2560 F   0  0  0  0  0  0  0  0  0  0  0  0
  194.7830  175.6290  144.4920 F   0  0  0  0  0  0  0  0  0  0  0  0
  190.0600  175.5630  145.0880 C   0  0  2  0  0  3  0  0  0  0  0  0
  190.2680  177.1790  143.0790 C   0  0  0  0  0  0  0  0  0  0  0  0
  189.5280  176.5260  144.1180 N   0  0  0  0  0  2  0  0  0  0  0  0
  191.6800  177.0200  142.9690 N   0  0  0  0  0  1  0  0  0  0  0  0
  189.6640  177.9200  142.2630 O   0  0  0  0  0  0  0  0  0  0  0  0
  189.6400  174.1260  144.7780 C   0  0  0  0  0  2  0  0  0  0  0  0
  190.8550  173.2980  144.4050 C   0  0  0  0  0  2  0  0  0  0  0  0
  190.5320  172.4040  143.2300 C   0  0  0  0  0  2  0  0  0  0  0  0
  188.8990  172.8590  142.5760 S   0  0  0  0  0  0  0  0  0  0  0  0
  188.8240  173.8980  139.9830 S   0  0  0  0  0  0  0  0  0  0  0  0
  189.5090  173.0320  140.9010 C   0  0  0  0  0  0  0  0  0  0  0  0
  190.8750  172.5140  140.5680 C   0  0  0  0  0  2  0  0  0  0  0  0
  192.6690  174.2260  140.8360 C   0  0  0  0  0  1  0  0  0  0  0  0
  191.7180  173.5600  139.8580 C   0  0  0  0  0  2  0  0  0  0  0  0
  189.2140  177.2770  146.5930 O   0  0  0  0  0  0  0  0  0  0  0  0
  187.9510  177.1320  147.0260 O   0  0  0  0  0  0  0  0  0  0  0  0
  187.3040  178.1900  147.6240 N   0  0  0  0  0  0  0  0  0  0  0  0
  186.1500  178.6040  147.2110 C   0  0  0  0  0  0  0  0  0  0  0  0
  185.5750  179.6730  147.8180 F   0  0  0  0  0  0  0  0  0  0  0  0
  184.1640  177.5570  146.4670 O   0  0  0  0  0  1  0  0  0  0  0  0
  185.4510  177.9320  146.0730 C   0  0  1  0  0  3  0  0  0  0  0  0
  185.3750  178.8170  144.9630 O   0  0  0  0  0  0  0  0  0  0  0  0
  185.2080  178.3600  143.6540 C   0  0  0  0  0  0  0  0  0  0  0  0
  184.0510  178.2600  143.1560 O   0  0  0  0  0  0  0  0  0  0  0  0
  186.3350  178.0400  142.8980 O   0  0  0  0  0  0  0  0  0  0  0  0
  186.3560  176.9190  142.0280 C   0  0  0  0  0  2  0  0  0  0  0  0
  186.4970  175.7540  142.7770 O   0  0  0  0  0  1  0  0  0  0  0  0
  2 25  1  0  0  0  0
  2  1  1  1  0  0  0
  2  4  1  0  0  0  0
  4  3  1  1  0  0  0
  5  6  1  0  0  0  0
  5  4  1  0  0  0  0
  8  9  1  0  0  0  0
  8  6  1  0  0  0  0
  8  7  1  0  0  0  0
 10  8  1  0  0  0  0
 11 16  1  6  0  0  0
 11  2  1  0  0  0  0
 12 13  1  0  0  0  0
 13 11  1  0  0  0  0
 14 12  1  0  0  0  0
 15 12  2  0  0  0  0
 17 16  1  0  0  0  0
 18 17  1  0  0  0  0
 19 18  1  0  0  0  0
 20 21  2  0  0  0  0
 21 19  1  0  0  0  0
 22 21  1  0  0  0  0
 24 22  1  0  0  0  0
 24 23  1  0  0  0  0
 25 26  1  0  0  0  0
 26 27  1  0  0  0  0
 28 27  2  0  0  0  0
 28 29  1  0  0  0  0
 31 30  1  1  0  0  0
 31 28  1  0  0  0  0
 32 31  1  0  0  0  0
 33 32  1  0  0  0  0
 34 33  2  0  0  0  0
 35 33  1  0  0  0  0
 36 37  1  0  0  0  0
 36 35  1  0  0  0  0
M  END
>  <MODEL>
3

>  <REMARK>
 VINA RESULT:      -5.2      2.186      2.682
  Name = 
  21 active torsions:
  status: ('A' for Active; 'I' for Inactive)
    1  A    between atoms: N_1  and  O_36
    2  A    between atoms: C_5  and  C_17
    3  A    between atoms: C_6  and  S_8
    4  A    between atoms: C_6  and  C_31
    5  A    between atoms: C_7  and  O_33
    6  A    between atoms: S_8  and  C_19
    7  A    between atoms: C_10  and  C_14
    8  A    between atoms: C_10  and  C_20
    9  A    between atoms: C_10  and  N_22
   10  A    between atoms: C_11  and  O_26
   11  A    between atoms: C_11  and  O_33
   12  A    between atoms: C_14  and  C_31
   13  A    between atoms: C_16  and  C_21
   14  A    between atoms: C_16  and  C_30
   15  A    between atoms: C_17  and  O_26
   16  A    between atoms: C_18  and  C_19
   17  A    between atoms: C_18  and  C_35
   18  A    between atoms: C_20  and  C_24
   19  A    between atoms: C_20  and  O_29
   20  A    between atoms: C_24  and  C_30
   21  A    between atoms: O_29  and  O_36
                            x       y       z     vdW  Elec       q    Type
                         _______ _______ _______ _____ _____    ______ ____

>  <TORSDO>
F 21

$$$$
=
 OpenBabel11052420123D

 37 36  0  0  1  0  0  0  0  0999 V2000
  190.9930  176.8280  142.9660 O   0  0  0  0  0  1  0  0  0  0  0  0
  191.2570  175.4530  143.0830 C   0  0  1  0  0  0  0  0  0  0  0  0
  190.5050  173.7640  144.6590 O   0  0  0  0  0  1  0  0  0  0  0  0
  191.0650  175.0410  144.5550 C   0  0  2  0  0  3  0  0  0  0  0  0
  190.2710  176.0490  145.3890 C   0  0  0  0  0  2  0  0  0  0  0  0
  191.1060  176.6670  146.5050 C   0  0  0  0  0  2  0  0  0  0  0  0
  191.3370  176.5160  148.8690 F   0  0  0  0  0  0  0  0  0  0  0  0
  191.1500  175.7600  147.7270 C   0  0  0  0  0  0  0  0  0  0  0  0
  192.2010  174.8750  147.5930 F   0  0  0  0  0  0  0  0  0  0  0  0
  189.9700  175.0450  147.8310 F   0  0  0  0  0  0  0  0  0  0  0  0
  190.2490  174.6610  142.2230 C   0  0  2  0  0  3  0  0  0  0  0  0
  190.6700  172.6170  140.6940 C   0  0  0  0  0  0  0  0  0  0  0  0
  190.8900  173.9750  141.0950 N   0  0  0  0  0  2  0  0  0  0  0  0
  189.8490  171.7450  141.4650 N   0  0  0  0  0  1  0  0  0  0  0  0
  191.2260  172.1830  139.6530 O   0  0  0  0  0  0  0  0  0  0  0  0
  189.0190  175.4640  141.7970 C   0  0  0  0  0  2  0  0  0  0  0  0
  187.7930  174.9730  142.5440 C   0  0  0  0  0  2  0  0  0  0  0  0
  186.7100  176.0270  142.5100 C   0  0  0  0  0  2  0  0  0  0  0  0
  187.2910  177.4990  143.4020 S   0  0  0  0  0  0  0  0  0  0  0  0
  184.6360  178.3500  143.5780 S   0  0  0  0  0  0  0  0  0  0  0  0
  185.7320  177.7180  144.2560 C   0  0  0  0  0  0  0  0  0  0  0  0
  185.4990  176.9870  145.5430 C   0  0  0  0  0  2  0  0  0  0  0  0
  187.2300  177.7390  147.1740 C   0  0  0  0  0  1  0  0  0  0  0  0
  186.8050  176.6280  146.2320 C   0  0  0  0  0  2  0  0  0  0  0  0
  192.5830  175.1500  142.7020 O   0  0  0  0  0  0  0  0  0  0  0  0
  193.3670  175.2950  143.7830 O   0  0  0  0  0  0  0  0  0  0  0  0
  194.2810  176.3230  143.8340 N   0  0  0  0  0  0  0  0  0  0  0  0
  195.5490  176.1150  143.6770 C   0  0  0  0  0  0  0  0  0  0  0  0
  196.4080  177.1620  143.7700 F   0  0  0  0  0  0  0  0  0  0  0  0
  196.8040  174.7460  142.2130 O   0  0  0  0  0  1  0  0  0  0  0  0
  196.0780  174.7430  143.4060 C   0  0  1  0  0  3  0  0  0  0  0  0
  196.9170  174.3300  144.4780 O   0  0  0  0  0  0  0  0  0  0  0  0
  196.4100  173.7250  145.6310 C   0  0  0  0  0  0  0  0  0  0  0  0
  197.1510  173.5540  146.6400 O   0  0  0  0  0  0  0  0  0  0  0  0
  195.0710  173.3390  145.6610 O   0  0  0  0  0  0  0  0  0  0  0  0
  194.6750  172.0010  145.4010 C   0  0  0  0  0  2  0  0  0  0  0  0
  193.3320  171.9780  145.0360 O   0  0  0  0  0  1  0  0  0  0  0  0
  2  1  1  6  0  0  0
  2  4  1  0  0  0  0
  4  3  1  6  0  0  0
  4  5  1  0  0  0  0
  5  6  1  0  0  0  0
  6  8  1  0  0  0  0
  8 10  1  0  0  0  0
  8  7  1  0  0  0  0
  9  8  1  0  0  0  0
 11 16  1  6  0  0  0
 11  2  1  0  0  0  0
 12 13  1  0  0  0  0
 12 14  1  0  0  0  0
 13 11  1  0  0  0  0
 15 12  2  0  0  0  0
 16 17  1  0  0  0  0
 18 17  1  0  0  0  0
 18 19  1  0  0  0  0
 19 21  1  0  0  0  0
 20 21  2  0  0  0  0
 21 22  1  0  0  0  0
 22 24  1  0  0  0  0
 24 23  1  0  0  0  0
 25  2  1  0  0  0  0
 25 26  1  0  0  0  0
 26 27  1  0  0  0  0
 28 29  1  0  0  0  0
 28 27  2  0  0  0  0
 31 30  1  6  0  0  0
 31 28  1  0  0  0  0
 31 32  1  0  0  0  0
 32 33  1  0  0  0  0
 33 35  1  0  0  0  0
 33 34  2  0  0  0  0
 36 35  1  0  0  0  0
 37 36  1  0  0  0  0
M  END
>  <MODEL>
4

>  <REMARK>
 VINA RESULT:      -5.1      4.224      8.320
  Name = 
  21 active torsions:
  status: ('A' for Active; 'I' for Inactive)
    1  A    between atoms: N_1  and  O_36
    2  A    between atoms: C_5  and  C_17
    3  A    between atoms: C_6  and  S_8
    4  A    between atoms: C_6  and  C_31
    5  A    between atoms: C_7  and  O_33
    6  A    between atoms: S_8  and  C_19
    7  A    between atoms: C_10  and  C_14
    8  A    between atoms: C_10  and  C_20
    9  A    between atoms: C_10  and  N_22
   10  A    between atoms: C_11  and  O_26
   11  A    between atoms: C_11  and  O_33
   12  A    between atoms: C_14  and  C_31
   13  A    between atoms: C_16  and  C_21
   14  A    between atoms: C_16  and  C_30
   15  A    between atoms: C_17  and  O_26
   16  A    between atoms: C_18  and  C_19
   17  A    between atoms: C_18  and  C_35
   18  A    between atoms: C_20  and  C_24
   19  A    between atoms: C_20  and  O_29
   20  A    between atoms: C_24  and  C_30
   21  A    between atoms: O_29  and  O_36
                            x       y       z     vdW  Elec       q    Type
                         _______ _______ _______ _____ _____    ______ ____

>  <TORSDO>
F 21

$$$$
=
 OpenBabel11052420123D

 37 36  0  0  1  0  0  0  0  0999 V2000
  189.9330  176.8020  142.8360 O   0  0  0  0  0  1  0  0  0  0  0  0
  189.2810  175.6550  143.3200 C   0  0  1  0  0  0  0  0  0  0  0  0
  189.1150  177.2370  145.1550 O   0  0  0  0  0  1  0  0  0  0  0  0
  188.7640  175.9490  144.7410 C   0  0  2  0  0  3  0  0  0  0  0  0
  189.1820  174.9130  145.7860 C   0  0  0  0  0  2  0  0  0  0  0  0
  189.5390  175.5500  147.1260 C   0  0  0  0  0  2  0  0  0  0  0  0
  191.3060  175.0960  148.6540 F   0  0  0  0  0  0  0  0  0  0  0  0
  191.0410  175.5230  147.3660 C   0  0  0  0  0  0  0  0  0  0  0  0
  191.5450  176.7980  147.2010 F   0  0  0  0  0  0  0  0  0  0  0  0
  191.6530  174.6750  146.4600 F   0  0  0  0  0  0  0  0  0  0  0  0
  188.0680  175.3350  142.4190 C   0  0  2  0  0  3  0  0  0  0  0  0
  188.6520  174.0820  140.2320 C   0  0  0  0  0  0  0  0  0  0  0  0
  188.4270  175.2730  140.9980 N   0  0  0  0  0  2  0  0  0  0  0  0
  188.6530  172.7990  140.8500 N   0  0  0  0  0  1  0  0  0  0  0  0
  188.8700  174.1740  138.9980 O   0  0  0  0  0  0  0  0  0  0  0  0
  186.8440  176.2150  142.6770 C   0  0  0  0  0  2  0  0  0  0  0  0
  186.5000  177.0040  141.4270 C   0  0  0  0  0  2  0  0  0  0  0  0
  185.7690  178.2730  141.8010 C   0  0  0  0  0  2  0  0  0  0  0  0
  186.2570  178.7590  143.4820 S   0  0  0  0  0  0  0  0  0  0  0  0
  183.4870  178.6520  143.1300 S   0  0  0  0  0  0  0  0  0  0  0  0
  184.5640  178.8090  144.0660 C   0  0  0  0  0  0  0  0  0  0  0  0
  184.3000  178.7170  145.5380 C   0  0  0  0  0  2  0  0  0  0  0  0
  185.6090  176.9360  146.6950 C   0  0  0  0  0  1  0  0  0  0  0  0
  185.5660  178.4060  146.3200 C   0  0  0  0  0  2  0  0  0  0  0  0
  190.1600  174.5520  143.3830 O   0  0  0  0  0  0  0  0  0  0  0  0
  191.2450  174.8450  142.6460 O   0  0  0  0  0  0  0  0  0  0  0  0
  191.9800  173.8320  142.0730 N   0  0  0  0  0  0  0  0  0  0  0  0
  193.0350  173.3480  142.6470 C   0  0  0  0  0  0  0  0  0  0  0  0
  193.7390  172.3720  142.0200 F   0  0  0  0  0  0  0  0  0  0  0  0
  194.2450  172.8730  144.6220 O   0  0  0  0  0  1  0  0  0  0  0  0
  193.4910  173.8560  143.9760 C   0  0  1  0  0  3  0  0  0  0  0  0
  194.2790  175.0270  143.8000 O   0  0  0  0  0  0  0  0  0  0  0  0
  195.2970  175.3820  144.6880 C   0  0  0  0  0  0  0  0  0  0  0  0
  195.0170  175.9010  145.8060 O   0  0  0  0  0  0  0  0  0  0  0  0
  196.6220  175.1320  144.3360 O   0  0  0  0  0  0  0  0  0  0  0  0
  197.2050  175.7020  143.1730 C   0  0  0  0  0  2  0  0  0  0  0  0
  197.1880  177.0900  143.2790 O   0  0  0  0  0  1  0  0  0  0  0  0
  2  1  1  6  0  0  0
  2 25  1  0  0  0  0
  2  4  1  0  0  0  0
  4  3  1  1  0  0  0
  4  5  1  0  0  0  0
  5  6  1  0  0  0  0
  6  8  1  0  0  0  0
  8  7  1  0  0  0  0
  9  8  1  0  0  0  0
 10  8  1  0  0  0  0
 11 16  1  6  0  0  0
 11  2  1  0  0  0  0
 12 14  1  0  0  0  0
 12 13  1  0  0  0  0
 13 11  1  0  0  0  0
 15 12  2  0  0  0  0
 17 18  1  0  0  0  0
 17 16  1  0  0  0  0
 18 19  1  0  0  0  0
 19 21  1  0  0  0  0
 20 21  2  0  0  0  0
 21 22  1  0  0  0  0
 22 24  1  0  0  0  0
 24 23  1  0  0  0  0
 26 25  1  0  0  0  0
 27 26  1  0  0  0  0
 27 28  2  0  0  0  0
 28 31  1  0  0  0  0
 29 28  1  0  0  0  0
 31 30  1  6  0  0  0
 32 31  1  0  0  0  0
 32 33  1  0  0  0  0
 33 34  2  0  0  0  0
 35 33  1  0  0  0  0
 36 37  1  0  0  0  0
 36 35  1  0  0  0  0
M  END
>  <MODEL>
5

>  <REMARK>
 VINA RESULT:      -5.1      3.967      8.307
  Name = 
  21 active torsions:
  status: ('A' for Active; 'I' for Inactive)
    1  A    between atoms: N_1  and  O_36
    2  A    between atoms: C_5  and  C_17
    3  A    between atoms: C_6  and  S_8
    4  A    between atoms: C_6  and  C_31
    5  A    between atoms: C_7  and  O_33
    6  A    between atoms: S_8  and  C_19
    7  A    between atoms: C_10  and  C_14
    8  A    between atoms: C_10  and  C_20
    9  A    between atoms: C_10  and  N_22
   10  A    between atoms: C_11  and  O_26
   11  A    between atoms: C_11  and  O_33
   12  A    between atoms: C_14  and  C_31
   13  A    between atoms: C_16  and  C_21
   14  A    between atoms: C_16  and  C_30
   15  A    between atoms: C_17  and  O_26
   16  A    between atoms: C_18  and  C_19
   17  A    between atoms: C_18  and  C_35
   18  A    between atoms: C_20  and  C_24
   19  A    between atoms: C_20  and  O_29
   20  A    between atoms: C_24  and  C_30
   21  A    between atoms: O_29  and  O_36
                            x       y       z     vdW  Elec       q    Type
                         _______ _______ _______ _____ _____    ______ ____

>  <TORSDO>
F 21

$$$$
=
 OpenBabel11052420123D

 37 36  0  0  1  0  0  0  0  0999 V2000
  189.1880  172.5230  143.3490 O   0  0  0  0  0  1  0  0  0  0  0  0
  189.4030  173.8950  143.1360 C   0  0  1  0  0  0  0  0  0  0  0  0
  189.6830  173.6270  145.5340 O   0  0  0  0  0  1  0  0  0  0  0  0
  189.6670  174.5660  144.4980 C   0  0  2  0  0  3  0  0  0  0  0  0
  188.7120  175.7160  144.8250 C   0  0  0  0  0  2  0  0  0  0  0  0
  188.7550  176.1050  146.2990 C   0  0  0  0  0  2  0  0  0  0  0  0
  190.2300  177.7500  145.4170 F   0  0  0  0  0  0  0  0  0  0  0  0
  189.8870  177.0830  146.5780 C   0  0  0  0  0  0  0  0  0  0  0  0
  190.9840  176.3810  147.0370 F   0  0  0  0  0  0  0  0  0  0  0  0
  189.5010  177.9970  147.5420 F   0  0  0  0  0  0  0  0  0  0  0  0
  190.6520  174.0890  142.2500 C   0  0  2  0  0  3  0  0  0  0  0  0
  190.9940  172.5000  140.2370 C   0  0  0  0  0  0  0  0  0  0  0  0
  191.0960  172.8370  141.6260 N   0  0  0  0  0  2  0  0  0  0  0  0
  190.3170  173.3540  139.3200 N   0  0  0  0  0  1  0  0  0  0  0  0
  191.4940  171.4230  139.8250 O   0  0  0  0  0  0  0  0  0  0  0  0
  191.7960  174.8410  142.9320 C   0  0  0  0  0  2  0  0  0  0  0  0
  193.0120  173.9410  143.0490 C   0  0  0  0  0  2  0  0  0  0  0  0
  194.1750  174.5420  142.2920 C   0  0  0  0  0  2  0  0  0  0  0  0
  194.8820  175.8950  143.2760 S   0  0  0  0  0  0  0  0  0  0  0  0
  196.7040  173.9000  143.9880 S   0  0  0  0  0  0  0  0  0  0  0  0
  195.6600  174.7770  144.4380 C   0  0  0  0  0  0  0  0  0  0  0  0
  195.4250  174.9740  145.9050 C   0  0  0  0  0  2  0  0  0  0  0  0
  194.2610  177.0310  146.7010 C   0  0  0  0  0  1  0  0  0  0  0  0
  194.0760  175.6180  146.1780 C   0  0  0  0  0  2  0  0  0  0  0  0
  188.2740  174.5070  142.5470 O   0  0  0  0  0  0  0  0  0  0  0  0
  188.6990  175.2420  141.5060 O   0  0  0  0  0  0  0  0  0  0  0  0
  187.7880  175.7570  140.6120 N   0  0  0  0  0  0  0  0  0  0  0  0
  187.2390  176.9150  140.7900 C   0  0  0  0  0  0  0  0  0  0  0  0
  186.3210  177.3580  139.8930 F   0  0  0  0  0  0  0  0  0  0  0  0
  188.7030  178.5510  141.6690 O   0  0  0  0  0  1  0  0  0  0  0  0
  187.5910  177.7620  141.9710 C   0  0  1  0  0  3  0  0  0  0  0  0
  186.4890  178.5950  142.3120 O   0  0  0  0  0  0  0  0  0  0  0  0
  185.3530  178.1030  142.9580 C   0  0  0  0  0  0  0  0  0  0  0  0
  184.2030  178.3190  142.4810 O   0  0  0  0  0  0  0  0  0  0  0  0
  185.5080  177.3490  144.1200 O   0  0  0  0  0  0  0  0  0  0  0  0
  185.1250  177.8510  145.3910 C   0  0  0  0  0  2  0  0  0  0  0  0
  185.5340  179.1760  145.5090 O   0  0  0  0  0  1  0  0  0  0  0  0
  2  1  1  1  0  0  0
  2  4  1  0  0  0  0
  4  5  1  0  0  0  0
  4  3  1  1  0  0  0
  5  6  1  0  0  0  0
  6  8  1  0  0  0  0
  7  8  1  0  0  0  0
  8  9  1  0  0  0  0
  8 10  1  0  0  0  0
 11 16  1  1  0  0  0
 11  2  1  0  0  0  0
 12 13  1  0  0  0  0
 13 11  1  0  0  0  0
 14 12  1  0  0  0  0
 15 12  2  0  0  0  0
 16 17  1  0  0  0  0
 18 17  1  0  0  0  0
 18 19  1  0  0  0  0
 19 21  1  0  0  0  0
 20 21  2  0  0  0  0
 21 22  1  0  0  0  0
 22 24  1  0  0  0  0
 24 23  1  0  0  0  0
 25  2  1  0  0  0  0
 26 25  1  0  0  0  0
 27 28  2  0  0  0  0
 27 26  1  0  0  0  0
 28 31  1  0  0  0  0
 29 28  1  0  0  0  0
 31 30  1  6  0  0  0
 31 32  1  0  0  0  0
 32 33  1  0  0  0  0
 33 35  1  0  0  0  0
 34 33  2  0  0  0  0
 35 36  1  0  0  0  0
 36 37  1  0  0  0  0
M  END
>  <MODEL>
6

>  <REMARK>
 VINA RESULT:      -5.1      2.811      4.331
  Name = 
  21 active torsions:
  status: ('A' for Active; 'I' for Inactive)
    1  A    between atoms: N_1  and  O_36
    2  A    between atoms: C_5  and  C_17
    3  A    between atoms: C_6  and  S_8
    4  A    between atoms: C_6  and  C_31
    5  A    between atoms: C_7  and  O_33
    6  A    between atoms: S_8  and  C_19
    7  A    between atoms: C_10  and  C_14
    8  A    between atoms: C_10  and  C_20
    9  A    between atoms: C_10  and  N_22
   10  A    between atoms: C_11  and  O_26
   11  A    between atoms: C_11  and  O_33
   12  A    between atoms: C_14  and  C_31
   13  A    between atoms: C_16  and  C_21
   14  A    between atoms: C_16  and  C_30
   15  A    between atoms: C_17  and  O_26
   16  A    between atoms: C_18  and  C_19
   17  A    between atoms: C_18  and  C_35
   18  A    between atoms: C_20  and  C_24
   19  A    between atoms: C_20  and  O_29
   20  A    between atoms: C_24  and  C_30
   21  A    between atoms: O_29  and  O_36
                            x       y       z     vdW  Elec       q    Type
                         _______ _______ _______ _____ _____    ______ ____

>  <TORSDO>
F 21

$$$$
=
 OpenBabel11052420123D

 37 36  0  0  1  0  0  0  0  0999 V2000
  190.3530  177.0680  144.5060 O   0  0  0  0  0  1  0  0  0  0  0  0
  190.6170  175.7840  144.0000 C   0  0  1  0  0  0  0  0  0  0  0  0
  191.3280  173.6190  144.8410 O   0  0  0  0  0  1  0  0  0  0  0  0
  190.6420  174.7900  145.1770 C   0  0  2  0  0  3  0  0  0  0  0  0
  189.2610  174.4610  145.7480 C   0  0  0  0  0  2  0  0  0  0  0  0
  188.9690  175.2210  147.0380 C   0  0  0  0  0  2  0  0  0  0  0  0
  186.8840  176.1360  147.7310 F   0  0  0  0  0  0  0  0  0  0  0  0
  187.9110  176.2920  146.8190 C   0  0  0  0  0  0  0  0  0  0  0  0
  187.4030  176.1680  145.5400 F   0  0  0  0  0  0  0  0  0  0  0  0
  188.4700  177.5500  146.9610 F   0  0  0  0  0  0  0  0  0  0  0  0
  189.4840  175.3670  143.0370 C   0  0  2  0  0  3  0  0  0  0  0  0
  189.6660  173.1690  141.6850 C   0  0  0  0  0  0  0  0  0  0  0  0
  189.9700  174.5500  141.9200 N   0  0  0  0  0  2  0  0  0  0  0  0
  188.9150  172.4100  142.6290 N   0  0  0  0  0  1  0  0  0  0  0  0
  190.0850  172.6140  140.6380 O   0  0  0  0  0  0  0  0  0  0  0  0
  188.5960  176.5230  142.5740 C   0  0  0  0  0  2  0  0  0  0  0  0
  187.2100  176.0080  142.2300 C   0  0  0  0  0  2  0  0  0  0  0  0
  186.4380  177.0660  141.4760 C   0  0  0  0  0  2  0  0  0  0  0  0
  186.5240  178.6280  142.3990 S   0  0  0  0  0  0  0  0  0  0  0  0
  183.7680  178.1960  142.2430 S   0  0  0  0  0  0  0  0  0  0  0  0
  184.8930  178.4140  143.1080 C   0  0  0  0  0  0  0  0  0  0  0  0
  184.7680  178.1720  144.5810 C   0  0  0  0  0  2  0  0  0  0  0  0
  185.3810  179.0030  146.8510 C   0  0  0  0  0  1  0  0  0  0  0  0
  185.7430  179.0220  145.3780 C   0  0  0  0  0  2  0  0  0  0  0  0
  191.8680  175.7360  143.3470 O   0  0  0  0  0  0  0  0  0  0  0  0
  192.8270  175.7620  144.2880 O   0  0  0  0  0  0  0  0  0  0  0  0
  193.5390  176.9190  144.5100 N   0  0  0  0  0  0  0  0  0  0  0  0
  194.6380  176.9220  145.1940 C   0  0  0  0  0  0  0  0  0  0  0  0
  195.2800  178.0980  145.4090 F   0  0  0  0  0  0  0  0  0  0  0  0
  194.3060  175.1170  146.6850 O   0  0  0  0  0  1  0  0  0  0  0  0
  195.1990  175.6560  145.7570 C   0  0  1  0  0  3  0  0  0  0  0  0
  195.4260  174.7220  144.7090 O   0  0  0  0  0  0  0  0  0  0  0  0
  196.4440  174.8890  143.7680 C   0  0  0  0  0  0  0  0  0  0  0  0
  197.6540  174.9130  144.1330 O   0  0  0  0  0  0  0  0  0  0  0  0
  196.1090  175.0040  142.4200 O   0  0  0  0  0  0  0  0  0  0  0  0
  196.8460  175.8350  141.5360 C   0  0  0  0  0  2  0  0  0  0  0  0
  196.1710  177.0400  141.3610 O   0  0  0  0  0  1  0  0  0  0  0  0
  2  1  1  1  0  0  0
  2  4  1  0  0  0  0
  4  3  1  6  0  0  0
  4  5  1  0  0  0  0
  5  6  1  0  0  0  0
  8 10  1  0  0  0  0
  8  6  1  0  0  0  0
  8  7  1  0  0  0  0
  9  8  1  0  0  0  0
 11 16  1  6  0  0  0
 11  2  1  0  0  0  0
 12 13  1  0  0  0  0
 12 14  1  0  0  0  0
 13 11  1  0  0  0  0
 15 12  2  0  0  0  0
 17 16  1  0  0  0  0
 18 17  1  0  0  0  0
 18 19  1  0  0  0  0
 19 21  1  0  0  0  0
 20 21  2  0  0  0  0
 21 22  1  0  0  0  0
 22 24  1  0  0  0  0
 24 23  1  0  0  0  0
 25  2  1  0  0  0  0
 25 26  1  0  0  0  0
 26 27  1  0  0  0  0
 27 28  2  0  0  0  0
 28 29  1  0  0  0  0
 28 31  1  0  0  0  0
 31 30  1  1  0  0  0
 32 31  1  0  0  0  0
 33 34  2  0  0  0  0
 33 32  1  0  0  0  0
 35 33  1  0  0  0  0
 36 35  1  0  0  0  0
 37 36  1  0  0  0  0
M  END
>  <MODEL>
7

>  <REMARK>
 VINA RESULT:      -5.0      3.994      8.420
  Name = 
  21 active torsions:
  status: ('A' for Active; 'I' for Inactive)
    1  A    between atoms: N_1  and  O_36
    2  A    between atoms: C_5  and  C_17
    3  A    between atoms: C_6  and  S_8
    4  A    between atoms: C_6  and  C_31
    5  A    between atoms: C_7  and  O_33
    6  A    between atoms: S_8  and  C_19
    7  A    between atoms: C_10  and  C_14
    8  A    between atoms: C_10  and  C_20
    9  A    between atoms: C_10  and  N_22
   10  A    between atoms: C_11  and  O_26
   11  A    between atoms: C_11  and  O_33
   12  A    between atoms: C_14  and  C_31
   13  A    between atoms: C_16  and  C_21
   14  A    between atoms: C_16  and  C_30
   15  A    between atoms: C_17  and  O_26
   16  A    between atoms: C_18  and  C_19
   17  A    between atoms: C_18  and  C_35
   18  A    between atoms: C_20  and  C_24
   19  A    between atoms: C_20  and  O_29
   20  A    between atoms: C_24  and  C_30
   21  A    between atoms: O_29  and  O_36
                            x       y       z     vdW  Elec       q    Type
                         _______ _______ _______ _____ _____    ______ ____

>  <TORSDO>
F 21

$$$$
=
 OpenBabel11052420123D

 37 36  0  0  1  0  0  0  0  0999 V2000
  190.7620  177.2060  144.6040 O   0  0  0  0  0  1  0  0  0  0  0  0
  190.8200  175.9510  145.2340 C   0  0  1  0  0  0  0  0  0  0  0  0
  189.2240  174.6960  146.5660 O   0  0  0  0  0  1  0  0  0  0  0  0
  189.8270  175.9480  146.4110 C   0  0  2  0  0  3  0  0  0  0  0  0
  188.7690  177.0520  146.3410 C   0  0  0  0  0  2  0  0  0  0  0  0
  187.4080  176.5250  145.8970 C   0  0  0  0  0  2  0  0  0  0  0  0
  185.0660  176.7410  146.2630 F   0  0  0  0  0  0  0  0  0  0  0  0
  186.3010  177.0110  146.8220 C   0  0  0  0  0  0  0  0  0  0  0  0
  186.4290  178.3750  146.9980 F   0  0  0  0  0  0  0  0  0  0  0  0
  186.4010  176.3860  148.0530 F   0  0  0  0  0  0  0  0  0  0  0  0
  190.3920  174.8540  144.2350 C   0  0  2  0  0  3  0  0  0  0  0  0
  190.8090  172.3010  144.2610 C   0  0  0  0  0  0  0  0  0  0  0  0
  191.2480  173.6650  144.3080 N   0  0  0  0  0  2  0  0  0  0  0  0
  189.4220  171.9740  144.2500 N   0  0  0  0  0  1  0  0  0  0  0  0
  191.6620  171.3780  144.2490 O   0  0  0  0  0  0  0  0  0  0  0  0
  190.2000  175.3500  142.8010 C   0  0  0  0  0  2  0  0  0  0  0  0
  188.7640  175.1300  142.3630 C   0  0  0  0  0  2  0  0  0  0  0  0
  188.0380  176.4530  142.2840 C   0  0  0  0  0  2  0  0  0  0  0  0
  186.2900  176.1910  142.7050 S   0  0  0  0  0  0  0  0  0  0  0  0
  186.2510  177.7280  140.3720 S   0  0  0  0  0  0  0  0  0  0  0  0
  185.7400  177.5710  141.7040 C   0  0  0  0  0  0  0  0  0  0  0  0
  184.5490  178.3630  142.1510 C   0  0  0  0  0  2  0  0  0  0  0  0
  185.5580  179.7050  143.9960 C   0  0  0  0  0  1  0  0  0  0  0  0
  184.5660  178.6090  143.6510 C   0  0  0  0  0  2  0  0  0  0  0  0
  192.1130  175.6890  145.7380 O   0  0  0  0  0  0  0  0  0  0  0  0
  193.0030  176.2680  144.9150 O   0  0  0  0  0  0  0  0  0  0  0  0
  193.7530  177.3340  145.3560 N   0  0  0  0  0  0  0  0  0  0  0  0
  195.0040  177.4610  145.0480 C   0  0  0  0  0  0  0  0  0  0  0  0
  195.7030  178.5150  145.5390 F   0  0  0  0  0  0  0  0  0  0  0  0
  196.7810  177.0580  143.5400 O   0  0  0  0  0  1  0  0  0  0  0  0
  195.6880  176.4610  144.1720 C   0  0  1  0  0  3  0  0  0  0  0  0
  196.1290  175.3570  144.9540 O   0  0  0  0  0  0  0  0  0  0  0  0
  196.1950  174.0590  144.4420 C   0  0  0  0  0  0  0  0  0  0  0  0
  195.3600  173.1850  144.8090 O   0  0  0  0  0  0  0  0  0  0  0  0
  197.1780  173.7510  143.5030 O   0  0  0  0  0  0  0  0  0  0  0  0
  196.8500  173.4120  142.1640 C   0  0  0  0  0  2  0  0  0  0  0  0
  197.3650  174.3760  141.3030 O   0  0  0  0  0  1  0  0  0  0  0  0
  2  1  1  6  0  0  0
  2 25  1  0  0  0  0
  2  4  1  0  0  0  0
  4  3  1  6  0  0  0
  5  4  1  0  0  0  0
  6  5  1  0  0  0  0
  6  8  1  0  0  0  0
  7  8  1  0  0  0  0
  8  9  1  0  0  0  0
  8 10  1  0  0  0  0
 11 16  1  6  0  0  0
 11 13  1  0  0  0  0
 11  2  1  0  0  0  0
 12 13  1  0  0  0  0
 14 12  1  0  0  0  0
 15 12  2  0  0  0  0
 17 16  1  0  0  0  0
 18 17  1  0  0  0  0
 18 19  1  0  0  0  0
 20 21  2  0  0  0  0
 21 22  1  0  0  0  0
 21 19  1  0  0  0  0
 22 24  1  0  0  0  0
 24 23  1  0  0  0  0
 26 27  1  0  0  0  0
 26 25  1  0  0  0  0
 28 27  2  0  0  0  0
 28 29  1  0  0  0  0
 31 30  1  1  0  0  0
 31 32  1  0  0  0  0
 31 28  1  0  0  0  0
 33 34  2  0  0  0  0
 33 32  1  0  0  0  0
 35 33  1  0  0  0  0
 36 35  1  0  0  0  0
 37 36  1  0  0  0  0
M  END
>  <MODEL>
8

>  <REMARK>
 VINA RESULT:      -4.9      3.863      8.676
  Name = 
  21 active torsions:
  status: ('A' for Active; 'I' for Inactive)
    1  A    between atoms: N_1  and  O_36
    2  A    between atoms: C_5  and  C_17
    3  A    between atoms: C_6  and  S_8
    4  A    between atoms: C_6  and  C_31
    5  A    between atoms: C_7  and  O_33
    6  A    between atoms: S_8  and  C_19
    7  A    between atoms: C_10  and  C_14
    8  A    between atoms: C_10  and  C_20
    9  A    between atoms: C_10  and  N_22
   10  A    between atoms: C_11  and  O_26
   11  A    between atoms: C_11  and  O_33
   12  A    between atoms: C_14  and  C_31
   13  A    between atoms: C_16  and  C_21
   14  A    between atoms: C_16  and  C_30
   15  A    between atoms: C_17  and  O_26
   16  A    between atoms: C_18  and  C_19
   17  A    between atoms: C_18  and  C_35
   18  A    between atoms: C_20  and  C_24
   19  A    between atoms: C_20  and  O_29
   20  A    between atoms: C_24  and  C_30
   21  A    between atoms: O_29  and  O_36
                            x       y       z     vdW  Elec       q    Type
                         _______ _______ _______ _____ _____    ______ ____

>  <TORSDO>
F 21

$$$$
=
 OpenBabel11052420123D

 37 36  0  0  1  0  0  0  0  0999 V2000
  191.3460  174.2750  144.9520 O   0  0  0  0  0  1  0  0  0  0  0  0
  190.5550  174.4290  143.8010 C   0  0  1  0  0  0  0  0  0  0  0  0
  189.8650  172.2760  144.6880 O   0  0  0  0  0  1  0  0  0  0  0  0
  189.5840  173.2360  143.7120 C   0  0  2  0  0  3  0  0  0  0  0  0
  189.5080  172.5920  142.3260 C   0  0  0  0  0  2  0  0  0  0  0  0
  188.2390  172.9790  141.5740 C   0  0  0  0  0  2  0  0  0  0  0  0
  187.8140  172.3780  139.3110 F   0  0  0  0  0  0  0  0  0  0  0  0
  188.5300  173.2540  140.1060 C   0  0  0  0  0  0  0  0  0  0  0  0
  189.8800  173.0740  139.8740 F   0  0  0  0  0  0  0  0  0  0  0  0
  188.1880  174.5560  139.7880 F   0  0  0  0  0  0  0  0  0  0  0  0
  189.7230  175.7240  143.9170 C   0  0  2  0  0  3  0  0  0  0  0  0
  188.5840  176.5170  146.1000 C   0  0  0  0  0  0  0  0  0  0  0  0
  188.7050  175.6440  144.9700 N   0  0  0  0  0  2  0  0  0  0  0  0
  189.5610  177.5200  146.3630 N   0  0  0  0  0  1  0  0  0  0  0  0
  187.6090  176.3840  146.8820 O   0  0  0  0  0  0  0  0  0  0  0  0
  189.1540  176.2270  142.5890 C   0  0  0  0  0  2  0  0  0  0  0  0
  189.1840  177.7440  142.5530 C   0  0  0  0  0  2  0  0  0  0  0  0
  187.7910  178.2930  142.7610 C   0  0  0  0  0  2  0  0  0  0  0  0
  186.5980  177.2030  141.9320 S   0  0  0  0  0  0  0  0  0  0  0  0
  184.0510  178.2670  142.3660 S   0  0  0  0  0  0  0  0  0  0  0  0
  185.2390  177.7360  142.9710 C   0  0  0  0  0  0  0  0  0  0  0  0
  185.2380  177.3520  144.4190 C   0  0  0  0  0  2  0  0  0  0  0  0
  185.5660  179.1440  146.1230 C   0  0  0  0  0  1  0  0  0  0  0  0
  184.5490  178.3970  145.2800 C   0  0  0  0  0  2  0  0  0  0  0  0
  191.3480  174.4490  142.6320 O   0  0  0  0  0  0  0  0  0  0  0  0
  192.6290  174.6110  143.0030 O   0  0  0  0  0  0  0  0  0  0  0  0
  193.3570  175.6700  142.5100 N   0  0  0  0  0  0  0  0  0  0  0  0
  194.6500  175.6920  142.5660 C   0  0  0  0  0  0  0  0  0  0  0  0
  195.3140  176.7770  142.0940 F   0  0  0  0  0  0  0  0  0  0  0  0
  196.5230  174.2650  142.3480 O   0  0  0  0  0  1  0  0  0  0  0  0
  195.4160  174.5500  143.1510 C   0  0  1  0  0  3  0  0  0  0  0  0
  195.8480  174.8810  144.4650 O   0  0  0  0  0  0  0  0  0  0  0  0
  195.0170  174.7440  145.5800 C   0  0  0  0  0  0  0  0  0  0  0  0
  194.3590  173.6800  145.7590 O   0  0  0  0  0  0  0  0  0  0  0  0
  194.9440  175.7860  146.5030 O   0  0  0  0  0  0  0  0  0  0  0  0
  194.4570  177.0700  146.1420 C   0  0  0  0  0  2  0  0  0  0  0  0
  193.2180  176.9380  145.5220 O   0  0  0  0  0  1  0  0  0  0  0  0
  2 11  1  0  0  0  0
  2  1  1  1  0  0  0
  4  2  1  0  0  0  0
  4  3  1  1  0  0  0
  5  4  1  0  0  0  0
  6  5  1  0  0  0  0
  7  8  1  0  0  0  0
  8  6  1  0  0  0  0
  9  8  1  0  0  0  0
 10  8  1  0  0  0  0
 11 16  1  6  0  0  0
 11 13  1  0  0  0  0
 12 14  1  0  0  0  0
 12 15  2  0  0  0  0
 13 12  1  0  0  0  0
 17 16  1  0  0  0  0
 17 18  1  0  0  0  0
 19 18  1  0  0  0  0
 19 21  1  0  0  0  0
 20 21  2  0  0  0  0
 21 22  1  0  0  0  0
 22 24  1  0  0  0  0
 24 23  1  0  0  0  0
 25 26  1  0  0  0  0
 25  2  1  0  0  0  0
 27 28  2  0  0  0  0
 27 26  1  0  0  0  0
 28 31  1  0  0  0  0
 29 28  1  0  0  0  0
 31 30  1  6  0  0  0
 31 32  1  0  0  0  0
 32 33  1  0  0  0  0
 33 34  2  0  0  0  0
 33 35  1  0  0  0  0
 36 35  1  0  0  0  0
 37 36  1  0  0  0  0
M  END
>  <MODEL>
9

>  <REMARK>
 VINA RESULT:      -4.9      4.596      8.784
  Name = 
  21 active torsions:
  status: ('A' for Active; 'I' for Inactive)
    1  A    between atoms: N_1  and  O_36
    2  A    between atoms: C_5  and  C_17
    3  A    between atoms: C_6  and  S_8
    4  A    between atoms: C_6  and  C_31
    5  A    between atoms: C_7  and  O_33
    6  A    between atoms: S_8  and  C_19
    7  A    between atoms: C_10  and  C_14
    8  A    between atoms: C_10  and  C_20
    9  A    between atoms: C_10  and  N_22
   10  A    between atoms: C_11  and  O_26
   11  A    between atoms: C_11  and  O_33
   12  A    between atoms: C_14  and  C_31
   13  A    between atoms: C_16  and  C_21
   14  A    between atoms: C_16  and  C_30
   15  A    between atoms: C_17  and  O_26
   16  A    between atoms: C_18  and  C_19
   17  A    between atoms: C_18  and  C_35
   18  A    between atoms: C_20  and  C_24
   19  A    between atoms: C_20  and  O_29
   20  A    between atoms: C_24  and  C_30
   21  A    between atoms: O_29  and  O_36
                            x       y       z     vdW  Elec       q    Type
                         _______ _______ _______ _____ _____    ______ ____

>  <TORSDO>
F 21

$$$$
