=
 OpenBabel11052419293D

 55 61  0  0  1  0  0  0  0  0999 V2000
  193.1210  169.1620  137.8950 O   0  0  0  0  0  0  0  0  0  0  0  0
  191.4970  173.8280  142.0610 C   0  0  0  0  0  2  0  0  0  0  0  0
  193.2860  172.0400  145.0030 C   0  0  0  0  0  2  0  0  0  0  0  0
  196.0310  171.1750  145.2620 C   0  0  0  0  0  3  0  0  0  0  0  0
  197.3960  170.8920  145.3060 C   0  0  0  0  0  3  0  0  0  0  0  0
  195.7570  169.6340  143.4080 C   0  0  0  0  0  0  0  0  0  0  0  0
  197.1250  169.3390  143.4750 C   0  0  0  0  0  3  0  0  0  0  0  0
  192.8250  169.7200  144.2040 C   0  0  0  0  0  1  0  0  0  0  0  0
  197.9410  169.9660  144.4190 C   0  0  0  0  0  3  0  0  0  0  0  0
  190.9720  169.6360  136.8920 C   0  0  0  0  0  3  0  0  0  0  0  0
  195.1860  170.5440  144.3320 C   0  0  0  0  0  0  0  0  0  0  0  0
  190.6940  171.9100  138.4980 C   0  0  0  0  0  0  0  0  0  0  0  0
  194.2340  169.4870  138.7240 C   0  0  0  0  0  2  0  0  0  0  0  0
  191.8340  171.1150  138.5940 C   0  0  0  0  0  3  0  0  0  0  0  0
  194.1150  168.8400  140.1050 C   0  0  2  0  0  3  0  0  0  0  0  0
  190.2330  171.6510  141.4990 C   0  0  0  0  0  2  0  0  0  0  0  0
  195.0020  169.0330  142.3950 O   0  0  0  0  0  0  0  0  0  0  0  0
  192.5720  173.0530  142.8250 C   0  0  0  0  0  2  0  0  0  0  0  0
  192.1370  172.6880  144.2330 C   0  0  0  0  0  2  0  0  0  0  0  0
  189.8250  170.4350  136.7850 C   0  0  0  0  0  3  0  0  0  0  0  0
  190.1540  173.0860  141.9760 C   0  0  2  0  0  0  0  0  0  0  0  0
  191.9820  169.9710  137.7990 C   0  0  0  0  0  0  0  0  0  0  0  0
  193.7700  170.8160  144.3630 N   0  0  0  0  0  0  0  0  0  0  0  0
  193.0740  169.5460  140.9620 C   0  0  0  0  0  2  0  0  0  0  0  0
  189.6040  172.7140  140.5940 C   0  0  1  0  0  3  0  0  0  0  0  0
  194.5410  169.7570  141.2560 C   0  0  2  0  0  0  0  0  0  0  0  0
  190.5400  173.0660  139.4340 C   0  0  0  0  0  2  0  0  0  0  0  0
  189.6840  171.5700  137.5920 C   0  0  0  0  0  3  0  0  0  0  0  0
  195.0210  173.9570  138.6100 C   0  0  0  0  0  0  0  0  0  0  0  0
  195.1730  171.1420  140.9790 C   0  0  1  0  0  3  0  0  0  0  0  0
  193.6840  174.6110  138.6340 C   0  0  0  0  0  1  0  0  0  0  0  0
  195.2660  172.7600  139.3590 N   0  0  0  0  0  0  0  0  0  0  0  0
  196.4340  171.0260  140.3520 O   0  0  0  0  0  0  0  0  0  0  0  0
  196.5630  172.1400  139.4930 C   0  0  0  0  0  2  0  0  0  0  0  0
  195.9460  174.4790  137.9350 O   0  0  0  0  0  0  0  0  0  0  0  0
  194.3120  172.1170  140.2140 C   0  0  0  0  0  2  0  0  0  0  0  0
  189.1040  173.4310  143.0420 C   0  0  0  0  0  2  0  0  0  0  0  0
  187.8560  178.0220  144.1630 O   0  0  0  0  0  0  0  0  0  0  0  0
  190.1870  176.1190  145.5580 C   0  0  0  0  0  2  0  0  0  0  0  0
  189.6330  174.1720  144.2340 C   0  0  0  0  0  3  0  0  0  0  0  0
  188.9170  177.6590  143.3110 C   0  0  1  0  0  3  0  0  0  0  0  0
  189.6130  175.4950  144.3140 C   0  0  0  0  0  0  0  0  0  0  0  0
  189.8810  177.8480  147.3570 C   0  0  0  0  0  1  0  0  0  0  0  0
  189.0650  176.2430  143.2720 O   0  0  0  0  0  0  0  0  0  0  0  0
  188.1240  177.7210  145.5300 C   0  0  2  0  0  3  0  0  0  0  0  0
  189.6090  177.5030  145.9090 C   0  0  2  0  0  3  0  0  0  0  0  0
  187.6820  175.7560  146.8920 O   0  0  0  0  0  1  0  0  0  0  0  0
  187.0730  176.7450  146.1200 C   0  0  0  0  0  0  0  0  0  0  0  0
  186.3610  176.1240  145.0890 O   0  0  0  0  0  1  0  0  0  0  0  0
  186.1010  177.5040  147.0250 C   0  0  0  0  0  2  0  0  0  0  0  0
  184.2680  178.7840  146.0450 N   0  0  0  0  0  1  0  0  0  0  0  0
  184.6590  177.4770  146.5320 C   0  0  0  0  0  2  0  0  0  0  0  0
  188.6300  178.1710  141.9070 C   0  0  0  0  0  2  0  0  0  0  0  0
  186.6640  177.6880  140.5060 C   0  0  0  0  0  2  0  0  0  0  0  0
  187.7250  177.2400  141.1680 C   0  0  0  0  0  3  0  0  0  0  0  0
  1 13  1  0  0  0  0
  2 18  1  0  0  0  0
  4  5  1  0  0  0  0
  6  7  2  0  0  0  0
  6 11  1  0  0  0  0
  7  9  1  0  0  0  0
  8 23  1  0  0  0  0
  9  5  2  0  0  0  0
 10 22  1  0  0  0  0
 11 23  1  0  0  0  0
 11  4  2  0  0  0  0
 12 14  1  0  0  0  0
 12 27  1  0  0  0  0
 15 13  1  6  0  0  0
 15 24  1  0  0  0  0
 15 26  1  0  0  0  0
 16 21  1  0  0  0  0
 17  6  1  0  0  0  0
 18 19  1  0  0  0  0
 19  3  1  0  0  0  0
 20 10  2  0  0  0  0
 20 28  1  0  0  0  0
 21  2  1  0  0  0  0
 21 37  1  1  0  0  0
 22  1  1  0  0  0  0
 22 14  2  0  0  0  0
 23  3  1  0  0  0  0
 25 27  1  6  0  0  0
 25 16  1  0  0  0  0
 25 21  1  0  0  0  0
 26 24  1  1  0  0  0
 26 17  1  0  0  0  0
 28 12  2  0  0  0  0
 29 31  1  0  0  0  0
 29 32  1  0  0  0  0
 30 36  1  6  0  0  0
 30 26  1  0  0  0  0
 32 34  1  0  0  0  0
 32 36  1  0  0  0  0
 33 30  1  0  0  0  0
 34 33  1  0  0  0  0
 35 29  2  0  0  0  0
 37 40  1  0  0  0  0
 38 45  1  0  0  0  0
 39 46  1  0  0  0  0
 40 42  2  0  0  0  0
 41 53  1  6  0  0  0
 41 38  1  0  0  0  0
 42 39  1  0  0  0  0
 44 41  1  0  0  0  0
 44 42  1  0  0  0  0
 45 46  1  0  0  0  0
 45 48  1  6  0  0  0
 46 43  1  1  0  0  0
 48 47  1  0  0  0  0
 48 50  1  0  0  0  0
 49 48  1  0  0  0  0
 51 52  1  0  0  0  0
 52 50  1  0  0  0  0
 54 55  2  0  0  0  0
 55 53  1  0  0  0  0
M  END
>  <MODEL>
1

>  <REMARK>
 VINA RESULT:      -7.8      0.000      0.000
  Name = 
  8 active torsions:
  status: ('A' for Active; 'I' for Inactive)
    1  A    between atoms: C_6  and  C_25
    2  A    between atoms: C_6  and  C_46
    3  A    between atoms: C_8  and  C_22
    4  A    between atoms: C_12  and  C_30
    5  A    between atoms: C_13  and  C_52
    6  A    between atoms: C_22  and  C_43
    7  A    between atoms: C_25  and  C_38
    8  A    between atoms: C_30  and  C_50
                            x       y       z     vdW  Elec       q    Type
                         _______ _______ _______ _____ _____    ______ ____

>  <TORSDO>
F 8

$$$$
=
 OpenBabel11052419293D

 55 61  0  0  1  0  0  0  0  0999 V2000
  196.4710  176.2370  143.1180 O   0  0  0  0  0  0  0  0  0  0  0  0
  191.6630  172.0750  144.2660 C   0  0  0  0  0  2  0  0  0  0  0  0
  191.1650  171.3640  140.4850 C   0  0  0  0  0  2  0  0  0  0  0  0
  193.0470  170.4250  138.5040 C   0  0  0  0  0  3  0  0  0  0  0  0
  194.0180  169.8780  137.6650 C   0  0  0  0  0  3  0  0  0  0  0  0
  194.4020  172.4170  138.7950 C   0  0  0  0  0  0  0  0  0  0  0  0
  195.3600  171.8690  137.9330 C   0  0  0  0  0  3  0  0  0  0  0  0
  191.7840  173.6580  139.7150 C   0  0  0  0  0  1  0  0  0  0  0  0
  195.1700  170.6050  137.3710 C   0  0  0  0  0  3  0  0  0  0  0  0
  195.5880  177.4210  145.0340 C   0  0  0  0  0  3  0  0  0  0  0  0
  193.2090  171.7030  139.0680 C   0  0  0  0  0  0  0  0  0  0  0  0
  193.8980  175.2680  145.6170 C   0  0  0  0  0  0  0  0  0  0  0  0
  196.6190  175.0810  142.2990 C   0  0  0  0  0  2  0  0  0  0  0  0
  194.7610  175.2100  144.5250 C   0  0  0  0  0  3  0  0  0  0  0  0
  195.6830  175.1250  141.0890 C   0  0  2  0  0  3  0  0  0  0  0  0
  191.5320  174.6100  143.8130 C   0  0  0  0  0  2  0  0  0  0  0  0
  194.6780  173.6540  139.3880 O   0  0  0  0  0  0  0  0  0  0  0  0
  192.0120  171.7910  142.8040 C   0  0  0  0  0  2  0  0  0  0  0  0
  190.7900  171.7860  141.9050 C   0  0  0  0  0  2  0  0  0  0  0  0
  194.7280  177.4820  146.1390 C   0  0  0  0  0  3  0  0  0  0  0  0
  190.9070  173.3970  144.4690 C   0  0  2  0  0  0  0  0  0  0  0  0
  195.6070  176.2840  144.2190 C   0  0  0  0  0  0  0  0  0  0  0  0
  192.1520  172.2580  139.8770 N   0  0  0  0  0  0  0  0  0  0  0  0
  194.2410  174.8450  141.4910 C   0  0  0  0  0  2  0  0  0  0  0  0
  191.5460  174.4850  145.3390 C   0  0  1  0  0  3  0  0  0  0  0  0
  195.0280  173.7790  140.7650 C   0  0  2  0  0  0  0  0  0  0  0  0
  192.9480  174.1360  145.8460 C   0  0  0  0  0  2  0  0  0  0  0  0
  193.8790  176.4070  146.4280 C   0  0  0  0  0  3  0  0  0  0  0  0
  196.5280  171.3300  144.8410 C   0  0  0  0  0  0  0  0  0  0  0  0
  195.4320  172.4930  141.5240 C   0  0  1  0  0  3  0  0  0  0  0  0
  195.4780  171.5650  145.8700 C   0  0  0  0  0  1  0  0  0  0  0  0
  196.3690  171.8200  143.5040 N   0  0  0  0  0  0  0  0  0  0  0  0
  196.7640  172.1160  141.2430 O   0  0  0  0  0  0  0  0  0  0  0  0
  197.2740  171.5230  142.4190 C   0  0  0  0  0  2  0  0  0  0  0  0
  197.5570  170.6760  145.1540 O   0  0  0  0  0  0  0  0  0  0  0  0
  195.2140  172.5140  143.0170 C   0  0  0  0  0  2  0  0  0  0  0  0
  189.3740  173.3170  144.5160 C   0  0  0  0  0  2  0  0  0  0  0  0
  187.4350  177.8030  144.3980 O   0  0  0  0  0  0  0  0  0  0  0  0
  187.1820  175.3860  142.1390 C   0  0  0  0  0  2  0  0  0  0  0  0
  188.6740  173.8930  143.3200 C   0  0  0  0  0  3  0  0  0  0  0  0
  186.7650  176.6450  144.8370 C   0  0  1  0  0  3  0  0  0  0  0  0
  187.8290  174.9090  143.4120 C   0  0  0  0  0  0  0  0  0  0  0  0
  186.5390  177.3760  140.7440 C   0  0  0  0  0  1  0  0  0  0  0  0
  187.5830  175.4940  144.6550 O   0  0  0  0  0  0  0  0  0  0  0  0
  187.6420  177.8140  142.9870 C   0  0  2  0  0  3  0  0  0  0  0  0
  186.7490  176.8640  142.1520 C   0  0  2  0  0  3  0  0  0  0  0  0
  189.4270  179.0450  141.8880 O   0  0  0  0  0  1  0  0  0  0  0  0
  189.1490  177.8960  142.6280 C   0  0  0  0  0  0  0  0  0  0  0  0
  189.5240  176.7830  141.8700 O   0  0  0  0  0  1  0  0  0  0  0  0
  189.9910  177.9530  143.9030 C   0  0  0  0  0  2  0  0  0  0  0  0
  192.3420  177.6990  143.2940 N   0  0  0  0  0  1  0  0  0  0  0  0
  191.3350  178.6490  143.7180 C   0  0  0  0  0  2  0  0  0  0  0  0
  186.4280  176.7920  146.3130 C   0  0  0  0  0  2  0  0  0  0  0  0
  184.4440  178.2310  146.0780 C   0  0  0  0  0  2  0  0  0  0  0  0
  184.9770  177.0930  146.5080 C   0  0  0  0  0  3  0  0  0  0  0  0
  1 22  1  0  0  0  0
  2 21  1  0  0  0  0
  3 19  1  0  0  0  0
  4 11  1  0  0  0  0
  5  4  2  0  0  0  0
  6 11  2  0  0  0  0
  6 17  1  0  0  0  0
  7  6  1  0  0  0  0
  8 23  1  0  0  0  0
  9  5  1  0  0  0  0
  9  7  2  0  0  0  0
 10 20  1  0  0  0  0
 11 23  1  0  0  0  0
 12 27  1  0  0  0  0
 12 28  1  0  0  0  0
 13  1  1  0  0  0  0
 14 12  2  0  0  0  0
 15 24  1  1  0  0  0
 15 13  1  0  0  0  0
 16 21  1  0  0  0  0
 17 26  1  0  0  0  0
 18  2  1  0  0  0  0
 19 18  1  0  0  0  0
 20 28  2  0  0  0  0
 21 37  1  6  0  0  0
 21 25  1  0  0  0  0
 22 14  1  0  0  0  0
 22 10  2  0  0  0  0
 23  3  1  0  0  0  0
 25 16  1  6  0  0  0
 25 27  1  0  0  0  0
 26 15  1  0  0  0  0
 26 24  1  1  0  0  0
 26 30  1  0  0  0  0
 29 35  2  0  0  0  0
 29 31  1  0  0  0  0
 30 36  1  1  0  0  0
 32 29  1  0  0  0  0
 33 30  1  0  0  0  0
 33 34  1  0  0  0  0
 34 32  1  0  0  0  0
 36 32  1  0  0  0  0
 38 41  1  0  0  0  0
 39 46  1  0  0  0  0
 39 42  1  0  0  0  0
 40 42  2  0  0  0  0
 40 37  1  0  0  0  0
 41 53  1  1  0  0  0
 42 44  1  0  0  0  0
 44 41  1  0  0  0  0
 45 48  1  1  0  0  0
 45 38  1  0  0  0  0
 46 43  1  6  0  0  0
 46 45  1  0  0  0  0
 47 48  1  0  0  0  0
 48 50  1  0  0  0  0
 49 48  1  0  0  0  0
 51 52  1  0  0  0  0
 52 50  1  0  0  0  0
 53 55  1  0  0  0  0
 54 55  2  0  0  0  0
M  END
>  <MODEL>
2

>  <REMARK>
 VINA RESULT:      -7.5      2.569      6.159
  Name = 
  8 active torsions:
  status: ('A' for Active; 'I' for Inactive)
    1  A    between atoms: C_6  and  C_25
    2  A    between atoms: C_6  and  C_46
    3  A    between atoms: C_8  and  C_22
    4  A    between atoms: C_12  and  C_30
    5  A    between atoms: C_13  and  C_52
    6  A    between atoms: C_22  and  C_43
    7  A    between atoms: C_25  and  C_38
    8  A    between atoms: C_30  and  C_50
                            x       y       z     vdW  Elec       q    Type
                         _______ _______ _______ _____ _____    ______ ____

>  <TORSDO>
F 8

$$$$
=
 OpenBabel11052419293D

 55 61  0  0  1  0  0  0  0  0999 V2000
  193.9860  169.4380  137.9200 O   0  0  0  0  0  0  0  0  0  0  0  0
  191.2190  173.8940  141.6950 C   0  0  0  0  0  2  0  0  0  0  0  0
  192.9480  172.5000  144.8760 C   0  0  0  0  0  2  0  0  0  0  0  0
  195.7520  172.0960  145.4440 C   0  0  0  0  0  3  0  0  0  0  0  0
  197.1330  172.0370  145.6360 C   0  0  0  0  0  3  0  0  0  0  0  0
  195.9210  170.4800  143.6410 C   0  0  0  0  0  0  0  0  0  0  0  0
  197.3040  170.4110  143.8570 C   0  0  0  0  0  3  0  0  0  0  0  0
  192.9450  170.1140  144.1370 C   0  0  0  0  0  1  0  0  0  0  0  0
  197.9070  171.1870  144.8490 C   0  0  0  0  0  3  0  0  0  0  0  0
  191.9060  169.5310  136.6880 C   0  0  0  0  0  3  0  0  0  0  0  0
  195.1200  171.3120  144.4630 C   0  0  0  0  0  0  0  0  0  0  0  0
  191.1070  171.7750  138.1580 C   0  0  0  0  0  0  0  0  0  0  0  0
  194.9410  169.9610  138.8400 C   0  0  0  0  0  2  0  0  0  0  0  0
  192.3420  171.1760  138.4010 C   0  0  0  0  0  3  0  0  0  0  0  0
  194.7800  169.3410  140.2300 C   0  0  2  0  0  3  0  0  0  0  0  0
  190.3800  171.5280  141.1060 C   0  0  0  0  0  2  0  0  0  0  0  0
  195.3800  169.7380  142.5860 O   0  0  0  0  0  0  0  0  0  0  0  0
  192.3170  173.3250  142.5950 C   0  0  0  0  0  2  0  0  0  0  0  0
  191.7990  172.9330  143.9670 C   0  0  0  0  0  2  0  0  0  0  0  0
  190.6670  170.1330  136.4330 C   0  0  0  0  0  3  0  0  0  0  0  0
  190.0270  172.9440  141.5090 C   0  0  2  0  0  0  0  0  0  0  0  0
  192.7500  170.0500  137.6760 C   0  0  0  0  0  0  0  0  0  0  0  0
  193.6840  171.3530  144.3420 N   0  0  0  0  0  0  0  0  0  0  0  0
  193.5570  169.8940  140.9480 C   0  0  0  0  0  2  0  0  0  0  0  0
  189.6910  172.4500  140.0970 C   0  0  1  0  0  3  0  0  0  0  0  0
  194.9340  170.3460  141.3760 C   0  0  2  0  0  0  0  0  0  0  0  0
  190.6760  172.9160  139.0220 C   0  0  0  0  0  2  0  0  0  0  0  0
  190.2650  171.2520  137.1720 C   0  0  0  0  0  3  0  0  0  0  0  0
  195.1000  174.4630  138.5660 C   0  0  0  0  0  0  0  0  0  0  0  0
  195.3660  171.8070  141.1020 C   0  0  1  0  0  3  0  0  0  0  0  0
  193.6860  174.8810  138.3680 C   0  0  0  0  0  1  0  0  0  0  0  0
  195.4260  173.3540  139.4130 N   0  0  0  0  0  0  0  0  0  0  0  0
  196.7050  171.8820  140.6610 O   0  0  0  0  0  0  0  0  0  0  0  0
  196.7740  172.9680  139.7600 C   0  0  0  0  0  2  0  0  0  0  0  0
  196.0170  175.1080  137.9920 O   0  0  0  0  0  0  0  0  0  0  0  0
  194.4770  172.5920  140.1690 C   0  0  0  0  0  2  0  0  0  0  0  0
  188.8290  173.1440  142.4500 C   0  0  0  0  0  2  0  0  0  0  0  0
  189.2000  177.0380  145.3810 O   0  0  0  0  0  0  0  0  0  0  0  0
  187.0770  176.5320  142.8830 C   0  0  0  0  0  2  0  0  0  0  0  0
  188.0690  174.4210  142.2420 C   0  0  0  0  0  3  0  0  0  0  0  0
  188.3030  175.9690  145.5690 C   0  0  1  0  0  3  0  0  0  0  0  0
  187.8670  175.2950  143.2170 C   0  0  0  0  0  0  0  0  0  0  0  0
  186.9170  179.0300  143.1100 C   0  0  0  0  0  1  0  0  0  0  0  0
  188.3900  175.0480  144.4870 O   0  0  0  0  0  0  0  0  0  0  0  0
  188.8470  177.8600  144.2710 C   0  0  2  0  0  3  0  0  0  0  0  0
  187.3860  177.7520  143.7700 C   0  0  2  0  0  3  0  0  0  0  0  0
  190.8060  179.0110  143.4070 O   0  0  0  0  0  1  0  0  0  0  0  0
  189.9770  177.9080  143.2090 C   0  0  0  0  0  0  0  0  0  0  0  0
  189.4270  177.9940  141.9260 O   0  0  0  0  0  1  0  0  0  0  0  0
  190.8450  176.6530  143.3080 C   0  0  0  0  0  2  0  0  0  0  0  0
  193.2700  176.6050  143.0350 N   0  0  0  0  0  1  0  0  0  0  0  0
  192.1990  176.8970  143.9650 C   0  0  0  0  0  2  0  0  0  0  0  0
  188.6440  175.2520  146.8670 C   0  0  0  0  0  2  0  0  0  0  0  0
  191.0040  175.2750  147.5700 C   0  0  0  0  0  2  0  0  0  0  0  0
  190.0410  174.7230  146.8390 C   0  0  0  0  0  3  0  0  0  0  0  0
  1 13  1  0  0  0  0
  2 18  1  0  0  0  0
  4  5  1  0  0  0  0
  6  7  2  0  0  0  0
  6 11  1  0  0  0  0
  7  9  1  0  0  0  0
  8 23  1  0  0  0  0
  9  5  2  0  0  0  0
 10 22  1  0  0  0  0
 11  4  2  0  0  0  0
 12 14  1  0  0  0  0
 12 27  1  0  0  0  0
 15 13  1  6  0  0  0
 15 24  1  0  0  0  0
 15 26  1  0  0  0  0
 16 21  1  0  0  0  0
 17  6  1  0  0  0  0
 18 19  1  0  0  0  0
 19  3  1  0  0  0  0
 20 10  2  0  0  0  0
 20 28  1  0  0  0  0
 21  2  1  0  0  0  0
 21 37  1  1  0  0  0
 22  1  1  0  0  0  0
 22 14  2  0  0  0  0
 23 11  1  0  0  0  0
 23  3  1  0  0  0  0
 25 27  1  6  0  0  0
 25 16  1  0  0  0  0
 25 21  1  0  0  0  0
 26 24  1  1  0  0  0
 26 17  1  0  0  0  0
 28 12  2  0  0  0  0
 29 32  1  0  0  0  0
 30 36  1  6  0  0  0
 30 26  1  0  0  0  0
 31 29  1  0  0  0  0
 32 34  1  0  0  0  0
 32 36  1  0  0  0  0
 33 30  1  0  0  0  0
 34 33  1  0  0  0  0
 35 29  2  0  0  0  0
 38 41  1  0  0  0  0
 39 42  1  0  0  0  0
 39 46  1  0  0  0  0
 40 37  1  0  0  0  0
 40 42  2  0  0  0  0
 41 53  1  1  0  0  0
 42 44  1  0  0  0  0
 44 41  1  0  0  0  0
 45 48  1  6  0  0  0
 45 38  1  0  0  0  0
 46 43  1  6  0  0  0
 46 45  1  0  0  0  0
 48 50  1  0  0  0  0
 48 47  1  0  0  0  0
 49 48  1  0  0  0  0
 50 52  1  0  0  0  0
 51 52  1  0  0  0  0
 55 53  1  0  0  0  0
 55 54  2  0  0  0  0
M  END
>  <MODEL>
3

>  <REMARK>
 VINA RESULT:      -7.5      1.912      3.091
  Name = 
  8 active torsions:
  status: ('A' for Active; 'I' for Inactive)
    1  A    between atoms: C_6  and  C_25
    2  A    between atoms: C_6  and  C_46
    3  A    between atoms: C_8  and  C_22
    4  A    between atoms: C_12  and  C_30
    5  A    between atoms: C_13  and  C_52
    6  A    between atoms: C_22  and  C_43
    7  A    between atoms: C_25  and  C_38
    8  A    between atoms: C_30  and  C_50
                            x       y       z     vdW  Elec       q    Type
                         _______ _______ _______ _____ _____    ______ ____

>  <TORSDO>
F 8

$$$$
=
 OpenBabel11052419293D

 55 61  0  0  1  0  0  0  0  0999 V2000
  196.0890  175.4760  141.7070 O   0  0  0  0  0  0  0  0  0  0  0  0
  191.2960  172.1430  144.4780 C   0  0  0  0  0  2  0  0  0  0  0  0
  189.5390  171.5360  141.0720 C   0  0  0  0  0  2  0  0  0  0  0  0
  190.5400  170.3100  138.6550 C   0  0  0  0  0  3  0  0  0  0  0  0
  191.1030  169.6170  137.5830 C   0  0  0  0  0  3  0  0  0  0  0  0
  192.2090  172.0560  138.4190 C   0  0  0  0  0  0  0  0  0  0  0  0
  192.7540  171.3630  137.3300 C   0  0  0  0  0  3  0  0  0  0  0  0
  190.2350  173.7010  140.0420 C   0  0  0  0  0  1  0  0  0  0  0  0
  192.2040  170.1480  136.9140 C   0  0  0  0  0  3  0  0  0  0  0  0
  196.0420  176.7800  143.7430 C   0  0  0  0  0  3  0  0  0  0  0  0
  191.0650  171.5430  139.0800 C   0  0  0  0  0  0  0  0  0  0  0  0
  194.3070  174.9270  144.9210 C   0  0  0  0  0  0  0  0  0  0  0  0
  195.7930  174.3130  140.9380 C   0  0  0  0  0  2  0  0  0  0  0  0
  194.7660  174.7350  143.6190 C   0  0  0  0  0  3  0  0  0  0  0  0
  194.5450  174.5130  140.0750 C   0  0  2  0  0  3  0  0  0  0  0  0
  191.4240  174.6680  143.9680 C   0  0  0  0  0  2  0  0  0  0  0  0
  192.8440  173.2300  138.8380 O   0  0  0  0  0  0  0  0  0  0  0  0
  191.1230  171.8110  142.9940 C   0  0  0  0  0  2  0  0  0  0  0  0
  189.6950  172.0070  142.5170 C   0  0  0  0  0  2  0  0  0  0  0  0
  195.5900  176.9770  145.0560 C   0  0  0  0  0  3  0  0  0  0  0  0
  190.8550  173.5690  144.8400 C   0  0  2  0  0  0  0  0  0  0  0  0
  195.6300  175.6580  143.0170 C   0  0  0  0  0  0  0  0  0  0  0  0
  190.4130  172.2600  140.1480 N   0  0  0  0  0  0  0  0  0  0  0  0
  193.2750  174.4690  140.9150 C   0  0  0  0  0  2  0  0  0  0  0  0
  191.8940  174.5370  145.4190 C   0  0  1  0  0  3  0  0  0  0  0  0
  193.6210  173.2920  140.0330 C   0  0  2  0  0  0  0  0  0  0  0  0
  193.3120  173.9640  145.4850 C   0  0  0  0  0  2  0  0  0  0  0  0
  194.7180  176.0520  145.6430 C   0  0  0  0  0  3  0  0  0  0  0  0
  195.9120  170.6180  143.5650 C   0  0  0  0  0  0  0  0  0  0  0  0
  194.0380  171.9540  140.6910 C   0  0  1  0  0  3  0  0  0  0  0  0
  195.2790  171.0140  144.8530 C   0  0  0  0  0  1  0  0  0  0  0  0
  195.4250  171.1330  142.3190 N   0  0  0  0  0  0  0  0  0  0  0  0
  195.1440  171.3710  140.0340 O   0  0  0  0  0  0  0  0  0  0  0  0
  195.8950  170.6990  141.0240 C   0  0  0  0  0  2  0  0  0  0  0  0
  196.8740  169.8070  143.5780 O   0  0  0  0  0  0  0  0  0  0  0  0
  194.2960  172.0040  142.1760 C   0  0  0  0  0  2  0  0  0  0  0  0
  189.4200  173.7390  145.3620 C   0  0  0  0  0  2  0  0  0  0  0  0
  187.2330  178.0260  144.5050 O   0  0  0  0  0  0  0  0  0  0  0  0
  188.8840  177.0570  147.2150 C   0  0  0  0  0  2  0  0  0  0  0  0
  189.2470  174.8090  146.3990 C   0  0  0  0  0  3  0  0  0  0  0  0
  188.6020  177.7640  144.3070 C   0  0  1  0  0  3  0  0  0  0  0  0
  189.0270  176.0770  146.0810 C   0  0  0  0  0  0  0  0  0  0  0  0
  187.5730  178.9870  148.1510 C   0  0  0  0  0  1  0  0  0  0  0  0
  188.9280  176.4480  144.7400 O   0  0  0  0  0  0  0  0  0  0  0  0
  186.8800  178.0780  145.8850 C   0  0  2  0  0  3  0  0  0  0  0  0
  188.0400  178.3030  146.8850 C   0  0  2  0  0  3  0  0  0  0  0  0
  186.1580  176.3180  147.3990 O   0  0  0  0  0  1  0  0  0  0  0  0
  185.8070  177.0170  146.2450 C   0  0  0  0  0  0  0  0  0  0  0  0
  185.6680  176.1000  145.1990 O   0  0  0  0  0  1  0  0  0  0  0  0
  184.4630  177.6980  146.5080 C   0  0  0  0  0  2  0  0  0  0  0  0
  183.8570  178.7950  144.4130 N   0  0  0  0  0  1  0  0  0  0  0  0
  184.2940  179.0240  145.7740 C   0  0  0  0  0  2  0  0  0  0  0  0
  188.9290  177.9010  142.8270 C   0  0  0  0  0  2  0  0  0  0  0  0
  187.5120  176.3010  141.6040 C   0  0  0  0  0  2  0  0  0  0  0  0
  188.7020  176.6130  142.1040 C   0  0  0  0  0  3  0  0  0  0  0  0
  1 22  1  0  0  0  0
  2 21  1  0  0  0  0
  3 19  1  0  0  0  0
  4 11  1  0  0  0  0
  5  4  2  0  0  0  0
  6 17  1  0  0  0  0
  6 11  2  0  0  0  0
  7  6  1  0  0  0  0
  8 23  1  0  0  0  0
  9  7  2  0  0  0  0
  9  5  1  0  0  0  0
 10 20  1  0  0  0  0
 11 23  1  0  0  0  0
 12 27  1  0  0  0  0
 12 28  1  0  0  0  0
 13  1  1  0  0  0  0
 14 12  2  0  0  0  0
 15 24  1  1  0  0  0
 15 13  1  0  0  0  0
 16 21  1  0  0  0  0
 17 26  1  0  0  0  0
 18  2  1  0  0  0  0
 19 18  1  0  0  0  0
 20 28  2  0  0  0  0
 21 37  1  1  0  0  0
 21 25  1  0  0  0  0
 22 14  1  0  0  0  0
 22 10  2  0  0  0  0
 23  3  1  0  0  0  0
 25 16  1  6  0  0  0
 25 27  1  0  0  0  0
 26 15  1  0  0  0  0
 26 30  1  0  0  0  0
 26 24  1  1  0  0  0
 29 35  2  0  0  0  0
 29 31  1  0  0  0  0
 30 36  1  1  0  0  0
 32 29  1  0  0  0  0
 33 30  1  0  0  0  0
 33 34  1  0  0  0  0
 34 32  1  0  0  0  0
 36 32  1  0  0  0  0
 37 40  1  0  0  0  0
 38 45  1  0  0  0  0
 41 53  1  6  0  0  0
 41 38  1  0  0  0  0
 41 44  1  0  0  0  0
 42 40  2  0  0  0  0
 42 39  1  0  0  0  0
 44 42  1  0  0  0  0
 45 48  1  1  0  0  0
 45 46  1  0  0  0  0
 46 39  1  0  0  0  0
 46 43  1  1  0  0  0
 48 50  1  0  0  0  0
 48 47  1  0  0  0  0
 49 48  1  0  0  0  0
 51 52  1  0  0  0  0
 52 50  1  0  0  0  0
 54 55  2  0  0  0  0
 55 53  1  0  0  0  0
M  END
>  <MODEL>
4

>  <REMARK>
 VINA RESULT:      -7.5      2.178      5.442
  Name = 
  8 active torsions:
  status: ('A' for Active; 'I' for Inactive)
    1  A    between atoms: C_6  and  C_25
    2  A    between atoms: C_6  and  C_46
    3  A    between atoms: C_8  and  C_22
    4  A    between atoms: C_12  and  C_30
    5  A    between atoms: C_13  and  C_52
    6  A    between atoms: C_22  and  C_43
    7  A    between atoms: C_25  and  C_38
    8  A    between atoms: C_30  and  C_50
                            x       y       z     vdW  Elec       q    Type
                         _______ _______ _______ _____ _____    ______ ____

>  <TORSDO>
F 8

$$$$
=
 OpenBabel11052419293D

 55 61  0  0  1  0  0  0  0  0999 V2000
  197.1030  174.4180  140.2430 O   0  0  0  0  0  0  0  0  0  0  0  0
  191.9310  171.2030  142.4040 C   0  0  0  0  0  2  0  0  0  0  0  0
  190.2050  171.3320  138.9320 C   0  0  0  0  0  2  0  0  0  0  0  0
  191.1350  170.4110  136.3560 C   0  0  0  0  0  3  0  0  0  0  0  0
  191.6510  169.8420  135.1910 C   0  0  0  0  0  3  0  0  0  0  0  0
  192.9780  171.9890  136.4170 C   0  0  0  0  0  0  0  0  0  0  0  0
  193.4750  171.4250  135.2350 C   0  0  0  0  0  3  0  0  0  0  0  0
  191.1420  173.5500  138.2690 C   0  0  0  0  0  1  0  0  0  0  0  0
  192.8160  170.3560  134.6250 C   0  0  0  0  0  3  0  0  0  0  0  0
  197.1400  175.3800  142.4620 C   0  0  0  0  0  3  0  0  0  0  0  0
  191.7720  171.4990  136.9780 C   0  0  0  0  0  0  0  0  0  0  0  0
  195.1980  173.5530  143.3120 C   0  0  0  0  0  0  0  0  0  0  0  0
  196.7100  173.4310  139.2940 C   0  0  0  0  0  2  0  0  0  0  0  0
  195.6660  173.5240  142.0010 C   0  0  0  0  0  3  0  0  0  0  0  0
  195.5100  173.8940  138.4660 C   0  0  2  0  0  3  0  0  0  0  0  0
  192.3270  173.7500  142.3090 C   0  0  0  0  0  2  0  0  0  0  0  0
  193.7180  173.0080  137.0250 O   0  0  0  0  0  0  0  0  0  0  0  0
  191.7610  171.1320  140.8850 C   0  0  0  0  0  2  0  0  0  0  0  0
  190.3730  171.5490  140.4350 C   0  0  0  0  0  2  0  0  0  0  0  0
  196.6790  175.4100  143.7850 C   0  0  0  0  0  3  0  0  0  0  0  0
  191.6290  172.5910  142.9880 C   0  0  2  0  0  0  0  0  0  0  0  0
  196.6340  174.4360  141.5620 C   0  0  0  0  0  0  0  0  0  0  0  0
  191.1700  172.1000  138.1430 N   0  0  0  0  0  0  0  0  0  0  0  0
  194.2220  173.8490  139.2770 C   0  0  0  0  0  2  0  0  0  0  0  0
  192.7460  173.3410  143.7230 C   0  0  1  0  0  3  0  0  0  0  0  0
  194.4680  172.7980  138.2200 C   0  0  2  0  0  0  0  0  0  0  0  0
  194.0970  172.6210  143.7070 C   0  0  0  0  0  2  0  0  0  0  0  0
  195.7030  174.4990  144.2090 C   0  0  0  0  0  3  0  0  0  0  0  0
  196.3990  169.3720  141.2860 C   0  0  0  0  0  0  0  0  0  0  0  0
  194.7310  171.3370  138.6570 C   0  0  1  0  0  3  0  0  0  0  0  0
  195.7850  169.6230  142.6190 C   0  0  0  0  0  1  0  0  0  0  0  0
  195.9930  170.1260  140.1370 N   0  0  0  0  0  0  0  0  0  0  0  0
  195.7840  170.7520  137.9190 O   0  0  0  0  0  0  0  0  0  0  0  0
  196.4410  169.8560  138.7910 C   0  0  0  0  0  2  0  0  0  0  0  0
  197.2720  168.4720  141.1730 O   0  0  0  0  0  0  0  0  0  0  0  0
  194.9640  171.1230  140.1320 C   0  0  0  0  0  2  0  0  0  0  0  0
  190.2060  172.8240  143.5190 C   0  0  0  0  0  2  0  0  0  0  0  0
  189.2540  177.1370  145.6120 O   0  0  0  0  0  0  0  0  0  0  0  0
  188.1290  175.9520  142.7250 C   0  0  0  0  0  2  0  0  0  0  0  0
  189.4530  173.9310  142.8430 C   0  0  0  0  0  3  0  0  0  0  0  0
  188.4400  175.9930  145.7140 C   0  0  1  0  0  3  0  0  0  0  0  0
  188.8660  174.9080  143.5200 C   0  0  0  0  0  0  0  0  0  0  0  0
  187.6910  178.4070  142.4050 C   0  0  0  0  0  1  0  0  0  0  0  0
  188.9580  174.9380  144.9120 O   0  0  0  0  0  0  0  0  0  0  0  0
  189.2200  177.7180  144.3110 C   0  0  2  0  0  3  0  0  0  0  0  0
  188.0220  177.3270  143.4120 C   0  0  2  0  0  3  0  0  0  0  0  0
  191.1840  179.0380  143.7530 O   0  0  0  0  0  1  0  0  0  0  0  0
  190.6290  177.7620  143.6640 C   0  0  0  0  0  0  0  0  0  0  0  0
  190.5490  177.4100  142.3130 O   0  0  0  0  0  1  0  0  0  0  0  0
  191.5700  176.7970  144.3870 C   0  0  0  0  0  2  0  0  0  0  0  0
  193.7330  177.0770  145.4850 N   0  0  0  0  0  1  0  0  0  0  0  0
  193.0460  177.1350  144.2110 C   0  0  0  0  0  2  0  0  0  0  0  0
  188.3910  175.5420  147.1670 C   0  0  0  0  0  2  0  0  0  0  0  0
  190.7380  175.2600  147.8550 C   0  0  0  0  0  2  0  0  0  0  0  0
  189.5810  174.7060  147.5110 C   0  0  0  0  0  3  0  0  0  0  0  0
  1 22  1  0  0  0  0
  2 21  1  0  0  0  0
  3 19  1  0  0  0  0
  4 11  1  0  0  0  0
  5  4  2  0  0  0  0
  6 11  2  0  0  0  0
  6 17  1  0  0  0  0
  7  6  1  0  0  0  0
  9  5  1  0  0  0  0
  9  7  2  0  0  0  0
 10 20  1  0  0  0  0
 11 23  1  0  0  0  0
 12 27  1  0  0  0  0
 12 28  1  0  0  0  0
 13  1  1  0  0  0  0
 14 12  2  0  0  0  0
 15 24  1  1  0  0  0
 15 13  1  0  0  0  0
 16 21  1  0  0  0  0
 17 26  1  0  0  0  0
 18  2  1  0  0  0  0
 19 18  1  0  0  0  0
 20 28  2  0  0  0  0
 21 37  1  1  0  0  0
 21 25  1  0  0  0  0
 22 14  1  0  0  0  0
 22 10  2  0  0  0  0
 23  8  1  0  0  0  0
 23  3  1  0  0  0  0
 25 16  1  6  0  0  0
 26 15  1  0  0  0  0
 26 30  1  0  0  0  0
 26 24  1  1  0  0  0
 27 25  1  0  0  0  0
 29 31  1  0  0  0  0
 30 36  1  1  0  0  0
 32 29  1  0  0  0  0
 33 30  1  0  0  0  0
 33 34  1  0  0  0  0
 34 32  1  0  0  0  0
 35 29  2  0  0  0  0
 36 32  1  0  0  0  0
 38 41  1  0  0  0  0
 39 46  1  0  0  0  0
 39 42  1  0  0  0  0
 40 37  1  0  0  0  0
 40 42  2  0  0  0  0
 41 53  1  1  0  0  0
 42 44  1  0  0  0  0
 44 41  1  0  0  0  0
 45 48  1  6  0  0  0
 45 38  1  0  0  0  0
 46 43  1  6  0  0  0
 46 45  1  0  0  0  0
 48 47  1  0  0  0  0
 48 50  1  0  0  0  0
 49 48  1  0  0  0  0
 52 50  1  0  0  0  0
 52 51  1  0  0  0  0
 53 55  1  0  0  0  0
 55 54  2  0  0  0  0
M  END
>  <MODEL>
5

>  <REMARK>
 VINA RESULT:      -7.5      2.426      6.223
  Name = 
  8 active torsions:
  status: ('A' for Active; 'I' for Inactive)
    1  A    between atoms: C_6  and  C_25
    2  A    between atoms: C_6  and  C_46
    3  A    between atoms: C_8  and  C_22
    4  A    between atoms: C_12  and  C_30
    5  A    between atoms: C_13  and  C_52
    6  A    between atoms: C_22  and  C_43
    7  A    between atoms: C_25  and  C_38
    8  A    between atoms: C_30  and  C_50
                            x       y       z     vdW  Elec       q    Type
                         _______ _______ _______ _____ _____    ______ ____

>  <TORSDO>
F 8

$$$$
=
 OpenBabel11052419293D

 55 61  0  0  1  0  0  0  0  0999 V2000
  196.3880  172.8630  146.0320 O   0  0  0  0  0  0  0  0  0  0  0  0
  192.7760  171.5630  140.8330 C   0  0  0  0  0  2  0  0  0  0  0  0
  189.8280  173.7140  142.1490 C   0  0  0  0  0  2  0  0  0  0  0  0
  189.7570  176.4960  142.9290 C   0  0  0  0  0  3  0  0  0  0  0  0
  189.8260  177.8650  143.1850 C   0  0  0  0  0  3  0  0  0  0  0  0
  191.3300  176.0680  144.7270 C   0  0  0  0  0  0  0  0  0  0  0  0
  191.3750  177.4430  144.9910 C   0  0  0  0  0  3  0  0  0  0  0  0
  190.2310  173.2390  144.5680 C   0  0  0  0  0  1  0  0  0  0  0  0
  190.6270  178.3380  144.2220 C   0  0  0  0  0  3  0  0  0  0  0  0
  197.2010  170.6030  145.7390 C   0  0  0  0  0  3  0  0  0  0  0  0
  190.4870  175.5740  143.7010 C   0  0  0  0  0  0  0  0  0  0  0  0
  195.9150  170.4350  143.2600 C   0  0  0  0  0  0  0  0  0  0  0  0
  195.7440  174.0490  145.5750 C   0  0  0  0  0  2  0  0  0  0  0  0
  195.8360  171.6020  144.0170 C   0  0  0  0  0  3  0  0  0  0  0  0
  194.2800  174.1000  146.0160 C   0  0  2  0  0  3  0  0  0  0  0  0
  192.8760  170.3110  143.0860 C   0  0  0  0  0  2  0  0  0  0  0  0
  192.1550  175.2250  145.4790 O   0  0  0  0  0  0  0  0  0  0  0  0
  192.0340  172.7380  141.4730 C   0  0  0  0  0  2  0  0  0  0  0  0
  190.5490  172.4700  141.6360 C   0  0  0  0  0  2  0  0  0  0  0  0
  197.2920  169.4290  144.9800 C   0  0  0  0  0  3  0  0  0  0  0  0
  192.6030  170.2420  141.5980 C   0  0  2  0  0  0  0  0  0  0  0  0
  196.4700  171.6960  145.2620 C   0  0  0  0  0  0  0  0  0  0  0  0
  190.3360  174.1630  143.4470 N   0  0  0  0  0  0  0  0  0  0  0  0
  193.4210  173.1380  145.2070 C   0  0  0  0  0  2  0  0  0  0  0  0
  193.8470  169.5560  142.1750 C   0  0  1  0  0  3  0  0  0  0  0  0
  193.3270  174.6220  144.9350 C   0  0  2  0  0  0  0  0  0  0  0  0
  195.1430  170.3490  141.9820 C   0  0  0  0  0  2  0  0  0  0  0  0
  196.6450  169.3430  143.7410 C   0  0  0  0  0  3  0  0  0  0  0  0
  196.6150  174.7220  141.1870 C   0  0  0  0  0  0  0  0  0  0  0  0
  193.8680  175.1780  143.5970 C   0  0  1  0  0  3  0  0  0  0  0  0
  196.5690  173.3700  140.5660 C   0  0  0  0  0  1  0  0  0  0  0  0
  195.7180  175.0730  142.2480 N   0  0  0  0  0  0  0  0  0  0  0  0
  194.5810  176.3830  143.7820 O   0  0  0  0  0  0  0  0  0  0  0  0
  195.6090  176.3980  142.8120 C   0  0  0  0  0  2  0  0  0  0  0  0
  197.4420  175.5680  140.7560 O   0  0  0  0  0  0  0  0  0  0  0  0
  194.6920  174.2210  142.7710 C   0  0  0  0  0  2  0  0  0  0  0  0
  191.4860  169.3040  141.1170 C   0  0  0  0  0  2  0  0  0  0  0  0
  190.4400  172.2200  137.3360 O   0  0  0  0  0  0  0  0  0  0  0  0
  191.1300  168.9750  137.3090 C   0  0  0  0  0  2  0  0  0  0  0  0
  191.5920  168.8800  139.6810 C   0  0  0  0  0  3  0  0  0  0  0  0
  189.5090  171.4080  138.0100 C   0  0  1  0  0  3  0  0  0  0  0  0
  190.9510  169.5070  138.7060 C   0  0  0  0  0  0  0  0  0  0  0  0
  191.5530  169.5460  134.8980 C   0  0  0  0  0  1  0  0  0  0  0  0
  190.1590  170.6180  139.0000 O   0  0  0  0  0  0  0  0  0  0  0  0
  191.3570  171.4640  136.5480 C   0  0  2  0  0  3  0  0  0  0  0  0
  190.9310  170.0180  136.1930 C   0  0  2  0  0  3  0  0  0  0  0  0
  193.6190  172.0800  135.9060 O   0  0  0  0  0  1  0  0  0  0  0  0
  192.8250  171.7010  136.9880 C   0  0  0  0  0  0  0  0  0  0  0  0
  193.3570  170.5310  137.5370 O   0  0  0  0  0  1  0  0  0  0  0  0
  192.8890  172.8250  138.0230 C   0  0  0  0  0  2  0  0  0  0  0  0
  194.0400  174.9220  138.5070 N   0  0  0  0  0  1  0  0  0  0  0  0
  193.4080  174.1440  137.4630 C   0  0  0  0  0  2  0  0  0  0  0  0
  188.4660  172.2920  138.6790 C   0  0  0  0  0  2  0  0  0  0  0  0
  187.8290  174.5340  137.8870 C   0  0  0  0  0  2  0  0  0  0  0  0
  188.7440  173.7380  138.4280 C   0  0  0  0  0  3  0  0  0  0  0  0
  2 18  1  0  0  0  0
  2 21  1  0  0  0  0
  3 23  1  0  0  0  0
  4  5  2  0  0  0  0
  4 11  1  0  0  0  0
  5  9  1  0  0  0  0
  6  7  1  0  0  0  0
  6 17  1  0  0  0  0
  9  7  2  0  0  0  0
 11  6  2  0  0  0  0
 12 28  2  0  0  0  0
 12 14  1  0  0  0  0
 13 15  1  0  0  0  0
 13  1  1  0  0  0  0
 14 22  2  0  0  0  0
 15 24  1  6  0  0  0
 18 19  1  0  0  0  0
 19  3  1  0  0  0  0
 20 10  2  0  0  0  0
 21 37  1  6  0  0  0
 21 25  1  0  0  0  0
 21 16  1  0  0  0  0
 22 10  1  0  0  0  0
 22  1  1  0  0  0  0
 23 11  1  0  0  0  0
 23  8  1  0  0  0  0
 25 27  1  6  0  0  0
 25 16  1  0  0  0  0
 26 24  1  6  0  0  0
 26 17  1  0  0  0  0
 26 15  1  0  0  0  0
 27 12  1  0  0  0  0
 28 20  1  0  0  0  0
 29 32  1  0  0  0  0
 30 36  1  1  0  0  0
 30 33  1  0  0  0  0
 30 26  1  0  0  0  0
 31 29  1  0  0  0  0
 32 36  1  0  0  0  0
 32 34  1  0  0  0  0
 34 33  1  0  0  0  0
 35 29  2  0  0  0  0
 38 41  1  0  0  0  0
 39 42  1  0  0  0  0
 40 37  1  0  0  0  0
 41 53  1  1  0  0  0
 41 44  1  0  0  0  0
 42 44  1  0  0  0  0
 42 40  2  0  0  0  0
 45 48  1  1  0  0  0
 45 38  1  0  0  0  0
 46 43  1  6  0  0  0
 46 45  1  0  0  0  0
 46 39  1  0  0  0  0
 47 48  1  0  0  0  0
 48 49  1  0  0  0  0
 48 50  1  0  0  0  0
 52 50  1  0  0  0  0
 52 51  1  0  0  0  0
 54 55  2  0  0  0  0
 55 53  1  0  0  0  0
M  END
>  <MODEL>
6

>  <REMARK>
 VINA RESULT:      -7.3      2.877      8.218
  Name = 
  8 active torsions:
  status: ('A' for Active; 'I' for Inactive)
    1  A    between atoms: C_6  and  C_25
    2  A    between atoms: C_6  and  C_46
    3  A    between atoms: C_8  and  C_22
    4  A    between atoms: C_12  and  C_30
    5  A    between atoms: C_13  and  C_52
    6  A    between atoms: C_22  and  C_43
    7  A    between atoms: C_25  and  C_38
    8  A    between atoms: C_30  and  C_50
                            x       y       z     vdW  Elec       q    Type
                         _______ _______ _______ _____ _____    ______ ____

>  <TORSDO>
F 8

$$$$
=
 OpenBabel11052419293D

 55 61  0  0  1  0  0  0  0  0999 V2000
  192.8140  168.1660  138.3730 O   0  0  0  0  0  0  0  0  0  0  0  0
  192.8520  174.1670  140.7690 C   0  0  0  0  0  2  0  0  0  0  0  0
  194.0360  172.9370  144.2530 C   0  0  0  0  0  2  0  0  0  0  0  0
  196.3640  171.3930  144.9890 C   0  0  0  0  0  3  0  0  0  0  0  0
  197.5680  170.7290  145.2300 C   0  0  0  0  0  3  0  0  0  0  0  0
  195.5750  169.5100  143.6770 C   0  0  0  0  0  0  0  0  0  0  0  0
  196.7770  168.8430  143.9440 C   0  0  0  0  0  3  0  0  0  0  0  0
  192.8410  170.7460  144.1640 C   0  0  0  0  0  1  0  0  0  0  0  0
  197.7700  169.4500  144.7160 C   0  0  0  0  0  3  0  0  0  0  0  0
  190.9090  168.9390  137.0990 C   0  0  0  0  0  3  0  0  0  0  0  0
  195.3440  170.7950  144.2290 C   0  0  0  0  0  0  0  0  0  0  0  0
  191.4060  171.5720  137.9070 C   0  0  0  0  0  0  0  0  0  0  0  0
  193.9890  168.3740  139.1520 C   0  0  0  0  0  2  0  0  0  0  0  0
  192.2340  170.5360  138.3340 C   0  0  0  0  0  3  0  0  0  0  0  0
  193.6980  168.2650  140.6500 C   0  0  2  0  0  3  0  0  0  0  0  0
  190.9480  172.4290  140.7950 C   0  0  0  0  0  2  0  0  0  0  0  0
  194.6460  168.8860  142.8370 O   0  0  0  0  0  0  0  0  0  0  0  0
  193.6390  173.3800  141.8190 C   0  0  0  0  0  2  0  0  0  0  0  0
  193.1390  173.6310  143.2300 C   0  0  0  0  0  2  0  0  0  0  0  0
  190.0770  169.9780  136.6590 C   0  0  0  0  0  3  0  0  0  0  0  0
  191.3420  173.8900  140.8030 C   0  0  2  0  0  0  0  0  0  0  0  0
  191.9920  169.2130  137.9410 C   0  0  0  0  0  0  0  0  0  0  0  0
  194.0900  171.4870  144.0590 N   0  0  0  0  0  0  0  0  0  0  0  0
  192.9550  169.4920  141.1620 C   0  0  0  0  0  2  0  0  0  0  0  0
  190.6740  173.2910  139.5600 C   0  0  1  0  0  3  0  0  0  0  0  0
  194.4180  169.3190  141.4970 C   0  0  2  0  0  0  0  0  0  0  0  0
  191.6490  172.9520  138.4300 C   0  0  0  0  0  2  0  0  0  0  0  0
  190.3230  171.2940  137.0680 C   0  0  0  0  0  3  0  0  0  0  0  0
  196.1820  172.0740  137.7330 C   0  0  0  0  0  0  0  0  0  0  0  0
  195.4540  170.2780  140.8640 C   0  0  1  0  0  3  0  0  0  0  0  0
  195.1210  173.0720  137.4250 C   0  0  0  0  0  1  0  0  0  0  0  0
  196.0410  171.1720  138.8380 N   0  0  0  0  0  0  0  0  0  0  0  0
  196.6070  169.5890  140.4290 O   0  0  0  0  0  0  0  0  0  0  0  0
  197.0760  170.2680  139.2820 C   0  0  0  0  0  2  0  0  0  0  0  0
  197.2190  172.0420  137.0220 O   0  0  0  0  0  0  0  0  0  0  0  0
  194.9400  171.1620  139.7550 C   0  0  0  0  0  2  0  0  0  0  0  0
  190.4790  174.8610  141.6230 C   0  0  0  0  0  2  0  0  0  0  0  0
  190.8260  177.2900  145.8510 O   0  0  0  0  0  0  0  0  0  0  0  0
  189.8830  174.1500  145.3480 C   0  0  0  0  0  2  0  0  0  0  0  0
  189.9970  174.3220  142.9380 C   0  0  0  0  0  3  0  0  0  0  0  0
  191.8210  176.4470  145.3200 C   0  0  1  0  0  3  0  0  0  0  0  0
  190.4350  174.7840  144.1000 C   0  0  0  0  0  0  0  0  0  0  0  0
  188.9420  174.5400  147.6460 C   0  0  0  0  0  1  0  0  0  0  0  0
  191.3640  175.8260  144.1240 O   0  0  0  0  0  0  0  0  0  0  0  0
  189.6880  176.5690  146.3150 C   0  0  2  0  0  3  0  0  0  0  0  0
  189.8940  175.0590  146.5910 C   0  0  2  0  0  3  0  0  0  0  0  0
  187.7300  175.9010  145.0380 O   0  0  0  0  0  1  0  0  0  0  0  0
  188.3930  177.0020  145.5790 C   0  0  0  0  0  0  0  0  0  0  0  0
  188.7030  177.8850  144.5410 O   0  0  0  0  0  1  0  0  0  0  0  0
  187.4340  177.6820  146.5580 C   0  0  0  0  0  2  0  0  0  0  0  0
  185.0130  177.4280  146.7350 N   0  0  0  0  0  1  0  0  0  0  0  0
  186.0770  178.0190  145.9510 C   0  0  0  0  0  2  0  0  0  0  0  0
  193.0640  177.2700  145.0140 C   0  0  0  0  0  2  0  0  0  0  0  0
  194.1730  175.6630  146.5140 C   0  0  0  0  0  2  0  0  0  0  0  0
  194.2700  176.6930  145.6800 C   0  0  0  0  0  3  0  0  0  0  0  0
  1 13  1  0  0  0  0
  2 21  1  0  0  0  0
  2 18  1  0  0  0  0
  4  5  1  0  0  0  0
  6  7  2  0  0  0  0
  6 11  1  0  0  0  0
  7  9  1  0  0  0  0
  9  5  2  0  0  0  0
 10 22  1  0  0  0  0
 11  4  2  0  0  0  0
 12 14  1  0  0  0  0
 12 27  1  0  0  0  0
 15 13  1  6  0  0  0
 15 24  1  0  0  0  0
 15 26  1  0  0  0  0
 16 21  1  0  0  0  0
 17  6  1  0  0  0  0
 18 19  1  0  0  0  0
 19  3  1  0  0  0  0
 20 28  1  0  0  0  0
 20 10  2  0  0  0  0
 21 37  1  1  0  0  0
 22 14  2  0  0  0  0
 22  1  1  0  0  0  0
 23  8  1  0  0  0  0
 23 11  1  0  0  0  0
 23  3  1  0  0  0  0
 25 27  1  6  0  0  0
 25 16  1  0  0  0  0
 25 21  1  0  0  0  0
 26 24  1  1  0  0  0
 26 17  1  0  0  0  0
 28 12  2  0  0  0  0
 29 32  1  0  0  0  0
 30 36  1  6  0  0  0
 30 26  1  0  0  0  0
 31 29  1  0  0  0  0
 32 34  1  0  0  0  0
 32 36  1  0  0  0  0
 33 30  1  0  0  0  0
 34 33  1  0  0  0  0
 35 29  2  0  0  0  0
 37 40  1  0  0  0  0
 38 45  1  0  0  0  0
 39 46  1  0  0  0  0
 40 42  2  0  0  0  0
 41 53  1  6  0  0  0
 41 38  1  0  0  0  0
 42 44  1  0  0  0  0
 42 39  1  0  0  0  0
 44 41  1  0  0  0  0
 45 48  1  6  0  0  0
 45 46  1  0  0  0  0
 46 43  1  1  0  0  0
 47 48  1  0  0  0  0
 48 50  1  0  0  0  0
 49 48  1  0  0  0  0
 52 50  1  0  0  0  0
 52 51  1  0  0  0  0
 53 55  1  0  0  0  0
 55 54  2  0  0  0  0
M  END
>  <MODEL>
7

>  <REMARK>
 VINA RESULT:      -7.0      1.595      2.500
  Name = 
  8 active torsions:
  status: ('A' for Active; 'I' for Inactive)
    1  A    between atoms: C_6  and  C_25
    2  A    between atoms: C_6  and  C_46
    3  A    between atoms: C_8  and  C_22
    4  A    between atoms: C_12  and  C_30
    5  A    between atoms: C_13  and  C_52
    6  A    between atoms: C_22  and  C_43
    7  A    between atoms: C_25  and  C_38
    8  A    between atoms: C_30  and  C_50
                            x       y       z     vdW  Elec       q    Type
                         _______ _______ _______ _____ _____    ______ ____

>  <TORSDO>
F 8

$$$$
=
 OpenBabel11052419293D

 55 61  0  0  1  0  0  0  0  0999 V2000
  191.3920  168.8740  140.2550 O   0  0  0  0  0  0  0  0  0  0  0  0
  195.0730  174.1080  141.1560 C   0  0  0  0  0  2  0  0  0  0  0  0
  195.9360  173.0680  144.7930 C   0  0  0  0  0  2  0  0  0  0  0  0
  197.1320  170.6370  145.7990 C   0  0  0  0  0  3  0  0  0  0  0  0
  197.8010  169.4650  146.1520 C   0  0  0  0  0  3  0  0  0  0  0  0
  195.2470  169.3360  144.9970 C   0  0  0  0  0  0  0  0  0  0  0  0
  195.9170  168.1660  145.3760 C   0  0  0  0  0  3  0  0  0  0  0  0
  193.7460  171.9650  145.2650 C   0  0  0  0  0  1  0  0  0  0  0  0
  197.1890  168.2300  145.9490 C   0  0  0  0  0  3  0  0  0  0  0  0
  190.0400  170.3490  138.8960 C   0  0  0  0  0  3  0  0  0  0  0  0
  195.8440  170.5990  145.2360 C   0  0  0  0  0  0  0  0  0  0  0  0
  192.0110  172.3300  139.0400 C   0  0  0  0  0  0  0  0  0  0  0  0
  192.5980  168.5140  140.9240 C   0  0  0  0  0  2  0  0  0  0  0  0
  192.1970  171.1030  139.6740 C   0  0  0  0  0  3  0  0  0  0  0  0
  192.5390  168.8590  142.4140 C   0  0  2  0  0  3  0  0  0  0  0  0
  192.5620  173.7930  141.6560 C   0  0  0  0  0  2  0  0  0  0  0  0
  194.0080  169.2100  144.3600 O   0  0  0  0  0  0  0  0  0  0  0  0
  195.4610  173.2160  142.3370 C   0  0  0  0  0  2  0  0  0  0  0  0
  195.4110  173.9520  143.6630 C   0  0  0  0  0  2  0  0  0  0  0  0
  189.8490  171.5770  138.2490 C   0  0  0  0  0  3  0  0  0  0  0  0
  193.6840  174.7470  141.3040 C   0  0  2  0  0  0  0  0  0  0  0  0
  191.2160  170.1060  139.6140 C   0  0  0  0  0  0  0  0  0  0  0  0
  195.1610  171.8360  144.9470 N   0  0  0  0  0  0  0  0  0  0  0  0
  192.6760  170.3580  142.6440 C   0  0  0  0  0  2  0  0  0  0  0  0
  192.6080  174.4220  140.2610 C   0  0  1  0  0  3  0  0  0  0  0  0
  193.8410  169.4500  142.9640 C   0  0  2  0  0  0  0  0  0  0  0  0
  193.0460  173.3960  139.2120 C   0  0  0  0  0  2  0  0  0  0  0  0
  190.8330  172.5700  138.3260 C   0  0  0  0  0  3  0  0  0  0  0  0
  196.1890  170.0010  138.5990 C   0  0  0  0  0  0  0  0  0  0  0  0
  195.1150  169.5220  142.0880 C   0  0  1  0  0  3  0  0  0  0  0  0
  195.8100  171.3500  138.0980 C   0  0  0  0  0  1  0  0  0  0  0  0
  195.7590  169.5500  139.8890 N   0  0  0  0  0  0  0  0  0  0  0  0
  195.6190  168.2370  141.7910 O   0  0  0  0  0  0  0  0  0  0  0  0
  196.1900  168.3150  140.5010 C   0  0  0  0  0  2  0  0  0  0  0  0
  196.9120  169.2610  137.8810 O   0  0  0  0  0  0  0  0  0  0  0  0
  194.9960  170.3280  140.8180 C   0  0  0  0  0  2  0  0  0  0  0  0
  193.6330  176.1630  141.8980 C   0  0  0  0  0  2  0  0  0  0  0  0
  189.1970  176.3070  143.9460 O   0  0  0  0  0  0  0  0  0  0  0  0
  192.1550  176.6680  145.4040 C   0  0  0  0  0  2  0  0  0  0  0  0
  193.3980  176.2190  143.3790 C   0  0  0  0  0  3  0  0  0  0  0  0
  189.9320  177.4340  143.5320 C   0  0  1  0  0  3  0  0  0  0  0  0
  192.2590  176.6480  143.9020 C   0  0  0  0  0  0  0  0  0  0  0  0
  190.7300  176.1280  147.4030 C   0  0  0  0  0  1  0  0  0  0  0  0
  191.2190  177.0470  143.0630 O   0  0  0  0  0  0  0  0  0  0  0  0
  189.7520  175.6870  145.1030 C   0  0  2  0  0  3  0  0  0  0  0  0
  190.7190  176.5490  145.9500 C   0  0  2  0  0  3  0  0  0  0  0  0
  189.4670  173.3450  145.6890 O   0  0  0  0  0  1  0  0  0  0  0  0
  190.1440  174.2110  144.8310 C   0  0  0  0  0  0  0  0  0  0  0  0
  191.5180  174.0350  145.0230 O   0  0  0  0  0  1  0  0  0  0  0  0
  189.7760  173.8240  143.3980 C   0  0  0  0  0  2  0  0  0  0  0  0
  189.0220  172.0770  141.8680 N   0  0  0  0  0  1  0  0  0  0  0  0
  189.3470  172.3680  143.2490 C   0  0  0  0  0  2  0  0  0  0  0  0
  189.1800  178.1370  142.4100 C   0  0  0  0  0  2  0  0  0  0  0  0
  186.7710  178.6470  142.4590 C   0  0  0  0  0  2  0  0  0  0  0  0
  187.7400  177.7390  142.3950 C   0  0  0  0  0  3  0  0  0  0  0  0
  1 13  1  0  0  0  0
  2 21  1  0  0  0  0
  2 18  1  0  0  0  0
  3 23  1  0  0  0  0
  4  5  1  0  0  0  0
  6 11  1  0  0  0  0
  6  7  2  0  0  0  0
  7  9  1  0  0  0  0
  9  5  2  0  0  0  0
 10 22  1  0  0  0  0
 11  4  2  0  0  0  0
 12 27  1  0  0  0  0
 12 14  1  0  0  0  0
 15 13  1  6  0  0  0
 15 24  1  0  0  0  0
 15 26  1  0  0  0  0
 17  6  1  0  0  0  0
 18 19  1  0  0  0  0
 19  3  1  0  0  0  0
 20 28  1  0  0  0  0
 20 10  2  0  0  0  0
 21 16  1  0  0  0  0
 21 37  1  1  0  0  0
 22 14  2  0  0  0  0
 22  1  1  0  0  0  0
 23 11  1  0  0  0  0
 23  8  1  0  0  0  0
 25 27  1  6  0  0  0
 25 21  1  0  0  0  0
 25 16  1  0  0  0  0
 26 24  1  1  0  0  0
 26 17  1  0  0  0  0
 28 12  2  0  0  0  0
 29 32  1  0  0  0  0
 30 36  1  6  0  0  0
 30 26  1  0  0  0  0
 31 29  1  0  0  0  0
 32 34  1  0  0  0  0
 32 36  1  0  0  0  0
 33 30  1  0  0  0  0
 34 33  1  0  0  0  0
 35 29  2  0  0  0  0
 37 40  1  0  0  0  0
 38 45  1  0  0  0  0
 39 46  1  0  0  0  0
 40 42  2  0  0  0  0
 41 53  1  6  0  0  0
 41 38  1  0  0  0  0
 42 39  1  0  0  0  0
 44 41  1  0  0  0  0
 44 42  1  0  0  0  0
 45 48  1  6  0  0  0
 45 46  1  0  0  0  0
 46 43  1  1  0  0  0
 48 49  1  0  0  0  0
 48 47  1  0  0  0  0
 50 48  1  0  0  0  0
 51 52  1  0  0  0  0
 52 50  1  0  0  0  0
 55 53  1  0  0  0  0
 55 54  2  0  0  0  0
M  END
>  <MODEL>
8

>  <REMARK>
 VINA RESULT:      -7.0      2.431      3.346
  Name = 
  8 active torsions:
  status: ('A' for Active; 'I' for Inactive)
    1  A    between atoms: C_6  and  C_25
    2  A    between atoms: C_6  and  C_46
    3  A    between atoms: C_8  and  C_22
    4  A    between atoms: C_12  and  C_30
    5  A    between atoms: C_13  and  C_52
    6  A    between atoms: C_22  and  C_43
    7  A    between atoms: C_25  and  C_38
    8  A    between atoms: C_30  and  C_50
                            x       y       z     vdW  Elec       q    Type
                         _______ _______ _______ _____ _____    ______ ____

>  <TORSDO>
F 8

$$$$
=
 OpenBabel11052419293D

 55 61  0  0  1  0  0  0  0  0999 V2000
  193.0800  173.2960  145.6510 O   0  0  0  0  0  0  0  0  0  0  0  0
  191.7350  172.4960  139.3820 C   0  0  0  0  0  2  0  0  0  0  0  0
  188.1930  174.0270  139.7850 C   0  0  0  0  0  2  0  0  0  0  0  0
  187.3860  176.6040  140.8120 C   0  0  0  0  0  3  0  0  0  0  0  0
  187.1280  177.9080  141.2360 C   0  0  0  0  0  3  0  0  0  0  0  0
  188.3000  176.0610  142.9930 C   0  0  0  0  0  0  0  0  0  0  0  0
  188.0160  177.3660  143.4160 C   0  0  0  0  0  3  0  0  0  0  0  0
  187.8220  173.1930  142.1100 C   0  0  0  0  0  1  0  0  0  0  0  0
  187.4340  178.2860  142.5420 C   0  0  0  0  0  3  0  0  0  0  0  0
  194.3180  171.2330  145.4070 C   0  0  0  0  0  3  0  0  0  0  0  0
  187.9550  175.6560  141.6790 C   0  0  0  0  0  0  0  0  0  0  0  0
  194.0030  171.3440  142.6290 C   0  0  0  0  0  0  0  0  0  0  0  0
  192.4380  174.4600  145.1370 C   0  0  0  0  0  2  0  0  0  0  0  0
  193.4720  172.3450  143.4380 C   0  0  0  0  0  3  0  0  0  0  0  0
  190.9250  174.2620  145.0190 C   0  0  2  0  0  3  0  0  0  0  0  0
  191.2740  170.8950  141.3510 C   0  0  0  0  0  2  0  0  0  0  0  0
  188.9510  175.2050  143.8870 O   0  0  0  0  0  0  0  0  0  0  0  0
  190.6300  173.4470  139.8440 C   0  0  0  0  0  2  0  0  0  0  0  0
  189.2480  172.9820  139.4240 C   0  0  0  0  0  2  0  0  0  0  0  0
  194.8620  170.2260  144.5980 C   0  0  0  0  0  3  0  0  0  0  0  0
  191.5410  171.0520  139.8690 C   0  0  2  0  0  0  0  0  0  0  0  0
  193.6180  172.2980  144.8310 C   0  0  0  0  0  0  0  0  0  0  0  0
  188.1440  174.3010  141.2220 N   0  0  0  0  0  0  0  0  0  0  0  0
  190.5710  173.3590  143.8460 C   0  0  0  0  0  2  0  0  0  0  0  0
  192.6120  170.4280  140.7710 C   0  0  1  0  0  3  0  0  0  0  0  0
  190.3230  174.8460  143.7370 C   0  0  2  0  0  0  0  0  0  0  0  0
  193.7390  171.3890  141.1570 C   0  0  0  0  0  2  0  0  0  0  0  0
  194.7000  170.2790  143.2080 C   0  0  0  0  0  3  0  0  0  0  0  0
  194.5640  175.8420  141.3110 C   0  0  0  0  0  0  0  0  0  0  0  0
  191.1840  175.6840  142.7630 C   0  0  1  0  0  3  0  0  0  0  0  0
  194.8500  174.6430  140.4760 C   0  0  0  0  0  1  0  0  0  0  0  0
  193.3560  175.9330  142.0770 N   0  0  0  0  0  0  0  0  0  0  0  0
  191.6790  176.8560  143.3770 O   0  0  0  0  0  0  0  0  0  0  0  0
  192.9440  177.1100  142.8040 C   0  0  0  0  0  2  0  0  0  0  0  0
  195.3910  176.7910  141.3240 O   0  0  0  0  0  0  0  0  0  0  0  0
  192.3140  174.9500  142.0840 C   0  0  0  0  0  2  0  0  0  0  0  0
  190.8330  170.0860  138.9070 C   0  0  0  0  0  2  0  0  0  0  0  0
  193.4400  172.0010  135.2420 O   0  0  0  0  0  0  0  0  0  0  0  0
  193.0390  168.8050  136.0390 C   0  0  0  0  0  2  0  0  0  0  0  0
  191.7480  169.2870  138.0270 C   0  0  0  0  0  3  0  0  0  0  0  0
  192.1220  171.5190  135.1290 C   0  0  1  0  0  3  0  0  0  0  0  0
  192.1290  169.7070  136.8290 C   0  0  0  0  0  0  0  0  0  0  0  0
  195.1000  168.6580  134.6080 C   0  0  0  0  0  1  0  0  0  0  0  0
  191.6920  170.9460  136.3600 O   0  0  0  0  0  0  0  0  0  0  0  0
  194.3910  170.9540  135.4230 C   0  0  2  0  0  3  0  0  0  0  0  0
  193.9350  169.5310  135.0170 C   0  0  2  0  0  3  0  0  0  0  0  0
  195.3250  169.8890  137.3980 O   0  0  0  0  0  1  0  0  0  0  0  0
  195.1770  171.1140  136.7500 C   0  0  0  0  0  0  0  0  0  0  0  0
  194.5000  171.9880  137.6070 O   0  0  0  0  0  1  0  0  0  0  0  0
  196.5780  171.6600  136.4690 C   0  0  0  0  0  2  0  0  0  0  0  0
  196.9760  174.0320  136.0490 N   0  0  0  0  0  1  0  0  0  0  0  0
  196.8360  173.0300  137.0850 C   0  0  0  0  0  2  0  0  0  0  0  0
  191.1980  172.6720  134.7640 C   0  0  0  0  0  2  0  0  0  0  0  0
  189.8360  174.2250  136.1040 C   0  0  0  0  0  2  0  0  0  0  0  0
  190.2570  172.9850  135.8820 C   0  0  0  0  0  3  0  0  0  0  0  0
  2 18  1  0  0  0  0
  2 21  1  0  0  0  0
  3 23  1  0  0  0  0
  4  5  2  0  0  0  0
  4 11  1  0  0  0  0
  5  9  1  0  0  0  0
  6  7  1  0  0  0  0
  6 17  1  0  0  0  0
  9  7  2  0  0  0  0
 11  6  2  0  0  0  0
 12 28  2  0  0  0  0
 12 14  1  0  0  0  0
 13  1  1  0  0  0  0
 14 22  2  0  0  0  0
 15 24  1  6  0  0  0
 15 13  1  0  0  0  0
 19  3  1  0  0  0  0
 19 18  1  0  0  0  0
 20 10  2  0  0  0  0
 21 37  1  6  0  0  0
 21 25  1  0  0  0  0
 21 16  1  0  0  0  0
 22 10  1  0  0  0  0
 22  1  1  0  0  0  0
 23 11  1  0  0  0  0
 23  8  1  0  0  0  0
 25 27  1  1  0  0  0
 25 16  1  0  0  0  0
 26 24  1  6  0  0  0
 26 17  1  0  0  0  0
 26 15  1  0  0  0  0
 27 12  1  0  0  0  0
 28 20  1  0  0  0  0
 29 35  2  0  0  0  0
 29 32  1  0  0  0  0
 30 36  1  1  0  0  0
 30 33  1  0  0  0  0
 30 26  1  0  0  0  0
 31 29  1  0  0  0  0
 32 36  1  0  0  0  0
 32 34  1  0  0  0  0
 34 33  1  0  0  0  0
 38 45  1  0  0  0  0
 39 42  1  0  0  0  0
 40 37  1  0  0  0  0
 41 53  1  1  0  0  0
 41 38  1  0  0  0  0
 41 44  1  0  0  0  0
 42 40  2  0  0  0  0
 44 42  1  0  0  0  0
 45 48  1  1  0  0  0
 46 43  1  1  0  0  0
 46 45  1  0  0  0  0
 46 39  1  0  0  0  0
 48 47  1  0  0  0  0
 48 49  1  0  0  0  0
 50 48  1  0  0  0  0
 50 52  1  0  0  0  0
 51 52  1  0  0  0  0
 53 55  1  0  0  0  0
 55 54  2  0  0  0  0
M  END
>  <MODEL>
9

>  <REMARK>
 VINA RESULT:      -7.0      2.623      9.371
  Name = 
  8 active torsions:
  status: ('A' for Active; 'I' for Inactive)
    1  A    between atoms: C_6  and  C_25
    2  A    between atoms: C_6  and  C_46
    3  A    between atoms: C_8  and  C_22
    4  A    between atoms: C_12  and  C_30
    5  A    between atoms: C_13  and  C_52
    6  A    between atoms: C_22  and  C_43
    7  A    between atoms: C_25  and  C_38
    8  A    between atoms: C_30  and  C_50
                            x       y       z     vdW  Elec       q    Type
                         _______ _______ _______ _____ _____    ______ ____

>  <TORSDO>
F 8

$$$$
