=
 OpenBabel11052418563D

 34 39  0  0  1  0  0  0  0  0999 V2000
  188.6870  174.5630  141.3010 C   0  0  0  0  0  0  0  0  0  0  0  0
  191.0690  174.3290  141.7050 C   0  0  0  0  0  3  0  0  0  0  0  0
  193.5010  174.1730  145.2720 C   0  0  2  0  0  3  0  0  0  0  0  0
  189.6730  175.4170  143.3260 C   0  0  0  0  0  0  0  0  0  0  0  0
  190.6910  176.9800  145.0440 C   0  0  2  0  0  3  0  0  0  0  0  0
  190.0920  173.4180  139.6910 C   0  0  0  0  0  3  0  0  0  0  0  0
  191.2090  173.6510  140.4940 C   0  0  0  0  0  3  0  0  0  0  0  0
  191.1580  174.6340  145.2230 C   0  0  1  0  0  3  0  0  0  0  0  0
  189.8100  174.7810  142.1400 C   0  0  0  0  0  0  0  0  0  0  0  0
  193.1000  174.9010  146.5370 C   0  0  0  0  0  2  0  0  0  0  0  0
  191.6600  176.7290  146.1760 C   0  0  0  0  0  2  0  0  0  0  0  0
  188.8360  173.8780  140.0910 C   0  0  0  0  0  3  0  0  0  0  0  0
  188.2980  175.7710  143.8440 C   0  0  1  0  0  3  0  0  0  0  0  0
  187.4920  175.0570  141.6180 C   0  0  0  0  0  3  0  0  0  0  0  0
  192.2060  173.6790  144.6920 C   0  0  0  0  0  2  0  0  0  0  0  0
  189.3450  177.0780  145.6180 N   0  0  0  0  0  2  0  0  0  0  0  0
  188.3520  177.1240  144.5490 C   0  0  2  0  0  3  0  0  0  0  0  0
  191.6960  175.2880  146.4230 N   0  0  1  0  0  0  0  0  0  0  0  0
  190.8630  175.7230  144.2070 C   0  0  1  0  0  3  0  0  0  0  0  0
  187.3180  175.7780  142.8020 O   0  0  0  0  0  0  0  0  0  0  0  0
  185.0940  178.9790  145.1020 C   0  0  0  0  0  0  0  0  0  0  0  0
  184.5070  178.2260  146.1230 C   0  0  0  0  0  3  0  0  0  0  0  0
  187.0170  177.5010  145.1120 C   0  0  0  0  0  0  0  0  0  0  0  0
  185.1700  177.1090  146.6400 C   0  0  0  0  0  3  0  0  0  0  0  0
  186.3470  178.6160  144.5980 C   0  0  0  0  0  3  0  0  0  0  0  0
  186.4220  176.7450  146.1350 C   0  0  0  0  0  3  0  0  0  0  0  0
  184.4480  180.0580  144.6000 F   0  0  0  0  0  0  0  0  0  0  0  0
  196.4760  172.1600  145.9560 O   0  0  0  0  0  0  0  0  0  0  0  0
  194.3630  173.0440  145.5880 N   0  0  0  0  0  2  0  0  0  0  0  0
  195.7830  173.1710  145.6660 C   0  0  0  0  0  0  0  0  0  0  0  0
  196.3900  174.4070  145.4270 O   0  0  0  0  0  0  0  0  0  0  0  0
  197.0200  174.7220  144.1910 C   0  0  0  0  0  2  0  0  0  0  0  0
  196.4670  175.9920  143.6300 C   0  0  0  0  0  3  0  0  0  0  0  0
  195.7140  176.6860  144.2930 O   0  0  0  0  0  0  0  0  0  0  0  0
  1 14  2  0  0  0  0
  1  9  1  0  0  0  0
  2  9  1  0  0  0  0
  3 29  1  1  0  0  0
  3 10  1  0  0  0  0
  4 13  1  0  0  0  0
  5 16  1  0  0  0  0
  5 11  1  1  0  0  0
  6 12  2  0  0  0  0
  6  7  1  0  0  0  0
  7  2  2  0  0  0  0
  8 15  1  6  0  0  0
  8 18  1  0  0  0  0
  9  4  2  0  0  0  0
 12  1  1  0  0  0  0
 13 20  1  6  0  0  0
 13 17  1  0  0  0  0
 14 20  1  0  0  0  0
 15  3  1  0  0  0  0
 17 23  1  1  0  0  0
 17 16  1  0  0  0  0
 18 11  1  6  0  0  0
 18 10  1  0  0  0  0
 19  4  1  1  0  0  0
 19  5  1  0  0  0  0
 19  8  1  0  0  0  0
 21 22  1  0  0  0  0
 22 24  2  0  0  0  0
 23 26  2  0  0  0  0
 25 21  2  0  0  0  0
 25 23  1  0  0  0  0
 26 24  1  0  0  0  0
 27 21  1  0  0  0  0
 29 30  1  0  0  0  0
 30 28  2  0  0  0  0
 31 30  1  0  0  0  0
 32 31  1  0  0  0  0
 33 32  1  0  0  0  0
 33 34  2  0  0  0  0
M  END
>  <MODEL>
1

>  <REMARK>
 VINA RESULT:      -8.2      0.000      0.000
  Name = 
  5 active torsions:
  status: ('A' for Active; 'I' for Inactive)
    1  A    between atoms: C_3  and  N_13
    2  A    between atoms: C_12  and  C_28
    3  A    between atoms: C_14  and  O_33
    4  A    between atoms: C_20  and  C_22
    5  A    between atoms: C_22  and  O_33
                            x       y       z     vdW  Elec       q    Type
                         _______ _______ _______ _____ _____    ______ ____

>  <TORSDO>
F 5

$$$$
=
 OpenBabel11052418563D

 34 39  0  0  1  0  0  0  0  0999 V2000
  188.6000  174.6710  141.5300 C   0  0  0  0  0  0  0  0  0  0  0  0
  190.9850  174.2860  141.7610 C   0  0  0  0  0  3  0  0  0  0  0  0
  193.6670  174.0350  145.1380 C   0  0  2  0  0  3  0  0  0  0  0  0
  189.7920  175.4960  143.4540 C   0  0  0  0  0  0  0  0  0  0  0  0
  191.0380  177.0210  145.0520 C   0  0  2  0  0  3  0  0  0  0  0  0
  189.7990  173.4040  139.8480 C   0  0  0  0  0  3  0  0  0  0  0  0
  190.9870  173.5760  140.5590 C   0  0  0  0  0  3  0  0  0  0  0  0
  191.3630  174.6520  145.2530 C   0  0  1  0  0  3  0  0  0  0  0  0
  189.7950  174.8300  142.2770 C   0  0  0  0  0  0  0  0  0  0  0  0
  193.4130  174.8140  146.4110 C   0  0  0  0  0  2  0  0  0  0  0  0
  192.0730  176.7270  146.1140 C   0  0  0  0  0  2  0  0  0  0  0  0
  188.6100  173.9550  140.3300 C   0  0  0  0  0  3  0  0  0  0  0  0
  188.4860  175.9520  144.0650 C   0  0  1  0  0  3  0  0  0  0  0  0
  187.4670  175.2510  141.9240 C   0  0  0  0  0  3  0  0  0  0  0  0
  192.3020  173.6180  144.6680 C   0  0  0  0  0  2  0  0  0  0  0  0
  189.7500  177.2200  145.7230 N   0  0  0  0  0  2  0  0  0  0  0  0
  188.6820  177.3120  144.7310 C   0  0  2  0  0  3  0  0  0  0  0  0
  192.0320  175.2910  146.3930 N   0  0  1  0  0  0  0  0  0  0  0  0
  191.0630  175.7390  144.2360 C   0  0  1  0  0  3  0  0  0  0  0  0
  187.4320  176.0050  143.1000 O   0  0  0  0  0  0  0  0  0  0  0  0
  185.9980  177.8800  147.3430 C   0  0  0  0  0  0  0  0  0  0  0  0
  185.0840  178.6770  146.6460 C   0  0  0  0  0  3  0  0  0  0  0  0
  187.4220  177.7890  145.3830 C   0  0  0  0  0  0  0  0  0  0  0  0
  185.3370  179.0330  145.3180 C   0  0  0  0  0  3  0  0  0  0  0  0
  187.1640  177.4370  146.7120 C   0  0  0  0  0  3  0  0  0  0  0  0
  186.5040  178.5920  144.6870 C   0  0  0  0  0  3  0  0  0  0  0  0
  185.7530  177.5400  148.6310 F   0  0  0  0  0  0  0  0  0  0  0  0
  196.5350  171.8770  145.8330 O   0  0  0  0  0  0  0  0  0  0  0  0
  194.4740  172.8570  145.4160 N   0  0  0  0  0  2  0  0  0  0  0  0
  195.8900  172.9290  145.5810 C   0  0  0  0  0  0  0  0  0  0  0  0
  196.5480  174.1580  145.4680 O   0  0  0  0  0  0  0  0  0  0  0  0
  197.4210  174.4600  144.3860 C   0  0  0  0  0  2  0  0  0  0  0  0
  196.8750  175.5870  143.5710 C   0  0  0  0  0  3  0  0  0  0  0  0
  196.0780  176.3720  144.0560 O   0  0  0  0  0  0  0  0  0  0  0  0
  1 14  2  0  0  0  0
  1  9  1  0  0  0  0
  2  9  1  0  0  0  0
  3 29  1  1  0  0  0
  3 10  1  0  0  0  0
  4 13  1  0  0  0  0
  5 16  1  0  0  0  0
  5 11  1  1  0  0  0
  6 12  2  0  0  0  0
  6  7  1  0  0  0  0
  7  2  2  0  0  0  0
  8 15  1  6  0  0  0
  8 18  1  0  0  0  0
  9  4  2  0  0  0  0
 12  1  1  0  0  0  0
 13 20  1  6  0  0  0
 13 17  1  0  0  0  0
 14 20  1  0  0  0  0
 15  3  1  0  0  0  0
 17 23  1  1  0  0  0
 17 16  1  0  0  0  0
 18 11  1  6  0  0  0
 18 10  1  0  0  0  0
 19  4  1  1  0  0  0
 19  5  1  0  0  0  0
 19  8  1  0  0  0  0
 21 27  1  0  0  0  0
 22 21  2  0  0  0  0
 23 25  2  0  0  0  0
 24 22  1  0  0  0  0
 25 21  1  0  0  0  0
 26 24  2  0  0  0  0
 26 23  1  0  0  0  0
 29 30  1  0  0  0  0
 30 28  2  0  0  0  0
 31 30  1  0  0  0  0
 32 31  1  0  0  0  0
 33 34  2  0  0  0  0
 33 32  1  0  0  0  0
M  END
>  <MODEL>
2

>  <REMARK>
 VINA RESULT:      -7.9      0.968      1.250
  Name = 
  5 active torsions:
  status: ('A' for Active; 'I' for Inactive)
    1  A    between atoms: C_3  and  N_13
    2  A    between atoms: C_12  and  C_28
    3  A    between atoms: C_14  and  O_33
    4  A    between atoms: C_20  and  C_22
    5  A    between atoms: C_22  and  O_33
                            x       y       z     vdW  Elec       q    Type
                         _______ _______ _______ _____ _____    ______ ____

>  <TORSDO>
F 5

$$$$
=
 OpenBabel11052418563D

 34 39  0  0  1  0  0  0  0  0999 V2000
  190.7180  173.9510  141.3020 C   0  0  0  0  0  0  0  0  0  0  0  0
  188.5880  174.7500  142.1490 C   0  0  0  0  0  3  0  0  0  0  0  0
  187.4460  177.3720  145.3870 C   0  0  2  0  0  3  0  0  0  0  0  0
  190.4950  174.6320  143.6010 C   0  0  0  0  0  0  0  0  0  0  0  0
  190.1820  174.5770  146.1170 C   0  0  2  0  0  3  0  0  0  0  0  0
  188.8030  174.1210  139.8250 C   0  0  0  0  0  3  0  0  0  0  0  0
  188.0240  174.5900  140.8830 C   0  0  0  0  0  3  0  0  0  0  0  0
  189.6670  176.6100  144.9520 C   0  0  1  0  0  3  0  0  0  0  0  0
  189.9440  174.4530  142.3790 C   0  0  0  0  0  0  0  0  0  0  0  0
  188.2780  177.4830  146.6470 C   0  0  0  0  0  2  0  0  0  0  0  0
  189.6220  175.5990  147.0790 C   0  0  0  0  0  2  0  0  0  0  0  0
  190.1450  173.7980  140.0360 C   0  0  0  0  0  3  0  0  0  0  0  0
  191.9820  174.4440  143.7990 C   0  0  1  0  0  3  0  0  0  0  0  0
  191.9770  173.5600  141.4900 C   0  0  0  0  0  3  0  0  0  0  0  0
  188.4510  177.2140  144.2810 C   0  0  0  0  0  2  0  0  0  0  0  0
  191.6450  174.6280  146.2080 N   0  0  0  0  0  2  0  0  0  0  0  0
  192.2370  173.8010  145.1610 C   0  0  2  0  0  3  0  0  0  0  0  0
  189.5880  176.8890  146.3910 N   0  0  1  0  0  0  0  0  0  0  0  0
  189.6760  175.1010  144.7830 C   0  0  1  0  0  3  0  0  0  0  0  0
  192.5680  173.6660  142.7510 O   0  0  0  0  0  0  0  0  0  0  0  0
  195.6070  172.1530  145.6910 C   0  0  0  0  0  0  0  0  0  0  0  0
  196.4410  173.2600  145.8730 C   0  0  0  0  0  3  0  0  0  0  0  0
  193.7020  173.6270  145.4170 C   0  0  0  0  0  0  0  0  0  0  0  0
  195.9100  174.5520  145.8250 C   0  0  0  0  0  3  0  0  0  0  0  0
  194.2400  172.3370  145.4640 C   0  0  0  0  0  3  0  0  0  0  0  0
  194.5430  174.7370  145.5960 C   0  0  0  0  0  3  0  0  0  0  0  0
  196.1250  170.9020  145.7340 F   0  0  0  0  0  0  0  0  0  0  0  0
  184.9500  179.7260  144.1230 O   0  0  0  0  0  0  0  0  0  0  0  0
  186.6720  178.5860  145.1810 N   0  0  0  0  0  2  0  0  0  0  0  0
  185.5920  178.6490  144.2500 C   0  0  0  0  0  0  0  0  0  0  0  0
  185.2520  177.5240  143.4930 O   0  0  0  0  0  0  0  0  0  0  0  0
  184.9840  177.5950  142.0970 C   0  0  0  0  0  2  0  0  0  0  0  0
  186.2360  177.8880  141.3370 C   0  0  0  0  0  3  0  0  0  0  0  0
  186.2650  177.7730  140.1230 O   0  0  0  0  0  0  0  0  0  0  0  0
  1 14  2  0  0  0  0
  1  9  1  0  0  0  0
  2  9  1  0  0  0  0
  3 29  1  6  0  0  0
  3 10  1  0  0  0  0
  4 13  1  0  0  0  0
  5 16  1  0  0  0  0
  5 11  1  1  0  0  0
  6 12  2  0  0  0  0
  6  7  1  0  0  0  0
  7  2  2  0  0  0  0
  8 15  1  6  0  0  0
  8 18  1  0  0  0  0
  9  4  2  0  0  0  0
 12  1  1  0  0  0  0
 13 20  1  6  0  0  0
 13 17  1  0  0  0  0
 14 20  1  0  0  0  0
 15  3  1  0  0  0  0
 17 23  1  1  0  0  0
 17 16  1  0  0  0  0
 18 10  1  6  0  0  0
 18 11  1  0  0  0  0
 19  4  1  6  0  0  0
 19  8  1  0  0  0  0
 19  5  1  0  0  0  0
 21 27  1  0  0  0  0
 21 22  1  0  0  0  0
 23 25  1  0  0  0  0
 23 26  2  0  0  0  0
 24 22  2  0  0  0  0
 25 21  2  0  0  0  0
 26 24  1  0  0  0  0
 28 30  2  0  0  0  0
 30 29  1  0  0  0  0
 31 30  1  0  0  0  0
 32 31  1  0  0  0  0
 33 32  1  0  0  0  0
 34 33  2  0  0  0  0
M  END
>  <MODEL>
3

>  <REMARK>
 VINA RESULT:      -7.7      3.257      7.868
  Name = 
  5 active torsions:
  status: ('A' for Active; 'I' for Inactive)
    1  A    between atoms: C_3  and  N_13
    2  A    between atoms: C_12  and  C_28
    3  A    between atoms: C_14  and  O_33
    4  A    between atoms: C_20  and  C_22
    5  A    between atoms: C_22  and  O_33
                            x       y       z     vdW  Elec       q    Type
                         _______ _______ _______ _____ _____    ______ ____

>  <TORSDO>
F 5

$$$$
=
 OpenBabel11052418563D

 34 39  0  0  1  0  0  0  0  0999 V2000
  191.2180  173.5110  140.8950 C   0  0  0  0  0  0  0  0  0  0  0  0
  189.0440  174.4110  141.4950 C   0  0  0  0  0  3  0  0  0  0  0  0
  187.6980  177.2990  144.4120 C   0  0  2  0  0  3  0  0  0  0  0  0
  190.8200  174.3760  143.1080 C   0  0  0  0  0  0  0  0  0  0  0  0
  190.2980  174.5240  145.5850 C   0  0  2  0  0  3  0  0  0  0  0  0
  189.4370  173.5970  139.2530 C   0  0  0  0  0  3  0  0  0  0  0  0
  188.5830  174.1600  140.2010 C   0  0  0  0  0  3  0  0  0  0  0  0
  189.9300  176.4670  144.2270 C   0  0  1  0  0  3  0  0  0  0  0  0
  190.3690  174.1100  141.8610 C   0  0  0  0  0  0  0  0  0  0  0  0
  188.4250  177.4950  145.7260 C   0  0  0  0  0  2  0  0  0  0  0  0
  189.6840  175.6280  146.4140 C   0  0  0  0  0  2  0  0  0  0  0  0
  190.7480  173.2680  139.6010 C   0  0  0  0  0  3  0  0  0  0  0  0
  192.2810  174.1780  143.4460 C   0  0  1  0  0  3  0  0  0  0  0  0
  192.4470  173.1150  141.2190 C   0  0  0  0  0  3  0  0  0  0  0  0
  188.7880  177.0370  143.4110 C   0  0  0  0  0  2  0  0  0  0  0  0
  191.7480  174.5570  145.7960 N   0  0  0  0  0  2  0  0  0  0  0  0
  192.4060  173.6410  144.8690 C   0  0  2  0  0  3  0  0  0  0  0  0
  189.7370  176.8610  145.6280 N   0  0  1  0  0  0  0  0  0  0  0  0
  189.9170  174.9500  144.1760 C   0  0  1  0  0  3  0  0  0  0  0  0
  192.9330  173.3100  142.5150 O   0  0  0  0  0  0  0  0  0  0  0  0
  195.6910  171.9820  145.7700 C   0  0  0  0  0  0  0  0  0  0  0  0
  196.5230  173.0870  145.9740 C   0  0  0  0  0  3  0  0  0  0  0  0
  193.8400  173.4630  145.2620 C   0  0  0  0  0  0  0  0  0  0  0  0
  196.0170  174.3810  145.8210 C   0  0  0  0  0  3  0  0  0  0  0  0
  194.3530  172.1700  145.4140 C   0  0  0  0  0  3  0  0  0  0  0  0
  194.6790  174.5700  145.4640 C   0  0  0  0  0  3  0  0  0  0  0  0
  196.1850  170.7290  145.9140 F   0  0  0  0  0  0  0  0  0  0  0  0
  185.0610  179.8170  144.1420 O   0  0  0  0  0  0  0  0  0  0  0  0
  186.9730  178.5060  144.0470 N   0  0  0  0  0  2  0  0  0  0  0  0
  185.6340  178.7470  144.4790 C   0  0  0  0  0  0  0  0  0  0  0  0
  184.9730  177.8040  145.2720 O   0  0  0  0  0  0  0  0  0  0  0  0
  184.3050  178.1540  146.4790 C   0  0  0  0  0  2  0  0  0  0  0  0
  185.2940  178.4680  147.5530 C   0  0  0  0  0  3  0  0  0  0  0  0
  185.9050  177.5740  148.1130 O   0  0  0  0  0  0  0  0  0  0  0  0
  1 14  2  0  0  0  0
  1  9  1  0  0  0  0
  2  9  1  0  0  0  0
  3 29  1  6  0  0  0
  3 10  1  0  0  0  0
  4 13  1  0  0  0  0
  5 16  1  0  0  0  0
  5 11  1  1  0  0  0
  6 12  2  0  0  0  0
  6  7  1  0  0  0  0
  7  2  2  0  0  0  0
  8 15  1  6  0  0  0
  8 18  1  0  0  0  0
  9  4  2  0  0  0  0
 12  1  1  0  0  0  0
 13 20  1  6  0  0  0
 13 17  1  0  0  0  0
 14 20  1  0  0  0  0
 15  3  1  0  0  0  0
 17 23  1  1  0  0  0
 17 16  1  0  0  0  0
 18 10  1  6  0  0  0
 18 11  1  0  0  0  0
 19  4  1  6  0  0  0
 19  8  1  0  0  0  0
 19  5  1  0  0  0  0
 21 27  1  0  0  0  0
 21 22  1  0  0  0  0
 23 25  1  0  0  0  0
 23 26  2  0  0  0  0
 24 22  2  0  0  0  0
 25 21  2  0  0  0  0
 26 24  1  0  0  0  0
 28 30  2  0  0  0  0
 29 30  1  0  0  0  0
 30 31  1  0  0  0  0
 31 32  1  0  0  0  0
 32 33  1  0  0  0  0
 33 34  2  0  0  0  0
M  END
>  <MODEL>
4

>  <REMARK>
 VINA RESULT:      -7.6      3.279      8.039
  Name = 
  5 active torsions:
  status: ('A' for Active; 'I' for Inactive)
    1  A    between atoms: C_3  and  N_13
    2  A    between atoms: C_12  and  C_28
    3  A    between atoms: C_14  and  O_33
    4  A    between atoms: C_20  and  C_22
    5  A    between atoms: C_22  and  O_33
                            x       y       z     vdW  Elec       q    Type
                         _______ _______ _______ _____ _____    ______ ____

>  <TORSDO>
F 5

$$$$
=
 OpenBabel11052418563D

 34 39  0  0  1  0  0  0  0  0999 V2000
  186.4580  177.3250  146.8340 C   0  0  0  0  0  0  0  0  0  0  0  0
  185.1610  178.4920  145.1460 C   0  0  0  0  0  3  0  0  0  0  0  0
  184.9210  178.2290  140.8410 C   0  0  2  0  0  3  0  0  0  0  0  0
  187.2720  177.5060  144.5750 C   0  0  0  0  0  0  0  0  0  0  0  0
  188.5300  178.2870  142.5160 C   0  0  2  0  0  3  0  0  0  0  0  0
  184.3000  178.2770  147.3950 C   0  0  0  0  0  3  0  0  0  0  0  0
  184.1600  178.7410  146.0870 C   0  0  0  0  0  3  0  0  0  0  0  0
  186.4930  177.0580  142.2060 C   0  0  1  0  0  3  0  0  0  0  0  0
  186.3160  177.7670  145.4940 C   0  0  0  0  0  0  0  0  0  0  0  0
  186.1160  177.8200  140.0050 C   0  0  0  0  0  2  0  0  0  0  0  0
  188.1930  178.2050  141.0450 C   0  0  0  0  0  2  0  0  0  0  0  0
  185.4490  177.5760  147.7690 C   0  0  0  0  0  3  0  0  0  0  0  0
  188.4380  176.6080  144.9250 C   0  0  1  0  0  3  0  0  0  0  0  0
  187.5750  176.7240  147.2390 C   0  0  0  0  0  3  0  0  0  0  0  0
  185.0200  177.3870  142.0820 C   0  0  0  0  0  2  0  0  0  0  0  0
  189.4960  177.2250  142.8150 N   0  0  0  0  0  2  0  0  0  0  0  0
  189.7060  177.1360  144.2570 C   0  0  2  0  0  3  0  0  0  0  0  0
  187.1160  177.2260  140.8880 N   0  0  1  0  0  0  0  0  0  0  0  0
  187.1780  178.0230  143.1570 C   0  0  1  0  0  3  0  0  0  0  0  0
  188.6180  176.4910  146.3390 O   0  0  0  0  0  0  0  0  0  0  0  0
  193.0440  175.9510  145.6020 C   0  0  0  0  0  0  0  0  0  0  0  0
  193.0920  174.6360  145.1290 C   0  0  0  0  0  3  0  0  0  0  0  0
  190.8820  176.2560  144.5470 C   0  0  0  0  0  0  0  0  0  0  0  0
  192.0360  174.1270  144.3670 C   0  0  0  0  0  3  0  0  0  0  0  0
  191.9410  176.7590  145.3110 C   0  0  0  0  0  3  0  0  0  0  0  0
  190.9320  174.9340  144.0770 C   0  0  0  0  0  3  0  0  0  0  0  0
  194.0660  176.4400  146.3440 F   0  0  0  0  0  0  0  0  0  0  0  0
  181.3650  177.8650  140.0750 O   0  0  0  0  0  0  0  0  0  0  0  0
  183.6830  177.9310  140.1390 N   0  0  0  0  0  2  0  0  0  0  0  0
  182.4030  178.1300  140.7380 C   0  0  0  0  0  0  0  0  0  0  0  0
  182.3090  178.6190  142.0450 O   0  0  0  0  0  0  0  0  0  0  0  0
  181.2170  179.4180  142.4840 C   0  0  0  0  0  2  0  0  0  0  0  0
  179.9820  178.5880  142.6190 C   0  0  0  0  0  3  0  0  0  0  0  0
  178.9240  178.9710  142.1480 O   0  0  0  0  0  0  0  0  0  0  0  0
  1 14  2  0  0  0  0
  1 12  1  0  0  0  0
  2  9  1  0  0  0  0
  2  7  2  0  0  0  0
  3 29  1  6  0  0  0
  3 15  1  0  0  0  0
  4  9  2  0  0  0  0
  5 11  1  6  0  0  0
  5 16  1  0  0  0  0
  5 19  1  0  0  0  0
  6 12  2  0  0  0  0
  7  6  1  0  0  0  0
  8 15  1  6  0  0  0
  8 19  1  0  0  0  0
  9  1  1  0  0  0  0
 10  3  1  0  0  0  0
 13  4  1  1  0  0  0
 13 20  1  0  0  0  0
 16 17  1  0  0  0  0
 17 23  1  6  0  0  0
 17 13  1  0  0  0  0
 18 10  1  6  0  0  0
 18 11  1  0  0  0  0
 18  8  1  0  0  0  0
 19  4  1  1  0  0  0
 20 14  1  0  0  0  0
 21 27  1  0  0  0  0
 22 21  2  0  0  0  0
 23 25  2  0  0  0  0
 24 22  1  0  0  0  0
 25 21  1  0  0  0  0
 26 24  2  0  0  0  0
 26 23  1  0  0  0  0
 28 30  2  0  0  0  0
 29 30  1  0  0  0  0
 30 31  1  0  0  0  0
 31 32  1  0  0  0  0
 32 33  1  0  0  0  0
 34 33  2  0  0  0  0
M  END
>  <MODEL>
5

>  <REMARK>
 VINA RESULT:      -7.5      4.003      9.612
  Name = 
  5 active torsions:
  status: ('A' for Active; 'I' for Inactive)
    1  A    between atoms: C_3  and  N_13
    2  A    between atoms: C_12  and  C_28
    3  A    between atoms: C_14  and  O_33
    4  A    between atoms: C_20  and  C_22
    5  A    between atoms: C_22  and  O_33
                            x       y       z     vdW  Elec       q    Type
                         _______ _______ _______ _____ _____    ______ ____

>  <TORSDO>
F 5

$$$$
=
 OpenBabel11052418563D

 34 39  0  0  1  0  0  0  0  0999 V2000
  189.5000  173.1090  141.0080 C   0  0  0  0  0  0  0  0  0  0  0  0
  191.8260  173.4830  141.5930 C   0  0  0  0  0  3  0  0  0  0  0  0
  193.8070  175.6180  144.7830 C   0  0  2  0  0  3  0  0  0  0  0  0
  190.1430  175.0480  142.2840 C   0  0  0  0  0  0  0  0  0  0  0  0
  190.7870  177.4180  142.9190 C   0  0  2  0  0  3  0  0  0  0  0  0
  191.1950  171.5040  140.3570 C   0  0  0  0  0  3  0  0  0  0  0  0
  192.1770  172.2910  140.9570 C   0  0  0  0  0  3  0  0  0  0  0  0
  191.4540  175.6300  144.3730 C   0  0  1  0  0  3  0  0  0  0  0  0
  190.4850  173.9050  141.6470 C   0  0  0  0  0  0  0  0  0  0  0  0
  193.1850  176.8420  145.4230 C   0  0  0  0  0  2  0  0  0  0  0  0
  191.6300  177.9570  144.0500 C   0  0  0  0  0  2  0  0  0  0  0  0
  189.8610  171.9150  140.3780 C   0  0  0  0  0  3  0  0  0  0  0  0
  188.6870  175.4160  142.4560 C   0  0  1  0  0  3  0  0  0  0  0  0
  188.2330  173.5140  140.9430 C   0  0  0  0  0  3  0  0  0  0  0  0
  192.6460  174.7060  144.5030 C   0  0  0  0  0  2  0  0  0  0  0  0
  189.3780  177.6070  143.2770 N   0  0  0  0  0  2  0  0  0  0  0  0
  188.5230  176.9270  142.3090 C   0  0  2  0  0  3  0  0  0  0  0  0
  191.7750  176.8940  145.0460 N   0  0  1  0  0  0  0  0  0  0  0  0
  191.1810  175.9490  142.9140 C   0  0  1  0  0  3  0  0  0  0  0  0
  187.8460  174.7210  141.5310 O   0  0  0  0  0  0  0  0  0  0  0  0
  185.1960  177.6160  143.9850 C   0  0  0  0  0  0  0  0  0  0  0  0
  184.4440  178.1320  142.9250 C   0  0  0  0  0  3  0  0  0  0  0  0
  187.0990  177.3440  142.5070 C   0  0  0  0  0  0  0  0  0  0  0  0
  185.0160  178.2580  141.6570 C   0  0  0  0  0  3  0  0  0  0  0  0
  186.5210  177.2230  143.7760 C   0  0  0  0  0  3  0  0  0  0  0  0
  186.3420  177.8670  141.4470 C   0  0  0  0  0  3  0  0  0  0  0  0
  184.6400  177.5000  145.2150 F   0  0  0  0  0  0  0  0  0  0  0  0
  196.7490  173.9150  146.1310 O   0  0  0  0  0  0  0  0  0  0  0  0
  194.7280  174.9750  145.7070 N   0  0  0  0  0  2  0  0  0  0  0  0
  195.9860  174.4510  145.2830 C   0  0  0  0  0  0  0  0  0  0  0  0
  196.3650  174.5370  143.9390 O   0  0  0  0  0  0  0  0  0  0  0  0
  197.4800  175.3090  143.5080 C   0  0  0  0  0  2  0  0  0  0  0  0
  197.0330  176.6480  143.0200 C   0  0  0  0  0  3  0  0  0  0  0  0
  196.1520  176.7390  142.1820 O   0  0  0  0  0  0  0  0  0  0  0  0
  1  9  1  0  0  0  0
  2  9  1  0  0  0  0
  3 10  1  0  0  0  0
  3 29  1  1  0  0  0
  4 13  1  0  0  0  0
  5 16  1  0  0  0  0
  5 11  1  1  0  0  0
  6 12  2  0  0  0  0
  6  7  1  0  0  0  0
  7  2  2  0  0  0  0
  8 15  1  6  0  0  0
  8 18  1  0  0  0  0
  9  4  2  0  0  0  0
 12  1  1  0  0  0  0
 13 20  1  6  0  0  0
 14  1  2  0  0  0  0
 14 20  1  0  0  0  0
 15  3  1  0  0  0  0
 17 13  1  0  0  0  0
 17 23  1  1  0  0  0
 17 16  1  0  0  0  0
 18 11  1  6  0  0  0
 18 10  1  0  0  0  0
 19  4  1  1  0  0  0
 19  5  1  0  0  0  0
 19  8  1  0  0  0  0
 21 27  1  0  0  0  0
 22 21  2  0  0  0  0
 23 25  2  0  0  0  0
 24 22  1  0  0  0  0
 25 21  1  0  0  0  0
 26 24  2  0  0  0  0
 26 23  1  0  0  0  0
 30 29  1  0  0  0  0
 30 28  2  0  0  0  0
 31 30  1  0  0  0  0
 32 31  1  0  0  0  0
 33 32  1  0  0  0  0
 34 33  2  0  0  0  0
M  END
>  <MODEL>
6

>  <REMARK>
 VINA RESULT:      -7.4      1.792      2.200
  Name = 
  5 active torsions:
  status: ('A' for Active; 'I' for Inactive)
    1  A    between atoms: C_3  and  N_13
    2  A    between atoms: C_12  and  C_28
    3  A    between atoms: C_14  and  O_33
    4  A    between atoms: C_20  and  C_22
    5  A    between atoms: C_22  and  O_33
                            x       y       z     vdW  Elec       q    Type
                         _______ _______ _______ _____ _____    ______ ____

>  <TORSDO>
F 5

$$$$
=
 OpenBabel11052418563D

 34 39  0  0  1  0  0  0  0  0999 V2000
  191.1730  176.0990  145.9240 C   0  0  0  0  0  0  0  0  0  0  0  0
  191.8380  174.1690  144.6090 C   0  0  0  0  0  3  0  0  0  0  0  0
  191.0260  172.8740  140.5690 C   0  0  2  0  0  3  0  0  0  0  0  0
  189.8040  175.3340  144.0960 C   0  0  0  0  0  0  0  0  0  0  0  0
  187.9770  174.1870  142.7620 C   0  0  2  0  0  3  0  0  0  0  0  0
  193.2540  174.9520  146.4050 C   0  0  0  0  0  3  0  0  0  0  0  0
  192.9980  174.0470  145.3750 C   0  0  0  0  0  3  0  0  0  0  0  0
  190.0190  174.7570  141.6390 C   0  0  1  0  0  3  0  0  0  0  0  0
  190.9150  175.2030  144.8550 C   0  0  0  0  0  0  0  0  0  0  0  0
  189.7270  173.2210  139.8710 C   0  0  0  0  0  2  0  0  0  0  0  0
  187.9440  173.6820  141.3380 C   0  0  0  0  0  2  0  0  0  0  0  0
  192.3410  175.9710  146.6820 C   0  0  0  0  0  3  0  0  0  0  0  0
  188.8950  176.5290  144.2790 C   0  0  1  0  0  3  0  0  0  0  0  0
  190.2850  177.0320  146.2620 C   0  0  0  0  0  3  0  0  0  0  0  0
  191.3550  174.0920  141.3850 C   0  0  0  0  0  2  0  0  0  0  0  0
  187.2690  175.4710  142.8000 N   0  0  0  0  0  2  0  0  0  0  0  0
  187.4410  176.0950  144.1090 C   0  0  2  0  0  3  0  0  0  0  0  0
  189.0690  174.2860  140.6230 N   0  0  1  0  0  0  0  0  0  0  0  0
  189.4700  174.3530  142.9950 C   0  0  1  0  0  3  0  0  0  0  0  0
  189.0920  177.1620  145.5470 O   0  0  0  0  0  0  0  0  0  0  0  0
  184.6900  178.3350  145.4370 C   0  0  0  0  0  0  0  0  0  0  0  0
  184.7490  179.4160  144.5510 C   0  0  0  0  0  3  0  0  0  0  0  0
  186.5050  177.2550  144.2460 C   0  0  0  0  0  0  0  0  0  0  0  0
  185.6850  179.4190  143.5130 C   0  0  0  0  0  3  0  0  0  0  0  0
  185.5670  177.2570  145.2840 C   0  0  0  0  0  3  0  0  0  0  0  0
  186.5630  178.3420  143.3610 C   0  0  0  0  0  3  0  0  0  0  0  0
  183.7850  178.3360  146.4450 F   0  0  0  0  0  0  0  0  0  0  0  0
  193.2360  171.1980  138.1860 O   0  0  0  0  0  0  0  0  0  0  0  0
  192.0780  172.6340  139.5930 N   0  0  0  0  0  2  0  0  0  0  0  0
  192.3180  171.3420  139.0370 C   0  0  0  0  0  0  0  0  0  0  0  0
  191.5360  170.2520  139.4330 O   0  0  0  0  0  0  0  0  0  0  0  0
  190.9030  169.3860  138.4990 C   0  0  0  0  0  2  0  0  0  0  0  0
  189.6910  170.0400  137.9180 C   0  0  0  0  0  3  0  0  0  0  0  0
  189.6940  170.4350  136.7640 O   0  0  0  0  0  0  0  0  0  0  0  0
  1 14  2  0  0  0  0
  1 12  1  0  0  0  0
  2  9  1  0  0  0  0
  2  7  2  0  0  0  0
  3 29  1  6  0  0  0
  3 15  1  0  0  0  0
  4  9  2  0  0  0  0
  5 11  1  6  0  0  0
  5 16  1  0  0  0  0
  5 19  1  0  0  0  0
  6 12  2  0  0  0  0
  7  6  1  0  0  0  0
  8 15  1  6  0  0  0
  8 19  1  0  0  0  0
  9  1  1  0  0  0  0
 10  3  1  0  0  0  0
 13  4  1  1  0  0  0
 13 20  1  0  0  0  0
 16 17  1  0  0  0  0
 17 23  1  6  0  0  0
 17 13  1  0  0  0  0
 18 10  1  6  0  0  0
 18 11  1  0  0  0  0
 18  8  1  0  0  0  0
 19  4  1  1  0  0  0
 20 14  1  0  0  0  0
 21 27  1  0  0  0  0
 22 21  2  0  0  0  0
 23 25  2  0  0  0  0
 24 22  1  0  0  0  0
 25 21  1  0  0  0  0
 26 24  2  0  0  0  0
 26 23  1  0  0  0  0
 28 30  2  0  0  0  0
 30 31  1  0  0  0  0
 30 29  1  0  0  0  0
 32 31  1  0  0  0  0
 33 32  1  0  0  0  0
 34 33  2  0  0  0  0
M  END
>  <MODEL>
7

>  <REMARK>
 VINA RESULT:      -7.3      3.313      5.739
  Name = 
  5 active torsions:
  status: ('A' for Active; 'I' for Inactive)
    1  A    between atoms: C_3  and  N_13
    2  A    between atoms: C_12  and  C_28
    3  A    between atoms: C_14  and  O_33
    4  A    between atoms: C_20  and  C_22
    5  A    between atoms: C_22  and  O_33
                            x       y       z     vdW  Elec       q    Type
                         _______ _______ _______ _____ _____    ______ ____

>  <TORSDO>
F 5

$$$$
=
 OpenBabel11052418563D

 34 39  0  0  1  0  0  0  0  0999 V2000
  191.1590  176.2640  146.0060 C   0  0  0  0  0  0  0  0  0  0  0  0
  191.8960  174.3580  144.6950 C   0  0  0  0  0  3  0  0  0  0  0  0
  191.1760  173.0530  140.6410 C   0  0  2  0  0  3  0  0  0  0  0  0
  189.8360  175.4660  144.1580 C   0  0  0  0  0  0  0  0  0  0  0  0
  188.0610  174.2710  142.7960 C   0  0  2  0  0  3  0  0  0  0  0  0
  193.2650  175.1760  146.5120 C   0  0  0  0  0  3  0  0  0  0  0  0
  193.0490  174.2670  145.4760 C   0  0  0  0  0  3  0  0  0  0  0  0
  190.1010  174.9030  141.7020 C   0  0  1  0  0  3  0  0  0  0  0  0
  190.9410  175.3640  144.9310 C   0  0  0  0  0  0  0  0  0  0  0  0
  189.8770  173.3640  139.9270 C   0  0  0  0  0  2  0  0  0  0  0  0
  188.0620  173.7690  141.3710 C   0  0  0  0  0  2  0  0  0  0  0  0
  192.3190  176.1680  146.7790 C   0  0  0  0  0  3  0  0  0  0  0  0
  188.8910  176.6330  144.3320 C   0  0  1  0  0  3  0  0  0  0  0  0
  190.2400  177.1700  146.3340 C   0  0  0  0  0  3  0  0  0  0  0  0
  191.4590  174.2770  141.4650 C   0  0  0  0  0  2  0  0  0  0  0  0
  187.3170  175.5330  142.8280 N   0  0  0  0  0  2  0  0  0  0  0  0
  187.4530  176.1580  144.1410 C   0  0  2  0  0  3  0  0  0  0  0  0
  189.1780  174.4070  140.6730 N   0  0  1  0  0  0  0  0  0  0  0  0
  189.5460  174.4790  143.0500 C   0  0  1  0  0  3  0  0  0  0  0  0
  189.0530  177.2680  145.6040 O   0  0  0  0  0  0  0  0  0  0  0  0
  184.6410  178.3290  145.4570 C   0  0  0  0  0  0  0  0  0  0  0  0
  184.6610  179.3990  144.5560 C   0  0  0  0  0  3  0  0  0  0  0  0
  186.4820  177.2900  144.2690 C   0  0  0  0  0  0  0  0  0  0  0  0
  185.5910  179.4180  143.5130 C   0  0  0  0  0  3  0  0  0  0  0  0
  185.5500  177.2770  145.3130 C   0  0  0  0  0  3  0  0  0  0  0  0
  186.5010  178.3670  143.3700 C   0  0  0  0  0  3  0  0  0  0  0  0
  183.7420  178.3150  146.4700 F   0  0  0  0  0  0  0  0  0  0  0  0
  193.8900  171.4990  138.7450 O   0  0  0  0  0  0  0  0  0  0  0  0
  192.2470  172.8470  139.6780 N   0  0  0  0  0  2  0  0  0  0  0  0
  192.9800  171.6240  139.6090 C   0  0  0  0  0  0  0  0  0  0  0  0
  192.6850  170.5780  140.4880 O   0  0  0  0  0  0  0  0  0  0  0  0
  191.9480  169.4280  140.0880 C   0  0  0  0  0  2  0  0  0  0  0  0
  190.8220  169.1710  141.0360 C   0  0  0  0  0  3  0  0  0  0  0  0
  190.6560  169.8870  142.0090 O   0  0  0  0  0  0  0  0  0  0  0  0
  1 14  2  0  0  0  0
  1 12  1  0  0  0  0
  2  9  1  0  0  0  0
  2  7  2  0  0  0  0
  3 29  1  6  0  0  0
  3 15  1  0  0  0  0
  4  9  2  0  0  0  0
  5 11  1  6  0  0  0
  5 16  1  0  0  0  0
  5 19  1  0  0  0  0
  6 12  2  0  0  0  0
  7  6  1  0  0  0  0
  8 15  1  6  0  0  0
  8 19  1  0  0  0  0
  9  1  1  0  0  0  0
 10  3  1  0  0  0  0
 13  4  1  1  0  0  0
 13 20  1  0  0  0  0
 16 17  1  0  0  0  0
 17 23  1  6  0  0  0
 17 13  1  0  0  0  0
 18 10  1  6  0  0  0
 18 11  1  0  0  0  0
 18  8  1  0  0  0  0
 19  4  1  1  0  0  0
 20 14  1  0  0  0  0
 21 27  1  0  0  0  0
 22 21  2  0  0  0  0
 23 25  2  0  0  0  0
 24 22  1  0  0  0  0
 25 21  1  0  0  0  0
 26 24  2  0  0  0  0
 26 23  1  0  0  0  0
 28 30  2  0  0  0  0
 30 29  1  0  0  0  0
 30 31  1  0  0  0  0
 32 31  1  0  0  0  0
 32 33  1  0  0  0  0
 33 34  2  0  0  0  0
M  END
>  <MODEL>
8

>  <REMARK>
 VINA RESULT:      -7.3      3.093      5.305
  Name = 
  5 active torsions:
  status: ('A' for Active; 'I' for Inactive)
    1  A    between atoms: C_3  and  N_13
    2  A    between atoms: C_12  and  C_28
    3  A    between atoms: C_14  and  O_33
    4  A    between atoms: C_20  and  C_22
    5  A    between atoms: C_22  and  O_33
                            x       y       z     vdW  Elec       q    Type
                         _______ _______ _______ _____ _____    ______ ____

>  <TORSDO>
F 5

$$$$
=
 OpenBabel11052418563D

 34 39  0  0  1  0  0  0  0  0999 V2000
  189.8070  176.8880  146.2740 C   0  0  0  0  0  0  0  0  0  0  0  0
  191.3370  175.0250  145.9880 C   0  0  0  0  0  3  0  0  0  0  0  0
  193.0430  173.0530  142.5440 C   0  0  2  0  0  3  0  0  0  0  0  0
  189.7730  175.5780  144.2540 C   0  0  0  0  0  0  0  0  0  0  0  0
  189.1460  173.8530  142.5030 C   0  0  2  0  0  3  0  0  0  0  0  0
  191.4230  176.3600  148.0020 C   0  0  0  0  0  3  0  0  0  0  0  0
  191.8970  175.2930  147.2380 C   0  0  0  0  0  3  0  0  0  0  0  0
  191.3690  174.7540  142.4660 C   0  0  1  0  0  3  0  0  0  0  0  0
  190.2980  175.8240  145.4750 C   0  0  0  0  0  0  0  0  0  0  0  0
  192.3010  172.9760  141.2270 C   0  0  0  0  0  2  0  0  0  0  0  0
  189.9640  173.1730  141.4300 C   0  0  0  0  0  2  0  0  0  0  0  0
  190.3770  177.1510  147.5230 C   0  0  0  0  0  3  0  0  0  0  0  0
  188.7580  176.5270  143.6570 C   0  0  1  0  0  3  0  0  0  0  0  0
  188.7600  177.6100  145.8800 C   0  0  0  0  0  3  0  0  0  0  0  0
  192.7040  174.4110  143.0920 C   0  0  0  0  0  2  0  0  0  0  0  0
  188.3640  174.9180  141.8660 N   0  0  0  0  0  2  0  0  0  0  0  0
  187.7080  175.7300  142.8860 C   0  0  2  0  0  3  0  0  0  0  0  0
  191.2010  173.9360  141.2600 N   0  0  1  0  0  0  0  0  0  0  0  0
  190.2310  174.4090  143.4110 C   0  0  1  0  0  3  0  0  0  0  0  0
  188.1440  177.3490  144.6540 O   0  0  0  0  0  0  0  0  0  0  0  0
  184.6470  177.9140  142.4160 C   0  0  0  0  0  0  0  0  0  0  0  0
  184.8000  178.3390  141.0930 C   0  0  0  0  0  3  0  0  0  0  0  0
  186.6990  176.6330  142.2470 C   0  0  0  0  0  0  0  0  0  0  0  0
  185.9010  177.9140  140.3450 C   0  0  0  0  0  3  0  0  0  0  0  0
  185.5950  177.0630  142.9920 C   0  0  0  0  0  3  0  0  0  0  0  0
  186.8510  177.0640  140.9200 C   0  0  0  0  0  3  0  0  0  0  0  0
  183.5810  178.3300  143.1410 F   0  0  0  0  0  0  0  0  0  0  0  0
  196.6430  172.8520  143.1540 O   0  0  0  0  0  0  0  0  0  0  0  0
  194.4780  172.9530  142.3250 N   0  0  0  0  0  2  0  0  0  0  0  0
  195.4120  172.9540  143.4040 C   0  0  0  0  0  0  0  0  0  0  0  0
  194.9610  173.0620  144.7230 O   0  0  0  0  0  0  0  0  0  0  0  0
  195.6060  173.8870  145.6860 C   0  0  0  0  0  2  0  0  0  0  0  0
  195.5590  175.3190  145.2640 C   0  0  0  0  0  3  0  0  0  0  0  0
  194.9410  176.1390  145.9230 O   0  0  0  0  0  0  0  0  0  0  0  0
  1 12  1  0  0  0  0
  2  7  2  0  0  0  0
  3 29  1  6  0  0  0
  3 15  1  0  0  0  0
  4  9  2  0  0  0  0
  5 11  1  6  0  0  0
  5 19  1  0  0  0  0
  7  6  1  0  0  0  0
  8 15  1  1  0  0  0
  8 19  1  0  0  0  0
  9  2  1  0  0  0  0
  9  1  1  0  0  0  0
 10  3  1  0  0  0  0
 12  6  2  0  0  0  0
 13  4  1  1  0  0  0
 13 20  1  0  0  0  0
 14  1  2  0  0  0  0
 16  5  1  0  0  0  0
 16 17  1  0  0  0  0
 17 23  1  6  0  0  0
 17 13  1  0  0  0  0
 18 10  1  1  0  0  0
 18 11  1  0  0  0  0
 18  8  1  0  0  0  0
 19  4  1  6  0  0  0
 20 14  1  0  0  0  0
 21 25  1  0  0  0  0
 21 27  1  0  0  0  0
 22 21  2  0  0  0  0
 23 25  2  0  0  0  0
 24 26  2  0  0  0  0
 24 22  1  0  0  0  0
 26 23  1  0  0  0  0
 28 30  2  0  0  0  0
 29 30  1  0  0  0  0
 30 31  1  0  0  0  0
 31 32  1  0  0  0  0
 33 32  1  0  0  0  0
 33 34  2  0  0  0  0
M  END
>  <MODEL>
9

>  <REMARK>
 VINA RESULT:      -7.3      2.316      4.281
  Name = 
  5 active torsions:
  status: ('A' for Active; 'I' for Inactive)
    1  A    between atoms: C_3  and  N_13
    2  A    between atoms: C_12  and  C_28
    3  A    between atoms: C_14  and  O_33
    4  A    between atoms: C_20  and  C_22
    5  A    between atoms: C_22  and  O_33
                            x       y       z     vdW  Elec       q    Type
                         _______ _______ _______ _____ _____    ______ ____

>  <TORSDO>
F 5

$$$$
