=
 OpenBabel11052417493D

 31 35  0  0  1  0  0  0  0  0999 V2000
  184.8020  178.1950  146.0910 C   0  0  0  0  0  0  0  0  0  0  0  0
  187.5730  177.3860  143.5510 C   0  0  1  0  0  3  0  0  0  0  0  0
  186.8250  177.3800  142.2230 C   0  0  0  0  0  0  0  0  0  0  0  0
  191.1870  176.2930  147.2060 O   0  0  0  0  0  0  0  0  0  0  0  0
  191.5540  175.7610  146.1230 C   0  0  0  0  0  0  0  0  0  0  0  0
  185.1580  178.3400  140.7400 C   0  0  0  0  0  0  0  0  0  0  0  0
  186.7670  177.5130  144.8310 C   0  0  0  0  0  0  0  0  0  0  0  0
  185.4620  177.9110  147.2890 C   0  0  0  0  0  3  0  0  0  0  0  0
  185.7680  178.2710  141.9910 C   0  0  0  0  0  3  0  0  0  0  0  0
  189.3440  176.2910  144.9480 C   0  0  0  0  0  0  0  0  0  0  0  0
  183.5320  178.6650  146.1140 F   0  0  0  0  0  0  0  0  0  0  0  0
  188.4810  175.6930  141.2620 C   0  0  0  0  0  2  0  0  0  0  0  0
  184.1200  179.1850  140.5310 F   0  0  0  0  0  0  0  0  0  0  0  0
  188.7700  176.7240  146.0350 N   0  0  0  0  0  0  0  0  0  0  0  0
  188.5360  176.1940  143.6760 C   0  0  2  0  0  3  0  0  0  0  0  0
  190.6750  175.7570  144.9880 N   0  0  0  0  0  2  0  0  0  0  0  0
  185.4540  178.0090  144.8700 C   0  0  0  0  0  3  0  0  0  0  0  0
  185.6350  177.5410  139.7040 C   0  0  0  0  0  3  0  0  0  0  0  0
  187.4270  177.2310  146.0470 C   0  0  0  0  0  0  0  0  0  0  0  0
  186.7750  177.4330  147.2660 C   0  0  0  0  0  3  0  0  0  0  0  0
  189.3890  176.0790  142.4230 C   0  0  0  0  0  2  0  0  0  0  0  0
  187.3120  176.6300  141.1240 C   0  0  0  0  0  0  0  0  0  0  0  0
  186.6910  176.7140  139.9150 N   0  0  0  0  0  0  0  0  0  0  0  0
  195.3950  173.8740  145.7630 C   0  0  0  0  0  0  0  0  0  0  0  0
  192.9840  173.7910  145.6330 C   0  0  0  0  0  3  0  0  0  0  0  0
  194.0650  177.1930  146.6380 O   0  0  0  0  0  1  0  0  0  0  0  0
  196.5990  173.2640  145.6450 F   0  0  0  0  0  0  0  0  0  0  0  0
  194.2230  173.1610  145.5100 C   0  0  0  0  0  3  0  0  0  0  0  0
  194.0880  175.8550  146.2620 C   0  0  0  0  0  0  0  0  0  0  0  0
  192.8950  175.1400  146.0080 C   0  0  0  0  0  0  0  0  0  0  0  0
  195.3260  175.2160  146.1380 C   0  0  0  0  0  3  0  0  0  0  0  0
  1 11  1  0  0  0  0
  1  8  1  0  0  0  0
  2  3  1  6  0  0  0
  2 15  1  0  0  0  0
  2  7  1  0  0  0  0
  5  4  2  0  0  0  0
  6  9  2  0  0  0  0
  7 17  1  0  0  0  0
  7 19  2  0  0  0  0
  9  3  1  0  0  0  0
 10 16  1  0  0  0  0
 10 14  2  0  0  0  0
 12 21  1  0  0  0  0
 13  6  1  0  0  0  0
 14 19  1  0  0  0  0
 15 21  1  6  0  0  0
 15 10  1  0  0  0  0
 16  5  1  0  0  0  0
 17  1  2  0  0  0  0
 18 23  2  0  0  0  0
 18  6  1  0  0  0  0
 19 20  1  0  0  0  0
 20  8  2  0  0  0  0
 22 12  1  0  0  0  0
 22  3  2  0  0  0  0
 23 22  1  0  0  0  0
 24 31  1  0  0  0  0
 25 30  2  0  0  0  0
 27 24  1  0  0  0  0
 28 25  1  0  0  0  0
 28 24  2  0  0  0  0
 29 26  1  0  0  0  0
 30  5  1  0  0  0  0
 30 29  1  0  0  0  0
 31 29  2  0  0  0  0
M  END
>  <MODEL>
1

>  <REMARK>
 VINA RESULT:      -9.9      0.000      0.000
  Name = 
  1 active torsions:
  status: ('A' for Active; 'I' for Inactive)
    1  A    between atoms: C_9  and  C_22
                            x       y       z     vdW  Elec       q    Type
                         _______ _______ _______ _____ _____    ______ ____

>  <TORSDO>
F 1

$$$$
=
 OpenBabel11052417493D

 31 35  0  0  1  0  0  0  0  0999 V2000
  184.3730  178.4940  145.9250 C   0  0  0  0  0  0  0  0  0  0  0  0
  187.2080  177.6710  143.4600 C   0  0  1  0  0  3  0  0  0  0  0  0
  186.4810  177.5920  142.1220 C   0  0  0  0  0  0  0  0  0  0  0  0
  190.7910  176.8240  147.2100 O   0  0  0  0  0  0  0  0  0  0  0  0
  191.1910  176.2620  146.1530 C   0  0  0  0  0  0  0  0  0  0  0  0
  184.8120  178.4460  140.5790 C   0  0  0  0  0  0  0  0  0  0  0  0
  186.3770  177.8230  144.7230 C   0  0  0  0  0  0  0  0  0  0  0  0
  185.0220  178.2760  147.1430 C   0  0  0  0  0  3  0  0  0  0  0  0
  185.4030  178.4420  141.8400 C   0  0  0  0  0  3  0  0  0  0  0  0
  188.9860  176.6820  144.9260 C   0  0  0  0  0  0  0  0  0  0  0  0
  183.0900  178.9270  145.9110 F   0  0  0  0  0  0  0  0  0  0  0  0
  188.2000  175.9190  141.2530 C   0  0  0  0  0  2  0  0  0  0  0  0
  183.7540  179.2510  140.3210 F   0  0  0  0  0  0  0  0  0  0  0  0
  188.3830  177.1400  145.9860 N   0  0  0  0  0  0  0  0  0  0  0  0
  188.2020  176.5130  143.6460 C   0  0  2  0  0  3  0  0  0  0  0  0
  190.3310  176.1890  145.0070 N   0  0  0  0  0  2  0  0  0  0  0  0
  185.0510  178.2820  144.7220 C   0  0  0  0  0  3  0  0  0  0  0  0
  185.3290  177.6210  139.5820 C   0  0  0  0  0  3  0  0  0  0  0  0
  187.0250  177.6070  145.9580 C   0  0  0  0  0  0  0  0  0  0  0  0
  186.3480  177.8360  147.1590 C   0  0  0  0  0  3  0  0  0  0  0  0
  189.0780  176.3750  142.4110 C   0  0  0  0  0  2  0  0  0  0  0  0
  187.0070  176.8150  141.0600 C   0  0  0  0  0  0  0  0  0  0  0  0
  186.4050  176.8340  139.8400 N   0  0  0  0  0  0  0  0  0  0  0  0
  195.1700  174.6560  145.9870 C   0  0  0  0  0  0  0  0  0  0  0  0
  193.6440  176.4610  146.4860 C   0  0  0  0  0  3  0  0  0  0  0  0
  191.7500  173.5370  145.2130 O   0  0  0  0  0  1  0  0  0  0  0  0
  196.4320  174.1640  145.9410 F   0  0  0  0  0  0  0  0  0  0  0  0
  194.9440  175.9560  146.4390 C   0  0  0  0  0  3  0  0  0  0  0  0
  192.7900  174.3610  145.6260 C   0  0  0  0  0  0  0  0  0  0  0  0
  192.5510  175.6770  146.0830 C   0  0  0  0  0  0  0  0  0  0  0  0
  194.0960  173.8630  145.5820 C   0  0  0  0  0  3  0  0  0  0  0  0
  1  8  1  0  0  0  0
  2  3  1  6  0  0  0
  2 15  1  0  0  0  0
  2  7  1  0  0  0  0
  5  4  2  0  0  0  0
  6  9  2  0  0  0  0
  7 19  2  0  0  0  0
  8 20  2  0  0  0  0
  9  3  1  0  0  0  0
 10 16  1  0  0  0  0
 10 14  2  0  0  0  0
 11  1  1  0  0  0  0
 12 21  1  0  0  0  0
 13  6  1  0  0  0  0
 15 21  1  6  0  0  0
 15 10  1  0  0  0  0
 16  5  1  0  0  0  0
 17  7  1  0  0  0  0
 17  1  2  0  0  0  0
 18 23  2  0  0  0  0
 18  6  1  0  0  0  0
 19 14  1  0  0  0  0
 19 20  1  0  0  0  0
 22 12  1  0  0  0  0
 22  3  2  0  0  0  0
 23 22  1  0  0  0  0
 24 28  1  0  0  0  0
 26 29  1  0  0  0  0
 27 24  1  0  0  0  0
 28 25  2  0  0  0  0
 29 30  2  0  0  0  0
 30  5  1  0  0  0  0
 30 25  1  0  0  0  0
 31 29  1  0  0  0  0
 31 24  2  0  0  0  0
M  END
>  <MODEL>
2

>  <REMARK>
 VINA RESULT:      -9.8      0.833      1.319
  Name = 
  1 active torsions:
  status: ('A' for Active; 'I' for Inactive)
    1  A    between atoms: C_9  and  C_22
                            x       y       z     vdW  Elec       q    Type
                         _______ _______ _______ _____ _____    ______ ____

>  <TORSDO>
F 1

$$$$
=
 OpenBabel11052417493D

 31 35  0  0  1  0  0  0  0  0999 V2000
  185.0160  177.5920  146.1280 C   0  0  0  0  0  0  0  0  0  0  0  0
  187.7930  176.9890  143.5370 C   0  0  1  0  0  3  0  0  0  0  0  0
  187.0460  177.0800  142.2120 C   0  0  0  0  0  0  0  0  0  0  0  0
  191.4090  175.6390  147.1040 O   0  0  0  0  0  0  0  0  0  0  0  0
  191.7790  175.1920  145.9840 C   0  0  0  0  0  0  0  0  0  0  0  0
  185.3760  178.1420  140.8040 C   0  0  0  0  0  0  0  0  0  0  0  0
  186.9850  177.0160  144.8230 C   0  0  0  0  0  0  0  0  0  0  0  0
  185.6770  177.2220  147.3020 C   0  0  0  0  0  3  0  0  0  0  0  0
  185.9850  177.9810  142.0460 C   0  0  0  0  0  3  0  0  0  0  0  0
  189.5680  175.8000  144.8500 C   0  0  0  0  0  0  0  0  0  0  0  0
  183.7440  178.0540  146.1850 F   0  0  0  0  0  0  0  0  0  0  0  0
  188.7100  175.4770  141.1290 C   0  0  0  0  0  2  0  0  0  0  0  0
  184.3350  178.9960  140.6570 F   0  0  0  0  0  0  0  0  0  0  0  0
  188.9910  176.1470  145.9660 N   0  0  0  0  0  0  0  0  0  0  0  0
  188.7610  175.7960  143.5740 C   0  0  2  0  0  3  0  0  0  0  0  0
  190.9010  175.2700  144.8510 N   0  0  0  0  0  2  0  0  0  0  0  0
  185.6710  177.5020  144.8970 C   0  0  0  0  0  3  0  0  0  0  0  0
  185.8580  177.4250  139.7110 C   0  0  0  0  0  3  0  0  0  0  0  0
  187.6450  176.6460  146.0140 C   0  0  0  0  0  0  0  0  0  0  0  0
  186.9920  176.7520  147.2440 C   0  0  0  0  0  3  0  0  0  0  0  0
  189.6160  175.7790  142.3160 C   0  0  0  0  0  2  0  0  0  0  0  0
  187.5370  176.4170  141.0590 C   0  0  0  0  0  0  0  0  0  0  0  0
  186.9180  176.5890  139.8600 N   0  0  0  0  0  0  0  0  0  0  0  0
  195.7150  173.5270  145.5620 C   0  0  0  0  0  0  0  0  0  0  0  0
  194.2470  175.3310  146.2170 C   0  0  0  0  0  3  0  0  0  0  0  0
  192.2430  172.5090  144.8860 O   0  0  0  0  0  1  0  0  0  0  0  0
  196.9630  173.0160  145.4350 F   0  0  0  0  0  0  0  0  0  0  0  0
  195.5340  174.8060  146.0880 C   0  0  0  0  0  3  0  0  0  0  0  0
  193.3160  173.2920  145.2920 C   0  0  0  0  0  0  0  0  0  0  0  0
  193.1230  174.5880  145.8250 C   0  0  0  0  0  0  0  0  0  0  0  0
  194.6090  172.7740  145.1650 C   0  0  0  0  0  3  0  0  0  0  0  0
  1 11  1  0  0  0  0
  1  8  1  0  0  0  0
  2  3  1  6  0  0  0
  2 15  1  0  0  0  0
  2  7  1  0  0  0  0
  5  4  2  0  0  0  0
  6  9  2  0  0  0  0
  7 17  1  0  0  0  0
  7 19  2  0  0  0  0
  9  3  1  0  0  0  0
 10 16  1  0  0  0  0
 10 14  2  0  0  0  0
 12 21  1  0  0  0  0
 13  6  1  0  0  0  0
 14 19  1  0  0  0  0
 15 21  1  6  0  0  0
 15 10  1  0  0  0  0
 16  5  1  0  0  0  0
 17  1  2  0  0  0  0
 18 23  2  0  0  0  0
 18  6  1  0  0  0  0
 19 20  1  0  0  0  0
 20  8  2  0  0  0  0
 22 12  1  0  0  0  0
 22  3  2  0  0  0  0
 23 22  1  0  0  0  0
 24 28  1  0  0  0  0
 26 29  1  0  0  0  0
 27 24  1  0  0  0  0
 28 25  2  0  0  0  0
 29 30  2  0  0  0  0
 30  5  1  0  0  0  0
 30 25  1  0  0  0  0
 31 29  1  0  0  0  0
 31 24  2  0  0  0  0
M  END
>  <MODEL>
3

>  <REMARK>
 VINA RESULT:      -9.5      0.971      1.391
  Name = 
  1 active torsions:
  status: ('A' for Active; 'I' for Inactive)
    1  A    between atoms: C_9  and  C_22
                            x       y       z     vdW  Elec       q    Type
                         _______ _______ _______ _____ _____    ______ ____

>  <TORSDO>
F 1

$$$$
=
 OpenBabel11052417493D

 31 35  0  0  1  0  0  0  0  0999 V2000
  185.5550  178.0810  140.9390 C   0  0  0  0  0  0  0  0  0  0  0  0
  186.9260  176.5250  144.1780 C   0  0  1  0  0  3  0  0  0  0  0  0
  186.2690  177.3700  145.2640 C   0  0  0  0  0  0  0  0  0  0  0  0
  190.4010  173.4410  141.7230 O   0  0  0  0  0  0  0  0  0  0  0  0
  190.7680  173.5640  142.9230 C   0  0  0  0  0  0  0  0  0  0  0  0
  184.3260  178.5310  146.1420 C   0  0  0  0  0  0  0  0  0  0  0  0
  186.7480  176.9490  142.7300 C   0  0  0  0  0  0  0  0  0  0  0  0
  186.3870  177.4770  139.9930 C   0  0  0  0  0  3  0  0  0  0  0  0
  184.9640  177.8550  145.1040 C   0  0  0  0  0  3  0  0  0  0  0  0
  189.0130  175.3560  143.4250 C   0  0  0  0  0  0  0  0  0  0  0  0
  184.5710  178.9200  140.5370 F   0  0  0  0  0  0  0  0  0  0  0  0
  188.2490  176.9600  146.8210 C   0  0  0  0  0  2  0  0  0  0  0  0
  183.0740  179.0200  145.9720 F   0  0  0  0  0  0  0  0  0  0  0  0
  188.6350  175.4580  142.1820 N   0  0  0  0  0  0  0  0  0  0  0  0
  188.4190  176.2880  144.4540 C   0  0  2  0  0  3  0  0  0  0  0  0
  190.0950  174.4880  143.7910 N   0  0  0  0  0  2  0  0  0  0  0  0
  185.7250  177.8080  142.2980 C   0  0  0  0  0  3  0  0  0  0  0  0
  184.9840  178.6890  147.3590 C   0  0  0  0  0  3  0  0  0  0  0  0
  187.5830  176.3420  141.7670 C   0  0  0  0  0  0  0  0  0  0  0  0
  187.3980  176.6070  140.4070 C   0  0  0  0  0  3  0  0  0  0  0  0
  188.6150  175.8150  145.8860 C   0  0  0  0  0  2  0  0  0  0  0  0
  186.8750  177.5030  146.5380 C   0  0  0  0  0  0  0  0  0  0  0  0
  186.2290  178.1750  147.5310 N   0  0  0  0  0  0  0  0  0  0  0  0
  193.9650  171.1340  144.4440 C   0  0  0  0  0  0  0  0  0  0  0  0
  191.7140  171.3700  143.5990 C   0  0  0  0  0  3  0  0  0  0  0  0
  193.3710  174.6870  143.6890 O   0  0  0  0  0  1  0  0  0  0  0  0
  194.9640  170.3530  144.9220 F   0  0  0  0  0  0  0  0  0  0  0  0
  192.7420  170.5640  144.0910 C   0  0  0  0  0  3  0  0  0  0  0  0
  193.1350  173.3230  143.8120 C   0  0  0  0  0  0  0  0  0  0  0  0
  191.8920  172.7540  143.4510 C   0  0  0  0  0  0  0  0  0  0  0  0
  194.1590  172.5090  144.3040 C   0  0  0  0  0  3  0  0  0  0  0  0
  1 17  1  0  0  0  0
  2  7  1  6  0  0  0
  2 15  1  0  0  0  0
  2  3  1  0  0  0  0
  3 22  1  0  0  0  0
  4  5  2  0  0  0  0
  5 30  1  0  0  0  0
  5 16  1  0  0  0  0
  6 18  2  0  0  0  0
  8 20  1  0  0  0  0
  8  1  2  0  0  0  0
  9  3  2  0  0  0  0
  9  6  1  0  0  0  0
 10 16  1  0  0  0  0
 10 15  1  0  0  0  0
 11  1  1  0  0  0  0
 13  6  1  0  0  0  0
 14 10  2  0  0  0  0
 15 21  1  1  0  0  0
 17  7  2  0  0  0  0
 18 23  1  0  0  0  0
 19 14  1  0  0  0  0
 19  7  1  0  0  0  0
 20 19  2  0  0  0  0
 21 12  1  0  0  0  0
 22 12  1  0  0  0  0
 22 23  2  0  0  0  0
 24 27  1  0  0  0  0
 25 28  1  0  0  0  0
 26 29  1  0  0  0  0
 28 24  2  0  0  0  0
 29 31  2  0  0  0  0
 30 25  2  0  0  0  0
 30 29  1  0  0  0  0
 31 24  1  0  0  0  0
M  END
>  <MODEL>
4

>  <REMARK>
 VINA RESULT:      -9.2      2.210      4.574
  Name = 
  1 active torsions:
  status: ('A' for Active; 'I' for Inactive)
    1  A    between atoms: C_9  and  C_22
                            x       y       z     vdW  Elec       q    Type
                         _______ _______ _______ _____ _____    ______ ____

>  <TORSDO>
F 1

$$$$
=
 OpenBabel11052417493D

 31 35  0  0  1  0  0  0  0  0999 V2000
  185.4720  178.0550  141.1090 C   0  0  0  0  0  0  0  0  0  0  0  0
  187.1300  176.6900  144.3000 C   0  0  1  0  0  3  0  0  0  0  0  0
  186.4300  177.4700  145.4060 C   0  0  0  0  0  0  0  0  0  0  0  0
  190.8180  173.9720  141.7250 O   0  0  0  0  0  0  0  0  0  0  0  0
  191.2170  174.1460  142.9090 C   0  0  0  0  0  0  0  0  0  0  0  0
  184.4080  178.4250  146.3540 C   0  0  0  0  0  0  0  0  0  0  0  0
  186.8500  177.0770  142.8580 C   0  0  0  0  0  0  0  0  0  0  0  0
  186.3270  177.5340  140.1350 C   0  0  0  0  0  3  0  0  0  0  0  0
  185.0750  177.8110  145.2960 C   0  0  0  0  0  3  0  0  0  0  0  0
  189.3000  175.7450  143.4710 C   0  0  0  0  0  0  0  0  0  0  0  0
  184.3880  178.7790  140.7420 F   0  0  0  0  0  0  0  0  0  0  0  0
  188.5020  177.2930  146.8840 C   0  0  0  0  0  2  0  0  0  0  0  0
  183.1050  178.7740  146.2320 F   0  0  0  0  0  0  0  0  0  0  0  0
  188.8640  175.7920  142.2430 N   0  0  0  0  0  0  0  0  0  0  0  0
  188.6500  176.6180  144.5170 C   0  0  2  0  0  3  0  0  0  0  0  0
  190.4830  175.0020  143.7980 N   0  0  0  0  0  2  0  0  0  0  0  0
  185.7250  177.8160  142.4620 C   0  0  0  0  0  3  0  0  0  0  0  0
  185.0930  178.6660  147.5430 C   0  0  0  0  0  3  0  0  0  0  0  0
  187.7070  176.5540  141.8650 C   0  0  0  0  0  0  0  0  0  0  0  0
  187.4410  176.7820  140.5130 C   0  0  0  0  0  3  0  0  0  0  0  0
  188.9520  176.1840  145.9430 C   0  0  0  0  0  2  0  0  0  0  0  0
  187.0670  177.6820  146.6540 C   0  0  0  0  0  0  0  0  0  0  0  0
  186.3920  178.2910  147.6670 N   0  0  0  0  0  0  0  0  0  0  0  0
  194.8210  172.2610  144.2860 C   0  0  0  0  0  0  0  0  0  0  0  0
  193.6820  174.0970  143.2050 C   0  0  0  0  0  3  0  0  0  0  0  0
  191.2120  171.5410  144.2630 O   0  0  0  0  0  1  0  0  0  0  0  0
  195.9670  171.6800  144.7150 F   0  0  0  0  0  0  0  0  0  0  0  0
  194.8630  173.5000  143.6470 C   0  0  0  0  0  3  0  0  0  0  0  0
  192.4090  172.2130  144.0460 C   0  0  0  0  0  0  0  0  0  0  0  0
  192.4410  173.4680  143.3960 C   0  0  0  0  0  0  0  0  0  0  0  0
  193.5970  171.6210  144.4840 C   0  0  0  0  0  3  0  0  0  0  0  0
  1 17  1  0  0  0  0
  2  7  1  6  0  0  0
  2 15  1  0  0  0  0
  2  3  1  0  0  0  0
  3 22  1  0  0  0  0
  4  5  2  0  0  0  0
  5 30  1  0  0  0  0
  5 16  1  0  0  0  0
  6 18  2  0  0  0  0
  8 20  1  0  0  0  0
  8  1  2  0  0  0  0
  9  3  2  0  0  0  0
  9  6  1  0  0  0  0
 10 16  1  0  0  0  0
 10 15  1  0  0  0  0
 11  1  1  0  0  0  0
 13  6  1  0  0  0  0
 14 10  2  0  0  0  0
 15 21  1  1  0  0  0
 17  7  2  0  0  0  0
 18 23  1  0  0  0  0
 19 14  1  0  0  0  0
 19  7  1  0  0  0  0
 20 19  2  0  0  0  0
 21 12  1  0  0  0  0
 22 12  1  0  0  0  0
 22 23  2  0  0  0  0
 24 31  1  0  0  0  0
 24 27  1  0  0  0  0
 25 30  2  0  0  0  0
 25 28  1  0  0  0  0
 28 24  2  0  0  0  0
 29 26  1  0  0  0  0
 29 31  2  0  0  0  0
 30 29  1  0  0  0  0
M  END
>  <MODEL>
5

>  <REMARK>
 VINA RESULT:      -9.2      2.320      4.609
  Name = 
  1 active torsions:
  status: ('A' for Active; 'I' for Inactive)
    1  A    between atoms: C_9  and  C_22
                            x       y       z     vdW  Elec       q    Type
                         _______ _______ _______ _____ _____    ______ ____

>  <TORSDO>
F 1

$$$$
=
 OpenBabel11052417493D

 31 35  0  0  1  0  0  0  0  0999 V2000
  185.7700  177.7240  141.2690 C   0  0  0  0  0  0  0  0  0  0  0  0
  187.3190  176.6750  144.6290 C   0  0  1  0  0  3  0  0  0  0  0  0
  186.5210  177.4900  145.6400 C   0  0  0  0  0  0  0  0  0  0  0  0
  191.2750  173.9900  142.4470 O   0  0  0  0  0  0  0  0  0  0  0  0
  191.5990  174.2670  143.6340 C   0  0  0  0  0  0  0  0  0  0  0  0
  184.4050  178.3970  146.4130 C   0  0  0  0  0  0  0  0  0  0  0  0
  187.0990  176.9450  143.1510 C   0  0  0  0  0  0  0  0  0  0  0  0
  186.7020  177.1850  140.3790 C   0  0  0  0  0  3  0  0  0  0  0  0
  185.1580  177.7480  145.4370 C   0  0  0  0  0  3  0  0  0  0  0  0
  189.5750  175.7940  143.9810 C   0  0  0  0  0  0  0  0  0  0  0  0
  184.6730  178.3610  140.7960 F   0  0  0  0  0  0  0  0  0  0  0  0
  188.5150  177.5280  147.2300 C   0  0  0  0  0  2  0  0  0  0  0  0
  183.0940  178.6650  146.2000 F   0  0  0  0  0  0  0  0  0  0  0  0
  189.2060  175.7320  142.7330 N   0  0  0  0  0  0  0  0  0  0  0  0
  188.8270  176.7010  144.9280 C   0  0  2  0  0  3  0  0  0  0  0  0
  190.7750  175.1410  144.4210 N   0  0  0  0  0  2  0  0  0  0  0  0
  185.9610  177.5940  142.6470 C   0  0  0  0  0  3  0  0  0  0  0  0
  185.0100  178.7560  147.6150 C   0  0  0  0  0  3  0  0  0  0  0  0
  188.0340  176.4020  142.2440 C   0  0  0  0  0  0  0  0  0  0  0  0
  187.8310  176.5220  140.8660 C   0  0  0  0  0  3  0  0  0  0  0  0
  189.0720  176.3830  146.3950 C   0  0  0  0  0  2  0  0  0  0  0  0
  187.0770  177.8220  146.9000 C   0  0  0  0  0  0  0  0  0  0  0  0
  186.3190  178.4610  147.8320 N   0  0  0  0  0  0  0  0  0  0  0  0
  195.1110  172.5090  145.3720 C   0  0  0  0  0  0  0  0  0  0  0  0
  192.8140  172.3480  144.6380 C   0  0  0  0  0  3  0  0  0  0  0  0
  194.0870  175.7770  144.0220 O   0  0  0  0  0  1  0  0  0  0  0  0
  196.2100  171.9400  145.9220 F   0  0  0  0  0  0  0  0  0  0  0  0
  193.9460  171.7600  145.2040 C   0  0  0  0  0  3  0  0  0  0  0  0
  194.0130  174.4430  144.4050 C   0  0  0  0  0  0  0  0  0  0  0  0
  192.8280  173.6910  144.2300 C   0  0  0  0  0  0  0  0  0  0  0  0
  195.1420  173.8460  144.9740 C   0  0  0  0  0  3  0  0  0  0  0  0
  1 17  1  0  0  0  0
  2  7  1  6  0  0  0
  2 15  1  0  0  0  0
  2  3  1  0  0  0  0
  3 22  1  0  0  0  0
  4  5  2  0  0  0  0
  5 30  1  0  0  0  0
  5 16  1  0  0  0  0
  6 18  2  0  0  0  0
  8 20  1  0  0  0  0
  8  1  2  0  0  0  0
  9  3  2  0  0  0  0
  9  6  1  0  0  0  0
 10 16  1  0  0  0  0
 10 15  1  0  0  0  0
 11  1  1  0  0  0  0
 13  6  1  0  0  0  0
 14 10  2  0  0  0  0
 15 21  1  1  0  0  0
 17  7  2  0  0  0  0
 18 23  1  0  0  0  0
 19 14  1  0  0  0  0
 19  7  1  0  0  0  0
 20 19  2  0  0  0  0
 21 12  1  0  0  0  0
 22 12  1  0  0  0  0
 22 23  2  0  0  0  0
 24 27  1  0  0  0  0
 25 28  2  0  0  0  0
 26 29  1  0  0  0  0
 28 24  1  0  0  0  0
 29 31  1  0  0  0  0
 30 29  2  0  0  0  0
 30 25  1  0  0  0  0
 31 24  2  0  0  0  0
M  END
>  <MODEL>
6

>  <REMARK>
 VINA RESULT:      -9.2      1.746      4.280
  Name = 
  1 active torsions:
  status: ('A' for Active; 'I' for Inactive)
    1  A    between atoms: C_9  and  C_22
                            x       y       z     vdW  Elec       q    Type
                         _______ _______ _______ _____ _____    ______ ____

>  <TORSDO>
F 1

$$$$
=
 OpenBabel11052417493D

 31 35  0  0  1  0  0  0  0  0999 V2000
  195.1560  174.2050  145.6260 C   0  0  0  0  0  0  0  0  0  0  0  0
  191.5780  173.1380  144.7000 C   0  0  1  0  0  3  0  0  0  0  0  0
  191.8050  171.8860  143.8610 C   0  0  0  0  0  0  0  0  0  0  0  0
  189.3390  177.5060  146.5770 O   0  0  0  0  0  0  0  0  0  0  0  0
  188.5340  176.9730  145.7660 C   0  0  0  0  0  0  0  0  0  0  0  0
  192.9840  169.8000  143.4670 C   0  0  0  0  0  0  0  0  0  0  0  0
  192.7900  173.9510  145.1210 C   0  0  0  0  0  0  0  0  0  0  0  0
  194.9170  175.4830  146.1360 C   0  0  0  0  0  3  0  0  0  0  0  0
  192.8460  170.9990  144.1630 C   0  0  0  0  0  3  0  0  0  0  0  0
  190.2510  175.2480  144.9760 C   0  0  0  0  0  0  0  0  0  0  0  0
  196.4130  173.7010  145.6220 F   0  0  0  0  0  0  0  0  0  0  0  0
  189.6620  172.3390  142.5520 C   0  0  0  0  0  2  0  0  0  0  0  0
  194.0080  168.9590  143.7470 F   0  0  0  0  0  0  0  0  0  0  0  0
  191.2310  175.7910  145.6410 N   0  0  0  0  0  0  0  0  0  0  0  0
  190.5360  174.0760  144.0680 C   0  0  2  0  0  3  0  0  0  0  0  0
  188.9490  175.8500  144.9740 N   0  0  0  0  0  2  0  0  0  0  0  0
  194.0970  173.4380  145.1330 C   0  0  0  0  0  3  0  0  0  0  0  0
  192.0500  169.4700  142.4880 C   0  0  0  0  0  3  0  0  0  0  0  0
  192.5590  175.2430  145.6400 C   0  0  0  0  0  0  0  0  0  0  0  0
  193.6190  176.0000  146.1460 C   0  0  0  0  0  3  0  0  0  0  0  0
  189.2930  173.2890  143.6840 C   0  0  0  0  0  2  0  0  0  0  0  0
  190.8470  171.4800  142.8980 C   0  0  0  0  0  0  0  0  0  0  0  0
  191.0110  170.3060  142.2290 N   0  0  0  0  0  0  0  0  0  0  0  0
  184.5640  178.5300  145.2680 C   0  0  0  0  0  0  0  0  0  0  0  0
  186.8410  178.2770  144.5020 C   0  0  0  0  0  3  0  0  0  0  0  0
  186.3920  176.4690  147.7090 O   0  0  0  0  0  1  0  0  0  0  0  0
  183.3160  179.0290  145.0970 F   0  0  0  0  0  0  0  0  0  0  0  0
  185.5560  178.7920  144.3240 C   0  0  0  0  0  3  0  0  0  0  0  0
  186.1420  177.2360  146.5770 C   0  0  0  0  0  0  0  0  0  0  0  0
  187.1550  177.4950  145.6250 C   0  0  0  0  0  0  0  0  0  0  0  0
  184.8570  177.7550  146.3910 C   0  0  0  0  0  3  0  0  0  0  0  0
  1  8  1  0  0  0  0
  2  3  1  6  0  0  0
  2  7  1  0  0  0  0
  3  9  1  0  0  0  0
  5  4  2  0  0  0  0
  6 13  1  0  0  0  0
  6  9  2  0  0  0  0
  7 17  1  0  0  0  0
  7 19  2  0  0  0  0
  8 20  2  0  0  0  0
 10 14  2  0  0  0  0
 11  1  1  0  0  0  0
 12 22  1  0  0  0  0
 12 21  1  0  0  0  0
 15 21  1  1  0  0  0
 15  2  1  0  0  0  0
 15 10  1  0  0  0  0
 16 10  1  0  0  0  0
 16  5  1  0  0  0  0
 17  1  2  0  0  0  0
 18  6  1  0  0  0  0
 19 14  1  0  0  0  0
 19 20  1  0  0  0  0
 22  3  2  0  0  0  0
 23 18  2  0  0  0  0
 23 22  1  0  0  0  0
 24 31  1  0  0  0  0
 25 30  2  0  0  0  0
 27 24  1  0  0  0  0
 28 25  1  0  0  0  0
 28 24  2  0  0  0  0
 29 26  1  0  0  0  0
 30  5  1  0  0  0  0
 30 29  1  0  0  0  0
 31 29  2  0  0  0  0
M  END
>  <MODEL>
7

>  <REMARK>
 VINA RESULT:      -8.9      2.662      8.557
  Name = 
  1 active torsions:
  status: ('A' for Active; 'I' for Inactive)
    1  A    between atoms: C_9  and  C_22
                            x       y       z     vdW  Elec       q    Type
                         _______ _______ _______ _____ _____    ______ ____

>  <TORSDO>
F 1

$$$$
=
 OpenBabel11052417493D

 31 35  0  0  1  0  0  0  0  0999 V2000
  192.5410  172.7340  140.0270 C   0  0  0  0  0  0  0  0  0  0  0  0
  192.2570  175.6730  142.4910 C   0  0  1  0  0  3  0  0  0  0  0  0
  193.6890  175.8400  142.9860 C   0  0  0  0  0  0  0  0  0  0  0  0
  187.0040  175.8020  142.3870 O   0  0  0  0  0  0  0  0  0  0  0  0
  187.3880  176.3890  143.4350 C   0  0  0  0  0  0  0  0  0  0  0  0
  196.0770  175.8850  142.5460 C   0  0  0  0  0  0  0  0  0  0  0  0
  191.9350  174.4810  141.6060 C   0  0  0  0  0  0  0  0  0  0  0  0
  191.1910  172.4390  139.8240 C   0  0  0  0  0  3  0  0  0  0  0  0
  194.7750  175.6250  142.1260 C   0  0  0  0  0  3  0  0  0  0  0  0
  189.8260  175.6850  143.1070 C   0  0  0  0  0  0  0  0  0  0  0  0
  193.4930  172.0370  139.3610 F   0  0  0  0  0  0  0  0  0  0  0  0
  192.8450  176.7430  145.2180 C   0  0  0  0  0  2  0  0  0  0  0  0
  197.1230  175.6500  141.7190 F   0  0  0  0  0  0  0  0  0  0  0  0
  189.5560  174.9030  142.1000 N   0  0  0  0  0  0  0  0  0  0  0  0
  191.2380  175.7380  143.6400 C   0  0  2  0  0  3  0  0  0  0  0  0
  188.7740  176.3620  143.8090 N   0  0  0  0  0  2  0  0  0  0  0  0
  192.9110  173.7580  140.9020 C   0  0  0  0  0  3  0  0  0  0  0  0
  196.2910  176.4010  143.8230 C   0  0  0  0  0  3  0  0  0  0  0  0
  190.5740  174.1770  141.3940 C   0  0  0  0  0  0  0  0  0  0  0  0
  190.2080  173.1620  140.5050 C   0  0  0  0  0  3  0  0  0  0  0  0
  191.5120  176.9540  144.5110 C   0  0  0  0  0  2  0  0  0  0  0  0
  193.9520  176.4200  144.2520 C   0  0  0  0  0  0  0  0  0  0  0  0
  195.2350  176.6570  144.6380 N   0  0  0  0  0  0  0  0  0  0  0  0
  184.5770  178.4150  145.9720 C   0  0  0  0  0  0  0  0  0  0  0  0
  185.9930  176.5180  145.4850 C   0  0  0  0  0  3  0  0  0  0  0  0
  186.2820  179.0260  142.7670 O   0  0  0  0  0  1  0  0  0  0  0  0
  183.6910  179.0410  146.7830 F   0  0  0  0  0  0  0  0  0  0  0  0
  185.0810  177.1620  146.3220 C   0  0  0  0  0  3  0  0  0  0  0  0
  185.9010  178.3850  143.9400 C   0  0  0  0  0  0  0  0  0  0  0  0
  186.4170  177.1150  144.2870 C   0  0  0  0  0  0  0  0  0  0  0  0
  184.9870  179.0230  144.7840 C   0  0  0  0  0  3  0  0  0  0  0  0
  1 17  1  0  0  0  0
  2  7  1  1  0  0  0
  2  3  1  0  0  0  0
  2 15  1  0  0  0  0
  3 22  1  0  0  0  0
  4  5  2  0  0  0  0
  5 16  1  0  0  0  0
  5 30  1  0  0  0  0
  6 18  2  0  0  0  0
  8  1  2  0  0  0  0
  8 20  1  0  0  0  0
  9  6  1  0  0  0  0
  9  3  2  0  0  0  0
 10 15  1  0  0  0  0
 10 16  1  0  0  0  0
 11  1  1  0  0  0  0
 13  6  1  0  0  0  0
 14 10  2  0  0  0  0
 15 21  1  6  0  0  0
 17  7  2  0  0  0  0
 18 23  1  0  0  0  0
 19  7  1  0  0  0  0
 19 14  1  0  0  0  0
 20 19  2  0  0  0  0
 21 12  1  0  0  0  0
 22 23  2  0  0  0  0
 22 12  1  0  0  0  0
 24 28  1  0  0  0  0
 24 27  1  0  0  0  0
 25 28  2  0  0  0  0
 26 29  1  0  0  0  0
 29 30  2  0  0  0  0
 29 31  1  0  0  0  0
 30 25  1  0  0  0  0
 31 24  2  0  0  0  0
M  END
>  <MODEL>
8

>  <REMARK>
 VINA RESULT:      -8.6      3.484      8.828
  Name = 
  1 active torsions:
  status: ('A' for Active; 'I' for Inactive)
    1  A    between atoms: C_9  and  C_22
                            x       y       z     vdW  Elec       q    Type
                         _______ _______ _______ _____ _____    ______ ____

>  <TORSDO>
F 1

$$$$
=
 OpenBabel11052417493D

 31 35  0  0  1  0  0  0  0  0999 V2000
  186.2720  177.1470  145.4580 C   0  0  0  0  0  0  0  0  0  0  0  0
  188.9740  175.9250  143.0090 C   0  0  1  0  0  3  0  0  0  0  0  0
  188.2310  175.8800  141.6790 C   0  0  0  0  0  0  0  0  0  0  0  0
  192.4760  174.8190  146.7680 O   0  0  0  0  0  0  0  0  0  0  0  0
  192.8010  174.1790  145.7310 C   0  0  0  0  0  0  0  0  0  0  0  0
  186.6520  176.8580  140.1140 C   0  0  0  0  0  0  0  0  0  0  0  0
  188.1770  176.2150  144.2700 C   0  0  0  0  0  0  0  0  0  0  0  0
  186.9040  176.9020  146.6790 C   0  0  0  0  0  3  0  0  0  0  0  0
  187.2510  176.8340  141.3720 C   0  0  0  0  0  3  0  0  0  0  0  0
  190.6450  174.7980  144.5000 C   0  0  0  0  0  0  0  0  0  0  0  0
  185.0450  177.7200  145.4340 F   0  0  0  0  0  0  0  0  0  0  0  0
  189.7450  173.9950  140.8620 C   0  0  0  0  0  2  0  0  0  0  0  0
  185.6880  177.7670  139.8330 F   0  0  0  0  0  0  0  0  0  0  0  0
  190.1060  175.3580  145.5470 N   0  0  0  0  0  0  0  0  0  0  0  0
  189.8350  174.6720  143.2320 C   0  0  2  0  0  3  0  0  0  0  0  0
  191.9280  174.1610  144.5920 N   0  0  0  0  0  2  0  0  0  0  0  0
  186.9100  176.8180  144.2590 C   0  0  0  0  0  3  0  0  0  0  0  0
  187.0650  175.9460  139.1450 C   0  0  0  0  0  3  0  0  0  0  0  0
  188.8090  175.9720  145.5080 C   0  0  0  0  0  0  0  0  0  0  0  0
  188.1730  176.3180  146.7030 C   0  0  0  0  0  3  0  0  0  0  0  0
  190.6790  174.3930  141.9990 C   0  0  0  0  0  2  0  0  0  0  0  0
  188.6570  175.0110  140.6440 C   0  0  0  0  0  0  0  0  0  0  0  0
  188.0490  175.0540  139.4270 N   0  0  0  0  0  0  0  0  0  0  0  0
  196.4740  171.9600  145.5670 C   0  0  0  0  0  0  0  0  0  0  0  0
  194.0610  172.0410  145.6420 C   0  0  0  0  0  3  0  0  0  0  0  0
  195.4290  175.4880  145.6860 O   0  0  0  0  0  1  0  0  0  0  0  0
  197.6240  171.2460  145.5160 F   0  0  0  0  0  0  0  0  0  0  0  0
  195.2440  171.3030  145.5880 C   0  0  0  0  0  3  0  0  0  0  0  0
  195.3390  174.1010  145.6540 C   0  0  0  0  0  0  0  0  0  0  0  0
  194.0870  173.4440  145.6750 C   0  0  0  0  0  0  0  0  0  0  0  0
  196.5200  173.3550  145.6010 C   0  0  0  0  0  3  0  0  0  0  0  0
  1  8  1  0  0  0  0
  2  3  1  6  0  0  0
  2 15  1  0  0  0  0
  2  7  1  0  0  0  0
  5  4  2  0  0  0  0
  6  9  2  0  0  0  0
  7 19  2  0  0  0  0
  8 20  2  0  0  0  0
  9  3  1  0  0  0  0
 10 16  1  0  0  0  0
 10 14  2  0  0  0  0
 11  1  1  0  0  0  0
 12 21  1  0  0  0  0
 13  6  1  0  0  0  0
 15 21  1  6  0  0  0
 15 10  1  0  0  0  0
 16  5  1  0  0  0  0
 17  7  1  0  0  0  0
 17  1  2  0  0  0  0
 18 23  2  0  0  0  0
 18  6  1  0  0  0  0
 19 14  1  0  0  0  0
 19 20  1  0  0  0  0
 22 12  1  0  0  0  0
 22  3  2  0  0  0  0
 23 22  1  0  0  0  0
 24 28  2  0  0  0  0
 24 31  1  0  0  0  0
 25 30  2  0  0  0  0
 27 24  1  0  0  0  0
 28 25  1  0  0  0  0
 29 30  1  0  0  0  0
 29 26  1  0  0  0  0
 30  5  1  0  0  0  0
 31 29  2  0  0  0  0
M  END
>  <MODEL>
9

>  <REMARK>
 VINA RESULT:      -8.2      1.558      2.100
  Name = 
  1 active torsions:
  status: ('A' for Active; 'I' for Inactive)
    1  A    between atoms: C_9  and  C_22
                            x       y       z     vdW  Elec       q    Type
                         _______ _______ _______ _____ _____    ______ ____

>  <TORSDO>
F 1

$$$$
