=
 OpenBabel11052420213D

 34 37  0  0  1  0  0  0  0  0999 V2000
  192.2820  174.4250  144.1690 C   0  0  1  0  0  0  0  0  0  0  0  0
  194.8990  176.9500  145.0440 C   0  0  0  0  0  2  0  0  0  0  0  0
  193.2270  175.9330  146.3630 C   0  0  0  0  0  2  0  0  0  0  0  0
  193.1700  173.3960  144.5000 O   0  0  0  0  0  1  0  0  0  0  0  0
  190.0910  174.0510  145.4420 C   0  0  0  0  0  3  0  0  0  0  0  0
  189.7850  175.0080  147.6460 C   0  0  0  0  0  3  0  0  0  0  0  0
  189.3030  174.2400  146.5820 C   0  0  0  0  0  3  0  0  0  0  0  0
  191.8400  175.3980  146.4300 C   0  0  0  0  0  0  0  0  0  0  0  0
  191.3620  174.6470  145.3490 C   0  0  0  0  0  0  0  0  0  0  0  0
  191.0580  175.5800  147.5740 C   0  0  0  0  0  3  0  0  0  0  0  0
  195.7920  175.7730  144.6630 C   0  0  0  0  0  2  0  0  0  0  0  0
  195.5330  175.3630  143.2160 C   0  0  2  0  0  3  0  0  0  0  0  0
  193.4840  176.5630  145.0620 N   0  0  2  0  0  0  0  0  0  0  0  0
  194.1090  175.6650  142.7400 C   0  0  0  0  0  2  0  0  0  0  0  0
  193.0720  175.7390  143.8800 C   0  0  1  0  0  3  0  0  0  0  0  0
  191.4620  174.0260  142.9270 C   0  0  0  0  0  2  0  0  0  0  0  0
  190.7230  175.1970  142.2890 C   0  0  0  0  0  2  0  0  0  0  0  0
  189.3690  174.7480  141.7630 C   0  0  0  0  0  2  0  0  0  0  0  0
  188.2360  175.3330  142.5950 C   0  0  0  0  0  2  0  0  0  0  0  0
  185.7690  178.4010  142.4600 C   0  0  1  0  0  3  0  0  0  0  0  0
  186.8160  178.5750  143.5660 C   0  0  0  0  0  2  0  0  0  0  0  0
  187.5960  177.2760  143.7980 C   0  0  1  0  0  3  0  0  0  0  0  0
  187.7080  177.2500  141.3270 C   0  0  0  0  0  2  0  0  0  0  0  0
  188.3020  176.7900  142.5940 N   0  0  0  0  0  0  0  0  0  0  0  0
  186.1840  177.3660  141.4040 C   0  0  0  0  0  2  0  0  0  0  0  0
  184.3980  178.0900  143.0600 C   0  0  1  0  0  3  0  0  0  0  0  0
  184.1210  178.9690  144.2670 C   0  0  0  0  0  1  0  0  0  0  0  0
  183.3850  178.2530  142.1110 O   0  0  0  0  0  1  0  0  0  0  0  0
  188.5590  177.4260  144.9730 C   0  0  0  0  0  2  0  0  0  0  0  0
  189.9170  177.9510  144.5340 C   0  0  0  0  0  1  0  0  0  0  0  0
  195.9350  173.6080  142.9730 S   0  0  0  0  0  0  0  0  0  0  0  0
  197.2070  173.6240  144.2750 C   0  0  0  0  0  2  0  0  0  0  0  0
  197.5040  172.2130  144.7560 C   0  0  0  0  0  2  0  0  0  0  0  0
  196.7190  171.9090  146.0190 C   0  0  0  0  0  1  0  0  0  0  0  0
  1  4  1  1  0  0  0
  1  9  1  0  0  0  0
  3  8  1  0  0  0  0
  5  7  1  0  0  0  0
  7  6  2  0  0  0  0
  8 10  2  0  0  0  0
  9  5  2  0  0  0  0
  9  8  1  0  0  0  0
 10  6  1  0  0  0  0
 11  2  1  0  0  0  0
 12 31  1  1  0  0  0
 12 11  1  0  0  0  0
 13  2  1  6  0  0  0
 13  3  1  0  0  0  0
 14 12  1  0  0  0  0
 15 14  1  1  0  0  0
 15  1  1  0  0  0  0
 15 13  1  0  0  0  0
 16  1  1  0  0  0  0
 17 16  1  0  0  0  0
 18 17  1  0  0  0  0
 18 19  1  0  0  0  0
 20 26  1  1  0  0  0
 20 21  1  0  0  0  0
 21 22  1  0  0  0  0
 22 29  1  1  0  0  0
 23 25  1  0  0  0  0
 23 24  1  0  0  0  0
 24 19  1  0  0  0  0
 24 22  1  0  0  0  0
 25 20  1  0  0  0  0
 26 27  1  1  0  0  0
 28 26  1  0  0  0  0
 30 29  1  0  0  0  0
 31 32  1  0  0  0  0
 32 33  1  0  0  0  0
 33 34  1  0  0  0  0
M  END
>  <MODEL>
1

>  <REMARK>
 VINA RESULT:      -7.1      0.000      0.000
  Name = 
  10 active torsions:
  status: ('A' for Active; 'I' for Inactive)
    1  A    between atoms: C_1  and  C_8
    2  A    between atoms: C_3  and  C_13
    3  A    between atoms: C_4  and  C_16
    4  A    between atoms: C_6  and  N_28
    5  A    between atoms: C_6  and  C_30
    6  A    between atoms: C_7  and  C_11
    7  A    between atoms: C_8  and  C_18
    8  A    between atoms: C_13  and  S_27
    9  A    between atoms: C_18  and  C_30
   10  A    between atoms: C_25  and  S_27
                            x       y       z     vdW  Elec       q    Type
                         _______ _______ _______ _____ _____    ______ ____

>  <TORSDO>
F 10

$$$$
=
 OpenBabel11052420213D

 34 37  0  0  1  0  0  0  0  0999 V2000
  192.2680  174.5140  144.1590 C   0  0  1  0  0  0  0  0  0  0  0  0
  194.8340  177.1000  145.0050 C   0  0  0  0  0  2  0  0  0  0  0  0
  193.1900  176.0570  146.3390 C   0  0  0  0  0  2  0  0  0  0  0  0
  193.1790  173.5070  144.4940 O   0  0  0  0  0  1  0  0  0  0  0  0
  190.0910  174.1010  145.4450 C   0  0  0  0  0  3  0  0  0  0  0  0
  189.7740  175.0660  147.6440 C   0  0  0  0  0  3  0  0  0  0  0  0
  189.3050  174.2810  146.5870 C   0  0  0  0  0  3  0  0  0  0  0  0
  191.8150  175.4920  146.4160 C   0  0  0  0  0  0  0  0  0  0  0  0
  191.3480  174.7240  145.3430 C   0  0  0  0  0  0  0  0  0  0  0  0
  191.0340  175.6650  147.5620 C   0  0  0  0  0  3  0  0  0  0  0  0
  195.7500  175.9410  144.6280 C   0  0  0  0  0  2  0  0  0  0  0  0
  195.4940  175.5160  143.1850 C   0  0  2  0  0  3  0  0  0  0  0  0
  193.4270  176.6830  145.0320 N   0  0  2  0  0  0  0  0  0  0  0  0
  194.0610  175.7830  142.7140 C   0  0  0  0  0  2  0  0  0  0  0  0
  193.0280  175.8430  143.8580 C   0  0  1  0  0  3  0  0  0  0  0  0
  191.4510  174.0890  142.9240 C   0  0  0  0  0  2  0  0  0  0  0  0
  190.7160  175.2460  142.2570 C   0  0  0  0  0  2  0  0  0  0  0  0
  189.3670  174.7870  141.7310 C   0  0  0  0  0  2  0  0  0  0  0  0
  188.2290  175.3610  142.5650 C   0  0  0  0  0  2  0  0  0  0  0  0
  185.7280  178.4020  142.4370 C   0  0  1  0  0  3  0  0  0  0  0  0
  186.7790  178.5900  143.5370 C   0  0  0  0  0  2  0  0  0  0  0  0
  187.5740  177.2990  143.7680 C   0  0  1  0  0  3  0  0  0  0  0  0
  187.6720  177.2700  141.2960 C   0  0  0  0  0  2  0  0  0  0  0  0
  188.2790  176.8190  142.5600 N   0  0  0  0  0  0  0  0  0  0  0  0
  186.1480  177.3700  141.3810 C   0  0  0  0  0  2  0  0  0  0  0  0
  184.3640  178.0770  143.0460 C   0  0  1  0  0  3  0  0  0  0  0  0
  184.0680  178.9810  144.2290 C   0  0  0  0  0  1  0  0  0  0  0  0
  183.3470  178.1940  142.0930 O   0  0  0  0  0  1  0  0  0  0  0  0
  188.5420  177.4620  144.9370 C   0  0  0  0  0  2  0  0  0  0  0  0
  189.8900  178.0060  144.4900 C   0  0  0  0  0  1  0  0  0  0  0  0
  195.9320  173.7680  142.9520 S   0  0  0  0  0  0  0  0  0  0  0  0
  195.4450  173.7850  141.1980 C   0  0  0  0  0  2  0  0  0  0  0  0
  194.3250  172.7900  140.9400 C   0  0  0  0  0  2  0  0  0  0  0  0
  193.4640  173.2530  139.7800 C   0  0  0  0  0  1  0  0  0  0  0  0
  1  4  1  1  0  0  0
  1  9  1  0  0  0  0
  3  8  1  0  0  0  0
  5  7  1  0  0  0  0
  7  6  2  0  0  0  0
  8 10  2  0  0  0  0
  9  5  2  0  0  0  0
  9  8  1  0  0  0  0
 10  6  1  0  0  0  0
 11  2  1  0  0  0  0
 12 31  1  1  0  0  0
 12 11  1  0  0  0  0
 13  2  1  6  0  0  0
 13  3  1  0  0  0  0
 14 12  1  0  0  0  0
 15 14  1  1  0  0  0
 15  1  1  0  0  0  0
 15 13  1  0  0  0  0
 16  1  1  0  0  0  0
 17 16  1  0  0  0  0
 18 17  1  0  0  0  0
 18 19  1  0  0  0  0
 20 26  1  1  0  0  0
 20 21  1  0  0  0  0
 21 22  1  0  0  0  0
 22 29  1  1  0  0  0
 23 25  1  0  0  0  0
 23 24  1  0  0  0  0
 24 19  1  0  0  0  0
 24 22  1  0  0  0  0
 25 20  1  0  0  0  0
 26 27  1  1  0  0  0
 28 26  1  0  0  0  0
 30 29  1  0  0  0  0
 32 31  1  0  0  0  0
 33 32  1  0  0  0  0
 34 33  1  0  0  0  0
M  END
>  <MODEL>
2

>  <REMARK>
 VINA RESULT:      -6.8      1.138      1.620
  Name = 
  10 active torsions:
  status: ('A' for Active; 'I' for Inactive)
    1  A    between atoms: C_1  and  C_8
    2  A    between atoms: C_3  and  C_13
    3  A    between atoms: C_4  and  C_16
    4  A    between atoms: C_6  and  N_28
    5  A    between atoms: C_6  and  C_30
    6  A    between atoms: C_7  and  C_11
    7  A    between atoms: C_8  and  C_18
    8  A    between atoms: C_13  and  S_27
    9  A    between atoms: C_18  and  C_30
   10  A    between atoms: C_25  and  S_27
                            x       y       z     vdW  Elec       q    Type
                         _______ _______ _______ _____ _____    ______ ____

>  <TORSDO>
F 10

$$$$
=
 OpenBabel11052420213D

 34 37  0  0  1  0  0  0  0  0999 V2000
  187.9040  177.1460  143.2880 C   0  0  1  0  0  0  0  0  0  0  0  0
  186.2820  177.9470  146.5610 C   0  0  0  0  0  2  0  0  0  0  0  0
  185.3540  177.5930  144.4200 C   0  0  0  0  0  2  0  0  0  0  0  0
  187.7820  175.7800  143.5670 O   0  0  0  0  0  1  0  0  0  0  0  0
  186.8950  177.5970  140.9770 C   0  0  0  0  0  3  0  0  0  0  0  0
  184.5460  178.1480  140.7610 C   0  0  0  0  0  3  0  0  0  0  0  0
  185.7930  177.9100  140.1750 C   0  0  0  0  0  3  0  0  0  0  0  0
  185.5040  177.7620  142.9480 C   0  0  0  0  0  0  0  0  0  0  0  0
  186.7630  177.5400  142.3760 C   0  0  0  0  0  0  0  0  0  0  0  0
  184.3990  178.0650  142.1480 C   0  0  0  0  0  3  0  0  0  0  0  0
  186.8860  176.5870  146.8980 C   0  0  0  0  0  2  0  0  0  0  0  0
  188.4010  176.6280  146.7290 C   0  0  2  0  0  3  0  0  0  0  0  0
  186.4440  178.2660  145.1380 N   0  0  2  0  0  0  0  0  0  0  0  0
  188.8730  177.6410  145.6810 C   0  0  0  0  0  2  0  0  0  0  0  0
  187.8140  177.9700  144.6090 C   0  0  1  0  0  3  0  0  0  0  0  0
  189.2520  177.4180  142.5940 C   0  0  0  0  0  2  0  0  0  0  0  0
  190.2060  176.2290  142.6380 C   0  0  0  0  0  2  0  0  0  0  0  0
  191.5730  176.6620  143.1430 C   0  0  0  0  0  2  0  0  0  0  0  0
  192.6330  175.6190  142.8160 C   0  0  0  0  0  2  0  0  0  0  0  0
  195.6120  174.4340  145.1060 C   0  0  1  0  0  3  0  0  0  0  0  0
  196.1140  174.9020  143.7350 C   0  0  0  0  0  2  0  0  0  0  0  0
  194.9490  175.1000  142.7590 C   0  0  1  0  0  3  0  0  0  0  0  0
  193.9190  176.2580  144.6880 C   0  0  0  0  0  2  0  0  0  0  0  0
  193.9520  176.0880  143.2250 N   0  0  0  0  0  0  0  0  0  0  0  0
  194.2040  174.9530  145.4340 C   0  0  0  0  0  2  0  0  0  0  0  0
  195.7040  172.9130  145.2240 C   0  0  1  0  0  3  0  0  0  0  0  0
  196.8760  172.5060  146.0980 C   0  0  0  0  0  1  0  0  0  0  0  0
  194.5200  172.3750  145.7360 O   0  0  0  0  0  1  0  0  0  0  0  0
  195.4650  175.4600  141.3670 C   0  0  0  0  0  2  0  0  0  0  0  0
  196.2080  176.7860  141.3590 C   0  0  0  0  0  1  0  0  0  0  0  0
  189.0430  174.9700  146.3550 S   0  0  0  0  0  0  0  0  0  0  0  0
  190.7760  175.5070  146.5030 C   0  0  0  0  0  2  0  0  0  0  0  0
  191.2120  175.5260  147.9600 C   0  0  0  0  0  2  0  0  0  0  0  0
  191.5940  176.9330  148.3790 C   0  0  0  0  0  1  0  0  0  0  0  0
  1  4  1  1  0  0  0
  1 15  1  0  0  0  0
  2 11  1  0  0  0  0
  5  9  1  0  0  0  0
  6 10  2  0  0  0  0
  7  6  1  0  0  0  0
  7  5  2  0  0  0  0
  8  3  1  0  0  0  0
  9  8  2  0  0  0  0
  9  1  1  0  0  0  0
 10  8  1  0  0  0  0
 12 31  1  6  0  0  0
 12 11  1  0  0  0  0
 13  3  1  6  0  0  0
 13  2  1  0  0  0  0
 14 12  1  0  0  0  0
 15 13  1  0  0  0  0
 15 14  1  1  0  0  0
 16 17  1  0  0  0  0
 16  1  1  0  0  0  0
 17 18  1  0  0  0  0
 19 18  1  0  0  0  0
 19 24  1  0  0  0  0
 20 26  1  6  0  0  0
 20 25  1  0  0  0  0
 21 20  1  0  0  0  0
 22 29  1  6  0  0  0
 22 24  1  0  0  0  0
 22 21  1  0  0  0  0
 23 25  1  0  0  0  0
 24 23  1  0  0  0  0
 26 28  1  0  0  0  0
 26 27  1  1  0  0  0
 30 29  1  0  0  0  0
 31 32  1  0  0  0  0
 32 33  1  0  0  0  0
 33 34  1  0  0  0  0
M  END
>  <MODEL>
3

>  <REMARK>
 VINA RESULT:      -6.6      2.279      8.108
  Name = 
  10 active torsions:
  status: ('A' for Active; 'I' for Inactive)
    1  A    between atoms: C_1  and  C_8
    2  A    between atoms: C_3  and  C_13
    3  A    between atoms: C_4  and  C_16
    4  A    between atoms: C_6  and  N_28
    5  A    between atoms: C_6  and  C_30
    6  A    between atoms: C_7  and  C_11
    7  A    between atoms: C_8  and  C_18
    8  A    between atoms: C_13  and  S_27
    9  A    between atoms: C_18  and  C_30
   10  A    between atoms: C_25  and  S_27
                            x       y       z     vdW  Elec       q    Type
                         _______ _______ _______ _____ _____    ______ ____

>  <TORSDO>
F 10

$$$$
=
 OpenBabel11052420213D

 34 37  0  0  1  0  0  0  0  0999 V2000
  188.0660  176.6750  144.7970 C   0  0  1  0  0  0  0  0  0  0  0  0
  186.0960  178.0830  147.6480 C   0  0  0  0  0  2  0  0  0  0  0  0
  188.4230  177.8150  147.3590 C   0  0  0  0  0  2  0  0  0  0  0  0
  188.1410  177.9500  144.2260 O   0  0  0  0  0  1  0  0  0  0  0  0
  190.4350  175.7140  144.9570 C   0  0  0  0  0  3  0  0  0  0  0  0
  191.7780  176.1090  146.9340 C   0  0  0  0  0  3  0  0  0  0  0  0
  191.6340  175.5530  145.6590 C   0  0  0  0  0  3  0  0  0  0  0  0
  189.5270  176.9840  146.8040 C   0  0  0  0  0  0  0  0  0  0  0  0
  189.3620  176.4170  145.5350 C   0  0  0  0  0  0  0  0  0  0  0  0
  190.7280  176.8320  147.5030 C   0  0  0  0  0  3  0  0  0  0  0  0
  185.7330  179.0890  146.5610 C   0  0  0  0  0  2  0  0  0  0  0  0
  185.0510  178.3810  145.3950 C   0  0  2  0  0  3  0  0  0  0  0  0
  187.1270  177.1460  147.1860 N   0  0  2  0  0  0  0  0  0  0  0  0
  185.4840  176.9210  145.2280 C   0  0  0  0  0  2  0  0  0  0  0  0
  186.8800  176.6130  145.8090 C   0  0  1  0  0  3  0  0  0  0  0  0
  187.8660  175.6200  143.6940 C   0  0  0  0  0  2  0  0  0  0  0  0
  187.7190  176.2220  142.3000 C   0  0  0  0  0  2  0  0  0  0  0  0
  188.2930  175.2830  141.2520 C   0  0  0  0  0  2  0  0  0  0  0  0
  189.7270  174.8960  141.5890 C   0  0  0  0  0  2  0  0  0  0  0  0
  192.7390  172.3600  141.4860 C   0  0  1  0  0  3  0  0  0  0  0  0
  191.5300  171.7600  142.2110 C   0  0  0  0  0  2  0  0  0  0  0  0
  190.4670  172.8300  142.4910 C   0  0  1  0  0  3  0  0  0  0  0  0
  190.9110  173.4600  140.1400 C   0  0  0  0  0  2  0  0  0  0  0  0
  189.9650  173.4930  141.2690 N   0  0  0  0  0  0  0  0  0  0  0  0
  192.3680  173.5540  140.5950 C   0  0  0  0  0  2  0  0  0  0  0  0
  193.8460  172.7090  142.4810 C   0  0  1  0  0  3  0  0  0  0  0  0
  193.8340  174.1910  142.8090 C   0  0  0  0  0  1  0  0  0  0  0  0
  193.7210  171.9610  143.6550 O   0  0  0  0  0  1  0  0  0  0  0  0
  189.3170  172.2480  143.3090 C   0  0  0  0  0  2  0  0  0  0  0  0
  189.6420  172.1920  144.7930 C   0  0  0  0  0  1  0  0  0  0  0  0
  185.3060  179.3080  143.8530 S   0  0  0  0  0  0  0  0  0  0  0  0
  184.4000  178.0810  142.8580 C   0  0  0  0  0  2  0  0  0  0  0  0
  184.7500  178.2180  141.3850 C   0  0  0  0  0  2  0  0  0  0  0  0
  183.4880  178.2610  140.5440 C   0  0  0  0  0  1  0  0  0  0  0  0
  1  4  1  6  0  0  0
  1  9  1  0  0  0  0
  1 15  1  0  0  0  0
  5  9  2  0  0  0  0
  5  7  1  0  0  0  0
  6 10  1  0  0  0  0
  7  6  2  0  0  0  0
  8  3  1  0  0  0  0
  8 10  2  0  0  0  0
  9  8  1  0  0  0  0
 11  2  1  0  0  0  0
 12 31  1  6  0  0  0
 12 11  1  0  0  0  0
 13  3  1  6  0  0  0
 13  2  1  0  0  0  0
 14 12  1  0  0  0  0
 15 14  1  6  0  0  0
 15 13  1  0  0  0  0
 16  1  1  0  0  0  0
 17 16  1  0  0  0  0
 18 19  1  0  0  0  0
 18 17  1  0  0  0  0
 20 21  1  0  0  0  0
 20 26  1  1  0  0  0
 21 22  1  0  0  0  0
 22 29  1  6  0  0  0
 23 25  1  0  0  0  0
 23 24  1  0  0  0  0
 24 19  1  0  0  0  0
 24 22  1  0  0  0  0
 25 20  1  0  0  0  0
 26 27  1  1  0  0  0
 26 28  1  0  0  0  0
 29 30  1  0  0  0  0
 32 31  1  0  0  0  0
 33 32  1  0  0  0  0
 34 33  1  0  0  0  0
M  END
>  <MODEL>
4

>  <REMARK>
 VINA RESULT:      -6.4      3.279      8.000
  Name = 
  10 active torsions:
  status: ('A' for Active; 'I' for Inactive)
    1  A    between atoms: C_1  and  C_8
    2  A    between atoms: C_3  and  C_13
    3  A    between atoms: C_4  and  C_16
    4  A    between atoms: C_6  and  N_28
    5  A    between atoms: C_6  and  C_30
    6  A    between atoms: C_7  and  C_11
    7  A    between atoms: C_8  and  C_18
    8  A    between atoms: C_13  and  S_27
    9  A    between atoms: C_18  and  C_30
   10  A    between atoms: C_25  and  S_27
                            x       y       z     vdW  Elec       q    Type
                         _______ _______ _______ _____ _____    ______ ____

>  <TORSDO>
F 10

$$$$
=
 OpenBabel11052420213D

 34 37  0  0  1  0  0  0  0  0999 V2000
  187.9660  177.1040  143.2360 C   0  0  1  0  0  0  0  0  0  0  0  0
  186.3190  177.9380  146.4900 C   0  0  0  0  0  2  0  0  0  0  0  0
  185.4120  177.6060  144.3370 C   0  0  0  0  0  2  0  0  0  0  0  0
  187.8110  175.7420  143.5120 O   0  0  0  0  0  1  0  0  0  0  0  0
  186.9960  177.5790  140.9140 C   0  0  0  0  0  3  0  0  0  0  0  0
  184.6630  178.1800  140.6680 C   0  0  0  0  0  3  0  0  0  0  0  0
  185.9120  177.9160  140.0980 C   0  0  0  0  0  3  0  0  0  0  0  0
  185.5840  177.7720  142.8670 C   0  0  0  0  0  0  0  0  0  0  0  0
  186.8450  177.5240  142.3110 C   0  0  0  0  0  0  0  0  0  0  0  0
  184.4960  178.0990  142.0530 C   0  0  0  0  0  3  0  0  0  0  0  0
  186.8890  176.5660  146.8320 C   0  0  0  0  0  2  0  0  0  0  0  0
  188.4070  176.5740  146.6830 C   0  0  2  0  0  3  0  0  0  0  0  0
  186.5070  178.2550  145.0690 N   0  0  2  0  0  0  0  0  0  0  0  0
  188.9150  177.5780  145.6420 C   0  0  0  0  0  2  0  0  0  0  0  0
  187.8760  177.9300  144.5570 C   0  0  1  0  0  3  0  0  0  0  0  0
  189.3280  177.3480  142.5600 C   0  0  0  0  0  2  0  0  0  0  0  0
  190.4770  176.6000  143.2280 C   0  0  0  0  0  2  0  0  0  0  0  0
  190.9060  175.4150  142.3770 C   0  0  0  0  0  2  0  0  0  0  0  0
  192.3070  174.9500  142.7510 C   0  0  0  0  0  2  0  0  0  0  0  0
  194.4990  173.0250  145.3980 C   0  0  1  0  0  3  0  0  0  0  0  0
  194.4270  174.5220  145.7160 C   0  0  0  0  0  2  0  0  0  0  0  0
  193.8110  175.3060  144.5510 C   0  0  1  0  0  3  0  0  0  0  0  0
  192.1540  173.4700  144.5810 C   0  0  0  0  0  2  0  0  0  0  0  0
  192.4450  174.8630  144.2000 N   0  0  0  0  0  0  0  0  0  0  0  0
  193.3780  172.5610  144.4560 C   0  0  0  0  0  2  0  0  0  0  0  0
  195.8840  172.6530  144.8670 C   0  0  1  0  0  3  0  0  0  0  0  0
  196.8140  172.2640  146.0020 C   0  0  0  0  0  1  0  0  0  0  0  0
  195.8040  171.6100  143.9390 O   0  0  0  0  0  1  0  0  0  0  0  0
  193.8430  176.8060  144.8320 C   0  0  0  0  0  2  0  0  0  0  0  0
  194.5610  177.1280  146.1330 C   0  0  0  0  0  1  0  0  0  0  0  0
  189.0180  174.9030  146.3160 S   0  0  0  0  0  0  0  0  0  0  0  0
  190.1830  174.9220  147.7150 C   0  0  0  0  0  2  0  0  0  0  0  0
  191.3960  175.7800  147.3950 C   0  0  0  0  0  2  0  0  0  0  0  0
  191.5660  176.8670  148.4390 C   0  0  0  0  0  1  0  0  0  0  0  0
  1  4  1  1  0  0  0
  1 15  1  0  0  0  0
  2 11  1  0  0  0  0
  5  9  1  0  0  0  0
  6 10  2  0  0  0  0
  7  6  1  0  0  0  0
  7  5  2  0  0  0  0
  8  3  1  0  0  0  0
  9  8  2  0  0  0  0
  9  1  1  0  0  0  0
 10  8  1  0  0  0  0
 12 31  1  6  0  0  0
 12 11  1  0  0  0  0
 13  3  1  6  0  0  0
 13  2  1  0  0  0  0
 14 12  1  0  0  0  0
 15 13  1  0  0  0  0
 15 14  1  1  0  0  0
 16 17  1  0  0  0  0
 16  1  1  0  0  0  0
 18 19  1  0  0  0  0
 18 17  1  0  0  0  0
 19 24  1  0  0  0  0
 20 26  1  6  0  0  0
 20 21  1  0  0  0  0
 22 29  1  1  0  0  0
 22 21  1  0  0  0  0
 24 22  1  0  0  0  0
 24 23  1  0  0  0  0
 25 23  1  0  0  0  0
 25 20  1  0  0  0  0
 26 27  1  1  0  0  0
 28 26  1  0  0  0  0
 29 30  1  0  0  0  0
 31 32  1  0  0  0  0
 33 32  1  0  0  0  0
 33 34  1  0  0  0  0
M  END
>  <MODEL>
5

>  <REMARK>
 VINA RESULT:      -6.4      2.314      7.935
  Name = 
  10 active torsions:
  status: ('A' for Active; 'I' for Inactive)
    1  A    between atoms: C_1  and  C_8
    2  A    between atoms: C_3  and  C_13
    3  A    between atoms: C_4  and  C_16
    4  A    between atoms: C_6  and  N_28
    5  A    between atoms: C_6  and  C_30
    6  A    between atoms: C_7  and  C_11
    7  A    between atoms: C_8  and  C_18
    8  A    between atoms: C_13  and  S_27
    9  A    between atoms: C_18  and  C_30
   10  A    between atoms: C_25  and  S_27
                            x       y       z     vdW  Elec       q    Type
                         _______ _______ _______ _____ _____    ______ ____

>  <TORSDO>
F 10

$$$$
=
 OpenBabel11052420213D

 34 37  0  0  1  0  0  0  0  0999 V2000
  191.7040  173.9700  143.8120 C   0  0  1  0  0  0  0  0  0  0  0  0
  193.8930  171.0350  143.0480 C   0  0  0  0  0  2  0  0  0  0  0  0
  192.0120  171.8990  141.9150 C   0  0  0  0  0  2  0  0  0  0  0  0
  192.5420  174.7880  143.0470 O   0  0  0  0  0  1  0  0  0  0  0  0
  189.2960  174.2820  142.9970 C   0  0  0  0  0  3  0  0  0  0  0  0
  188.4190  172.8820  141.2260 C   0  0  0  0  0  3  0  0  0  0  0  0
  188.2490  173.9240  142.1420 C   0  0  0  0  0  3  0  0  0  0  0  0
  190.6800  172.5570  142.0200 C   0  0  0  0  0  0  0  0  0  0  0  0
  190.5170  173.5860  142.9560 C   0  0  0  0  0  0  0  0  0  0  0  0
  189.6380  172.2030  141.1590 C   0  0  0  0  0  3  0  0  0  0  0  0
  194.9140  172.1600  142.9170 C   0  0  0  0  0  2  0  0  0  0  0  0
  195.0320  172.9200  144.2340 C   0  0  2  0  0  3  0  0  0  0  0  0
  192.5380  171.5630  143.2440 N   0  0  2  0  0  0  0  0  0  0  0  0
  193.7490  172.8980  145.0710 C   0  0  0  0  0  2  0  0  0  0  0  0
  192.4670  172.6790  144.2410 C   0  0  1  0  0  3  0  0  0  0  0  0
  191.2290  174.7340  145.0620 C   0  0  0  0  0  2  0  0  0  0  0  0
  191.1190  176.2400  144.8460 C   0  0  0  0  0  2  0  0  0  0  0  0
  190.5450  176.9140  146.0810 C   0  0  0  0  0  2  0  0  0  0  0  0
  189.2630  177.6670  145.7480 C   0  0  0  0  0  2  0  0  0  0  0  0
  185.4250  177.0250  146.3590 C   0  0  1  0  0  3  0  0  0  0  0  0
  185.7630  177.0080  144.8640 C   0  0  0  0  0  2  0  0  0  0  0  0
  187.1840  177.5230  144.6130 C   0  0  1  0  0  3  0  0  0  0  0  0
  187.7400  176.0340  146.5090 C   0  0  0  0  0  2  0  0  0  0  0  0
  188.2260  176.7400  145.3100 N   0  0  0  0  0  0  0  0  0  0  0  0
  186.6580  176.8200  147.2510 C   0  0  0  0  0  2  0  0  0  0  0  0
  184.6590  178.2970  146.7230 C   0  0  1  0  0  3  0  0  0  0  0  0
  185.5920  179.3480  147.2970 C   0  0  0  0  0  1  0  0  0  0  0  0
  183.9870  178.8150  145.6120 O   0  0  0  0  0  1  0  0  0  0  0  0
  187.4730  177.6050  143.1160 C   0  0  0  0  0  2  0  0  0  0  0  0
  186.2960  177.1280  142.2800 C   0  0  0  0  0  1  0  0  0  0  0  0
  195.5760  174.6270  143.9350 S   0  0  0  0  0  0  0  0  0  0  0  0
  194.9610  175.2030  145.5490 C   0  0  0  0  0  2  0  0  0  0  0  0
  194.7620  176.7100  145.5430 C   0  0  0  0  0  2  0  0  0  0  0  0
  194.1660  177.1700  146.8610 C   0  0  0  0  0  1  0  0  0  0  0  0
  1  4  1  6  0  0  0
  1 15  1  0  0  0  0
  1 16  1  0  0  0  0
  2 13  1  0  0  0  0
  3  8  1  0  0  0  0
  6  7  1  0  0  0  0
  7  5  2  0  0  0  0
  8  9  2  0  0  0  0
  9  5  1  0  0  0  0
  9  1  1  0  0  0  0
 10  6  2  0  0  0  0
 10  8  1  0  0  0  0
 11  2  1  0  0  0  0
 11 12  1  0  0  0  0
 12 31  1  6  0  0  0
 12 14  1  0  0  0  0
 13  3  1  6  0  0  0
 13 15  1  0  0  0  0
 15 14  1  6  0  0  0
 17 16  1  0  0  0  0
 17 18  1  0  0  0  0
 19 18  1  0  0  0  0
 20 26  1  1  0  0  0
 20 25  1  0  0  0  0
 21 20  1  0  0  0  0
 22 29  1  6  0  0  0
 22 21  1  0  0  0  0
 22 24  1  0  0  0  0
 23 25  1  0  0  0  0
 24 19  1  0  0  0  0
 24 23  1  0  0  0  0
 26 27  1  6  0  0  0
 28 26  1  0  0  0  0
 30 29  1  0  0  0  0
 31 32  1  0  0  0  0
 33 32  1  0  0  0  0
 33 34  1  0  0  0  0
M  END
>  <MODEL>
6

>  <REMARK>
 VINA RESULT:      -6.4      2.316      4.233
  Name = 
  10 active torsions:
  status: ('A' for Active; 'I' for Inactive)
    1  A    between atoms: C_1  and  C_8
    2  A    between atoms: C_3  and  C_13
    3  A    between atoms: C_4  and  C_16
    4  A    between atoms: C_6  and  N_28
    5  A    between atoms: C_6  and  C_30
    6  A    between atoms: C_7  and  C_11
    7  A    between atoms: C_8  and  C_18
    8  A    between atoms: C_13  and  S_27
    9  A    between atoms: C_18  and  C_30
   10  A    between atoms: C_25  and  S_27
                            x       y       z     vdW  Elec       q    Type
                         _______ _______ _______ _____ _____    ______ ____

>  <TORSDO>
F 10

$$$$
=
 OpenBabel11052420213D

 34 37  0  0  1  0  0  0  0  0999 V2000
  188.0640  176.7070  144.7790 C   0  0  1  0  0  0  0  0  0  0  0  0
  186.1210  177.8840  147.7510 C   0  0  0  0  0  2  0  0  0  0  0  0
  188.4470  177.7400  147.3810 C   0  0  0  0  0  2  0  0  0  0  0  0
  188.0630  178.0090  144.2680 O   0  0  0  0  0  1  0  0  0  0  0  0
  190.4790  175.8530  144.8240 C   0  0  0  0  0  3  0  0  0  0  0  0
  191.8630  176.2180  146.7770 C   0  0  0  0  0  3  0  0  0  0  0  0
  191.7050  175.7170  145.4820 C   0  0  0  0  0  3  0  0  0  0  0  0
  189.5710  176.9900  146.7550 C   0  0  0  0  0  0  0  0  0  0  0  0
  189.3930  176.4760  145.4660 C   0  0  0  0  0  0  0  0  0  0  0  0
  190.7990  176.8630  147.4120 C   0  0  0  0  0  3  0  0  0  0  0  0
  185.6780  178.9210  146.7240 C   0  0  0  0  0  2  0  0  0  0  0  0
  184.9930  178.2370  145.5460 C   0  0  2  0  0  3  0  0  0  0  0  0
  187.1790  177.0200  147.2150 N   0  0  2  0  0  0  0  0  0  0  0  0
  185.4880  176.8080  145.2960 C   0  0  0  0  0  2  0  0  0  0  0  0
  186.9140  176.5410  145.8200 C   0  0  1  0  0  3  0  0  0  0  0  0
  187.8790  175.6960  143.6320 C   0  0  0  0  0  2  0  0  0  0  0  0
  187.8720  176.3420  142.2510 C   0  0  0  0  0  2  0  0  0  0  0  0
  188.1820  175.3100  141.1800 C   0  0  0  0  0  2  0  0  0  0  0  0
  189.4940  174.5950  141.4700 C   0  0  0  0  0  2  0  0  0  0  0  0
  190.4260  171.1370  139.8290 C   0  0  1  0  0  3  0  0  0  0  0  0
  190.6700  171.1210  141.3420 C   0  0  0  0  0  2  0  0  0  0  0  0
  190.5720  172.5320  141.9330 C   0  0  1  0  0  3  0  0  0  0  0  0
  188.5370  172.6540  140.5310 C   0  0  0  0  0  2  0  0  0  0  0  0
  189.2600  173.1750  141.7040 N   0  0  0  0  0  0  0  0  0  0  0  0
  189.4770  172.2620  139.3910 C   0  0  0  0  0  2  0  0  0  0  0  0
  191.7520  171.1760  139.0700 C   0  0  1  0  0  3  0  0  0  0  0  0
  191.7000  170.2870  137.8400 C   0  0  0  0  0  1  0  0  0  0  0  0
  192.0800  172.4830  138.6980 O   0  0  0  0  0  1  0  0  0  0  0  0
  190.9240  172.5220  143.4190 C   0  0  0  0  0  2  0  0  0  0  0  0
  189.7010  172.2930  144.2930 C   0  0  0  0  0  1  0  0  0  0  0  0
  185.1570  179.2460  144.0440 S   0  0  0  0  0  0  0  0  0  0  0  0
  184.8060  177.8360  142.9470 C   0  0  0  0  0  2  0  0  0  0  0  0
  184.0850  178.2970  141.6910 C   0  0  0  0  0  2  0  0  0  0  0  0
  185.0230  178.2610  140.4990 C   0  0  0  0  0  1  0  0  0  0  0  0
  1  4  1  6  0  0  0
  1  9  1  0  0  0  0
  1 15  1  0  0  0  0
  5  9  2  0  0  0  0
  5  7  1  0  0  0  0
  6 10  1  0  0  0  0
  7  6  2  0  0  0  0
  8  3  1  0  0  0  0
  8 10  2  0  0  0  0
  9  8  1  0  0  0  0
 11  2  1  0  0  0  0
 12 31  1  6  0  0  0
 12 11  1  0  0  0  0
 13  3  1  6  0  0  0
 13  2  1  0  0  0  0
 14 12  1  0  0  0  0
 15 14  1  6  0  0  0
 15 13  1  0  0  0  0
 16  1  1  0  0  0  0
 17 16  1  0  0  0  0
 18 19  1  0  0  0  0
 18 17  1  0  0  0  0
 19 24  1  0  0  0  0
 20 26  1  6  0  0  0
 20 21  1  0  0  0  0
 21 22  1  0  0  0  0
 22 29  1  1  0  0  0
 23 24  1  0  0  0  0
 24 22  1  0  0  0  0
 25 20  1  0  0  0  0
 25 23  1  0  0  0  0
 26 27  1  6  0  0  0
 28 26  1  0  0  0  0
 29 30  1  0  0  0  0
 32 31  1  0  0  0  0
 33 32  1  0  0  0  0
 34 33  1  0  0  0  0
M  END
>  <MODEL>
7

>  <REMARK>
 VINA RESULT:      -6.3      3.857      7.977
  Name = 
  10 active torsions:
  status: ('A' for Active; 'I' for Inactive)
    1  A    between atoms: C_1  and  C_8
    2  A    between atoms: C_3  and  C_13
    3  A    between atoms: C_4  and  C_16
    4  A    between atoms: C_6  and  N_28
    5  A    between atoms: C_6  and  C_30
    6  A    between atoms: C_7  and  C_11
    7  A    between atoms: C_8  and  C_18
    8  A    between atoms: C_13  and  S_27
    9  A    between atoms: C_18  and  C_30
   10  A    between atoms: C_25  and  S_27
                            x       y       z     vdW  Elec       q    Type
                         _______ _______ _______ _____ _____    ______ ____

>  <TORSDO>
F 10

$$$$
=
 OpenBabel11052420213D

 34 37  0  0  1  0  0  0  0  0999 V2000
  192.6360  174.6930  143.0830 C   0  0  1  0  0  0  0  0  0  0  0  0
  194.3020  172.4850  145.6010 C   0  0  0  0  0  2  0  0  0  0  0  0
  192.4070  172.1260  144.2410 C   0  0  0  0  0  2  0  0  0  0  0  0
  193.4560  174.1630  142.0820 O   0  0  0  0  0  1  0  0  0  0  0  0
  190.1970  174.5050  142.3220 C   0  0  0  0  0  3  0  0  0  0  0  0
  188.9090  172.5220  142.8420 C   0  0  0  0  0  3  0  0  0  0  0  0
  189.0030  173.7810  142.2430 C   0  0  0  0  0  3  0  0  0  0  0  0
  191.1980  172.7120  143.5980 C   0  0  0  0  0  0  0  0  0  0  0  0
  191.3010  173.9830  143.0190 C   0  0  0  0  0  0  0  0  0  0  0  0
  190.0100  171.9820  143.5120 C   0  0  0  0  0  3  0  0  0  0  0  0
  195.4300  172.6140  144.5830 C   0  0  0  0  0  2  0  0  0  0  0  0
  195.8280  174.0780  144.4210 C   0  0  2  0  0  3  0  0  0  0  0  0
  193.0660  173.1070  145.1110 N   0  0  2  0  0  0  0  0  0  0  0  0
  194.6820  175.0570  144.6940 C   0  0  0  0  0  2  0  0  0  0  0  0
  193.2790  174.4510  144.4840 C   0  0  1  0  0  3  0  0  0  0  0  0
  192.4420  176.2040  142.8530 C   0  0  0  0  0  2  0  0  0  0  0  0
  191.9260  176.9420  144.0830 C   0  0  0  0  0  2  0  0  0  0  0  0
  190.8040  177.8940  143.7010 C   0  0  0  0  0  2  0  0  0  0  0  0
  189.7070  177.9000  144.7560 C   0  0  0  0  0  2  0  0  0  0  0  0
  186.2070  176.7300  146.1350 C   0  0  1  0  0  3  0  0  0  0  0  0
  186.1300  177.0840  144.6460 C   0  0  0  0  0  2  0  0  0  0  0  0
  187.4070  177.7930  144.1800 C   0  0  1  0  0  3  0  0  0  0  0  0
  188.5180  175.9850  145.4520 C   0  0  0  0  0  2  0  0  0  0  0  0
  188.6320  176.9890  144.3800 N   0  0  0  0  0  0  0  0  0  0  0  0
  187.6430  176.4640  146.6110 C   0  0  0  0  0  2  0  0  0  0  0  0
  185.5120  177.7990  146.9800 C   0  0  1  0  0  3  0  0  0  0  0  0
  186.5160  178.5600  147.8270 C   0  0  0  0  0  1  0  0  0  0  0  0
  184.7980  178.6910  146.1740 O   0  0  0  0  0  1  0  0  0  0  0  0
  187.2780  178.2380  142.7250 C   0  0  0  0  0  2  0  0  0  0  0  0
  187.4560  177.0800  141.7550 C   0  0  0  0  0  1  0  0  0  0  0  0
  196.5390  174.3630  142.7730 S   0  0  0  0  0  0  0  0  0  0  0  0
  196.2940  176.1640  142.8790 C   0  0  0  0  0  2  0  0  0  0  0  0
  196.0220  176.7520  141.5040 C   0  0  0  0  0  2  0  0  0  0  0  0
  196.2050  175.6950  140.4310 C   0  0  0  0  0  1  0  0  0  0  0  0
  1  4  1  6  0  0  0
  1 15  1  0  0  0  0
  5  9  1  0  0  0  0
  6 10  2  0  0  0  0
  7  5  2  0  0  0  0
  7  6  1  0  0  0  0
  8  3  1  0  0  0  0
  9  1  1  0  0  0  0
  9  8  2  0  0  0  0
 10  8  1  0  0  0  0
 11  2  1  0  0  0  0
 12 31  1  6  0  0  0
 12 11  1  0  0  0  0
 12 14  1  0  0  0  0
 13  3  1  6  0  0  0
 13  2  1  0  0  0  0
 15 14  1  6  0  0  0
 15 13  1  0  0  0  0
 16  1  1  0  0  0  0
 16 17  1  0  0  0  0
 18 17  1  0  0  0  0
 18 19  1  0  0  0  0
 20 25  1  0  0  0  0
 20 26  1  1  0  0  0
 21 20  1  0  0  0  0
 22 29  1  6  0  0  0
 22 24  1  0  0  0  0
 22 21  1  0  0  0  0
 23 25  1  0  0  0  0
 24 19  1  0  0  0  0
 24 23  1  0  0  0  0
 26 27  1  6  0  0  0
 28 26  1  0  0  0  0
 30 29  1  0  0  0  0
 31 32  1  0  0  0  0
 33 32  1  0  0  0  0
 34 33  1  0  0  0  0
M  END
>  <MODEL>
8

>  <REMARK>
 VINA RESULT:      -6.2      2.065      3.728
  Name = 
  10 active torsions:
  status: ('A' for Active; 'I' for Inactive)
    1  A    between atoms: C_1  and  C_8
    2  A    between atoms: C_3  and  C_13
    3  A    between atoms: C_4  and  C_16
    4  A    between atoms: C_6  and  N_28
    5  A    between atoms: C_6  and  C_30
    6  A    between atoms: C_7  and  C_11
    7  A    between atoms: C_8  and  C_18
    8  A    between atoms: C_13  and  S_27
    9  A    between atoms: C_18  and  C_30
   10  A    between atoms: C_25  and  S_27
                            x       y       z     vdW  Elec       q    Type
                         _______ _______ _______ _____ _____    ______ ____

>  <TORSDO>
F 10

$$$$
=
 OpenBabel11052420213D

 34 37  0  0  1  0  0  0  0  0999 V2000
  190.3640  176.8640  144.3530 C   0  0  1  0  0  0  0  0  0  0  0  0
  188.2220  175.5670  147.1320 C   0  0  0  0  0  2  0  0  0  0  0  0
  190.4470  176.3510  147.1310 C   0  0  0  0  0  2  0  0  0  0  0  0
  189.9070  178.1600  144.6120 O   0  0  0  0  0  1  0  0  0  0  0  0
  192.9250  176.8920  144.3380 C   0  0  0  0  0  3  0  0  0  0  0  0
  194.1590  176.5120  146.3880 C   0  0  0  0  0  3  0  0  0  0  0  0
  194.1430  176.7870  145.0170 C   0  0  0  0  0  3  0  0  0  0  0  0
  191.7410  176.4450  146.3990 C   0  0  0  0  0  0  0  0  0  0  0  0
  191.7110  176.7010  145.0230 C   0  0  0  0  0  0  0  0  0  0  0  0
  192.9570  176.3490  147.0810 C   0  0  0  0  0  3  0  0  0  0  0  0
  187.4250  176.8090  146.7490 C   0  0  0  0  0  2  0  0  0  0  0  0
  186.9790  176.7210  145.2930 C   0  0  2  0  0  3  0  0  0  0  0  0
  189.4940  175.5030  146.4040 N   0  0  2  0  0  0  0  0  0  0  0  0
  187.9210  175.8920  144.4140 C   0  0  0  0  0  2  0  0  0  0  0  0
  189.3680  175.8190  144.9450 C   0  0  1  0  0  3  0  0  0  0  0  0
  190.4990  176.6520  142.8340 C   0  0  0  0  0  2  0  0  0  0  0  0
  190.3580  175.1940  142.4100 C   0  0  0  0  0  2  0  0  0  0  0  0
  191.6480  174.6950  141.7820 C   0  0  0  0  0  2  0  0  0  0  0  0
  191.6100  173.1870  141.5750 C   0  0  0  0  0  2  0  0  0  0  0  0
  195.4530  173.9800  141.9310 C   0  0  1  0  0  3  0  0  0  0  0  0
  194.8580  173.4970  143.2580 C   0  0  0  0  0  2  0  0  0  0  0  0
  193.3260  173.4520  143.1930 C   0  0  1  0  0  3  0  0  0  0  0  0
  193.7480  172.3630  141.0120 C   0  0  0  0  0  2  0  0  0  0  0  0
  192.8090  172.5660  142.1290 N   0  0  0  0  0  0  0  0  0  0  0  0
  194.5860  173.6090  140.7190 C   0  0  0  0  0  2  0  0  0  0  0  0
  195.7490  175.4790  141.9870 C   0  0  1  0  0  3  0  0  0  0  0  0
  197.1630  175.7710  141.5200 C   0  0  0  0  0  1  0  0  0  0  0  0
  194.8350  176.2020  141.2150 O   0  0  0  0  0  1  0  0  0  0  0  0
  192.7390  173.0750  144.5510 C   0  0  0  0  0  2  0  0  0  0  0  0
  193.8080  172.9670  145.6260 C   0  0  0  0  0  1  0  0  0  0  0  0
  186.7490  178.3840  144.5980 S   0  0  0  0  0  0  0  0  0  0  0  0
  185.7010  178.9190  145.9880 C   0  0  0  0  0  2  0  0  0  0  0  0
  184.2290  178.8140  145.6240 C   0  0  0  0  0  2  0  0  0  0  0  0
  184.0420  178.9670  144.1260 C   0  0  0  0  0  1  0  0  0  0  0  0
  1  4  1  1  0  0  0
  1 15  1  0  0  0  0
  1  9  1  0  0  0  0
  5  7  2  0  0  0  0
  5  9  1  0  0  0  0
  6 10  2  0  0  0  0
  7  6  1  0  0  0  0
  8 10  1  0  0  0  0
  8  3  1  0  0  0  0
  9  8  2  0  0  0  0
 11  2  1  0  0  0  0
 12 31  1  6  0  0  0
 12 11  1  0  0  0  0
 13  3  1  1  0  0  0
 13  2  1  0  0  0  0
 14 12  1  0  0  0  0
 15 14  1  1  0  0  0
 15 13  1  0  0  0  0
 16  1  1  0  0  0  0
 17 16  1  0  0  0  0
 18 17  1  0  0  0  0
 19 18  1  0  0  0  0
 19 24  1  0  0  0  0
 20 26  1  1  0  0  0
 20 21  1  0  0  0  0
 22 21  1  0  0  0  0
 22 29  1  1  0  0  0
 23 24  1  0  0  0  0
 24 22  1  0  0  0  0
 25 23  1  0  0  0  0
 25 20  1  0  0  0  0
 26 27  1  6  0  0  0
 28 26  1  0  0  0  0
 29 30  1  0  0  0  0
 31 32  1  0  0  0  0
 33 32  1  0  0  0  0
 34 33  1  0  0  0  0
M  END
>  <MODEL>
9

>  <REMARK>
 VINA RESULT:      -6.2      3.103      7.910
  Name = 
  10 active torsions:
  status: ('A' for Active; 'I' for Inactive)
    1  A    between atoms: C_1  and  C_8
    2  A    between atoms: C_3  and  C_13
    3  A    between atoms: C_4  and  C_16
    4  A    between atoms: C_6  and  N_28
    5  A    between atoms: C_6  and  C_30
    6  A    between atoms: C_7  and  C_11
    7  A    between atoms: C_8  and  C_18
    8  A    between atoms: C_13  and  S_27
    9  A    between atoms: C_18  and  C_30
   10  A    between atoms: C_25  and  S_27
                            x       y       z     vdW  Elec       q    Type
                         _______ _______ _______ _____ _____    ______ ____

>  <TORSDO>
F 10

$$$$
