=
 OpenBabel11052417473D

 31 35  0  0  1  0  0  0  0  0999 V2000
  184.4610  178.4760  146.4480 C   0  0  0  0  0  0  0  0  0  0  0  0
  186.9700  177.3990  143.8530 C   0  0  0  0  0  0  0  0  0  0  0  0
  186.3460  177.5420  142.5780 C   0  0  0  0  0  0  0  0  0  0  0  0
  190.6960  176.2940  147.4050 O   0  0  0  0  0  0  0  0  0  0  0  0
  191.1460  176.0410  146.2540 C   0  0  0  0  0  0  0  0  0  0  0  0
  184.3040  177.8150  141.0990 C   0  0  1  0  0  3  0  0  0  0  0  0
  186.3510  177.7130  145.1010 C   0  0  0  0  0  0  0  0  0  0  0  0
  185.2030  178.3000  147.6140 C   0  0  0  0  0  3  0  0  0  0  0  0
  184.9800  178.1740  142.4150 C   0  0  0  0  0  2  0  0  0  0  0  0
  188.9790  176.7490  145.0940 C   0  0  0  0  0  0  0  0  0  0  0  0
  183.1870  178.9320  146.5170 F   0  0  0  0  0  0  0  0  0  0  0  0
  188.3370  176.7140  141.5380 N   0  0  0  0  0  0  0  0  0  0  0  0
  183.0340  178.6240  140.9490 C   0  0  0  0  0  1  0  0  0  0  0  0
  188.3580  177.0650  146.2590 N   0  0  0  0  0  0  0  0  0  0  0  0
  188.3000  176.9060  143.8790 C   0  0  0  0  0  0  0  0  0  0  0  0
  190.3260  176.2540  145.0970 N   0  0  0  0  0  2  0  0  0  0  0  0
  185.0300  178.1840  145.2060 C   0  0  0  0  0  3  0  0  0  0  0  0
  185.2510  178.1380  139.9590 C   0  0  0  0  0  2  0  0  0  0  0  0
  187.0890  177.5330  146.2990 C   0  0  0  0  0  0  0  0  0  0  0  0
  186.5130  177.8280  147.5390 C   0  0  0  0  0  3  0  0  0  0  0  0
  188.9290  176.5830  142.7200 N   0  0  0  0  0  0  0  0  0  0  0  0
  187.0770  177.1930  141.4180 C   0  0  0  0  0  0  0  0  0  0  0  0
  186.4650  177.2240  140.0440 C   0  0  0  0  0  2  0  0  0  0  0  0
  195.1750  174.6250  145.8020 C   0  0  0  0  0  0  0  0  0  0  0  0
  193.6030  176.3420  146.4500 C   0  0  0  0  0  3  0  0  0  0  0  0
  191.7670  173.3740  145.1940 O   0  0  0  0  0  1  0  0  0  0  0  0
  196.8240  174.0670  145.6260 Cl  0  0  0  0  0  0  0  0  0  0  0  0
  194.9190  175.8990  146.3100 C   0  0  0  0  0  3  0  0  0  0  0  0
  192.7930  174.2320  145.5720 C   0  0  0  0  0  0  0  0  0  0  0  0
  192.5240  175.5210  146.0850 C   0  0  0  0  0  0  0  0  0  0  0  0
  194.1140  173.7950  145.4340 C   0  0  0  0  0  3  0  0  0  0  0  0
  1 11  1  0  0  0  0
  1  8  1  0  0  0  0
  2 15  1  0  0  0  0
  2  7  1  0  0  0  0
  3  2  2  0  0  0  0
  5  4  2  0  0  0  0
  6 13  1  6  0  0  0
  6  9  1  0  0  0  0
  7 17  1  0  0  0  0
  7 19  2  0  0  0  0
  9  3  1  0  0  0  0
 10 16  1  0  0  0  0
 10 14  2  0  0  0  0
 12 21  1  0  0  0  0
 14 19  1  0  0  0  0
 15 10  1  0  0  0  0
 16  5  1  0  0  0  0
 17  1  2  0  0  0  0
 18 23  1  0  0  0  0
 18  6  1  0  0  0  0
 19 20  1  0  0  0  0
 20  8  2  0  0  0  0
 21 15  2  0  0  0  0
 22 12  2  0  0  0  0
 22  3  1  0  0  0  0
 23 22  1  0  0  0  0
 24 28  1  0  0  0  0
 26 29  1  0  0  0  0
 27 24  1  0  0  0  0
 28 25  2  0  0  0  0
 29 30  2  0  0  0  0
 30  5  1  0  0  0  0
 30 25  1  0  0  0  0
 31 29  1  0  0  0  0
 31 24  2  0  0  0  0
M  END
>  <MODEL>
1

>  <REMARK>
 VINA RESULT:     -10.0      0.000      0.000
  Name = 
  1 active torsions:
  status: ('A' for Active; 'I' for Inactive)
    1  A    between atoms: C_9  and  C_22
                            x       y       z     vdW  Elec       q    Type
                         _______ _______ _______ _____ _____    ______ ____

>  <TORSDO>
F 1

$$$$
=
 OpenBabel11052417473D

 31 35  0  0  1  0  0  0  0  0999 V2000
  190.9700  176.7870  147.4260 C   0  0  0  0  0  0  0  0  0  0  0  0
  188.3950  176.4540  144.6980 C   0  0  0  0  0  0  0  0  0  0  0  0
  187.2480  177.1990  145.1070 C   0  0  0  0  0  0  0  0  0  0  0  0
  191.4650  173.4220  141.6830 O   0  0  0  0  0  0  0  0  0  0  0  0
  190.3590  173.5840  141.0990 C   0  0  0  0  0  0  0  0  0  0  0  0
  185.8480  178.3740  146.8650 C   0  0  1  0  0  3  0  0  0  0  0  0
  189.5990  176.3350  145.4550 C   0  0  0  0  0  0  0  0  0  0  0  0
  192.0150  176.0360  146.8880 C   0  0  0  0  0  3  0  0  0  0  0  0
  187.2470  178.0560  146.3550 C   0  0  0  0  0  2  0  0  0  0  0  0
  189.4190  175.0420  142.9790 C   0  0  0  0  0  0  0  0  0  0  0  0
  191.1130  177.3760  148.6370 F   0  0  0  0  0  0  0  0  0  0  0  0
  186.1350  176.5490  143.0890 N   0  0  0  0  0  0  0  0  0  0  0  0
  185.9410  179.3690  148.0010 C   0  0  0  0  0  1  0  0  0  0  0  0
  190.5490  174.9580  143.7250 N   0  0  0  0  0  0  0  0  0  0  0  0
  188.3280  175.7840  143.4500 C   0  0  0  0  0  0  0  0  0  0  0  0
  189.3320  174.3770  141.7110 N   0  0  0  0  0  2  0  0  0  0  0  0
  189.7760  176.9320  146.7160 C   0  0  0  0  0  3  0  0  0  0  0  0
  185.0380  178.9700  145.7300 C   0  0  0  0  0  2  0  0  0  0  0  0
  190.6700  175.5690  144.9270 C   0  0  0  0  0  0  0  0  0  0  0  0
  191.8630  175.4280  145.6420 C   0  0  0  0  0  3  0  0  0  0  0  0
  187.2010  175.8580  142.6970 N   0  0  0  0  0  0  0  0  0  0  0  0
  186.1190  177.2340  144.2570 C   0  0  0  0  0  0  0  0  0  0  0  0
  184.8360  177.9150  144.6520 C   0  0  0  0  0  2  0  0  0  0  0  0
  189.6210  171.8710  137.2320 C   0  0  0  0  0  0  0  0  0  0  0  0
  189.8160  173.7910  138.6850 C   0  0  0  0  0  3  0  0  0  0  0  0
  190.4410  170.6880  140.6190 O   0  0  0  0  0  1  0  0  0  0  0  0
  189.3170  171.1930  135.6470 Cl  0  0  0  0  0  0  0  0  0  0  0  0
  189.5730  173.2520  137.4200 C   0  0  0  0  0  3  0  0  0  0  0  0
  190.1560  171.5620  139.5760 C   0  0  0  0  0  0  0  0  0  0  0  0
  190.1090  172.9600  139.7780 C   0  0  0  0  0  0  0  0  0  0  0  0
  189.9110  171.0300  138.3070 C   0  0  0  0  0  3  0  0  0  0  0  0
  1 11  1  0  0  0  0
  2  3  1  0  0  0  0
  2  7  1  0  0  0  0
  3  9  1  0  0  0  0
  5  4  2  0  0  0  0
  5 16  1  0  0  0  0
  6 13  1  1  0  0  0
  7 17  1  0  0  0  0
  8  1  1  0  0  0  0
  9  6  1  0  0  0  0
 10 15  1  0  0  0  0
 10 14  2  0  0  0  0
 12 22  1  0  0  0  0
 14 19  1  0  0  0  0
 15  2  2  0  0  0  0
 16 10  1  0  0  0  0
 17  1  2  0  0  0  0
 18  6  1  0  0  0  0
 19  7  2  0  0  0  0
 19 20  1  0  0  0  0
 20  8  2  0  0  0  0
 21 12  2  0  0  0  0
 21 15  1  0  0  0  0
 22 23  1  0  0  0  0
 22  3  2  0  0  0  0
 23 18  1  0  0  0  0
 24 28  2  0  0  0  0
 24 31  1  0  0  0  0
 25 30  2  0  0  0  0
 27 24  1  0  0  0  0
 28 25  1  0  0  0  0
 29 30  1  0  0  0  0
 29 26  1  0  0  0  0
 30  5  1  0  0  0  0
 31 29  2  0  0  0  0
M  END
>  <MODEL>
2

>  <REMARK>
 VINA RESULT:      -8.9      4.305      6.384
  Name = 
  1 active torsions:
  status: ('A' for Active; 'I' for Inactive)
    1  A    between atoms: C_9  and  C_22
                            x       y       z     vdW  Elec       q    Type
                         _______ _______ _______ _____ _____    ______ ____

>  <TORSDO>
F 1

$$$$
=
 OpenBabel11052417473D

 31 35  0  0  1  0  0  0  0  0999 V2000
  186.1620  177.1660  141.0140 C   0  0  0  0  0  0  0  0  0  0  0  0
  187.7510  176.4670  144.3570 C   0  0  0  0  0  0  0  0  0  0  0  0
  186.9090  177.0450  145.3530 C   0  0  0  0  0  0  0  0  0  0  0  0
  191.8220  173.8590  142.2720 O   0  0  0  0  0  0  0  0  0  0  0  0
  191.9600  173.8880  143.5250 C   0  0  0  0  0  0  0  0  0  0  0  0
  185.0580  178.6140  146.0890 C   0  0  1  0  0  3  0  0  0  0  0  0
  187.4940  176.5060  142.9530 C   0  0  0  0  0  0  0  0  0  0  0  0
  187.0700  176.5410  140.1610 C   0  0  0  0  0  3  0  0  0  0  0  0
  185.5680  177.6610  145.0180 C   0  0  0  0  0  2  0  0  0  0  0  0
  189.7970  175.2090  143.8750 C   0  0  0  0  0  0  0  0  0  0  0  0
  185.0730  177.7900  140.5060 F   0  0  0  0  0  0  0  0  0  0  0  0
  188.4370  176.3020  147.0410 N   0  0  0  0  0  0  0  0  0  0  0  0
  183.6460  179.0410  145.7520 C   0  0  0  0  0  1  0  0  0  0  0  0
  189.5140  175.2620  142.5500 N   0  0  0  0  0  0  0  0  0  0  0  0
  188.9280  175.8090  144.7960 C   0  0  0  0  0  0  0  0  0  0  0  0
  190.9800  174.5450  144.3420 N   0  0  0  0  0  2  0  0  0  0  0  0
  186.3750  177.1480  142.3950 C   0  0  0  0  0  3  0  0  0  0  0  0
  185.0680  177.8970  147.4260 C   0  0  0  0  0  2  0  0  0  0  0  0
  188.4100  175.8810  142.0690 C   0  0  0  0  0  0  0  0  0  0  0  0
  188.1910  175.9010  140.6870 C   0  0  0  0  0  3  0  0  0  0  0  0
  189.2240  175.7540  146.1200 N   0  0  0  0  0  0  0  0  0  0  0  0
  187.2850  176.9320  146.7120 C   0  0  0  0  0  0  0  0  0  0  0  0
  186.5070  177.5930  147.8180 C   0  0  0  0  0  2  0  0  0  0  0  0
  195.4030  172.1170  145.3810 C   0  0  0  0  0  0  0  0  0  0  0  0
  194.2630  174.0290  144.4430 C   0  0  0  0  0  3  0  0  0  0  0  0
  192.0630  171.0480  144.2630 O   0  0  0  0  0  1  0  0  0  0  0  0
  196.8160  171.4140  146.1380 Cl  0  0  0  0  0  0  0  0  0  0  0  0
  195.3910  173.4710  145.0460 C   0  0  0  0  0  3  0  0  0  0  0  0
  193.1530  171.8750  144.5110 C   0  0  0  0  0  0  0  0  0  0  0  0
  193.1310  173.2450  144.1670 C   0  0  0  0  0  0  0  0  0  0  0  0
  194.2870  171.3220  145.1140 C   0  0  0  0  0  3  0  0  0  0  0  0
  1 17  1  0  0  0  0
  2 15  2  0  0  0  0
  2  3  1  0  0  0  0
  3 22  2  0  0  0  0
  4  5  2  0  0  0  0
  5 30  1  0  0  0  0
  5 16  1  0  0  0  0
  6 13  1  6  0  0  0
  6 18  1  0  0  0  0
  7  2  1  0  0  0  0
  8 20  1  0  0  0  0
  8  1  2  0  0  0  0
  9  3  1  0  0  0  0
  9  6  1  0  0  0  0
 10 16  1  0  0  0  0
 10 15  1  0  0  0  0
 11  1  1  0  0  0  0
 14 10  2  0  0  0  0
 15 21  1  0  0  0  0
 17  7  2  0  0  0  0
 18 23  1  0  0  0  0
 19 14  1  0  0  0  0
 19  7  1  0  0  0  0
 20 19  2  0  0  0  0
 21 12  2  0  0  0  0
 22 12  1  0  0  0  0
 22 23  1  0  0  0  0
 24 27  1  0  0  0  0
 25 28  1  0  0  0  0
 26 29  1  0  0  0  0
 28 24  2  0  0  0  0
 29 31  2  0  0  0  0
 30 25  2  0  0  0  0
 30 29  1  0  0  0  0
 31 24  1  0  0  0  0
M  END
>  <MODEL>
3

>  <REMARK>
 VINA RESULT:      -8.3      2.319      4.477
  Name = 
  1 active torsions:
  status: ('A' for Active; 'I' for Inactive)
    1  A    between atoms: C_9  and  C_22
                            x       y       z     vdW  Elec       q    Type
                         _______ _______ _______ _____ _____    ______ ____

>  <TORSDO>
F 1

$$$$
=
 OpenBabel11052417473D

 31 35  0  0  1  0  0  0  0  0999 V2000
  195.7570  173.4540  145.3940 C   0  0  0  0  0  0  0  0  0  0  0  0
  192.2560  172.7910  144.1770 C   0  0  0  0  0  0  0  0  0  0  0  0
  192.2860  171.5620  143.4520 C   0  0  0  0  0  0  0  0  0  0  0  0
  190.2950  177.1690  146.3450 O   0  0  0  0  0  0  0  0  0  0  0  0
  189.3650  176.5630  145.7480 C   0  0  0  0  0  0  0  0  0  0  0  0
  193.5140  169.7130  142.2240 C   0  0  1  0  0  3  0  0  0  0  0  0
  193.3860  173.3900  144.8090 C   0  0  0  0  0  0  0  0  0  0  0  0
  195.5700  174.6520  146.0820 C   0  0  0  0  0  3  0  0  0  0  0  0
  193.5250  170.6940  143.3890 C   0  0  0  0  0  2  0  0  0  0  0  0
  190.9020  174.6690  144.9780 C   0  0  0  0  0  0  0  0  0  0  0  0
  196.9890  172.8920  145.3350 F   0  0  0  0  0  0  0  0  0  0  0  0
  189.9470  171.7980  143.0000 N   0  0  0  0  0  0  0  0  0  0  0  0
  194.6970  168.7790  142.3440 C   0  0  0  0  0  1  0  0  0  0  0  0
  191.9990  175.2030  145.5700 N   0  0  0  0  0  0  0  0  0  0  0  0
  191.0100  173.4630  144.2720 C   0  0  0  0  0  0  0  0  0  0  0  0
  189.6310  175.3290  145.0650 N   0  0  0  0  0  2  0  0  0  0  0  0
  194.6770  172.8330  144.7640 C   0  0  0  0  0  3  0  0  0  0  0  0
  192.2260  168.9140  142.2710 C   0  0  0  0  0  2  0  0  0  0  0  0
  193.2160  174.6120  145.5080 C   0  0  0  0  0  0  0  0  0  0  0  0
  194.3020  175.2290  146.1370 C   0  0  0  0  0  3  0  0  0  0  0  0
  189.9070  172.9390  143.6790 N   0  0  0  0  0  0  0  0  0  0  0  0
  191.0880  171.0810  142.8740 C   0  0  0  0  0  0  0  0  0  0  0  0
  191.0500  169.8460  142.0160 C   0  0  0  0  0  2  0  0  0  0  0  0
  185.3670  178.1270  145.8340 C   0  0  0  0  0  0  0  0  0  0  0  0
  187.1920  176.9450  146.8870 C   0  0  0  0  0  3  0  0  0  0  0  0
  188.1900  178.0060  143.4760 O   0  0  0  0  0  1  0  0  0  0  0  0
  183.7350  178.7570  145.8900 Cl  0  0  0  0  0  0  0  0  0  0  0  0
  185.8900  177.4470  146.9340 C   0  0  0  0  0  3  0  0  0  0  0  0
  187.4500  177.8060  144.6360 C   0  0  0  0  0  0  0  0  0  0  0  0
  187.9890  177.1150  145.7440 C   0  0  0  0  0  0  0  0  0  0  0  0
  186.1450  178.3050  144.6900 C   0  0  0  0  0  3  0  0  0  0  0  0
  1  8  1  0  0  0  0
  2 15  1  0  0  0  0
  2  7  1  0  0  0  0
  3  2  2  0  0  0  0
  5  4  2  0  0  0  0
  6 18  1  0  0  0  0
  6 13  1  1  0  0  0
  6  9  1  0  0  0  0
  7 19  2  0  0  0  0
  8 20  2  0  0  0  0
  9  3  1  0  0  0  0
 10 16  1  0  0  0  0
 10 14  2  0  0  0  0
 11  1  1  0  0  0  0
 12 21  1  0  0  0  0
 15 10  1  0  0  0  0
 16  5  1  0  0  0  0
 17  7  1  0  0  0  0
 17  1  2  0  0  0  0
 19 14  1  0  0  0  0
 19 20  1  0  0  0  0
 21 15  2  0  0  0  0
 22 12  2  0  0  0  0
 22  3  1  0  0  0  0
 23 18  1  0  0  0  0
 23 22  1  0  0  0  0
 24 27  1  0  0  0  0
 24 28  1  0  0  0  0
 25 28  2  0  0  0  0
 26 29  1  0  0  0  0
 29 31  1  0  0  0  0
 29 30  2  0  0  0  0
 30  5  1  0  0  0  0
 30 25  1  0  0  0  0
 31 24  2  0  0  0  0
M  END
>  <MODEL>
4

>  <REMARK>
 VINA RESULT:      -8.2      4.742      8.861
  Name = 
  1 active torsions:
  status: ('A' for Active; 'I' for Inactive)
    1  A    between atoms: C_9  and  C_22
                            x       y       z     vdW  Elec       q    Type
                         _______ _______ _______ _____ _____    ______ ____

>  <TORSDO>
F 1

$$$$
=
 OpenBabel11052417473D

 31 35  0  0  1  0  0  0  0  0999 V2000
  186.2230  178.8050  143.3480 C   0  0  0  0  0  0  0  0  0  0  0  0
  188.9130  176.1710  143.4400 C   0  0  0  0  0  0  0  0  0  0  0  0
  189.5420  176.2550  144.7190 C   0  0  0  0  0  0  0  0  0  0  0  0
  187.8910  174.4540  138.5700 O   0  0  0  0  0  0  0  0  0  0  0  0
  188.8490  173.7830  139.0420 C   0  0  0  0  0  0  0  0  0  0  0  0
  190.0670  177.4660  146.8840 C   0  0  1  0  0  3  0  0  0  0  0  0
  187.8320  176.9980  143.0110 C   0  0  0  0  0  0  0  0  0  0  0  0
  185.6990  178.5950  142.0730 C   0  0  0  0  0  3  0  0  0  0  0  0
  189.0280  177.1670  145.8120 C   0  0  0  0  0  2  0  0  0  0  0  0
  188.8250  175.0480  141.2650 C   0  0  0  0  0  0  0  0  0  0  0  0
  185.7090  179.7760  144.1410 F   0  0  0  0  0  0  0  0  0  0  0  0
  191.0190  174.4810  144.0820 N   0  0  0  0  0  0  0  0  0  0  0  0
  189.4170  178.2350  148.0130 C   0  0  0  0  0  1  0  0  0  0  0  0
  187.7950  175.8500  140.8970 N   0  0  0  0  0  0  0  0  0  0  0  0
  189.4010  175.1950  142.5340 C   0  0  0  0  0  0  0  0  0  0  0  0
  189.3320  174.0510  140.3660 N   0  0  0  0  0  2  0  0  0  0  0  0
  187.2790  178.0150  143.8090 C   0  0  0  0  0  3  0  0  0  0  0  0
  190.6170  176.1550  147.4100 C   0  0  0  0  0  2  0  0  0  0  0  0
  187.2900  176.8030  141.7140 C   0  0  0  0  0  0  0  0  0  0  0  0
  186.2330  177.5970  141.2590 C   0  0  0  0  0  3  0  0  0  0  0  0
  190.4350  174.3900  142.8910 N   0  0  0  0  0  0  0  0  0  0  0  0
  190.6060  175.3700  145.0140 C   0  0  0  0  0  0  0  0  0  0  0  0
  191.3850  175.4530  146.2990 C   0  0  0  0  0  2  0  0  0  0  0  0
  190.6510  170.6120  136.7760 C   0  0  0  0  0  0  0  0  0  0  0  0
  189.3160  171.3780  138.6380 C   0  0  0  0  0  3  0  0  0  0  0  0
  190.4560  174.2850  136.6360 O   0  0  0  0  0  1  0  0  0  0  0  0
  191.3770  169.3050  135.8660 Cl  0  0  0  0  0  0  0  0  0  0  0  0
  189.8930  170.3340  137.9130 C   0  0  0  0  0  3  0  0  0  0  0  0
  190.2530  172.9840  137.0830 C   0  0  0  0  0  0  0  0  0  0  0  0
  189.4840  172.7130  138.2370 C   0  0  0  0  0  0  0  0  0  0  0  0
  190.8290  171.9330  136.3630 C   0  0  0  0  0  3  0  0  0  0  0  0
  1 17  1  0  0  0  0
  1 11  1  0  0  0  0
  2  3  1  0  0  0  0
  3 22  2  0  0  0  0
  3  9  1  0  0  0  0
  4  5  2  0  0  0  0
  5 16  1  0  0  0  0
  6 18  1  0  0  0  0
  6 13  1  1  0  0  0
  7  2  1  0  0  0  0
  7 17  2  0  0  0  0
  8  1  2  0  0  0  0
  9  6  1  0  0  0  0
 10 15  1  0  0  0  0
 12 22  1  0  0  0  0
 14 10  2  0  0  0  0
 14 19  1  0  0  0  0
 15 21  1  0  0  0  0
 15  2  2  0  0  0  0
 16 10  1  0  0  0  0
 19  7  1  0  0  0  0
 20 19  2  0  0  0  0
 20  8  1  0  0  0  0
 21 12  2  0  0  0  0
 22 23  1  0  0  0  0
 23 18  1  0  0  0  0
 24 28  1  0  0  0  0
 26 29  1  0  0  0  0
 27 24  1  0  0  0  0
 28 25  2  0  0  0  0
 29 30  2  0  0  0  0
 30 25  1  0  0  0  0
 30  5  1  0  0  0  0
 31 24  2  0  0  0  0
 31 29  1  0  0  0  0
M  END
>  <MODEL>
5

>  <REMARK>
 VINA RESULT:      -8.2      4.719      7.209
  Name = 
  1 active torsions:
  status: ('A' for Active; 'I' for Inactive)
    1  A    between atoms: C_9  and  C_22
                            x       y       z     vdW  Elec       q    Type
                         _______ _______ _______ _____ _____    ______ ____

>  <TORSDO>
F 1

$$$$
=
 OpenBabel11052417473D

 31 35  0  0  1  0  0  0  0  0999 V2000
  189.3220  175.2790  146.5720 C   0  0  0  0  0  0  0  0  0  0  0  0
  188.1380  175.8360  143.0400 C   0  0  0  0  0  0  0  0  0  0  0  0
  187.2190  176.9280  143.0700 C   0  0  0  0  0  0  0  0  0  0  0  0
  191.0670  171.9320  141.0670 O   0  0  0  0  0  0  0  0  0  0  0  0
  190.4110  172.4590  140.1280 C   0  0  0  0  0  0  0  0  0  0  0  0
  185.6600  178.5130  144.2900 C   0  0  1  0  0  3  0  0  0  0  0  0
  188.8190  175.3160  144.1810 C   0  0  0  0  0  0  0  0  0  0  0  0
  190.2040  174.2160  146.3840 C   0  0  0  0  0  3  0  0  0  0  0  0
  186.9700  177.7370  144.3250 C   0  0  0  0  0  2  0  0  0  0  0  0
  189.2850  174.1560  141.6770 C   0  0  0  0  0  0  0  0  0  0  0  0
  189.1270  175.7880  147.8120 F   0  0  0  0  0  0  0  0  0  0  0  0
  186.8960  176.6900  140.7100 N   0  0  0  0  0  0  0  0  0  0  0  0
  185.5810  179.4200  145.4990 C   0  0  0  0  0  1  0  0  0  0  0  0
  189.9180  173.6940  142.7840 N   0  0  0  0  0  0  0  0  0  0  0  0
  188.3870  175.2260  141.7850 C   0  0  0  0  0  0  0  0  0  0  0  0
  189.5260  173.5560  140.3960 N   0  0  0  0  0  2  0  0  0  0  0  0
  188.6370  175.8200  145.4810 C   0  0  0  0  0  3  0  0  0  0  0  0
  185.6200  179.3470  143.0240 C   0  0  0  0  0  2  0  0  0  0  0  0
  189.7160  174.2300  144.0100 C   0  0  0  0  0  0  0  0  0  0  0  0
  190.3990  173.6930  145.1060 C   0  0  0  0  0  3  0  0  0  0  0  0
  187.7550  175.6770  140.6700 N   0  0  0  0  0  0  0  0  0  0  0  0
  186.6130  177.3430  141.8610 C   0  0  0  0  0  0  0  0  0  0  0  0
  185.5640  178.4210  141.8180 C   0  0  0  0  0  2  0  0  0  0  0  0
  190.7500  170.9170  136.1350 C   0  0  0  0  0  0  0  0  0  0  0  0
  189.9140  170.7510  138.3960 C   0  0  0  0  0  3  0  0  0  0  0  0
  191.9430  173.8350  138.0350 O   0  0  0  0  0  1  0  0  0  0  0  0
  190.8750  170.2700  134.5130 Cl  0  0  0  0  0  0  0  0  0  0  0  0
  190.0120  170.2340  137.1030 C   0  0  0  0  0  3  0  0  0  0  0  0
  191.2920  172.6390  137.7530 C   0  0  0  0  0  0  0  0  0  0  0  0
  190.5480  171.9550  138.7410 C   0  0  0  0  0  0  0  0  0  0  0  0
  191.3870  172.1140  136.4610 C   0  0  0  0  0  3  0  0  0  0  0  0
  1 11  1  0  0  0  0
  2  3  1  0  0  0  0
  2  7  1  0  0  0  0
  3  9  1  0  0  0  0
  5 16  1  0  0  0  0
  5  4  2  0  0  0  0
  6  9  1  0  0  0  0
  6 13  1  1  0  0  0
  7 17  1  0  0  0  0
  8  1  1  0  0  0  0
 10 15  1  0  0  0  0
 10 14  2  0  0  0  0
 12 22  1  0  0  0  0
 14 19  1  0  0  0  0
 15  2  2  0  0  0  0
 16 10  1  0  0  0  0
 17  1  2  0  0  0  0
 18  6  1  0  0  0  0
 19  7  2  0  0  0  0
 19 20  1  0  0  0  0
 20  8  2  0  0  0  0
 21 12  2  0  0  0  0
 21 15  1  0  0  0  0
 22  3  2  0  0  0  0
 23 22  1  0  0  0  0
 23 18  1  0  0  0  0
 24 31  2  0  0  0  0
 24 28  1  0  0  0  0
 25 30  1  0  0  0  0
 27 24  1  0  0  0  0
 28 25  2  0  0  0  0
 29 26  1  0  0  0  0
 29 30  2  0  0  0  0
 30  5  1  0  0  0  0
 31 29  1  0  0  0  0
M  END
>  <MODEL>
6

>  <REMARK>
 VINA RESULT:      -8.1      4.976      6.520
  Name = 
  1 active torsions:
  status: ('A' for Active; 'I' for Inactive)
    1  A    between atoms: C_9  and  C_22
                            x       y       z     vdW  Elec       q    Type
                         _______ _______ _______ _____ _____    ______ ____

>  <TORSDO>
F 1

$$$$
=
 OpenBabel11052417473D

 31 35  0  0  1  0  0  0  0  0999 V2000
  188.3350  174.8100  140.3780 C   0  0  0  0  0  0  0  0  0  0  0  0
  189.6440  174.6920  143.9080 C   0  0  0  0  0  0  0  0  0  0  0  0
  188.9250  175.6710  144.6570 C   0  0  0  0  0  0  0  0  0  0  0  0
  193.0910  170.8500  142.8770 O   0  0  0  0  0  0  0  0  0  0  0  0
  193.2000  171.1750  144.0900 C   0  0  0  0  0  0  0  0  0  0  0  0
  187.4470  177.7250  144.8260 C   0  0  1  0  0  3  0  0  0  0  0  0
  189.4380  174.4170  142.5230 C   0  0  0  0  0  0  0  0  0  0  0  0
  189.1040  173.8110  139.7840 C   0  0  0  0  0  3  0  0  0  0  0  0
  187.7610  176.4410  144.0700 C   0  0  0  0  0  2  0  0  0  0  0  0
  191.3730  172.9580  143.9230 C   0  0  0  0  0  0  0  0  0  0  0  0
  187.4240  175.4920  139.6430 F   0  0  0  0  0  0  0  0  0  0  0  0
  190.2060  175.0940  146.5960 N   0  0  0  0  0  0  0  0  0  0  0  0
  186.1730  178.3310  144.2790 C   0  0  0  0  0  1  0  0  0  0  0  0
  191.1430  172.7210  142.6070 N   0  0  0  0  0  0  0  0  0  0  0  0
  190.6350  173.9430  144.5920 C   0  0  0  0  0  0  0  0  0  0  0  0
  192.3680  172.2090  144.6360 N   0  0  0  0  0  2  0  0  0  0  0  0
  188.5030  175.1090  141.7320 C   0  0  0  0  0  3  0  0  0  0  0  0
  187.2640  177.3940  146.2950 C   0  0  0  0  0  2  0  0  0  0  0  0
  190.2160  173.4080  141.8990 C   0  0  0  0  0  0  0  0  0  0  0  0
  190.0430  173.1130  140.5430 C   0  0  0  0  0  3  0  0  0  0  0  0
  190.8770  174.1750  145.9080 N   0  0  0  0  0  0  0  0  0  0  0  0
  189.2310  175.8410  146.0280 C   0  0  0  0  0  0  0  0  0  0  0  0
  188.5890  176.9120  146.8670 C   0  0  0  0  0  2  0  0  0  0  0  0
  196.1070  169.2870  146.6250 C   0  0  0  0  0  0  0  0  0  0  0  0
  195.3230  171.2020  145.3780 C   0  0  0  0  0  3  0  0  0  0  0  0
  192.9110  168.4060  145.0240 O   0  0  0  0  0  1  0  0  0  0  0  0
  197.3040  168.5360  147.6580 Cl  0  0  0  0  0  0  0  0  0  0  0  0
  196.2780  170.6050  146.2020 C   0  0  0  0  0  3  0  0  0  0  0  0
  194.0180  169.1590  145.4000 C   0  0  0  0  0  0  0  0  0  0  0  0
  194.1830  170.4930  144.9650 C   0  0  0  0  0  0  0  0  0  0  0  0
  194.9800  168.5670  146.2240 C   0  0  0  0  0  3  0  0  0  0  0  0
  1 17  1  0  0  0  0
  2 15  2  0  0  0  0
  2  3  1  0  0  0  0
  3 22  2  0  0  0  0
  4  5  2  0  0  0  0
  5 16  1  0  0  0  0
  5 30  1  0  0  0  0
  6 13  1  6  0  0  0
  6 18  1  0  0  0  0
  7  2  1  0  0  0  0
  8  1  2  0  0  0  0
  8 20  1  0  0  0  0
  9  3  1  0  0  0  0
  9  6  1  0  0  0  0
 10 15  1  0  0  0  0
 10 16  1  0  0  0  0
 11  1  1  0  0  0  0
 14 10  2  0  0  0  0
 15 21  1  0  0  0  0
 17  7  2  0  0  0  0
 18 23  1  0  0  0  0
 19  7  1  0  0  0  0
 19 14  1  0  0  0  0
 20 19  2  0  0  0  0
 21 12  2  0  0  0  0
 22 12  1  0  0  0  0
 22 23  1  0  0  0  0
 24 27  1  0  0  0  0
 25 28  1  0  0  0  0
 26 29  1  0  0  0  0
 28 24  2  0  0  0  0
 29 31  2  0  0  0  0
 30 25  2  0  0  0  0
 30 29  1  0  0  0  0
 31 24  1  0  0  0  0
M  END
>  <MODEL>
7

>  <REMARK>
 VINA RESULT:      -8.0      3.752      5.994
  Name = 
  1 active torsions:
  status: ('A' for Active; 'I' for Inactive)
    1  A    between atoms: C_9  and  C_22
                            x       y       z     vdW  Elec       q    Type
                         _______ _______ _______ _____ _____    ______ ____

>  <TORSDO>
F 1

$$$$
=
 OpenBabel11052417473D

 31 35  0  0  1  0  0  0  0  0999 V2000
  185.5490  177.8100  140.7890 C   0  0  0  0  0  0  0  0  0  0  0  0
  187.4410  176.5210  143.7800 C   0  0  0  0  0  0  0  0  0  0  0  0
  186.7510  176.9760  144.9430 C   0  0  0  0  0  0  0  0  0  0  0  0
  191.0810  174.0760  140.8660 O   0  0  0  0  0  0  0  0  0  0  0  0
  191.3550  173.9030  142.0850 C   0  0  0  0  0  0  0  0  0  0  0  0
  185.0980  178.4990  146.1180 C   0  0  1  0  0  3  0  0  0  0  0  0
  187.0360  176.7910  142.4380 C   0  0  0  0  0  0  0  0  0  0  0  0
  186.3160  177.2830  139.7510 C   0  0  0  0  0  3  0  0  0  0  0  0
  185.4250  177.7010  144.8630 C   0  0  0  0  0  2  0  0  0  0  0  0
  189.3350  175.2560  142.8790 C   0  0  0  0  0  0  0  0  0  0  0  0
  184.4550  178.5590  140.5110 F   0  0  0  0  0  0  0  0  0  0  0  0
  188.4000  175.9050  146.3100 N   0  0  0  0  0  0  0  0  0  0  0  0
  183.6890  179.0410  146.0150 C   0  0  0  0  0  1  0  0  0  0  0  0
  188.9140  175.5290  141.6190 N   0  0  0  0  0  0  0  0  0  0  0  0
  188.6120  175.7460  143.9750 C   0  0  0  0  0  0  0  0  0  0  0  0
  190.5150  174.4700  143.1000 N   0  0  0  0  0  2  0  0  0  0  0  0
  185.9080  177.5670  142.1170 C   0  0  0  0  0  3  0  0  0  0  0  0
  185.2060  177.5820  147.3210 C   0  0  0  0  0  2  0  0  0  0  0  0
  187.8080  176.2690  141.3690 C   0  0  0  0  0  0  0  0  0  0  0  0
  187.4430  176.5160  140.0410 C   0  0  0  0  0  3  0  0  0  0  0  0
  189.0450  175.4700  145.2320 N   0  0  0  0  0  0  0  0  0  0  0  0
  187.2640  176.6340  146.2170 C   0  0  0  0  0  0  0  0  0  0  0  0
  186.6550  177.1510  147.4930 C   0  0  0  0  0  2  0  0  0  0  0  0
  194.7460  171.5240  143.2190 C   0  0  0  0  0  0  0  0  0  0  0  0
  192.4480  171.7110  142.4950 C   0  0  0  0  0  3  0  0  0  0  0  0
  193.9280  175.0940  142.8490 O   0  0  0  0  0  1  0  0  0  0  0  0
  196.1160  170.5360  143.6770 Cl  0  0  0  0  0  0  0  0  0  0  0  0
  193.5400  170.9210  142.8610 C   0  0  0  0  0  3  0  0  0  0  0  0
  193.7710  173.7130  142.8440 C   0  0  0  0  0  0  0  0  0  0  0  0
  192.5440  173.1110  142.4810 C   0  0  0  0  0  0  0  0  0  0  0  0
  194.8600  172.9150  143.2100 C   0  0  0  0  0  3  0  0  0  0  0  0
  1 17  1  0  0  0  0
  2 15  2  0  0  0  0
  2  3  1  0  0  0  0
  3 22  2  0  0  0  0
  4  5  2  0  0  0  0
  5 30  1  0  0  0  0
  5 16  1  0  0  0  0
  6 13  1  6  0  0  0
  6 18  1  0  0  0  0
  7  2  1  0  0  0  0
  8 20  1  0  0  0  0
  8  1  2  0  0  0  0
  9  3  1  0  0  0  0
  9  6  1  0  0  0  0
 10 16  1  0  0  0  0
 10 15  1  0  0  0  0
 11  1  1  0  0  0  0
 14 10  2  0  0  0  0
 15 21  1  0  0  0  0
 17  7  2  0  0  0  0
 18 23  1  0  0  0  0
 19 14  1  0  0  0  0
 19  7  1  0  0  0  0
 20 19  2  0  0  0  0
 21 12  2  0  0  0  0
 22 12  1  0  0  0  0
 22 23  1  0  0  0  0
 24 27  1  0  0  0  0
 25 28  1  0  0  0  0
 28 24  2  0  0  0  0
 29 26  1  0  0  0  0
 29 31  2  0  0  0  0
 30 25  2  0  0  0  0
 30 29  1  0  0  0  0
 31 24  1  0  0  0  0
M  END
>  <MODEL>
8

>  <REMARK>
 VINA RESULT:      -8.0      2.654      4.877
  Name = 
  1 active torsions:
  status: ('A' for Active; 'I' for Inactive)
    1  A    between atoms: C_9  and  C_22
                            x       y       z     vdW  Elec       q    Type
                         _______ _______ _______ _____ _____    ______ ____

>  <TORSDO>
F 1

$$$$
=
 OpenBabel11052417473D

 31 35  0  0  1  0  0  0  0  0999 V2000
  194.9440  174.8890  146.0600 C   0  0  0  0  0  0  0  0  0  0  0  0
  191.9680  173.4880  144.2240 C   0  0  0  0  0  0  0  0  0  0  0  0
  192.3020  172.1570  143.8340 C   0  0  0  0  0  0  0  0  0  0  0  0
  189.1160  177.8790  144.7770 O   0  0  0  0  0  0  0  0  0  0  0  0
  188.4380  177.0350  144.1310 C   0  0  0  0  0  0  0  0  0  0  0  0
  193.9730  170.2990  143.4030 C   0  0  1  0  0  3  0  0  0  0  0  0
  192.8310  174.3620  144.9530 C   0  0  0  0  0  0  0  0  0  0  0  0
  194.4730  176.1600  146.3850 C   0  0  0  0  0  3  0  0  0  0  0  0
  193.5840  171.4850  144.2750 C   0  0  0  0  0  2  0  0  0  0  0  0
  190.2880  175.2700  144.2160 C   0  0  0  0  0  0  0  0  0  0  0  0
  196.1910  174.5120  146.4320 F   0  0  0  0  0  0  0  0  0  0  0  0
  190.1570  171.9510  142.7900 N   0  0  0  0  0  0  0  0  0  0  0  0
  195.1600  169.5910  144.0170 C   0  0  0  0  0  1  0  0  0  0  0  0
  191.1340  176.0680  144.9150 N   0  0  0  0  0  0  0  0  0  0  0  0
  190.6880  173.9760  143.8580 C   0  0  0  0  0  0  0  0  0  0  0  0
  188.9860  175.7410  143.8390 N   0  0  0  0  0  2  0  0  0  0  0  0
  194.1310  174.0020  145.3510 C   0  0  0  0  0  3  0  0  0  0  0  0
  192.7960  169.3460  143.3220 C   0  0  0  0  0  2  0  0  0  0  0  0
  192.3710  175.6610  145.2870 C   0  0  0  0  0  0  0  0  0  0  0  0
  193.1900  176.5450  145.9970 C   0  0  0  0  0  3  0  0  0  0  0  0
  189.8340  173.1880  143.1550 N   0  0  0  0  0  0  0  0  0  0  0  0
  191.3490  171.3990  143.1130 C   0  0  0  0  0  0  0  0  0  0  0  0
  191.6530  170.0240  142.5820 C   0  0  0  0  0  2  0  0  0  0  0  0
  184.5020  177.9770  142.6950 C   0  0  0  0  0  0  0  0  0  0  0  0
  186.7750  177.2570  142.3000 C   0  0  0  0  0  3  0  0  0  0  0  0
  186.2810  177.9190  145.9160 O   0  0  0  0  0  1  0  0  0  0  0  0
  182.9040  178.3560  142.0880 Cl  0  0  0  0  0  0  0  0  0  0  0  0
  185.5010  177.5590  141.8150 C   0  0  0  0  0  3  0  0  0  0  0  0
  186.0500  177.7910  144.5520 C   0  0  0  0  0  0  0  0  0  0  0  0
  187.0690  177.3670  143.6680 C   0  0  0  0  0  0  0  0  0  0  0  0
  184.7770  178.0920  144.0580 C   0  0  0  0  0  3  0  0  0  0  0  0
  1  8  1  0  0  0  0
  1 11  1  0  0  0  0
  2  7  1  0  0  0  0
  3  2  2  0  0  0  0
  3  9  1  0  0  0  0
  5  4  2  0  0  0  0
  6 13  1  1  0  0  0
  6  9  1  0  0  0  0
  7 19  2  0  0  0  0
  7 17  1  0  0  0  0
 10 14  2  0  0  0  0
 12 22  2  0  0  0  0
 12 21  1  0  0  0  0
 14 19  1  0  0  0  0
 15 10  1  0  0  0  0
 15  2  1  0  0  0  0
 16  5  1  0  0  0  0
 16 10  1  0  0  0  0
 17  1  2  0  0  0  0
 18  6  1  0  0  0  0
 19 20  1  0  0  0  0
 20  8  2  0  0  0  0
 21 15  2  0  0  0  0
 22  3  1  0  0  0  0
 23 22  1  0  0  0  0
 23 18  1  0  0  0  0
 24 31  1  0  0  0  0
 25 30  2  0  0  0  0
 27 24  1  0  0  0  0
 28 25  1  0  0  0  0
 28 24  2  0  0  0  0
 29 26  1  0  0  0  0
 30  5  1  0  0  0  0
 30 29  1  0  0  0  0
 31 29  2  0  0  0  0
M  END
>  <MODEL>
9

>  <REMARK>
 VINA RESULT:      -8.0      4.509      8.865
  Name = 
  1 active torsions:
  status: ('A' for Active; 'I' for Inactive)
    1  A    between atoms: C_9  and  C_22
                            x       y       z     vdW  Elec       q    Type
                         _______ _______ _______ _____ _____    ______ ____

>  <TORSDO>
F 1

$$$$
