=
 OpenBabel11052418233D

 27 30  0  0  1  0  0  0  0  0999 V2000
  187.9340  176.3610  145.1280 C   0  0  1  0  0  3  0  0  0  0  0  0
  188.3490  176.0420  143.6820 C   0  0  2  0  0  3  0  0  0  0  0  0
  188.5510  174.3260  139.7100 C   0  0  0  0  0  3  0  0  0  0  0  0
  189.8140  173.2430  138.0860 F   0  0  0  0  0  0  0  0  0  0  0  0
  187.1840  176.2760  142.7180 C   0  0  0  0  0  2  0  0  0  0  0  0
  189.9120  173.0190  141.8760 C   0  0  0  0  0  2  0  0  0  0  0  0
  190.4360  172.8560  140.4450 C   0  0  0  0  0  2  0  0  0  0  0  0
  188.9340  174.6360  143.5140 C   0  0  0  0  0  2  0  0  0  0  0  0
  189.5290  173.4610  139.3960 C   0  0  0  0  0  0  0  0  0  0  0  0
  188.1750  174.6190  141.1360 C   0  0  1  0  0  3  0  0  0  0  0  0
  189.3720  174.4270  142.0700 C   0  0  2  0  0  3  0  0  0  0  0  0
  187.6190  176.0300  141.2740 C   0  0  0  0  0  2  0  0  0  0  0  0
  189.0540  176.7530  146.1280 C   0  0  0  0  0  0  0  0  0  0  0  0
  189.3410  174.6940  147.6230 O   0  0  0  0  0  0  0  0  0  0  0  0
  191.6690  175.0920  145.0670 O   0  0  0  0  0  0  0  0  0  0  0  0
  192.2030  176.5480  147.0440 O   0  0  0  0  0  0  0  0  0  0  0  0
  188.5850  177.6690  147.0560 F   0  0  0  0  0  0  0  0  0  0  0  0
  191.1530  176.0750  146.0780 S   0  0  0  0  0  0  0  0  0  0  0  0
  190.2250  177.3630  145.3830 C   0  0  0  0  0  0  0  0  0  0  0  0
  190.4260  178.3120  144.6440 O   0  0  0  0  0  0  0  0  0  0  0  0
  189.6850  175.5710  146.8480 C   0  0  0  0  0  0  0  0  0  0  0  0
  185.6910  179.3130  144.6640 C   0  0  0  0  0  3  0  0  0  0  0  0
  185.5600  176.6940  145.8580 C   0  0  0  0  0  2  0  0  0  0  0  0
  186.7560  177.2250  145.1960 N   0  0  0  0  0  0  0  0  0  0  0  0
  186.7100  178.4740  144.4840 C   0  0  0  0  0  3  0  0  0  0  0  0
  184.6160  178.9730  145.6070 C   0  0  0  0  0  3  0  0  0  0  0  0
  184.5670  177.7760  146.1900 C   0  0  0  0  0  3  0  0  0  0  0  0
  1 24  1  6  0  0  0
  1 13  1  0  0  0  0
  2  1  1  1  0  0  0
  4  9  1  0  0  0  0
  5  2  1  0  0  0  0
  7  6  1  0  0  0  0
  8  2  1  0  0  0  0
  9  3  2  0  0  0  0
  9  7  1  0  0  0  0
 10  3  1  6  0  0  0
 10 12  1  0  0  0  0
 10 11  1  0  0  0  0
 11  6  1  1  0  0  0
 11  8  1  0  0  0  0
 12  5  1  0  0  0  0
 13 21  1  0  0  0  0
 13 17  1  0  0  0  0
 15 18  2  0  0  0  0
 18 21  1  0  0  0  0
 18 16  2  0  0  0  0
 19 18  1  0  0  0  0
 19 13  1  0  0  0  0
 20 19  2  0  0  0  0
 21 14  2  0  0  0  0
 22 26  1  0  0  0  0
 23 27  1  0  0  0  0
 24 23  1  0  0  0  0
 25 22  2  0  0  0  0
 25 24  1  0  0  0  0
 26 27  2  0  0  0  0
M  END
>  <MODEL>
1

>  <REMARK>
 VINA RESULT:      -7.7      0.000      0.000
  Name = 
  3 active torsions:
  status: ('A' for Active; 'I' for Inactive)
    1  A    between atoms: C_1  and  C_15
    2  A    between atoms: C_2  and  C_15
    3  A    between atoms: N_11  and  C_15
                            x       y       z     vdW  Elec       q    Type
                         _______ _______ _______ _____ _____    ______ ____

>  <TORSDO>
F 3

$$$$
=
 OpenBabel11052418233D

 27 30  0  0  1  0  0  0  0  0999 V2000
  190.3820  175.7430  144.0290 C   0  0  1  0  0  3  0  0  0  0  0  0
  188.9290  176.2390  144.1010 C   0  0  2  0  0  3  0  0  0  0  0  0
  185.4110  178.6940  144.7030 C   0  0  0  0  0  3  0  0  0  0  0  0
  183.3410  178.9650  145.7270 F   0  0  0  0  0  0  0  0  0  0  0  0
  188.7310  177.4730  143.2170 C   0  0  0  0  0  2  0  0  0  0  0  0
  186.5020  177.2340  146.9230 C   0  0  0  0  0  2  0  0  0  0  0  0
  185.0070  177.5690  146.9000 C   0  0  0  0  0  2  0  0  0  0  0  0
  188.4460  176.4980  145.5320 C   0  0  0  0  0  2  0  0  0  0  0  0
  184.6080  178.4790  145.7580 C   0  0  0  0  0  0  0  0  0  0  0  0
  186.8270  178.1890  144.6640 C   0  0  1  0  0  3  0  0  0  0  0  0
  186.9840  176.9270  145.5150 C   0  0  2  0  0  3  0  0  0  0  0  0
  187.2700  177.9190  143.2320 C   0  0  0  0  0  2  0  0  0  0  0  0
  191.4020  176.3550  145.0250 C   0  0  0  0  0  0  0  0  0  0  0  0
  190.8680  175.2420  147.2690 O   0  0  0  0  0  0  0  0  0  0  0  0
  193.5730  173.9500  145.5010 O   0  0  0  0  0  0  0  0  0  0  0  0
  194.1900  176.0480  146.7390 O   0  0  0  0  0  0  0  0  0  0  0  0
  191.0750  177.6690  145.3180 F   0  0  0  0  0  0  0  0  0  0  0  0
  193.2080  175.3710  145.8250 S   0  0  0  0  0  0  0  0  0  0  0  0
  192.7960  176.3150  144.4320 C   0  0  0  0  0  0  0  0  0  0  0  0
  193.3660  176.7440  143.4430 O   0  0  0  0  0  0  0  0  0  0  0  0
  191.5580  175.5670  146.3170 C   0  0  0  0  0  0  0  0  0  0  0  0
  189.8440  172.1090  144.7100 C   0  0  0  0  0  3  0  0  0  0  0  0
  191.2870  173.7410  142.8240 C   0  0  0  0  0  2  0  0  0  0  0  0
  190.4740  174.2880  143.9140 N   0  0  0  0  0  0  0  0  0  0  0  0
  189.6530  173.4270  144.7230 C   0  0  0  0  0  3  0  0  0  0  0  0
  190.9070  171.5280  143.8770 C   0  0  0  0  0  3  0  0  0  0  0  0
  191.6030  172.2830  143.0270 C   0  0  0  0  0  3  0  0  0  0  0  0
  1 24  1  1  0  0  0
  1 13  1  0  0  0  0
  2  1  1  1  0  0  0
  2  8  1  0  0  0  0
  3  9  2  0  0  0  0
  4  9  1  0  0  0  0
  5 12  1  0  0  0  0
  5  2  1  0  0  0  0
  7  6  1  0  0  0  0
  9  7  1  0  0  0  0
 10 12  1  6  0  0  0
 10  3  1  0  0  0  0
 10 11  1  0  0  0  0
 11  8  1  1  0  0  0
 11  6  1  0  0  0  0
 13 17  1  0  0  0  0
 13 21  1  0  0  0  0
 15 18  2  0  0  0  0
 18 21  1  0  0  0  0
 18 16  2  0  0  0  0
 19 13  1  0  0  0  0
 19 18  1  0  0  0  0
 20 19  2  0  0  0  0
 21 14  2  0  0  0  0
 22 25  2  0  0  0  0
 23 27  1  0  0  0  0
 23 24  1  0  0  0  0
 24 25  1  0  0  0  0
 26 22  1  0  0  0  0
 27 26  2  0  0  0  0
M  END
>  <MODEL>
2

>  <REMARK>
 VINA RESULT:      -7.7      2.854      5.860
  Name = 
  3 active torsions:
  status: ('A' for Active; 'I' for Inactive)
    1  A    between atoms: C_1  and  C_15
    2  A    between atoms: C_2  and  C_15
    3  A    between atoms: N_11  and  C_15
                            x       y       z     vdW  Elec       q    Type
                         _______ _______ _______ _____ _____    ______ ____

>  <TORSDO>
F 3

$$$$
=
 OpenBabel11052418233D

 27 30  0  0  1  0  0  0  0  0999 V2000
  190.9830  175.4090  144.5460 C   0  0  1  0  0  3  0  0  0  0  0  0
  189.8760  176.0700  145.3840 C   0  0  2  0  0  3  0  0  0  0  0  0
  186.0480  177.0650  147.1510 C   0  0  0  0  0  3  0  0  0  0  0  0
  184.4260  178.6750  147.5760 F   0  0  0  0  0  0  0  0  0  0  0  0
  189.1950  175.0440  146.2920 C   0  0  0  0  0  2  0  0  0  0  0  0
  186.7740  178.2260  144.6260 C   0  0  0  0  0  2  0  0  0  0  0  0
  185.8120  178.9750  145.5540 C   0  0  0  0  0  2  0  0  0  0  0  0
  188.8490  176.8330  144.5400 C   0  0  0  0  0  2  0  0  0  0  0  0
  185.3930  178.1720  146.7670 C   0  0  0  0  0  0  0  0  0  0  0  0
  187.1300  176.4480  146.3080 C   0  0  1  0  0  3  0  0  0  0  0  0
  187.8280  177.5040  145.4500 C   0  0  2  0  0  3  0  0  0  0  0  0
  188.1470  175.7180  147.1770 C   0  0  0  0  0  2  0  0  0  0  0  0
  192.2120  174.8370  145.3000 C   0  0  0  0  0  0  0  0  0  0  0  0
  193.6830  173.8190  143.4690 O   0  0  0  0  0  0  0  0  0  0  0  0
  194.6050  176.9690  144.6260 O   0  0  0  0  0  0  0  0  0  0  0  0
  195.3620  175.1490  146.1850 O   0  0  0  0  0  0  0  0  0  0  0  0
  191.8690  173.6950  146.0050 F   0  0  0  0  0  0  0  0  0  0  0  0
  194.2310  175.7240  145.3790 S   0  0  0  0  0  0  0  0  0  0  0  0
  192.7530  175.8700  146.2700 C   0  0  0  0  0  0  0  0  0  0  0  0
  192.3450  176.5060  147.2280 O   0  0  0  0  0  0  0  0  0  0  0  0
  193.4090  174.5480  144.4070 C   0  0  0  0  0  0  0  0  0  0  0  0
  189.9260  174.0850  141.2160 C   0  0  0  0  0  3  0  0  0  0  0  0
  190.0000  173.1820  143.9510 C   0  0  0  0  0  2  0  0  0  0  0  0
  190.4500  174.5090  143.5230 N   0  0  0  0  0  0  0  0  0  0  0  0
  190.5350  174.8430  142.1260 C   0  0  0  0  0  3  0  0  0  0  0  0
  189.1490  172.9110  141.6370 C   0  0  0  0  0  3  0  0  0  0  0  0
  189.1500  172.5070  142.9080 C   0  0  0  0  0  3  0  0  0  0  0  0
  1 24  1  1  0  0  0
  1 13  1  0  0  0  0
  2  1  1  6  0  0  0
  2  5  1  0  0  0  0
  5 12  1  0  0  0  0
  6 11  1  0  0  0  0
  6  7  1  0  0  0  0
  7  9  1  0  0  0  0
  8  2  1  0  0  0  0
  9  3  2  0  0  0  0
  9  4  1  0  0  0  0
 10  3  1  1  0  0  0
 10 12  1  0  0  0  0
 11  8  1  6  0  0  0
 11 10  1  0  0  0  0
 13 17  1  0  0  0  0
 13 19  1  0  0  0  0
 14 21  2  0  0  0  0
 15 18  2  0  0  0  0
 18 16  2  0  0  0  0
 18 19  1  0  0  0  0
 19 20  2  0  0  0  0
 21 13  1  0  0  0  0
 21 18  1  0  0  0  0
 22 26  1  0  0  0  0
 22 25  2  0  0  0  0
 24 23  1  0  0  0  0
 25 24  1  0  0  0  0
 26 27  2  0  0  0  0
 27 23  1  0  0  0  0
M  END
>  <MODEL>
3

>  <REMARK>
 VINA RESULT:      -7.6      2.725      6.119
  Name = 
  3 active torsions:
  status: ('A' for Active; 'I' for Inactive)
    1  A    between atoms: C_1  and  C_15
    2  A    between atoms: C_2  and  C_15
    3  A    between atoms: N_11  and  C_15
                            x       y       z     vdW  Elec       q    Type
                         _______ _______ _______ _____ _____    ______ ____

>  <TORSDO>
F 3

$$$$
=
 OpenBabel11052418233D

 27 30  0  0  1  0  0  0  0  0999 V2000
  190.1370  175.2190  144.1830 C   0  0  1  0  0  3  0  0  0  0  0  0
  189.0320  176.1280  144.7460 C   0  0  2  0  0  3  0  0  0  0  0  0
  185.3030  177.5830  146.4030 C   0  0  0  0  0  3  0  0  0  0  0  0
  183.4920  179.0290  146.2250 F   0  0  0  0  0  0  0  0  0  0  0  0
  188.6300  175.6870  146.1560 C   0  0  0  0  0  2  0  0  0  0  0  0
  185.5540  177.2830  143.5580 C   0  0  0  0  0  2  0  0  0  0  0  0
  184.5850  178.3260  144.1260 C   0  0  0  0  0  2  0  0  0  0  0  0
  187.8090  176.2370  143.8290 C   0  0  0  0  0  2  0  0  0  0  0  0
  184.4370  178.2570  145.6300 C   0  0  0  0  0  0  0  0  0  0  0  0
  186.3750  176.7060  145.8180 C   0  0  1  0  0  3  0  0  0  0  0  0
  186.7940  177.2000  144.4320 C   0  0  2  0  0  3  0  0  0  0  0  0
  187.5860  176.6360  146.7410 C   0  0  0  0  0  2  0  0  0  0  0  0
  190.3740  175.2390  142.6500 C   0  0  0  0  0  0  0  0  0  0  0  0
  192.8320  175.9080  142.3820 O   0  0  0  0  0  0  0  0  0  0  0  0
  192.1060  172.5170  142.0910 O   0  0  0  0  0  0  0  0  0  0  0  0
  191.5810  173.7640  139.9730 O   0  0  0  0  0  0  0  0  0  0  0  0
  189.7560  176.3350  142.0710 F   0  0  0  0  0  0  0  0  0  0  0  0
  191.4440  173.7130  141.4690 S   0  0  0  0  0  0  0  0  0  0  0  0
  189.8230  173.9740  142.0230 C   0  0  0  0  0  0  0  0  0  0  0  0
  188.7480  173.4050  141.9410 O   0  0  0  0  0  0  0  0  0  0  0  0
  191.8410  175.2080  142.2490 C   0  0  0  0  0  0  0  0  0  0  0  0
  193.0330  176.5910  146.1050 C   0  0  0  0  0  3  0  0  0  0  0  0
  191.9990  174.0110  145.3450 C   0  0  0  0  0  2  0  0  0  0  0  0
  191.3680  175.2790  144.9700 N   0  0  0  0  0  0  0  0  0  0  0  0
  191.8420  176.5250  145.5100 C   0  0  0  0  0  3  0  0  0  0  0  0
  193.8760  175.3910  146.1970 C   0  0  0  0  0  3  0  0  0  0  0  0
  193.4180  174.1990  145.8150 C   0  0  0  0  0  3  0  0  0  0  0  0
  1 13  1  6  0  0  0
  1 24  1  0  0  0  0
  2  1  1  6  0  0  0
  2  5  1  0  0  0  0
  5 12  1  0  0  0  0
  6  7  1  0  0  0  0
  7  9  1  0  0  0  0
  8 11  1  0  0  0  0
  8  2  1  0  0  0  0
  9  4  1  0  0  0  0
  9  3  2  0  0  0  0
 10  3  1  1  0  0  0
 10 12  1  0  0  0  0
 11  6  1  6  0  0  0
 11 10  1  0  0  0  0
 16 18  2  0  0  0  0
 17 13  1  0  0  0  0
 18 19  1  0  0  0  0
 18 15  2  0  0  0  0
 18 21  1  0  0  0  0
 19 13  1  0  0  0  0
 20 19  2  0  0  0  0
 21 14  2  0  0  0  0
 21 13  1  0  0  0  0
 22 26  1  0  0  0  0
 23 27  1  0  0  0  0
 24 23  1  0  0  0  0
 24 25  1  0  0  0  0
 25 22  2  0  0  0  0
 27 26  2  0  0  0  0
M  END
>  <MODEL>
4

>  <REMARK>
 VINA RESULT:      -7.6      3.124      6.514
  Name = 
  3 active torsions:
  status: ('A' for Active; 'I' for Inactive)
    1  A    between atoms: C_1  and  C_15
    2  A    between atoms: C_2  and  C_15
    3  A    between atoms: N_11  and  C_15
                            x       y       z     vdW  Elec       q    Type
                         _______ _______ _______ _____ _____    ______ ____

>  <TORSDO>
F 3

$$$$
=
 OpenBabel11052418233D

 27 30  0  0  1  0  0  0  0  0999 V2000
  190.6730  175.9080  144.3890 C   0  0  1  0  0  3  0  0  0  0  0  0
  189.4470  176.5990  145.0090 C   0  0  2  0  0  3  0  0  0  0  0  0
  185.3970  177.5760  146.1950 C   0  0  0  0  0  3  0  0  0  0  0  0
  183.6690  179.1310  146.2350 F   0  0  0  0  0  0  0  0  0  0  0  0
  188.7060  175.6480  145.9520 C   0  0  0  0  0  2  0  0  0  0  0  0
  186.3700  178.4760  143.6470 C   0  0  0  0  0  2  0  0  0  0  0  0
  185.2730  179.2720  144.3620 C   0  0  0  0  0  2  0  0  0  0  0  0
  188.4980  177.2000  143.9670 C   0  0  0  0  0  2  0  0  0  0  0  0
  184.7470  178.5930  145.6070 C   0  0  0  0  0  0  0  0  0  0  0  0
  186.5960  176.9260  145.5620 C   0  0  1  0  0  3  0  0  0  0  0  0
  187.3480  177.9140  144.6670 C   0  0  2  0  0  3  0  0  0  0  0  0
  187.5320  176.3590  146.6230 C   0  0  0  0  0  2  0  0  0  0  0  0
  192.0470  176.1300  145.0730 C   0  0  0  0  0  0  0  0  0  0  0  0
  191.7570  175.1890  147.4370 O   0  0  0  0  0  0  0  0  0  0  0  0
  193.3820  173.1410  145.1400 O   0  0  0  0  0  0  0  0  0  0  0  0
  194.9220  174.8930  146.0740 O   0  0  0  0  0  0  0  0  0  0  0  0
  192.2400  177.4710  145.3630 F   0  0  0  0  0  0  0  0  0  0  0  0
  193.5820  174.5940  145.4640 S   0  0  0  0  0  0  0  0  0  0  0  0
  193.1630  175.6580  144.1620 C   0  0  0  0  0  0  0  0  0  0  0  0
  193.5770  175.9070  143.0420 O   0  0  0  0  0  0  0  0  0  0  0  0
  192.2570  175.2990  146.3290 C   0  0  0  0  0  0  0  0  0  0  0  0
  189.8510  172.2780  144.7190 C   0  0  0  0  0  3  0  0  0  0  0  0
  190.4520  174.1520  142.6140 C   0  0  0  0  0  2  0  0  0  0  0  0
  190.4110  174.5130  144.0350 N   0  0  0  0  0  0  0  0  0  0  0  0
  189.9520  173.5710  145.0200 C   0  0  0  0  0  3  0  0  0  0  0  0
  190.2250  171.8030  143.3790 C   0  0  0  0  0  3  0  0  0  0  0  0
  190.5390  172.6630  142.4090 C   0  0  0  0  0  3  0  0  0  0  0  0
  1 24  1  1  0  0  0
  1 13  1  0  0  0  0
  2  1  1  6  0  0  0
  2  5  1  0  0  0  0
  5 12  1  0  0  0  0
  6  7  1  0  0  0  0
  7  9  1  0  0  0  0
  8 11  1  0  0  0  0
  8  2  1  0  0  0  0
  9  3  2  0  0  0  0
  9  4  1  0  0  0  0
 10  3  1  1  0  0  0
 10 12  1  0  0  0  0
 11  6  1  6  0  0  0
 11 10  1  0  0  0  0
 13 17  1  0  0  0  0
 13 21  1  0  0  0  0
 15 18  2  0  0  0  0
 18 16  2  0  0  0  0
 18 21  1  0  0  0  0
 19 13  1  0  0  0  0
 19 18  1  0  0  0  0
 20 19  2  0  0  0  0
 21 14  2  0  0  0  0
 22 25  2  0  0  0  0
 23 24  1  0  0  0  0
 24 25  1  0  0  0  0
 26 22  1  0  0  0  0
 27 23  1  0  0  0  0
 27 26  2  0  0  0  0
M  END
>  <MODEL>
5

>  <REMARK>
 VINA RESULT:      -7.5      2.853      5.946
  Name = 
  3 active torsions:
  status: ('A' for Active; 'I' for Inactive)
    1  A    between atoms: C_1  and  C_15
    2  A    between atoms: C_2  and  C_15
    3  A    between atoms: N_11  and  C_15
                            x       y       z     vdW  Elec       q    Type
                         _______ _______ _______ _____ _____    ______ ____

>  <TORSDO>
F 3

$$$$
=
 OpenBabel11052418233D

 27 30  0  0  1  0  0  0  0  0999 V2000
  190.0300  175.6820  143.2200 C   0  0  1  0  0  3  0  0  0  0  0  0
  188.6140  176.2340  143.4540 C   0  0  2  0  0  3  0  0  0  0  0  0
  185.2840  178.7760  144.5590 C   0  0  0  0  0  3  0  0  0  0  0  0
  183.3160  179.0410  145.7670 F   0  0  0  0  0  0  0  0  0  0  0  0
  188.4130  177.5530  142.7050 C   0  0  0  0  0  2  0  0  0  0  0  0
  186.4640  177.0650  146.5410 C   0  0  0  0  0  2  0  0  0  0  0  0
  184.9910  177.4670  146.6700 C   0  0  0  0  0  2  0  0  0  0  0  0
  188.2550  176.3780  144.9370 C   0  0  0  0  0  2  0  0  0  0  0  0
  184.5550  178.4980  145.6510 C   0  0  0  0  0  0  0  0  0  0  0  0
  186.6650  178.2140  144.3600 C   0  0  1  0  0  3  0  0  0  0  0  0
  186.8210  176.8710  145.0770 C   0  0  2  0  0  3  0  0  0  0  0  0
  186.9830  178.0610  142.8780 C   0  0  0  0  0  2  0  0  0  0  0  0
  191.1070  175.9870  144.2940 C   0  0  0  0  0  0  0  0  0  0  0  0
  192.4740  173.8280  144.4730 O   0  0  0  0  0  0  0  0  0  0  0  0
  193.8540  176.3840  142.5560 O   0  0  0  0  0  0  0  0  0  0  0  0
  194.2180  176.7670  145.0140 O   0  0  0  0  0  0  0  0  0  0  0  0
  190.5430  176.0270  145.5590 F   0  0  0  0  0  0  0  0  0  0  0  0
  193.2400  176.4150  143.9270 S   0  0  0  0  0  0  0  0  0  0  0  0
  191.7660  177.3210  144.0050 C   0  0  0  0  0  0  0  0  0  0  0  0
  191.4240  178.4860  143.8860 O   0  0  0  0  0  0  0  0  0  0  0  0
  192.2800  175.0190  144.2880 C   0  0  0  0  0  0  0  0  0  0  0  0
  189.4320  171.9940  143.1710 C   0  0  0  0  0  3  0  0  0  0  0  0
  190.5980  173.9960  141.4560 C   0  0  0  0  0  2  0  0  0  0  0  0
  190.0230  174.2900  142.7720 N   0  0  0  0  0  0  0  0  0  0  0  0
  189.3160  173.2770  143.5100 C   0  0  0  0  0  3  0  0  0  0  0  0
  190.2970  171.6060  142.0480 C   0  0  0  0  0  3  0  0  0  0  0  0
  190.8690  172.5260  141.2710 C   0  0  0  0  0  3  0  0  0  0  0  0
  1 24  1  1  0  0  0
  1 13  1  0  0  0  0
  2  1  1  1  0  0  0
  2  8  1  0  0  0  0
  3  9  2  0  0  0  0
  5 12  1  0  0  0  0
  5  2  1  0  0  0  0
  6  7  1  0  0  0  0
  9  4  1  0  0  0  0
  9  7  1  0  0  0  0
 10 12  1  6  0  0  0
 10  3  1  0  0  0  0
 10 11  1  0  0  0  0
 11  8  1  1  0  0  0
 11  6  1  0  0  0  0
 13 17  1  0  0  0  0
 15 18  2  0  0  0  0
 18 19  1  0  0  0  0
 18 21  1  0  0  0  0
 18 16  2  0  0  0  0
 19 13  1  0  0  0  0
 20 19  2  0  0  0  0
 21 13  1  0  0  0  0
 21 14  2  0  0  0  0
 22 25  2  0  0  0  0
 23 24  1  0  0  0  0
 24 25  1  0  0  0  0
 26 22  1  0  0  0  0
 27 23  1  0  0  0  0
 27 26  2  0  0  0  0
M  END
>  <MODEL>
6

>  <REMARK>
 VINA RESULT:      -7.5      2.646      5.928
  Name = 
  3 active torsions:
  status: ('A' for Active; 'I' for Inactive)
    1  A    between atoms: C_1  and  C_15
    2  A    between atoms: C_2  and  C_15
    3  A    between atoms: N_11  and  C_15
                            x       y       z     vdW  Elec       q    Type
                         _______ _______ _______ _____ _____    ______ ____

>  <TORSDO>
F 3

$$$$
=
 OpenBabel11052418233D

 27 30  0  0  1  0  0  0  0  0999 V2000
  188.4390  177.4090  144.5060 C   0  0  1  0  0  3  0  0  0  0  0  0
  189.6940  176.7230  145.0700 C   0  0  2  0  0  3  0  0  0  0  0  0
  193.6280  175.9920  146.7290 C   0  0  0  0  0  3  0  0  0  0  0  0
  195.6780  174.9090  146.5540 F   0  0  0  0  0  0  0  0  0  0  0  0
  190.0060  177.2330  146.4790 C   0  0  0  0  0  2  0  0  0  0  0  0
  193.3270  176.2360  143.8840 C   0  0  0  0  0  2  0  0  0  0  0  0
  194.4730  175.3930  144.4530 C   0  0  0  0  0  2  0  0  0  0  0  0
  190.9160  176.8430  144.1530 C   0  0  0  0  0  2  0  0  0  0  0  0
  194.6050  175.4900  145.9570 C   0  0  0  0  0  0  0  0  0  0  0  0
  192.4110  176.6530  146.1430 C   0  0  1  0  0  3  0  0  0  0  0  0
  192.0920  176.0880  144.7570 C   0  0  2  0  0  3  0  0  0  0  0  0
  191.2090  176.4960  147.0660 C   0  0  0  0  0  2  0  0  0  0  0  0
  187.9020  176.9150  143.1370 C   0  0  0  0  0  0  0  0  0  0  0  0
  185.5470  176.0440  143.6380 O   0  0  0  0  0  0  0  0  0  0  0  0
  185.7610  179.2300  142.2540 O   0  0  0  0  0  0  0  0  0  0  0  0
  186.0030  177.4400  140.5060 O   0  0  0  0  0  0  0  0  0  0  0  0
  188.5260  175.7370  142.7600 F   0  0  0  0  0  0  0  0  0  0  0  0
  186.4310  177.9460  141.8550 S   0  0  0  0  0  0  0  0  0  0  0  0
  188.1500  177.9660  142.0720 C   0  0  0  0  0  0  0  0  0  0  0  0
  189.1050  178.5500  141.5900 O   0  0  0  0  0  0  0  0  0  0  0  0
  186.3930  176.7330  143.0910 C   0  0  0  0  0  0  0  0  0  0  0  0
  185.7150  178.9820  146.5230 C   0  0  0  0  0  3  0  0  0  0  0  0
  187.1040  176.4600  146.4030 C   0  0  0  0  0  2  0  0  0  0  0  0
  187.3960  177.5900  145.5160 N   0  0  0  0  0  0  0  0  0  0  0  0
  186.5650  178.7640  145.5200 C   0  0  0  0  0  3  0  0  0  0  0  0
  185.6360  178.0300  147.6400 C   0  0  0  0  0  3  0  0  0  0  0  0
  186.3040  176.8770  147.6080 C   0  0  0  0  0  3  0  0  0  0  0  0
  1 13  1  6  0  0  0
  1 24  1  0  0  0  0
  2  1  1  6  0  0  0
  2  5  1  0  0  0  0
  5 12  1  0  0  0  0
  6  7  1  0  0  0  0
  7  9  1  0  0  0  0
  8 11  1  0  0  0  0
  8  2  1  0  0  0  0
  9  4  1  0  0  0  0
  9  3  2  0  0  0  0
 10  3  1  1  0  0  0
 10 12  1  0  0  0  0
 11  6  1  6  0  0  0
 11 10  1  0  0  0  0
 16 18  2  0  0  0  0
 17 13  1  0  0  0  0
 18 19  1  0  0  0  0
 18 15  2  0  0  0  0
 18 21  1  0  0  0  0
 19 13  1  0  0  0  0
 20 19  2  0  0  0  0
 21 13  1  0  0  0  0
 21 14  2  0  0  0  0
 22 26  1  0  0  0  0
 23 27  1  0  0  0  0
 24 25  1  0  0  0  0
 24 23  1  0  0  0  0
 25 22  2  0  0  0  0
 27 26  2  0  0  0  0
M  END
>  <MODEL>
7

>  <REMARK>
 VINA RESULT:      -7.4      3.655      5.433
  Name = 
  3 active torsions:
  status: ('A' for Active; 'I' for Inactive)
    1  A    between atoms: C_1  and  C_15
    2  A    between atoms: C_2  and  C_15
    3  A    between atoms: N_11  and  C_15
                            x       y       z     vdW  Elec       q    Type
                         _______ _______ _______ _____ _____    ______ ____

>  <TORSDO>
F 3

$$$$
=
 OpenBabel11052418233D

 27 30  0  0  1  0  0  0  0  0999 V2000
  190.3520  174.8790  144.0180 C   0  0  1  0  0  3  0  0  0  0  0  0
  189.0320  175.6630  144.0910 C   0  0  2  0  0  3  0  0  0  0  0  0
  186.0640  178.7240  144.8570 C   0  0  0  0  0  3  0  0  0  0  0  0
  184.0290  179.3090  145.8160 F   0  0  0  0  0  0  0  0  0  0  0  0
  189.1560  177.0070  143.3690 C   0  0  0  0  0  2  0  0  0  0  0  0
  186.6700  176.8110  146.9110 C   0  0  0  0  0  2  0  0  0  0  0  0
  185.2820  177.4590  146.8670 C   0  0  0  0  0  2  0  0  0  0  0  0
  188.5130  175.8470  145.5210 C   0  0  0  0  0  2  0  0  0  0  0  0
  185.1620  178.5620  145.8380 C   0  0  0  0  0  0  0  0  0  0  0  0
  187.3440  177.9370  144.8140 C   0  0  1  0  0  3  0  0  0  0  0  0
  187.1760  176.5770  145.4970 C   0  0  2  0  0  3  0  0  0  0  0  0
  187.8210  177.7510  143.3790 C   0  0  0  0  0  2  0  0  0  0  0  0
  190.8310  174.4040  142.6210 C   0  0  0  0  0  0  0  0  0  0  0  0
  193.0100  173.1370  143.0770 O   0  0  0  0  0  0  0  0  0  0  0  0
  190.1570  171.1990  142.6110 O   0  0  0  0  0  0  0  0  0  0  0  0
  191.1170  171.9780  140.4230 O   0  0  0  0  0  0  0  0  0  0  0  0
  191.3150  175.4690  141.8790 F   0  0  0  0  0  0  0  0  0  0  0  0
  190.6920  172.3550  141.8140 S   0  0  0  0  0  0  0  0  0  0  0  0
  189.6820  173.7610  141.8700 C   0  0  0  0  0  0  0  0  0  0  0  0
  188.5700  174.0800  141.4820 O   0  0  0  0  0  0  0  0  0  0  0  0
  191.8720  173.2950  142.6660 C   0  0  0  0  0  0  0  0  0  0  0  0
  193.1520  177.1240  145.0580 C   0  0  0  0  0  3  0  0  0  0  0  0
  191.6130  174.9630  146.1830 C   0  0  0  0  0  2  0  0  0  0  0  0
  191.4100  175.4850  144.8280 N   0  0  0  0  0  0  0  0  0  0  0  0
  192.1010  176.6650  144.3820 C   0  0  0  0  0  3  0  0  0  0  0  0
  193.6220  176.4160  146.2580 C   0  0  0  0  0  3  0  0  0  0  0  0
  192.9340  175.3930  146.7640 C   0  0  0  0  0  3  0  0  0  0  0  0
  1 13  1  6  0  0  0
  1 24  1  0  0  0  0
  2  1  1  1  0  0  0
  2  8  1  0  0  0  0
  3  9  2  0  0  0  0
  4  9  1  0  0  0  0
  5 12  1  0  0  0  0
  5  2  1  0  0  0  0
  7  6  1  0  0  0  0
  9  7  1  0  0  0  0
 10 12  1  6  0  0  0
 10  3  1  0  0  0  0
 10 11  1  0  0  0  0
 11  8  1  1  0  0  0
 11  6  1  0  0  0  0
 13 21  1  0  0  0  0
 16 18  2  0  0  0  0
 17 13  1  0  0  0  0
 18 19  1  0  0  0  0
 18 15  2  0  0  0  0
 18 21  1  0  0  0  0
 19 13  1  0  0  0  0
 20 19  2  0  0  0  0
 21 14  2  0  0  0  0
 22 26  1  0  0  0  0
 23 27  1  0  0  0  0
 24 23  1  0  0  0  0
 25 24  1  0  0  0  0
 25 22  2  0  0  0  0
 26 27  2  0  0  0  0
M  END
>  <MODEL>
8

>  <REMARK>
 VINA RESULT:      -7.3      3.087      6.402
  Name = 
  3 active torsions:
  status: ('A' for Active; 'I' for Inactive)
    1  A    between atoms: C_1  and  C_15
    2  A    between atoms: C_2  and  C_15
    3  A    between atoms: N_11  and  C_15
                            x       y       z     vdW  Elec       q    Type
                         _______ _______ _______ _____ _____    ______ ____

>  <TORSDO>
F 3

$$$$
=
 OpenBabel11052418233D

 27 30  0  0  1  0  0  0  0  0999 V2000
  187.5980  177.8610  144.1940 C   0  0  1  0  0  3  0  0  0  0  0  0
  188.8050  177.1140  144.7840 C   0  0  2  0  0  3  0  0  0  0  0  0
  192.4370  176.1550  146.9410 C   0  0  0  0  0  3  0  0  0  0  0  0
  194.6020  175.3080  146.8900 F   0  0  0  0  0  0  0  0  0  0  0  0
  188.7950  177.1850  146.3130 C   0  0  0  0  0  2  0  0  0  0  0  0
  192.6240  177.2420  144.2890 C   0  0  0  0  0  2  0  0  0  0  0  0
  193.7430  176.3380  144.8160 C   0  0  0  0  0  2  0  0  0  0  0  0
  190.1480  177.5860  144.2160 C   0  0  0  0  0  2  0  0  0  0  0  0
  193.5910  175.9770  146.2780 C   0  0  0  0  0  0  0  0  0  0  0  0
  191.2740  176.8870  146.3310 C   0  0  1  0  0  3  0  0  0  0  0  0
  191.2800  176.7560  144.8070 C   0  0  2  0  0  3  0  0  0  0  0  0
  189.9540  176.3800  146.8990 C   0  0  0  0  0  2  0  0  0  0  0  0
  187.1780  177.5170  142.7410 C   0  0  0  0  0  0  0  0  0  0  0  0
  188.8800  178.7380  141.2670 O   0  0  0  0  0  0  0  0  0  0  0  0
  189.4230  175.3380  141.7730 O   0  0  0  0  0  0  0  0  0  0  0  0
  187.6730  175.7470  140.0160 O   0  0  0  0  0  0  0  0  0  0  0  0
  186.0200  178.1910  142.3910 F   0  0  0  0  0  0  0  0  0  0  0  0
  188.1740  176.0800  141.3940 S   0  0  0  0  0  0  0  0  0  0  0  0
  186.9390  176.0250  142.6090 C   0  0  0  0  0  0  0  0  0  0  0  0
  186.2190  175.1810  143.1140 O   0  0  0  0  0  0  0  0  0  0  0  0
  188.2590  177.7830  141.7040 C   0  0  0  0  0  0  0  0  0  0  0  0
  184.9840  176.8380  146.6610 C   0  0  0  0  0  3  0  0  0  0  0  0
  185.8750  179.2530  145.3670 C   0  0  0  0  0  2  0  0  0  0  0  0
  186.4740  177.9370  145.1280 N   0  0  0  0  0  0  0  0  0  0  0  0
  186.0900  176.7990  145.9200 C   0  0  0  0  0  3  0  0  0  0  0  0
  184.1400  178.0420  146.6600 C   0  0  0  0  0  3  0  0  0  0  0  0
  184.5290  179.1530  146.0340 C   0  0  0  0  0  3  0  0  0  0  0  0
  1 13  1  6  0  0  0
  1 24  1  0  0  0  0
  2  1  1  6  0  0  0
  2  5  1  0  0  0  0
  5 12  1  0  0  0  0
  6 11  1  0  0  0  0
  6  7  1  0  0  0  0
  7  9  1  0  0  0  0
  8  2  1  0  0  0  0
  9  4  1  0  0  0  0
  9  3  2  0  0  0  0
 10 12  1  1  0  0  0
 10  3  1  0  0  0  0
 11  8  1  6  0  0  0
 11 10  1  0  0  0  0
 14 21  2  0  0  0  0
 16 18  2  0  0  0  0
 17 13  1  0  0  0  0
 18 21  1  0  0  0  0
 18 15  2  0  0  0  0
 18 19  1  0  0  0  0
 19 13  1  0  0  0  0
 19 20  2  0  0  0  0
 21 13  1  0  0  0  0
 23 27  1  0  0  0  0
 24 23  1  0  0  0  0
 24 25  1  0  0  0  0
 25 22  2  0  0  0  0
 26 22  1  0  0  0  0
 27 26  2  0  0  0  0
M  END
>  <MODEL>
9

>  <REMARK>
 VINA RESULT:      -7.3      3.497      5.363
  Name = 
  3 active torsions:
  status: ('A' for Active; 'I' for Inactive)
    1  A    between atoms: C_1  and  C_15
    2  A    between atoms: C_2  and  C_15
    3  A    between atoms: N_11  and  C_15
                            x       y       z     vdW  Elec       q    Type
                         _______ _______ _______ _____ _____    ______ ____

>  <TORSDO>
F 3

$$$$
