=
 OpenBabel11052418323D

 27 31  0  0  1  0  0  0  0  0999 V2000
  187.9150  177.0570  144.8490 N   0  0  0  0  0  0  0  0  0  0  0  0
  189.3590  177.0470  144.7640 C   0  0  0  0  0  0  0  0  0  0  0  0
  193.4640  176.8810  144.7310 N   0  0  0  0  0  0  0  0  0  0  0  0
  194.8750  175.3900  146.1500 C   0  0  0  0  0  1  0  0  0  0  0  0
  190.0460  177.9130  143.8740 C   0  0  0  0  0  3  0  0  0  0  0  0
  192.3820  175.4800  146.1820 N   0  0  0  0  0  2  0  0  0  0  0  0
  191.4940  176.2130  145.4940 C   0  0  0  0  0  0  0  0  0  0  0  0
  193.5670  175.9190  145.6850 C   0  0  0  0  0  0  0  0  0  0  0  0
  192.1380  177.0450  144.6320 C   0  0  0  0  0  0  0  0  0  0  0  0
  190.1070  176.1810  145.5940 C   0  0  0  0  0  3  0  0  0  0  0  0
  191.4500  177.9190  143.7980 C   0  0  0  0  0  3  0  0  0  0  0  0
  185.8120  178.2810  144.9130 N   0  0  0  0  0  0  0  0  0  0  0  0
  185.5410  178.0610  147.3340 C   0  0  1  0  0  3  0  0  0  0  0  0
  185.7570  179.6840  144.5100 C   0  0  0  0  0  1  0  0  0  0  0  0
  186.2370  176.7400  147.6110 C   0  0  0  0  0  2  0  0  0  0  0  0
  187.1310  178.1050  145.5140 C   0  0  1  0  0  3  0  0  0  0  0  0
  183.5500  178.7830  145.9540 C   0  0  0  0  0  1  0  0  0  0  0  0
  187.7830  178.6630  147.8660 F   0  0  0  0  0  0  0  0  0  0  0  0
  187.0060  177.9000  147.0170 C   0  0  1  0  0  0  0  0  0  0  0  0
  184.8490  177.9810  145.9890 C   0  0  1  0  0  3  0  0  0  0  0  0
  187.1520  175.9550  144.2720 C   0  0  0  0  0  2  0  0  0  0  0  0
  187.8960  175.6080  140.0990 N   0  0  0  0  0  0  0  0  0  0  0  0
  187.4320  175.8420  142.8110 C   0  0  0  0  0  0  0  0  0  0  0  0
  188.1240  174.7360  142.3120 C   0  0  0  0  0  3  0  0  0  0  0  0
  188.3510  174.6370  140.9370 C   0  0  0  0  0  3  0  0  0  0  0  0
  187.2150  176.6890  140.5650 C   0  0  0  0  0  3  0  0  0  0  0  0
  186.9680  176.8250  141.9320 C   0  0  0  0  0  3  0  0  0  0  0  0
  2  1  1  0  0  0  0
  2 10  1  0  0  0  0
  3  8  2  0  0  0  0
  5  2  2  0  0  0  0
  7 10  2  0  0  0  0
  7  6  1  0  0  0  0
  8  4  1  0  0  0  0
  8  6  1  0  0  0  0
  9  3  1  0  0  0  0
  9  7  1  0  0  0  0
 11  5  1  0  0  0  0
 11  9  2  0  0  0  0
 12 16  1  0  0  0  0
 12 20  1  0  0  0  0
 13 15  1  1  0  0  0
 14 12  1  0  0  0  0
 16  1  1  6  0  0  0
 16 19  1  0  0  0  0
 19 13  1  0  0  0  0
 19 15  1  0  0  0  0
 19 18  1  1  0  0  0
 20 17  1  1  0  0  0
 20 13  1  0  0  0  0
 21  1  1  0  0  0  0
 22 26  2  0  0  0  0
 22 25  1  0  0  0  0
 23 21  1  0  0  0  0
 24 23  1  0  0  0  0
 25 24  2  0  0  0  0
 26 27  1  0  0  0  0
 27 23  2  0  0  0  0
M  END
>  <MODEL>
1

>  <REMARK>
 VINA RESULT:      -7.1      0.000      0.000
  Name = 
  4 active torsions:
  status: ('A' for Active; 'I' for Inactive)
    1  A    between atoms: N_1  and  C_2
    2  A    between atoms: N_1  and  C_15
    3  A    between atoms: N_1  and  C_18
    4  A    between atoms: C_9  and  C_15
                            x       y       z     vdW  Elec       q    Type
                         _______ _______ _______ _____ _____    ______ ____

>  <TORSDO>
F 4

$$$$
=
 OpenBabel11052418323D

 27 31  0  0  1  0  0  0  0  0999 V2000
  188.6140  176.8320  144.8750 N   0  0  0  0  0  0  0  0  0  0  0  0
  188.0650  177.1010  143.5650 C   0  0  0  0  0  0  0  0  0  0  0  0
  186.6250  177.6650  139.7580 N   0  0  0  0  0  0  0  0  0  0  0  0
  186.7700  176.0210  137.8850 C   0  0  0  0  0  1  0  0  0  0  0  0
  187.4310  178.3370  143.2760 C   0  0  0  0  0  3  0  0  0  0  0  0
  187.6500  175.6650  140.1930 N   0  0  0  0  0  2  0  0  0  0  0  0
  187.6500  176.4360  141.2900 C   0  0  0  0  0  0  0  0  0  0  0  0
  187.0160  176.4520  139.2860 C   0  0  0  0  0  0  0  0  0  0  0  0
  187.0410  177.6230  141.0310 C   0  0  0  0  0  0  0  0  0  0  0  0
  188.1780  176.1320  142.5410 C   0  0  0  0  0  3  0  0  0  0  0  0
  186.9090  178.6120  142.0000 C   0  0  0  0  0  3  0  0  0  0  0  0
  190.5600  176.3050  146.2380 N   0  0  0  0  0  0  0  0  0  0  0  0
  192.1730  176.8340  144.4770 C   0  0  1  0  0  3  0  0  0  0  0  0
  190.8470  177.0680  147.4510 C   0  0  0  0  0  1  0  0  0  0  0  0
  191.3890  176.4990  143.2210 C   0  0  0  0  0  2  0  0  0  0  0  0
  189.9470  177.2580  145.3190 C   0  0  1  0  0  3  0  0  0  0  0  0
  192.9670  175.5340  146.4940 C   0  0  0  0  0  1  0  0  0  0  0  0
  191.1460  178.8880  143.8440 F   0  0  0  0  0  0  0  0  0  0  0  0
  190.8940  177.5700  144.1680 C   0  0  1  0  0  0  0  0  0  0  0  0
  191.7950  175.8550  145.5690 C   0  0  1  0  0  3  0  0  0  0  0  0
  187.8340  176.0620  145.8390 C   0  0  0  0  0  2  0  0  0  0  0  0
  184.7400  178.5070  147.4330 N   0  0  0  0  0  0  0  0  0  0  0  0
  186.7470  176.9060  146.4140 C   0  0  0  0  0  0  0  0  0  0  0  0
  187.0480  177.8950  147.3550 C   0  0  0  0  0  3  0  0  0  0  0  0
  186.0190  178.6920  147.8590 C   0  0  0  0  0  3  0  0  0  0  0  0
  184.4280  177.5540  146.5130 C   0  0  0  0  0  3  0  0  0  0  0  0
  185.4280  176.7360  145.9840 C   0  0  0  0  0  3  0  0  0  0  0  0
  1 21  1  0  0  0  0
  2  1  1  0  0  0  0
  3  9  1  0  0  0  0
  4  8  1  0  0  0  0
  5  2  1  0  0  0  0
  6  7  1  0  0  0  0
  7 10  1  0  0  0  0
  8  3  2  0  0  0  0
  8  6  1  0  0  0  0
  9  7  2  0  0  0  0
  9 11  1  0  0  0  0
 10  2  2  0  0  0  0
 11  5  2  0  0  0  0
 12 14  1  0  0  0  0
 13 15  1  6  0  0  0
 13 20  1  0  0  0  0
 15 19  1  0  0  0  0
 16  1  1  6  0  0  0
 16 12  1  0  0  0  0
 19 18  1  6  0  0  0
 19 13  1  0  0  0  0
 19 16  1  0  0  0  0
 20 12  1  0  0  0  0
 20 17  1  1  0  0  0
 21 23  1  0  0  0  0
 22 25  1  0  0  0  0
 23 24  1  0  0  0  0
 24 25  2  0  0  0  0
 26 22  2  0  0  0  0
 27 23  2  0  0  0  0
 27 26  1  0  0  0  0
M  END
>  <MODEL>
2

>  <REMARK>
 VINA RESULT:      -7.1      1.781      6.409
  Name = 
  4 active torsions:
  status: ('A' for Active; 'I' for Inactive)
    1  A    between atoms: N_1  and  C_2
    2  A    between atoms: N_1  and  C_15
    3  A    between atoms: N_1  and  C_18
    4  A    between atoms: C_9  and  C_15
                            x       y       z     vdW  Elec       q    Type
                         _______ _______ _______ _____ _____    ______ ____

>  <TORSDO>
F 4

$$$$
=
 OpenBabel11052418323D

 27 31  0  0  1  0  0  0  0  0999 V2000
  189.6810  176.9600  144.3660 N   0  0  0  0  0  0  0  0  0  0  0  0
  189.4970  175.7640  143.5750 C   0  0  0  0  0  0  0  0  0  0  0  0
  188.8780  172.5080  141.1460 N   0  0  0  0  0  0  0  0  0  0  0  0
  188.2790  172.5880  138.7240 C   0  0  0  0  0  1  0  0  0  0  0  0
  189.6280  174.4750  144.1540 C   0  0  0  0  0  3  0  0  0  0  0  0
  188.6520  174.5740  140.1870 N   0  0  0  0  0  2  0  0  0  0  0  0
  188.9730  174.6950  141.4840 C   0  0  0  0  0  0  0  0  0  0  0  0
  188.6050  173.2270  140.0260 C   0  0  0  0  0  0  0  0  0  0  0  0
  189.1070  173.4680  142.0520 C   0  0  0  0  0  0  0  0  0  0  0  0
  189.1570  175.8700  142.2070 C   0  0  0  0  0  3  0  0  0  0  0  0
  189.4350  173.3080  143.3940 C   0  0  0  0  0  3  0  0  0  0  0  0
  187.3000  177.2670  144.7650 N   0  0  0  0  0  0  0  0  0  0  0  0
  187.4300  176.6910  147.1380 C   0  0  1  0  0  3  0  0  0  0  0  0
  186.6790  178.5770  144.5810 C   0  0  0  0  0  1  0  0  0  0  0  0
  188.5940  175.7170  147.1630 C   0  0  0  0  0  2  0  0  0  0  0  0
  188.6530  177.5450  145.2360 C   0  0  1  0  0  3  0  0  0  0  0  0
  185.1590  176.7430  146.0280 C   0  0  0  0  0  1  0  0  0  0  0  0
  189.3370  178.0440  147.5920 F   0  0  0  0  0  0  0  0  0  0  0  0
  188.7990  177.1410  146.6960 C   0  0  1  0  0  0  0  0  0  0  0  0
  186.6570  176.5020  145.8490 C   0  0  1  0  0  3  0  0  0  0  0  0
  190.9500  177.6780  144.3010 C   0  0  0  0  0  2  0  0  0  0  0  0
  194.1700  175.1980  145.5520 N   0  0  0  0  0  0  0  0  0  0  0  0
  192.0680  176.7910  144.7340 C   0  0  0  0  0  0  0  0  0  0  0  0
  193.0380  176.3840  143.8140 C   0  0  0  0  0  3  0  0  0  0  0  0
  194.0920  175.5760  144.2480 C   0  0  0  0  0  3  0  0  0  0  0  0
  193.2390  175.5900  146.4640 C   0  0  0  0  0  3  0  0  0  0  0  0
  192.1710  176.3970  146.0710 C   0  0  0  0  0  3  0  0  0  0  0  0
  2  5  1  0  0  0  0
  2  1  1  0  0  0  0
  3  9  1  0  0  0  0
  4  8  1  0  0  0  0
  6  7  1  0  0  0  0
  7  9  2  0  0  0  0
  7 10  1  0  0  0  0
  8  6  1  0  0  0  0
  8  3  2  0  0  0  0
  9 11  1  0  0  0  0
 10  2  2  0  0  0  0
 11  5  2  0  0  0  0
 12 16  1  0  0  0  0
 12 20  1  0  0  0  0
 13 15  1  6  0  0  0
 14 12  1  0  0  0  0
 16  1  1  6  0  0  0
 16 19  1  0  0  0  0
 19 13  1  0  0  0  0
 19 15  1  0  0  0  0
 19 18  1  1  0  0  0
 20 17  1  1  0  0  0
 20 13  1  0  0  0  0
 21  1  1  0  0  0  0
 21 23  1  0  0  0  0
 22 26  1  0  0  0  0
 23 27  1  0  0  0  0
 24 25  1  0  0  0  0
 24 23  2  0  0  0  0
 25 22  2  0  0  0  0
 27 26  2  0  0  0  0
M  END
>  <MODEL>
3

>  <REMARK>
 VINA RESULT:      -7.0      1.705      5.188
  Name = 
  4 active torsions:
  status: ('A' for Active; 'I' for Inactive)
    1  A    between atoms: N_1  and  C_2
    2  A    between atoms: N_1  and  C_15
    3  A    between atoms: N_1  and  C_18
    4  A    between atoms: C_9  and  C_15
                            x       y       z     vdW  Elec       q    Type
                         _______ _______ _______ _____ _____    ______ ____

>  <TORSDO>
F 4

$$$$
=
 OpenBabel11052418323D

 27 31  0  0  1  0  0  0  0  0999 V2000
  188.1480  176.8890  144.0560 N   0  0  0  0  0  0  0  0  0  0  0  0
  188.4410  175.8150  143.1330 C   0  0  0  0  0  0  0  0  0  0  0  0
  189.1370  172.8830  140.3400 N   0  0  0  0  0  0  0  0  0  0  0  0
  188.6200  173.0370  137.9030 C   0  0  0  0  0  1  0  0  0  0  0  0
  189.0210  174.6010  143.5830 C   0  0  0  0  0  3  0  0  0  0  0  0
  188.1910  174.8270  139.5880 N   0  0  0  0  0  2  0  0  0  0  0  0
  188.4080  174.8960  140.9090 C   0  0  0  0  0  0  0  0  0  0  0  0
  188.6500  173.5860  139.2840 C   0  0  0  0  0  0  0  0  0  0  0  0
  188.9700  173.7410  141.3550 C   0  0  0  0  0  0  0  0  0  0  0  0
  188.1250  175.9590  141.7620 C   0  0  0  0  0  3  0  0  0  0  0  0
  189.2950  173.5470  142.6930 C   0  0  0  0  0  3  0  0  0  0  0  0
  187.0260  177.7090  146.0540 N   0  0  0  0  0  0  0  0  0  0  0  0
  185.2420  178.8370  144.8200 C   0  0  1  0  0  3  0  0  0  0  0  0
  186.4720  176.7750  147.0310 C   0  0  0  0  0  1  0  0  0  0  0  0
  185.9420  179.2130  143.5260 C   0  0  0  0  0  2  0  0  0  0  0  0
  186.8710  177.0510  144.7600 C   0  0  1  0  0  3  0  0  0  0  0  0
  185.5650  179.3990  147.2630 C   0  0  0  0  0  1  0  0  0  0  0  0
  184.8040  177.0160  143.3470 F   0  0  0  0  0  0  0  0  0  0  0  0
  185.8100  177.7610  143.9300 C   0  0  1  0  0  0  0  0  0  0  0  0
  186.2280  178.9460  145.9640 C   0  0  1  0  0  3  0  0  0  0  0  0
  189.1530  177.9170  144.3070 C   0  0  0  0  0  2  0  0  0  0  0  0
  192.6460  176.2330  146.0540 N   0  0  0  0  0  0  0  0  0  0  0  0
  190.3740  177.3080  144.9110 C   0  0  0  0  0  0  0  0  0  0  0  0
  191.5740  177.2850  144.1950 C   0  0  0  0  0  3  0  0  0  0  0  0
  192.7110  176.7350  144.7900 C   0  0  0  0  0  3  0  0  0  0  0  0
  191.4890  176.2530  146.7680 C   0  0  0  0  0  3  0  0  0  0  0  0
  190.3300  176.7940  146.2100 C   0  0  0  0  0  3  0  0  0  0  0  0
  1 21  1  0  0  0  0
  2  5  1  0  0  0  0
  2  1  1  0  0  0  0
  3  9  1  0  0  0  0
  4  8  1  0  0  0  0
  6  7  1  0  0  0  0
  7  9  2  0  0  0  0
  7 10  1  0  0  0  0
  8  6  1  0  0  0  0
  8  3  2  0  0  0  0
  9 11  1  0  0  0  0
 10  2  2  0  0  0  0
 11  5  2  0  0  0  0
 12 14  1  0  0  0  0
 13 15  1  6  0  0  0
 13 20  1  0  0  0  0
 15 19  1  0  0  0  0
 16  1  1  6  0  0  0
 16 12  1  0  0  0  0
 19 18  1  6  0  0  0
 19 16  1  0  0  0  0
 19 13  1  0  0  0  0
 20 12  1  0  0  0  0
 20 17  1  1  0  0  0
 21 23  1  0  0  0  0
 22 26  1  0  0  0  0
 23 27  1  0  0  0  0
 24 25  1  0  0  0  0
 24 23  2  0  0  0  0
 25 22  2  0  0  0  0
 27 26  2  0  0  0  0
M  END
>  <MODEL>
4

>  <REMARK>
 VINA RESULT:      -6.9      1.812      5.286
  Name = 
  4 active torsions:
  status: ('A' for Active; 'I' for Inactive)
    1  A    between atoms: N_1  and  C_2
    2  A    between atoms: N_1  and  C_15
    3  A    between atoms: N_1  and  C_18
    4  A    between atoms: C_9  and  C_15
                            x       y       z     vdW  Elec       q    Type
                         _______ _______ _______ _____ _____    ______ ____

>  <TORSDO>
F 4

$$$$
=
 OpenBabel11052418323D

 27 31  0  0  1  0  0  0  0  0999 V2000
  188.5220  177.1260  143.6380 N   0  0  0  0  0  0  0  0  0  0  0  0
  188.6270  175.8970  142.8840 C   0  0  0  0  0  0  0  0  0  0  0  0
  188.8280  172.5250  140.5430 N   0  0  0  0  0  0  0  0  0  0  0  0
  188.5170  172.4470  138.0680 C   0  0  0  0  0  1  0  0  0  0  0  0
  188.8920  174.6620  143.5290 C   0  0  0  0  0  3  0  0  0  0  0  0
  188.3910  174.5030  139.4760 N   0  0  0  0  0  2  0  0  0  0  0  0
  188.5320  174.7060  140.7940 C   0  0  0  0  0  0  0  0  0  0  0  0
  188.5800  173.1620  139.3690 C   0  0  0  0  0  0  0  0  0  0  0  0
  188.7920  173.5320  141.4270 C   0  0  0  0  0  0  0  0  0  0  0  0
  188.4390  175.9130  141.4820 C   0  0  0  0  0  3  0  0  0  0  0  0
  188.9800  173.4600  142.8030 C   0  0  0  0  0  3  0  0  0  0  0  0
  189.7000  176.6390  145.7110 N   0  0  0  0  0  0  0  0  0  0  0  0
  191.8990  177.2370  144.8230 C   0  0  1  0  0  3  0  0  0  0  0  0
  189.4080  177.3950  146.9270 C   0  0  0  0  0  1  0  0  0  0  0  0
  191.7490  176.8950  143.3520 C   0  0  0  0  0  2  0  0  0  0  0  0
  189.5160  177.5860  144.6150 C   0  0  1  0  0  3  0  0  0  0  0  0
  191.7810  175.9360  146.9870 C   0  0  0  0  0  1  0  0  0  0  0  0
  191.1840  179.2680  143.8040 F   0  0  0  0  0  0  0  0  0  0  0  0
  190.8580  177.9390  143.9890 C   0  0  1  0  0  0  0  0  0  0  0  0
  191.1160  176.2340  145.6450 C   0  0  1  0  0  3  0  0  0  0  0  0
  187.3510  177.9800  143.4650 C   0  0  0  0  0  2  0  0  0  0  0  0
  184.8670  177.8540  146.9150 N   0  0  0  0  0  0  0  0  0  0  0  0
  186.4970  177.9370  144.6870 C   0  0  0  0  0  0  0  0  0  0  0  0
  186.0530  179.1240  145.2760 C   0  0  0  0  0  3  0  0  0  0  0  0
  185.2310  179.0600  146.4030 C   0  0  0  0  0  3  0  0  0  0  0  0
  185.2830  176.6870  146.3530 C   0  0  0  0  0  3  0  0  0  0  0  0
  186.1060  176.7080  145.2250 C   0  0  0  0  0  3  0  0  0  0  0  0
  2  5  1  0  0  0  0
  2  1  1  0  0  0  0
  3  9  1  0  0  0  0
  4  8  1  0  0  0  0
  6  7  1  0  0  0  0
  7  9  2  0  0  0  0
  7 10  1  0  0  0  0
  8  6  1  0  0  0  0
  8  3  2  0  0  0  0
  9 11  1  0  0  0  0
 10  2  2  0  0  0  0
 11  5  2  0  0  0  0
 12 14  1  0  0  0  0
 13 15  1  6  0  0  0
 13 20  1  0  0  0  0
 15 19  1  0  0  0  0
 16  1  1  6  0  0  0
 16 12  1  0  0  0  0
 19 18  1  6  0  0  0
 19 16  1  0  0  0  0
 19 13  1  0  0  0  0
 20 12  1  0  0  0  0
 20 17  1  1  0  0  0
 21  1  1  0  0  0  0
 21 23  1  0  0  0  0
 23 27  2  0  0  0  0
 23 24  1  0  0  0  0
 24 25  2  0  0  0  0
 25 22  1  0  0  0  0
 26 22  2  0  0  0  0
 27 26  1  0  0  0  0
M  END
>  <MODEL>
5

>  <REMARK>
 VINA RESULT:      -6.8      1.995      5.999
  Name = 
  4 active torsions:
  status: ('A' for Active; 'I' for Inactive)
    1  A    between atoms: N_1  and  C_2
    2  A    between atoms: N_1  and  C_15
    3  A    between atoms: N_1  and  C_18
    4  A    between atoms: C_9  and  C_15
                            x       y       z     vdW  Elec       q    Type
                         _______ _______ _______ _____ _____    ______ ____

>  <TORSDO>
F 4

$$$$
=
 OpenBabel11052418323D

 27 31  0  0  1  0  0  0  0  0999 V2000
  191.3920  175.1320  144.8060 N   0  0  0  0  0  0  0  0  0  0  0  0
  190.1670  175.5440  145.4540 C   0  0  0  0  0  0  0  0  0  0  0  0
  186.6890  176.9220  147.1530 N   0  0  0  0  0  0  0  0  0  0  0  0
  185.3160  178.8340  146.3230 C   0  0  0  0  0  1  0  0  0  0  0  0
  189.6970  174.8850  146.6190 C   0  0  0  0  0  3  0  0  0  0  0  0
  187.4280  178.0090  145.2800 N   0  0  0  0  0  2  0  0  0  0  0  0
  188.2650  177.0120  145.6000 C   0  0  0  0  0  0  0  0  0  0  0  0
  186.4830  177.9170  146.2510 C   0  0  0  0  0  0  0  0  0  0  0  0
  187.8260  176.3670  146.7130 C   0  0  0  0  0  0  0  0  0  0  0  0
  189.4310  176.6360  144.9390 C   0  0  0  0  0  3  0  0  0  0  0  0
  188.5140  175.2910  147.2630 C   0  0  0  0  0  3  0  0  0  0  0  0
  193.5950  174.1060  144.6740 N   0  0  0  0  0  0  0  0  0  0  0  0
  194.7450  175.9950  145.7200 C   0  0  1  0  0  3  0  0  0  0  0  0
  193.8800  172.8640  145.3880 C   0  0  0  0  0  1  0  0  0  0  0  0
  193.8750  177.1660  145.2990 C   0  0  0  0  0  2  0  0  0  0  0  0
  192.6400  174.8230  145.5140 C   0  0  1  0  0  3  0  0  0  0  0  0
  196.1250  174.2600  144.5050 C   0  0  0  0  0  1  0  0  0  0  0  0
  193.1810  176.2510  147.4980 F   0  0  0  0  0  0  0  0  0  0  0  0
  193.2970  176.0460  146.1370 C   0  0  1  0  0  0  0  0  0  0  0  0
  194.7810  174.9790  144.5960 C   0  0  1  0  0  3  0  0  0  0  0  0
  191.4390  175.0320  143.3510 C   0  0  0  0  0  2  0  0  0  0  0  0
  188.4280  172.3470  142.0060 N   0  0  0  0  0  0  0  0  0  0  0  0
  190.3960  174.0830  142.8640 C   0  0  0  0  0  0  0  0  0  0  0  0
  190.3470  172.7790  143.3630 C   0  0  0  0  0  3  0  0  0  0  0  0
  189.3450  171.9160  142.9150 C   0  0  0  0  0  3  0  0  0  0  0  0
  188.4560  173.6140  141.5140 C   0  0  0  0  0  3  0  0  0  0  0  0
  189.4410  174.5090  141.9370 C   0  0  0  0  0  3  0  0  0  0  0  0
  1  2  1  0  0  0  0
  2  5  1  0  0  0  0
  5 11  2  0  0  0  0
  6  7  1  0  0  0  0
  6  8  1  0  0  0  0
  7  9  2  0  0  0  0
  8  4  1  0  0  0  0
  8  3  2  0  0  0  0
  9  3  1  0  0  0  0
  9 11  1  0  0  0  0
 10  2  2  0  0  0  0
 10  7  1  0  0  0  0
 12 14  1  0  0  0  0
 12 16  1  0  0  0  0
 13 15  1  6  0  0  0
 13 19  1  0  0  0  0
 15 19  1  0  0  0  0
 16  1  1  6  0  0  0
 16 19  1  0  0  0  0
 19 18  1  1  0  0  0
 20 17  1  1  0  0  0
 20 12  1  0  0  0  0
 20 13  1  0  0  0  0
 21  1  1  0  0  0  0
 22 25  1  0  0  0  0
 23 21  1  0  0  0  0
 23 24  1  0  0  0  0
 25 24  2  0  0  0  0
 26 27  1  0  0  0  0
 26 22  2  0  0  0  0
 27 23  2  0  0  0  0
M  END
>  <MODEL>
6

>  <REMARK>
 VINA RESULT:      -6.8      2.267      6.638
  Name = 
  4 active torsions:
  status: ('A' for Active; 'I' for Inactive)
    1  A    between atoms: N_1  and  C_2
    2  A    between atoms: N_1  and  C_15
    3  A    between atoms: N_1  and  C_18
    4  A    between atoms: C_9  and  C_15
                            x       y       z     vdW  Elec       q    Type
                         _______ _______ _______ _____ _____    ______ ____

>  <TORSDO>
F 4

$$$$
=
 OpenBabel11052418323D

 27 31  0  0  1  0  0  0  0  0999 V2000
  190.8480  174.3580  144.3650 N   0  0  0  0  0  0  0  0  0  0  0  0
  189.8310  175.0100  145.1600 C   0  0  0  0  0  0  0  0  0  0  0  0
  186.9380  177.0450  147.2510 N   0  0  0  0  0  0  0  0  0  0  0  0
  185.6340  179.0000  146.4100 C   0  0  0  0  0  1  0  0  0  0  0  0
  189.5430  174.5750  146.4790 C   0  0  0  0  0  3  0  0  0  0  0  0
  187.3890  177.7740  145.1280 N   0  0  0  0  0  2  0  0  0  0  0  0
  188.1650  176.7240  145.4340 C   0  0  0  0  0  0  0  0  0  0  0  0
  186.6580  177.9330  146.2620 C   0  0  0  0  0  0  0  0  0  0  0  0
  187.8970  176.2910  146.6950 C   0  0  0  0  0  0  0  0  0  0  0  0
  189.1240  176.1140  144.6310 C   0  0  0  0  0  3  0  0  0  0  0  0
  188.5660  175.2140  147.2640 C   0  0  0  0  0  3  0  0  0  0  0  0
  191.8610  173.3200  142.4100 N   0  0  0  0  0  0  0  0  0  0  0  0
  189.8220  172.1490  141.7400 C   0  0  1  0  0  3  0  0  0  0  0  0
  192.3730  174.1410  141.3150 C   0  0  0  0  0  1  0  0  0  0  0  0
  189.1380  171.9160  143.0760 C   0  0  0  0  0  2  0  0  0  0  0  0
  190.7130  174.0520  142.9360 C   0  0  1  0  0  3  0  0  0  0  0  0
  192.0180  171.4450  140.7030 C   0  0  0  0  0  1  0  0  0  0  0  0
  188.3840  174.0280  142.0150 F   0  0  0  0  0  0  0  0  0  0  0  0
  189.4200  173.3230  142.5960 C   0  0  1  0  0  0  0  0  0  0  0  0
  191.3210  172.0360  141.9280 C   0  0  1  0  0  3  0  0  0  0  0  0
  192.0950  173.9350  144.9950 C   0  0  0  0  0  2  0  0  0  0  0  0
  194.5600  177.2810  145.8970 N   0  0  0  0  0  0  0  0  0  0  0  0
  192.9430  175.1220  145.3080 C   0  0  0  0  0  0  0  0  0  0  0  0
  192.9800  175.6350  146.6070 C   0  0  0  0  0  3  0  0  0  0  0  0
  193.8030  176.7290  146.8830 C   0  0  0  0  0  3  0  0  0  0  0  0
  194.5420  176.7910  144.6280 C   0  0  0  0  0  3  0  0  0  0  0  0
  193.7340  175.6990  144.3100 C   0  0  0  0  0  3  0  0  0  0  0  0
  1 21  1  0  0  0  0
  1  2  1  0  0  0  0
  2  5  1  0  0  0  0
  5 11  2  0  0  0  0
  6  7  1  0  0  0  0
  6  8  1  0  0  0  0
  7  9  2  0  0  0  0
  8  4  1  0  0  0  0
  8  3  2  0  0  0  0
  9  3  1  0  0  0  0
  9 11  1  0  0  0  0
 10  2  2  0  0  0  0
 10  7  1  0  0  0  0
 12 16  1  0  0  0  0
 13 20  1  0  0  0  0
 13 19  1  0  0  0  0
 13 15  1  1  0  0  0
 14 12  1  0  0  0  0
 16  1  1  1  0  0  0
 19 18  1  6  0  0  0
 19 16  1  0  0  0  0
 19 15  1  0  0  0  0
 20 17  1  6  0  0  0
 20 12  1  0  0  0  0
 21 23  1  0  0  0  0
 22 25  1  0  0  0  0
 23 24  1  0  0  0  0
 24 25  2  0  0  0  0
 26 22  2  0  0  0  0
 27 26  1  0  0  0  0
 27 23  2  0  0  0  0
M  END
>  <MODEL>
7

>  <REMARK>
 VINA RESULT:      -6.7      2.819      7.174
  Name = 
  4 active torsions:
  status: ('A' for Active; 'I' for Inactive)
    1  A    between atoms: N_1  and  C_2
    2  A    between atoms: N_1  and  C_15
    3  A    between atoms: N_1  and  C_18
    4  A    between atoms: C_9  and  C_15
                            x       y       z     vdW  Elec       q    Type
                         _______ _______ _______ _____ _____    ______ ____

>  <TORSDO>
F 4

$$$$
=
 OpenBabel11052418323D

 27 31  0  0  1  0  0  0  0  0999 V2000
  188.7660  176.4090  144.2970 N   0  0  0  0  0  0  0  0  0  0  0  0
  189.1830  175.3380  143.4190 C   0  0  0  0  0  0  0  0  0  0  0  0
  190.4190  172.1610  141.1260 N   0  0  0  0  0  0  0  0  0  0  0  0
  190.8670  169.8490  141.9560 C   0  0  0  0  0  1  0  0  0  0  0  0
  189.3810  175.5640  142.0320 C   0  0  0  0  0  3  0  0  0  0  0  0
  190.1160  171.7700  143.3610 N   0  0  0  0  0  2  0  0  0  0  0  0
  189.8380  173.0490  143.0700 C   0  0  0  0  0  0  0  0  0  0  0  0
  190.4650  171.2670  142.1490 C   0  0  0  0  0  0  0  0  0  0  0  0
  190.0180  173.2800  141.7430 C   0  0  0  0  0  0  0  0  0  0  0  0
  189.4230  174.0480  143.9460 C   0  0  0  0  0  3  0  0  0  0  0  0
  189.8010  174.5310  141.1750 C   0  0  0  0  0  3  0  0  0  0  0  0
  187.3720  177.4440  146.0030 N   0  0  0  0  0  0  0  0  0  0  0  0
  185.6170  178.1080  144.4340 C   0  0  1  0  0  3  0  0  0  0  0  0
  186.8180  176.6460  147.0940 C   0  0  0  0  0  1  0  0  0  0  0  0
  186.4030  178.3190  143.1520 C   0  0  0  0  0  2  0  0  0  0  0  0
  187.4140  176.5460  144.8520 C   0  0  1  0  0  3  0  0  0  0  0  0
  185.6340  179.1440  146.7400 C   0  0  0  0  0  1  0  0  0  0  0  0
  185.5150  176.0090  143.3120 F   0  0  0  0  0  0  0  0  0  0  0  0
  186.3780  176.9610  143.8180 C   0  0  1  0  0  0  0  0  0  0  0  0
  186.4670  178.5400  145.6100 C   0  0  1  0  0  3  0  0  0  0  0  0
  189.7150  177.4570  144.6560 C   0  0  0  0  0  2  0  0  0  0  0  0
  193.1040  175.8280  146.6430 N   0  0  0  0  0  0  0  0  0  0  0  0
  190.9010  176.8680  145.3430 C   0  0  0  0  0  0  0  0  0  0  0  0
  192.1550  176.8960  144.7280 C   0  0  0  0  0  3  0  0  0  0  0  0
  193.2560  176.3630  145.4010 C   0  0  0  0  0  3  0  0  0  0  0  0
  191.8930  175.7970  147.2600 C   0  0  0  0  0  3  0  0  0  0  0  0
  190.7670  176.3190  146.6210 C   0  0  0  0  0  3  0  0  0  0  0  0
  1 21  1  0  0  0  0
  2 10  1  0  0  0  0
  2  1  1  0  0  0  0
  3  9  1  0  0  0  0
  3  8  2  0  0  0  0
  4  8  1  0  0  0  0
  5  2  2  0  0  0  0
  7  6  1  0  0  0  0
  7 10  2  0  0  0  0
  8  6  1  0  0  0  0
  9  7  1  0  0  0  0
 11  9  2  0  0  0  0
 11  5  1  0  0  0  0
 12 14  1  0  0  0  0
 13 15  1  6  0  0  0
 13 20  1  0  0  0  0
 15 19  1  0  0  0  0
 16  1  1  6  0  0  0
 16 12  1  0  0  0  0
 19 18  1  6  0  0  0
 19 13  1  0  0  0  0
 19 16  1  0  0  0  0
 20 12  1  0  0  0  0
 20 17  1  1  0  0  0
 21 23  1  0  0  0  0
 22 26  1  0  0  0  0
 23 27  1  0  0  0  0
 24 23  2  0  0  0  0
 24 25  1  0  0  0  0
 25 22  2  0  0  0  0
 27 26  2  0  0  0  0
M  END
>  <MODEL>
8

>  <REMARK>
 VINA RESULT:      -6.7      2.530      4.920
  Name = 
  4 active torsions:
  status: ('A' for Active; 'I' for Inactive)
    1  A    between atoms: N_1  and  C_2
    2  A    between atoms: N_1  and  C_15
    3  A    between atoms: N_1  and  C_18
    4  A    between atoms: C_9  and  C_15
                            x       y       z     vdW  Elec       q    Type
                         _______ _______ _______ _____ _____    ______ ____

>  <TORSDO>
F 4

$$$$
=
 OpenBabel11052418323D

 27 31  0  0  1  0  0  0  0  0999 V2000
  187.6270  176.1190  143.2970 N   0  0  0  0  0  0  0  0  0  0  0  0
  188.6740  176.0590  144.2940 C   0  0  0  0  0  0  0  0  0  0  0  0
  191.8130  175.9300  146.9410 N   0  0  0  0  0  0  0  0  0  0  0  0
  194.1620  176.6180  146.4540 C   0  0  0  0  0  1  0  0  0  0  0  0
  188.4120  175.5780  145.6020 C   0  0  0  0  0  3  0  0  0  0  0  0
  192.2650  176.7020  144.8350 N   0  0  0  0  0  2  0  0  0  0  0  0
  190.9700  176.3740  144.9420 C   0  0  0  0  0  0  0  0  0  0  0  0
  192.7390  176.4160  146.0750 C   0  0  0  0  0  0  0  0  0  0  0  0
  190.7010  175.9150  146.1930 C   0  0  0  0  0  0  0  0  0  0  0  0
  189.9870  176.4610  143.9600 C   0  0  0  0  0  3  0  0  0  0  0  0
  189.4290  175.5030  146.5710 C   0  0  0  0  0  3  0  0  0  0  0  0
  186.1300  177.1380  141.6710 N   0  0  0  0  0  0  0  0  0  0  0  0
  184.9590  178.5070  143.3250 C   0  0  1  0  0  3  0  0  0  0  0  0
  186.6600  177.9670  140.5910 C   0  0  0  0  0  1  0  0  0  0  0  0
  185.0640  177.6520  144.5740 C   0  0  0  0  0  2  0  0  0  0  0  0
  187.0240  177.3630  142.8030 C   0  0  1  0  0  3  0  0  0  0  0  0
  183.9210  178.2200  141.0380 C   0  0  0  0  0  1  0  0  0  0  0  0
  186.9330  179.2760  144.4150 F   0  0  0  0  0  0  0  0  0  0  0  0
  186.3140  178.1600  143.8880 C   0  0  1  0  0  0  0  0  0  0  0  0
  184.8050  177.6030  142.1200 C   0  0  1  0  0  3  0  0  0  0  0  0
  187.0880  174.8810  142.7430 C   0  0  0  0  0  2  0  0  0  0  0  0
  190.1040  172.6880  140.6980 N   0  0  0  0  0  0  0  0  0  0  0  0
  188.1610  174.1220  142.0370 C   0  0  0  0  0  0  0  0  0  0  0  0
  188.6510  172.9310  142.5790 C   0  0  0  0  0  3  0  0  0  0  0  0
  189.6350  172.2220  141.8870 C   0  0  0  0  0  3  0  0  0  0  0  0
  189.6350  173.8420  140.1510 C   0  0  0  0  0  3  0  0  0  0  0  0
  188.6510  174.5800  140.8110 C   0  0  0  0  0  3  0  0  0  0  0  0
  1  2  1  0  0  0  0
  2  5  1  0  0  0  0
  5 11  2  0  0  0  0
  6  7  1  0  0  0  0
  6  8  1  0  0  0  0
  7  9  2  0  0  0  0
  8  4  1  0  0  0  0
  8  3  2  0  0  0  0
  9 11  1  0  0  0  0
  9  3  1  0  0  0  0
 10  2  2  0  0  0  0
 10  7  1  0  0  0  0
 12 20  1  0  0  0  0
 12 16  1  0  0  0  0
 13 19  1  0  0  0  0
 13 15  1  1  0  0  0
 14 12  1  0  0  0  0
 16  1  1  1  0  0  0
 16 19  1  0  0  0  0
 19 18  1  1  0  0  0
 19 15  1  0  0  0  0
 20 17  1  6  0  0  0
 20 13  1  0  0  0  0
 21  1  1  0  0  0  0
 22 25  1  0  0  0  0
 23 24  1  0  0  0  0
 23 21  1  0  0  0  0
 25 24  2  0  0  0  0
 26 22  2  0  0  0  0
 26 27  1  0  0  0  0
 27 23  2  0  0  0  0
M  END
>  <MODEL>
9

>  <REMARK>
 VINA RESULT:      -6.7      1.922      3.010
  Name = 
  4 active torsions:
  status: ('A' for Active; 'I' for Inactive)
    1  A    between atoms: N_1  and  C_2
    2  A    between atoms: N_1  and  C_15
    3  A    between atoms: N_1  and  C_18
    4  A    between atoms: C_9  and  C_15
                            x       y       z     vdW  Elec       q    Type
                         _______ _______ _______ _____ _____    ______ ____

>  <TORSDO>
F 4

$$$$
