=
 OpenBabel11052418053D

 28 31  0  0  1  0  0  0  0  0999 V2000
  190.8020  174.5750  143.8320 C   0  0  0  0  0  0  0  0  0  0  0  0
  190.0150  172.9400  139.5920 Cl  0  0  0  0  0  0  0  0  0  0  0  0
  187.4750  176.2120  143.0430 N   0  0  0  0  0  0  0  0  0  0  0  0
  189.5290  174.8720  141.6180 C   0  0  2  0  0  3  0  0  0  0  0  0
  188.6620  175.7950  143.7390 C   0  0  0  0  0  3  0  0  0  0  0  0
  191.2120  173.1000  141.9670 C   0  0  0  0  0  3  0  0  0  0  0  0
  188.1160  174.9420  141.0990 C   0  0  0  0  0  3  0  0  0  0  0  0
  190.2510  173.6170  141.1950 C   0  0  0  0  0  0  0  0  0  0  0  0
  187.1810  175.6200  141.7640 C   0  0  0  0  0  3  0  0  0  0  0  0
  191.5110  173.6400  143.2660 N   0  0  0  0  0  0  0  0  0  0  0  0
  189.6230  175.1120  143.1090 C   0  0  0  0  0  0  0  0  0  0  0  0
  186.0740  176.6620  144.9340 C   0  0  0  0  0  3  0  0  0  0  0  0
  185.7340  179.4240  143.6640 C   0  0  0  0  0  3  0  0  0  0  0  0
  185.5570  178.7770  146.0610 C   0  0  0  0  0  0  0  0  0  0  0  0
  186.5030  177.0350  143.7180 C   0  0  0  0  0  0  0  0  0  0  0  0
  185.7660  178.2450  141.3010 Cl  0  0  0  0  0  0  0  0  0  0  0  0
  185.8060  179.6840  145.1160 C   0  0  0  0  0  3  0  0  0  0  0  0
  185.9830  178.2620  143.0430 C   0  0  0  0  0  0  0  0  0  0  0  0
  185.6830  179.1680  147.4890 C   0  0  0  0  0  1  0  0  0  0  0  0
  185.0560  177.4120  145.7260 C   0  0  0  0  0  2  0  0  0  0  0  0
  191.1950  175.0770  145.1740 C   0  0  0  0  0  0  0  0  0  0  0  0
  190.3710  174.7830  146.2680 C   0  0  0  0  0  3  0  0  0  0  0  0
  192.6420  176.3190  146.6850 C   0  0  0  0  0  0  0  0  0  0  0  0
  190.6970  175.2560  147.5360 C   0  0  0  0  0  3  0  0  0  0  0  0
  193.2970  176.1690  144.2590 C   0  0  0  0  0  1  0  0  0  0  0  0
  192.3550  175.8610  145.3840 C   0  0  0  0  0  0  0  0  0  0  0  0
  193.8540  177.1430  146.9680 C   0  0  0  0  0  1  0  0  0  0  0  0
  191.8130  176.0060  147.7150 N   0  0  0  0  0  0  0  0  0  0  0  0
  1 21  1  0  0  0  0
  2  8  1  0  0  0  0
  3 15  1  0  0  0  0
  3  5  1  0  0  0  0
  4  7  1  1  0  0  0
  4 11  1  0  0  0  0
  6 10  1  0  0  0  0
  7  9  2  0  0  0  0
  8  4  1  0  0  0  0
  8  6  2  0  0  0  0
  9  3  1  0  0  0  0
 10  1  2  0  0  0  0
 11  5  2  0  0  0  0
 11  1  1  0  0  0  0
 12 20  1  0  0  0  0
 13 17  1  0  0  0  0
 14 19  1  0  0  0  0
 15 12  2  0  0  0  0
 16 18  1  0  0  0  0
 17 14  2  0  0  0  0
 18 13  2  0  0  0  0
 18 15  1  0  0  0  0
 20 14  1  0  0  0  0
 21 26  2  0  0  0  0
 21 22  1  0  0  0  0
 22 24  2  0  0  0  0
 23 27  1  0  0  0  0
 23 28  2  0  0  0  0
 24 28  1  0  0  0  0
 25 26  1  0  0  0  0
 26 23  1  0  0  0  0
M  END
>  <MODEL>
1

>  <REMARK>
 VINA RESULT:      -8.1      0.000      0.000
  Name = 
  2 active torsions:
  status: ('A' for Active; 'I' for Inactive)
    1  A    between atoms: C_1  and  C_2
    2  A    between atoms: N_10  and  C_13
                            x       y       z     vdW  Elec       q    Type
                         _______ _______ _______ _____ _____    ______ ____

>  <TORSDO>
F 2

$$$$
=
 OpenBabel11052418053D

 28 31  0  0  1  0  0  0  0  0999 V2000
  191.3630  174.3430  143.2950 C   0  0  0  0  0  0  0  0  0  0  0  0
  189.1390  172.6050  139.6480 Cl  0  0  0  0  0  0  0  0  0  0  0  0
  188.0010  176.0640  143.6230 N   0  0  0  0  0  0  0  0  0  0  0  0
  189.4150  174.6140  141.6380 C   0  0  2  0  0  3  0  0  0  0  0  0
  189.3450  175.6300  143.8880 C   0  0  0  0  0  3  0  0  0  0  0  0
  191.0800  172.7990  141.4630 C   0  0  0  0  0  3  0  0  0  0  0  0
  187.9120  174.7130  141.6300 C   0  0  0  0  0  3  0  0  0  0  0  0
  189.9230  173.3230  141.0450 C   0  0  0  0  0  0  0  0  0  0  0  0
  187.2740  175.4420  142.5460 C   0  0  0  0  0  3  0  0  0  0  0  0
  191.8160  173.3680  142.5590 N   0  0  0  0  0  0  0  0  0  0  0  0
  190.0190  174.8960  142.9960 C   0  0  0  0  0  0  0  0  0  0  0  0
  186.7900  178.0760  144.0990 C   0  0  0  0  0  3  0  0  0  0  0  0
  186.2240  176.7580  146.7990 C   0  0  0  0  0  3  0  0  0  0  0  0
  184.8820  178.4680  145.5870 C   0  0  0  0  0  0  0  0  0  0  0  0
  187.3340  176.9380  144.5560 C   0  0  0  0  0  0  0  0  0  0  0  0
  188.6580  175.7370  146.7140 Cl  0  0  0  0  0  0  0  0  0  0  0  0
  184.9710  177.4590  146.4530 C   0  0  0  0  0  3  0  0  0  0  0  0
  187.2850  176.5690  146.0020 C   0  0  0  0  0  0  0  0  0  0  0  0
  183.5530  179.0740  145.3170 C   0  0  0  0  0  1  0  0  0  0  0  0
  186.0940  179.0740  144.9610 C   0  0  0  0  0  2  0  0  0  0  0  0
  192.2010  174.8740  144.4010 C   0  0  0  0  0  0  0  0  0  0  0  0
  191.9790  174.3970  145.6990 C   0  0  0  0  0  3  0  0  0  0  0  0
  193.9310  176.3270  145.3040 C   0  0  0  0  0  0  0  0  0  0  0  0
  192.7310  174.8880  146.7630 C   0  0  0  0  0  3  0  0  0  0  0  0
  193.5090  176.3730  142.8230 C   0  0  0  0  0  1  0  0  0  0  0  0
  193.1970  175.8590  144.1960 C   0  0  0  0  0  0  0  0  0  0  0  0
  194.9970  177.3590  145.1480 C   0  0  0  0  0  1  0  0  0  0  0  0
  193.6810  175.8330  146.5450 N   0  0  0  0  0  0  0  0  0  0  0  0
  1 21  1  0  0  0  0
  2  8  1  0  0  0  0
  3  5  1  0  0  0  0
  3 15  1  0  0  0  0
  4  7  1  1  0  0  0
  4 11  1  0  0  0  0
  6 10  1  0  0  0  0
  7  9  2  0  0  0  0
  8  6  2  0  0  0  0
  8  4  1  0  0  0  0
  9  3  1  0  0  0  0
 10  1  2  0  0  0  0
 11  1  1  0  0  0  0
 11  5  2  0  0  0  0
 12 15  2  0  0  0  0
 12 20  1  0  0  0  0
 14 17  2  0  0  0  0
 15 18  1  0  0  0  0
 17 13  1  0  0  0  0
 18 16  1  0  0  0  0
 18 13  2  0  0  0  0
 19 14  1  0  0  0  0
 20 14  1  0  0  0  0
 21 22  1  0  0  0  0
 22 24  2  0  0  0  0
 23 28  2  0  0  0  0
 25 26  1  0  0  0  0
 26 21  2  0  0  0  0
 26 23  1  0  0  0  0
 27 23  1  0  0  0  0
 28 24  1  0  0  0  0
M  END
>  <MODEL>
2

>  <REMARK>
 VINA RESULT:      -8.0      1.733      2.181
  Name = 
  2 active torsions:
  status: ('A' for Active; 'I' for Inactive)
    1  A    between atoms: C_1  and  C_2
    2  A    between atoms: N_10  and  C_13
                            x       y       z     vdW  Elec       q    Type
                         _______ _______ _______ _____ _____    ______ ____

>  <TORSDO>
F 2

$$$$
=
 OpenBabel11052418053D

 28 31  0  0  1  0  0  0  0  0999 V2000
  190.5070  173.3010  143.8790 C   0  0  0  0  0  0  0  0  0  0  0  0
  190.6100  170.6380  140.1150 Cl  0  0  0  0  0  0  0  0  0  0  0  0
  188.4830  175.4050  141.4610 N   0  0  0  0  0  0  0  0  0  0  0  0
  190.2390  173.1820  141.3240 C   0  0  2  0  0  3  0  0  0  0  0  0
  189.1310  174.9420  142.6570 C   0  0  0  0  0  3  0  0  0  0  0  0
  190.9290  171.2450  142.6890 C   0  0  0  0  0  3  0  0  0  0  0  0
  189.2070  173.4470  140.2580 C   0  0  0  0  0  3  0  0  0  0  0  0
  190.5390  171.7140  141.5010 C   0  0  0  0  0  0  0  0  0  0  0  0
  188.4270  174.5270  140.3210 C   0  0  0  0  0  3  0  0  0  0  0  0
  190.9620  172.0810  143.8590 N   0  0  0  0  0  0  0  0  0  0  0  0
  189.9190  173.8620  142.6370 C   0  0  0  0  0  0  0  0  0  0  0  0
  186.7800  176.8250  140.5530 C   0  0  0  0  0  3  0  0  0  0  0  0
  187.0770  178.3770  143.1700 C   0  0  0  0  0  3  0  0  0  0  0  0
  185.0940  178.2030  141.6780 C   0  0  0  0  0  0  0  0  0  0  0  0
  187.7210  176.6290  141.4880 C   0  0  0  0  0  0  0  0  0  0  0  0
  189.6680  177.8720  143.0740 Cl  0  0  0  0  0  0  0  0  0  0  0  0
  185.6290  178.4010  142.8820 C   0  0  0  0  0  3  0  0  0  0  0  0
  188.0110  177.6520  142.5380 C   0  0  0  0  0  0  0  0  0  0  0  0
  183.6160  178.2370  141.5300 C   0  0  0  0  0  1  0  0  0  0  0  0
  185.9400  178.0540  140.4580 C   0  0  0  0  0  2  0  0  0  0  0  0
  190.5940  174.0930  145.1330 C   0  0  0  0  0  0  0  0  0  0  0  0
  189.5420  174.0070  146.0540 C   0  0  0  0  0  3  0  0  0  0  0  0
  191.6780  175.6830  146.6210 C   0  0  0  0  0  0  0  0  0  0  0  0
  189.5800  174.7520  147.2300 C   0  0  0  0  0  3  0  0  0  0  0  0
  192.8590  175.0450  144.4920 C   0  0  0  0  0  1  0  0  0  0  0  0
  191.6850  174.9470  145.4200 C   0  0  0  0  0  0  0  0  0  0  0  0
  192.8040  176.5940  146.9800 C   0  0  0  0  0  1  0  0  0  0  0  0
  190.6360  175.5650  147.4850 N   0  0  0  0  0  0  0  0  0  0  0  0
  1 21  1  0  0  0  0
  2  8  1  0  0  0  0
  3 15  1  0  0  0  0
  3  5  1  0  0  0  0
  4  7  1  6  0  0  0
  4  8  1  0  0  0  0
  4 11  1  0  0  0  0
  6 10  1  0  0  0  0
  7  9  2  0  0  0  0
  8  6  2  0  0  0  0
  9  3  1  0  0  0  0
 10  1  2  0  0  0  0
 11  5  2  0  0  0  0
 11  1  1  0  0  0  0
 12 15  2  0  0  0  0
 14 17  2  0  0  0  0
 15 18  1  0  0  0  0
 17 13  1  0  0  0  0
 18 16  1  0  0  0  0
 18 13  2  0  0  0  0
 19 14  1  0  0  0  0
 20 12  1  0  0  0  0
 20 14  1  0  0  0  0
 21 26  2  0  0  0  0
 21 22  1  0  0  0  0
 22 24  2  0  0  0  0
 23 27  1  0  0  0  0
 23 28  2  0  0  0  0
 24 28  1  0  0  0  0
 25 26  1  0  0  0  0
 26 23  1  0  0  0  0
M  END
>  <MODEL>
3

>  <REMARK>
 VINA RESULT:      -7.9      1.975      2.668
  Name = 
  2 active torsions:
  status: ('A' for Active; 'I' for Inactive)
    1  A    between atoms: C_1  and  C_2
    2  A    between atoms: N_10  and  C_13
                            x       y       z     vdW  Elec       q    Type
                         _______ _______ _______ _____ _____    ______ ____

>  <TORSDO>
F 2

$$$$
=
 OpenBabel11052418053D

 28 31  0  0  1  0  0  0  0  0999 V2000
  192.0860  174.6680  143.6330 C   0  0  0  0  0  0  0  0  0  0  0  0
  194.1590  177.1500  146.9210 Cl  0  0  0  0  0  0  0  0  0  0  0  0
  189.0930  176.3120  145.2790 N   0  0  0  0  0  0  0  0  0  0  0  0
  191.8330  175.8940  145.8800 C   0  0  2  0  0  3  0  0  0  0  0  0
  189.9020  175.5370  144.3800 C   0  0  0  0  0  3  0  0  0  0  0  0
  193.9990  175.6620  144.7170 C   0  0  0  0  0  3  0  0  0  0  0  0
  191.0470  177.0210  146.4970 C   0  0  0  0  0  3  0  0  0  0  0  0
  193.2960  176.2210  145.7060 C   0  0  0  0  0  0  0  0  0  0  0  0
  189.7480  177.1660  146.2360 C   0  0  0  0  0  3  0  0  0  0  0  0
  193.3750  174.8340  143.7200 N   0  0  0  0  0  0  0  0  0  0  0  0
  191.2100  175.3690  144.6050 C   0  0  0  0  0  0  0  0  0  0  0  0
  186.8710  176.6000  146.1280 C   0  0  0  0  0  3  0  0  0  0  0  0
  186.0970  176.9340  143.1880 C   0  0  0  0  0  3  0  0  0  0  0  0
  184.9680  177.8440  145.2110 C   0  0  0  0  0  0  0  0  0  0  0  0
  187.6690  176.3930  145.0700 C   0  0  0  0  0  0  0  0  0  0  0  0
  187.9020  175.0990  142.5950 Cl  0  0  0  0  0  0  0  0  0  0  0  0
  185.2570  177.9090  143.9110 C   0  0  0  0  0  3  0  0  0  0  0  0
  187.1180  176.2250  143.6910 C   0  0  0  0  0  0  0  0  0  0  0  0
  184.1220  178.9040  145.8170 C   0  0  0  0  0  1  0  0  0  0  0  0
  185.3830  176.6810  146.0490 C   0  0  0  0  0  2  0  0  0  0  0  0
  191.5330  173.7840  142.5750 C   0  0  0  0  0  0  0  0  0  0  0  0
  191.1870  174.3500  141.3420 C   0  0  0  0  0  3  0  0  0  0  0  0
  190.7700  171.6350  141.7270 C   0  0  0  0  0  0  0  0  0  0  0  0
  190.6460  173.5540  140.3340 C   0  0  0  0  0  3  0  0  0  0  0  0
  191.7150  171.7300  144.0570 C   0  0  0  0  0  1  0  0  0  0  0  0
  191.3210  172.3980  142.7750 C   0  0  0  0  0  0  0  0  0  0  0  0
  190.5300  170.1700  141.8770 C   0  0  0  0  0  1  0  0  0  0  0  0
  190.4510  172.2280  140.5470 N   0  0  0  0  0  0  0  0  0  0  0  0
  1 10  2  0  0  0  0
  1 11  1  0  0  0  0
  3  9  1  0  0  0  0
  4  7  1  6  0  0  0
  5 11  2  0  0  0  0
  5  3  1  0  0  0  0
  6  8  2  0  0  0  0
  8  4  1  0  0  0  0
  8  2  1  0  0  0  0
  9  7  2  0  0  0  0
 10  6  1  0  0  0  0
 11  4  1  0  0  0  0
 13 18  2  0  0  0  0
 13 17  1  0  0  0  0
 14 19  1  0  0  0  0
 14 20  1  0  0  0  0
 15  3  1  0  0  0  0
 15 12  2  0  0  0  0
 16 18  1  0  0  0  0
 17 14  2  0  0  0  0
 18 15  1  0  0  0  0
 20 12  1  0  0  0  0
 21 26  1  0  0  0  0
 21  1  1  0  0  0  0
 22 21  2  0  0  0  0
 23 27  1  0  0  0  0
 23 26  2  0  0  0  0
 24 28  2  0  0  0  0
 24 22  1  0  0  0  0
 26 25  1  0  0  0  0
 28 23  1  0  0  0  0
M  END
>  <MODEL>
4

>  <REMARK>
 VINA RESULT:      -7.7      2.514      4.798
  Name = 
  2 active torsions:
  status: ('A' for Active; 'I' for Inactive)
    1  A    between atoms: C_1  and  C_2
    2  A    between atoms: N_10  and  C_13
                            x       y       z     vdW  Elec       q    Type
                         _______ _______ _______ _____ _____    ______ ____

>  <TORSDO>
F 2

$$$$
=
 OpenBabel11052418053D

 28 31  0  0  1  0  0  0  0  0999 V2000
  190.5200  174.8400  145.4190 C   0  0  0  0  0  0  0  0  0  0  0  0
  191.6290  177.5400  148.9900 Cl  0  0  0  0  0  0  0  0  0  0  0  0
  194.2390  175.2970  144.8410 N   0  0  0  0  0  0  0  0  0  0  0  0
  192.2090  176.5090  146.4070 C   0  0  2  0  0  3  0  0  0  0  0  0
  192.8800  174.8520  144.7020 C   0  0  0  0  0  3  0  0  0  0  0  0
  190.0980  175.9110  147.5390 C   0  0  0  0  0  3  0  0  0  0  0  0
  193.6640  176.5880  146.7910 C   0  0  0  0  0  3  0  0  0  0  0  0
  191.2830  176.5270  147.5980 C   0  0  0  0  0  0  0  0  0  0  0  0
  194.6030  176.0520  146.0120 C   0  0  0  0  0  3  0  0  0  0  0  0
  189.7140  175.1170  146.4040 N   0  0  0  0  0  0  0  0  0  0  0  0
  191.9080  175.3630  145.4660 C   0  0  0  0  0  0  0  0  0  0  0  0
  194.9510  174.6960  142.6330 C   0  0  0  0  0  3  0  0  0  0  0  0
  197.7520  174.6470  143.8580 C   0  0  0  0  0  3  0  0  0  0  0  0
  197.0900  175.0690  141.4970 C   0  0  0  0  0  0  0  0  0  0  0  0
  195.2480  174.8040  143.9370 C   0  0  0  0  0  0  0  0  0  0  0  0
  196.6770  173.6670  146.0630 Cl  0  0  0  0  0  0  0  0  0  0  0  0
  197.9410  175.2220  142.5110 C   0  0  0  0  0  3  0  0  0  0  0  0
  196.5850  174.4080  144.4730 C   0  0  0  0  0  0  0  0  0  0  0  0
  197.3940  175.7180  140.1950 C   0  0  0  0  0  1  0  0  0  0  0  0
  195.8960  174.1800  141.6010 C   0  0  0  0  0  2  0  0  0  0  0  0
  190.0300  174.0200  144.2820 C   0  0  0  0  0  0  0  0  0  0  0  0
  190.0360  172.6250  144.4100 C   0  0  0  0  0  3  0  0  0  0  0  0
  189.1540  173.7410  142.0290 C   0  0  0  0  0  0  0  0  0  0  0  0
  189.6030  171.8240  143.3560 C   0  0  0  0  0  3  0  0  0  0  0  0
  189.5090  176.0790  142.8910 C   0  0  0  0  0  1  0  0  0  0  0  0
  189.5800  174.5920  143.0680 C   0  0  0  0  0  0  0  0  0  0  0  0
  188.6640  174.2880  140.7300 C   0  0  0  0  0  1  0  0  0  0  0  0
  189.1770  172.3930  142.2010 N   0  0  0  0  0  0  0  0  0  0  0  0
  1 11  1  0  0  0  0
  1 10  2  0  0  0  0
  3  9  1  0  0  0  0
  4  7  1  1  0  0  0
  4  8  1  0  0  0  0
  5  3  1  0  0  0  0
  5 11  2  0  0  0  0
  6  8  2  0  0  0  0
  8  2  1  0  0  0  0
  9  7  2  0  0  0  0
 10  6  1  0  0  0  0
 11  4  1  0  0  0  0
 12 15  2  0  0  0  0
 13 18  2  0  0  0  0
 14 20  1  0  0  0  0
 14 17  2  0  0  0  0
 15 18  1  0  0  0  0
 15  3  1  0  0  0  0
 17 13  1  0  0  0  0
 18 16  1  0  0  0  0
 19 14  1  0  0  0  0
 20 12  1  0  0  0  0
 21 22  1  0  0  0  0
 21  1  1  0  0  0  0
 23 28  2  0  0  0  0
 23 26  1  0  0  0  0
 24 22  2  0  0  0  0
 25 26  1  0  0  0  0
 26 21  2  0  0  0  0
 27 23  1  0  0  0  0
 28 24  1  0  0  0  0
M  END
>  <MODEL>
5

>  <REMARK>
 VINA RESULT:      -7.7      3.911      8.511
  Name = 
  2 active torsions:
  status: ('A' for Active; 'I' for Inactive)
    1  A    between atoms: C_1  and  C_2
    2  A    between atoms: N_10  and  C_13
                            x       y       z     vdW  Elec       q    Type
                         _______ _______ _______ _____ _____    ______ ____

>  <TORSDO>
F 2

$$$$
=
 OpenBabel11052418053D

 28 31  0  0  1  0  0  0  0  0999 V2000
  187.5450  175.7150  142.8280 C   0  0  0  0  0  0  0  0  0  0  0  0
  185.8990  178.8570  145.7750 Cl  0  0  0  0  0  0  0  0  0  0  0  0
  190.6320  176.4260  144.9110 N   0  0  0  0  0  0  0  0  0  0  0  0
  188.0960  177.6170  144.4690 C   0  0  2  0  0  3  0  0  0  0  0  0
  189.7430  175.8540  143.9370 C   0  0  0  0  0  3  0  0  0  0  0  0
  185.7830  176.9610  143.9070 C   0  0  0  0  0  3  0  0  0  0  0  0
  188.8790  177.8600  145.7330 C   0  0  0  0  0  3  0  0  0  0  0  0
  186.6030  177.6790  144.6800 C   0  0  0  0  0  0  0  0  0  0  0  0
  190.0910  177.3280  145.8950 C   0  0  0  0  0  3  0  0  0  0  0  0
  186.2850  176.0220  142.9390 N   0  0  0  0  0  0  0  0  0  0  0  0
  188.5190  176.3570  143.7460 C   0  0  0  0  0  0  0  0  0  0  0  0
  192.6500  175.6130  143.9080 C   0  0  0  0  0  3  0  0  0  0  0  0
  193.8650  176.0450  146.6800 C   0  0  0  0  0  3  0  0  0  0  0  0
  194.9950  176.0650  144.4630 C   0  0  0  0  0  0  0  0  0  0  0  0
  191.9810  175.9310  145.0260 C   0  0  0  0  0  0  0  0  0  0  0  0
  191.5650  175.2610  147.7150 Cl  0  0  0  0  0  0  0  0  0  0  0  0
  194.9280  176.4480  145.7370 C   0  0  0  0  0  3  0  0  0  0  0  0
  192.5890  175.7640  146.3800 C   0  0  0  0  0  0  0  0  0  0  0  0
  196.1120  176.5590  143.6170 C   0  0  0  0  0  1  0  0  0  0  0  0
  194.0400  175.0700  143.8910 C   0  0  0  0  0  2  0  0  0  0  0  0
  187.9710  174.7410  141.7900 C   0  0  0  0  0  0  0  0  0  0  0  0
  188.4490  173.4900  142.2000 C   0  0  0  0  0  3  0  0  0  0  0  0
  188.3790  174.0670  139.4880 C   0  0  0  0  0  0  0  0  0  0  0  0
  188.8760  172.5610  141.2550 C   0  0  0  0  0  3  0  0  0  0  0  0
  187.3900  176.3430  139.9080 C   0  0  0  0  0  1  0  0  0  0  0  0
  187.9340  175.0380  140.4070 C   0  0  0  0  0  0  0  0  0  0  0  0
  188.3570  174.3220  138.0180 C   0  0  0  0  0  1  0  0  0  0  0  0
  188.8330  172.8660  139.9340 N   0  0  0  0  0  0  0  0  0  0  0  0
  1 10  2  0  0  0  0
  1 11  1  0  0  0  0
  3 15  1  0  0  0  0
  3  9  1  0  0  0  0
  4  8  1  0  0  0  0
  4  7  1  1  0  0  0
  5  3  1  0  0  0  0
  6  8  2  0  0  0  0
  7  9  2  0  0  0  0
  8  2  1  0  0  0  0
 10  6  1  0  0  0  0
 11  5  2  0  0  0  0
 11  4  1  0  0  0  0
 12 15  2  0  0  0  0
 14 17  2  0  0  0  0
 15 18  1  0  0  0  0
 17 13  1  0  0  0  0
 18 13  2  0  0  0  0
 18 16  1  0  0  0  0
 19 14  1  0  0  0  0
 20 12  1  0  0  0  0
 20 14  1  0  0  0  0
 21 22  1  0  0  0  0
 21  1  1  0  0  0  0
 23 28  2  0  0  0  0
 23 26  1  0  0  0  0
 24 22  2  0  0  0  0
 25 26  1  0  0  0  0
 26 21  2  0  0  0  0
 27 23  1  0  0  0  0
 28 24  1  0  0  0  0
M  END
>  <MODEL>
6

>  <REMARK>
 VINA RESULT:      -7.7      2.613      7.341
  Name = 
  2 active torsions:
  status: ('A' for Active; 'I' for Inactive)
    1  A    between atoms: C_1  and  C_2
    2  A    between atoms: N_10  and  C_13
                            x       y       z     vdW  Elec       q    Type
                         _______ _______ _______ _____ _____    ______ ____

>  <TORSDO>
F 2

$$$$
=
 OpenBabel11052418053D

 28 31  0  0  1  0  0  0  0  0999 V2000
  186.8180  176.6740  144.0580 C   0  0  0  0  0  0  0  0  0  0  0  0
  185.4690  178.2000  148.1960 Cl  0  0  0  0  0  0  0  0  0  0  0  0
  190.1540  176.9560  145.8370 N   0  0  0  0  0  0  0  0  0  0  0  0
  187.4970  177.8640  146.2350 C   0  0  2  0  0  3  0  0  0  0  0  0
  189.1570  176.6810  144.8390 C   0  0  0  0  0  3  0  0  0  0  0  0
  185.1790  177.1610  145.7600 C   0  0  0  0  0  3  0  0  0  0  0  0
  188.4650  177.7130  147.3790 C   0  0  0  0  0  3  0  0  0  0  0  0
  186.0630  177.6360  146.6420 C   0  0  0  0  0  0  0  0  0  0  0  0
  189.7230  177.3320  147.1590 C   0  0  0  0  0  3  0  0  0  0  0  0
  185.5760  176.7400  144.4430 N   0  0  0  0  0  0  0  0  0  0  0  0
  187.8840  177.0460  145.0220 C   0  0  0  0  0  0  0  0  0  0  0  0
  192.2460  176.0010  146.5110 C   0  0  0  0  0  3  0  0  0  0  0  0
  193.0140  176.3190  143.5680 C   0  0  0  0  0  3  0  0  0  0  0  0
  193.8770  174.6870  145.2370 C   0  0  0  0  0  0  0  0  0  0  0  0
  191.5370  176.6440  145.5710 C   0  0  0  0  0  0  0  0  0  0  0  0
  191.6410  178.5750  143.5430 Cl  0  0  0  0  0  0  0  0  0  0  0  0
  193.6160  175.0340  143.9770 C   0  0  0  0  0  3  0  0  0  0  0  0
  192.1470  177.0600  144.2730 C   0  0  0  0  0  0  0  0  0  0  0  0
  194.4700  173.3530  145.5110 C   0  0  0  0  0  1  0  0  0  0  0  0
  193.6860  175.6410  146.3690 C   0  0  0  0  0  2  0  0  0  0  0  0
  187.1310  176.2370  142.6730 C   0  0  0  0  0  0  0  0  0  0  0  0
  187.8470  175.0470  142.4910 C   0  0  0  0  0  3  0  0  0  0  0  0
  187.1130  176.5160  140.2560 C   0  0  0  0  0  0  0  0  0  0  0  0
  188.1770  174.6190  141.2080 C   0  0  0  0  0  3  0  0  0  0  0  0
  185.9490  178.2460  141.6660 C   0  0  0  0  0  1  0  0  0  0  0  0
  186.7550  176.9890  141.5340 C   0  0  0  0  0  0  0  0  0  0  0  0
  186.7380  177.2630  139.0200 C   0  0  0  0  0  1  0  0  0  0  0  0
  187.8070  175.3550  140.1300 N   0  0  0  0  0  0  0  0  0  0  0  0
  1 10  2  0  0  0  0
  1 11  1  0  0  0  0
  3  9  1  0  0  0  0
  4  8  1  0  0  0  0
  4  7  1  1  0  0  0
  5 11  2  0  0  0  0
  5  3  1  0  0  0  0
  6  8  2  0  0  0  0
  8  2  1  0  0  0  0
  9  7  2  0  0  0  0
 10  6  1  0  0  0  0
 11  4  1  0  0  0  0
 13 17  1  0  0  0  0
 13 18  2  0  0  0  0
 14 19  1  0  0  0  0
 14 20  1  0  0  0  0
 15  3  1  0  0  0  0
 15 12  2  0  0  0  0
 16 18  1  0  0  0  0
 17 14  2  0  0  0  0
 18 15  1  0  0  0  0
 20 12  1  0  0  0  0
 21  1  1  0  0  0  0
 22 21  1  0  0  0  0
 23 26  1  0  0  0  0
 24 22  2  0  0  0  0
 26 25  1  0  0  0  0
 26 21  2  0  0  0  0
 27 23  1  0  0  0  0
 28 23  2  0  0  0  0
 28 24  1  0  0  0  0
M  END
>  <MODEL>
7

>  <REMARK>
 VINA RESULT:      -7.7      2.632      7.340
  Name = 
  2 active torsions:
  status: ('A' for Active; 'I' for Inactive)
    1  A    between atoms: C_1  and  C_2
    2  A    between atoms: N_10  and  C_13
                            x       y       z     vdW  Elec       q    Type
                         _______ _______ _______ _____ _____    ______ ____

>  <TORSDO>
F 2

$$$$
=
 OpenBabel11052418053D

 28 31  0  0  1  0  0  0  0  0999 V2000
  191.6840  173.9780  144.5010 C   0  0  0  0  0  0  0  0  0  0  0  0
  190.4070  170.4130  141.8680 Cl  0  0  0  0  0  0  0  0  0  0  0  0
  188.6940  175.4570  142.7000 N   0  0  0  0  0  0  0  0  0  0  0  0
  190.3890  173.2000  142.4190 C   0  0  2  0  0  3  0  0  0  0  0  0
  189.8110  175.2980  143.5900 C   0  0  0  0  0  3  0  0  0  0  0  0
  191.7210  171.6630  143.8200 C   0  0  0  0  0  3  0  0  0  0  0  0
  188.9930  173.2200  141.8550 C   0  0  0  0  0  3  0  0  0  0  0  0
  190.8400  171.8190  142.8270 C   0  0  0  0  0  0  0  0  0  0  0  0
  188.2340  174.3120  141.9570 C   0  0  0  0  0  3  0  0  0  0  0  0
  192.1760  172.7760  144.6080 N   0  0  0  0  0  0  0  0  0  0  0  0
  190.5960  174.2170  143.5210 C   0  0  0  0  0  0  0  0  0  0  0  0
  187.1090  176.9490  141.6990 C   0  0  0  0  0  3  0  0  0  0  0  0
  187.0650  178.2900  144.4470 C   0  0  0  0  0  3  0  0  0  0  0  0
  185.2860  178.2400  142.7070 C   0  0  0  0  0  0  0  0  0  0  0  0
  187.9270  176.6770  142.7270 C   0  0  0  0  0  0  0  0  0  0  0  0
  189.6510  177.7850  144.6380 Cl  0  0  0  0  0  0  0  0  0  0  0  0
  185.6650  178.3410  143.9810 C   0  0  0  0  0  3  0  0  0  0  0  0
  188.0750  177.6130  143.8810 C   0  0  0  0  0  0  0  0  0  0  0  0
  183.8380  178.2910  142.3780 C   0  0  0  0  0  1  0  0  0  0  0  0
  186.2800  178.1840  141.5950 C   0  0  0  0  0  2  0  0  0  0  0  0
  192.2260  175.0680  145.3520 C   0  0  0  0  0  0  0  0  0  0  0  0
  193.4210  175.6890  144.9660 C   0  0  0  0  0  3  0  0  0  0  0  0
  192.1890  176.5090  147.3120 C   0  0  0  0  0  0  0  0  0  0  0  0
  193.9690  176.6990  145.7520 C   0  0  0  0  0  3  0  0  0  0  0  0
  190.2930  174.8870  146.9870 C   0  0  0  0  0  1  0  0  0  0  0  0
  191.5960  175.4840  146.5490 C   0  0  0  0  0  0  0  0  0  0  0  0
  191.5660  176.9940  148.5780 C   0  0  0  0  0  1  0  0  0  0  0  0
  193.3490  177.0830  146.8960 N   0  0  0  0  0  0  0  0  0  0  0  0
  1 10  2  0  0  0  0
  1 21  1  0  0  0  0
  2  8  1  0  0  0  0
  3 15  1  0  0  0  0
  3  5  1  0  0  0  0
  4  7  1  1  0  0  0
  4  8  1  0  0  0  0
  4 11  1  0  0  0  0
  6 10  1  0  0  0  0
  7  9  2  0  0  0  0
  8  6  2  0  0  0  0
  9  3  1  0  0  0  0
 11  5  2  0  0  0  0
 11  1  1  0  0  0  0
 12 15  2  0  0  0  0
 14 17  2  0  0  0  0
 15 18  1  0  0  0  0
 17 13  1  0  0  0  0
 18 13  2  0  0  0  0
 18 16  1  0  0  0  0
 19 14  1  0  0  0  0
 20 12  1  0  0  0  0
 20 14  1  0  0  0  0
 21 26  1  0  0  0  0
 22 21  2  0  0  0  0
 22 24  1  0  0  0  0
 23 27  1  0  0  0  0
 24 28  2  0  0  0  0
 26 25  1  0  0  0  0
 26 23  2  0  0  0  0
 28 23  1  0  0  0  0
M  END
>  <MODEL>
8

>  <REMARK>
 VINA RESULT:      -7.6      1.845      2.813
  Name = 
  2 active torsions:
  status: ('A' for Active; 'I' for Inactive)
    1  A    between atoms: C_1  and  C_2
    2  A    between atoms: N_10  and  C_13
                            x       y       z     vdW  Elec       q    Type
                         _______ _______ _______ _____ _____    ______ ____

>  <TORSDO>
F 2

$$$$
=
 OpenBabel11052418053D

 28 31  0  0  1  0  0  0  0  0999 V2000
  191.6550  173.5730  142.4780 C   0  0  0  0  0  0  0  0  0  0  0  0
  188.9170  172.2460  139.0120 Cl  0  0  0  0  0  0  0  0  0  0  0  0
  188.6590  175.8300  143.0310 N   0  0  0  0  0  0  0  0  0  0  0  0
  189.6660  174.1720  140.9620 C   0  0  2  0  0  3  0  0  0  0  0  0
  189.9280  175.1760  143.2040 C   0  0  0  0  0  3  0  0  0  0  0  0
  190.9870  172.1050  140.6830 C   0  0  0  0  0  3  0  0  0  0  0  0
  188.2040  174.5210  141.0600 C   0  0  0  0  0  3  0  0  0  0  0  0
  189.9080  172.8170  140.3450 C   0  0  0  0  0  0  0  0  0  0  0  0
  187.7640  175.3420  142.0140 C   0  0  0  0  0  3  0  0  0  0  0  0
  191.8850  172.5390  141.7200 N   0  0  0  0  0  0  0  0  0  0  0  0
  190.4040  174.3430  142.2720 C   0  0  0  0  0  0  0  0  0  0  0  0
  187.0130  177.3700  143.8430 C   0  0  0  0  0  3  0  0  0  0  0  0
  188.6930  177.3770  146.3980 C   0  0  0  0  0  3  0  0  0  0  0  0
  186.2620  177.8340  146.1290 C   0  0  0  0  0  0  0  0  0  0  0  0
  188.2170  176.7990  144.0020 C   0  0  0  0  0  0  0  0  0  0  0  0
  190.8470  177.2050  144.8790 Cl  0  0  0  0  0  0  0  0  0  0  0  0
  187.2940  177.4280  146.8680 C   0  0  0  0  0  3  0  0  0  0  0  0
  189.1120  177.1580  145.1430 C   0  0  0  0  0  0  0  0  0  0  0  0
  184.9000  177.8180  146.7220 C   0  0  0  0  0  1  0  0  0  0  0  0
  186.4500  178.4010  144.7620 C   0  0  0  0  0  2  0  0  0  0  0  0
  192.6460  173.9510  143.5180 C   0  0  0  0  0  0  0  0  0  0  0  0
  192.6480  173.2490  144.7300 C   0  0  0  0  0  3  0  0  0  0  0  0
  194.4620  175.3180  144.3850 C   0  0  0  0  0  0  0  0  0  0  0  0
  193.5500  173.5900  145.7350 C   0  0  0  0  0  3  0  0  0  0  0  0
  193.6450  175.7630  142.0470 C   0  0  0  0  0  1  0  0  0  0  0  0
  193.5710  175.0070  143.3390 C   0  0  0  0  0  0  0  0  0  0  0  0
  195.4630  176.4170  144.2510 C   0  0  0  0  0  1  0  0  0  0  0  0
  194.4270  174.6070  145.5430 N   0  0  0  0  0  0  0  0  0  0  0  0
  1 21  1  0  0  0  0
  2  8  1  0  0  0  0
  3  5  1  0  0  0  0
  3 15  1  0  0  0  0
  4  7  1  1  0  0  0
  4 11  1  0  0  0  0
  6 10  1  0  0  0  0
  7  9  2  0  0  0  0
  8  6  2  0  0  0  0
  8  4  1  0  0  0  0
  9  3  1  0  0  0  0
 10  1  2  0  0  0  0
 11  1  1  0  0  0  0
 11  5  2  0  0  0  0
 12 15  2  0  0  0  0
 12 20  1  0  0  0  0
 13 17  1  0  0  0  0
 14 19  1  0  0  0  0
 14 17  2  0  0  0  0
 15 18  1  0  0  0  0
 16 18  1  0  0  0  0
 18 13  2  0  0  0  0
 20 14  1  0  0  0  0
 21 22  1  0  0  0  0
 22 24  2  0  0  0  0
 23 28  2  0  0  0  0
 25 26  1  0  0  0  0
 26 21  2  0  0  0  0
 26 23  1  0  0  0  0
 27 23  1  0  0  0  0
 28 24  1  0  0  0  0
M  END
>  <MODEL>
9

>  <REMARK>
 VINA RESULT:      -7.6      2.184      2.646
  Name = 
  2 active torsions:
  status: ('A' for Active; 'I' for Inactive)
    1  A    between atoms: C_1  and  C_2
    2  A    between atoms: N_10  and  C_13
                            x       y       z     vdW  Elec       q    Type
                         _______ _______ _______ _____ _____    ______ ____

>  <TORSDO>
F 2

$$$$
