=
 OpenBabel11052418063D

 28 31  0  0  1  0  0  0  0  0999 V2000
  187.6800  176.7080  145.9210 C   0  0  1  0  0  3  0  0  0  0  0  0
  184.2060  178.4870  144.8180 O   0  0  0  0  0  0  0  0  0  0  0  0
  188.5920  176.5490  142.7330 N   0  0  0  0  0  0  0  0  0  0  0  0
  186.2970  177.7180  144.0240 C   0  0  1  0  0  3  0  0  0  0  0  0
  188.8160  177.5490  143.7940 C   0  0  0  0  0  2  0  0  0  0  0  0
  185.1700  176.8030  146.1650 C   0  0  0  0  0  2  0  0  0  0  0  0
  186.1600  176.5240  143.0670 C   0  0  0  0  0  2  0  0  0  0  0  0
  185.1550  177.7380  144.9960 C   0  0  0  0  0  0  0  0  0  0  0  0
  187.4370  175.6910  142.9940 C   0  0  0  0  0  2  0  0  0  0  0  0
  186.5090  176.8980  146.8920 C   0  0  0  0  0  2  0  0  0  0  0  0
  187.6420  177.7440  144.7750 C   0  0  2  0  0  3  0  0  0  0  0  0
  188.9960  176.6820  146.6540 C   0  0  0  0  0  0  0  0  0  0  0  0
  189.3650  177.8390  147.3510 C   0  0  0  0  0  3  0  0  0  0  0  0
  191.0470  175.6070  147.4220 C   0  0  0  0  0  0  0  0  0  0  0  0
  190.5580  177.8860  148.0760 C   0  0  0  0  0  3  0  0  0  0  0  0
  189.4900  174.2890  145.9670 C   0  0  0  0  0  1  0  0  0  0  0  0
  189.8480  175.5520  146.6830 C   0  0  0  0  0  0  0  0  0  0  0  0
  191.9020  174.5100  147.4760 O   0  0  0  0  0  1  0  0  0  0  0  0
  191.3960  176.7700  148.1120 C   0  0  0  0  0  3  0  0  0  0  0  0
  189.7550  175.6790  142.7360 C   0  0  0  0  0  2  0  0  0  0  0  0
  190.9850  176.4390  143.2060 C   0  0  0  0  0  2  0  0  0  0  0  0
  192.2510  175.6220  142.9260 C   0  0  2  0  0  3  0  0  0  0  0  0
  193.3760  175.8780  143.7920 N   0  0  0  0  0  0  0  0  0  0  0  0
  194.1460  175.6900  141.6100 C   0  0  0  0  0  1  0  0  0  0  0  0
  193.2970  176.4820  142.4840 N   0  0  0  0  0  0  0  0  0  0  0  0
  193.1810  176.9590  144.7570 C   0  0  0  0  0  2  0  0  0  0  0  0
  194.8360  175.7270  146.0900 C   0  0  0  0  0  2  0  0  0  0  0  0
  194.1960  176.8680  145.8500 C   0  0  0  0  0  3  0  0  0  0  0  0
  1 12  1  1  0  0  0
  1 10  1  0  0  0  0
  2  8  2  0  0  0  0
  3 20  1  0  0  0  0
  3  9  1  0  0  0  0
  3  5  1  0  0  0  0
  4  7  1  1  0  0  0
  4 11  1  0  0  0  0
  4  8  1  0  0  0  0
  6 10  1  0  0  0  0
  8  6  1  0  0  0  0
  9  7  1  0  0  0  0
 11  5  1  6  0  0  0
 11  1  1  0  0  0  0
 12 17  2  0  0  0  0
 12 13  1  0  0  0  0
 13 15  2  0  0  0  0
 14 18  1  0  0  0  0
 14 19  2  0  0  0  0
 15 19  1  0  0  0  0
 16 17  1  0  0  0  0
 17 14  1  0  0  0  0
 20 21  1  0  0  0  0
 22 21  1  1  0  0  0
 22 23  1  0  0  0  0
 23 26  1  0  0  0  0
 24 25  1  0  0  0  0
 25 22  1  0  0  0  0
 25 23  1  0  0  0  0
 26 28  1  0  0  0  0
 28 27  2  0  0  0  0
M  END
>  <MODEL>
1

>  <REMARK>
 VINA RESULT:      -7.1      0.000      0.000
  Name = 
  6 active torsions:
  status: ('A' for Active; 'I' for Inactive)
    1  A    between atoms: C_1  and  C_2
    2  A    between atoms: C_4  and  C_12
    3  A    between atoms: C_4  and  C_13
    4  A    between atoms: C_9  and  N_15
    5  A    between atoms: C_9  and  C_18
    6  A    between atoms: N_10  and  C_13
                            x       y       z     vdW  Elec       q    Type
                         _______ _______ _______ _____ _____    ______ ____

>  <TORSDO>
F 6

$$$$
=
 OpenBabel11052418063D

 28 31  0  0  1  0  0  0  0  0999 V2000
  191.0700  176.0600  144.4120 C   0  0  1  0  0  3  0  0  0  0  0  0
  194.5130  176.6040  146.4860 O   0  0  0  0  0  0  0  0  0  0  0  0
  189.3550  176.2160  147.2520 N   0  0  0  0  0  0  0  0  0  0  0  0
  192.1550  176.5650  146.6710 C   0  0  1  0  0  3  0  0  0  0  0  0
  189.7450  177.2320  146.2550 C   0  0  0  0  0  2  0  0  0  0  0  0
  193.4520  175.3270  144.8050 C   0  0  0  0  0  2  0  0  0  0  0  0
  191.6520  175.3950  147.5280 C   0  0  0  0  0  2  0  0  0  0  0  0
  193.4570  176.2070  146.0160 C   0  0  0  0  0  0  0  0  0  0  0  0
  190.2050  175.0260  147.2130 C   0  0  0  0  0  2  0  0  0  0  0  0
  192.4510  175.8540  143.7810 C   0  0  0  0  0  2  0  0  0  0  0  0
  191.1330  177.0300  145.6150 C   0  0  2  0  0  3  0  0  0  0  0  0
  190.0530  176.4660  143.3770 C   0  0  0  0  0  0  0  0  0  0  0  0
  190.0100  177.8180  143.0150 C   0  0  0  0  0  3  0  0  0  0  0  0
  188.2720  176.0150  141.7720 C   0  0  0  0  0  0  0  0  0  0  0  0
  189.1130  178.2690  142.0450 C   0  0  0  0  0  3  0  0  0  0  0  0
  189.1890  174.0960  143.0970 C   0  0  0  0  0  1  0  0  0  0  0  0
  189.1700  175.5520  142.7540 C   0  0  0  0  0  0  0  0  0  0  0  0
  187.3970  175.1390  141.1360 O   0  0  0  0  0  1  0  0  0  0  0  0
  188.2470  177.3680  141.4240 C   0  0  0  0  0  3  0  0  0  0  0  0
  188.0190  175.7750  146.8880 C   0  0  0  0  0  2  0  0  0  0  0  0
  187.4340  176.6830  145.8180 C   0  0  0  0  0  2  0  0  0  0  0  0
  185.9830  177.0380  146.1610 C   0  0  2  0  0  3  0  0  0  0  0  0
  185.3690  178.0550  145.3430 N   0  0  0  0  0  0  0  0  0  0  0  0
  184.7860  178.4310  147.5580 C   0  0  0  0  0  1  0  0  0  0  0  0
  185.9110  178.3780  146.6400 N   0  0  0  0  0  0  0  0  0  0  0  0
  186.2540  178.6780  144.3600 C   0  0  0  0  0  2  0  0  0  0  0  0
  184.3820  178.2880  142.8180 C   0  0  0  0  0  2  0  0  0  0  0  0
  185.5180  178.9270  143.0830 C   0  0  0  0  0  3  0  0  0  0  0  0
  1 12  1  6  0  0  0
  1 11  1  0  0  0  0
  4  7  1  6  0  0  0
  5  3  1  0  0  0  0
  6  8  1  0  0  0  0
  8  2  2  0  0  0  0
  8  4  1  0  0  0  0
  9  3  1  0  0  0  0
  9  7  1  0  0  0  0
 10  1  1  0  0  0  0
 10  6  1  0  0  0  0
 11  5  1  1  0  0  0
 11  4  1  0  0  0  0
 13 12  1  0  0  0  0
 14 17  1  0  0  0  0
 15 13  2  0  0  0  0
 17 16  1  0  0  0  0
 17 12  2  0  0  0  0
 18 14  1  0  0  0  0
 19 14  2  0  0  0  0
 19 15  1  0  0  0  0
 20  3  1  0  0  0  0
 21 20  1  0  0  0  0
 22 21  1  6  0  0  0
 22 25  1  0  0  0  0
 23 22  1  0  0  0  0
 23 25  1  0  0  0  0
 25 24  1  0  0  0  0
 26 23  1  0  0  0  0
 27 28  2  0  0  0  0
 28 26  1  0  0  0  0
M  END
>  <MODEL>
2

>  <REMARK>
 VINA RESULT:      -6.8      2.531      6.975
  Name = 
  6 active torsions:
  status: ('A' for Active; 'I' for Inactive)
    1  A    between atoms: C_1  and  C_2
    2  A    between atoms: C_4  and  C_12
    3  A    between atoms: C_4  and  C_13
    4  A    between atoms: C_9  and  N_15
    5  A    between atoms: C_9  and  C_18
    6  A    between atoms: N_10  and  C_13
                            x       y       z     vdW  Elec       q    Type
                         _______ _______ _______ _____ _____    ______ ____

>  <TORSDO>
F 6

$$$$
=
 OpenBabel11052418063D

 28 31  0  0  1  0  0  0  0  0999 V2000
  187.5860  176.6580  145.7900 C   0  0  1  0  0  3  0  0  0  0  0  0
  184.0750  178.6700  145.5260 O   0  0  0  0  0  0  0  0  0  0  0  0
  187.9610  176.9130  142.5010 N   0  0  0  0  0  0  0  0  0  0  0  0
  185.9680  177.9580  144.2990 C   0  0  1  0  0  3  0  0  0  0  0  0
  188.4040  177.7500  143.6320 C   0  0  0  0  0  2  0  0  0  0  0  0
  185.1570  176.7900  146.4610 C   0  0  0  0  0  2  0  0  0  0  0  0
  185.6170  176.9120  143.2320 C   0  0  0  0  0  2  0  0  0  0  0  0
  185.0010  177.8770  145.4430 C   0  0  0  0  0  0  0  0  0  0  0  0
  186.8210  176.0610  142.8370 C   0  0  0  0  0  2  0  0  0  0  0  0
  186.5990  176.7460  146.9590 C   0  0  0  0  0  2  0  0  0  0  0  0
  187.4170  177.8430  144.8120 C   0  0  2  0  0  3  0  0  0  0  0  0
  189.0000  176.4930  146.2830 C   0  0  0  0  0  0  0  0  0  0  0  0
  189.4980  177.4780  147.1460 C   0  0  0  0  0  3  0  0  0  0  0  0
  191.1250  175.3080  146.4670 C   0  0  0  0  0  0  0  0  0  0  0  0
  190.7910  177.3860  147.6650 C   0  0  0  0  0  3  0  0  0  0  0  0
  189.3320  174.3130  145.0280 C   0  0  0  0  0  1  0  0  0  0  0  0
  189.8240  175.3970  145.9330 C   0  0  0  0  0  0  0  0  0  0  0  0
  191.9560  174.2380  146.1480 O   0  0  0  0  0  1  0  0  0  0  0  0
  191.6010  176.3010  147.3270 C   0  0  0  0  0  3  0  0  0  0  0  0
  189.0640  176.0170  142.1950 C   0  0  0  0  0  2  0  0  0  0  0  0
  188.5900  174.8780  141.3070 C   0  0  0  0  0  2  0  0  0  0  0  0
  189.5860  173.7140  141.3630 C   0  0  2  0  0  3  0  0  0  0  0  0
  189.4100  172.6800  140.3730 N   0  0  0  0  0  0  0  0  0  0  0  0
  189.8750  171.6820  142.4160 C   0  0  0  0  0  1  0  0  0  0  0  0
  188.9100  172.5120  141.7160 N   0  0  0  0  0  0  0  0  0  0  0  0
  188.2380  172.8380  139.5140 C   0  0  0  0  0  2  0  0  0  0  0  0
  188.5920  174.1640  137.4760 C   0  0  0  0  0  2  0  0  0  0  0  0
  188.6560  172.9840  138.0860 C   0  0  0  0  0  3  0  0  0  0  0  0
  1 12  1  1  0  0  0
  1 10  1  0  0  0  0
  3  9  1  0  0  0  0
  3  5  1  0  0  0  0
  4  7  1  6  0  0  0
  4 11  1  0  0  0  0
  4  8  1  0  0  0  0
  6 10  1  0  0  0  0
  8  2  2  0  0  0  0
  8  6  1  0  0  0  0
  9  7  1  0  0  0  0
 11  5  1  6  0  0  0
 11  1  1  0  0  0  0
 12 13  1  0  0  0  0
 13 15  2  0  0  0  0
 14 19  2  0  0  0  0
 16 17  1  0  0  0  0
 17 12  2  0  0  0  0
 17 14  1  0  0  0  0
 18 14  1  0  0  0  0
 19 15  1  0  0  0  0
 20  3  1  0  0  0  0
 21 20  1  0  0  0  0
 22 21  1  6  0  0  0
 22 25  1  0  0  0  0
 23 22  1  0  0  0  0
 23 25  1  0  0  0  0
 25 24  1  0  0  0  0
 26 23  1  0  0  0  0
 27 28  2  0  0  0  0
 28 26  1  0  0  0  0
M  END
>  <MODEL>
3

>  <REMARK>
 VINA RESULT:      -6.7      2.365      3.936
  Name = 
  6 active torsions:
  status: ('A' for Active; 'I' for Inactive)
    1  A    between atoms: C_1  and  C_2
    2  A    between atoms: C_4  and  C_12
    3  A    between atoms: C_4  and  C_13
    4  A    between atoms: C_9  and  N_15
    5  A    between atoms: C_9  and  C_18
    6  A    between atoms: N_10  and  C_13
                            x       y       z     vdW  Elec       q    Type
                         _______ _______ _______ _____ _____    ______ ____

>  <TORSDO>
F 6

$$$$
=
 OpenBabel11052418063D

 28 31  0  0  1  0  0  0  0  0999 V2000
  187.4250  176.5740  145.8830 C   0  0  1  0  0  3  0  0  0  0  0  0
  184.2300  179.0630  145.6790 O   0  0  0  0  0  0  0  0  0  0  0  0
  187.9730  177.0390  142.6410 N   0  0  0  0  0  0  0  0  0  0  0  0
  186.0610  178.2000  144.4570 C   0  0  1  0  0  3  0  0  0  0  0  0
  188.4750  177.7140  143.8530 C   0  0  0  0  0  2  0  0  0  0  0  0
  185.0090  176.9840  146.4840 C   0  0  0  0  0  2  0  0  0  0  0  0
  185.6200  177.3000  143.2940 C   0  0  0  0  0  2  0  0  0  0  0  0
  185.0440  178.1600  145.5580 C   0  0  0  0  0  0  0  0  0  0  0  0
  186.7160  176.3260  142.8670 C   0  0  0  0  0  2  0  0  0  0  0  0
  186.4090  176.7030  147.0230 C   0  0  0  0  0  2  0  0  0  0  0  0
  187.4580  177.8460  145.0050 C   0  0  2  0  0  3  0  0  0  0  0  0
  188.7820  176.1780  146.4050 C   0  0  0  0  0  0  0  0  0  0  0  0
  189.2830  174.9320  146.0100 C   0  0  0  0  0  3  0  0  0  0  0  0
  190.8360  176.5670  147.6620 C   0  0  0  0  0  0  0  0  0  0  0  0
  190.5430  174.5020  146.4310 C   0  0  0  0  0  3  0  0  0  0  0  0
  189.0770  178.3510  147.6830 C   0  0  0  0  0  1  0  0  0  0  0  0
  189.5630  177.0050  147.2470 C   0  0  0  0  0  0  0  0  0  0  0  0
  191.6320  177.3610  148.4830 O   0  0  0  0  0  1  0  0  0  0  0  0
  191.3190  175.3200  147.2540 C   0  0  0  0  0  3  0  0  0  0  0  0
  188.9580  176.0280  142.2960 C   0  0  0  0  0  2  0  0  0  0  0  0
  190.3330  176.4320  142.8040 C   0  0  0  0  0  2  0  0  0  0  0  0
  191.2730  175.2220  142.8050 C   0  0  2  0  0  3  0  0  0  0  0  0
  192.5090  175.3790  143.5310 N   0  0  0  0  0  0  0  0  0  0  0  0
  192.9560  174.2880  141.5320 C   0  0  0  0  0  1  0  0  0  0  0  0
  192.4690  175.5350  142.0970 N   0  0  0  0  0  0  0  0  0  0  0  0
  192.7370  176.7130  144.0840 C   0  0  0  0  0  2  0  0  0  0  0  0
  194.4940  175.5450  145.3420 C   0  0  0  0  0  2  0  0  0  0  0  0
  193.8580  176.6820  145.0720 C   0  0  0  0  0  3  0  0  0  0  0  0
  1 12  1  1  0  0  0
  1 10  1  0  0  0  0
  3  9  1  0  0  0  0
  3  5  1  0  0  0  0
  4  7  1  6  0  0  0
  4 11  1  0  0  0  0
  4  8  1  0  0  0  0
  6 10  1  0  0  0  0
  8  2  2  0  0  0  0
  8  6  1  0  0  0  0
  9  7  1  0  0  0  0
 11  5  1  6  0  0  0
 11  1  1  0  0  0  0
 12 17  1  0  0  0  0
 13 12  2  0  0  0  0
 13 15  1  0  0  0  0
 14 18  1  0  0  0  0
 15 19  2  0  0  0  0
 17 14  2  0  0  0  0
 17 16  1  0  0  0  0
 19 14  1  0  0  0  0
 20  3  1  0  0  0  0
 20 21  1  0  0  0  0
 22 21  1  1  0  0  0
 22 23  1  0  0  0  0
 23 26  1  0  0  0  0
 24 25  1  0  0  0  0
 25 22  1  0  0  0  0
 25 23  1  0  0  0  0
 26 28  1  0  0  0  0
 28 27  2  0  0  0  0
M  END
>  <MODEL>
4

>  <REMARK>
 VINA RESULT:      -6.7      1.033      1.649
  Name = 
  6 active torsions:
  status: ('A' for Active; 'I' for Inactive)
    1  A    between atoms: C_1  and  C_2
    2  A    between atoms: C_4  and  C_12
    3  A    between atoms: C_4  and  C_13
    4  A    between atoms: C_9  and  N_15
    5  A    between atoms: C_9  and  C_18
    6  A    between atoms: N_10  and  C_13
                            x       y       z     vdW  Elec       q    Type
                         _______ _______ _______ _____ _____    ______ ____

>  <TORSDO>
F 6

$$$$
=
 OpenBabel11052418063D

 28 31  0  0  1  0  0  0  0  0999 V2000
  188.4000  176.7700  145.1340 C   0  0  1  0  0  3  0  0  0  0  0  0
  185.2670  179.0360  146.3580 O   0  0  0  0  0  0  0  0  0  0  0  0
  187.2080  176.8260  142.0350 N   0  0  0  0  0  0  0  0  0  0  0  0
  186.3340  178.1160  144.4580 C   0  0  1  0  0  3  0  0  0  0  0  0
  188.1650  177.6820  142.7600 C   0  0  0  0  0  2  0  0  0  0  0  0
  186.5730  177.1270  146.8380 C   0  0  0  0  0  2  0  0  0  0  0  0
  185.4780  177.0470  143.7640 C   0  0  0  0  0  2  0  0  0  0  0  0
  186.0100  178.1690  145.9220 C   0  0  0  0  0  0  0  0  0  0  0  0
  186.3180  176.0840  142.9290 C   0  0  0  0  0  2  0  0  0  0  0  0
  188.0770  176.9950  146.6150 C   0  0  0  0  0  2  0  0  0  0  0  0
  187.8480  177.9130  144.2510 C   0  0  2  0  0  3  0  0  0  0  0  0
  189.8710  176.5200  144.9290 C   0  0  0  0  0  0  0  0  0  0  0  0
  190.6510  177.6000  144.4970 C   0  0  0  0  0  3  0  0  0  0  0  0
  191.8790  175.1350  144.9800 C   0  0  0  0  0  0  0  0  0  0  0  0
  192.0270  177.4560  144.3070 C   0  0  0  0  0  3  0  0  0  0  0  0
  189.7000  174.0910  145.6440 C   0  0  0  0  0  1  0  0  0  0  0  0
  190.4890  175.2690  145.1680 C   0  0  0  0  0  0  0  0  0  0  0  0
  192.5160  173.9200  145.2140 O   0  0  0  0  0  1  0  0  0  0  0  0
  192.6390  176.2260  144.5500 C   0  0  0  0  0  3  0  0  0  0  0  0
  187.9980  175.8310  141.3290 C   0  0  0  0  0  2  0  0  0  0  0  0
  188.2300  174.6150  142.2120 C   0  0  0  0  0  2  0  0  0  0  0  0
  188.1800  173.3340  141.3710 C   0  0  2  0  0  3  0  0  0  0  0  0
  189.4470  172.6940  141.1150 N   0  0  0  0  0  0  0  0  0  0  0  0
  188.1920  172.6670  139.1620 C   0  0  0  0  0  1  0  0  0  0  0  0
  188.8350  173.5460  140.1240 N   0  0  0  0  0  0  0  0  0  0  0  0
  190.6170  173.4160  141.6120 C   0  0  0  0  0  2  0  0  0  0  0  0
  191.0680  171.4820  143.0580 C   0  0  0  0  0  2  0  0  0  0  0  0
  191.5440  172.4790  142.3170 C   0  0  0  0  0  3  0  0  0  0  0  0
  1 12  1  1  0  0  0
  1 10  1  0  0  0  0
  3  5  1  0  0  0  0
  3  9  1  0  0  0  0
  4  7  1  1  0  0  0
  4  8  1  0  0  0  0
  8  2  2  0  0  0  0
  8  6  1  0  0  0  0
  9  7  1  0  0  0  0
 10  6  1  0  0  0  0
 11  5  1  6  0  0  0
 11  4  1  0  0  0  0
 11  1  1  0  0  0  0
 12 17  1  0  0  0  0
 13 12  2  0  0  0  0
 14 17  2  0  0  0  0
 14 18  1  0  0  0  0
 15 13  1  0  0  0  0
 15 19  2  0  0  0  0
 17 16  1  0  0  0  0
 19 14  1  0  0  0  0
 20  3  1  0  0  0  0
 20 21  1  0  0  0  0
 22 21  1  1  0  0  0
 23 22  1  0  0  0  0
 23 26  1  0  0  0  0
 24 25  1  0  0  0  0
 25 23  1  0  0  0  0
 25 22  1  0  0  0  0
 26 28  1  0  0  0  0
 28 27  2  0  0  0  0
M  END
>  <MODEL>
5

>  <REMARK>
 VINA RESULT:      -6.5      2.329      3.522
  Name = 
  6 active torsions:
  status: ('A' for Active; 'I' for Inactive)
    1  A    between atoms: C_1  and  C_2
    2  A    between atoms: C_4  and  C_12
    3  A    between atoms: C_4  and  C_13
    4  A    between atoms: C_9  and  N_15
    5  A    between atoms: C_9  and  C_18
    6  A    between atoms: N_10  and  C_13
                            x       y       z     vdW  Elec       q    Type
                         _______ _______ _______ _____ _____    ______ ____

>  <TORSDO>
F 6

$$$$
=
 OpenBabel11052418063D

 28 31  0  0  1  0  0  0  0  0999 V2000
  191.2380  175.6780  144.8860 C   0  0  1  0  0  3  0  0  0  0  0  0
  191.1060  177.3240  148.5890 O   0  0  0  0  0  0  0  0  0  0  0  0
  188.6230  177.5180  143.9920 N   0  0  0  0  0  0  0  0  0  0  0  0
  190.1740  177.4250  146.4180 C   0  0  1  0  0  3  0  0  0  0  0  0
  190.0800  177.7310  143.9040 C   0  0  0  0  0  2  0  0  0  0  0  0
  191.3020  175.3040  147.3800 C   0  0  0  0  0  2  0  0  0  0  0  0
  188.6970  177.0050  146.3920 C   0  0  0  0  0  2  0  0  0  0  0  0
  190.8900  176.7350  147.5410 C   0  0  0  0  0  0  0  0  0  0  0  0
  188.2530  176.5350  145.0100 C   0  0  0  0  0  2  0  0  0  0  0  0
  192.0490  175.1220  146.0620 C   0  0  0  0  0  2  0  0  0  0  0  0
  190.9020  177.1730  145.0830 C   0  0  2  0  0  3  0  0  0  0  0  0
  191.9180  175.3910  143.5720 C   0  0  0  0  0  0  0  0  0  0  0  0
  193.1630  175.9930  143.3490 C   0  0  0  0  0  3  0  0  0  0  0  0
  192.0930  174.3040  141.3950 C   0  0  0  0  0  0  0  0  0  0  0  0
  193.8690  175.7580  142.1680 C   0  0  0  0  0  3  0  0  0  0  0  0
  190.0530  173.8630  142.7810 C   0  0  0  0  0  1  0  0  0  0  0  0
  191.3710  174.5410  142.5820 C   0  0  0  0  0  0  0  0  0  0  0  0
  191.5860  173.4660  140.4060 O   0  0  0  0  0  1  0  0  0  0  0  0
  193.3350  174.9130  141.1940 C   0  0  0  0  0  3  0  0  0  0  0  0
  188.2110  176.9590  142.7160 C   0  0  0  0  0  2  0  0  0  0  0  0
  186.7100  176.7110  142.7070 C   0  0  0  0  0  2  0  0  0  0  0  0
  185.9870  177.8690  142.0120 C   0  0  2  0  0  3  0  0  0  0  0  0
  185.1350  178.6780  142.8480 N   0  0  0  0  0  0  0  0  0  0  0  0
  184.0480  178.2920  140.8340 C   0  0  0  0  0  1  0  0  0  0  0  0
  184.5810  177.6370  142.0160 N   0  0  0  0  0  0  0  0  0  0  0  0
  185.0020  178.2150  144.2290 C   0  0  0  0  0  2  0  0  0  0  0  0
  185.5090  179.0390  146.4870 C   0  0  0  0  0  2  0  0  0  0  0  0
  185.5800  179.2210  145.1710 C   0  0  0  0  0  3  0  0  0  0  0  0
  1 12  1  6  0  0  0
  1 11  1  0  0  0  0
  1 10  1  0  0  0  0
  3  9  1  0  0  0  0
  4  7  1  6  0  0  0
  4  8  1  0  0  0  0
  5  3  1  0  0  0  0
  6  8  1  0  0  0  0
  8  2  2  0  0  0  0
  9  7  1  0  0  0  0
 10  6  1  0  0  0  0
 11  5  1  6  0  0  0
 11  4  1  0  0  0  0
 13 12  1  0  0  0  0
 14 17  1  0  0  0  0
 15 13  2  0  0  0  0
 17 16  1  0  0  0  0
 17 12  2  0  0  0  0
 18 14  1  0  0  0  0
 19 14  2  0  0  0  0
 19 15  1  0  0  0  0
 20  3  1  0  0  0  0
 21 20  1  0  0  0  0
 22 25  1  0  0  0  0
 22 21  1  1  0  0  0
 22 23  1  0  0  0  0
 23 26  1  0  0  0  0
 24 25  1  0  0  0  0
 25 23  1  0  0  0  0
 26 28  1  0  0  0  0
 28 27  2  0  0  0  0
M  END
>  <MODEL>
6

>  <REMARK>
 VINA RESULT:      -6.4      2.566      6.302
  Name = 
  6 active torsions:
  status: ('A' for Active; 'I' for Inactive)
    1  A    between atoms: C_1  and  C_2
    2  A    between atoms: C_4  and  C_12
    3  A    between atoms: C_4  and  C_13
    4  A    between atoms: C_9  and  N_15
    5  A    between atoms: C_9  and  C_18
    6  A    between atoms: N_10  and  C_13
                            x       y       z     vdW  Elec       q    Type
                         _______ _______ _______ _____ _____    ______ ____

>  <TORSDO>
F 6

$$$$
=
 OpenBabel11052418063D

 28 31  0  0  1  0  0  0  0  0999 V2000
  187.4340  176.5730  145.7170 C   0  0  1  0  0  3  0  0  0  0  0  0
  184.2720  179.1130  145.7950 O   0  0  0  0  0  0  0  0  0  0  0  0
  187.7300  177.0700  142.4470 N   0  0  0  0  0  0  0  0  0  0  0  0
  185.9870  178.2370  144.4220 C   0  0  1  0  0  3  0  0  0  0  0  0
  188.3370  177.7230  143.6220 C   0  0  0  0  0  2  0  0  0  0  0  0
  185.0800  177.0120  146.5130 C   0  0  0  0  0  2  0  0  0  0  0  0
  185.4410  177.3590  143.2870 C   0  0  0  0  0  2  0  0  0  0  0  0
  185.0600  178.1990  145.6000 C   0  0  0  0  0  0  0  0  0  0  0  0
  186.4830  176.3740  142.7630 C   0  0  0  0  0  2  0  0  0  0  0  0
  186.5130  176.7030  146.9350 C   0  0  0  0  0  2  0  0  0  0  0  0
  187.4170  177.8550  144.8530 C   0  0  2  0  0  3  0  0  0  0  0  0
  188.8210  176.1510  146.1250 C   0  0  0  0  0  0  0  0  0  0  0  0
  189.3160  174.9600  145.5780 C   0  0  0  0  0  3  0  0  0  0  0  0
  190.9340  176.4460  147.3070 C   0  0  0  0  0  0  0  0  0  0  0  0
  190.6020  174.5130  145.8860 C   0  0  0  0  0  3  0  0  0  0  0  0
  189.1570  178.1860  147.6030 C   0  0  0  0  0  1  0  0  0  0  0  0
  189.6360  176.9010  147.0060 C   0  0  0  0  0  0  0  0  0  0  0  0
  191.7620  177.1660  148.1640 O   0  0  0  0  0  1  0  0  0  0  0  0
  191.4100  175.2570  146.7490 C   0  0  0  0  0  3  0  0  0  0  0  0
  188.6680  176.0490  142.0130 C   0  0  0  0  0  2  0  0  0  0  0  0
  188.1480  174.6650  142.3690 C   0  0  0  0  0  2  0  0  0  0  0  0
  188.2560  173.7320  141.1590 C   0  0  2  0  0  3  0  0  0  0  0  0
  189.3690  172.8140  141.1630 N   0  0  0  0  0  0  0  0  0  0  0  0
  189.1390  173.6940  139.0270 C   0  0  0  0  0  1  0  0  0  0  0  0
  189.4260  174.0430  140.4080 N   0  0  0  0  0  0  0  0  0  0  0  0
  190.2990  172.9740  142.2790 C   0  0  0  0  0  2  0  0  0  0  0  0
  191.4790  171.5410  143.8880 C   0  0  0  0  0  2  0  0  0  0  0  0
  190.5770  171.6510  142.9170 C   0  0  0  0  0  3  0  0  0  0  0  0
  1 12  1  1  0  0  0
  1 10  1  0  0  0  0
  3  9  1  0  0  0  0
  3  5  1  0  0  0  0
  4  7  1  6  0  0  0
  4 11  1  0  0  0  0
  4  8  1  0  0  0  0
  6 10  1  0  0  0  0
  8  2  2  0  0  0  0
  8  6  1  0  0  0  0
  9  7  1  0  0  0  0
 11  5  1  6  0  0  0
 11  1  1  0  0  0  0
 12 17  1  0  0  0  0
 13 15  1  0  0  0  0
 13 12  2  0  0  0  0
 14 18  1  0  0  0  0
 15 19  2  0  0  0  0
 17 14  2  0  0  0  0
 17 16  1  0  0  0  0
 19 14  1  0  0  0  0
 20 21  1  0  0  0  0
 20  3  1  0  0  0  0
 22 23  1  0  0  0  0
 22 21  1  1  0  0  0
 23 26  1  0  0  0  0
 24 25  1  0  0  0  0
 25 22  1  0  0  0  0
 25 23  1  0  0  0  0
 26 28  1  0  0  0  0
 28 27  2  0  0  0  0
M  END
>  <MODEL>
7

>  <REMARK>
 VINA RESULT:      -6.4      2.333      3.328
  Name = 
  6 active torsions:
  status: ('A' for Active; 'I' for Inactive)
    1  A    between atoms: C_1  and  C_2
    2  A    between atoms: C_4  and  C_12
    3  A    between atoms: C_4  and  C_13
    4  A    between atoms: C_9  and  N_15
    5  A    between atoms: C_9  and  C_18
    6  A    between atoms: N_10  and  C_13
                            x       y       z     vdW  Elec       q    Type
                         _______ _______ _______ _____ _____    ______ ____

>  <TORSDO>
F 6

$$$$
=
 OpenBabel11052418063D

 28 31  0  0  1  0  0  0  0  0999 V2000
  187.7030  176.7550  145.8100 C   0  0  1  0  0  3  0  0  0  0  0  0
  184.1950  178.5110  144.7780 O   0  0  0  0  0  0  0  0  0  0  0  0
  188.6190  176.7480  142.6180 N   0  0  0  0  0  0  0  0  0  0  0  0
  186.3010  177.8170  143.9540 C   0  0  1  0  0  3  0  0  0  0  0  0
  188.8220  177.7070  143.7210 C   0  0  0  0  0  2  0  0  0  0  0  0
  185.1910  176.7910  146.0550 C   0  0  0  0  0  2  0  0  0  0  0  0
  186.1870  176.6620  142.9490 C   0  0  0  0  0  2  0  0  0  0  0  0
  185.1580  177.7730  144.9260 C   0  0  0  0  0  0  0  0  0  0  0  0
  187.4800  175.8580  142.8410 C   0  0  0  0  0  2  0  0  0  0  0  0
  186.5280  176.8810  146.7860 C   0  0  0  0  0  2  0  0  0  0  0  0
  187.6450  177.8380  144.7080 C   0  0  2  0  0  3  0  0  0  0  0  0
  189.0190  176.7230  146.5420 C   0  0  0  0  0  0  0  0  0  0  0  0
  189.3490  177.8430  147.3170 C   0  0  0  0  0  3  0  0  0  0  0  0
  191.1050  175.6690  147.2390 C   0  0  0  0  0  0  0  0  0  0  0  0
  190.5390  177.8810  148.0460 C   0  0  0  0  0  3  0  0  0  0  0  0
  189.5940  174.4020  145.6950 C   0  0  0  0  0  1  0  0  0  0  0  0
  189.9090  175.6240  146.4960 C   0  0  0  0  0  0  0  0  0  0  0  0
  191.9970  174.6010  147.2200 O   0  0  0  0  0  1  0  0  0  0  0  0
  191.4140  176.7940  148.0080 C   0  0  0  0  0  3  0  0  0  0  0  0
  189.7980  175.9010  142.5850 C   0  0  0  0  0  2  0  0  0  0  0  0
  189.4970  174.6000  141.8590 C   0  0  0  0  0  2  0  0  0  0  0  0
  190.7090  174.1650  141.0270 C   0  0  2  0  0  3  0  0  0  0  0  0
  191.3470  172.9360  141.4300 N   0  0  0  0  0  0  0  0  0  0  0  0
  192.9900  174.4940  140.9210 C   0  0  0  0  0  1  0  0  0  0  0  0
  191.8880  174.2140  141.8250 N   0  0  0  0  0  0  0  0  0  0  0  0
  190.8050  172.3260  142.6440 C   0  0  0  0  0  2  0  0  0  0  0  0
  190.8050  170.2990  141.2570 C   0  0  0  0  0  2  0  0  0  0  0  0
  190.4580  170.8940  142.3950 C   0  0  0  0  0  3  0  0  0  0  0  0
  1 12  1  1  0  0  0
  1 10  1  0  0  0  0
  2  8  2  0  0  0  0
  3  9  1  0  0  0  0
  3  5  1  0  0  0  0
  4  7  1  6  0  0  0
  4 11  1  0  0  0  0
  4  8  1  0  0  0  0
  6 10  1  0  0  0  0
  8  6  1  0  0  0  0
  9  7  1  0  0  0  0
 11  5  1  6  0  0  0
 11  1  1  0  0  0  0
 12 13  1  0  0  0  0
 13 15  2  0  0  0  0
 14 19  2  0  0  0  0
 16 17  1  0  0  0  0
 17 12  2  0  0  0  0
 17 14  1  0  0  0  0
 18 14  1  0  0  0  0
 19 15  1  0  0  0  0
 20  3  1  0  0  0  0
 21 20  1  0  0  0  0
 22 23  1  0  0  0  0
 22 25  1  0  0  0  0
 22 21  1  1  0  0  0
 23 25  1  0  0  0  0
 23 26  1  0  0  0  0
 24 25  1  0  0  0  0
 27 28  2  0  0  0  0
 28 26  1  0  0  0  0
M  END
>  <MODEL>
8

>  <REMARK>
 VINA RESULT:      -6.1      1.937      2.722
  Name = 
  6 active torsions:
  status: ('A' for Active; 'I' for Inactive)
    1  A    between atoms: C_1  and  C_2
    2  A    between atoms: C_4  and  C_12
    3  A    between atoms: C_4  and  C_13
    4  A    between atoms: C_9  and  N_15
    5  A    between atoms: C_9  and  C_18
    6  A    between atoms: N_10  and  C_13
                            x       y       z     vdW  Elec       q    Type
                         _______ _______ _______ _____ _____    ______ ____

>  <TORSDO>
F 6

$$$$
=
 OpenBabel11052418063D

 28 31  0  0  1  0  0  0  0  0999 V2000
  186.6360  178.2650  144.3780 C   0  0  1  0  0  3  0  0  0  0  0  0
  185.6890  177.7010  148.2810 O   0  0  0  0  0  0  0  0  0  0  0  0
  189.2930  176.3100  144.7580 N   0  0  0  0  0  0  0  0  0  0  0  0
  187.1590  177.0290  146.5540 C   0  0  1  0  0  3  0  0  0  0  0  0
  187.9030  176.0480  144.3390 C   0  0  0  0  0  2  0  0  0  0  0  0
  185.9300  179.3070  146.5660 C   0  0  0  0  0  2  0  0  0  0  0  0
  188.6100  177.4590  146.8170 C   0  0  0  0  0  2  0  0  0  0  0  0
  186.2080  177.9850  147.2120 C   0  0  0  0  0  0  0  0  0  0  0  0
  189.4310  177.5420  145.5330 C   0  0  0  0  0  2  0  0  0  0  0  0
  185.5730  179.1040  145.0960 C   0  0  0  0  0  2  0  0  0  0  0  0
  186.8270  176.8890  145.0560 C   0  0  2  0  0  3  0  0  0  0  0  0
  186.3470  178.1650  142.9030 C   0  0  0  0  0  0  0  0  0  0  0  0
  187.4440  178.0390  142.0410 C   0  0  0  0  0  3  0  0  0  0  0  0
  184.8600  178.0450  140.9730 C   0  0  0  0  0  0  0  0  0  0  0  0
  187.2580  177.9160  140.6630 C   0  0  0  0  0  3  0  0  0  0  0  0
  183.8360  178.2930  143.2460 C   0  0  0  0  0  1  0  0  0  0  0  0
  185.0380  178.1750  142.3640 C   0  0  0  0  0  0  0  0  0  0  0  0
  183.5860  178.0420  140.4140 O   0  0  0  0  0  1  0  0  0  0  0  0
  185.9680  177.9170  140.1310 C   0  0  0  0  0  3  0  0  0  0  0  0
  190.0590  176.5060  143.5390 C   0  0  0  0  0  2  0  0  0  0  0  0
  191.4470  177.0370  143.8660 C   0  0  0  0  0  2  0  0  0  0  0  0
  192.4990  175.9490  143.6280 C   0  0  2  0  0  3  0  0  0  0  0  0
  193.1130  175.3920  144.8090 N   0  0  0  0  0  0  0  0  0  0  0  0
  194.7570  175.7340  143.2070 C   0  0  0  0  0  1  0  0  0  0  0  0
  193.7810  176.4150  144.0400 N   0  0  0  0  0  0  0  0  0  0  0  0
  192.7150  176.0190  146.0680 C   0  0  0  0  0  2  0  0  0  0  0  0
  191.3270  175.4450  148.0120 C   0  0  0  0  0  2  0  0  0  0  0  0
  191.9760  175.0410  146.9240 C   0  0  0  0  0  3  0  0  0  0  0  0
  1 12  1  6  0  0  0
  1 11  1  0  0  0  0
  1 10  1  0  0  0  0
  3  9  1  0  0  0  0
  4  7  1  6  0  0  0
  4  8  1  0  0  0  0
  5  3  1  0  0  0  0
  6  8  1  0  0  0  0
  8  2  2  0  0  0  0
  9  7  1  0  0  0  0
 10  6  1  0  0  0  0
 11  5  1  6  0  0  0
 11  4  1  0  0  0  0
 13 12  2  0  0  0  0
 14 17  2  0  0  0  0
 15 13  1  0  0  0  0
 17 12  1  0  0  0  0
 17 16  1  0  0  0  0
 18 14  1  0  0  0  0
 19 15  2  0  0  0  0
 19 14  1  0  0  0  0
 20 21  1  0  0  0  0
 20  3  1  0  0  0  0
 22 21  1  1  0  0  0
 22 25  1  0  0  0  0
 22 23  1  0  0  0  0
 23 26  1  0  0  0  0
 24 25  1  0  0  0  0
 25 23  1  0  0  0  0
 26 28  1  0  0  0  0
 28 27  2  0  0  0  0
M  END
>  <MODEL>
9

>  <REMARK>
 VINA RESULT:      -6.1      2.122      4.891
  Name = 
  6 active torsions:
  status: ('A' for Active; 'I' for Inactive)
    1  A    between atoms: C_1  and  C_2
    2  A    between atoms: C_4  and  C_12
    3  A    between atoms: C_4  and  C_13
    4  A    between atoms: C_9  and  N_15
    5  A    between atoms: C_9  and  C_18
    6  A    between atoms: N_10  and  C_13
                            x       y       z     vdW  Elec       q    Type
                         _______ _______ _______ _____ _____    ______ ____

>  <TORSDO>
F 6

$$$$
