=
 OpenBabel11052418083D

 28 32  0  0  1  0  0  0  0  0999 V2000
  191.3210  176.9840  144.7230 C   0  0  2  0  0  3  0  0  0  0  0  0
  186.7860  177.6700  142.1160 C   0  0  0  0  0  2  0  0  0  0  0  0
  188.1910  175.2910  147.2620 N   0  0  0  0  0  1  0  0  0  0  0  0
  185.3040  178.2500  144.0340 C   0  0  1  0  0  3  0  0  0  0  0  0
  187.4460  177.0300  144.4940 C   0  0  0  0  0  0  0  0  0  0  0  0
  184.4040  178.2910  141.6670 C   0  0  0  0  0  0  0  0  0  0  0  0
  186.3170  177.2220  143.5000 C   0  0  2  0  0  3  0  0  0  0  0  0
  185.6550  176.8690  146.1780 C   0  0  0  0  0  2  0  0  0  0  0  0
  184.0660  178.2830  143.1390 C   0  0  0  0  0  2  0  0  0  0  0  0
  189.5210  177.1910  146.4470 C   0  0  1  0  0  3  0  0  0  0  0  0
  188.8910  177.1670  144.0550 C   0  0  0  0  0  2  0  0  0  0  0  0
  184.8980  178.0200  145.5020 C   0  0  0  0  0  2  0  0  0  0  0  0
  191.8450  176.6570  147.1750 C   0  0  0  0  0  3  0  0  0  0  0  0
  188.1410  176.6980  146.8900 C   0  0  1  0  0  3  0  0  0  0  0  0
  190.5820  176.9710  147.4960 C   0  0  0  0  0  3  0  0  0  0  0  0
  183.1150  178.5740  140.5130 Cl  0  0  0  0  0  0  0  0  0  0  0  0
  185.6160  177.9390  141.2060 C   0  0  0  0  0  3  0  0  0  0  0  0
  187.1120  176.8930  145.8020 C   0  0  0  0  0  0  0  0  0  0  0  0
  192.2780  176.3890  145.7570 C   0  0  0  0  0  2  0  0  0  0  0  0
  189.8800  176.6080  145.0790 C   0  0  1  0  0  3  0  0  0  0  0  0
  191.7040  176.4510  143.3420 C   0  0  0  0  0  2  0  0  0  0  0  0
  191.8670  174.9320  143.3170 C   0  0  2  0  0  3  0  0  0  0  0  0
  191.5940  173.1560  141.7070 N   0  0  0  0  0  0  0  0  0  0  0  0
  193.2360  174.5130  142.8550 C   0  0  0  0  0  2  0  0  0  0  0  0
  189.6940  173.7500  143.1120 C   0  0  0  0  0  1  0  0  0  0  0  0
  190.9040  174.2660  142.3580 C   0  0  1  0  0  3  0  0  0  0  0  0
  191.5550  173.4120  140.2770 C   0  0  0  0  0  1  0  0  0  0  0  0
  192.9970  173.2150  142.1130 C   0  0  0  0  0  2  0  0  0  0  0  0
  1 21  1  6  0  0  0
  1 20  1  0  0  0  0
  1 19  1  0  0  0  0
  4  9  1  6  0  0  0
  4 12  1  0  0  0  0
  5 18  2  0  0  0  0
  6  9  1  0  0  0  0
  7  2  1  6  0  0  0
  7  4  1  0  0  0  0
  7  5  1  0  0  0  0
 10 14  1  0  0  0  0
 10 15  1  1  0  0  0
 11  5  1  0  0  0  0
 12  8  1  0  0  0  0
 13 15  2  0  0  0  0
 14  3  1  6  0  0  0
 16  6  1  0  0  0  0
 17  6  2  0  0  0  0
 17  2  1  0  0  0  0
 18  8  1  0  0  0  0
 18 14  1  0  0  0  0
 19 13  1  0  0  0  0
 20 11  1  6  0  0  0
 20 10  1  0  0  0  0
 22 21  1  6  0  0  0
 23 28  1  0  0  0  0
 23 26  1  0  0  0  0
 24 22  1  0  0  0  0
 26 25  1  1  0  0  0
 26 22  1  0  0  0  0
 27 23  1  0  0  0  0
 28 24  1  0  0  0  0
M  END
>  <MODEL>
1

>  <REMARK>
 VINA RESULT:      -8.5      0.000      0.000
  Name = 
  2 active torsions:
  status: ('A' for Active; 'I' for Inactive)
    1  A    between atoms: C_1  and  C_2
    2  A    between atoms: C_2  and  C_3
                            x       y       z     vdW  Elec       q    Type
                         _______ _______ _______ _____ _____    ______ ____

>  <TORSDO>
F 2

$$$$
=
 OpenBabel11052418083D

 28 32  0  0  1  0  0  0  0  0999 V2000
  187.3550  177.3350  146.5350 C   0  0  2  0  0  3  0  0  0  0  0  0
  188.1220  174.9160  141.9100 C   0  0  0  0  0  2  0  0  0  0  0  0
  183.9070  178.3480  144.0470 N   0  0  0  0  0  1  0  0  0  0  0  0
  187.2740  176.6920  140.3810 C   0  0  1  0  0  3  0  0  0  0  0  0
  186.5570  176.7290  142.7840 C   0  0  0  0  0  0  0  0  0  0  0  0
  188.2770  174.5670  139.4370 C   0  0  0  0  0  0  0  0  0  0  0  0
  186.9400  175.8390  141.6180 C   0  0  2  0  0  3  0  0  0  0  0  0
  185.1370  177.9050  141.1510 C   0  0  0  0  0  2  0  0  0  0  0  0
  187.4480  175.7980  139.1550 C   0  0  0  0  0  2  0  0  0  0  0  0
  186.2180  178.7260  144.7950 C   0  0  1  0  0  3  0  0  0  0  0  0
  187.2460  176.5780  144.1260 C   0  0  0  0  0  2  0  0  0  0  0  0
  186.2450  177.8030  140.0940 C   0  0  0  0  0  2  0  0  0  0  0  0
  185.9790  179.3510  147.1960 C   0  0  0  0  0  3  0  0  0  0  0  0
  185.2470  178.7130  143.6110 C   0  0  1  0  0  3  0  0  0  0  0  0
  185.7680  179.6420  145.9050 C   0  0  0  0  0  3  0  0  0  0  0  0
  188.7760  173.5660  138.0870 Cl  0  0  0  0  0  0  0  0  0  0  0  0
  188.5160  174.1310  140.6850 C   0  0  0  0  0  3  0  0  0  0  0  0
  185.7030  177.7540  142.5360 C   0  0  0  0  0  0  0  0  0  0  0  0
  186.5770  178.0430  147.6450 C   0  0  0  0  0  2  0  0  0  0  0  0
  186.5110  177.2980  145.2580 C   0  0  1  0  0  3  0  0  0  0  0  0
  187.7030  175.9240  147.0070 C   0  0  0  0  0  2  0  0  0  0  0  0
  189.2050  175.6400  146.9720 C   0  0  2  0  0  3  0  0  0  0  0  0
  190.9620  175.6440  145.3190 N   0  0  0  0  0  0  0  0  0  0  0  0
  190.0250  176.8850  147.1730 C   0  0  0  0  0  2  0  0  0  0  0  0
  189.7470  173.5690  145.7160 C   0  0  0  0  0  1  0  0  0  0  0  0
  189.6530  175.0800  145.6390 C   0  0  1  0  0  3  0  0  0  0  0  0
  190.8240  176.3410  144.0510 C   0  0  0  0  0  1  0  0  0  0  0  0
  191.2620  176.6550  146.3320 C   0  0  0  0  0  2  0  0  0  0  0  0
  1 21  1  1  0  0  0
  1 19  1  0  0  0  0
  4  9  1  6  0  0  0
  4  7  1  0  0  0  0
  5 11  1  0  0  0  0
  6 17  2  0  0  0  0
  7  2  1  1  0  0  0
  7  5  1  0  0  0  0
  8 18  1  0  0  0  0
  9  6  1  0  0  0  0
 10 20  1  0  0  0  0
 10 15  1  1  0  0  0
 12  4  1  0  0  0  0
 12  8  1  0  0  0  0
 13 19  1  0  0  0  0
 14  3  1  1  0  0  0
 14 10  1  0  0  0  0
 15 13  2  0  0  0  0
 16  6  1  0  0  0  0
 17  2  1  0  0  0  0
 18  5  2  0  0  0  0
 18 14  1  0  0  0  0
 20 11  1  6  0  0  0
 20  1  1  0  0  0  0
 22 21  1  6  0  0  0
 22 24  1  0  0  0  0
 23 26  1  0  0  0  0
 23 28  1  0  0  0  0
 26 25  1  1  0  0  0
 26 22  1  0  0  0  0
 27 23  1  0  0  0  0
 28 24  1  0  0  0  0
M  END
>  <MODEL>
2

>  <REMARK>
 VINA RESULT:      -7.9      2.639      4.887
  Name = 
  2 active torsions:
  status: ('A' for Active; 'I' for Inactive)
    1  A    between atoms: C_1  and  C_2
    2  A    between atoms: C_2  and  C_3
                            x       y       z     vdW  Elec       q    Type
                         _______ _______ _______ _____ _____    ______ ____

>  <TORSDO>
F 2

$$$$
=
 OpenBabel11052418083D

 28 32  0  0  1  0  0  0  0  0999 V2000
  188.1240  176.3460  145.8780 C   0  0  2  0  0  3  0  0  0  0  0  0
  188.5740  173.6400  141.3720 C   0  0  0  0  0  2  0  0  0  0  0  0
  191.8450  177.6900  144.0200 N   0  0  0  0  0  1  0  0  0  0  0  0
  191.0310  173.2190  141.3990 C   0  0  1  0  0  3  0  0  0  0  0  0
  190.1150  175.0950  142.7890 C   0  0  0  0  0  0  0  0  0  0  0  0
  189.5890  172.2430  139.5610 C   0  0  0  0  0  0  0  0  0  0  0  0
  189.9440  174.3040  141.5070 C   0  0  2  0  0  3  0  0  0  0  0  0
  192.4960  175.1930  142.1650 C   0  0  0  0  0  2  0  0  0  0  0  0
  190.9910  172.5690  140.0180 C   0  0  0  0  0  2  0  0  0  0  0  0
  190.5710  176.1170  145.4150 C   0  0  1  0  0  3  0  0  0  0  0  0
  188.9530  175.2720  143.7460 C   0  0  0  0  0  2  0  0  0  0  0  0
  192.4510  173.7270  141.7120 C   0  0  0  0  0  2  0  0  0  0  0  0
  189.8260  177.4970  147.3520 C   0  0  0  0  0  3  0  0  0  0  0  0
  191.6740  176.2860  144.3660 C   0  0  1  0  0  3  0  0  0  0  0  0
  190.8230  176.9290  146.6600 C   0  0  0  0  0  3  0  0  0  0  0  0
  189.3830  171.2750  138.1130 Cl  0  0  0  0  0  0  0  0  0  0  0  0
  188.5010  172.7900  140.1300 C   0  0  0  0  0  3  0  0  0  0  0  0
  191.3700  175.4940  143.1160 C   0  0  0  0  0  0  0  0  0  0  0  0
  188.3940  177.4650  146.8850 C   0  0  0  0  0  2  0  0  0  0  0  0
  189.1980  176.3650  144.7870 C   0  0  1  0  0  3  0  0  0  0  0  0
  186.7310  176.5510  145.2840 C   0  0  0  0  0  2  0  0  0  0  0  0
  186.5350  177.9510  144.7010 C   0  0  2  0  0  3  0  0  0  0  0  0
  185.1410  178.9830  143.0240 N   0  0  0  0  0  0  0  0  0  0  0  0
  185.4520  178.7170  145.4090 C   0  0  0  0  0  2  0  0  0  0  0  0
  187.3160  178.1140  142.3500 C   0  0  0  0  0  1  0  0  0  0  0  0
  186.1110  177.9150  143.2480 C   0  0  1  0  0  3  0  0  0  0  0  0
  183.9220  178.3550  142.5440 C   0  0  0  0  0  1  0  0  0  0  0  0
  184.8330  179.5740  144.3260 C   0  0  0  0  0  2  0  0  0  0  0  0
  1 21  1  6  0  0  0
  1 19  1  0  0  0  0
  4  9  1  6  0  0  0
  4  7  1  0  0  0  0
  4 12  1  0  0  0  0
  5 18  2  0  0  0  0
  5 11  1  0  0  0  0
  6  9  1  0  0  0  0
  6 17  2  0  0  0  0
  7  2  1  1  0  0  0
  7  5  1  0  0  0  0
  8 18  1  0  0  0  0
 10 15  1  1  0  0  0
 12  8  1  0  0  0  0
 14  3  1  6  0  0  0
 14 10  1  0  0  0  0
 15 13  2  0  0  0  0
 16  6  1  0  0  0  0
 17  2  1  0  0  0  0
 18 14  1  0  0  0  0
 19 13  1  0  0  0  0
 20 11  1  6  0  0  0
 20 10  1  0  0  0  0
 20  1  1  0  0  0  0
 22 21  1  1  0  0  0
 22 24  1  0  0  0  0
 23 26  1  0  0  0  0
 23 28  1  0  0  0  0
 26 25  1  6  0  0  0
 26 22  1  0  0  0  0
 27 23  1  0  0  0  0
 28 24  1  0  0  0  0
M  END
>  <MODEL>
3

>  <REMARK>
 VINA RESULT:      -7.8      2.733      6.501
  Name = 
  2 active torsions:
  status: ('A' for Active; 'I' for Inactive)
    1  A    between atoms: C_1  and  C_2
    2  A    between atoms: C_2  and  C_3
                            x       y       z     vdW  Elec       q    Type
                         _______ _______ _______ _____ _____    ______ ____

>  <TORSDO>
F 2

$$$$
=
 OpenBabel11052418083D

 28 32  0  0  1  0  0  0  0  0999 V2000
  192.1000  176.0440  145.0180 C   0  0  2  0  0  3  0  0  0  0  0  0
  187.8710  177.2080  142.0880 C   0  0  0  0  0  2  0  0  0  0  0  0
  188.6180  174.9300  147.4130 N   0  0  0  0  0  1  0  0  0  0  0  0
  186.3710  178.0850  143.8760 C   0  0  1  0  0  3  0  0  0  0  0  0
  188.2900  176.6090  144.5300 C   0  0  0  0  0  0  0  0  0  0  0  0
  185.6300  178.1250  141.4550 C   0  0  0  0  0  0  0  0  0  0  0  0
  187.2620  176.9020  143.4560 C   0  0  2  0  0  3  0  0  0  0  0  0
  186.3970  176.7820  146.0960 C   0  0  0  0  0  2  0  0  0  0  0  0
  185.2070  178.2410  142.9000 C   0  0  0  0  0  2  0  0  0  0  0  0
  190.2470  176.5850  146.6080 C   0  0  1  0  0  3  0  0  0  0  0  0
  189.7640  176.5240  144.1830 C   0  0  0  0  0  2  0  0  0  0  0  0
  185.8500  177.9890  145.3230 C   0  0  0  0  0  2  0  0  0  0  0  0
  192.4250  175.7760  147.5120 C   0  0  0  0  0  3  0  0  0  0  0  0
  188.7870  176.3090  146.9790 C   0  0  1  0  0  3  0  0  0  0  0  0
  191.2010  176.2770  147.7340 C   0  0  0  0  0  3  0  0  0  0  0  0
  184.4650  178.5220  140.2060 Cl  0  0  0  0  0  0  0  0  0  0  0  0
  186.8070  177.5880  141.0910 C   0  0  0  0  0  3  0  0  0  0  0  0
  187.8620  176.5860  145.8170 C   0  0  0  0  0  0  0  0  0  0  0  0
  192.9010  175.3790  146.1390 C   0  0  0  0  0  2  0  0  0  0  0  0
  190.6020  175.8880  145.2930 C   0  0  1  0  0  3  0  0  0  0  0  0
  192.4870  175.3940  143.6910 C   0  0  0  0  0  2  0  0  0  0  0  0
  193.8160  175.9130  143.1410 C   0  0  2  0  0  3  0  0  0  0  0  0
  195.6870  175.0140  141.9110 N   0  0  0  0  0  0  0  0  0  0  0  0
  193.7000  176.3820  141.7170 C   0  0  0  0  0  2  0  0  0  0  0  0
  195.7710  174.9700  144.3470 C   0  0  0  0  0  1  0  0  0  0  0  0
  194.8870  174.8430  143.1210 C   0  0  1  0  0  3  0  0  0  0  0  0
  195.5890  173.7740  141.1600 C   0  0  0  0  0  1  0  0  0  0  0  0
  195.0450  176.0520  141.1060 C   0  0  0  0  0  2  0  0  0  0  0  0
  1 21  1  6  0  0  0
  1 20  1  0  0  0  0
  1 19  1  0  0  0  0
  4  9  1  6  0  0  0
  4 12  1  0  0  0  0
  5 18  2  0  0  0  0
  6  9  1  0  0  0  0
  7  2  1  6  0  0  0
  7  4  1  0  0  0  0
  7  5  1  0  0  0  0
 10 14  1  0  0  0  0
 10 15  1  1  0  0  0
 11  5  1  0  0  0  0
 12  8  1  0  0  0  0
 13 15  2  0  0  0  0
 14  3  1  6  0  0  0
 16  6  1  0  0  0  0
 17  6  2  0  0  0  0
 17  2  1  0  0  0  0
 18  8  1  0  0  0  0
 18 14  1  0  0  0  0
 19 13  1  0  0  0  0
 20 11  1  6  0  0  0
 20 10  1  0  0  0  0
 22 21  1  6  0  0  0
 23 26  1  0  0  0  0
 24 22  1  0  0  0  0
 26 22  1  0  0  0  0
 26 25  1  1  0  0  0
 27 23  1  0  0  0  0
 28 24  1  0  0  0  0
 28 23  1  0  0  0  0
M  END
>  <MODEL>
4

>  <REMARK>
 VINA RESULT:      -7.5      1.698      2.248
  Name = 
  2 active torsions:
  status: ('A' for Active; 'I' for Inactive)
    1  A    between atoms: C_1  and  C_2
    2  A    between atoms: C_2  and  C_3
                            x       y       z     vdW  Elec       q    Type
                         _______ _______ _______ _____ _____    ______ ____

>  <TORSDO>
F 2

$$$$
=
 OpenBabel11052418083D

 28 32  0  0  1  0  0  0  0  0999 V2000
  189.0940  175.9810  146.1660 C   0  0  2  0  0  3  0  0  0  0  0  0
  190.9870  171.8960  143.4160 C   0  0  0  0  0  2  0  0  0  0  0  0
  193.4230  176.5510  145.9690 N   0  0  0  0  0  1  0  0  0  0  0  0
  193.0710  171.4690  144.7140 C   0  0  1  0  0  3  0  0  0  0  0  0
  191.9820  173.7210  144.8930 C   0  0  0  0  0  0  0  0  0  0  0  0
  192.4300  169.9500  142.7930 C   0  0  0  0  0  0  0  0  0  0  0  0
  192.2530  172.5440  143.9770 C   0  0  2  0  0  3  0  0  0  0  0  0
  194.3740  173.5610  145.4600 C   0  0  0  0  0  2  0  0  0  0  0  0
  193.5260  170.3890  143.7350 C   0  0  0  0  0  2  0  0  0  0  0  0
  191.4170  175.5680  146.9950 C   0  0  1  0  0  3  0  0  0  0  0  0
  190.5690  174.2320  145.0930 C   0  0  0  0  0  2  0  0  0  0  0  0
  194.2780  172.0300  145.4920 C   0  0  0  0  0  2  0  0  0  0  0  0
  190.1540  177.5370  147.8550 C   0  0  0  0  0  3  0  0  0  0  0  0
  192.8770  175.3510  146.5890 C   0  0  1  0  0  3  0  0  0  0  0  0
  191.2380  176.7510  147.9120 C   0  0  0  0  0  3  0  0  0  0  0  0
  192.7120  168.5510  141.7740 Cl  0  0  0  0  0  0  0  0  0  0  0  0
  191.3170  170.6760  142.5970 C   0  0  0  0  0  3  0  0  0  0  0  0
  193.0170  174.1870  145.6360 C   0  0  0  0  0  0  0  0  0  0  0  0
  189.0870  177.3720  146.8030 C   0  0  0  0  0  2  0  0  0  0  0  0
  190.5220  175.6100  145.7550 C   0  0  1  0  0  3  0  0  0  0  0  0
  188.1590  175.9950  144.9580 C   0  0  0  0  0  2  0  0  0  0  0  0
  188.0640  177.3700  144.2970 C   0  0  2  0  0  3  0  0  0  0  0  0
  187.8170  178.2380  142.0590 N   0  0  0  0  0  0  0  0  0  0  0  0
  186.6410  177.8270  144.1330 C   0  0  0  0  0  2  0  0  0  0  0  0
  190.0680  177.9050  142.9330 C   0  0  0  0  0  1  0  0  0  0  0  0
  188.6470  177.3780  142.8990 C   0  0  1  0  0  3  0  0  0  0  0  0
  187.3290  177.4160  140.9650 C   0  0  0  0  0  1  0  0  0  0  0  0
  186.6530  178.6310  142.8500 C   0  0  0  0  0  2  0  0  0  0  0  0
  1 21  1  6  0  0  0
  1 19  1  0  0  0  0
  4  9  1  6  0  0  0
  4 12  1  0  0  0  0
  5 11  1  0  0  0  0
  5 18  2  0  0  0  0
  6  9  1  0  0  0  0
  7  2  1  1  0  0  0
  7  4  1  0  0  0  0
  7  5  1  0  0  0  0
  8 12  1  0  0  0  0
  8 18  1  0  0  0  0
 10 15  1  6  0  0  0
 13 15  2  0  0  0  0
 14  3  1  6  0  0  0
 14 10  1  0  0  0  0
 16  6  1  0  0  0  0
 17  6  2  0  0  0  0
 17  2  1  0  0  0  0
 18 14  1  0  0  0  0
 19 13  1  0  0  0  0
 20 11  1  1  0  0  0
 20  1  1  0  0  0  0
 20 10  1  0  0  0  0
 22 21  1  6  0  0  0
 23 28  1  0  0  0  0
 23 26  1  0  0  0  0
 24 22  1  0  0  0  0
 26 25  1  1  0  0  0
 26 22  1  0  0  0  0
 27 23  1  0  0  0  0
 28 24  1  0  0  0  0
M  END
>  <MODEL>
5

>  <REMARK>
 VINA RESULT:      -7.4      3.632      7.176
  Name = 
  2 active torsions:
  status: ('A' for Active; 'I' for Inactive)
    1  A    between atoms: C_1  and  C_2
    2  A    between atoms: C_2  and  C_3
                            x       y       z     vdW  Elec       q    Type
                         _______ _______ _______ _____ _____    ______ ____

>  <TORSDO>
F 2

$$$$
=
 OpenBabel11052418083D

 28 32  0  0  1  0  0  0  0  0999 V2000
  189.5120  176.5020  146.0160 C   0  0  2  0  0  3  0  0  0  0  0  0
  189.3150  174.3490  141.2040 C   0  0  0  0  0  2  0  0  0  0  0  0
  193.6260  175.4380  144.9920 N   0  0  0  0  0  1  0  0  0  0  0  0
  190.9930  172.5310  141.5080 C   0  0  1  0  0  3  0  0  0  0  0  0
  191.0460  174.4910  143.0710 C   0  0  0  0  0  0  0  0  0  0  0  0
  189.7110  172.7340  139.3340 C   0  0  0  0  0  0  0  0  0  0  0  0
  190.7430  174.0420  141.6550 C   0  0  2  0  0  3  0  0  0  0  0  0
  193.1110  173.1710  142.8250 C   0  0  0  0  0  2  0  0  0  0  0  0
  190.8970  172.1200  140.0410 C   0  0  0  0  0  2  0  0  0  0  0  0
  191.4040  174.8710  145.8770 C   0  0  1  0  0  3  0  0  0  0  0  0
  190.0210  175.2760  143.8660 C   0  0  0  0  0  2  0  0  0  0  0  0
  192.3310  172.0590  142.1110 C   0  0  0  0  0  2  0  0  0  0  0  0
  191.1810  176.3020  147.9060 C   0  0  0  0  0  3  0  0  0  0  0  0
  192.6020  174.4040  145.0470 C   0  0  1  0  0  3  0  0  0  0  0  0
  191.7910  175.2910  147.2730 C   0  0  0  0  0  3  0  0  0  0  0  0
  189.3160  172.1760  137.7190 Cl  0  0  0  0  0  0  0  0  0  0  0  0
  189.0460  173.7910  139.8310 C   0  0  0  0  0  3  0  0  0  0  0  0
  192.1880  174.0330  143.6430 C   0  0  0  0  0  0  0  0  0  0  0  0
  190.1440  177.1690  147.2390 C   0  0  0  0  0  2  0  0  0  0  0  0
  190.6110  175.9350  145.1140 C   0  0  1  0  0  3  0  0  0  0  0  0
  188.6720  177.5410  145.2750 C   0  0  0  0  0  2  0  0  0  0  0  0
  187.1900  177.1710  145.2130 C   0  0  2  0  0  3  0  0  0  0  0  0
  185.0980  178.3220  144.8680 N   0  0  0  0  0  0  0  0  0  0  0  0
  186.7310  176.8850  143.8100 C   0  0  0  0  0  2  0  0  0  0  0  0
  185.9130  178.0560  147.1500 C   0  0  0  0  0  1  0  0  0  0  0  0
  186.2970  178.2920  145.7020 C   0  0  1  0  0  3  0  0  0  0  0  0
  185.0370  179.6420  144.2630 C   0  0  0  0  0  1  0  0  0  0  0  0
  185.2960  177.3640  143.7820 C   0  0  0  0  0  2  0  0  0  0  0  0
  1 21  1  6  0  0  0
  1 19  1  0  0  0  0
  4  9  1  6  0  0  0
  4  7  1  0  0  0  0
  4 12  1  0  0  0  0
  5 18  2  0  0  0  0
  5 11  1  0  0  0  0
  6 17  2  0  0  0  0
  6  9  1  0  0  0  0
  7  2  1  1  0  0  0
  7  5  1  0  0  0  0
  8 18  1  0  0  0  0
 10 15  1  1  0  0  0
 12  8  1  0  0  0  0
 14  3  1  6  0  0  0
 14 10  1  0  0  0  0
 15 13  2  0  0  0  0
 16  6  1  0  0  0  0
 17  2  1  0  0  0  0
 18 14  1  0  0  0  0
 19 13  1  0  0  0  0
 20 11  1  6  0  0  0
 20 10  1  0  0  0  0
 20  1  1  0  0  0  0
 22 21  1  6  0  0  0
 22 26  1  0  0  0  0
 23 26  1  0  0  0  0
 24 22  1  0  0  0  0
 26 25  1  1  0  0  0
 27 23  1  0  0  0  0
 28 24  1  0  0  0  0
 28 23  1  0  0  0  0
M  END
>  <MODEL>
6

>  <REMARK>
 VINA RESULT:      -7.2      2.556      6.507
  Name = 
  2 active torsions:
  status: ('A' for Active; 'I' for Inactive)
    1  A    between atoms: C_1  and  C_2
    2  A    between atoms: C_2  and  C_3
                            x       y       z     vdW  Elec       q    Type
                         _______ _______ _______ _____ _____    ______ ____

>  <TORSDO>
F 2

$$$$
=
 OpenBabel11052418083D

 28 32  0  0  1  0  0  0  0  0999 V2000
  189.0500  176.4720  144.7820 C   0  0  2  0  0  3  0  0  0  0  0  0
  193.6410  176.4070  142.1850 C   0  0  0  0  0  2  0  0  0  0  0  0
  192.1740  176.3820  147.8380 N   0  0  0  0  0  1  0  0  0  0  0  0
  194.9030  174.8230  143.6380 C   0  0  1  0  0  3  0  0  0  0  0  0
  192.8980  175.9910  144.5880 C   0  0  0  0  0  0  0  0  0  0  0  0
  195.9570  175.7280  141.5200 C   0  0  0  0  0  0  0  0  0  0  0  0
  194.0620  176.1120  143.6240 C   0  0  2  0  0  3  0  0  0  0  0  0
  194.5710  175.1240  146.1740 C   0  0  0  0  0  2  0  0  0  0  0  0
  196.1880  175.0240  142.8370 C   0  0  0  0  0  2  0  0  0  0  0  0
  190.6850  175.2600  146.2360 C   0  0  1  0  0  3  0  0  0  0  0  0
  191.4810  176.2710  144.1240 C   0  0  0  0  0  2  0  0  0  0  0  0
  195.2290  174.3070  145.0530 C   0  0  0  0  0  2  0  0  0  0  0  0
  188.3980  175.7280  147.1100 C   0  0  0  0  0  3  0  0  0  0  0  0
  192.0800  175.3020  146.8660 C   0  0  1  0  0  3  0  0  0  0  0  0
  189.5870  175.1300  147.2620 C   0  0  0  0  0  3  0  0  0  0  0  0
  197.2810  175.8180  140.3740 Cl  0  0  0  0  0  0  0  0  0  0  0  0
  194.8320  176.4160  141.2610 C   0  0  0  0  0  3  0  0  0  0  0  0
  193.1520  175.4770  145.8170 C   0  0  0  0  0  0  0  0  0  0  0  0
  188.1010  176.6640  145.9660 C   0  0  0  0  0  2  0  0  0  0  0  0
  190.4970  176.4410  145.2820 C   0  0  1  0  0  3  0  0  0  0  0  0
  188.8330  177.6170  143.7930 C   0  0  0  0  0  2  0  0  0  0  0  0
  188.2200  177.1510  142.4730 C   0  0  2  0  0  3  0  0  0  0  0  0
  186.0370  177.1550  141.4440 N   0  0  0  0  0  0  0  0  0  0  0  0
  188.1990  178.2420  141.4370 C   0  0  0  0  0  2  0  0  0  0  0  0
  186.6910  175.2170  142.7690 C   0  0  0  0  0  1  0  0  0  0  0  0
  186.7750  176.7250  142.6280 C   0  0  1  0  0  3  0  0  0  0  0  0
  184.9710  178.0300  141.9030 C   0  0  0  0  0  1  0  0  0  0  0  0
  186.9430  177.9730  140.6380 C   0  0  0  0  0  2  0  0  0  0  0  0
  1 21  1  6  0  0  0
  1 20  1  0  0  0  0
  1 19  1  0  0  0  0
  4  9  1  1  0  0  0
  4 12  1  0  0  0  0
  5 18  2  0  0  0  0
  6  9  1  0  0  0  0
  7  2  1  6  0  0  0
  7  4  1  0  0  0  0
  7  5  1  0  0  0  0
 10 14  1  0  0  0  0
 10 15  1  1  0  0  0
 11  5  1  0  0  0  0
 12  8  1  0  0  0  0
 13 15  2  0  0  0  0
 14  3  1  1  0  0  0
 16  6  1  0  0  0  0
 17  6  2  0  0  0  0
 17  2  1  0  0  0  0
 18  8  1  0  0  0  0
 18 14  1  0  0  0  0
 19 13  1  0  0  0  0
 20 11  1  6  0  0  0
 20 10  1  0  0  0  0
 22 26  1  0  0  0  0
 22 21  1  1  0  0  0
 23 27  1  0  0  0  0
 23 26  1  0  0  0  0
 24 22  1  0  0  0  0
 26 25  1  6  0  0  0
 28 24  1  0  0  0  0
 28 23  1  0  0  0  0
M  END
>  <MODEL>
7

>  <REMARK>
 VINA RESULT:      -7.0      3.630      7.191
  Name = 
  2 active torsions:
  status: ('A' for Active; 'I' for Inactive)
    1  A    between atoms: C_1  and  C_2
    2  A    between atoms: C_2  and  C_3
                            x       y       z     vdW  Elec       q    Type
                         _______ _______ _______ _____ _____    ______ ____

>  <TORSDO>
F 2

$$$$
=
 OpenBabel11052418083D

 28 32  0  0  1  0  0  0  0  0999 V2000
  190.3860  176.9520  145.1360 C   0  0  2  0  0  3  0  0  0  0  0  0
  193.7480  175.6680  141.2780 C   0  0  0  0  0  2  0  0  0  0  0  0
  194.3850  177.1660  146.8880 N   0  0  0  0  0  1  0  0  0  0  0  0
  195.3750  174.3160  142.5960 C   0  0  1  0  0  3  0  0  0  0  0  0
  193.8890  175.9300  143.8110 C   0  0  0  0  0  0  0  0  0  0  0  0
  195.6450  174.5500  140.0890 C   0  0  0  0  0  0  0  0  0  0  0  0
  194.6390  175.6650  142.5200 C   0  0  2  0  0  3  0  0  0  0  0  0
  195.9780  175.2440  144.9210 C   0  0  0  0  0  2  0  0  0  0  0  0
  196.2980  174.1490  141.3910 C   0  0  0  0  0  2  0  0  0  0  0  0
  192.3770  175.9080  146.2320 C   0  0  1  0  0  3  0  0  0  0  0  0
  192.4140  176.2790  143.7870 C   0  0  0  0  0  2  0  0  0  0  0  0
  196.1600  174.1070  143.9060 C   0  0  0  0  0  2  0  0  0  0  0  0
  190.5720  176.8680  147.6570 C   0  0  0  0  0  3  0  0  0  0  0  0
  193.9060  175.9100  146.3270 C   0  0  1  0  0  3  0  0  0  0  0  0
  191.7110  176.1690  147.5590 C   0  0  0  0  0  3  0  0  0  0  0  0
  196.4770  174.1910  138.5890 Cl  0  0  0  0  0  0  0  0  0  0  0  0
  194.5310  175.3010  140.0450 C   0  0  0  0  0  3  0  0  0  0  0  0
  194.5420  175.6890  144.9750 C   0  0  0  0  0  0  0  0  0  0  0  0
  189.9290  177.5410  146.4720 C   0  0  0  0  0  2  0  0  0  0  0  0
  191.9140  176.8460  145.1160 C   0  0  1  0  0  3  0  0  0  0  0  0
  189.8810  177.8510  144.0090 C   0  0  0  0  0  2  0  0  0  0  0  0
  188.6240  177.3040  143.3320 C   0  0  2  0  0  3  0  0  0  0  0  0
  186.3460  178.0250  142.9970 N   0  0  0  0  0  0  0  0  0  0  0  0
  188.4920  177.7730  141.9090 C   0  0  0  0  0  2  0  0  0  0  0  0
  186.8620  176.6860  144.9680 C   0  0  0  0  0  1  0  0  0  0  0  0
  187.3550  177.7620  144.0190 C   0  0  1  0  0  3  0  0  0  0  0  0
  185.9500  179.4160  143.1410 C   0  0  0  0  0  1  0  0  0  0  0  0
  186.9990  177.9000  141.6950 C   0  0  0  0  0  2  0  0  0  0  0  0
  1 21  1  6  0  0  0
  1 19  1  0  0  0  0
  4  9  1  6  0  0  0
  4 12  1  0  0  0  0
  5 18  2  0  0  0  0
  6  9  1  0  0  0  0
  7  2  1  6  0  0  0
  7  4  1  0  0  0  0
  7  5  1  0  0  0  0
  8 18  1  0  0  0  0
 10 14  1  0  0  0  0
 10 15  1  1  0  0  0
 11  5  1  0  0  0  0
 12  8  1  0  0  0  0
 14  3  1  6  0  0  0
 15 13  2  0  0  0  0
 16  6  1  0  0  0  0
 17  6  2  0  0  0  0
 17  2  1  0  0  0  0
 18 14  1  0  0  0  0
 19 13  1  0  0  0  0
 20 11  1  6  0  0  0
 20  1  1  0  0  0  0
 20 10  1  0  0  0  0
 22 21  1  1  0  0  0
 22 26  1  0  0  0  0
 23 27  1  0  0  0  0
 23 26  1  0  0  0  0
 24 22  1  0  0  0  0
 26 25  1  1  0  0  0
 28 24  1  0  0  0  0
 28 23  1  0  0  0  0
M  END
>  <MODEL>
8

>  <REMARK>
 VINA RESULT:      -7.0      3.618      7.580
  Name = 
  2 active torsions:
  status: ('A' for Active; 'I' for Inactive)
    1  A    between atoms: C_1  and  C_2
    2  A    between atoms: C_2  and  C_3
                            x       y       z     vdW  Elec       q    Type
                         _______ _______ _______ _____ _____    ______ ____

>  <TORSDO>
F 2

$$$$
=
 OpenBabel11052418083D

 28 32  0  0  1  0  0  0  0  0999 V2000
  191.7950  175.2980  142.7440 C   0  0  2  0  0  3  0  0  0  0  0  0
  187.0310  177.0380  141.2900 C   0  0  0  0  0  2  0  0  0  0  0  0
  189.2090  174.8230  146.2360 N   0  0  0  0  0  1  0  0  0  0  0  0
  186.3650  178.1940  143.3950 C   0  0  1  0  0  3  0  0  0  0  0  0
  188.1640  176.4500  143.4970 C   0  0  0  0  0  0  0  0  0  0  0  0
  184.8610  178.2830  141.3600 C   0  0  0  0  0  0  0  0  0  0  0  0
  186.8850  176.8720  142.8020 C   0  0  2  0  0  3  0  0  0  0  0  0
  186.9580  176.9670  145.5810 C   0  0  0  0  0  2  0  0  0  0  0  0
  184.9730  178.5050  142.8500 C   0  0  0  0  0  2  0  0  0  0  0  0
  190.6850  176.1740  144.8070 C   0  0  1  0  0  3  0  0  0  0  0  0
  189.4060  176.1200  142.6910 C   0  0  0  0  0  2  0  0  0  0  0  0
  186.3570  178.2240  144.9360 C   0  0  0  0  0  2  0  0  0  0  0  0
  192.9030  175.0540  145.0040 C   0  0  0  0  0  3  0  0  0  0  0  0
  189.4140  176.1450  145.6600 C   0  0  1  0  0  3  0  0  0  0  0  0
  191.9110  175.7490  145.5760 C   0  0  0  0  0  3  0  0  0  0  0  0
  183.4100  178.8240  140.5380 Cl  0  0  0  0  0  0  0  0  0  0  0  0
  185.7570  177.5540  140.6730 C   0  0  0  0  0  3  0  0  0  0  0  0
  188.1990  176.5320  144.8500 C   0  0  0  0  0  0  0  0  0  0  0  0
  192.8260  174.5460  143.5870 C   0  0  0  0  0  2  0  0  0  0  0  0
  190.4720  175.3910  143.5100 C   0  0  1  0  0  3  0  0  0  0  0  0
  191.6140  174.5570  141.4200 C   0  0  0  0  0  2  0  0  0  0  0  0
  191.6190  173.0370  141.5860 C   0  0  2  0  0  3  0  0  0  0  0  0
  190.6190  171.1390  140.4810 N   0  0  0  0  0  0  0  0  0  0  0  0
  192.6810  172.3760  140.7510 C   0  0  0  0  0  2  0  0  0  0  0  0
  189.4230  172.1610  142.3440 C   0  0  0  0  0  1  0  0  0  0  0  0
  190.3160  172.4060  141.1430 C   0  0  1  0  0  3  0  0  0  0  0  0
  190.0850  171.2270  139.1330 C   0  0  0  0  0  1  0  0  0  0  0  0
  192.0730  171.0470  140.3590 C   0  0  0  0  0  2  0  0  0  0  0  0
  1 21  1  6  0  0  0
  1 20  1  0  0  0  0
  1 19  1  0  0  0  0
  4  9  1  1  0  0  0
  4 12  1  0  0  0  0
  5 18  2  0  0  0  0
  6  9  1  0  0  0  0
  7  2  1  6  0  0  0
  7  4  1  0  0  0  0
  7  5  1  0  0  0  0
 10 15  1  1  0  0  0
 10 14  1  0  0  0  0
 11  5  1  0  0  0  0
 12  8  1  0  0  0  0
 13 15  2  0  0  0  0
 14  3  1  6  0  0  0
 16  6  1  0  0  0  0
 17  2  1  0  0  0  0
 17  6  2  0  0  0  0
 18  8  1  0  0  0  0
 18 14  1  0  0  0  0
 19 13  1  0  0  0  0
 20 11  1  6  0  0  0
 20 10  1  0  0  0  0
 22 21  1  6  0  0  0
 23 26  1  0  0  0  0
 24 22  1  0  0  0  0
 26 22  1  0  0  0  0
 26 25  1  1  0  0  0
 27 23  1  0  0  0  0
 28 23  1  0  0  0  0
 28 24  1  0  0  0  0
M  END
>  <MODEL>
9

>  <REMARK>
 VINA RESULT:      -7.0      1.416      2.055
  Name = 
  2 active torsions:
  status: ('A' for Active; 'I' for Inactive)
    1  A    between atoms: C_1  and  C_2
    2  A    between atoms: C_2  and  C_3
                            x       y       z     vdW  Elec       q    Type
                         _______ _______ _______ _____ _____    ______ ____

>  <TORSDO>
F 2

$$$$
