=
 OpenBabel11052420143D

 34 39  0  0  1  0  0  0  0  0999 V2000
  192.8930  175.8120  143.8640 C   0  0  0  0  0  0  0  0  0  0  0  0
  196.4730  176.6160  142.4020 C   0  0  0  0  0  2  0  0  0  0  0  0
  195.5420  176.6380  144.6630 C   0  0  0  0  0  3  0  0  0  0  0  0
  190.6330  175.9370  144.5270 C   0  0  0  0  0  0  0  0  0  0  0  0
  191.5850  175.7510  143.5860 O   0  0  0  0  0  0  0  0  0  0  0  0
  192.3290  176.2700  146.1730 C   0  0  0  0  0  0  0  0  0  0  0  0
  192.9860  176.8580  147.1950 N   0  0  0  0  0  2  0  0  0  0  0  0
  190.9750  176.2650  145.8720 C   0  0  0  0  0  3  0  0  0  0  0  0
  194.4430  176.4190  145.6110 C   0  0  0  0  0  0  0  0  0  0  0  0
  193.2580  175.9750  145.1680 C   0  0  0  0  0  0  0  0  0  0  0  0
  194.2770  176.9500  146.8480 N   0  0  0  0  0  0  0  0  0  0  0  0
  196.0840  176.3420  140.9470 C   0  0  0  0  0  2  0  0  0  0  0  0
  195.9880  174.8480  140.6020 C   0  0  2  0  0  3  0  0  0  0  0  0
  195.4970  173.9580  141.7490 C   0  0  0  0  0  2  0  0  0  0  0  0
  195.3440  176.3420  143.3560 C   0  0  0  0  0  0  0  0  0  0  0  0
  194.1110  174.3420  142.2720 C   0  0  0  0  0  2  0  0  0  0  0  0
  193.9970  175.7700  142.8290 C   0  0  0  0  0  0  0  0  0  0  0  0
  187.7310  176.1770  142.4610 C   0  0  0  0  0  2  0  0  0  0  0  0
  187.7280  177.6360  145.1560 C   0  0  0  0  0  2  0  0  0  0  0  0
  184.4590  178.0760  142.3680 C   0  0  0  0  0  0  0  0  0  0  0  0
  185.5530  177.2770  142.0150 C   0  0  0  0  0  3  0  0  0  0  0  0
  186.6290  177.1040  142.8910 C   0  0  0  0  0  0  0  0  0  0  0  0
  189.1990  175.8330  144.1230 C   0  0  1  0  0  3  0  0  0  0  0  0
  185.5050  178.5240  144.5110 C   0  0  0  0  0  3  0  0  0  0  0  0
  186.5960  177.7190  144.1680 C   0  0  0  0  0  0  0  0  0  0  0  0
  184.4430  178.6990  143.6220 C   0  0  0  0  0  3  0  0  0  0  0  0
  188.2770  176.2190  145.2930 C   0  0  0  0  0  2  0  0  0  0  0  0
  188.9650  176.6020  142.9680 O   0  0  0  0  0  0  0  0  0  0  0  0
  183.3660  178.2480  141.4550 N   0  0  0  0  0  0  0  0  0  0  0  0
  183.5560  178.1990  140.2220 O   0  0  0  0  0  0  0  0  0  0  0  0
  182.0940  178.4700  141.9290 O   0  0  0  0  0  0  0  0  0  0  0  0
  197.3010  174.3480  140.0980 C   0  0  0  0  0  0  0  0  0  0  0  0
  197.8780  174.9010  138.9620 O   0  0  0  0  0  0  0  0  0  0  0  0
  197.8870  173.4150  140.7060 O   0  0  0  0  0  1  0  0  0  0  0  0
  1 10  1  0  0  0  0
  2 15  1  0  0  0  0
  3  9  1  0  0  0  0
  4  8  2  0  0  0  0
  5  1  1  0  0  0  0
  5  4  1  0  0  0  0
  6  7  1  0  0  0  0
  8  6  1  0  0  0  0
  9 11  2  0  0  0  0
 10  9  1  0  0  0  0
 10  6  2  0  0  0  0
 11  7  1  0  0  0  0
 12  2  1  0  0  0  0
 13 32  1  1  0  0  0
 13 12  1  0  0  0  0
 13 14  1  0  0  0  0
 14 16  1  0  0  0  0
 15  3  2  0  0  0  0
 16 17  1  0  0  0  0
 17 15  1  0  0  0  0
 17  1  2  0  0  0  0
 18 22  1  0  0  0  0
 18 28  1  0  0  0  0
 19 27  1  0  0  0  0
 20 26  1  0  0  0  0
 21 20  2  0  0  0  0
 21 22  1  0  0  0  0
 22 25  2  0  0  0  0
 23  4  1  1  0  0  0
 23 27  1  0  0  0  0
 25 24  1  0  0  0  0
 25 19  1  0  0  0  0
 26 24  2  0  0  0  0
 28 23  1  0  0  0  0
 29 31  2  0  0  0  0
 29 20  1  0  0  0  0
 30 29  2  0  0  0  0
 32 34  1  0  0  0  0
 33 32  2  0  0  0  0
M  END
>  <MODEL>
1

>  <REMARK>
 VINA RESULT:      -8.6      0.000      0.000
  Name = 
  3 active torsions:
  status: ('A' for Active; 'I' for Inactive)
    1  A    between atoms: C_3  and  C_25
    2  A    between atoms: C_7  and  N_11
    3  A    between atoms: C_8  and  C_18
                            x       y       z     vdW  Elec       q    Type
                         _______ _______ _______ _____ _____    ______ ____

>  <TORSDO>
F 3

$$$$
=
 OpenBabel11052420143D

 34 39  0  0  1  0  0  0  0  0999 V2000
  191.0330  176.2960  144.3190 C   0  0  0  0  0  0  0  0  0  0  0  0
  194.9080  175.8310  143.7140 C   0  0  0  0  0  2  0  0  0  0  0  0
  193.4360  175.3380  145.6020 C   0  0  0  0  0  3  0  0  0  0  0  0
  188.9040  177.1870  144.7990 C   0  0  0  0  0  0  0  0  0  0  0  0
  189.9450  176.9870  143.9610 O   0  0  0  0  0  0  0  0  0  0  0  0
  190.0340  175.9450  146.4950 C   0  0  0  0  0  0  0  0  0  0  0  0
  190.5330  175.6570  147.7150 N   0  0  0  0  0  2  0  0  0  0  0  0
  188.9320  176.7120  146.1430 C   0  0  0  0  0  3  0  0  0  0  0  0
  192.1100  175.2920  146.2310 C   0  0  0  0  0  0  0  0  0  0  0  0
  191.0320  175.7000  145.5450 C   0  0  0  0  0  0  0  0  0  0  0  0
  191.8020  175.2610  147.5520 N   0  0  0  0  0  0  0  0  0  0  0  0
  194.8910  176.4170  142.3010 C   0  0  0  0  0  2  0  0  0  0  0  0
  194.3410  175.4540  141.2370 C   0  0  2  0  0  3  0  0  0  0  0  0
  193.2350  174.5170  141.7350 C   0  0  0  0  0  2  0  0  0  0  0  0
  193.5340  175.7540  144.3170 C   0  0  0  0  0  0  0  0  0  0  0  0
  192.0110  175.2520  142.2860 C   0  0  0  0  0  2  0  0  0  0  0  0
  192.2900  176.1740  143.4840 C   0  0  0  0  0  0  0  0  0  0  0  0
  185.4840  178.0840  144.2990 C   0  0  0  0  0  2  0  0  0  0  0  0
  187.2320  177.5670  141.8350 C   0  0  0  0  0  2  0  0  0  0  0  0
  182.9990  178.3310  141.4550 C   0  0  0  0  0  0  0  0  0  0  0  0
  183.5710  178.2870  142.7320 C   0  0  0  0  0  3  0  0  0  0  0  0
  184.9390  178.0490  142.8990 C   0  0  0  0  0  0  0  0  0  0  0  0
  187.7240  177.9580  144.3030 C   0  0  1  0  0  3  0  0  0  0  0  0
  185.1830  177.9150  140.4840 C   0  0  0  0  0  3  0  0  0  0  0  0
  185.7630  177.8820  141.7570 C   0  0  0  0  0  0  0  0  0  0  0  0
  183.8140  178.1420  140.3330 C   0  0  0  0  0  3  0  0  0  0  0  0
  187.9590  178.4360  142.8580 C   0  0  0  0  0  2  0  0  0  0  0  0
  186.5520  177.1910  144.4400 O   0  0  0  0  0  0  0  0  0  0  0  0
  181.5920  178.5700  141.3030 N   0  0  0  0  0  0  0  0  0  0  0  0
  180.9390  179.1150  142.2160 O   0  0  0  0  0  0  0  0  0  0  0  0
  180.9470  178.2000  140.1450 O   0  0  0  0  0  0  0  0  0  0  0  0
  195.4510  174.6560  140.6380 C   0  0  0  0  0  0  0  0  0  0  0  0
  196.4500  175.2780  139.9000 O   0  0  0  0  0  0  0  0  0  0  0  0
  195.4800  173.4080  140.8020 O   0  0  0  0  0  1  0  0  0  0  0  0
  1 10  1  0  0  0  0
  2 15  1  0  0  0  0
  3  9  1  0  0  0  0
  4  8  2  0  0  0  0
  5  1  1  0  0  0  0
  5  4  1  0  0  0  0
  6  7  1  0  0  0  0
  8  6  1  0  0  0  0
  9 11  2  0  0  0  0
 10  9  1  0  0  0  0
 10  6  2  0  0  0  0
 11  7  1  0  0  0  0
 12  2  1  0  0  0  0
 13 32  1  1  0  0  0
 13 14  1  0  0  0  0
 13 12  1  0  0  0  0
 14 16  1  0  0  0  0
 15  3  2  0  0  0  0
 16 17  1  0  0  0  0
 17 15  1  0  0  0  0
 17  1  2  0  0  0  0
 18 28  1  0  0  0  0
 19 27  1  0  0  0  0
 20 21  1  0  0  0  0
 21 22  2  0  0  0  0
 22 18  1  0  0  0  0
 23 28  1  0  0  0  0
 23  4  1  6  0  0  0
 24 25  2  0  0  0  0
 25 19  1  0  0  0  0
 25 22  1  0  0  0  0
 26 24  1  0  0  0  0
 26 20  2  0  0  0  0
 27 23  1  0  0  0  0
 29 20  1  0  0  0  0
 29 30  2  0  0  0  0
 31 29  2  0  0  0  0
 32 34  1  0  0  0  0
 33 32  2  0  0  0  0
M  END
>  <MODEL>
2

>  <REMARK>
 VINA RESULT:      -8.2      1.503      2.533
  Name = 
  3 active torsions:
  status: ('A' for Active; 'I' for Inactive)
    1  A    between atoms: C_3  and  C_25
    2  A    between atoms: C_7  and  N_11
    3  A    between atoms: C_8  and  C_18
                            x       y       z     vdW  Elec       q    Type
                         _______ _______ _______ _____ _____    ______ ____

>  <TORSDO>
F 3

$$$$
=
 OpenBabel11052420143D

 34 39  0  0  1  0  0  0  0  0999 V2000
  189.5060  175.3350  144.7460 C   0  0  0  0  0  0  0  0  0  0  0  0
  187.0490  177.5170  146.9360 C   0  0  0  0  0  2  0  0  0  0  0  0
  189.4690  177.1710  146.9740 C   0  0  0  0  0  3  0  0  0  0  0  0
  190.7560  173.5580  143.8290 C   0  0  0  0  0  0  0  0  0  0  0  0
  189.6070  174.2580  143.9580 O   0  0  0  0  0  0  0  0  0  0  0  0
  191.8350  175.0530  145.3440 C   0  0  0  0  0  0  0  0  0  0  0  0
  192.5820  175.4480  146.3960 N   0  0  0  0  0  2  0  0  0  0  0  0
  191.9210  173.9020  144.5730 C   0  0  0  0  0  3  0  0  0  0  0  0
  190.7000  176.5780  146.4350 C   0  0  0  0  0  0  0  0  0  0  0  0
  190.6400  175.7820  145.3580 C   0  0  0  0  0  0  0  0  0  0  0  0
  191.8850  176.3780  147.0630 N   0  0  0  0  0  0  0  0  0  0  0  0
  185.7870  177.0850  146.1870 C   0  0  0  0  0  2  0  0  0  0  0  0
  185.6070  177.7730  144.8250 C   0  0  2  0  0  3  0  0  0  0  0  0
  186.9160  178.0830  144.0890 C   0  0  0  0  0  2  0  0  0  0  0  0
  188.2980  176.9320  146.3380 C   0  0  0  0  0  0  0  0  0  0  0  0
  187.7680  176.8430  143.8070 C   0  0  0  0  0  2  0  0  0  0  0  0
  188.2140  176.0610  145.0520 C   0  0  0  0  0  0  0  0  0  0  0  0
  191.9780  171.2640  141.3800 C   0  0  0  0  0  2  0  0  0  0  0  0
  189.3150  172.6860  140.8470 C   0  0  0  0  0  2  0  0  0  0  0  0
  191.1280  170.1380  137.8680 C   0  0  0  0  0  0  0  0  0  0  0  0
  191.7900  170.3410  139.0850 C   0  0  0  0  0  3  0  0  0  0  0  0
  191.2340  171.1530  140.0790 C   0  0  0  0  0  0  0  0  0  0  0  0
  190.7740  172.3790  142.9110 C   0  0  1  0  0  3  0  0  0  0  0  0
  189.3170  171.5560  138.6410 C   0  0  0  0  0  3  0  0  0  0  0  0
  189.9670  171.7540  139.8630 C   0  0  0  0  0  0  0  0  0  0  0  0
  189.8880  170.7520  137.6530 C   0  0  0  0  0  3  0  0  0  0  0  0
  189.3880  172.1630  142.2790 C   0  0  0  0  0  2  0  0  0  0  0  0
  191.7930  172.5280  141.9520 O   0  0  0  0  0  0  0  0  0  0  0  0
  191.7150  169.3060  136.8570 N   0  0  0  0  0  0  0  0  0  0  0  0
  191.2480  169.2890  135.7000 O   0  0  0  0  0  0  0  0  0  0  0  0
  192.8020  168.5170  137.1540 O   0  0  0  0  0  0  0  0  0  0  0  0
  184.8040  179.0210  144.9780 C   0  0  0  0  0  0  0  0  0  0  0  0
  185.1350  180.1660  144.2630 O   0  0  0  0  0  0  0  0  0  0  0  0
  183.8210  179.0370  145.7630 O   0  0  0  0  0  1  0  0  0  0  0  0
  1 17  2  0  0  0  0
  1 10  1  0  0  0  0
  4  5  1  0  0  0  0
  4  8  2  0  0  0  0
  5  1  1  0  0  0  0
  6 10  2  0  0  0  0
  6  7  1  0  0  0  0
  7 11  1  0  0  0  0
  8  6  1  0  0  0  0
  9  3  1  0  0  0  0
  9 11  2  0  0  0  0
 10  9  1  0  0  0  0
 12  2  1  0  0  0  0
 13 32  1  1  0  0  0
 13 12  1  0  0  0  0
 14 13  1  0  0  0  0
 15  2  1  0  0  0  0
 15  3  2  0  0  0  0
 16 14  1  0  0  0  0
 16 17  1  0  0  0  0
 17 15  1  0  0  0  0
 18 28  1  0  0  0  0
 19 27  1  0  0  0  0
 20 21  1  0  0  0  0
 21 22  2  0  0  0  0
 22 18  1  0  0  0  0
 23  4  1  6  0  0  0
 24 25  2  0  0  0  0
 25 22  1  0  0  0  0
 25 19  1  0  0  0  0
 26 20  2  0  0  0  0
 26 24  1  0  0  0  0
 27 23  1  0  0  0  0
 28 23  1  0  0  0  0
 29 31  2  0  0  0  0
 29 20  1  0  0  0  0
 30 29  2  0  0  0  0
 32 34  1  0  0  0  0
 33 32  2  0  0  0  0
M  END
>  <MODEL>
3

>  <REMARK>
 VINA RESULT:      -8.2      4.512      8.923
  Name = 
  3 active torsions:
  status: ('A' for Active; 'I' for Inactive)
    1  A    between atoms: C_3  and  C_25
    2  A    between atoms: C_7  and  N_11
    3  A    between atoms: C_8  and  C_18
                            x       y       z     vdW  Elec       q    Type
                         _______ _______ _______ _____ _____    ______ ____

>  <TORSDO>
F 3

$$$$
=
 OpenBabel11052420143D

 34 39  0  0  1  0  0  0  0  0999 V2000
  192.7390  174.3010  145.0880 C   0  0  0  0  0  0  0  0  0  0  0  0
  196.2990  173.0130  143.9660 C   0  0  0  0  0  2  0  0  0  0  0  0
  195.5570  174.7180  145.5530 C   0  0  0  0  0  3  0  0  0  0  0  0
  190.6570  175.4050  145.2000 C   0  0  0  0  0  0  0  0  0  0  0  0
  191.4540  174.4200  144.7300 O   0  0  0  0  0  0  0  0  0  0  0  0
  192.4760  176.2570  146.4890 C   0  0  0  0  0  0  0  0  0  0  0  0
  193.3370  177.1650  146.9950 N   0  0  0  0  0  2  0  0  0  0  0  0
  191.1620  176.4140  146.0720 C   0  0  0  0  0  3  0  0  0  0  0  0
  194.5030  175.4550  146.2620 C   0  0  0  0  0  0  0  0  0  0  0  0
  193.2150  175.1590  146.0350 C   0  0  0  0  0  0  0  0  0  0  0  0
  194.5750  176.6740  146.8530 N   0  0  0  0  0  0  0  0  0  0  0  0
  195.7580  171.9850  142.9700 C   0  0  0  0  0  2  0  0  0  0  0  0
  195.2120  170.7090  143.6300 C   0  0  2  0  0  3  0  0  0  0  0  0
  194.5570  170.9290  144.9970 C   0  0  0  0  0  2  0  0  0  0  0  0
  195.2010  173.7200  144.7100 C   0  0  0  0  0  0  0  0  0  0  0  0
  193.3770  171.9030  144.9630 C   0  0  0  0  0  2  0  0  0  0  0  0
  193.7160  173.3210  144.4770 C   0  0  0  0  0  0  0  0  0  0  0  0
  187.8630  175.7960  143.0120 C   0  0  0  0  0  2  0  0  0  0  0  0
  187.9890  177.5240  145.5410 C   0  0  0  0  0  2  0  0  0  0  0  0
  184.8750  178.0820  142.6010 C   0  0  0  0  0  0  0  0  0  0  0  0
  185.8610  177.1150  142.3730 C   0  0  0  0  0  3  0  0  0  0  0  0
  186.8840  176.8990  143.3030 C   0  0  0  0  0  0  0  0  0  0  0  0
  189.2320  175.4450  144.7550 C   0  0  1  0  0  3  0  0  0  0  0  0
  185.9200  178.6190  144.7240 C   0  0  0  0  0  3  0  0  0  0  0  0
  186.9020  177.6460  144.5080 C   0  0  0  0  0  0  0  0  0  0  0  0
  184.9130  178.8330  143.7830 C   0  0  0  0  0  3  0  0  0  0  0  0
  188.3420  176.0700  145.8440 C   0  0  0  0  0  2  0  0  0  0  0  0
  189.1300  176.1100  143.5190 O   0  0  0  0  0  0  0  0  0  0  0  0
  183.8370  178.2960  141.6340 N   0  0  0  0  0  0  0  0  0  0  0  0
  184.1180  178.4890  140.4340 O   0  0  0  0  0  0  0  0  0  0  0  0
  182.5170  178.2910  142.0210 O   0  0  0  0  0  0  0  0  0  0  0  0
  196.2900  169.6830  143.7420 C   0  0  0  0  0  0  0  0  0  0  0  0
  196.0930  168.5320  144.4960 O   0  0  0  0  0  1  0  0  0  0  0  0
  197.3860  169.8630  143.1520 O   0  0  0  0  0  0  0  0  0  0  0  0
  1 10  1  0  0  0  0
  2 15  1  0  0  0  0
  3  9  1  0  0  0  0
  4  8  2  0  0  0  0
  5  1  1  0  0  0  0
  5  4  1  0  0  0  0
  6  7  1  0  0  0  0
  8  6  1  0  0  0  0
  9 11  2  0  0  0  0
 10  9  1  0  0  0  0
 10  6  2  0  0  0  0
 11  7  1  0  0  0  0
 12 13  1  0  0  0  0
 12  2  1  0  0  0  0
 13 32  1  1  0  0  0
 13 14  1  0  0  0  0
 15  3  2  0  0  0  0
 16 14  1  0  0  0  0
 17 15  1  0  0  0  0
 17 16  1  0  0  0  0
 17  1  2  0  0  0  0
 18 22  1  0  0  0  0
 18 28  1  0  0  0  0
 19 27  1  0  0  0  0
 20 26  1  0  0  0  0
 21 20  2  0  0  0  0
 21 22  1  0  0  0  0
 22 25  2  0  0  0  0
 23  4  1  1  0  0  0
 23 27  1  0  0  0  0
 25 24  1  0  0  0  0
 25 19  1  0  0  0  0
 26 24  2  0  0  0  0
 28 23  1  0  0  0  0
 29 31  2  0  0  0  0
 29 20  1  0  0  0  0
 30 29  2  0  0  0  0
 32 33  1  0  0  0  0
 34 32  2  0  0  0  0
M  END
>  <MODEL>
4

>  <REMARK>
 VINA RESULT:      -8.2      2.268      2.801
  Name = 
  3 active torsions:
  status: ('A' for Active; 'I' for Inactive)
    1  A    between atoms: C_3  and  C_25
    2  A    between atoms: C_7  and  N_11
    3  A    between atoms: C_8  and  C_18
                            x       y       z     vdW  Elec       q    Type
                         _______ _______ _______ _____ _____    ______ ____

>  <TORSDO>
F 3

$$$$
=
 OpenBabel11052420143D

 34 39  0  0  1  0  0  0  0  0999 V2000
  194.1500  174.1320  143.8210 C   0  0  0  0  0  0  0  0  0  0  0  0
  195.5770  170.4580  143.5880 C   0  0  0  0  0  2  0  0  0  0  0  0
  195.6680  172.3880  142.0910 C   0  0  0  0  0  3  0  0  0  0  0  0
  192.7490  176.0290  143.7740 C   0  0  0  0  0  0  0  0  0  0  0  0
  193.2110  174.9090  144.3740 O   0  0  0  0  0  0  0  0  0  0  0  0
  194.2190  175.6470  141.9330 C   0  0  0  0  0  0  0  0  0  0  0  0
  194.6110  175.5190  140.6490 N   0  0  0  0  0  0  0  0  0  0  0  0
  193.2040  176.4180  142.4810 C   0  0  0  0  0  3  0  0  0  0  0  0
  195.3740  173.7910  141.7690 C   0  0  0  0  0  0  0  0  0  0  0  0
  194.7160  174.5540  142.6540 C   0  0  0  0  0  0  0  0  0  0  0  0
  195.3150  174.3830  140.5500 N   0  0  0  0  0  0  0  0  0  0  0  0
  195.0190  170.0140  144.9420 C   0  0  0  0  0  2  0  0  0  0  0  0
  195.8230  170.5330  146.1440 C   0  0  2  0  0  3  0  0  0  0  0  0
  196.4480  171.9180  145.9440 C   0  0  0  0  0  2  0  0  0  0  0  0
  195.3010  171.9080  143.3030 C   0  0  0  0  0  0  0  0  0  0  0  0
  195.4250  173.0150  145.6380 C   0  0  0  0  0  2  0  0  0  0  0  0
  194.5910  172.7910  144.3670 C   0  0  1  0  0  3  0  0  0  0  0  0
  190.0800  176.7950  146.0200 C   0  0  0  0  0  2  0  0  0  0  0  0
  189.6780  177.3500  143.0330 C   0  0  0  0  0  2  0  0  0  0  0  0
  186.4610  177.8890  145.8630 C   0  0  0  0  0  0  0  0  0  0  0  0
  187.6990  177.4200  146.3200 C   0  0  0  0  0  3  0  0  0  0  0  0
  188.7680  177.2370  145.4370 C   0  0  0  0  0  0  0  0  0  0  0  0
  191.7110  176.8400  144.4790 C   0  0  1  0  0  3  0  0  0  0  0  0
  187.3640  178.0200  143.6150 C   0  0  0  0  0  3  0  0  0  0  0  0
  188.6060  177.5630  144.0660 C   0  0  0  0  0  0  0  0  0  0  0  0
  186.3010  178.1870  144.5040 C   0  0  0  0  0  3  0  0  0  0  0  0
  191.0460  177.8310  143.5070 C   0  0  0  0  0  2  0  0  0  0  0  0
  190.7830  175.9930  145.1130 O   0  0  0  0  0  0  0  0  0  0  0  0
  185.3720  178.0640  146.7810 N   0  0  0  0  0  0  0  0  0  0  0  0
  185.5610  177.9820  148.0120 O   0  0  0  0  0  0  0  0  0  0  0  0
  184.1050  178.3240  146.3130 O   0  0  0  0  0  0  0  0  0  0  0  0
  196.8800  169.5500  146.5230 C   0  0  0  0  0  0  0  0  0  0  0  0
  197.9310  169.2750  145.6570 O   0  0  0  0  0  0  0  0  0  0  0  0
  196.8160  168.9650  147.6350 O   0  0  0  0  0  1  0  0  0  0  0  0
  1 17  1  0  0  0  0
  1  5  1  0  0  0  0
  2 12  1  0  0  0  0
  3 15  2  0  0  0  0
  4  5  1  0  0  0  0
  6  8  1  0  0  0  0
  6 10  1  0  0  0  0
  7  6  2  0  0  0  0
  8  4  2  0  0  0  0
  9  3  1  0  0  0  0
  9 10  1  0  0  0  0
 10  1  2  0  0  0  0
 11  7  1  0  0  0  0
 11  9  2  0  0  0  0
 12 13  1  0  0  0  0
 13 32  1  6  0  0  0
 14 13  1  0  0  0  0
 15  2  1  0  0  0  0
 15 17  1  0  0  0  0
 16 14  1  0  0  0  0
 17 16  1  1  0  0  0
 19 27  1  0  0  0  0
 19 25  1  0  0  0  0
 20 21  1  0  0  0  0
 20 29  1  0  0  0  0
 22 18  1  0  0  0  0
 22 21  2  0  0  0  0
 23  4  1  6  0  0  0
 23 28  1  0  0  0  0
 24 25  2  0  0  0  0
 24 26  1  0  0  0  0
 25 22  1  0  0  0  0
 26 20  2  0  0  0  0
 27 23  1  0  0  0  0
 28 18  1  0  0  0  0
 29 30  2  0  0  0  0
 31 29  2  0  0  0  0
 32 34  1  0  0  0  0
 33 32  2  0  0  0  0
M  END
>  <MODEL>
5

>  <REMARK>
 VINA RESULT:      -8.1      3.810      5.057
  Name = 
  3 active torsions:
  status: ('A' for Active; 'I' for Inactive)
    1  A    between atoms: C_3  and  C_25
    2  A    between atoms: C_7  and  N_11
    3  A    between atoms: C_8  and  C_18
                            x       y       z     vdW  Elec       q    Type
                         _______ _______ _______ _____ _____    ______ ____

>  <TORSDO>
F 3

$$$$
=
 OpenBabel11052420143D

 34 39  0  0  1  0  0  0  0  0999 V2000
  187.8810  176.5040  143.2120 C   0  0  0  0  0  0  0  0  0  0  0  0
  189.8930  174.2750  145.7770 C   0  0  0  0  0  2  0  0  0  0  0  0
  189.7630  174.3180  143.3360 C   0  0  0  0  0  3  0  0  0  0  0  0
  186.1980  177.4260  141.8410 C   0  0  0  0  0  0  0  0  0  0  0  0
  186.7970  177.2700  143.0430 O   0  0  0  0  0  0  0  0  0  0  0  0
  187.8200  175.9850  140.8480 C   0  0  0  0  0  0  0  0  0  0  0  0
  188.3060  174.9700  140.1030 N   0  0  0  0  0  0  0  0  0  0  0  0
  186.6620  176.7320  140.6860 C   0  0  0  0  0  3  0  0  0  0  0  0
  189.2670  174.8870  142.0760 C   0  0  0  0  0  0  0  0  0  0  0  0
  188.4410  175.9440  142.1020 C   0  0  0  0  0  0  0  0  0  0  0  0
  189.1880  174.2990  140.8570 N   0  0  0  0  0  0  0  0  0  0  0  0
  189.3320  174.9680  147.0200 C   0  0  0  0  0  2  0  0  0  0  0  0
  189.9670  176.3370  147.3070 C   0  0  2  0  0  3  0  0  0  0  0  0
  190.3710  177.1270  146.0580 C   0  0  0  0  0  2  0  0  0  0  0  0
  189.4050  174.9050  144.5020 C   0  0  0  0  0  0  0  0  0  0  0  0
  189.2050  177.4130  145.1080 C   0  0  0  0  0  2  0  0  0  0  0  0
  188.4970  176.1670  144.5520 C   0  0  1  0  0  3  0  0  0  0  0  0
  183.1110  178.9610  142.7720 C   0  0  0  0  0  2  0  0  0  0  0  0
  183.2590  177.4920  140.0860 C   0  0  0  0  0  2  0  0  0  0  0  0
  179.5340  179.1210  141.5460 C   0  0  0  0  0  0  0  0  0  0  0  0
  180.6860  179.2400  142.3340 C   0  0  0  0  0  3  0  0  0  0  0  0
  181.9120  178.7320  141.8950 C   0  0  0  0  0  0  0  0  0  0  0  0
  185.0010  178.3170  141.7490 C   0  0  1  0  0  3  0  0  0  0  0  0
  180.8420  177.9910  139.8430 C   0  0  0  0  0  3  0  0  0  0  0  0
  181.9980  178.1170  140.6200 C   0  0  0  0  0  0  0  0  0  0  0  0
  179.6220  178.4920  140.2980 C   0  0  0  0  0  3  0  0  0  0  0  0
  184.4820  178.3780  140.3020 C   0  0  0  0  0  2  0  0  0  0  0  0
  184.0170  177.9000  142.6640 O   0  0  0  0  0  0  0  0  0  0  0  0
  178.2820  179.6420  142.0140 N   0  0  0  0  0  0  0  0  0  0  0  0
  177.6920  180.5390  141.3780 O   0  0  0  0  0  0  0  0  0  0  0  0
  177.7180  179.1570  143.1710 O   0  0  0  0  0  0  0  0  0  0  0  0
  191.1430  176.1830  148.2130 C   0  0  0  0  0  0  0  0  0  0  0  0
  191.6600  177.2800  148.8910 O   0  0  0  0  0  1  0  0  0  0  0  0
  191.6710  175.0510  148.3610 O   0  0  0  0  0  0  0  0  0  0  0  0
  1 17  1  0  0  0  0
  2 12  1  0  0  0  0
  3 15  2  0  0  0  0
  4  5  1  0  0  0  0
  5  1  1  0  0  0  0
  6 10  1  0  0  0  0
  7  6  2  0  0  0  0
  7 11  1  0  0  0  0
  8  6  1  0  0  0  0
  8  4  2  0  0  0  0
  9 10  1  0  0  0  0
  9  3  1  0  0  0  0
 10  1  2  0  0  0  0
 11  9  2  0  0  0  0
 12 13  1  0  0  0  0
 13 32  1  1  0  0  0
 14 13  1  0  0  0  0
 15 17  1  0  0  0  0
 15  2  1  0  0  0  0
 16 14  1  0  0  0  0
 17 16  1  6  0  0  0
 19 27  1  0  0  0  0
 19 25  1  0  0  0  0
 20 29  1  0  0  0  0
 20 21  1  0  0  0  0
 22 21  2  0  0  0  0
 22 18  1  0  0  0  0
 23  4  1  6  0  0  0
 23 28  1  0  0  0  0
 24 26  1  0  0  0  0
 24 25  2  0  0  0  0
 25 22  1  0  0  0  0
 26 20  2  0  0  0  0
 27 23  1  0  0  0  0
 28 18  1  0  0  0  0
 29 31  2  0  0  0  0
 30 29  2  0  0  0  0
 32 34  2  0  0  0  0
 32 33  1  0  0  0  0
M  END
>  <MODEL>
6

>  <REMARK>
 VINA RESULT:      -8.1      4.988      6.940
  Name = 
  3 active torsions:
  status: ('A' for Active; 'I' for Inactive)
    1  A    between atoms: C_3  and  C_25
    2  A    between atoms: C_7  and  N_11
    3  A    between atoms: C_8  and  C_18
                            x       y       z     vdW  Elec       q    Type
                         _______ _______ _______ _____ _____    ______ ____

>  <TORSDO>
F 3

$$$$
=
 OpenBabel11052420143D

 34 39  0  0  1  0  0  0  0  0999 V2000
  189.4510  175.5450  144.4430 C   0  0  0  0  0  0  0  0  0  0  0  0
  192.4780  173.3220  143.2210 C   0  0  0  0  0  2  0  0  0  0  0  0
  191.9920  174.4870  145.3150 C   0  0  0  0  0  3  0  0  0  0  0  0
  187.9550  177.3270  144.8260 C   0  0  0  0  0  0  0  0  0  0  0  0
  188.4430  176.3340  144.0510 O   0  0  0  0  0  0  0  0  0  0  0  0
  189.5330  176.7720  146.5280 C   0  0  0  0  0  0  0  0  0  0  0  0
  190.4890  176.9630  147.4610 N   0  0  0  0  0  2  0  0  0  0  0  0
  188.5280  177.6260  146.0960 C   0  0  0  0  0  3  0  0  0  0  0  0
  191.1190  175.3020  146.1700 C   0  0  0  0  0  0  0  0  0  0  0  0
  189.9250  175.7040  145.7120 C   0  0  0  0  0  0  0  0  0  0  0  0
  191.4580  176.0650  147.2390 N   0  0  0  0  0  0  0  0  0  0  0  0
  191.8990  173.0680  141.8280 C   0  0  0  0  0  2  0  0  0  0  0  0
  190.7760  172.0190  141.8040 C   0  0  2  0  0  3  0  0  0  0  0  0
  189.8960  171.9990  143.0590 C   0  0  0  0  0  2  0  0  0  0  0  0
  191.5460  174.1210  144.0900 C   0  0  0  0  0  0  0  0  0  0  0  0
  189.1990  173.3320  143.3410 C   0  0  0  0  0  2  0  0  0  0  0  0
  190.1410  174.5260  143.5620 C   0  0  0  0  0  0  0  0  0  0  0  0
  184.5930  178.4460  144.3760 C   0  0  0  0  0  2  0  0  0  0  0  0
  186.1880  177.5840  141.9040 C   0  0  0  0  0  2  0  0  0  0  0  0
  182.0110  178.6440  141.6160 C   0  0  0  0  0  0  0  0  0  0  0  0
  182.6350  178.6640  142.8700 C   0  0  0  0  0  3  0  0  0  0  0  0
  183.9870  178.3340  143.0060 C   0  0  0  0  0  0  0  0  0  0  0  0
  186.8160  178.1440  144.3070 C   0  0  1  0  0  3  0  0  0  0  0  0
  184.1140  177.9760  140.6050 C   0  0  0  0  0  3  0  0  0  0  0  0
  184.7450  178.0050  141.8530 C   0  0  0  0  0  0  0  0  0  0  0  0
  182.7610  178.2970  140.4850 C   0  0  0  0  0  3  0  0  0  0  0  0
  187.0220  178.4760  142.8190 C   0  0  0  0  0  2  0  0  0  0  0  0
  185.5970  177.4860  144.5550 O   0  0  0  0  0  0  0  0  0  0  0  0
  180.6220  178.9790  141.4960 N   0  0  0  0  0  0  0  0  0  0  0  0
  179.7430  178.2100  141.9360 O   0  0  0  0  0  0  0  0  0  0  0  0
  180.2420  180.1560  140.8920 O   0  0  0  0  0  0  0  0  0  0  0  0
  191.3420  170.6600  141.5590 C   0  0  0  0  0  0  0  0  0  0  0  0
  192.6640  170.5080  141.1570 O   0  0  0  0  0  0  0  0  0  0  0  0
  190.6150  169.6450  141.7160 O   0  0  0  0  0  1  0  0  0  0  0  0
  1 10  1  0  0  0  0
  2 15  1  0  0  0  0
  3  9  1  0  0  0  0
  4  8  2  0  0  0  0
  5  1  1  0  0  0  0
  5  4  1  0  0  0  0
  6  7  1  0  0  0  0
  8  6  1  0  0  0  0
  9 11  2  0  0  0  0
 10  9  1  0  0  0  0
 10  6  2  0  0  0  0
 11  7  1  0  0  0  0
 12  2  1  0  0  0  0
 13 32  1  1  0  0  0
 13 12  1  0  0  0  0
 13 14  1  0  0  0  0
 14 16  1  0  0  0  0
 15  3  2  0  0  0  0
 16 17  1  0  0  0  0
 17 15  1  0  0  0  0
 17  1  2  0  0  0  0
 18 28  1  0  0  0  0
 19 27  1  0  0  0  0
 20 21  1  0  0  0  0
 21 22  2  0  0  0  0
 22 18  1  0  0  0  0
 23 28  1  0  0  0  0
 23  4  1  6  0  0  0
 24 25  2  0  0  0  0
 25 19  1  0  0  0  0
 25 22  1  0  0  0  0
 26 24  1  0  0  0  0
 26 20  2  0  0  0  0
 27 23  1  0  0  0  0
 29 20  1  0  0  0  0
 29 30  2  0  0  0  0
 31 29  2  0  0  0  0
 32 34  1  0  0  0  0
 33 32  2  0  0  0  0
M  END
>  <MODEL>
7

>  <REMARK>
 VINA RESULT:      -8.1      3.180      4.330
  Name = 
  3 active torsions:
  status: ('A' for Active; 'I' for Inactive)
    1  A    between atoms: C_3  and  C_25
    2  A    between atoms: C_7  and  N_11
    3  A    between atoms: C_8  and  C_18
                            x       y       z     vdW  Elec       q    Type
                         _______ _______ _______ _____ _____    ______ ____

>  <TORSDO>
F 3

$$$$
=
 OpenBabel11052420143D

 34 39  0  0  1  0  0  0  0  0999 V2000
  193.6240  174.0000  144.6550 C   0  0  0  0  0  0  0  0  0  0  0  0
  196.7360  171.7910  143.6400 C   0  0  0  0  0  2  0  0  0  0  0  0
  196.5010  174.0910  144.4340 C   0  0  0  0  0  3  0  0  0  0  0  0
  191.7160  175.3860  144.6150 C   0  0  0  0  0  0  0  0  0  0  0  0
  192.3070  174.1770  144.4930 O   0  0  0  0  0  0  0  0  0  0  0  0
  193.8360  176.3700  145.0990 C   0  0  0  0  0  0  0  0  0  0  0  0
  194.8590  177.2470  145.0180 N   0  0  0  0  0  0  0  0  0  0  0  0
  192.4800  176.5620  144.8730 C   0  0  0  0  0  3  0  0  0  0  0  0
  195.6910  175.2170  144.9160 C   0  0  0  0  0  0  0  0  0  0  0  0
  194.3640  175.0750  145.0500 C   0  0  2  0  0  3  0  0  0  0  0  0
  195.9910  176.5400  144.9040 N   0  0  0  0  0  0  0  0  0  0  0  0
  195.9080  170.5540  143.2850 C   0  0  0  0  0  2  0  0  0  0  0  0
  195.4140  169.7660  144.5090 C   0  0  2  0  0  3  0  0  0  0  0  0
  195.0920  170.6280  145.7350 C   0  0  0  0  0  2  0  0  0  0  0  0
  195.8880  172.9120  144.1730 C   0  0  0  0  0  0  0  0  0  0  0  0
  194.0170  171.6870  145.4750 C   0  0  0  0  0  2  0  0  0  0  0  0
  194.3600  172.7070  144.3780 C   0  0  0  0  0  0  0  0  0  0  0  0
  188.5550  176.7800  143.7120 C   0  0  0  0  0  2  0  0  0  0  0  0
  188.9770  175.8750  146.6100 C   0  0  0  0  0  2  0  0  0  0  0  0
  185.3550  177.8910  145.3990 C   0  0  0  0  0  0  0  0  0  0  0  0
  186.3650  177.6800  144.4540 C   0  0  0  0  0  3  0  0  0  0  0  0
  187.5510  177.0260  144.8030 C   0  0  0  0  0  0  0  0  0  0  0  0
  190.2360  175.4800  144.4330 C   0  0  1  0  0  3  0  0  0  0  0  0
  186.7090  176.7660  147.0680 C   0  0  0  0  0  3  0  0  0  0  0  0
  187.7180  176.5410  146.1260 C   0  0  0  0  0  0  0  0  0  0  0  0
  185.5360  177.4310  146.7090 C   0  0  0  0  0  3  0  0  0  0  0  0
  189.5020  174.8370  145.6230 C   0  0  0  0  0  2  0  0  0  0  0  0
  189.8590  176.8190  144.2190 O   0  0  0  0  0  0  0  0  0  0  0  0
  184.1470  178.5700  145.0250 N   0  0  0  0  0  0  0  0  0  0  0  0
  183.3770  179.0210  145.8970 O   0  0  0  0  0  0  0  0  0  0  0  0
  183.8250  178.7310  143.6970 O   0  0  0  0  0  0  0  0  0  0  0  0
  196.4010  168.7100  144.8770 C   0  0  0  0  0  0  0  0  0  0  0  0
  196.4110  168.1680  146.1570 O   0  0  0  0  0  1  0  0  0  0  0  0
  197.2320  168.3080  144.0230 O   0  0  0  0  0  0  0  0  0  0  0  0
  2 15  1  0  0  0  0
  3  9  1  0  0  0  0
  4  8  2  0  0  0  0
  5  4  1  0  0  0  0
  5  1  1  0  0  0  0
  7  6  2  0  0  0  0
  8  6  1  0  0  0  0
  9 10  1  0  0  0  0
 10  1  1  6  0  0  0
 10  6  1  0  0  0  0
 11  9  2  0  0  0  0
 11  7  1  0  0  0  0
 12  2  1  0  0  0  0
 12 13  1  0  0  0  0
 13 32  1  1  0  0  0
 13 14  1  0  0  0  0
 15 17  1  0  0  0  0
 15  3  2  0  0  0  0
 16 14  1  0  0  0  0
 17  1  2  0  0  0  0
 17 16  1  0  0  0  0
 18 28  1  0  0  0  0
 18 22  1  0  0  0  0
 20 26  1  0  0  0  0
 21 22  1  0  0  0  0
 21 20  2  0  0  0  0
 22 25  2  0  0  0  0
 23  4  1  1  0  0  0
 23 27  1  0  0  0  0
 25 19  1  0  0  0  0
 25 24  1  0  0  0  0
 26 24  2  0  0  0  0
 27 19  1  0  0  0  0
 28 23  1  0  0  0  0
 29 20  1  0  0  0  0
 29 30  2  0  0  0  0
 31 29  2  0  0  0  0
 32 33  1  0  0  0  0
 34 32  2  0  0  0  0
M  END
>  <MODEL>
8

>  <REMARK>
 VINA RESULT:      -8.0      3.152      3.955
  Name = 
  3 active torsions:
  status: ('A' for Active; 'I' for Inactive)
    1  A    between atoms: C_3  and  C_25
    2  A    between atoms: C_7  and  N_11
    3  A    between atoms: C_8  and  C_18
                            x       y       z     vdW  Elec       q    Type
                         _______ _______ _______ _____ _____    ______ ____

>  <TORSDO>
F 3

$$$$
=
 OpenBabel11052420143D

 34 39  0  0  1  0  0  0  0  0999 V2000
  189.7930  175.8310  144.6000 C   0  0  0  0  0  0  0  0  0  0  0  0
  186.8250  177.1190  146.8650 C   0  0  0  0  0  2  0  0  0  0  0  0
  189.2520  177.0670  147.1530 C   0  0  0  0  0  3  0  0  0  0  0  0
  191.3800  174.4860  143.4900 C   0  0  0  0  0  0  0  0  0  0  0  0
  190.1330  174.9920  143.6140 O   0  0  0  0  0  0  0  0  0  0  0  0
  192.0620  175.6970  145.4300 C   0  0  0  0  0  0  0  0  0  0  0  0
  192.6290  175.9170  146.6350 N   0  0  0  0  0  2  0  0  0  0  0  0
  192.3980  174.7810  144.4430 C   0  0  0  0  0  3  0  0  0  0  0  0
  190.6070  176.7710  146.6680 C   0  0  0  0  0  0  0  0  0  0  0  0
  190.7780  176.2530  145.4430 C   0  0  0  0  0  0  0  0  0  0  0  0
  191.7370  176.5720  147.3900 N   0  0  0  0  0  0  0  0  0  0  0  0
  185.7260  176.7280  145.8750 C   0  0  0  0  0  2  0  0  0  0  0  0
  185.5890  177.6940  144.6880 C   0  0  2  0  0  3  0  0  0  0  0  0
  186.9060  178.3240  144.2230 C   0  0  0  0  0  2  0  0  0  0  0  0
  188.2020  176.8470  146.3270 C   0  0  0  0  0  0  0  0  0  0  0  0
  187.9570  177.2990  143.7910 C   0  0  0  0  0  2  0  0  0  0  0  0
  188.3820  176.3030  144.8810 C   0  0  0  0  0  0  0  0  0  0  0  0
  192.4280  173.4490  140.2380 C   0  0  0  0  0  2  0  0  0  0  0  0
  189.5720  172.7860  141.1310 C   0  0  0  0  0  2  0  0  0  0  0  0
  190.9210  171.9200  137.1210 C   0  0  0  0  0  0  0  0  0  0  0  0
  191.7990  172.5460  138.0150 C   0  0  0  0  0  3  0  0  0  0  0  0
  191.4030  172.8380  139.3240 C   0  0  0  0  0  0  0  0  0  0  0  0
  191.6680  173.5700  142.3460 C   0  0  1  0  0  3  0  0  0  0  0  0
  189.2310  171.8510  138.8600 C   0  0  0  0  0  3  0  0  0  0  0  0
  190.1070  172.4660  139.7620 C   0  0  0  0  0  0  0  0  0  0  0  0
  189.6340  171.5760  137.5530 C   0  0  0  0  0  3  0  0  0  0  0  0
  190.5820  172.4850  142.2340 C   0  0  0  0  0  2  0  0  0  0  0  0
  191.8220  174.3110  141.1590 O   0  0  0  0  0  0  0  0  0  0  0  0
  191.3410  171.6330  135.7790 N   0  0  0  0  0  0  0  0  0  0  0  0
  190.9070  170.6290  135.1800 O   0  0  0  0  0  0  0  0  0  0  0  0
  192.2300  172.4650  135.1380 O   0  0  0  0  0  0  0  0  0  0  0  0
  184.5980  178.7640  145.0030 C   0  0  0  0  0  0  0  0  0  0  0  0
  183.7320  178.6300  146.0810 O   0  0  0  0  0  1  0  0  0  0  0  0
  184.5450  179.7960  144.2840 O   0  0  0  0  0  0  0  0  0  0  0  0
  1 17  2  0  0  0  0
  1 10  1  0  0  0  0
  4  5  1  0  0  0  0
  4  8  2  0  0  0  0
  5  1  1  0  0  0  0
  6 10  2  0  0  0  0
  6  7  1  0  0  0  0
  7 11  1  0  0  0  0
  8  6  1  0  0  0  0
  9  3  1  0  0  0  0
  9 11  2  0  0  0  0
 10  9  1  0  0  0  0
 12  2  1  0  0  0  0
 13 32  1  1  0  0  0
 13 12  1  0  0  0  0
 14 13  1  0  0  0  0
 15  2  1  0  0  0  0
 15  3  2  0  0  0  0
 16 14  1  0  0  0  0
 16 17  1  0  0  0  0
 17 15  1  0  0  0  0
 18 28  1  0  0  0  0
 19 27  1  0  0  0  0
 20 26  2  0  0  0  0
 20 21  1  0  0  0  0
 21 22  2  0  0  0  0
 22 25  1  0  0  0  0
 22 18  1  0  0  0  0
 23  4  1  1  0  0  0
 24 25  2  0  0  0  0
 25 19  1  0  0  0  0
 26 24  1  0  0  0  0
 27 23  1  0  0  0  0
 28 23  1  0  0  0  0
 29 20  1  0  0  0  0
 30 29  2  0  0  0  0
 31 29  2  0  0  0  0
 32 33  1  0  0  0  0
 34 32  2  0  0  0  0
M  END
>  <MODEL>
9

>  <REMARK>
 VINA RESULT:      -8.0      4.170      8.617
  Name = 
  3 active torsions:
  status: ('A' for Active; 'I' for Inactive)
    1  A    between atoms: C_3  and  C_25
    2  A    between atoms: C_7  and  N_11
    3  A    between atoms: C_8  and  C_18
                            x       y       z     vdW  Elec       q    Type
                         _______ _______ _______ _____ _____    ______ ____

>  <TORSDO>
F 3

$$$$
