=
 OpenBabel11052418513D

 34 38  0  0  1  0  0  0  0  0999 V2000
  195.5140  175.7800  143.3550 C   0  0  0  0  0  0  0  0  0  0  0  0
  195.6080  174.7200  145.6000 C   0  0  0  0  0  3  0  0  0  0  0  0
  193.5750  175.9710  144.8990 N   0  0  0  0  0  0  0  0  0  0  0  0
  191.4650  176.4440  146.2290 C   0  0  2  0  0  3  0  0  0  0  0  0
  197.4890  174.5560  144.0330 C   0  0  0  0  0  3  0  0  0  0  0  0
  197.3120  173.2060  146.0700 F   0  0  0  0  0  0  0  0  0  0  0  0
  193.6070  176.0340  147.2500 O   0  0  0  0  0  0  0  0  0  0  0  0
  195.0390  175.8580  144.7880 C   0  0  0  0  0  0  0  0  0  0  0  0
  196.8830  175.3050  143.1060 C   0  0  0  0  0  2  0  0  0  0  0  0
  192.7780  176.3090  143.7460 C   0  0  0  0  0  0  0  0  0  0  0  0
  194.7410  176.0940  142.3620 N   0  0  0  0  0  0  0  0  0  0  0  0
  196.7870  174.1740  145.2800 C   0  0  0  0  0  0  0  0  0  0  0  0
  190.8210  175.9460  145.0780 O   0  0  0  0  0  0  0  0  0  0  0  0
  191.3140  176.6570  143.9640 C   0  0  2  0  0  3  0  0  0  0  0  0
  192.9350  176.1000  146.1850 C   0  0  0  0  0  0  0  0  0  0  0  0
  193.3580  176.4200  142.5460 C   0  0  0  0  0  3  0  0  0  0  0  0
  188.5240  175.0470  141.8440 C   0  0  0  0  0  0  0  0  0  0  0  0
  187.8320  176.2600  141.2920 C   0  0  0  0  0  2  0  0  0  0  0  0
  190.3940  176.4040  142.7630 C   0  0  1  0  0  3  0  0  0  0  0  0
  188.1550  177.4960  142.1290 C   0  0  0  0  0  2  0  0  0  0  0  0
  189.4980  175.1790  142.9760 C   0  0  0  0  0  2  0  0  0  0  0  0
  189.6670  177.6790  142.2840 C   0  0  0  0  0  2  0  0  0  0  0  0
  188.2760  173.9460  141.3810 O   0  0  0  0  0  0  0  0  0  0  0  0
  190.8060  175.8610  147.4690 C   0  0  0  0  0  2  0  0  0  0  0  0
  189.5750  175.0570  147.0800 C   0  0  0  0  0  2  0  0  0  0  0  0
  187.7280  176.2270  146.1110 C   0  0  0  0  0  3  0  0  0  0  0  0
  188.3840  175.8850  147.1740 N   0  0  0  0  0  0  0  0  0  0  0  0
  185.7330  176.5200  144.0430 O   0  0  0  0  0  0  0  0  0  0  0  0
  186.5190  177.0660  146.1650 C   0  0  2  0  0  3  0  0  0  0  0  0
  185.5800  177.1650  145.1130 C   0  0  0  0  0  0  0  0  0  0  0  0
  184.2680  178.6890  146.3830 C   0  0  0  0  0  3  0  0  0  0  0  0
  185.1710  178.6210  147.4450 C   0  0  0  0  0  3  0  0  0  0  0  0
  186.2970  177.8060  147.3290 C   0  0  0  0  0  3  0  0  0  0  0  0
  184.4900  177.9670  145.2530 N   0  0  0  0  0  0  0  0  0  0  0  0
  1  8  1  0  0  0  0
  3 15  1  0  0  0  0
  4 24  1  1  0  0  0
  5 12  2  0  0  0  0
  8  3  1  0  0  0  0
  8  2  2  0  0  0  0
  9  1  1  0  0  0  0
  9  5  1  0  0  0  0
 10  3  1  0  0  0  0
 11 16  1  0  0  0  0
 11  1  2  0  0  0  0
 12  2  1  0  0  0  0
 12  6  1  0  0  0  0
 13  4  1  0  0  0  0
 14 10  1  6  0  0  0
 14 13  1  0  0  0  0
 15  4  1  0  0  0  0
 15  7  2  0  0  0  0
 16 10  2  0  0  0  0
 17 21  1  0  0  0  0
 18 17  1  0  0  0  0
 18 20  1  0  0  0  0
 19 22  1  1  0  0  0
 19 21  1  0  0  0  0
 19 14  1  0  0  0  0
 20 22  1  0  0  0  0
 23 17  2  0  0  0  0
 25 27  1  0  0  0  0
 25 24  1  0  0  0  0
 26 27  2  0  0  0  0
 28 30  2  0  0  0  0
 29 26  1  6  0  0  0
 29 33  1  0  0  0  0
 30 34  1  0  0  0  0
 30 29  1  0  0  0  0
 31 32  1  0  0  0  0
 33 32  2  0  0  0  0
 34 31  2  0  0  0  0
M  END
>  <MODEL>
1

>  <REMARK>
 VINA RESULT:      -8.6      0.000      0.000
  Name = 
  5 active torsions:
  status: ('A' for Active; 'I' for Inactive)
    1  A    between atoms: C_3  and  C_13
    2  A    between atoms: C_5  and  C_18
    3  A    between atoms: C_12  and  C_28
    4  A    between atoms: N_17  and  C_29
    5  A    between atoms: C_18  and  C_29
                            x       y       z     vdW  Elec       q    Type
                         _______ _______ _______ _____ _____    ______ ____

>  <TORSDO>
F 5

$$$$
=
 OpenBabel11052418513D

 34 38  0  0  1  0  0  0  0  0999 V2000
  195.5010  174.9710  143.4300 C   0  0  0  0  0  0  0  0  0  0  0  0
  195.4990  174.6930  145.8990 C   0  0  0  0  0  3  0  0  0  0  0  0
  193.4600  175.5220  144.7390 N   0  0  0  0  0  0  0  0  0  0  0  0
  191.2510  176.2600  145.7470 C   0  0  2  0  0  3  0  0  0  0  0  0
  197.4820  174.1560  144.5580 C   0  0  0  0  0  3  0  0  0  0  0  0
  197.2370  173.5210  146.9110 F   0  0  0  0  0  0  0  0  0  0  0  0
  193.3390  176.3360  146.9430 O   0  0  0  0  0  0  0  0  0  0  0  0
  194.9320  175.4730  144.7380 C   0  0  0  0  0  0  0  0  0  0  0  0
  196.9030  174.5290  143.4120 C   0  0  0  0  0  2  0  0  0  0  0  0
  192.7240  175.4220  143.5030 C   0  0  0  0  0  0  0  0  0  0  0  0
  194.7790  174.9010  142.3550 N   0  0  0  0  0  0  0  0  0  0  0  0
  196.7200  174.1500  145.8280 C   0  0  0  0  0  0  0  0  0  0  0  0
  190.7040  175.3810  144.7900 O   0  0  0  0  0  0  0  0  0  0  0  0
  191.2350  175.7280  143.5300 C   0  0  2  0  0  3  0  0  0  0  0  0
  192.7350  176.0150  145.8840 C   0  0  0  0  0  0  0  0  0  0  0  0
  193.3740  175.1800  142.3600 C   0  0  0  0  0  3  0  0  0  0  0  0
  189.4120  172.9170  141.6190 C   0  0  0  0  0  0  0  0  0  0  0  0
  188.1070  173.5810  141.2890 C   0  0  0  0  0  2  0  0  0  0  0  0
  190.4060  175.0460  142.4350 C   0  0  1  0  0  3  0  0  0  0  0  0
  187.8600  174.7790  142.2040 C   0  0  0  0  0  2  0  0  0  0  0  0
  190.3380  173.5270  142.6280 C   0  0  0  0  0  2  0  0  0  0  0  0
  189.0500  175.7410  142.1860 C   0  0  0  0  0  2  0  0  0  0  0  0
  189.7110  171.8650  141.0790 O   0  0  0  0  0  0  0  0  0  0  0  0
  190.5410  176.0640  147.0770 C   0  0  0  0  0  2  0  0  0  0  0  0
  189.3190  175.1770  146.8940 C   0  0  0  0  0  2  0  0  0  0  0  0
  187.6830  176.4710  145.7270 C   0  0  0  0  0  3  0  0  0  0  0  0
  188.1130  175.9850  146.8470 N   0  0  0  0  0  0  0  0  0  0  0  0
  186.9930  178.3170  143.6140 O   0  0  0  0  0  0  0  0  0  0  0  0
  186.4660  177.2970  145.6390 C   0  0  2  0  0  3  0  0  0  0  0  0
  186.1900  178.1830  144.5740 C   0  0  0  0  0  0  0  0  0  0  0  0
  184.1290  178.8080  145.5840 C   0  0  0  0  0  3  0  0  0  0  0  0
  184.3640  177.9450  146.6550 C   0  0  0  0  0  3  0  0  0  0  0  0
  185.5370  177.1910  146.6770 C   0  0  0  0  0  3  0  0  0  0  0  0
  185.0370  178.9070  144.5780 N   0  0  0  0  0  0  0  0  0  0  0  0
  1  8  1  0  0  0  0
  3 15  1  0  0  0  0
  4 15  1  0  0  0  0
  4 24  1  1  0  0  0
  5 12  2  0  0  0  0
  8  3  1  0  0  0  0
  8  2  2  0  0  0  0
  9  1  1  0  0  0  0
  9  5  1  0  0  0  0
 10  3  1  0  0  0  0
 11 16  1  0  0  0  0
 11  1  2  0  0  0  0
 12  2  1  0  0  0  0
 12  6  1  0  0  0  0
 13  4  1  0  0  0  0
 14 10  1  1  0  0  0
 14 13  1  0  0  0  0
 15  7  2  0  0  0  0
 16 10  2  0  0  0  0
 17 21  1  0  0  0  0
 18 17  1  0  0  0  0
 18 20  1  0  0  0  0
 19 22  1  1  0  0  0
 19 21  1  0  0  0  0
 19 14  1  0  0  0  0
 22 20  1  0  0  0  0
 23 17  2  0  0  0  0
 25 24  1  0  0  0  0
 26 27  2  0  0  0  0
 27 25  1  0  0  0  0
 28 30  2  0  0  0  0
 29 26  1  1  0  0  0
 29 33  1  0  0  0  0
 30 34  1  0  0  0  0
 30 29  1  0  0  0  0
 31 32  1  0  0  0  0
 32 33  2  0  0  0  0
 34 31  2  0  0  0  0
M  END
>  <MODEL>
2

>  <REMARK>
 VINA RESULT:      -8.5      1.120      1.316
  Name = 
  5 active torsions:
  status: ('A' for Active; 'I' for Inactive)
    1  A    between atoms: C_3  and  C_13
    2  A    between atoms: C_5  and  C_18
    3  A    between atoms: C_12  and  C_28
    4  A    between atoms: N_17  and  C_29
    5  A    between atoms: C_18  and  C_29
                            x       y       z     vdW  Elec       q    Type
                         _______ _______ _______ _____ _____    ______ ____

>  <TORSDO>
F 5

$$$$
=
 OpenBabel11052418513D

 34 38  0  0  1  0  0  0  0  0999 V2000
  190.6020  171.1260  140.9540 C   0  0  0  0  0  0  0  0  0  0  0  0
  190.2380  172.6200  139.0020 C   0  0  0  0  0  3  0  0  0  0  0  0
  189.5080  173.3370  141.2700 N   0  0  0  0  0  0  0  0  0  0  0  0
  188.2930  175.4580  141.9500 C   0  0  2  0  0  3  0  0  0  0  0  0
  191.3190  170.4320  138.7480 C   0  0  0  0  0  3  0  0  0  0  0  0
  191.3000  172.1370  136.9880 F   0  0  0  0  0  0  0  0  0  0  0  0
  188.1500  174.5020  139.7450 O   0  0  0  0  0  0  0  0  0  0  0  0
  189.7220  172.2010  140.3570 C   0  0  0  0  0  0  0  0  0  0  0  0
  191.1890  170.1310  140.0440 C   0  0  0  0  0  2  0  0  0  0  0  0
  189.8380  173.2210  142.6690 C   0  0  0  0  0  0  0  0  0  0  0  0
  190.8630  171.0850  142.2230 N   0  0  0  0  0  0  0  0  0  0  0  0
  190.9150  171.7600  138.2320 C   0  0  0  0  0  0  0  0  0  0  0  0
  189.3210  175.5480  142.9110 O   0  0  0  0  0  0  0  0  0  0  0  0
  189.3700  174.3230  143.6080 C   0  0  2  0  0  3  0  0  0  0  0  0
  188.6610  174.4410  140.8960 C   0  0  0  0  0  0  0  0  0  0  0  0
  190.4360  172.1150  143.1230 C   0  0  0  0  0  3  0  0  0  0  0  0
  191.5350  176.0820  146.2700 C   0  0  0  0  0  0  0  0  0  0  0  0
  190.9040  175.5880  147.5400 C   0  0  0  0  0  2  0  0  0  0  0  0
  190.2110  174.5040  144.8770 C   0  0  1  0  0  3  0  0  0  0  0  0
  189.4910  175.0710  147.2780 C   0  0  0  0  0  2  0  0  0  0  0  0
  190.8360  175.9010  144.9570 C   0  0  0  0  0  2  0  0  0  0  0  0
  189.4820  174.0330  146.1540 C   0  0  0  0  0  2  0  0  0  0  0  0
  192.6130  176.6510  146.3110 O   0  0  0  0  0  0  0  0  0  0  0  0
  188.0620  176.8270  141.3290 C   0  0  0  0  0  2  0  0  0  0  0  0
  186.5900  177.2000  141.4140 C   0  0  0  0  0  2  0  0  0  0  0  0
  186.5400  178.0990  143.6300 C   0  0  0  0  0  3  0  0  0  0  0  0
  186.1480  177.1870  142.7990 N   0  0  0  0  0  0  0  0  0  0  0  0
  184.0180  179.0560  144.6650 O   0  0  0  0  0  0  0  0  0  0  0  0
  186.1150  178.1180  145.0400 C   0  0  2  0  0  3  0  0  0  0  0  0
  184.8630  178.6010  145.4810 C   0  0  0  0  0  0  0  0  0  0  0  0
  185.4270  178.1020  147.7370 C   0  0  0  0  0  3  0  0  0  0  0  0
  186.6730  177.6150  147.3440 C   0  0  0  0  0  3  0  0  0  0  0  0
  187.0130  177.6260  145.9920 C   0  0  0  0  0  3  0  0  0  0  0  0
  184.5580  178.5790  146.8070 N   0  0  0  0  0  0  0  0  0  0  0  0
  1 11  2  0  0  0  0
  2  8  2  0  0  0  0
  3 10  1  0  0  0  0
  4 24  1  6  0  0  0
  4 13  1  0  0  0  0
  5  9  1  0  0  0  0
  6 12  1  0  0  0  0
  7 15  2  0  0  0  0
  8  1  1  0  0  0  0
  8  3  1  0  0  0  0
  9  1  1  0  0  0  0
 10 16  2  0  0  0  0
 11 16  1  0  0  0  0
 12  5  2  0  0  0  0
 12  2  1  0  0  0  0
 13 14  1  0  0  0  0
 14 10  1  6  0  0  0
 14 19  1  0  0  0  0
 15  3  1  0  0  0  0
 15  4  1  0  0  0  0
 17 23  2  0  0  0  0
 17 18  1  0  0  0  0
 19 21  1  1  0  0  0
 19 22  1  0  0  0  0
 20 18  1  0  0  0  0
 21 17  1  0  0  0  0
 22 20  1  0  0  0  0
 24 25  1  0  0  0  0
 25 27  1  0  0  0  0
 27 26  2  0  0  0  0
 28 30  2  0  0  0  0
 29 26  1  1  0  0  0
 29 30  1  0  0  0  0
 29 33  1  0  0  0  0
 30 34  1  0  0  0  0
 32 31  1  0  0  0  0
 33 32  2  0  0  0  0
 34 31  2  0  0  0  0
M  END
>  <MODEL>
3

>  <REMARK>
 VINA RESULT:      -8.1      3.638      5.988
  Name = 
  5 active torsions:
  status: ('A' for Active; 'I' for Inactive)
    1  A    between atoms: C_3  and  C_13
    2  A    between atoms: C_5  and  C_18
    3  A    between atoms: C_12  and  C_28
    4  A    between atoms: N_17  and  C_29
    5  A    between atoms: C_18  and  C_29
                            x       y       z     vdW  Elec       q    Type
                         _______ _______ _______ _____ _____    ______ ____

>  <TORSDO>
F 5

$$$$
=
 OpenBabel11052418513D

 34 38  0  0  1  0  0  0  0  0999 V2000
  192.2500  176.3690  146.5000 C   0  0  0  0  0  0  0  0  0  0  0  0
  193.0390  175.6640  144.2530 C   0  0  0  0  0  3  0  0  0  0  0  0
  190.6100  175.6180  144.7880 N   0  0  0  0  0  0  0  0  0  0  0  0
  188.6800  174.8340  143.3380 C   0  0  2  0  0  3  0  0  0  0  0  0
  194.6120  176.4220  145.9760 C   0  0  0  0  0  3  0  0  0  0  0  0
  195.2340  176.1190  143.6260 F   0  0  0  0  0  0  0  0  0  0  0  0
  190.9360  174.0350  143.0790 O   0  0  0  0  0  0  0  0  0  0  0  0
  191.9800  175.4750  145.3100 C   0  0  2  0  0  3  0  0  0  0  0  0
  193.6490  176.6000  146.8870 C   0  0  0  0  0  3  0  0  0  0  0  0
  189.5960  176.2830  145.5680 C   0  0  0  0  0  0  0  0  0  0  0  0
  191.2870  176.9420  147.1540 N   0  0  0  0  0  0  0  0  0  0  0  0
  194.2820  176.0320  144.5860 C   0  0  0  0  0  0  0  0  0  0  0  0
  188.1190  176.0790  143.6930 O   0  0  0  0  0  0  0  0  0  0  0  0
  188.1530  176.1830  145.0990 C   0  0  2  0  0  3  0  0  0  0  0  0
  190.1510  174.8160  143.6810 C   0  0  0  0  0  0  0  0  0  0  0  0
  189.9230  176.8650  146.7270 C   0  0  0  0  0  3  0  0  0  0  0  0
  185.6200  179.0770  144.8080 C   0  0  0  0  0  0  0  0  0  0  0  0
  184.6860  178.7690  145.9410 C   0  0  0  0  0  2  0  0  0  0  0  0
  187.2410  177.3370  145.5350 C   0  0  1  0  0  3  0  0  0  0  0  0
  184.8080  177.3060  146.3630 C   0  0  0  0  0  2  0  0  0  0  0  0
  186.6050  178.0500  144.3370 C   0  0  0  0  0  2  0  0  0  0  0  0
  186.2630  176.9370  146.6610 C   0  0  0  0  0  2  0  0  0  0  0  0
  185.5650  180.1630  144.2550 O   0  0  0  0  0  0  0  0  0  0  0  0
  188.4630  174.5880  141.8530 C   0  0  0  0  0  2  0  0  0  0  0  0
  187.8160  173.2290  141.6360 C   0  0  0  0  0  2  0  0  0  0  0  0
  189.2420  172.5330  139.8480 C   0  0  0  0  0  3  0  0  0  0  0  0
  188.0450  172.7750  140.2740 N   0  0  0  0  0  0  0  0  0  0  0  0
  189.3390  174.1650  137.4650 O   0  0  0  0  0  0  0  0  0  0  0  0
  189.5150  172.0750  138.4740 C   0  0  2  0  0  3  0  0  0  0  0  0
  189.5480  172.9290  137.3490 C   0  0  0  0  0  0  0  0  0  0  0  0
  190.0410  171.0890  135.9250 C   0  0  0  0  0  3  0  0  0  0  0  0
  190.0180  170.2110  137.0090 C   0  0  0  0  0  3  0  0  0  0  0  0
  189.7540  170.7110  138.2840 C   0  0  0  0  0  3  0  0  0  0  0  0
  189.8080  172.4140  136.1170 N   0  0  0  0  0  0  0  0  0  0  0  0
  1  9  1  0  0  0  0
  1 11  2  0  0  0  0
  2 12  2  0  0  0  0
  3  8  1  0  0  0  0
  3 10  1  0  0  0  0
  4 24  1  6  0  0  0
  4 15  1  0  0  0  0
  4 13  1  0  0  0  0
  5  9  2  0  0  0  0
  6 12  1  0  0  0  0
  7 15  2  0  0  0  0
  8  2  1  6  0  0  0
  8  1  1  0  0  0  0
 10 16  2  0  0  0  0
 12  5  1  0  0  0  0
 14 13  1  6  0  0  0
 14 19  1  0  0  0  0
 14 10  1  0  0  0  0
 15  3  1  0  0  0  0
 16 11  1  0  0  0  0
 17 18  1  0  0  0  0
 18 20  1  0  0  0  0
 19 21  1  6  0  0  0
 19 22  1  0  0  0  0
 20 22  1  0  0  0  0
 21 17  1  0  0  0  0
 23 17  2  0  0  0  0
 25 24  1  0  0  0  0
 26 27  2  0  0  0  0
 27 25  1  0  0  0  0
 29 26  1  6  0  0  0
 30 28  2  0  0  0  0
 30 29  1  0  0  0  0
 31 34  2  0  0  0  0
 31 32  1  0  0  0  0
 32 33  2  0  0  0  0
 33 29  1  0  0  0  0
 34 30  1  0  0  0  0
M  END
>  <MODEL>
4

>  <REMARK>
 VINA RESULT:      -8.1      3.591      6.927
  Name = 
  5 active torsions:
  status: ('A' for Active; 'I' for Inactive)
    1  A    between atoms: C_3  and  C_13
    2  A    between atoms: C_5  and  C_18
    3  A    between atoms: C_12  and  C_28
    4  A    between atoms: N_17  and  C_29
    5  A    between atoms: C_18  and  C_29
                            x       y       z     vdW  Elec       q    Type
                         _______ _______ _______ _____ _____    ______ ____

>  <TORSDO>
F 5

$$$$
=
 OpenBabel11052418513D

 34 38  0  0  1  0  0  0  0  0999 V2000
  186.3100  176.8720  142.4430 C   0  0  0  0  0  0  0  0  0  0  0  0
  186.3520  178.4310  144.3770 C   0  0  0  0  0  3  0  0  0  0  0  0
  188.0230  176.5940  144.2250 N   0  0  0  0  0  0  0  0  0  0  0  0
  189.8380  175.9580  145.8800 C   0  0  2  0  0  3  0  0  0  0  0  0
  184.6900  178.6640  142.5880 C   0  0  0  0  0  3  0  0  0  0  0  0
  185.0820  180.3800  144.2930 F   0  0  0  0  0  0  0  0  0  0  0  0
  187.8190  177.1070  146.5110 O   0  0  0  0  0  0  0  0  0  0  0  0
  186.6520  177.0280  143.9080 C   0  0  0  0  0  0  0  0  0  0  0  0
  185.1360  177.5910  141.9280 C   0  0  0  0  0  2  0  0  0  0  0  0
  188.7760  175.8060  143.2810 C   0  0  0  0  0  0  0  0  0  0  0  0
  187.0370  176.1510  141.6470 N   0  0  0  0  0  0  0  0  0  0  0  0
  185.3830  179.1530  143.8020 C   0  0  0  0  0  0  0  0  0  0  0  0
  190.6670  175.9930  144.7400 O   0  0  0  0  0  0  0  0  0  0  0  0
  190.0780  175.1770  143.7520 C   0  0  2  0  0  3  0  0  0  0  0  0
  188.5180  176.6260  145.5780 C   0  0  0  0  0  0  0  0  0  0  0  0
  188.2690  175.5540  142.0700 C   0  0  0  0  0  3  0  0  0  0  0  0
  193.4350  175.2870  141.8570 C   0  0  0  0  0  0  0  0  0  0  0  0
  193.6110  173.8440  141.4800 C   0  0  0  0  0  2  0  0  0  0  0  0
  191.1100  174.9030  142.6510 C   0  0  1  0  0  3  0  0  0  0  0  0
  192.7480  172.9430  142.3620 C   0  0  0  0  0  2  0  0  0  0  0  0
  192.4090  175.6840  142.8750 C   0  0  0  0  0  2  0  0  0  0  0  0
  191.2870  173.3980  142.3530 C   0  0  0  0  0  2  0  0  0  0  0  0
  194.1450  176.1370  141.3470 O   0  0  0  0  0  0  0  0  0  0  0  0
  190.5450  176.6440  147.0390 C   0  0  0  0  0  2  0  0  0  0  0  0
  191.4080  175.6450  147.7930 C   0  0  0  0  0  2  0  0  0  0  0  0
  193.4310  175.8450  146.5350 C   0  0  0  0  0  3  0  0  0  0  0  0
  192.4380  175.1090  146.9190 N   0  0  0  0  0  0  0  0  0  0  0  0
  195.3130  177.4240  145.0140 O   0  0  0  0  0  0  0  0  0  0  0  0
  194.4930  175.3390  145.6480 C   0  0  2  0  0  3  0  0  0  0  0  0
  195.3830  176.1690  144.9300 C   0  0  0  0  0  0  0  0  0  0  0  0
  196.4610  174.2640  143.9990 C   0  0  0  0  0  3  0  0  0  0  0  0
  195.6020  173.4100  144.6900 C   0  0  0  0  0  3  0  0  0  0  0  0
  194.6180  173.9540  145.5140 C   0  0  0  0  0  3  0  0  0  0  0  0
  196.3340  175.6110  144.1330 N   0  0  0  0  0  0  0  0  0  0  0  0
  1  8  1  0  0  0  0
  3 15  1  0  0  0  0
  4 24  1  1  0  0  0
  5 12  2  0  0  0  0
  8  3  1  0  0  0  0
  8  2  2  0  0  0  0
  9  1  1  0  0  0  0
  9  5  1  0  0  0  0
 10  3  1  0  0  0  0
 11 16  1  0  0  0  0
 11  1  2  0  0  0  0
 12  6  1  0  0  0  0
 12  2  1  0  0  0  0
 13  4  1  0  0  0  0
 14 10  1  6  0  0  0
 14 13  1  0  0  0  0
 15  4  1  0  0  0  0
 15  7  2  0  0  0  0
 16 10  2  0  0  0  0
 17 21  1  0  0  0  0
 18 17  1  0  0  0  0
 18 20  1  0  0  0  0
 19 22  1  1  0  0  0
 19 21  1  0  0  0  0
 19 14  1  0  0  0  0
 22 20  1  0  0  0  0
 23 17  2  0  0  0  0
 24 25  1  0  0  0  0
 26 27  2  0  0  0  0
 27 25  1  0  0  0  0
 29 26  1  6  0  0  0
 30 28  2  0  0  0  0
 30 29  1  0  0  0  0
 31 34  2  0  0  0  0
 31 32  1  0  0  0  0
 32 33  2  0  0  0  0
 33 29  1  0  0  0  0
 34 30  1  0  0  0  0
M  END
>  <MODEL>
5

>  <REMARK>
 VINA RESULT:      -8.1      3.320      8.021
  Name = 
  5 active torsions:
  status: ('A' for Active; 'I' for Inactive)
    1  A    between atoms: C_3  and  C_13
    2  A    between atoms: C_5  and  C_18
    3  A    between atoms: C_12  and  C_28
    4  A    between atoms: N_17  and  C_29
    5  A    between atoms: C_18  and  C_29
                            x       y       z     vdW  Elec       q    Type
                         _______ _______ _______ _____ _____    ______ ____

>  <TORSDO>
F 5

$$$$
=
 OpenBabel11052418513D

 34 38  0  0  1  0  0  0  0  0999 V2000
  191.6160  175.0710  146.1290 C   0  0  0  0  0  0  0  0  0  0  0  0
  192.2760  175.8980  143.8810 C   0  0  0  0  0  3  0  0  0  0  0  0
  189.8680  175.6710  144.4650 N   0  0  0  0  0  0  0  0  0  0  0  0
  187.8350  176.0980  143.0080 C   0  0  2  0  0  3  0  0  0  0  0  0
  193.9590  175.3000  145.5640 C   0  0  0  0  0  3  0  0  0  0  0  0
  194.4890  176.5120  143.5020 F   0  0  0  0  0  0  0  0  0  0  0  0
  189.9940  175.5060  142.1220 O   0  0  0  0  0  0  0  0  0  0  0  0
  191.2300  175.1480  144.6690 C   0  0  2  0  0  3  0  0  0  0  0  0
  193.0410  174.9210  146.4600 C   0  0  0  0  0  3  0  0  0  0  0  0
  188.9450  175.7540  145.5690 C   0  0  0  0  0  0  0  0  0  0  0  0
  190.7320  175.1600  147.0740 N   0  0  0  0  0  0  0  0  0  0  0  0
  193.5570  175.8960  144.2690 C   0  0  0  0  0  0  0  0  0  0  0  0
  187.4080  176.8700  144.1080 O   0  0  0  0  0  0  0  0  0  0  0  0
  187.4870  176.0610  145.2610 C   0  0  2  0  0  3  0  0  0  0  0  0
  189.3050  175.7780  143.1430 C   0  0  0  0  0  0  0  0  0  0  0  0
  189.3560  175.4530  146.8050 C   0  0  0  0  0  3  0  0  0  0  0  0
  186.3470  178.8130  147.7100 C   0  0  0  0  0  0  0  0  0  0  0  0
  184.8540  178.6790  147.6330 C   0  0  0  0  0  2  0  0  0  0  0  0
  186.7040  176.7320  146.3960 C   0  0  1  0  0  3  0  0  0  0  0  0
  184.4400  177.9470  146.3580 C   0  0  0  0  0  2  0  0  0  0  0  0
  187.2210  178.1440  146.6930 C   0  0  0  0  0  2  0  0  0  0  0  0
  185.1750  176.6110  146.2250 C   0  0  0  0  0  2  0  0  0  0  0  0
  186.8500  179.4860  148.5940 O   0  0  0  0  0  0  0  0  0  0  0  0
  187.5580  176.8580  141.7200 C   0  0  0  0  0  2  0  0  0  0  0  0
  187.2500  178.3150  142.0270 C   0  0  0  0  0  2  0  0  0  0  0  0
  184.8910  178.0200  142.2850 C   0  0  0  0  0  3  0  0  0  0  0  0
  185.8700  178.6190  141.6860 N   0  0  0  0  0  0  0  0  0  0  0  0
  183.5590  177.5410  139.7660 O   0  0  0  0  0  0  0  0  0  0  0  0
  183.4800  178.2990  141.9660 C   0  0  2  0  0  3  0  0  0  0  0  0
  182.8890  178.0400  140.7090 C   0  0  0  0  0  0  0  0  0  0  0  0
  180.7990  178.8710  141.4820 C   0  0  0  0  0  3  0  0  0  0  0  0
  181.3430  179.1420  142.7380 C   0  0  0  0  0  3  0  0  0  0  0  0
  182.6870  178.8540  142.9740 C   0  0  0  0  0  3  0  0  0  0  0  0
  181.5760  178.3310  140.5060 N   0  0  0  0  0  0  0  0  0  0  0  0
  1  9  1  0  0  0  0
  1 11  2  0  0  0  0
  2 12  2  0  0  0  0
  3  8  1  0  0  0  0
  3 10  1  0  0  0  0
  4 24  1  6  0  0  0
  4 15  1  0  0  0  0
  4 13  1  0  0  0  0
  5  9  2  0  0  0  0
  6 12  1  0  0  0  0
  7 15  2  0  0  0  0
  8  2  1  6  0  0  0
  8  1  1  0  0  0  0
 10 16  2  0  0  0  0
 12  5  1  0  0  0  0
 14 13  1  6  0  0  0
 14 10  1  0  0  0  0
 14 19  1  0  0  0  0
 15  3  1  0  0  0  0
 16 11  1  0  0  0  0
 17 23  2  0  0  0  0
 18 17  1  0  0  0  0
 19 22  1  6  0  0  0
 19 21  1  0  0  0  0
 20 18  1  0  0  0  0
 21 17  1  0  0  0  0
 22 20  1  0  0  0  0
 24 25  1  0  0  0  0
 27 25  1  0  0  0  0
 27 26  2  0  0  0  0
 28 30  2  0  0  0  0
 29 26  1  6  0  0  0
 29 33  1  0  0  0  0
 30 29  1  0  0  0  0
 31 32  1  0  0  0  0
 32 33  2  0  0  0  0
 34 30  1  0  0  0  0
 34 31  2  0  0  0  0
M  END
>  <MODEL>
6

>  <REMARK>
 VINA RESULT:      -8.0      2.965      5.551
  Name = 
  5 active torsions:
  status: ('A' for Active; 'I' for Inactive)
    1  A    between atoms: C_3  and  C_13
    2  A    between atoms: C_5  and  C_18
    3  A    between atoms: C_12  and  C_28
    4  A    between atoms: N_17  and  C_29
    5  A    between atoms: C_18  and  C_29
                            x       y       z     vdW  Elec       q    Type
                         _______ _______ _______ _____ _____    ______ ____

>  <TORSDO>
F 5

$$$$
=
 OpenBabel11052418513D

 34 38  0  0  1  0  0  0  0  0999 V2000
  188.6620  174.5030  140.4260 C   0  0  0  0  0  0  0  0  0  0  0  0
  190.2200  173.0070  141.6530 C   0  0  0  0  0  3  0  0  0  0  0  0
  189.4260  175.1130  142.7120 N   0  0  0  0  0  0  0  0  0  0  0  0
  190.0580  176.0920  144.9670 C   0  0  2  0  0  3  0  0  0  0  0  0
  189.4280  172.4490  139.3990 C   0  0  0  0  0  3  0  0  0  0  0  0
  190.6060  170.8590  140.8430 F   0  0  0  0  0  0  0  0  0  0  0  0
  191.4870  174.6060  143.7250 O   0  0  0  0  0  0  0  0  0  0  0  0
  189.7710  174.4330  141.4520 C   0  0  0  0  0  0  0  0  0  0  0  0
  188.7170  173.5760  139.2860 C   0  0  0  0  0  2  0  0  0  0  0  0
  188.2990  176.0110  142.7740 C   0  0  0  0  0  0  0  0  0  0  0  0
  187.6720  175.3320  140.5470 N   0  0  0  0  0  0  0  0  0  0  0  0
  190.1240  172.1120  140.6620 C   0  0  0  0  0  0  0  0  0  0  0  0
  188.6610  176.1910  145.1350 O   0  0  0  0  0  0  0  0  0  0  0  0
  188.1370  176.8720  144.0170 C   0  0  2  0  0  3  0  0  0  0  0  0
  190.3730  175.1910  143.7960 C   0  0  0  0  0  0  0  0  0  0  0  0
  187.4990  176.1480  141.7110 C   0  0  0  0  0  3  0  0  0  0  0  0
  185.0200  177.7700  146.1020 C   0  0  0  0  0  0  0  0  0  0  0  0
  184.5740  179.0410  145.4370 C   0  0  0  0  0  2  0  0  0  0  0  0
  186.7010  177.3120  144.3280 C   0  0  1  0  0  3  0  0  0  0  0  0
  185.7170  179.6650  144.6390 C   0  0  0  0  0  2  0  0  0  0  0  0
  186.3800  177.2060  145.8230 C   0  0  0  0  0  2  0  0  0  0  0  0
  186.3260  178.6550  143.6640 C   0  0  0  0  0  2  0  0  0  0  0  0
  184.2780  177.2050  146.8870 O   0  0  0  0  0  0  0  0  0  0  0  0
  190.6840  175.5620  146.2470 C   0  0  0  0  0  2  0  0  0  0  0  0
  191.8850  176.4110  146.6340 C   0  0  0  0  0  2  0  0  0  0  0  0
  193.9990  176.1710  145.5420 C   0  0  0  0  0  3  0  0  0  0  0  0
  193.1180  175.6910  146.3610 N   0  0  0  0  0  0  0  0  0  0  0  0
  195.7080  176.6020  143.2530 O   0  0  0  0  0  0  0  0  0  0  0  0
  195.2590  175.4710  145.2370 C   0  0  2  0  0  3  0  0  0  0  0  0
  196.0490  175.7310  144.0950 C   0  0  0  0  0  0  0  0  0  0  0  0
  197.6240  174.0800  144.7690 C   0  0  0  0  0  3  0  0  0  0  0  0
  196.8730  173.7930  145.9080 C   0  0  0  0  0  3  0  0  0  0  0  0
  195.6880  174.4930  146.1380 C   0  0  0  0  0  3  0  0  0  0  0  0
  197.2000  175.0330  143.8970 N   0  0  0  0  0  0  0  0  0  0  0  0
  1 11  2  0  0  0  0
  1  8  1  0  0  0  0
  3 10  1  0  0  0  0
  3 15  1  0  0  0  0
  4 13  1  0  0  0  0
  4 24  1  1  0  0  0
  5 12  2  0  0  0  0
  7 15  2  0  0  0  0
  8  2  2  0  0  0  0
  8  3  1  0  0  0  0
  9  5  1  0  0  0  0
  9  1  1  0  0  0  0
 11 16  1  0  0  0  0
 12  6  1  0  0  0  0
 12  2  1  0  0  0  0
 14 10  1  6  0  0  0
 14 19  1  0  0  0  0
 14 13  1  0  0  0  0
 15  4  1  0  0  0  0
 16 10  2  0  0  0  0
 17 23  2  0  0  0  0
 18 17  1  0  0  0  0
 19 22  1  1  0  0  0
 19 21  1  0  0  0  0
 20 18  1  0  0  0  0
 21 17  1  0  0  0  0
 22 20  1  0  0  0  0
 24 25  1  0  0  0  0
 26 27  2  0  0  0  0
 27 25  1  0  0  0  0
 28 30  2  0  0  0  0
 29 26  1  6  0  0  0
 29 33  1  0  0  0  0
 30 29  1  0  0  0  0
 31 32  1  0  0  0  0
 32 33  2  0  0  0  0
 34 30  1  0  0  0  0
 34 31  2  0  0  0  0
M  END
>  <MODEL>
7

>  <REMARK>
 VINA RESULT:      -7.9      2.814      7.384
  Name = 
  5 active torsions:
  status: ('A' for Active; 'I' for Inactive)
    1  A    between atoms: C_3  and  C_13
    2  A    between atoms: C_5  and  C_18
    3  A    between atoms: C_12  and  C_28
    4  A    between atoms: N_17  and  C_29
    5  A    between atoms: C_18  and  C_29
                            x       y       z     vdW  Elec       q    Type
                         _______ _______ _______ _____ _____    ______ ____

>  <TORSDO>
F 5

$$$$
=
 OpenBabel11052418513D

 34 38  0  0  1  0  0  0  0  0999 V2000
  195.5540  172.9280  143.2570 C   0  0  0  0  0  0  0  0  0  0  0  0
  195.5590  174.4000  145.2590 C   0  0  0  0  0  3  0  0  0  0  0  0
  193.8830  174.7600  143.4550 N   0  0  0  0  0  0  0  0  0  0  0  0
  192.1070  176.5640  143.2760 C   0  0  2  0  0  3  0  0  0  0  0  0
  197.1790  172.5730  145.0160 C   0  0  0  0  0  3  0  0  0  0  0  0
  196.8280  173.7910  147.1130 F   0  0  0  0  0  0  0  0  0  0  0  0
  194.1410  176.8340  144.5350 O   0  0  0  0  0  0  0  0  0  0  0  0
  195.2470  174.3120  143.7850 C   0  0  2  0  0  3  0  0  0  0  0  0
  196.7160  172.2200  143.8120 C   0  0  0  0  0  3  0  0  0  0  0  0
  193.1070  174.0660  142.4570 C   0  0  0  0  0  0  0  0  0  0  0  0
  194.8070  172.3600  142.3620 N   0  0  0  0  0  0  0  0  0  0  0  0
  196.5140  173.6370  145.8040 C   0  0  0  0  0  0  0  0  0  0  0  0
  191.2520  175.4710  143.0240 O   0  0  0  0  0  0  0  0  0  0  0  0
  191.8160  174.7120  141.9790 C   0  0  2  0  0  3  0  0  0  0  0  0
  193.4200  176.0710  143.8360 C   0  0  0  0  0  0  0  0  0  0  0  0
  193.5860  172.9490  141.9010 C   0  0  0  0  0  3  0  0  0  0  0  0
  188.3420  173.1610  141.3500 C   0  0  0  0  0  0  0  0  0  0  0  0
  188.3950  172.9020  139.8720 C   0  0  0  0  0  2  0  0  0  0  0  0
  190.7590  173.7410  141.4390 C   0  0  1  0  0  3  0  0  0  0  0  0
  189.4780  173.7520  139.2110 C   0  0  0  0  0  2  0  0  0  0  0  0
  189.3650  174.0410  142.0020 C   0  0  0  0  0  2  0  0  0  0  0  0
  190.8280  173.5660  139.9070 C   0  0  0  0  0  2  0  0  0  0  0  0
  187.4500  172.6680  142.0190 O   0  0  0  0  0  0  0  0  0  0  0  0
  191.4280  177.5240  144.2410 C   0  0  0  0  0  2  0  0  0  0  0  0
  190.3850  176.7880  145.0670 C   0  0  0  0  0  2  0  0  0  0  0  0
  188.0750  177.0320  145.6350 C   0  0  0  0  0  3  0  0  0  0  0  0
  189.1110  177.4850  145.0030 N   0  0  0  0  0  0  0  0  0  0  0  0
  185.9400  176.7910  147.5670 O   0  0  0  0  0  0  0  0  0  0  0  0
  186.7670  177.7080  145.5920 C   0  0  2  0  0  3  0  0  0  0  0  0
  185.7630  177.5450  146.5740 C   0  0  0  0  0  0  0  0  0  0  0  0
  184.3300  179.0400  145.4030 C   0  0  0  0  0  3  0  0  0  0  0  0
  185.2940  179.2280  144.4130 C   0  0  0  0  0  3  0  0  0  0  0  0
  186.5130  178.5580  144.5130 C   0  0  0  0  0  3  0  0  0  0  0  0
  184.5830  178.2110  146.4510 N   0  0  0  0  0  0  0  0  0  0  0  0
  1  8  1  0  0  0  0
  1  9  1  0  0  0  0
  2 12  2  0  0  0  0
  3  8  1  0  0  0  0
  3 15  1  0  0  0  0
  4 15  1  0  0  0  0
  4 24  1  1  0  0  0
  5 12  1  0  0  0  0
  8  2  1  1  0  0  0
  9  5  2  0  0  0  0
 10  3  1  0  0  0  0
 11  1  2  0  0  0  0
 12  6  1  0  0  0  0
 13  4  1  0  0  0  0
 14 10  1  1  0  0  0
 14 13  1  0  0  0  0
 15  7  2  0  0  0  0
 16 11  1  0  0  0  0
 16 10  2  0  0  0  0
 17 21  1  0  0  0  0
 17 23  2  0  0  0  0
 18 17  1  0  0  0  0
 19 22  1  6  0  0  0
 19 14  1  0  0  0  0
 19 21  1  0  0  0  0
 20 18  1  0  0  0  0
 20 22  1  0  0  0  0
 24 25  1  0  0  0  0
 27 25  1  0  0  0  0
 27 26  2  0  0  0  0
 29 26  1  6  0  0  0
 29 30  1  0  0  0  0
 30 28  2  0  0  0  0
 31 34  2  0  0  0  0
 32 33  2  0  0  0  0
 32 31  1  0  0  0  0
 33 29  1  0  0  0  0
 34 30  1  0  0  0  0
M  END
>  <MODEL>
8

>  <REMARK>
 VINA RESULT:      -7.5      2.144      2.700
  Name = 
  5 active torsions:
  status: ('A' for Active; 'I' for Inactive)
    1  A    between atoms: C_3  and  C_13
    2  A    between atoms: C_5  and  C_18
    3  A    between atoms: C_12  and  C_28
    4  A    between atoms: N_17  and  C_29
    5  A    between atoms: C_18  and  C_29
                            x       y       z     vdW  Elec       q    Type
                         _______ _______ _______ _____ _____    ______ ____

>  <TORSDO>
F 5

$$$$
=
 OpenBabel11052418513D

 34 38  0  0  1  0  0  0  0  0999 V2000
  194.3330  175.5360  142.6280 C   0  0  0  0  0  0  0  0  0  0  0  0
  192.8280  176.3050  144.4480 C   0  0  0  0  0  3  0  0  0  0  0  0
  191.8720  175.2600  142.4030 N   0  0  0  0  0  0  0  0  0  0  0  0
  189.4340  174.9020  141.7940 C   0  0  2  0  0  3  0  0  0  0  0  0
  195.2630  176.5450  144.6220 C   0  0  0  0  0  3  0  0  0  0  0  0
  193.7400  176.8730  146.5130 F   0  0  0  0  0  0  0  0  0  0  0  0
  190.1820  176.6360  143.2880 O   0  0  0  0  0  0  0  0  0  0  0  0
  192.9610  176.0780  142.9620 C   0  0  2  0  0  3  0  0  0  0  0  0
  195.4780  176.0260  143.4080 C   0  0  0  0  0  3  0  0  0  0  0  0
  192.1450  174.2770  141.3840 C   0  0  0  0  0  0  0  0  0  0  0  0
  194.5060  174.6450  141.7010 N   0  0  0  0  0  0  0  0  0  0  0  0
  193.8990  176.5970  145.1960 C   0  0  0  0  0  0  0  0  0  0  0  0
  189.8580  173.5820  141.5400 O   0  0  0  0  0  0  0  0  0  0  0  0
  190.9640  173.6430  140.6670 C   0  0  2  0  0  3  0  0  0  0  0  0
  190.4920  175.6410  142.5790 C   0  0  0  0  0  0  0  0  0  0  0  0
  193.4070  174.0320  141.0170 C   0  0  0  0  0  3  0  0  0  0  0  0
  190.8590  169.8000  140.3600 C   0  0  0  0  0  0  0  0  0  0  0  0
  190.5170  169.6270  138.9080 C   0  0  0  0  0  2  0  0  0  0  0  0
  191.2210  172.2450  140.0890 C   0  0  1  0  0  3  0  0  0  0  0  0
  189.9000  170.9040  138.3400 C   0  0  0  0  0  2  0  0  0  0  0  0
  190.7110  171.1380  141.0180 C   0  0  0  0  0  2  0  0  0  0  0  0
  190.7920  172.1170  138.6110 C   0  0  0  0  0  2  0  0  0  0  0  0
  191.2390  168.8410  141.0100 O   0  0  0  0  0  0  0  0  0  0  0  0
  188.1160  174.8720  142.5520 C   0  0  0  0  0  2  0  0  0  0  0  0
  187.1540  175.8980  141.9720 C   0  0  0  0  0  2  0  0  0  0  0  0
  186.8640  176.6600  144.2190 C   0  0  0  0  0  3  0  0  0  0  0  0
  186.3700  176.5080  143.0330 N   0  0  0  0  0  0  0  0  0  0  0  0
  187.4320  176.4490  147.0450 O   0  0  0  0  0  0  0  0  0  0  0  0
  186.1000  177.2720  145.3210 C   0  0  2  0  0  3  0  0  0  0  0  0
  186.4330  177.1280  146.6860 C   0  0  0  0  0  0  0  0  0  0  0  0
  184.5770  178.4760  147.3150 C   0  0  0  0  0  3  0  0  0  0  0  0
  184.2130  178.6430  145.9790 C   0  0  0  0  0  3  0  0  0  0  0  0
  184.9800  178.0370  144.9840 C   0  0  0  0  0  3  0  0  0  0  0  0
  185.6680  177.7300  147.6360 N   0  0  0  0  0  0  0  0  0  0  0  0
  1  8  1  0  0  0  0
  1  9  1  0  0  0  0
  2 12  2  0  0  0  0
  3 15  1  0  0  0  0
  3  8  1  0  0  0  0
  4 24  1  1  0  0  0
  4 15  1  0  0  0  0
  5 12  1  0  0  0  0
  8  2  1  1  0  0  0
  9  5  2  0  0  0  0
 10  3  1  0  0  0  0
 11  1  2  0  0  0  0
 12  6  1  0  0  0  0
 13  4  1  0  0  0  0
 14 10  1  1  0  0  0
 14 13  1  0  0  0  0
 15  7  2  0  0  0  0
 16 10  2  0  0  0  0
 16 11  1  0  0  0  0
 17 23  2  0  0  0  0
 17 21  1  0  0  0  0
 18 17  1  0  0  0  0
 19 22  1  6  0  0  0
 19 14  1  0  0  0  0
 19 21  1  0  0  0  0
 20 22  1  0  0  0  0
 20 18  1  0  0  0  0
 25 24  1  0  0  0  0
 25 27  1  0  0  0  0
 27 26  2  0  0  0  0
 29 26  1  1  0  0  0
 29 30  1  0  0  0  0
 30 28  2  0  0  0  0
 30 34  1  0  0  0  0
 31 34  2  0  0  0  0
 32 31  1  0  0  0  0
 33 29  1  0  0  0  0
 33 32  2  0  0  0  0
M  END
>  <MODEL>
9

>  <REMARK>
 VINA RESULT:      -7.3      3.064      4.279
  Name = 
  5 active torsions:
  status: ('A' for Active; 'I' for Inactive)
    1  A    between atoms: C_3  and  C_13
    2  A    between atoms: C_5  and  C_18
    3  A    between atoms: C_12  and  C_28
    4  A    between atoms: N_17  and  C_29
    5  A    between atoms: C_18  and  C_29
                            x       y       z     vdW  Elec       q    Type
                         _______ _______ _______ _____ _____    ______ ____

>  <TORSDO>
F 5

$$$$
