=
 OpenBabel11052418113D

 28 29  0  0  1  0  0  0  0  0999 V2000
  188.5320  176.3230  145.6260 C   0  0  2  0  0  3  0  0  0  0  0  0
  189.3000  174.5370  147.2610 C   0  0  0  0  0  1  0  0  0  0  0  0
  189.5520  175.2130  145.9210 C   0  0  1  0  0  3  0  0  0  0  0  0
  188.5340  174.8450  140.6910 O   0  0  0  0  0  0  0  0  0  0  0  0
  190.0450  172.4070  142.7350 C   0  0  0  0  0  0  0  0  0  0  0  0
  189.2970  174.5640  143.5150 C   0  0  0  0  0  3  0  0  0  0  0  0
  189.3630  172.7320  140.3400 N   0  0  0  0  0  0  0  0  0  0  0  0
  189.4580  173.6400  142.4810 C   0  0  0  0  0  0  0  0  0  0  0  0
  190.3340  172.9590  145.0400 C   0  0  0  0  0  3  0  0  0  0  0  0
  190.0780  171.5680  141.2920 S   0  0  0  0  0  0  0  0  0  0  0  0
  190.4920  172.0330  143.9970 C   0  0  0  0  0  3  0  0  0  0  0  0
  189.0960  172.6120  138.9170 C   0  0  0  0  0  1  0  0  0  0  0  0
  189.0830  173.8000  141.1340 C   0  0  0  0  0  0  0  0  0  0  0  0
  189.7410  174.2220  144.8060 C   0  0  0  0  0  0  0  0  0  0  0  0
  189.1410  177.7230  145.5900 C   0  0  0  0  0  2  0  0  0  0  0  0
  190.0540  177.8760  144.3890 C   0  0  0  0  0  1  0  0  0  0  0  0
  187.3950  176.2800  146.6430 C   0  0  0  0  0  2  0  0  0  0  0  0
  186.5710  177.5700  146.6900 C   0  0  1  0  0  3  0  0  0  0  0  0
  185.1750  177.4430  146.1430 C   0  0  0  0  0  0  0  0  0  0  0  0
  184.8320  177.8880  144.8220 N   0  0  0  0  0  2  0  0  0  0  0  0
  184.2830  176.8970  146.8450 O   0  0  0  0  0  0  0  0  0  0  0  0
  185.7170  179.8970  143.8150 C   0  0  0  0  0  2  0  0  0  0  0  0
  185.6530  178.5680  143.8540 C   0  0  0  0  0  0  0  0  0  0  0  0
  186.4120  177.7690  142.8670 C   0  0  0  0  0  0  0  0  0  0  0  0
  186.2440  176.2890  142.7650 C   0  0  0  0  0  1  0  0  0  0  0  0
  187.2630  178.3600  142.0360 C   0  0  0  0  0  2  0  0  0  0  0  0
  186.1760  179.7810  147.8940 C   0  0  0  0  0  1  0  0  0  0  0  0
  186.6780  178.3500  148.0030 C   0  0  0  0  0  2  0  0  0  0  0  0
  1 15  1  1  0  0  0
  1  3  1  0  0  0  0
  1 17  1  0  0  0  0
  3  2  1  1  0  0  0
  4 13  2  0  0  0  0
  5 11  1  0  0  0  0
  6 14  2  0  0  0  0
  7 13  1  0  0  0  0
  7 10  1  0  0  0  0
  8  5  2  0  0  0  0
  8  6  1  0  0  0  0
 10  5  1  0  0  0  0
 11  9  2  0  0  0  0
 12  7  1  0  0  0  0
 13  8  1  0  0  0  0
 14  9  1  0  0  0  0
 14  3  1  0  0  0  0
 16 15  1  0  0  0  0
 18 17  1  1  0  0  0
 18 28  1  0  0  0  0
 19 18  1  0  0  0  0
 19 21  2  0  0  0  0
 20 19  1  0  0  0  0
 22 23  2  0  0  0  0
 23 20  1  0  0  0  0
 24 23  1  0  0  0  0
 25 24  1  0  0  0  0
 26 24  2  0  0  0  0
 27 28  1  0  0  0  0
M  END
>  <MODEL>
1

>  <REMARK>
 VINA RESULT:      -6.6      0.000      0.000
  Name = 
  9 active torsions:
  status: ('A' for Active; 'I' for Inactive)
    1  A    between atoms: C_1  and  C_2
    2  A    between atoms: C_1  and  C_17
    3  A    between atoms: C_1  and  C_26
    4  A    between atoms: N_3  and  C_11
    5  A    between atoms: C_6  and  C_11
    6  A    between atoms: C_16  and  C_27
    7  A    between atoms: C_17  and  C_27
    8  A    between atoms: C_20  and  C_25
    9  A    between atoms: C_20  and  C_27
                            x       y       z     vdW  Elec       q    Type
                         _______ _______ _______ _____ _____    ______ ____

>  <TORSDO>
F 9

$$$$
=
 OpenBabel11052418113D

 28 29  0  0  1  0  0  0  0  0999 V2000
  191.7360  175.7670  144.1520 C   0  0  2  0  0  3  0  0  0  0  0  0
  191.2320  178.2160  143.7030 C   0  0  0  0  0  1  0  0  0  0  0  0
  191.1480  177.0750  144.7050 C   0  0  1  0  0  3  0  0  0  0  0  0
  186.3340  179.3390  144.2250 O   0  0  0  0  0  0  0  0  0  0  0  0
  187.2490  176.7430  146.4230 C   0  0  0  0  0  0  0  0  0  0  0  0
  188.7520  177.7920  144.8560 C   0  0  0  0  0  3  0  0  0  0  0  0
  185.2290  178.1100  145.8200 N   0  0  0  0  0  0  0  0  0  0  0  0
  187.4830  177.6800  145.4250 C   0  0  0  0  0  0  0  0  0  0  0  0
  189.5140  175.9950  146.3290 C   0  0  0  0  0  3  0  0  0  0  0  0
  185.6450  176.8830  146.8660 S   0  0  0  0  0  0  0  0  0  0  0  0
  188.2360  175.8880  146.8990 C   0  0  0  0  0  3  0  0  0  0  0  0
  183.9120  178.7120  145.7050 C   0  0  0  0  0  1  0  0  0  0  0  0
  186.3390  178.4350  145.1050 C   0  0  0  0  0  0  0  0  0  0  0  0
  189.7770  176.9410  145.3090 C   0  0  0  0  0  0  0  0  0  0  0  0
  193.2600  175.7070  144.2110 C   0  0  0  0  0  2  0  0  0  0  0  0
  193.7840  174.6000  143.3170 C   0  0  0  0  0  1  0  0  0  0  0  0
  191.2620  175.5400  142.7200 C   0  0  0  0  0  2  0  0  0  0  0  0
  190.1700  174.4730  142.6030 C   0  0  1  0  0  3  0  0  0  0  0  0
  189.5380  174.3680  141.2410 C   0  0  0  0  0  0  0  0  0  0  0  0
  188.3490  175.0940  140.8940 N   0  0  0  0  0  2  0  0  0  0  0  0
  190.0850  173.6540  140.3600 O   0  0  0  0  0  0  0  0  0  0  0  0
  186.8680  175.4390  142.7700 C   0  0  0  0  0  2  0  0  0  0  0  0
  187.5290  175.9340  141.7260 C   0  0  0  0  0  0  0  0  0  0  0  0
  187.3940  177.3690  141.3890 C   0  0  0  0  0  0  0  0  0  0  0  0
  186.1050  177.9360  140.8920 C   0  0  0  0  0  1  0  0  0  0  0  0
  188.4250  178.1930  141.5300 C   0  0  0  0  0  2  0  0  0  0  0  0
  189.7280  172.8690  144.5320 C   0  0  0  0  0  1  0  0  0  0  0  0
  190.5120  173.1310  143.2570 C   0  0  0  0  0  2  0  0  0  0  0  0
  1 17  1  6  0  0  0
  1 15  1  0  0  0  0
  1  3  1  0  0  0  0
  3  2  1  6  0  0  0
  3 14  1  0  0  0  0
  4 13  2  0  0  0  0
  5 10  1  0  0  0  0
  5 11  1  0  0  0  0
  6 14  2  0  0  0  0
  6  8  1  0  0  0  0
  7 10  1  0  0  0  0
  8  5  2  0  0  0  0
  9 11  2  0  0  0  0
 12  7  1  0  0  0  0
 13  8  1  0  0  0  0
 13  7  1  0  0  0  0
 14  9  1  0  0  0  0
 16 15  1  0  0  0  0
 18 17  1  6  0  0  0
 18 28  1  0  0  0  0
 19 18  1  0  0  0  0
 20 19  1  0  0  0  0
 20 23  1  0  0  0  0
 21 19  2  0  0  0  0
 23 22  2  0  0  0  0
 24 26  2  0  0  0  0
 24 23  1  0  0  0  0
 25 24  1  0  0  0  0
 28 27  1  0  0  0  0
M  END
>  <MODEL>
2

>  <REMARK>
 VINA RESULT:      -6.4      2.547      5.990
  Name = 
  9 active torsions:
  status: ('A' for Active; 'I' for Inactive)
    1  A    between atoms: C_1  and  C_2
    2  A    between atoms: C_1  and  C_17
    3  A    between atoms: C_1  and  C_26
    4  A    between atoms: N_3  and  C_11
    5  A    between atoms: C_6  and  C_11
    6  A    between atoms: C_16  and  C_27
    7  A    between atoms: C_17  and  C_27
    8  A    between atoms: C_20  and  C_25
    9  A    between atoms: C_20  and  C_27
                            x       y       z     vdW  Elec       q    Type
                         _______ _______ _______ _____ _____    ______ ____

>  <TORSDO>
F 9

$$$$
=
 OpenBabel11052418113D

 28 29  0  0  1  0  0  0  0  0999 V2000
  190.2320  175.0440  146.0790 C   0  0  2  0  0  3  0  0  0  0  0  0
  190.1360  177.3320  147.1790 C   0  0  0  0  0  1  0  0  0  0  0  0
  189.3400  176.1220  146.7130 C   0  0  1  0  0  3  0  0  0  0  0  0
  188.2090  177.4090  141.6540 O   0  0  0  0  0  0  0  0  0  0  0  0
  185.9570  177.2500  144.3570 C   0  0  0  0  0  0  0  0  0  0  0  0
  188.3150  176.7720  144.5210 C   0  0  0  0  0  3  0  0  0  0  0  0
  185.9560  177.7770  141.9010 N   0  0  0  0  0  0  0  0  0  0  0  0
  187.2060  177.1440  143.7600 C   0  0  0  0  0  0  0  0  0  0  0  0
  186.8570  176.6240  146.4780 C   0  0  0  0  0  3  0  0  0  0  0  0
  184.8780  177.7070  143.1680 S   0  0  0  0  0  0  0  0  0  0  0  0
  185.7450  177.0000  145.7080 C   0  0  0  0  0  3  0  0  0  0  0  0
  185.6270  178.1290  140.5300 C   0  0  0  0  0  1  0  0  0  0  0  0
  187.1830  177.4450  142.3850 C   0  0  0  0  0  0  0  0  0  0  0  0
  188.1400  176.5070  145.8910 C   0  0  0  0  0  0  0  0  0  0  0  0
  189.6120  173.6490  146.0910 C   0  0  0  0  0  2  0  0  0  0  0  0
  189.7110  173.0100  144.7200 C   0  0  0  0  0  1  0  0  0  0  0  0
  191.5920  175.0130  146.7680 C   0  0  0  0  0  2  0  0  0  0  0  0
  192.7610  174.8040  145.8000 C   0  0  1  0  0  3  0  0  0  0  0  0
  193.7120  175.9660  145.7030 C   0  0  0  0  0  0  0  0  0  0  0  0
  193.9230  176.6760  144.4730 N   0  0  0  0  0  2  0  0  0  0  0  0
  194.3150  176.3590  146.7360 O   0  0  0  0  0  0  0  0  0  0  0  0
  194.1710  175.9910  142.1710 C   0  0  0  0  0  2  0  0  0  0  0  0
  193.3880  176.4000  143.1660 C   0  0  0  0  0  0  0  0  0  0  0  0
  191.9430  176.6080  142.9210 C   0  0  0  0  0  0  0  0  0  0  0  0
  191.0680  175.5040  142.4270 C   0  0  0  0  0  1  0  0  0  0  0  0
  191.3870  177.7930  143.1460 C   0  0  0  0  0  2  0  0  0  0  0  0
  193.3870  172.6500  144.5910 C   0  0  0  0  0  1  0  0  0  0  0  0
  193.4330  173.4310  145.8950 C   0  0  0  0  0  2  0  0  0  0  0  0
  1 15  1  1  0  0  0
  1  3  1  0  0  0  0
  1 17  1  0  0  0  0
  3  2  1  6  0  0  0
  4 13  2  0  0  0  0
  5 11  1  0  0  0  0
  6 14  2  0  0  0  0
  7 13  1  0  0  0  0
  7 10  1  0  0  0  0
  8  5  2  0  0  0  0
  8  6  1  0  0  0  0
 10  5  1  0  0  0  0
 11  9  2  0  0  0  0
 12  7  1  0  0  0  0
 13  8  1  0  0  0  0
 14  9  1  0  0  0  0
 14  3  1  0  0  0  0
 16 15  1  0  0  0  0
 18 28  1  1  0  0  0
 18 17  1  0  0  0  0
 19 18  1  0  0  0  0
 19 21  2  0  0  0  0
 20 19  1  0  0  0  0
 22 23  2  0  0  0  0
 23 20  1  0  0  0  0
 24 26  2  0  0  0  0
 24 23  1  0  0  0  0
 25 24  1  0  0  0  0
 27 28  1  0  0  0  0
M  END
>  <MODEL>
3

>  <REMARK>
 VINA RESULT:      -6.4      3.488      6.362
  Name = 
  9 active torsions:
  status: ('A' for Active; 'I' for Inactive)
    1  A    between atoms: C_1  and  C_2
    2  A    between atoms: C_1  and  C_17
    3  A    between atoms: C_1  and  C_26
    4  A    between atoms: N_3  and  C_11
    5  A    between atoms: C_6  and  C_11
    6  A    between atoms: C_16  and  C_27
    7  A    between atoms: C_17  and  C_27
    8  A    between atoms: C_20  and  C_25
    9  A    between atoms: C_20  and  C_27
                            x       y       z     vdW  Elec       q    Type
                         _______ _______ _______ _____ _____    ______ ____

>  <TORSDO>
F 9

$$$$
=
 OpenBabel11052418113D

 28 29  0  0  1  0  0  0  0  0999 V2000
  190.3710  176.5200  145.5940 C   0  0  2  0  0  3  0  0  0  0  0  0
  188.9180  174.9680  146.9840 C   0  0  0  0  0  1  0  0  0  0  0  0
  189.1180  175.6320  145.6300 C   0  0  1  0  0  3  0  0  0  0  0  0
  186.8680  176.8720  140.9470 O   0  0  0  0  0  0  0  0  0  0  0  0
  185.5850  177.5350  144.1600 C   0  0  0  0  0  0  0  0  0  0  0  0
  187.6770  176.4110  143.7360 C   0  0  0  0  0  3  0  0  0  0  0  0
  184.9700  177.8860  141.7500 N   0  0  0  0  0  0  0  0  0  0  0  0
  186.5220  177.0380  143.2640 C   0  0  0  0  0  0  0  0  0  0  0  0
  186.8970  176.8100  146.0180 C   0  0  0  0  0  3  0  0  0  0  0  0
  184.3500  178.2080  143.2610 S   0  0  0  0  0  0  0  0  0  0  0  0
  185.7390  177.4410  145.5380 C   0  0  0  0  0  3  0  0  0  0  0  0
  184.3410  178.2310  140.4870 C   0  0  0  0  0  1  0  0  0  0  0  0
  186.1580  177.2470  141.9200 C   0  0  0  0  0  0  0  0  0  0  0  0
  187.8660  176.2930  145.1240 C   0  0  0  0  0  0  0  0  0  0  0  0
  190.1080  177.9330  145.0800 C   0  0  0  0  0  2  0  0  0  0  0  0
  190.8980  178.1960  143.8140 C   0  0  0  0  0  1  0  0  0  0  0  0
  191.4620  175.8590  144.7580 C   0  0  0  0  0  2  0  0  0  0  0  0
  192.1040  174.6480  145.4420 C   0  0  1  0  0  3  0  0  0  0  0  0
  192.6360  173.6030  144.4990 C   0  0  0  0  0  0  0  0  0  0  0  0
  191.7680  172.7850  143.6990 N   0  0  0  0  0  2  0  0  0  0  0  0
  193.8810  173.4610  144.3720 O   0  0  0  0  0  0  0  0  0  0  0  0
  189.6570  172.0980  144.6490 C   0  0  0  0  0  2  0  0  0  0  0  0
  190.3290  172.7320  143.6920 C   0  0  0  0  0  0  0  0  0  0  0  0
  189.5910  173.3700  142.5790 C   0  0  0  0  0  0  0  0  0  0  0  0
  190.2020  174.4590  141.7610 C   0  0  0  0  0  1  0  0  0  0  0  0
  188.3600  172.9770  142.2760 C   0  0  0  0  0  2  0  0  0  0  0  0
  193.8220  176.2700  146.3950 C   0  0  0  0  0  1  0  0  0  0  0  0
  193.0320  174.9900  146.6110 C   0  0  0  0  0  2  0  0  0  0  0  0
  1 17  1  6  0  0  0
  1  3  1  0  0  0  0
  3  2  1  1  0  0  0
  4 13  2  0  0  0  0
  5 11  1  0  0  0  0
  6 14  2  0  0  0  0
  7 13  1  0  0  0  0
  7 10  1  0  0  0  0
  8  6  1  0  0  0  0
  8  5  2  0  0  0  0
 10  5  1  0  0  0  0
 11  9  2  0  0  0  0
 12  7  1  0  0  0  0
 13  8  1  0  0  0  0
 14  3  1  0  0  0  0
 14  9  1  0  0  0  0
 15  1  1  0  0  0  0
 16 15  1  0  0  0  0
 18 17  1  6  0  0  0
 18 28  1  0  0  0  0
 19 18  1  0  0  0  0
 20 19  1  0  0  0  0
 21 19  2  0  0  0  0
 23 20  1  0  0  0  0
 23 22  2  0  0  0  0
 24 23  1  0  0  0  0
 25 24  1  0  0  0  0
 26 24  2  0  0  0  0
 27 28  1  0  0  0  0
M  END
>  <MODEL>
4

>  <REMARK>
 VINA RESULT:      -6.3      2.909      6.105
  Name = 
  9 active torsions:
  status: ('A' for Active; 'I' for Inactive)
    1  A    between atoms: C_1  and  C_2
    2  A    between atoms: C_1  and  C_17
    3  A    between atoms: C_1  and  C_26
    4  A    between atoms: N_3  and  C_11
    5  A    between atoms: C_6  and  C_11
    6  A    between atoms: C_16  and  C_27
    7  A    between atoms: C_17  and  C_27
    8  A    between atoms: C_20  and  C_25
    9  A    between atoms: C_20  and  C_27
                            x       y       z     vdW  Elec       q    Type
                         _______ _______ _______ _____ _____    ______ ____

>  <TORSDO>
F 9

$$$$
=
 OpenBabel11052418113D

 28 29  0  0  1  0  0  0  0  0999 V2000
  190.7200  176.7540  145.6910 C   0  0  2  0  0  3  0  0  0  0  0  0
  189.5580  175.0350  147.1570 C   0  0  0  0  0  1  0  0  0  0  0  0
  189.4880  175.8550  145.8770 C   0  0  1  0  0  3  0  0  0  0  0  0
  185.9320  176.8450  142.0170 O   0  0  0  0  0  0  0  0  0  0  0  0
  185.7530  177.8730  145.3810 C   0  0  0  0  0  0  0  0  0  0  0  0
  187.5570  176.5700  144.4510 C   0  0  0  0  0  3  0  0  0  0  0  0
  184.4260  178.0580  143.2570 N   0  0  0  0  0  0  0  0  0  0  0  0
  186.3390  177.2340  144.2960 C   0  0  0  0  0  0  0  0  0  0  0  0
  187.5520  177.2180  146.8080 C   0  0  0  0  0  3  0  0  0  0  0  0
  184.3260  178.5530  144.8430 S   0  0  0  0  0  0  0  0  0  0  0  0
  186.3280  177.8860  146.6460 C   0  0  0  0  0  3  0  0  0  0  0  0
  183.4460  178.3380  142.2210 C   0  0  0  0  0  1  0  0  0  0  0  0
  185.5800  177.3520  143.1170 C   0  0  0  0  0  0  0  0  0  0  0  0
  188.1680  176.5580  145.7170 C   0  0  0  0  0  0  0  0  0  0  0  0
  191.2130  176.8280  144.2480 C   0  0  0  0  0  2  0  0  0  0  0  0
  191.1320  178.2500  143.7290 C   0  0  0  0  0  1  0  0  0  0  0  0
  191.8520  176.2930  146.6020 C   0  0  0  0  0  2  0  0  0  0  0  0
  193.0520  175.7220  145.8410 C   0  0  1  0  0  3  0  0  0  0  0  0
  194.2790  176.5930  145.8590 C   0  0  0  0  0  0  0  0  0  0  0  0
  195.2230  176.6010  144.7770 N   0  0  0  0  0  2  0  0  0  0  0  0
  194.4710  177.3700  146.8310 O   0  0  0  0  0  0  0  0  0  0  0  0
  194.5300  176.1140  142.5160 C   0  0  0  0  0  2  0  0  0  0  0  0
  195.2450  175.7880  143.5900 C   0  0  0  0  0  0  0  0  0  0  0  0
  196.0540  174.5490  143.5810 C   0  0  0  0  0  0  0  0  0  0  0  0
  195.7310  173.4130  142.6670 C   0  0  0  0  0  1  0  0  0  0  0  0
  197.1000  174.4230  144.3880 C   0  0  0  0  0  2  0  0  0  0  0  0
  192.7410  173.3350  145.0060 C   0  0  0  0  0  1  0  0  0  0  0  0
  193.3180  174.2340  146.0870 C   0  0  0  0  0  2  0  0  0  0  0  0
  1 15  1  6  0  0  0
  1  3  1  0  0  0  0
  1 17  1  0  0  0  0
  3  2  1  1  0  0  0
  4 13  2  0  0  0  0
  5 11  1  0  0  0  0
  6 14  2  0  0  0  0
  7 10  1  0  0  0  0
  8  6  1  0  0  0  0
  8  5  2  0  0  0  0
 10  5  1  0  0  0  0
 11  9  2  0  0  0  0
 12  7  1  0  0  0  0
 13  7  1  0  0  0  0
 13  8  1  0  0  0  0
 14  3  1  0  0  0  0
 14  9  1  0  0  0  0
 16 15  1  0  0  0  0
 18 19  1  0  0  0  0
 18 28  1  1  0  0  0
 18 17  1  0  0  0  0
 19 21  2  0  0  0  0
 20 19  1  0  0  0  0
 22 23  2  0  0  0  0
 23 20  1  0  0  0  0
 24 23  1  0  0  0  0
 24 26  2  0  0  0  0
 25 24  1  0  0  0  0
 27 28  1  0  0  0  0
M  END
>  <MODEL>
5

>  <REMARK>
 VINA RESULT:      -6.3      4.293      7.337
  Name = 
  9 active torsions:
  status: ('A' for Active; 'I' for Inactive)
    1  A    between atoms: C_1  and  C_2
    2  A    between atoms: C_1  and  C_17
    3  A    between atoms: C_1  and  C_26
    4  A    between atoms: N_3  and  C_11
    5  A    between atoms: C_6  and  C_11
    6  A    between atoms: C_16  and  C_27
    7  A    between atoms: C_17  and  C_27
    8  A    between atoms: C_20  and  C_25
    9  A    between atoms: C_20  and  C_27
                            x       y       z     vdW  Elec       q    Type
                         _______ _______ _______ _____ _____    ______ ____

>  <TORSDO>
F 9

$$$$
=
 OpenBabel11052418113D

 28 29  0  0  1  0  0  0  0  0999 V2000
  189.2850  176.0970  145.6930 C   0  0  2  0  0  3  0  0  0  0  0  0
  189.1720  178.0570  147.3040 C   0  0  0  0  0  1  0  0  0  0  0  0
  188.3900  176.9640  146.5910 C   0  0  1  0  0  3  0  0  0  0  0  0
  186.2260  177.0740  141.7100 O   0  0  0  0  0  0  0  0  0  0  0  0
  184.8910  178.4720  144.6550 C   0  0  0  0  0  0  0  0  0  0  0  0
  186.9850  177.2790  144.5420 C   0  0  0  0  0  3  0  0  0  0  0  0
  184.3190  178.2490  142.2190 N   0  0  0  0  0  0  0  0  0  0  0  0
  185.8410  177.7780  143.9160 C   0  0  0  0  0  0  0  0  0  0  0  0
  186.1680  178.2010  146.6540 C   0  0  0  0  0  3  0  0  0  0  0  0
  183.6750  178.9170  143.6010 S   0  0  0  0  0  0  0  0  0  0  0  0
  185.0210  178.7030  146.0190 C   0  0  0  0  0  3  0  0  0  0  0  0
  183.7130  178.2890  140.8990 C   0  0  0  0  0  1  0  0  0  0  0  0
  185.5010  177.6670  142.5550 C   0  0  0  0  0  0  0  0  0  0  0  0
  187.1500  177.4890  145.9230 C   0  0  0  0  0  0  0  0  0  0  0  0
  189.5080  174.6850  146.2290 C   0  0  0  0  0  2  0  0  0  0  0  0
  188.9140  174.5410  147.6160 C   0  0  0  0  0  1  0  0  0  0  0  0
  190.6280  176.7830  145.4650 C   0  0  0  0  0  2  0  0  0  0  0  0
  191.7100  175.8400  144.9310 C   0  0  1  0  0  3  0  0  0  0  0  0
  191.9200  175.9050  143.4420 C   0  0  0  0  0  0  0  0  0  0  0  0
  191.4770  174.8590  142.5640 N   0  0  0  0  0  2  0  0  0  0  0  0
  192.4660  176.9220  142.9390 O   0  0  0  0  0  0  0  0  0  0  0  0
  191.6000  172.5710  143.3290 C   0  0  0  0  0  2  0  0  0  0  0  0
  190.8700  173.5970  142.8960 C   0  0  0  0  0  0  0  0  0  0  0  0
  189.4100  173.4320  142.7190 C   0  0  0  0  0  0  0  0  0  0  0  0
  188.5230  174.5970  142.4260 C   0  0  0  0  0  1  0  0  0  0  0  0
  188.8520  172.2310  142.8110 C   0  0  0  0  0  2  0  0  0  0  0  0
  193.4390  174.4000  146.1270 C   0  0  0  0  0  1  0  0  0  0  0  0
  192.9970  175.8070  145.7600 C   0  0  0  0  0  2  0  0  0  0  0  0
  1 17  1  1  0  0  0
  1 15  1  0  0  0  0
  1  3  1  0  0  0  0
  3  2  1  6  0  0  0
  4 13  2  0  0  0  0
  5 11  1  0  0  0  0
  6 14  2  0  0  0  0
  7 13  1  0  0  0  0
  7 10  1  0  0  0  0
  8  6  1  0  0  0  0
  8  5  2  0  0  0  0
 10  5  1  0  0  0  0
 11  9  2  0  0  0  0
 12  7  1  0  0  0  0
 13  8  1  0  0  0  0
 14  3  1  0  0  0  0
 14  9  1  0  0  0  0
 15 16  1  0  0  0  0
 18 17  1  1  0  0  0
 18 28  1  0  0  0  0
 19 18  1  0  0  0  0
 20 23  1  0  0  0  0
 20 19  1  0  0  0  0
 21 19  2  0  0  0  0
 23 22  2  0  0  0  0
 24 26  2  0  0  0  0
 24 23  1  0  0  0  0
 25 24  1  0  0  0  0
 28 27  1  0  0  0  0
M  END
>  <MODEL>
6

>  <REMARK>
 VINA RESULT:      -6.2      2.888      6.461
  Name = 
  9 active torsions:
  status: ('A' for Active; 'I' for Inactive)
    1  A    between atoms: C_1  and  C_2
    2  A    between atoms: C_1  and  C_17
    3  A    between atoms: C_1  and  C_26
    4  A    between atoms: N_3  and  C_11
    5  A    between atoms: C_6  and  C_11
    6  A    between atoms: C_16  and  C_27
    7  A    between atoms: C_17  and  C_27
    8  A    between atoms: C_20  and  C_25
    9  A    between atoms: C_20  and  C_27
                            x       y       z     vdW  Elec       q    Type
                         _______ _______ _______ _____ _____    ______ ____

>  <TORSDO>
F 9

$$$$
=
 OpenBabel11052418113D

 28 29  0  0  1  0  0  0  0  0999 V2000
  192.0870  175.9630  145.2420 C   0  0  2  0  0  3  0  0  0  0  0  0
  191.5610  177.6560  143.4220 C   0  0  0  0  0  1  0  0  0  0  0  0
  191.2980  177.2240  144.8570 C   0  0  1  0  0  3  0  0  0  0  0  0
  186.6950  179.0400  142.8440 O   0  0  0  0  0  0  0  0  0  0  0  0
  187.1220  177.1140  145.7630 C   0  0  0  0  0  0  0  0  0  0  0  0
  188.9250  177.8260  144.3270 C   0  0  0  0  0  3  0  0  0  0  0  0
  185.2770  178.1810  144.4330 N   0  0  0  0  0  0  0  0  0  0  0  0
  187.5630  177.7890  144.6320 C   0  0  0  0  0  0  0  0  0  0  0  0
  189.3560  176.4890  146.3270 C   0  0  0  0  0  3  0  0  0  0  0  0
  185.4610  177.2720  145.8160 S   0  0  0  0  0  0  0  0  0  0  0  0
  187.9860  176.4560  146.6300 C   0  0  0  0  0  3  0  0  0  0  0  0
  184.0140  178.6650  143.9020 C   0  0  0  0  0  1  0  0  0  0  0  0
  186.5130  178.3810  143.9040 C   0  0  0  0  0  0  0  0  0  0  0  0
  189.8300  177.1690  145.1790 C   0  0  0  0  0  0  0  0  0  0  0  0
  192.7320  176.0410  146.6230 C   0  0  0  0  0  2  0  0  0  0  0  0
  194.1780  176.4840  146.5110 C   0  0  0  0  0  1  0  0  0  0  0  0
  193.1490  175.6640  144.1890 C   0  0  0  0  0  2  0  0  0  0  0  0
  193.0600  174.2440  143.6220 C   0  0  1  0  0  3  0  0  0  0  0  0
  192.6850  174.1710  142.1660 C   0  0  0  0  0  0  0  0  0  0  0  0
  191.4930  173.5080  141.7190 N   0  0  0  0  0  2  0  0  0  0  0  0
  193.4140  174.7400  141.3110 O   0  0  0  0  0  0  0  0  0  0  0  0
  190.3660  171.4540  142.3040 C   0  0  0  0  0  2  0  0  0  0  0  0
  190.5310  172.7620  142.4870 C   0  0  0  0  0  0  0  0  0  0  0  0
  189.6900  173.4750  143.4740 C   0  0  0  0  0  0  0  0  0  0  0  0
  189.7380  173.1380  144.9280 C   0  0  0  0  0  1  0  0  0  0  0  0
  188.8710  174.4440  143.0850 C   0  0  0  0  0  2  0  0  0  0  0  0
  193.9930  172.6710  145.3960 C   0  0  0  0  0  1  0  0  0  0  0  0
  194.2060  173.3160  144.0370 C   0  0  0  0  0  2  0  0  0  0  0  0
  1 17  1  6  0  0  0
  1 15  1  0  0  0  0
  3  2  1  6  0  0  0
  3 14  1  0  0  0  0
  3  1  1  0  0  0  0
  4 13  2  0  0  0  0
  5 10  1  0  0  0  0
  5 11  1  0  0  0  0
  6  8  1  0  0  0  0
  6 14  2  0  0  0  0
  7 10  1  0  0  0  0
  8  5  2  0  0  0  0
  9 11  2  0  0  0  0
 12  7  1  0  0  0  0
 13  7  1  0  0  0  0
 13  8  1  0  0  0  0
 14  9  1  0  0  0  0
 16 15  1  0  0  0  0
 18 28  1  6  0  0  0
 18 17  1  0  0  0  0
 19 18  1  0  0  0  0
 20 19  1  0  0  0  0
 20 23  1  0  0  0  0
 21 19  2  0  0  0  0
 22 23  2  0  0  0  0
 23 24  1  0  0  0  0
 24 25  1  0  0  0  0
 26 24  2  0  0  0  0
 28 27  1  0  0  0  0
M  END
>  <MODEL>
7

>  <REMARK>
 VINA RESULT:      -6.2      3.043      6.898
  Name = 
  9 active torsions:
  status: ('A' for Active; 'I' for Inactive)
    1  A    between atoms: C_1  and  C_2
    2  A    between atoms: C_1  and  C_17
    3  A    between atoms: C_1  and  C_26
    4  A    between atoms: N_3  and  C_11
    5  A    between atoms: C_6  and  C_11
    6  A    between atoms: C_16  and  C_27
    7  A    between atoms: C_17  and  C_27
    8  A    between atoms: C_20  and  C_25
    9  A    between atoms: C_20  and  C_27
                            x       y       z     vdW  Elec       q    Type
                         _______ _______ _______ _____ _____    ______ ____

>  <TORSDO>
F 9

$$$$
=
 OpenBabel11052418113D

 28 29  0  0  1  0  0  0  0  0999 V2000
  191.0770  174.5410  145.2240 C   0  0  2  0  0  3  0  0  0  0  0  0
  189.6220  174.9550  147.2640 C   0  0  0  0  0  1  0  0  0  0  0  0
  189.6480  174.6990  145.7650 C   0  0  1  0  0  3  0  0  0  0  0  0
  187.9300  175.4360  140.7610 O   0  0  0  0  0  0  0  0  0  0  0  0
  187.2470  177.4640  143.5600 C   0  0  0  0  0  0  0  0  0  0  0  0
  188.6000  175.4680  143.6230 C   0  0  0  0  0  3  0  0  0  0  0  0
  186.7220  177.3590  141.1050 N   0  0  0  0  0  0  0  0  0  0  0  0
  187.8180  176.3770  142.9100 C   0  0  0  0  0  0  0  0  0  0  0  0
  188.2010  176.7880  145.6410 C   0  0  0  0  0  3  0  0  0  0  0  0
  186.3900  178.3290  142.4180 S   0  0  0  0  0  0  0  0  0  0  0  0
  187.4170  177.7010  144.9190 C   0  0  0  0  0  3  0  0  0  0  0  0
  186.2440  177.5770  139.7510 C   0  0  0  0  0  1  0  0  0  0  0  0
  187.5120  176.3390  141.5360 C   0  0  0  0  0  0  0  0  0  0  0  0
  188.7920  175.6720  145.0010 C   0  0  0  0  0  0  0  0  0  0  0  0
  191.4540  173.0980  144.8960 C   0  0  0  0  0  2  0  0  0  0  0  0
  190.2580  172.3480  144.3420 C   0  0  0  0  0  1  0  0  0  0  0  0
  192.0820  175.1280  146.2090 C   0  0  0  0  0  2  0  0  0  0  0  0
  192.7410  176.4180  145.7100 C   0  0  1  0  0  3  0  0  0  0  0  0
  194.1750  176.5950  146.1330 C   0  0  0  0  0  0  0  0  0  0  0  0
  195.2220  175.7370  145.6540 N   0  0  0  0  0  2  0  0  0  0  0  0
  194.4800  177.5450  146.9010 O   0  0  0  0  0  0  0  0  0  0  0  0
  195.1140  173.3470  145.3250 C   0  0  0  0  0  2  0  0  0  0  0  0
  195.1230  174.5750  144.8110 C   0  0  0  0  0  0  0  0  0  0  0  0
  195.0660  174.7530  143.3430 C   0  0  0  0  0  0  0  0  0  0  0  0
  194.1880  173.9010  142.4870 C   0  0  0  0  0  1  0  0  0  0  0  0
  195.7950  175.6900  142.7500 C   0  0  0  0  0  2  0  0  0  0  0  0
  191.5210  177.9380  144.0690 C   0  0  0  0  0  1  0  0  0  0  0  0
  192.4590  176.7550  144.2430 C   0  0  0  0  0  2  0  0  0  0  0  0
  1 15  1  1  0  0  0
  1  3  1  0  0  0  0
  1 17  1  0  0  0  0
  3  2  1  1  0  0  0
  4 13  2  0  0  0  0
  5 11  1  0  0  0  0
  6 14  2  0  0  0  0
  7 13  1  0  0  0  0
  7 10  1  0  0  0  0
  8  5  2  0  0  0  0
  8  6  1  0  0  0  0
 10  5  1  0  0  0  0
 11  9  2  0  0  0  0
 12  7  1  0  0  0  0
 13  8  1  0  0  0  0
 14  9  1  0  0  0  0
 14  3  1  0  0  0  0
 16 15  1  0  0  0  0
 18 28  1  6  0  0  0
 18 19  1  0  0  0  0
 18 17  1  0  0  0  0
 19 21  2  0  0  0  0
 20 19  1  0  0  0  0
 23 22  2  0  0  0  0
 23 20  1  0  0  0  0
 24 23  1  0  0  0  0
 25 24  1  0  0  0  0
 26 24  2  0  0  0  0
 27 28  1  0  0  0  0
M  END
>  <MODEL>
8

>  <REMARK>
 VINA RESULT:      -6.1      3.970      6.669
  Name = 
  9 active torsions:
  status: ('A' for Active; 'I' for Inactive)
    1  A    between atoms: C_1  and  C_2
    2  A    between atoms: C_1  and  C_17
    3  A    between atoms: C_1  and  C_26
    4  A    between atoms: N_3  and  C_11
    5  A    between atoms: C_6  and  C_11
    6  A    between atoms: C_16  and  C_27
    7  A    between atoms: C_17  and  C_27
    8  A    between atoms: C_20  and  C_25
    9  A    between atoms: C_20  and  C_27
                            x       y       z     vdW  Elec       q    Type
                         _______ _______ _______ _____ _____    ______ ____

>  <TORSDO>
F 9

$$$$
=
 OpenBabel11052418113D

 28 29  0  0  1  0  0  0  0  0999 V2000
  189.4840  176.1310  145.3230 C   0  0  2  0  0  3  0  0  0  0  0  0
  190.7020  178.1270  144.3320 C   0  0  0  0  0  1  0  0  0  0  0  0
  189.3520  177.5290  144.7010 C   0  0  1  0  0  3  0  0  0  0  0  0
  184.0990  178.2650  144.0800 O   0  0  0  0  0  0  0  0  0  0  0  0
  186.4880  177.7760  141.5380 C   0  0  0  0  0  0  0  0  0  0  0  0
  187.0010  177.8360  143.8940 C   0  0  0  0  0  3  0  0  0  0  0  0
  184.0170  178.1490  141.7870 N   0  0  0  0  0  0  0  0  0  0  0  0
  186.0710  177.9110  142.8560 C   0  0  0  0  0  0  0  0  0  0  0  0
  188.7560  177.4890  142.2280 C   0  0  0  0  0  3  0  0  0  0  0  0
  185.1330  177.9170  140.5740 S   0  0  0  0  0  0  0  0  0  0  0  0
  187.8170  177.5640  141.1880 C   0  0  0  0  0  3  0  0  0  0  0  0
  182.5900  178.3480  141.5960 C   0  0  0  0  0  1  0  0  0  0  0  0
  184.6830  178.1170  142.9720 C   0  0  0  0  0  0  0  0  0  0  0  0
  188.3550  177.6260  143.5790 C   0  0  0  0  0  0  0  0  0  0  0  0
  189.2140  176.1000  146.8260 C   0  0  0  0  0  2  0  0  0  0  0  0
  190.4820  175.7700  147.5880 C   0  0  0  0  0  1  0  0  0  0  0  0
  190.8640  175.5510  145.0320 C   0  0  0  0  0  2  0  0  0  0  0  0
  190.8390  174.3990  144.0230 C   0  0  1  0  0  3  0  0  0  0  0  0
  191.6450  174.6410  142.7750 C   0  0  0  0  0  0  0  0  0  0  0  0
  191.2630  174.0930  141.5040 N   0  0  0  0  0  2  0  0  0  0  0  0
  192.6660  175.3760  142.8310 O   0  0  0  0  0  0  0  0  0  0  0  0
  190.3590  171.8890  141.1120 C   0  0  0  0  0  2  0  0  0  0  0  0
  190.1750  173.2050  141.1930 C   0  0  0  0  0  0  0  0  0  0  0  0
  188.8350  173.7730  140.9260 C   0  0  0  0  0  0  0  0  0  0  0  0
  187.8240  173.9320  142.0140 C   0  0  0  0  0  1  0  0  0  0  0  0
  188.5020  174.1650  139.7020 C   0  0  0  0  0  2  0  0  0  0  0  0
  189.6890  172.2900  144.8690 C   0  0  0  0  0  1  0  0  0  0  0  0
  191.0080  173.0060  144.6370 C   0  0  0  0  0  2  0  0  0  0  0  0
  1 17  1  1  0  0  0
  1 15  1  0  0  0  0
  3  2  1  6  0  0  0
  3  1  1  0  0  0  0
  5  8  1  0  0  0  0
  7 13  1  0  0  0  0
  8 13  1  0  0  0  0
  8  6  2  0  0  0  0
  9 14  2  0  0  0  0
 10  5  1  0  0  0  0
 10  7  1  0  0  0  0
 11  5  2  0  0  0  0
 11  9  1  0  0  0  0
 12  7  1  0  0  0  0
 13  4  2  0  0  0  0
 14  6  1  0  0  0  0
 14  3  1  0  0  0  0
 15 16  1  0  0  0  0
 18 28  1  1  0  0  0
 18 17  1  0  0  0  0
 19 21  2  0  0  0  0
 19 18  1  0  0  0  0
 20 19  1  0  0  0  0
 22 23  2  0  0  0  0
 23 20  1  0  0  0  0
 24 23  1  0  0  0  0
 24 25  1  0  0  0  0
 26 24  2  0  0  0  0
 28 27  1  0  0  0  0
M  END
>  <MODEL>
9

>  <REMARK>
 VINA RESULT:      -6.1      2.666      6.364
  Name = 
  9 active torsions:
  status: ('A' for Active; 'I' for Inactive)
    1  A    between atoms: C_1  and  C_2
    2  A    between atoms: C_1  and  C_17
    3  A    between atoms: C_1  and  C_26
    4  A    between atoms: N_3  and  C_11
    5  A    between atoms: C_6  and  C_11
    6  A    between atoms: C_16  and  C_27
    7  A    between atoms: C_17  and  C_27
    8  A    between atoms: C_20  and  C_25
    9  A    between atoms: C_20  and  C_27
                            x       y       z     vdW  Elec       q    Type
                         _______ _______ _______ _____ _____    ______ ____

>  <TORSDO>
F 9

$$$$
