=
 OpenBabel11052418173D

 28 29  0  0  1  0  0  0  0  0999 V2000
  185.9920  178.1520  143.6550 C   0  0  0  0  0  2  0  0  0  0  0  0
  188.3760  178.2950  142.0190 C   0  0  0  0  0  1  0  0  0  0  0  0
  187.6920  176.9350  142.1790 C   0  0  1  0  0  0  0  0  0  0  0  0
  185.5830  179.4070  146.1510 C   0  0  0  0  0  2  0  0  0  0  0  0
  189.7270  176.0910  143.3900 C   0  0  0  0  0  2  0  0  0  0  0  0
  188.9760  176.1140  144.6940 C   0  0  0  0  0  0  0  0  0  0  0  0
  188.8120  175.8700  142.1890 C   0  0  1  0  0  3  0  0  0  0  0  0
  187.1780  177.6810  146.9760 C   0  0  0  0  0  2  0  0  0  0  0  0
  187.6970  176.5820  144.7770 C   0  0  0  0  0  0  0  0  0  0  0  0
  184.4810  179.0330  145.3520 O   0  0  0  0  0  0  0  0  0  0  0  0
  186.9400  176.4740  146.0780 C   0  0  0  0  0  2  0  0  0  0  0  0
  185.8690  178.4020  147.2630 C   0  0  0  0  0  2  0  0  0  0  0  0
  184.8270  177.8900  144.6060 C   0  0  0  0  0  2  0  0  0  0  0  0
  186.8870  176.9120  143.5170 C   0  0  1  0  0  3  0  0  0  0  0  0
  189.1150  173.5250  142.2740 O   0  0  0  0  0  0  0  0  0  0  0  0
  188.3260  174.4510  142.1660 C   0  0  0  0  0  3  0  0  0  0  0  0
  186.8580  176.7790  141.0440 O   0  0  0  0  0  0  0  0  0  0  0  0
  187.0010  177.8410  140.2700 O   0  0  0  0  0  1  0  0  0  0  0  0
  189.7530  175.5810  145.8790 C   0  0  1  0  0  3  0  0  0  0  0  0
  189.6910  173.3670  145.7630 C   0  0  0  0  0  1  0  0  0  0  0  0
  190.5150  174.4670  145.5120 O   0  0  0  0  0  0  0  0  0  0  0  0
  190.6180  176.6540  146.5520 C   0  0  2  0  0  3  0  0  0  0  0  0
  192.0390  176.4160  146.2700 C   0  0  0  0  0  0  0  0  0  0  0  0
  193.2050  176.2200  146.0400 C   0  0  0  0  0  0  0  0  0  0  0  0
  194.6220  175.9820  145.7610 C   0  0  0  0  0  1  0  0  0  0  0  0
  190.4170  176.6370  147.9360 O   0  0  0  0  0  0  0  0  0  0  0  0
  190.6820  177.9420  148.3560 C   0  0  0  0  0  2  0  0  0  0  0  0
  191.5660  177.9120  149.4330 O   0  0  0  0  0  1  0  0  0  0  0  0
  1 13  1  0  0  0  0
  3  2  1  6  0  0  0
  3  7  1  0  0  0  0
  3 14  1  0  0  0  0
  4 12  1  0  0  0  0
  5  6  1  0  0  0  0
  6  9  2  0  0  0  0
  6 19  1  0  0  0  0
  7 16  1  1  0  0  0
  7  5  1  0  0  0  0
  8 12  1  0  0  0  0
  9 11  1  0  0  0  0
 10  4  1  0  0  0  0
 11  8  1  0  0  0  0
 13 10  1  0  0  0  0
 14  1  1  1  0  0  0
 14  9  1  0  0  0  0
 16 15  2  0  0  0  0
 17  3  1  0  0  0  0
 18 17  1  0  0  0  0
 19 21  1  6  0  0  0
 19 22  1  0  0  0  0
 21 20  1  0  0  0  0
 22 23  1  1  0  0  0
 22 26  1  0  0  0  0
 24 23  3  0  0  0  0
 25 24  1  0  0  0  0
 26 27  1  0  0  0  0
 27 28  1  0  0  0  0
M  END
>  <MODEL>
1

>  <REMARK>
 VINA RESULT:      -6.2      0.000      0.000
  Name = 
  8 active torsions:
  status: ('A' for Active; 'I' for Inactive)
    1  A    between atoms: C_3  and  O_7
    2  A    between atoms: C_9  and  C_12
    3  A    between atoms: C_9  and  C_13
    4  A    between atoms: C_9  and  O_14
    5  A    between atoms: C_10  and  C_13
    6  A    between atoms: C_11  and  C_22
    7  A    between atoms: C_13  and  O_24
    8  A    between atoms: O_14  and  C_18
                            x       y       z     vdW  Elec       q    Type
                         _______ _______ _______ _____ _____    ______ ____

>  <TORSDO>
F 8

$$$$
=
 OpenBabel11052418173D

 28 29  0  0  1  0  0  0  0  0999 V2000
  185.8730  178.2730  144.1900 C   0  0  0  0  0  2  0  0  0  0  0  0
  185.8680  176.4020  146.3990 C   0  0  0  0  0  1  0  0  0  0  0  0
  186.9370  177.4970  146.3850 C   0  0  1  0  0  0  0  0  0  0  0  0
  185.5050  177.6570  141.4600 C   0  0  0  0  0  2  0  0  0  0  0  0
  188.7030  175.7260  146.1330 C   0  0  0  0  0  2  0  0  0  0  0  0
  188.9180  176.1270  144.6980 C   0  0  0  0  0  0  0  0  0  0  0  0
  188.2150  176.8830  146.9990 C   0  0  1  0  0  3  0  0  0  0  0  0
  187.7950  176.6930  141.6470 C   0  0  0  0  0  2  0  0  0  0  0  0
  188.1580  177.0900  144.1010 C   0  0  0  0  0  0  0  0  0  0  0  0
  185.2390  178.9580  141.9390 O   0  0  0  0  0  0  0  0  0  0  0  0
  188.4880  177.5460  142.7000 C   0  0  0  0  0  2  0  0  0  0  0  0
  186.8710  177.5460  140.7890 C   0  0  0  0  0  2  0  0  0  0  0  0
  186.0990  179.2280  143.0220 C   0  0  0  0  0  2  0  0  0  0  0  0
  187.1900  177.9580  144.9140 C   0  0  1  0  0  3  0  0  0  0  0  0
  190.4200  177.4730  147.6240 O   0  0  0  0  0  0  0  0  0  0  0  0
  189.3310  177.8600  147.2290 C   0  0  0  0  0  3  0  0  0  0  0  0
  186.4380  178.5430  147.2000 O   0  0  0  0  0  0  0  0  0  0  0  0
  185.2270  178.2130  147.6120 O   0  0  0  0  0  1  0  0  0  0  0  0
  190.0320  175.3810  143.9950 C   0  0  1  0  0  3  0  0  0  0  0  0
  191.8340  176.6620  144.1610 C   0  0  0  0  0  1  0  0  0  0  0  0
  191.2380  175.5160  144.6920 O   0  0  0  0  0  0  0  0  0  0  0  0
  189.6920  173.9060  143.7450 C   0  0  2  0  0  3  0  0  0  0  0  0
  190.8560  173.0580  144.0330 C   0  0  0  0  0  0  0  0  0  0  0  0
  191.8110  172.3630  144.2700 C   0  0  0  0  0  0  0  0  0  0  0  0
  192.9720  171.5200  144.5570 C   0  0  0  0  0  1  0  0  0  0  0  0
  189.3090  173.7190  142.4130 O   0  0  0  0  0  0  0  0  0  0  0  0
  188.6460  172.4890  142.3970 C   0  0  0  0  0  2  0  0  0  0  0  0
  187.3350  172.6740  141.9620 O   0  0  0  0  0  1  0  0  0  0  0  0
  3  2  1  6  0  0  0
  3  7  1  0  0  0  0
  3 17  1  0  0  0  0
  4 10  1  0  0  0  0
  5  7  1  0  0  0  0
  6  5  1  0  0  0  0
  7 16  1  6  0  0  0
  8 11  1  0  0  0  0
  9  6  2  0  0  0  0
  9 14  1  0  0  0  0
 10 13  1  0  0  0  0
 11  9  1  0  0  0  0
 12  4  1  0  0  0  0
 12  8  1  0  0  0  0
 13  1  1  0  0  0  0
 14  1  1  6  0  0  0
 14  3  1  0  0  0  0
 16 15  2  0  0  0  0
 17 18  1  0  0  0  0
 19 21  1  1  0  0  0
 19  6  1  0  0  0  0
 20 21  1  0  0  0  0
 22 19  1  0  0  0  0
 22 23  1  6  0  0  0
 23 24  3  0  0  0  0
 24 25  1  0  0  0  0
 26 22  1  0  0  0  0
 27 26  1  0  0  0  0
 28 27  1  0  0  0  0
M  END
>  <MODEL>
2

>  <REMARK>
 VINA RESULT:      -6.0      1.814      5.043
  Name = 
  8 active torsions:
  status: ('A' for Active; 'I' for Inactive)
    1  A    between atoms: C_3  and  O_7
    2  A    between atoms: C_9  and  C_12
    3  A    between atoms: C_9  and  C_13
    4  A    between atoms: C_9  and  O_14
    5  A    between atoms: C_10  and  C_13
    6  A    between atoms: C_11  and  C_22
    7  A    between atoms: C_13  and  O_24
    8  A    between atoms: O_14  and  C_18
                            x       y       z     vdW  Elec       q    Type
                         _______ _______ _______ _____ _____    ______ ____

>  <TORSDO>
F 8

$$$$
=
 OpenBabel11052418173D

 28 29  0  0  1  0  0  0  0  0999 V2000
  192.8830  173.3940  142.7170 C   0  0  0  0  0  2  0  0  0  0  0  0
  193.1860  176.2600  142.4440 C   0  0  0  0  0  1  0  0  0  0  0  0
  193.4320  175.6360  143.8200 C   0  0  1  0  0  0  0  0  0  0  0  0
  190.8240  171.8050  141.6180 C   0  0  0  0  0  2  0  0  0  0  0  0
  191.4430  176.8900  144.7080 C   0  0  0  0  0  2  0  0  0  0  0  0
  190.6500  175.6130  144.7720 C   0  0  0  0  0  0  0  0  0  0  0  0
  192.9420  176.6600  144.8690 C   0  0  1  0  0  3  0  0  0  0  0  0
  189.4220  172.8900  143.3690 C   0  0  0  0  0  2  0  0  0  0  0  0
  191.1620  174.4290  144.3270 C   0  0  0  0  0  0  0  0  0  0  0  0
  192.0650  171.2270  141.9580 O   0  0  0  0  0  0  0  0  0  0  0  0
  190.3800  173.1520  144.5230 C   0  0  0  0  0  2  0  0  0  0  0  0
  189.7560  171.5730  142.6830 C   0  0  0  0  0  2  0  0  0  0  0  0
  192.6110  171.9300  143.0500 C   0  0  0  0  0  2  0  0  0  0  0  0
  192.6380  174.2960  143.9340 C   0  0  1  0  0  3  0  0  0  0  0  0
  194.1670  176.8590  146.8830 O   0  0  0  0  0  0  0  0  0  0  0  0
  193.2580  176.3000  146.2910 C   0  0  0  0  0  3  0  0  0  0  0  0
  194.8330  175.4440  143.9190 O   0  0  0  0  0  0  0  0  0  0  0  0
  195.4360  176.3830  143.2120 O   0  0  0  0  0  1  0  0  0  0  0  0
  189.2650  175.7590  145.3640 C   0  0  1  0  0  3  0  0  0  0  0  0
  189.1510  174.8420  147.3800 C   0  0  0  0  0  1  0  0  0  0  0  0
  189.3370  176.0620  146.7290 O   0  0  0  0  0  0  0  0  0  0  0  0
  188.4010  176.7770  144.6090 C   0  0  2  0  0  3  0  0  0  0  0  0
  187.1000  176.9360  145.2730 C   0  0  0  0  0  0  0  0  0  0  0  0
  186.0330  177.0670  145.8160 C   0  0  0  0  0  0  0  0  0  0  0  0
  184.7370  177.2260  146.4750 C   0  0  0  0  0  1  0  0  0  0  0  0
  188.1940  176.3520  143.2940 O   0  0  0  0  0  0  0  0  0  0  0  0
  187.9970  177.5260  142.5610 C   0  0  0  0  0  2  0  0  0  0  0  0
  189.2300  178.0330  142.1560 O   0  0  0  0  0  1  0  0  0  0  0  0
  1 13  1  0  0  0  0
  3  2  1  6  0  0  0
  3 17  1  0  0  0  0
  3 14  1  0  0  0  0
  3  7  1  0  0  0  0
  4 10  1  0  0  0  0
  4 12  1  0  0  0  0
  5  6  1  0  0  0  0
  5  7  1  0  0  0  0
  6 19  1  0  0  0  0
  7 16  1  1  0  0  0
  8 11  1  0  0  0  0
  9 11  1  0  0  0  0
  9  6  2  0  0  0  0
 10 13  1  0  0  0  0
 12  8  1  0  0  0  0
 14  1  1  6  0  0  0
 14  9  1  0  0  0  0
 16 15  2  0  0  0  0
 18 17  1  0  0  0  0
 19 21  1  1  0  0  0
 21 20  1  0  0  0  0
 22 23  1  1  0  0  0
 22 19  1  0  0  0  0
 23 24  3  0  0  0  0
 24 25  1  0  0  0  0
 26 22  1  0  0  0  0
 27 26  1  0  0  0  0
 28 27  1  0  0  0  0
M  END
>  <MODEL>
3

>  <REMARK>
 VINA RESULT:      -5.7      2.790      6.790
  Name = 
  8 active torsions:
  status: ('A' for Active; 'I' for Inactive)
    1  A    between atoms: C_3  and  O_7
    2  A    between atoms: C_9  and  C_12
    3  A    between atoms: C_9  and  C_13
    4  A    between atoms: C_9  and  O_14
    5  A    between atoms: C_10  and  C_13
    6  A    between atoms: C_11  and  C_22
    7  A    between atoms: C_13  and  O_24
    8  A    between atoms: O_14  and  C_18
                            x       y       z     vdW  Elec       q    Type
                         _______ _______ _______ _____ _____    ______ ____

>  <TORSDO>
F 8

$$$$
=
 OpenBabel11052418173D

 28 29  0  0  1  0  0  0  0  0999 V2000
  185.5950  178.3090  144.2080 C   0  0  0  0  0  2  0  0  0  0  0  0
  187.4820  178.6380  142.0370 C   0  0  0  0  0  1  0  0  0  0  0  0
  186.8470  177.2600  142.2380 C   0  0  1  0  0  0  0  0  0  0  0  0
  185.8530  179.3190  146.8320 C   0  0  0  0  0  2  0  0  0  0  0  0
  189.1140  176.3330  142.8020 C   0  0  0  0  0  2  0  0  0  0  0  0
  188.7240  176.2240  144.2510 C   0  0  0  0  0  0  0  0  0  0  0  0
  187.9200  176.2140  141.8600 C   0  0  1  0  0  3  0  0  0  0  0  0
  187.5880  177.5450  147.0540 C   0  0  0  0  0  2  0  0  0  0  0  0
  187.5130  176.6650  144.7020 C   0  0  0  0  0  0  0  0  0  0  0  0
  184.5790  179.0070  146.3100 O   0  0  0  0  0  0  0  0  0  0  0  0
  187.1140  176.4250  146.1380 C   0  0  0  0  0  2  0  0  0  0  0  0
  186.4040  178.2190  147.7340 C   0  0  0  0  0  2  0  0  0  0  0  0
  184.7100  177.9440  145.3960 C   0  0  0  0  0  2  0  0  0  0  0  0
  186.4110  177.1000  143.7290 C   0  0  1  0  0  3  0  0  0  0  0  0
  188.2120  173.8740  141.6690 O   0  0  0  0  0  0  0  0  0  0  0  0
  187.4290  174.7970  141.8290 C   0  0  0  0  0  3  0  0  0  0  0  0
  185.7480  177.2000  141.3450 O   0  0  0  0  0  0  0  0  0  0  0  0
  186.1270  177.6960  140.1800 O   0  0  0  0  0  1  0  0  0  0  0  0
  189.7720  175.5930  145.1420 C   0  0  1  0  0  3  0  0  0  0  0  0
  189.6870  173.4520  145.7140 C   0  0  0  0  0  1  0  0  0  0  0  0
  190.0990  174.3090  144.6910 O   0  0  0  0  0  0  0  0  0  0  0  0
  191.0230  176.4670  145.2960 C   0  0  2  0  0  3  0  0  0  0  0  0
  191.2150  176.8410  146.7040 C   0  0  0  0  0  0  0  0  0  0  0  0
  191.3730  177.1480  147.8580 C   0  0  0  0  0  0  0  0  0  0  0  0
  191.5660  177.5210  149.2590 C   0  0  0  0  0  1  0  0  0  0  0  0
  190.8970  177.6290  144.5280 O   0  0  0  0  0  0  0  0  0  0  0  0
  192.1820  177.8780  144.0380 C   0  0  0  0  0  2  0  0  0  0  0  0
  192.6570  176.7450  143.3810 O   0  0  0  0  0  1  0  0  0  0  0  0
  1 13  1  0  0  0  0
  3  2  1  6  0  0  0
  3 14  1  0  0  0  0
  4 12  1  0  0  0  0
  5  6  1  0  0  0  0
  6  9  2  0  0  0  0
  6 19  1  0  0  0  0
  7 16  1  1  0  0  0
  7  3  1  0  0  0  0
  7  5  1  0  0  0  0
  8 12  1  0  0  0  0
  9 11  1  0  0  0  0
 10  4  1  0  0  0  0
 11  8  1  0  0  0  0
 13 10  1  0  0  0  0
 14  1  1  1  0  0  0
 14  9  1  0  0  0  0
 15 16  2  0  0  0  0
 17  3  1  0  0  0  0
 18 17  1  0  0  0  0
 19 21  1  6  0  0  0
 19 22  1  0  0  0  0
 21 20  1  0  0  0  0
 22 23  1  1  0  0  0
 23 24  3  0  0  0  0
 24 25  1  0  0  0  0
 26 22  1  0  0  0  0
 27 26  1  0  0  0  0
 28 27  1  0  0  0  0
M  END
>  <MODEL>
4

>  <REMARK>
 VINA RESULT:      -5.7      1.589      2.077
  Name = 
  8 active torsions:
  status: ('A' for Active; 'I' for Inactive)
    1  A    between atoms: C_3  and  O_7
    2  A    between atoms: C_9  and  C_12
    3  A    between atoms: C_9  and  C_13
    4  A    between atoms: C_9  and  O_14
    5  A    between atoms: C_10  and  C_13
    6  A    between atoms: C_11  and  C_22
    7  A    between atoms: C_13  and  O_24
    8  A    between atoms: O_14  and  C_18
                            x       y       z     vdW  Elec       q    Type
                         _______ _______ _______ _____ _____    ______ ____

>  <TORSDO>
F 8

$$$$
=
 OpenBabel11052418173D

 28 29  0  0  1  0  0  0  0  0999 V2000
  192.0960  173.8370  143.4630 C   0  0  0  0  0  2  0  0  0  0  0  0
  189.4800  172.6350  143.7720 C   0  0  0  0  0  1  0  0  0  0  0  0
  189.8160  173.2980  142.4340 C   0  0  1  0  0  0  0  0  0  0  0  0
  193.4530  175.4290  145.3600 C   0  0  0  0  0  2  0  0  0  0  0  0
  188.0290  175.0110  142.8700 C   0  0  0  0  0  2  0  0  0  0  0  0
  189.0780  176.0570  143.1360 C   0  0  0  0  0  0  0  0  0  0  0  0
  188.5080  173.9290  141.9070 C   0  0  1  0  0  3  0  0  0  0  0  0
  191.7510  177.1390  144.7420 C   0  0  0  0  0  2  0  0  0  0  0  0
  190.4090  175.7540  143.1310 C   0  0  0  0  0  0  0  0  0  0  0  0
  194.1730  174.7470  144.3560 O   0  0  0  0  0  0  0  0  0  0  0  0
  191.4300  176.8550  143.2810 C   0  0  0  0  0  2  0  0  0  0  0  0
  193.2270  176.9000  145.0240 C   0  0  0  0  0  2  0  0  0  0  0  0
  193.3650  174.6440  143.2070 C   0  0  0  0  0  2  0  0  0  0  0  0
  190.9130  174.3870  142.6530 C   0  0  1  0  0  3  0  0  0  0  0  0
  188.2160  173.8210  139.5620 O   0  0  0  0  0  0  0  0  0  0  0  0
  188.5950  174.4820  140.5150 C   0  0  0  0  0  3  0  0  0  0  0  0
  190.2520  172.2550  141.5790 O   0  0  0  0  0  0  0  0  0  0  0  0
  189.9990  171.0980  142.1640 O   0  0  0  0  0  1  0  0  0  0  0  0
  188.5350  177.4440  143.4000 C   0  0  1  0  0  3  0  0  0  0  0  0
  188.4560  178.4480  141.4240 C   0  0  0  0  0  1  0  0  0  0  0  0
  187.6520  177.8320  142.3850 O   0  0  0  0  0  0  0  0  0  0  0  0
  187.8880  177.5740  144.7850 C   0  0  2  0  0  3  0  0  0  0  0  0
  188.3690  176.5110  145.6760 C   0  0  0  0  0  0  0  0  0  0  0  0
  188.7630  175.6380  146.4070 C   0  0  0  0  0  0  0  0  0  0  0  0
  189.2400  174.5780  147.2950 C   0  0  0  0  0  1  0  0  0  0  0  0
  186.4970  177.4860  144.6770 O   0  0  0  0  0  0  0  0  0  0  0  0
  186.0070  178.5520  145.4350 C   0  0  0  0  0  2  0  0  0  0  0  0
  185.7640  179.6420  144.6010 O   0  0  0  0  0  1  0  0  0  0  0  0
  3 14  1  0  0  0  0
  3  2  1  1  0  0  0
  5  6  1  0  0  0  0
  6 19  1  0  0  0  0
  7 16  1  6  0  0  0
  7  3  1  0  0  0  0
  7  5  1  0  0  0  0
  8 12  1  0  0  0  0
  9  6  2  0  0  0  0
  9 11  1  0  0  0  0
 10  4  1  0  0  0  0
 11  8  1  0  0  0  0
 12  4  1  0  0  0  0
 13  1  1  0  0  0  0
 13 10  1  0  0  0  0
 14  9  1  0  0  0  0
 14  1  1  1  0  0  0
 15 16  2  0  0  0  0
 17 18  1  0  0  0  0
 17  3  1  0  0  0  0
 19 21  1  6  0  0  0
 19 22  1  0  0  0  0
 20 21  1  0  0  0  0
 22 23  1  1  0  0  0
 23 24  3  0  0  0  0
 24 25  1  0  0  0  0
 26 22  1  0  0  0  0
 26 27  1  0  0  0  0
 28 27  1  0  0  0  0
M  END
>  <MODEL>
5

>  <REMARK>
 VINA RESULT:      -5.7      2.350      5.769
  Name = 
  8 active torsions:
  status: ('A' for Active; 'I' for Inactive)
    1  A    between atoms: C_3  and  O_7
    2  A    between atoms: C_9  and  C_12
    3  A    between atoms: C_9  and  C_13
    4  A    between atoms: C_9  and  O_14
    5  A    between atoms: C_10  and  C_13
    6  A    between atoms: C_11  and  C_22
    7  A    between atoms: C_13  and  O_24
    8  A    between atoms: O_14  and  C_18
                            x       y       z     vdW  Elec       q    Type
                         _______ _______ _______ _____ _____    ______ ____

>  <TORSDO>
F 8

$$$$
=
 OpenBabel11052418173D

 28 29  0  0  1  0  0  0  0  0999 V2000
  187.9370  177.0040  145.7930 C   0  0  0  0  0  2  0  0  0  0  0  0
  189.1110  174.8130  147.2770 C   0  0  0  0  0  1  0  0  0  0  0  0
  190.0490  175.7520  146.5160 C   0  0  1  0  0  0  0  0  0  0  0  0
  185.6310  176.8930  144.1670 C   0  0  0  0  0  2  0  0  0  0  0  0
  190.7030  173.8380  145.0240 C   0  0  0  0  0  2  0  0  0  0  0  0
  189.9170  174.4360  143.8890 C   0  0  0  0  0  0  0  0  0  0  0  0
  191.2220  174.8900  145.9990 C   0  0  1  0  0  3  0  0  0  0  0  0
  187.1160  175.6310  142.6160 C   0  0  0  0  0  2  0  0  0  0  0  0
  189.1780  175.5720  144.0500 C   0  0  0  0  0  0  0  0  0  0  0  0
  186.0570  178.1220  144.7170 O   0  0  0  0  0  0  0  0  0  0  0  0
  188.5050  176.2060  142.8560 C   0  0  0  0  0  2  0  0  0  0  0  0
  186.0590  176.7220  142.7130 C   0  0  0  0  0  2  0  0  0  0  0  0
  187.4600  178.1010  144.8450 C   0  0  0  0  0  2  0  0  0  0  0  0
  189.2750  176.4120  145.3300 C   0  0  1  0  0  3  0  0  0  0  0  0
  193.2820  175.0870  144.8500 O   0  0  0  0  0  0  0  0  0  0  0  0
  192.3410  175.6670  145.3690 C   0  0  0  0  0  3  0  0  0  0  0  0
  190.5020  176.7060  147.4610 O   0  0  0  0  0  0  0  0  0  0  0  0
  191.1970  176.0760  148.3920 O   0  0  0  0  0  1  0  0  0  0  0  0
  190.0200  173.6810  142.5820 C   0  0  1  0  0  3  0  0  0  0  0  0
  191.8180  174.5640  141.6300 C   0  0  0  0  0  1  0  0  0  0  0  0
  191.3570  173.4110  142.2690 O   0  0  0  0  0  0  0  0  0  0  0  0
  189.1730  172.4020  142.5670 C   0  0  2  0  0  3  0  0  0  0  0  0
  189.9910  171.2520  142.1610 C   0  0  0  0  0  0  0  0  0  0  0  0
  190.6610  170.3080  141.8290 C   0  0  0  0  0  0  0  0  0  0  0  0
  191.4740  169.1600  141.4250 C   0  0  0  0  0  1  0  0  0  0  0  0
  188.1050  172.5420  141.6750 O   0  0  0  0  0  0  0  0  0  0  0  0
  188.6800  173.0220  140.4950 C   0  0  0  0  0  2  0  0  0  0  0  0
  187.9810  172.5190  139.4000 O   0  0  0  0  0  1  0  0  0  0  0  0
  3  2  1  1  0  0  0
  3 17  1  0  0  0  0
  4 10  1  0  0  0  0
  5  7  1  0  0  0  0
  6  9  2  0  0  0  0
  6  5  1  0  0  0  0
  7 16  1  6  0  0  0
  7  3  1  0  0  0  0
  8 12  1  0  0  0  0
  8 11  1  0  0  0  0
  9 14  1  0  0  0  0
 10 13  1  0  0  0  0
 11  9  1  0  0  0  0
 12  4  1  0  0  0  0
 13  1  1  0  0  0  0
 14  1  1  1  0  0  0
 14  3  1  0  0  0  0
 15 16  2  0  0  0  0
 17 18  1  0  0  0  0
 19 21  1  1  0  0  0
 19  6  1  0  0  0  0
 20 21  1  0  0  0  0
 22 23  1  6  0  0  0
 22 19  1  0  0  0  0
 24 23  3  0  0  0  0
 25 24  1  0  0  0  0
 26 22  1  0  0  0  0
 27 26  1  0  0  0  0
 28 27  1  0  0  0  0
M  END
>  <MODEL>
6

>  <REMARK>
 VINA RESULT:      -5.7      2.335      5.859
  Name = 
  8 active torsions:
  status: ('A' for Active; 'I' for Inactive)
    1  A    between atoms: C_3  and  O_7
    2  A    between atoms: C_9  and  C_12
    3  A    between atoms: C_9  and  C_13
    4  A    between atoms: C_9  and  O_14
    5  A    between atoms: C_10  and  C_13
    6  A    between atoms: C_11  and  C_22
    7  A    between atoms: C_13  and  O_24
    8  A    between atoms: O_14  and  C_18
                            x       y       z     vdW  Elec       q    Type
                         _______ _______ _______ _____ _____    ______ ____

>  <TORSDO>
F 8

$$$$
=
 OpenBabel11052418173D

 28 29  0  0  1  0  0  0  0  0999 V2000
  187.1350  177.3810  147.4430 C   0  0  0  0  0  2  0  0  0  0  0  0
  188.7200  175.0920  146.6500 C   0  0  0  0  0  1  0  0  0  0  0  0
  189.3340  176.4840  146.4910 C   0  0  1  0  0  0  0  0  0  0  0  0
  184.3910  177.7940  146.9190 C   0  0  0  0  0  2  0  0  0  0  0  0
  189.3500  176.1570  143.9990 C   0  0  0  0  0  2  0  0  0  0  0  0
  188.2160  177.1360  143.8500 C   0  0  0  0  0  0  0  0  0  0  0  0
  190.2160  176.4420  145.2230 C   0  0  1  0  0  3  0  0  0  0  0  0
  185.1720  178.1790  144.5850 C   0  0  0  0  0  2  0  0  0  0  0  0
  187.6150  177.7060  144.9350 C   0  0  0  0  0  0  0  0  0  0  0  0
  185.0180  178.4550  147.9970 O   0  0  0  0  0  0  0  0  0  0  0  0
  186.5660  178.7740  144.7370 C   0  0  0  0  0  2  0  0  0  0  0  0
  184.2520  178.6830  145.6870 C   0  0  0  0  0  2  0  0  0  0  0  0
  186.3690  178.6820  147.6680 C   0  0  0  0  0  2  0  0  0  0  0  0
  188.1950  177.5430  146.3450 C   0  0  1  0  0  3  0  0  0  0  0  0
  191.5570  177.8770  143.9050 O   0  0  0  0  0  0  0  0  0  0  0  0
  191.0430  177.6720  144.9930 C   0  0  0  0  0  3  0  0  0  0  0  0
  190.1260  176.6990  147.6470 O   0  0  0  0  0  0  0  0  0  0  0  0
  190.8320  175.6070  147.8800 O   0  0  0  0  0  1  0  0  0  0  0  0
  187.8150  177.4250  142.4200 C   0  0  1  0  0  3  0  0  0  0  0  0
  189.1720  178.9980  141.6430 C   0  0  0  0  0  1  0  0  0  0  0  0
  188.9450  177.6200  141.6170 O   0  0  0  0  0  0  0  0  0  0  0  0
  186.8910  176.3490  141.8340 C   0  0  2  0  0  3  0  0  0  0  0  0
  187.6460  175.1170  141.5690 C   0  0  0  0  0  0  0  0  0  0  0  0
  188.2640  174.1060  141.3510 C   0  0  0  0  0  0  0  0  0  0  0  0
  189.0130  172.8780  141.0870 C   0  0  0  0  0  1  0  0  0  0  0  0
  186.3200  176.8020  140.6410 O   0  0  0  0  0  0  0  0  0  0  0  0
  185.5450  177.9060  141.0080 C   0  0  0  0  0  2  0  0  0  0  0  0
  184.4640  178.0230  140.1370 O   0  0  0  0  0  1  0  0  0  0  0  0
  1 13  1  0  0  0  0
  3  2  1  1  0  0  0
  3 17  1  0  0  0  0
  4 10  1  0  0  0  0
  5  7  1  0  0  0  0
  6  5  1  0  0  0  0
  6  9  2  0  0  0  0
  7 16  1  6  0  0  0
  7  3  1  0  0  0  0
  8 11  1  0  0  0  0
  8 12  1  0  0  0  0
  9 14  1  0  0  0  0
 11  9  1  0  0  0  0
 12  4  1  0  0  0  0
 13 10  1  0  0  0  0
 14  3  1  0  0  0  0
 14  1  1  1  0  0  0
 15 16  2  0  0  0  0
 17 18  1  0  0  0  0
 19 21  1  6  0  0  0
 19  6  1  0  0  0  0
 21 20  1  0  0  0  0
 22 23  1  6  0  0  0
 22 19  1  0  0  0  0
 24 23  3  0  0  0  0
 25 24  1  0  0  0  0
 26 27  1  0  0  0  0
 26 22  1  0  0  0  0
 28 27  1  0  0  0  0
M  END
>  <MODEL>
7

>  <REMARK>
 VINA RESULT:      -5.4      1.901      5.681
  Name = 
  8 active torsions:
  status: ('A' for Active; 'I' for Inactive)
    1  A    between atoms: C_3  and  O_7
    2  A    between atoms: C_9  and  C_12
    3  A    between atoms: C_9  and  C_13
    4  A    between atoms: C_9  and  O_14
    5  A    between atoms: C_10  and  C_13
    6  A    between atoms: C_11  and  C_22
    7  A    between atoms: C_13  and  O_24
    8  A    between atoms: O_14  and  C_18
                            x       y       z     vdW  Elec       q    Type
                         _______ _______ _______ _____ _____    ______ ____

>  <TORSDO>
F 8

$$$$
=
 OpenBabel11052418173D

 28 29  0  0  1  0  0  0  0  0999 V2000
  192.7660  173.7890  142.9500 C   0  0  0  0  0  2  0  0  0  0  0  0
  190.4380  172.0950  143.2620 C   0  0  0  0  0  1  0  0  0  0  0  0
  190.5220  172.9840  142.0190 C   0  0  1  0  0  0  0  0  0  0  0  0
  194.0100  175.3300  144.9630 C   0  0  0  0  0  2  0  0  0  0  0  0
  188.5200  174.2630  142.8380 C   0  0  0  0  0  2  0  0  0  0  0  0
  189.3950  175.4380  143.1820 C   0  0  0  0  0  0  0  0  0  0  0  0
  189.0800  173.4300  141.6900 C   0  0  1  0  0  3  0  0  0  0  0  0
  191.9860  176.7660  144.7360 C   0  0  0  0  0  2  0  0  0  0  0  0
  190.7500  175.3900  143.0360 C   0  0  0  0  0  0  0  0  0  0  0  0
  194.7340  174.9360  143.8170 O   0  0  0  0  0  0  0  0  0  0  0  0
  191.5770  176.6300  143.2760 C   0  0  0  0  0  2  0  0  0  0  0  0
  193.5020  176.7670  144.8710 C   0  0  0  0  0  2  0  0  0  0  0  0
  193.8460  174.8440  142.7270 C   0  0  0  0  0  2  0  0  0  0  0  0
  191.4330  174.2170  142.3200 C   0  0  1  0  0  3  0  0  0  0  0  0
  188.4660  173.6200  139.4130 O   0  0  0  0  0  0  0  0  0  0  0  0
  188.9340  174.1730  140.3950 C   0  0  0  0  0  3  0  0  0  0  0  0
  191.0450  172.1660  140.9860 O   0  0  0  0  0  0  0  0  0  0  0  0
  190.6180  170.9300  141.1740 O   0  0  0  0  0  1  0  0  0  0  0  0
  188.6490  176.6530  143.6920 C   0  0  1  0  0  3  0  0  0  0  0  0
  188.4300  178.1040  142.0290 C   0  0  0  0  0  1  0  0  0  0  0  0
  187.7400  177.1160  142.7340 O   0  0  0  0  0  0  0  0  0  0  0  0
  187.9630  176.4040  145.0410 C   0  0  2  0  0  3  0  0  0  0  0  0
  186.8450  177.3390  145.2250 C   0  0  0  0  0  0  0  0  0  0  0  0
  185.9290  178.1060  145.3770 C   0  0  0  0  0  0  0  0  0  0  0  0
  184.8170  179.0390  145.5590 C   0  0  0  0  0  1  0  0  0  0  0  0
  188.8770  176.5730  146.0850 O   0  0  0  0  0  0  0  0  0  0  0  0
  188.7110  175.4480  146.8970 C   0  0  0  0  0  2  0  0  0  0  0  0
  189.9600  174.9760  147.2970 O   0  0  0  0  0  1  0  0  0  0  0  0
  3 14  1  0  0  0  0
  3  2  1  1  0  0  0
  5  6  1  0  0  0  0
  6 19  1  0  0  0  0
  7 16  1  6  0  0  0
  7  3  1  0  0  0  0
  7  5  1  0  0  0  0
  8 12  1  0  0  0  0
  9  6  2  0  0  0  0
  9 11  1  0  0  0  0
 10  4  1  0  0  0  0
 11  8  1  0  0  0  0
 12  4  1  0  0  0  0
 13  1  1  0  0  0  0
 13 10  1  0  0  0  0
 14  1  1  1  0  0  0
 14  9  1  0  0  0  0
 15 16  2  0  0  0  0
 17 18  1  0  0  0  0
 17  3  1  0  0  0  0
 19 21  1  6  0  0  0
 19 22  1  0  0  0  0
 20 21  1  0  0  0  0
 22 23  1  1  0  0  0
 22 26  1  0  0  0  0
 23 24  3  0  0  0  0
 24 25  1  0  0  0  0
 26 27  1  0  0  0  0
 27 28  1  0  0  0  0
M  END
>  <MODEL>
8

>  <REMARK>
 VINA RESULT:      -5.3      2.191      6.089
  Name = 
  8 active torsions:
  status: ('A' for Active; 'I' for Inactive)
    1  A    between atoms: C_3  and  O_7
    2  A    between atoms: C_9  and  C_12
    3  A    between atoms: C_9  and  C_13
    4  A    between atoms: C_9  and  O_14
    5  A    between atoms: C_10  and  C_13
    6  A    between atoms: C_11  and  C_22
    7  A    between atoms: C_13  and  O_24
    8  A    between atoms: O_14  and  C_18
                            x       y       z     vdW  Elec       q    Type
                         _______ _______ _______ _____ _____    ______ ____

>  <TORSDO>
F 8

$$$$
=
 OpenBabel11052418173D

 28 29  0  0  1  0  0  0  0  0999 V2000
  188.1120  176.8300  145.5020 C   0  0  0  0  0  2  0  0  0  0  0  0
  189.5270  174.6670  146.8060 C   0  0  0  0  0  1  0  0  0  0  0  0
  190.3350  175.8830  146.3470 C   0  0  1  0  0  0  0  0  0  0  0  0
  186.0960  176.5840  143.5400 C   0  0  0  0  0  2  0  0  0  0  0  0
  191.5500  174.4180  144.7060 C   0  0  0  0  0  2  0  0  0  0  0  0
  190.8010  175.0520  143.5650 C   0  0  0  0  0  0  0  0  0  0  0  0
  191.7160  175.3580  145.8950 C   0  0  1  0  0  3  0  0  0  0  0  0
  187.9890  175.9130  142.0660 C   0  0  0  0  0  2  0  0  0  0  0  0
  189.8280  175.9850  143.7770 C   0  0  0  0  0  0  0  0  0  0  0  0
  186.1870  177.7520  144.3270 O   0  0  0  0  0  0  0  0  0  0  0  0
  189.1880  176.6840  142.6020 C   0  0  0  0  0  2  0  0  0  0  0  0
  186.7250  176.7550  142.1600 C   0  0  0  0  0  2  0  0  0  0  0  0
  187.5370  177.9690  144.6650 C   0  0  0  0  0  2  0  0  0  0  0  0
  189.5910  176.5870  145.1680 C   0  0  1  0  0  3  0  0  0  0  0  0
  193.8280  176.1320  145.1610 O   0  0  0  0  0  0  0  0  0  0  0  0
  192.7160  176.4280  145.5690 C   0  0  0  0  0  3  0  0  0  0  0  0
  190.4610  176.7220  147.4830 O   0  0  0  0  0  0  0  0  0  0  0  0
  191.1910  176.0950  148.3880 O   0  0  0  0  0  1  0  0  0  0  0  0
  191.2180  174.5720  142.1920 C   0  0  1  0  0  3  0  0  0  0  0  0
  193.0740  175.6940  141.7290 C   0  0  0  0  0  1  0  0  0  0  0  0
  192.6090  174.4350  142.1150 O   0  0  0  0  0  0  0  0  0  0  0  0
  190.5050  173.2800  141.7730 C   0  0  2  0  0  3  0  0  0  0  0  0
  189.8380  173.4620  140.4770 C   0  0  0  0  0  0  0  0  0  0  0  0
  189.2910  173.6110  139.4130 C   0  0  0  0  0  0  0  0  0  0  0  0
  188.6280  173.7900  138.1220 C   0  0  0  0  0  1  0  0  0  0  0  0
  189.5520  172.9230  142.7310 O   0  0  0  0  0  0  0  0  0  0  0  0
  189.6860  171.5400  142.8770 C   0  0  0  0  0  2  0  0  0  0  0  0
  191.0340  171.2170  143.0190 O   0  0  0  0  0  1  0  0  0  0  0  0
  3  2  1  1  0  0  0
  3 17  1  0  0  0  0
  4 10  1  0  0  0  0
  5  7  1  0  0  0  0
  6  9  2  0  0  0  0
  6  5  1  0  0  0  0
  7 16  1  6  0  0  0
  7  3  1  0  0  0  0
  8 12  1  0  0  0  0
  8 11  1  0  0  0  0
  9 14  1  0  0  0  0
 10 13  1  0  0  0  0
 11  9  1  0  0  0  0
 12  4  1  0  0  0  0
 13  1  1  0  0  0  0
 14  1  1  1  0  0  0
 14  3  1  0  0  0  0
 15 16  2  0  0  0  0
 17 18  1  0  0  0  0
 19 21  1  1  0  0  0
 19  6  1  0  0  0  0
 20 21  1  0  0  0  0
 22 23  1  6  0  0  0
 22 19  1  0  0  0  0
 22 26  1  0  0  0  0
 24 23  3  0  0  0  0
 25 24  1  0  0  0  0
 26 27  1  0  0  0  0
 27 28  1  0  0  0  0
M  END
>  <MODEL>
9

>  <REMARK>
 VINA RESULT:      -5.3      2.178      5.832
  Name = 
  8 active torsions:
  status: ('A' for Active; 'I' for Inactive)
    1  A    between atoms: C_3  and  O_7
    2  A    between atoms: C_9  and  C_12
    3  A    between atoms: C_9  and  C_13
    4  A    between atoms: C_9  and  O_14
    5  A    between atoms: C_10  and  C_13
    6  A    between atoms: C_11  and  C_22
    7  A    between atoms: C_13  and  O_24
    8  A    between atoms: O_14  and  C_18
                            x       y       z     vdW  Elec       q    Type
                         _______ _______ _______ _____ _____    ______ ____

>  <TORSDO>
F 8

$$$$
