=
 OpenBabel11052419063D

 32 36  0  0  1  0  0  0  0  0999 V2000
  191.1990  174.0790  142.7130 N   0  0  0  0  0  0  0  0  0  0  0  0
  191.1300  176.0660  144.1510 C   0  0  0  0  0  0  0  0  0  0  0  0
  190.3620  172.9470  142.2820 C   0  0  0  0  0  2  0  0  0  0  0  0
  190.9300  174.7430  143.9710 C   0  0  0  0  0  0  0  0  0  0  0  0
  190.8350  176.7430  145.4710 C   0  0  1  0  0  3  0  0  0  0  0  0
  189.6830  177.8250  142.7510 C   0  0  1  0  0  3  0  0  0  0  0  0
  188.8830  177.7150  144.0730 C   0  0  2  0  0  3  0  0  0  0  0  0
  190.3070  173.9410  145.0420 C   0  0  0  0  0  0  0  0  0  0  0  0
  189.7800  177.8560  145.3150 C   0  0  0  0  0  2  0  0  0  0  0  0
  190.1020  174.4500  146.2510 C   0  0  0  0  0  3  0  0  0  0  0  0
  189.8660  172.5540  144.7230 C   0  0  0  0  0  2  0  0  0  0  0  0
  192.5920  173.8430  140.8500 O   0  0  0  0  0  0  0  0  0  0  0  0
  192.4660  174.2330  142.0440 C   0  0  0  0  0  0  0  0  0  0  0  0
  191.4050  177.1760  142.7690 S   0  0  0  0  0  0  0  0  0  0  0  0
  190.4640  175.8050  146.5370 N   0  0  0  0  0  0  0  0  0  0  0  0
  189.2950  172.5450  143.3080 C   0  0  0  0  0  2  0  0  0  0  0  0
  188.9820  177.3120  141.6740 F   0  0  0  0  0  0  0  0  0  0  0  0
  188.0160  176.4580  144.1400 C   0  0  0  0  0  3  0  0  0  0  0  0
  187.0990  176.5260  145.3460 C   0  0  0  0  0  2  0  0  0  0  0  0
  186.5580  176.8390  143.9680 C   0  0  0  0  0  2  0  0  0  0  0  0
  190.3780  176.2850  147.9070 C   0  0  0  0  0  2  0  0  0  0  0  0
  191.7020  176.8880  148.3360 C   0  0  0  0  0  1  0  0  0  0  0  0
  193.6660  174.7400  142.7980 C   0  0  2  0  0  3  0  0  0  0  0  0
  194.6040  176.5320  141.5320 O   0  0  0  0  0  0  0  0  0  0  0  0
  194.7120  175.3350  141.9030 C   0  0  0  0  0  0  0  0  0  0  0  0
  195.8180  174.5550  141.4580 N   0  0  0  0  0  1  0  0  0  0  0  0
  194.2340  173.6460  143.6900 C   0  0  0  0  0  2  0  0  0  0  0  0
  193.3020  173.6040  146.0190 F   0  0  0  0  0  0  0  0  0  0  0  0
  194.5900  175.5550  145.3660 C   0  0  0  0  0  2  0  0  0  0  0  0
  194.2570  174.0980  145.1490 C   0  0  2  0  0  0  0  0  0  0  0  0
  196.7560  174.4600  144.8380 C   0  0  0  0  0  1  0  0  0  0  0  0
  195.5800  174.4790  145.8020 C   0  0  1  0  0  3  0  0  0  0  0  0
  1  4  1  0  0  0  0
  2  5  1  0  0  0  0
  3  1  1  0  0  0  0
  3 16  1  0  0  0  0
  4  2  2  0  0  0  0
  4  8  1  0  0  0  0
  5  9  1  6  0  0  0
  5 15  1  0  0  0  0
  6 17  1  6  0  0  0
  6 14  1  0  0  0  0
  6  7  1  0  0  0  0
  7 18  1  1  0  0  0
  7  9  1  0  0  0  0
  8 10  2  0  0  0  0
 10 15  1  0  0  0  0
 11  8  1  0  0  0  0
 12 13  2  0  0  0  0
 13  1  1  0  0  0  0
 13 23  1  0  0  0  0
 14  2  1  0  0  0  0
 15 21  1  0  0  0  0
 16 11  1  0  0  0  0
 18 19  1  0  0  0  0
 20 18  1  0  0  0  0
 20 19  1  0  0  0  0
 21 22  1  0  0  0  0
 23 27  1  6  0  0  0
 24 25  2  0  0  0  0
 25 23  1  0  0  0  0
 26 25  1  0  0  0  0
 27 30  1  0  0  0  0
 29 32  1  0  0  0  0
 30 29  1  0  0  0  0
 30 32  1  0  0  0  0
 30 28  1  1  0  0  0
 32 31  1  6  0  0  0
M  END
>  <MODEL>
1

>  <REMARK>
 VINA RESULT:      -6.2      0.000      0.000
  Name = 
  6 active torsions:
  status: ('A' for Active; 'I' for Inactive)
    1  A    between atoms: C_9  and  C_12
    2  A    between atoms: C_13  and  N_29
    3  A    between atoms: C_15  and  C_20
    4  A    between atoms: C_16  and  C_20
    5  A    between atoms: C_16  and  C_22
    6  A    between atoms: C_16  and  C_27
                            x       y       z     vdW  Elec       q    Type
                         _______ _______ _______ _____ _____    ______ ____

>  <TORSDO>
F 6

$$$$
=
 OpenBabel11052419063D

 32 36  0  0  1  0  0  0  0  0999 V2000
  192.6810  176.5510  144.2590 N   0  0  0  0  0  0  0  0  0  0  0  0
  192.8770  174.3080  143.2840 C   0  0  0  0  0  0  0  0  0  0  0  0
  193.4630  177.5460  145.0130 C   0  0  0  0  0  2  0  0  0  0  0  0
  193.0300  175.1480  144.3300 C   0  0  0  0  0  0  0  0  0  0  0  0
  193.2550  172.8470  143.3750 C   0  0  1  0  0  3  0  0  0  0  0  0
  194.3060  174.6950  141.0570 C   0  0  1  0  0  3  0  0  0  0  0  0
  195.1650  173.6620  141.8270 C   0  0  2  0  0  3  0  0  0  0  0  0
  193.6800  174.6730  145.5660 C   0  0  0  0  0  0  0  0  0  0  0  0
  194.3330  172.4730  142.3390 C   0  0  0  0  0  2  0  0  0  0  0  0
  193.9580  173.3870  145.7460 C   0  0  0  0  0  3  0  0  0  0  0  0
  194.0650  175.6780  146.5960 C   0  0  0  0  0  2  0  0  0  0  0  0
  191.1930  178.1920  143.5110 O   0  0  0  0  0  0  0  0  0  0  0  0
  191.3890  176.9750  143.7850 C   0  0  0  0  0  0  0  0  0  0  0  0
  192.5680  174.9130  141.6250 S   0  0  0  0  0  0  0  0  0  0  0  0
  193.6500  172.4300  144.7270 N   0  0  0  0  0  0  0  0  0  0  0  0
  194.5660  176.9290  145.8820 C   0  0  0  0  0  2  0  0  0  0  0  0
  194.9380  175.9210  140.9490 F   0  0  0  0  0  0  0  0  0  0  0  0
  195.9970  174.2940  142.9420 C   0  0  0  0  0  3  0  0  0  0  0  0
  196.9650  173.2720  143.5080 C   0  0  0  0  0  2  0  0  0  0  0  0
  197.4570  174.3180  142.5320 C   0  0  0  0  0  2  0  0  0  0  0  0
  193.8160  171.0140  145.0130 C   0  0  0  0  0  2  0  0  0  0  0  0
  195.1380  170.7720  145.7180 C   0  0  0  0  0  1  0  0  0  0  0  0
  190.2410  176.0020  143.7330 C   0  0  2  0  0  3  0  0  0  0  0  0
  189.2730  175.2410  141.6900 O   0  0  0  0  0  0  0  0  0  0  0  0
  189.3760  176.1790  142.5210 C   0  0  0  0  0  0  0  0  0  0  0  0
  188.6830  177.4030  142.2940 N   0  0  0  0  0  1  0  0  0  0  0  0
  189.4350  176.0620  145.0230 C   0  0  0  0  0  2  0  0  0  0  0  0
  190.2010  173.7130  145.4500 F   0  0  0  0  0  0  0  0  0  0  0  0
  189.0730  174.8670  147.2630 C   0  0  0  0  0  2  0  0  0  0  0  0
  189.8570  174.9450  145.9740 C   0  0  2  0  0  0  0  0  0  0  0  0
  190.6210  176.7860  147.5540 C   0  0  0  0  0  1  0  0  0  0  0  0
  190.5380  175.2910  147.2920 C   0  0  1  0  0  3  0  0  0  0  0  0
  1  4  1  0  0  0  0
  1  3  1  0  0  0  0
  2  5  1  0  0  0  0
  2  4  2  0  0  0  0
  3 16  1  0  0  0  0
  4  8  1  0  0  0  0
  5  9  1  6  0  0  0
  5 15  1  0  0  0  0
  6 17  1  1  0  0  0
  6 14  1  0  0  0  0
  6  7  1  0  0  0  0
  7  9  1  0  0  0  0
  7 18  1  1  0  0  0
  8 10  2  0  0  0  0
  8 11  1  0  0  0  0
 12 13  2  0  0  0  0
 13  1  1  0  0  0  0
 14  2  1  0  0  0  0
 15 21  1  0  0  0  0
 15 10  1  0  0  0  0
 16 11  1  0  0  0  0
 18 19  1  0  0  0  0
 20 18  1  0  0  0  0
 20 19  1  0  0  0  0
 21 22  1  0  0  0  0
 23 13  1  0  0  0  0
 23 27  1  1  0  0  0
 24 25  2  0  0  0  0
 25 23  1  0  0  0  0
 26 25  1  0  0  0  0
 27 30  1  0  0  0  0
 29 32  1  0  0  0  0
 30 28  1  6  0  0  0
 30 29  1  0  0  0  0
 30 32  1  0  0  0  0
 32 31  1  6  0  0  0
M  END
>  <MODEL>
2

>  <REMARK>
 VINA RESULT:      -5.9      2.523      6.081
  Name = 
  6 active torsions:
  status: ('A' for Active; 'I' for Inactive)
    1  A    between atoms: C_9  and  C_12
    2  A    between atoms: C_13  and  N_29
    3  A    between atoms: C_15  and  C_20
    4  A    between atoms: C_16  and  C_20
    5  A    between atoms: C_16  and  C_22
    6  A    between atoms: C_16  and  C_27
                            x       y       z     vdW  Elec       q    Type
                         _______ _______ _______ _____ _____    ______ ____

>  <TORSDO>
F 6

$$$$
=
 OpenBabel11052419063D

 32 36  0  0  1  0  0  0  0  0999 V2000
  190.5740  176.4620  143.3400 N   0  0  0  0  0  0  0  0  0  0  0  0
  189.8300  174.1250  143.3030 C   0  0  0  0  0  0  0  0  0  0  0  0
  191.5980  177.3490  142.7610 C   0  0  0  0  0  2  0  0  0  0  0  0
  190.8160  175.0380  143.4330 C   0  0  0  0  0  0  0  0  0  0  0  0
  190.1040  172.6400  143.3960 C   0  0  1  0  0  3  0  0  0  0  0  0
  188.5380  173.8950  140.9740 C   0  0  1  0  0  3  0  0  0  0  0  0
  189.6320  172.8070  140.8540 C   0  0  2  0  0  3  0  0  0  0  0  0
  192.2170  174.5950  143.5620 C   0  0  0  0  0  0  0  0  0  0  0  0
  189.7030  171.9070  142.1010 C   0  0  0  0  0  2  0  0  0  0  0  0
  192.5200  173.3140  143.7340 C   0  0  0  0  0  3  0  0  0  0  0  0
  193.2970  175.6150  143.4440 C   0  0  0  0  0  2  0  0  0  0  0  0
  189.1960  178.2800  143.8510 O   0  0  0  0  0  0  0  0  0  0  0  0
  189.5420  177.0970  144.1200 C   0  0  0  0  0  0  0  0  0  0  0  0
  188.2150  174.5640  142.6590 S   0  0  0  0  0  0  0  0  0  0  0  0
  191.4850  172.3250  143.7790 N   0  0  0  0  0  0  0  0  0  0  0  0
  192.8910  176.6220  142.3720 C   0  0  0  0  0  2  0  0  0  0  0  0
  188.7280  174.9280  140.0720 F   0  0  0  0  0  0  0  0  0  0  0  0
  191.0010  173.3780  140.4890 C   0  0  0  0  0  3  0  0  0  0  0  0
  191.9670  172.2500  140.1800 C   0  0  0  0  0  2  0  0  0  0  0  0
  191.3280  173.0280  139.0500 C   0  0  0  0  0  2  0  0  0  0  0  0
  191.8310  170.9560  144.1290 C   0  0  0  0  0  2  0  0  0  0  0  0
  193.2110  170.6120  143.6020 C   0  0  0  0  0  1  0  0  0  0  0  0
  188.9650  176.4020  145.3240 C   0  0  2  0  0  3  0  0  0  0  0  0
  186.6560  176.5960  144.7540 O   0  0  0  0  0  0  0  0  0  0  0  0
  187.5500  176.8070  145.6130 C   0  0  0  0  0  0  0  0  0  0  0  0
  187.2110  177.4410  146.8430 N   0  0  0  0  0  1  0  0  0  0  0  0
  189.8700  176.5930  146.5320 C   0  0  0  0  0  2  0  0  0  0  0  0
  189.8450  174.0880  146.6450 F   0  0  0  0  0  0  0  0  0  0  0  0
  191.1690  175.2670  148.3020 C   0  0  0  0  0  2  0  0  0  0  0  0
  190.5020  175.2660  146.9470 C   0  0  2  0  0  0  0  0  0  0  0  0
  192.7430  176.4610  146.7980 C   0  0  0  0  0  1  0  0  0  0  0  0
  192.0180  175.1460  147.0400 C   0  0  1  0  0  3  0  0  0  0  0  0
  1  4  1  0  0  0  0
  1 13  1  0  0  0  0
  2  5  1  0  0  0  0
  2  4  2  0  0  0  0
  3  1  1  0  0  0  0
  4  8  1  0  0  0  0
  5  9  1  6  0  0  0
  5 15  1  0  0  0  0
  6 17  1  6  0  0  0
  6 14  1  0  0  0  0
  7 18  1  1  0  0  0
  7  6  1  0  0  0  0
  7  9  1  0  0  0  0
  8 10  2  0  0  0  0
 10 15  1  0  0  0  0
 11  8  1  0  0  0  0
 12 13  2  0  0  0  0
 13 23  1  0  0  0  0
 14  2  1  0  0  0  0
 15 21  1  0  0  0  0
 16  3  1  0  0  0  0
 16 11  1  0  0  0  0
 19 18  1  0  0  0  0
 20 19  1  0  0  0  0
 20 18  1  0  0  0  0
 22 21  1  0  0  0  0
 23 25  1  0  0  0  0
 23 27  1  1  0  0  0
 24 25  2  0  0  0  0
 25 26  1  0  0  0  0
 27 30  1  0  0  0  0
 30 28  1  6  0  0  0
 30 32  1  0  0  0  0
 30 29  1  0  0  0  0
 32 31  1  6  0  0  0
 32 29  1  0  0  0  0
M  END
>  <MODEL>
3

>  <REMARK>
 VINA RESULT:      -5.8      2.750      5.638
  Name = 
  6 active torsions:
  status: ('A' for Active; 'I' for Inactive)
    1  A    between atoms: C_9  and  C_12
    2  A    between atoms: C_13  and  N_29
    3  A    between atoms: C_15  and  C_20
    4  A    between atoms: C_16  and  C_20
    5  A    between atoms: C_16  and  C_22
    6  A    between atoms: C_16  and  C_27
                            x       y       z     vdW  Elec       q    Type
                         _______ _______ _______ _____ _____    ______ ____

>  <TORSDO>
F 6

$$$$
=
 OpenBabel11052419063D

 32 36  0  0  1  0  0  0  0  0999 V2000
  189.2360  173.2590  142.5730 N   0  0  0  0  0  0  0  0  0  0  0  0
  189.8780  175.6210  142.7310 C   0  0  0  0  0  0  0  0  0  0  0  0
  188.9360  172.0930  143.4220 C   0  0  0  0  0  2  0  0  0  0  0  0
  190.0670  174.3300  143.0780 C   0  0  0  0  0  0  0  0  0  0  0  0
  190.7530  176.7280  143.2760 C   0  0  1  0  0  3  0  0  0  0  0  0
  187.6140  176.8610  143.4280 C   0  0  1  0  0  3  0  0  0  0  0  0
  188.5750  177.2570  144.5760 C   0  0  2  0  0  3  0  0  0  0  0  0
  191.0770  173.9830  144.0960 C   0  0  0  0  0  0  0  0  0  0  0  0
  189.9290  177.7720  144.0550 C   0  0  0  0  0  2  0  0  0  0  0  0
  191.9340  174.8890  144.5520 C   0  0  0  0  0  3  0  0  0  0  0  0
  191.0840  172.5960  144.6430 C   0  0  0  0  0  2  0  0  0  0  0  0
  188.0880  172.3190  140.7650 O   0  0  0  0  0  0  0  0  0  0  0  0
  188.9940  173.1050  141.1610 C   0  0  0  0  0  0  0  0  0  0  0  0
  188.3830  176.1680  141.9060 S   0  0  0  0  0  0  0  0  0  0  0  0
  191.8820  176.2380  144.0770 N   0  0  0  0  0  0  0  0  0  0  0  0
  189.6400  172.1280  144.7850 C   0  0  0  0  0  2  0  0  0  0  0  0
  186.5870  176.0430  143.8670 F   0  0  0  0  0  0  0  0  0  0  0  0
  188.7510  176.1490  145.6130 C   0  0  0  0  0  3  0  0  0  0  0  0
  189.5080  176.6800  146.8150 C   0  0  0  0  0  2  0  0  0  0  0  0
  188.0050  176.5180  146.8800 C   0  0  0  0  0  2  0  0  0  0  0  0
  192.9300  177.1670  144.4700 C   0  0  0  0  0  2  0  0  0  0  0  0
  193.6800  176.6320  145.6750 C   0  0  0  0  0  1  0  0  0  0  0  0
  189.8920  173.7780  140.1590 C   0  0  2  0  0  3  0  0  0  0  0  0
  188.0790  174.7290  138.9340 O   0  0  0  0  0  0  0  0  0  0  0  0
  189.1860  174.1350  138.8850 C   0  0  0  0  0  0  0  0  0  0  0  0
  189.7490  173.7950  137.6200 N   0  0  0  0  0  1  0  0  0  0  0  0
  191.1320  172.9320  139.9050 C   0  0  0  0  0  2  0  0  0  0  0  0
  192.3570  174.9120  140.8370 F   0  0  0  0  0  0  0  0  0  0  0  0
  193.6870  173.0170  140.1100 C   0  0  0  0  0  2  0  0  0  0  0  0
  192.3550  173.5540  140.5760 C   0  0  2  0  0  0  0  0  0  0  0  0
  192.7630  171.2670  141.6100 C   0  0  0  0  0  1  0  0  0  0  0  0
  193.2040  172.7200  141.5260 C   0  0  1  0  0  3  0  0  0  0  0  0
  1  4  1  0  0  0  0
  1  3  1  0  0  0  0
  2  4  2  0  0  0  0
  2  5  1  0  0  0  0
  3 16  1  0  0  0  0
  4  8  1  0  0  0  0
  5  9  1  1  0  0  0
  5 15  1  0  0  0  0
  6 17  1  1  0  0  0
  6  7  1  0  0  0  0
  7 18  1  1  0  0  0
  8 10  2  0  0  0  0
  8 11  1  0  0  0  0
  9  7  1  0  0  0  0
 11 16  1  0  0  0  0
 12 13  2  0  0  0  0
 13  1  1  0  0  0  0
 14  2  1  0  0  0  0
 14  6  1  0  0  0  0
 15 21  1  0  0  0  0
 15 10  1  0  0  0  0
 18 19  1  0  0  0  0
 18 20  1  0  0  0  0
 19 20  1  0  0  0  0
 21 22  1  0  0  0  0
 23 27  1  6  0  0  0
 23 13  1  0  0  0  0
 25 24  2  0  0  0  0
 25 23  1  0  0  0  0
 26 25  1  0  0  0  0
 27 30  1  0  0  0  0
 29 30  1  0  0  0  0
 29 32  1  0  0  0  0
 30 28  1  1  0  0  0
 30 32  1  0  0  0  0
 32 31  1  6  0  0  0
M  END
>  <MODEL>
4

>  <REMARK>
 VINA RESULT:      -5.7      2.825      3.966
  Name = 
  6 active torsions:
  status: ('A' for Active; 'I' for Inactive)
    1  A    between atoms: C_9  and  C_12
    2  A    between atoms: C_13  and  N_29
    3  A    between atoms: C_15  and  C_20
    4  A    between atoms: C_16  and  C_20
    5  A    between atoms: C_16  and  C_22
    6  A    between atoms: C_16  and  C_27
                            x       y       z     vdW  Elec       q    Type
                         _______ _______ _______ _____ _____    ______ ____

>  <TORSDO>
F 6

$$$$
=
 OpenBabel11052419063D

 32 36  0  0  1  0  0  0  0  0999 V2000
  190.4500  173.6840  144.7420 N   0  0  0  0  0  0  0  0  0  0  0  0
  192.6000  174.6730  144.0980 C   0  0  0  0  0  0  0  0  0  0  0  0
  189.6250  172.4860  144.5140 C   0  0  0  0  0  2  0  0  0  0  0  0
  191.4320  174.0870  143.7590 C   0  0  0  0  0  0  0  0  0  0  0  0
  193.6180  175.0810  143.0560 C   0  0  1  0  0  3  0  0  0  0  0  0
  194.3950  173.3120  145.5380 C   0  0  1  0  0  3  0  0  0  0  0  0
  194.8800  173.0670  144.0880 C   0  0  2  0  0  3  0  0  0  0  0  0
  191.1710  173.7280  142.3520 C   0  0  0  0  0  0  0  0  0  0  0  0
  194.9680  174.3690  143.2720 C   0  0  0  0  0  2  0  0  0  0  0  0
  191.9790  174.1300  141.3780 C   0  0  0  0  0  3  0  0  0  0  0  0
  189.9990  172.8590  142.0490 C   0  0  0  0  0  2  0  0  0  0  0  0
  189.3160  174.1650  146.7300 O   0  0  0  0  0  0  0  0  0  0  0  0
  189.9850  174.6010  145.7520 C   0  0  0  0  0  0  0  0  0  0  0  0
  193.1950  174.6850  145.7890 S   0  0  0  0  0  0  0  0  0  0  0  0
  193.1420  174.9090  141.6780 N   0  0  0  0  0  0  0  0  0  0  0  0
  189.8750  171.8170  143.1560 C   0  0  0  0  0  2  0  0  0  0  0  0
  193.9350  172.1520  146.1370 F   0  0  0  0  0  0  0  0  0  0  0  0
  194.0660  171.9970  143.3620 C   0  0  0  0  0  3  0  0  0  0  0  0
  194.7200  171.6610  142.0360 C   0  0  0  0  0  2  0  0  0  0  0  0
  194.8980  170.7370  143.2210 C   0  0  0  0  0  2  0  0  0  0  0  0
  193.9190  175.4690  140.5830 C   0  0  0  0  0  2  0  0  0  0  0  0
  194.0730  174.4480  139.4720 C   0  0  0  0  0  1  0  0  0  0  0  0
  190.1870  176.0830  145.5830 C   0  0  2  0  0  3  0  0  0  0  0  0
  189.4910  177.6500  147.2410 O   0  0  0  0  0  0  0  0  0  0  0  0
  190.3520  176.8050  146.8870 C   0  0  0  0  0  0  0  0  0  0  0  0
  191.4810  176.5540  147.7200 N   0  0  0  0  0  1  0  0  0  0  0  0
  189.0690  176.6780  144.7390 C   0  0  0  0  0  2  0  0  0  0  0  0
  190.9220  177.3240  143.1770 F   0  0  0  0  0  0  0  0  0  0  0  0
  188.6590  177.9160  142.5300 C   0  0  0  0  0  2  0  0  0  0  0  0
  189.5790  177.0390  143.3460 C   0  0  2  0  0  0  0  0  0  0  0  0
  187.6490  175.6490  142.4450 C   0  0  0  0  0  1  0  0  0  0  0  0
  188.8890  176.4660  142.1150 C   0  0  1  0  0  3  0  0  0  0  0  0
  1 13  1  0  0  0  0
  2 14  1  0  0  0  0
  3  1  1  0  0  0  0
  4  2  2  0  0  0  0
  4  1  1  0  0  0  0
  5  9  1  6  0  0  0
  5  2  1  0  0  0  0
  6 14  1  0  0  0  0
  6 17  1  6  0  0  0
  7 18  1  6  0  0  0
  7  6  1  0  0  0  0
  8  4  1  0  0  0  0
  9  7  1  0  0  0  0
 10 15  1  0  0  0  0
 10  8  2  0  0  0  0
 11  8  1  0  0  0  0
 11 16  1  0  0  0  0
 13 12  2  0  0  0  0
 15  5  1  0  0  0  0
 16  3  1  0  0  0  0
 19 20  1  0  0  0  0
 19 18  1  0  0  0  0
 20 18  1  0  0  0  0
 21 15  1  0  0  0  0
 22 21  1  0  0  0  0
 23 27  1  1  0  0  0
 23 13  1  0  0  0  0
 23 25  1  0  0  0  0
 25 24  2  0  0  0  0
 25 26  1  0  0  0  0
 29 30  1  0  0  0  0
 30 28  1  6  0  0  0
 30 27  1  0  0  0  0
 32 31  1  1  0  0  0
 32 29  1  0  0  0  0
 32 30  1  0  0  0  0
M  END
>  <MODEL>
5

>  <REMARK>
 VINA RESULT:      -5.6      2.479      6.414
  Name = 
  6 active torsions:
  status: ('A' for Active; 'I' for Inactive)
    1  A    between atoms: C_9  and  C_12
    2  A    between atoms: C_13  and  N_29
    3  A    between atoms: C_15  and  C_20
    4  A    between atoms: C_16  and  C_20
    5  A    between atoms: C_16  and  C_22
    6  A    between atoms: C_16  and  C_27
                            x       y       z     vdW  Elec       q    Type
                         _______ _______ _______ _____ _____    ______ ____

>  <TORSDO>
F 6

$$$$
=
 OpenBabel11052419063D

 32 36  0  0  1  0  0  0  0  0999 V2000
  192.2400  174.0900  141.4470 N   0  0  0  0  0  0  0  0  0  0  0  0
  192.6310  173.5330  143.8040 C   0  0  0  0  0  0  0  0  0  0  0  0
  192.9690  174.4200  140.2110 C   0  0  0  0  0  2  0  0  0  0  0  0
  192.8520  174.3300  142.7370 C   0  0  0  0  0  0  0  0  0  0  0  0
  193.2860  173.7950  145.1420 C   0  0  1  0  0  3  0  0  0  0  0  0
  193.4330  170.9830  143.7400 C   0  0  1  0  0  3  0  0  0  0  0  0
  194.6190  171.6850  144.4450 C   0  0  2  0  0  3  0  0  0  0  0  0
  193.8370  175.4250  142.8280 C   0  0  0  0  0  0  0  0  0  0  0  0
  194.1590  172.6060  145.5890 C   0  0  0  0  0  2  0  0  0  0  0  0
  194.3830  175.7630  143.9900 C   0  0  0  0  0  3  0  0  0  0  0  0
  194.2450  176.1160  141.5730 C   0  0  0  0  0  2  0  0  0  0  0  0
  190.3430  173.4560  140.2360 O   0  0  0  0  0  0  0  0  0  0  0  0
  190.8190  173.8930  141.3210 C   0  0  0  0  0  0  0  0  0  0  0  0
  191.8550  171.9250  143.6370 S   0  0  0  0  0  0  0  0  0  0  0  0
  194.0410  175.0530  145.1840 N   0  0  0  0  0  0  0  0  0  0  0  0
  194.3330  175.0780  140.4590 C   0  0  0  0  0  2  0  0  0  0  0  0
  193.7850  170.4910  142.4950 F   0  0  0  0  0  0  0  0  0  0  0  0
  195.5440  172.4130  143.4710 C   0  0  0  0  0  3  0  0  0  0  0  0
  196.7840  172.8970  144.1980 C   0  0  0  0  0  2  0  0  0  0  0  0
  196.8480  171.6490  143.3440 C   0  0  0  0  0  2  0  0  0  0  0  0
  194.5290  175.5450  146.4630 C   0  0  0  0  0  2  0  0  0  0  0  0
  194.2170  177.0230  146.6110 C   0  0  0  0  0  1  0  0  0  0  0  0
  189.8910  174.3180  142.4280 C   0  0  2  0  0  3  0  0  0  0  0  0
  187.5720  174.6350  141.9680 O   0  0  0  0  0  0  0  0  0  0  0  0
  188.4890  173.8200  142.2420 C   0  0  0  0  0  0  0  0  0  0  0  0
  188.1830  172.4350  142.3870 N   0  0  0  0  0  1  0  0  0  0  0  0
  189.9410  175.8280  142.6110 C   0  0  0  0  0  2  0  0  0  0  0  0
  189.8320  175.1830  145.0330 F   0  0  0  0  0  0  0  0  0  0  0  0
  189.2660  177.4730  144.4590 C   0  0  0  0  0  2  0  0  0  0  0  0
  189.9730  176.1890  144.0940 C   0  0  2  0  0  0  0  0  0  0  0  0
  191.4090  178.1790  143.4210 C   0  0  0  0  0  1  0  0  0  0  0  0
  190.7860  177.3900  144.5630 C   0  0  1  0  0  3  0  0  0  0  0  0
  1  4  1  0  0  0  0
  2  5  1  0  0  0  0
  3 16  1  0  0  0  0
  3  1  1  0  0  0  0
  4  8  1  0  0  0  0
  4  2  2  0  0  0  0
  5 15  1  0  0  0  0
  5  9  1  6  0  0  0
  6 17  1  6  0  0  0
  6  7  1  0  0  0  0
  7 18  1  6  0  0  0
  7  9  1  0  0  0  0
  8 10  2  0  0  0  0
 10 15  1  0  0  0  0
 11  8  1  0  0  0  0
 12 13  2  0  0  0  0
 13  1  1  0  0  0  0
 13 23  1  0  0  0  0
 14  6  1  0  0  0  0
 14  2  1  0  0  0  0
 15 21  1  0  0  0  0
 16 11  1  0  0  0  0
 18 19  1  0  0  0  0
 20 18  1  0  0  0  0
 20 19  1  0  0  0  0
 21 22  1  0  0  0  0
 23 27  1  6  0  0  0
 24 25  2  0  0  0  0
 25 26  1  0  0  0  0
 25 23  1  0  0  0  0
 27 30  1  0  0  0  0
 29 32  1  0  0  0  0
 30 29  1  0  0  0  0
 30 32  1  0  0  0  0
 30 28  1  1  0  0  0
 32 31  1  6  0  0  0
M  END
>  <MODEL>
6

>  <REMARK>
 VINA RESULT:      -5.6      2.596      6.029
  Name = 
  6 active torsions:
  status: ('A' for Active; 'I' for Inactive)
    1  A    between atoms: C_9  and  C_12
    2  A    between atoms: C_13  and  N_29
    3  A    between atoms: C_15  and  C_20
    4  A    between atoms: C_16  and  C_20
    5  A    between atoms: C_16  and  C_22
    6  A    between atoms: C_16  and  C_27
                            x       y       z     vdW  Elec       q    Type
                         _______ _______ _______ _____ _____    ______ ____

>  <TORSDO>
F 6

$$$$
=
 OpenBabel11052419063D

 32 36  0  0  1  0  0  0  0  0999 V2000
  191.6170  173.9640  144.1410 N   0  0  0  0  0  0  0  0  0  0  0  0
  193.3820  175.5240  143.4570 C   0  0  0  0  0  0  0  0  0  0  0  0
  191.4310  172.5900  144.6380 C   0  0  0  0  0  2  0  0  0  0  0  0
  192.8010  174.3080  143.3840 C   0  0  0  0  0  0  0  0  0  0  0  0
  194.6240  175.8630  142.6640 C   0  0  1  0  0  3  0  0  0  0  0  0
  194.4490  176.3440  145.7670 C   0  0  1  0  0  3  0  0  0  0  0  0
  195.6730  175.7480  145.0300 C   0  0  2  0  0  3  0  0  0  0  0  0
  193.4410  173.2340  142.6000 C   0  0  0  0  0  0  0  0  0  0  0  0
  195.7940  176.2620  143.5850 C   0  0  0  0  0  2  0  0  0  0  0  0
  194.4820  173.4830  141.8140 C   0  0  0  0  0  3  0  0  0  0  0  0
  192.9220  171.8450  142.7460 C   0  0  0  0  0  2  0  0  0  0  0  0
  189.5220  174.6110  144.9550 O   0  0  0  0  0  0  0  0  0  0  0  0
  190.4450  174.8010  144.1140 C   0  0  0  0  0  0  0  0  0  0  0  0
  192.9580  176.6960  144.7470 S   0  0  0  0  0  0  0  0  0  0  0  0
  195.0230  174.8050  141.7270 N   0  0  0  0  0  0  0  0  0  0  0  0
  192.5430  171.6250  144.2070 C   0  0  0  0  0  2  0  0  0  0  0  0
  194.1060  175.6070  146.8880 F   0  0  0  0  0  0  0  0  0  0  0  0
  195.7210  174.2220  145.0940 C   0  0  0  0  0  3  0  0  0  0  0  0
  197.0530  173.7240  144.5660 C   0  0  0  0  0  2  0  0  0  0  0  0
  196.8100  173.7910  146.0580 C   0  0  0  0  0  2  0  0  0  0  0  0
  196.0560  175.0830  140.7410 C   0  0  0  0  0  2  0  0  0  0  0  0
  197.1660  174.0520  140.8390 C   0  0  0  0  0  1  0  0  0  0  0  0
  190.2610  175.8150  143.0170 C   0  0  2  0  0  3  0  0  0  0  0  0
  190.2280  178.1950  142.8500 O   0  0  0  0  0  0  0  0  0  0  0  0
  189.9270  177.1830  143.5330 C   0  0  0  0  0  0  0  0  0  0  0  0
  189.2850  177.3480  144.7950 N   0  0  0  0  0  1  0  0  0  0  0  0
  189.2380  175.3220  142.0040 C   0  0  0  0  0  2  0  0  0  0  0  0
  191.1310  174.3250  140.6950 F   0  0  0  0  0  0  0  0  0  0  0  0
  188.8810  173.6110  140.1270 C   0  0  0  0  0  2  0  0  0  0  0  0
  189.8270  174.2080  141.1420 C   0  0  2  0  0  0  0  0  0  0  0  0
  188.1910  172.6480  142.3080 C   0  0  0  0  0  1  0  0  0  0  0  0
  189.3380  172.7760  141.3180 C   0  0  1  0  0  3  0  0  0  0  0  0
  1  3  1  0  0  0  0
  2 14  1  0  0  0  0
  4  2  2  0  0  0  0
  4  1  1  0  0  0  0
  5  2  1  0  0  0  0
  5  9  1  1  0  0  0
  6 17  1  1  0  0  0
  7 18  1  6  0  0  0
  7  6  1  0  0  0  0
  8 11  1  0  0  0  0
  8  4  1  0  0  0  0
  9  7  1  0  0  0  0
 10  8  2  0  0  0  0
 11 16  1  0  0  0  0
 13  1  1  0  0  0  0
 13 12  2  0  0  0  0
 14  6  1  0  0  0  0
 15 10  1  0  0  0  0
 15  5  1  0  0  0  0
 16  3  1  0  0  0  0
 18 20  1  0  0  0  0
 19 18  1  0  0  0  0
 19 20  1  0  0  0  0
 21 22  1  0  0  0  0
 21 15  1  0  0  0  0
 23 27  1  6  0  0  0
 23 25  1  0  0  0  0
 23 13  1  0  0  0  0
 24 25  2  0  0  0  0
 25 26  1  0  0  0  0
 29 30  1  0  0  0  0
 29 32  1  0  0  0  0
 30 28  1  6  0  0  0
 30 32  1  0  0  0  0
 30 27  1  0  0  0  0
 32 31  1  1  0  0  0
M  END
>  <MODEL>
7

>  <REMARK>
 VINA RESULT:      -5.3      2.388      6.375
  Name = 
  6 active torsions:
  status: ('A' for Active; 'I' for Inactive)
    1  A    between atoms: C_9  and  C_12
    2  A    between atoms: C_13  and  N_29
    3  A    between atoms: C_15  and  C_20
    4  A    between atoms: C_16  and  C_20
    5  A    between atoms: C_16  and  C_22
    6  A    between atoms: C_16  and  C_27
                            x       y       z     vdW  Elec       q    Type
                         _______ _______ _______ _____ _____    ______ ____

>  <TORSDO>
F 6

$$$$
=
 OpenBabel11052419063D

 32 36  0  0  1  0  0  0  0  0999 V2000
  192.6200  175.3450  143.0650 N   0  0  0  0  0  0  0  0  0  0  0  0
  191.3240  173.3240  143.5690 C   0  0  0  0  0  0  0  0  0  0  0  0
  193.2950  176.0250  141.9460 C   0  0  0  0  0  2  0  0  0  0  0  0
  192.4090  173.9140  143.0230 C   0  0  0  0  0  0  0  0  0  0  0  0
  191.1160  171.8270  143.5080 C   0  0  1  0  0  3  0  0  0  0  0  0
  188.8950  173.8530  142.5840 C   0  0  1  0  0  3  0  0  0  0  0  0
  189.2830  172.5570  141.8300 C   0  0  2  0  0  3  0  0  0  0  0  0
  193.3740  173.1080  142.2510 C   0  0  0  0  0  0  0  0  0  0  0  0
  189.8100  171.4640  142.7760 C   0  0  0  0  0  2  0  0  0  0  0  0
  193.3000  171.7820  142.2290 C   0  0  0  0  0  3  0  0  0  0  0  0
  194.4100  173.8180  141.4510 C   0  0  0  0  0  2  0  0  0  0  0  0
  192.4880  177.3370  144.2820 O   0  0  0  0  0  0  0  0  0  0  0  0
  192.5350  176.0760  144.3040 C   0  0  0  0  0  0  0  0  0  0  0  0
  189.8880  174.2720  144.0760 S   0  0  0  0  0  0  0  0  0  0  0  0
  192.2610  171.1030  142.9420 N   0  0  0  0  0  0  0  0  0  0  0  0
  193.7790  175.0690  140.8480 C   0  0  0  0  0  2  0  0  0  0  0  0
  188.8100  174.9430  141.7360 F   0  0  0  0  0  0  0  0  0  0  0  0
  190.2430  172.8100  140.6680 C   0  0  0  0  0  3  0  0  0  0  0  0
  190.4190  171.5410  139.8560 C   0  0  0  0  0  2  0  0  0  0  0  0
  189.5040  172.6360  139.3550 C   0  0  0  0  0  2  0  0  0  0  0  0
  192.2980  169.6520  143.0330 C   0  0  0  0  0  2  0  0  0  0  0  0
  193.0200  169.2230  144.2970 C   0  0  0  0  0  1  0  0  0  0  0  0
  192.6250  175.3520  145.6200 C   0  0  2  0  0  3  0  0  0  0  0  0
  190.9140  176.8430  146.3560 O   0  0  0  0  0  0  0  0  0  0  0  0
  191.6520  175.8650  146.6400 C   0  0  0  0  0  0  0  0  0  0  0  0
  191.5660  175.2660  147.9300 N   0  0  0  0  0  1  0  0  0  0  0  0
  194.0560  175.3700  146.1390 C   0  0  0  0  0  2  0  0  0  0  0  0
  194.1690  172.9050  145.6900 F   0  0  0  0  0  0  0  0  0  0  0  0
  196.2640  174.0650  146.0890 C   0  0  0  0  0  2  0  0  0  0  0  0
  194.8130  174.1290  145.6730 C   0  0  2  0  0  0  0  0  0  0  0  0
  196.1910  175.7000  144.2220 C   0  0  0  0  0  1  0  0  0  0  0  0
  195.9060  174.2600  144.6190 C   0  0  1  0  0  3  0  0  0  0  0  0
  1 13  1  0  0  0  0
  2 14  1  0  0  0  0
  3  1  1  0  0  0  0
  4  1  1  0  0  0  0
  4  2  2  0  0  0  0
  5  9  1  6  0  0  0
  5  2  1  0  0  0  0
  6 17  1  6  0  0  0
  6 14  1  0  0  0  0
  7 18  1  6  0  0  0
  7  6  1  0  0  0  0
  7  9  1  0  0  0  0
  8  4  1  0  0  0  0
 10  8  2  0  0  0  0
 10 15  1  0  0  0  0
 11  8  1  0  0  0  0
 12 13  2  0  0  0  0
 13 23  1  0  0  0  0
 15 21  1  0  0  0  0
 15  5  1  0  0  0  0
 16 11  1  0  0  0  0
 16  3  1  0  0  0  0
 19 18  1  0  0  0  0
 20 19  1  0  0  0  0
 20 18  1  0  0  0  0
 21 22  1  0  0  0  0
 23 27  1  1  0  0  0
 23 25  1  0  0  0  0
 24 25  2  0  0  0  0
 25 26  1  0  0  0  0
 30 28  1  1  0  0  0
 30 29  1  0  0  0  0
 30 27  1  0  0  0  0
 32 31  1  1  0  0  0
 32 30  1  0  0  0  0
 32 29  1  0  0  0  0
M  END
>  <MODEL>
8

>  <REMARK>
 VINA RESULT:      -5.1      2.506      5.045
  Name = 
  6 active torsions:
  status: ('A' for Active; 'I' for Inactive)
    1  A    between atoms: C_9  and  C_12
    2  A    between atoms: C_13  and  N_29
    3  A    between atoms: C_15  and  C_20
    4  A    between atoms: C_16  and  C_20
    5  A    between atoms: C_16  and  C_22
    6  A    between atoms: C_16  and  C_27
                            x       y       z     vdW  Elec       q    Type
                         _______ _______ _______ _____ _____    ______ ____

>  <TORSDO>
F 6

$$$$
=
 OpenBabel11052419063D

 32 36  0  0  1  0  0  0  0  0999 V2000
  192.5720  174.2780  142.5020 N   0  0  0  0  0  0  0  0  0  0  0  0
  193.0510  172.5550  144.1810 C   0  0  0  0  0  0  0  0  0  0  0  0
  192.9590  174.6930  141.1430 C   0  0  0  0  0  2  0  0  0  0  0  0
  193.4800  173.4890  143.3060 C   0  0  0  0  0  0  0  0  0  0  0  0
  194.0160  171.7340  145.0080 C   0  0  1  0  0  3  0  0  0  0  0  0
  191.7510  170.3980  143.2820 C   0  0  1  0  0  3  0  0  0  0  0  0
  193.2110  169.8890  143.3770 C   0  0  2  0  0  3  0  0  0  0  0  0
  194.9250  173.6540  143.0570 C   0  0  0  0  0  0  0  0  0  0  0  0
  193.8620  170.2260  144.7300 C   0  0  0  0  0  2  0  0  0  0  0  0
  195.8280  173.0300  143.8040 C   0  0  0  0  0  3  0  0  0  0  0  0
  195.3530  174.5020  141.9090 C   0  0  0  0  0  2  0  0  0  0  0  0
  190.5620  175.4650  142.3630 O   0  0  0  0  0  0  0  0  0  0  0  0
  191.4680  174.9850  143.1000 C   0  0  0  0  0  0  0  0  0  0  0  0
  191.3590  171.9600  144.1730 S   0  0  0  0  0  0  0  0  0  0  0  0
  195.4140  172.1610  144.8640 N   0  0  0  0  0  0  0  0  0  0  0  0
  194.3830  174.2750  140.7550 C   0  0  0  0  0  2  0  0  0  0  0  0
  191.3060  170.4620  141.9730 F   0  0  0  0  0  0  0  0  0  0  0  0
  194.0770  170.3440  142.2030 C   0  0  0  0  0  3  0  0  0  0  0  0
  195.4160  169.6340  142.2420 C   0  0  0  0  0  2  0  0  0  0  0  0
  194.3410  169.1680  141.2840 C   0  0  0  0  0  2  0  0  0  0  0  0
  196.4180  171.6190  145.7660 C   0  0  0  0  0  2  0  0  0  0  0  0
  197.5600  171.0100  144.9750 C   0  0  0  0  0  1  0  0  0  0  0  0
  191.4520  175.2570  144.5800 C   0  0  2  0  0  3  0  0  0  0  0  0
  189.3270  174.6880  145.5040 O   0  0  0  0  0  0  0  0  0  0  0  0
  190.0880  175.6030  145.0990 C   0  0  0  0  0  0  0  0  0  0  0  0
  189.6410  176.9560  145.1240 N   0  0  0  0  0  1  0  0  0  0  0  0
  192.4840  176.3180  144.9350 C   0  0  0  0  0  2  0  0  0  0  0  0
  193.0120  174.7310  146.8040 F   0  0  0  0  0  0  0  0  0  0  0  0
  194.0720  176.9130  146.8590 C   0  0  0  0  0  2  0  0  0  0  0  0
  193.3990  175.8270  146.0550 C   0  0  2  0  0  0  0  0  0  0  0  0
  195.3190  176.8190  144.7140 C   0  0  0  0  0  1  0  0  0  0  0  0
  194.9050  176.0230  145.9420 C   0  0  1  0  0  3  0  0  0  0  0  0
  1 13  1  0  0  0  0
  1  4  1  0  0  0  0
  2  5  1  0  0  0  0
  3  1  1  0  0  0  0
  4  2  2  0  0  0  0
  5  9  1  6  0  0  0
  6 17  1  6  0  0  0
  6  7  1  0  0  0  0
  6 14  1  0  0  0  0
  7 18  1  6  0  0  0
  7  9  1  0  0  0  0
  8  4  1  0  0  0  0
  8 10  2  0  0  0  0
 10 15  1  0  0  0  0
 11  8  1  0  0  0  0
 12 13  2  0  0  0  0
 13 23  1  0  0  0  0
 14  2  1  0  0  0  0
 15  5  1  0  0  0  0
 15 21  1  0  0  0  0
 16  3  1  0  0  0  0
 16 11  1  0  0  0  0
 18 19  1  0  0  0  0
 20 18  1  0  0  0  0
 20 19  1  0  0  0  0
 22 21  1  0  0  0  0
 23 27  1  6  0  0  0
 23 25  1  0  0  0  0
 25 26  1  0  0  0  0
 25 24  2  0  0  0  0
 27 30  1  0  0  0  0
 30 28  1  1  0  0  0
 30 29  1  0  0  0  0
 32 31  1  6  0  0  0
 32 30  1  0  0  0  0
 32 29  1  0  0  0  0
M  END
>  <MODEL>
9

>  <REMARK>
 VINA RESULT:      -5.1      2.949      6.167
  Name = 
  6 active torsions:
  status: ('A' for Active; 'I' for Inactive)
    1  A    between atoms: C_9  and  C_12
    2  A    between atoms: C_13  and  N_29
    3  A    between atoms: C_15  and  C_20
    4  A    between atoms: C_16  and  C_20
    5  A    between atoms: C_16  and  C_22
    6  A    between atoms: C_16  and  C_27
                            x       y       z     vdW  Elec       q    Type
                         _______ _______ _______ _____ _____    ______ ____

>  <TORSDO>
F 6

$$$$
