=
 OpenBabel11052417463D

 31 36  0  0  1  0  0  0  0  0999 V2000
  189.5330  172.0830  142.3720 C   0  0  0  0  0  0  0  0  0  0  0  0
  190.2100  175.7000  143.1480 C   0  0  0  0  0  0  0  0  0  0  0  0
  191.4140  175.7130  143.9080 C   0  0  0  0  0  0  0  0  0  0  0  0
  192.1720  174.2680  145.7680 C   0  0  0  0  0  3  0  0  0  0  0  0
  189.5120  174.4400  142.7390 C   0  0  0  0  0  0  0  0  0  0  0  0
  188.2130  172.1130  141.9210 C   0  0  0  0  0  3  0  0  0  0  0  0
  192.1030  174.4390  144.2890 C   0  0  0  0  0  2  0  0  0  0  0  0
  188.3810  176.9510  141.8970 C   0  0  2  0  0  3  0  0  0  0  0  0
  190.2040  170.9080  142.4190 F   0  0  0  0  0  0  0  0  0  0  0  0
  191.4560  178.1390  143.7890 C   0  0  0  0  0  3  0  0  0  0  0  0
  192.8850  175.0760  146.5480 C   0  0  0  0  0  3  0  0  0  0  0  0
  187.4450  175.8000  142.2620 C   0  0  0  0  0  2  0  0  0  0  0  0
  189.6290  176.9330  142.7550 C   0  0  0  0  0  0  0  0  0  0  0  0
  190.1450  173.2320  142.7640 N   0  0  0  0  0  0  0  0  0  0  0  0
  193.6120  176.2680  146.0740 C   0  0  0  0  0  3  0  0  0  0  0  0
  188.1860  174.5030  142.2700 C   0  0  0  0  0  0  0  0  0  0  0  0
  187.5380  173.3320  141.8740 C   0  0  0  0  0  3  0  0  0  0  0  0
  190.2820  178.1330  143.0490 C   0  0  0  0  0  3  0  0  0  0  0  0
  192.0160  176.9480  144.2480 C   0  0  0  0  0  0  0  0  0  0  0  0
  193.2370  177.0730  145.0720 C   0  0  0  0  0  3  0  0  0  0  0  0
  187.6660  178.2150  142.0310 N   0  0  0  0  0  2  0  0  0  0  0  0
  185.1300  178.4240  146.5520 C   0  0  0  0  0  0  0  0  0  0  0  0
  187.0570  178.2840  145.0070 C   0  0  0  0  0  3  0  0  0  0  0  0
  184.0570  178.4470  142.9390 C   0  0  0  0  0  3  0  0  0  0  0  0
  185.0730  178.3710  141.8290 C   0  0  0  0  0  3  0  0  0  0  0  0
  184.7570  178.4640  147.7530 O   0  0  0  0  0  0  0  0  0  0  0  0
  186.3560  178.2960  142.6000 C   0  0  0  0  0  0  0  0  0  0  0  0
  186.5830  178.3300  146.2580 C   0  0  0  0  0  3  0  0  0  0  0  0
  184.6940  178.4200  144.1000 C   0  0  0  0  0  0  0  0  0  0  0  0
  186.1120  178.3280  143.8930 C   0  0  0  0  0  0  0  0  0  0  0  0
  184.0780  178.4740  145.4630 C   0  0  0  0  0  3  0  0  0  0  0  0
  1  9  1  0  0  0  0
  1 14  1  0  0  0  0
  2  3  1  0  0  0  0
  3 19  2  0  0  0  0
  3  7  1  0  0  0  0
  4 11  2  0  0  0  0
  5 14  2  0  0  0  0
  5  2  1  0  0  0  0
  6  1  2  0  0  0  0
  7  4  1  0  0  0  0
  8 21  1  1  0  0  0
  8 12  1  0  0  0  0
  8 13  1  0  0  0  0
 10 19  1  0  0  0  0
 12 16  1  0  0  0  0
 13 18  1  0  0  0  0
 13  2  2  0  0  0  0
 15 11  1  0  0  0  0
 16  5  1  0  0  0  0
 17  6  1  0  0  0  0
 17 16  2  0  0  0  0
 18 10  2  0  0  0  0
 19 20  1  0  0  0  0
 20 15  2  0  0  0  0
 21 27  1  0  0  0  0
 22 26  2  0  0  0  0
 23 28  2  0  0  0  0
 24 29  1  0  0  0  0
 25 27  1  0  0  0  0
 25 24  2  0  0  0  0
 27 30  2  0  0  0  0
 28 22  1  0  0  0  0
 29 31  2  0  0  0  0
 30 29  1  0  0  0  0
 30 23  1  0  0  0  0
 31 22  1  0  0  0  0
M  END
>  <MODEL>
1

>  <REMARK>
 VINA RESULT:      -9.3      0.000      0.000
  Name = 
  2 active torsions:
  status: ('A' for Active; 'I' for Inactive)
    1  A    between atoms: C_9  and  N_23
    2  A    between atoms: C_15  and  N_23
                            x       y       z     vdW  Elec       q    Type
                         _______ _______ _______ _____ _____    ______ ____

>  <TORSDO>
F 2

$$$$
=
 OpenBabel11052417463D

 31 36  0  0  1  0  0  0  0  0999 V2000
  188.2510  175.0500  140.7420 C   0  0  0  0  0  0  0  0  0  0  0  0
  188.0920  175.9970  144.3780 C   0  0  0  0  0  0  0  0  0  0  0  0
  186.9590  176.8510  144.5050 C   0  0  0  0  0  0  0  0  0  0  0  0
  186.1670  178.7160  143.0860 C   0  0  0  0  0  3  0  0  0  0  0  0
  188.5930  175.4920  143.0600 C   0  0  0  0  0  0  0  0  0  0  0  0
  189.5260  174.4970  140.6290 C   0  0  0  0  0  3  0  0  0  0  0  0
  186.1460  177.2420  143.3100 C   0  0  0  0  0  2  0  0  0  0  0  0
  189.9640  174.6470  145.4480 C   0  0  2  0  0  3  0  0  0  0  0  0
  187.4430  175.1120  139.6570 F   0  0  0  0  0  0  0  0  0  0  0  0
  187.2120  176.8160  146.9220 C   0  0  0  0  0  3  0  0  0  0  0  0
  185.6210  179.5770  143.9410 C   0  0  0  0  0  3  0  0  0  0  0  0
  190.7730  174.8980  144.1770 C   0  0  0  0  0  2  0  0  0  0  0  0
  188.7910  175.6000  145.5460 C   0  0  0  0  0  0  0  0  0  0  0  0
  187.8180  175.5270  141.9390 N   0  0  0  0  0  0  0  0  0  0  0  0
  185.0150  179.2020  145.2320 C   0  0  0  0  0  3  0  0  0  0  0  0
  189.8780  174.9220  142.9810 C   0  0  0  0  0  0  0  0  0  0  0  0
  190.3440  174.4380  141.7580 C   0  0  0  0  0  3  0  0  0  0  0  0
  188.3180  175.9840  146.8030 C   0  0  0  0  0  3  0  0  0  0  0  0
  186.5430  177.2780  145.7890 C   0  0  0  0  0  0  0  0  0  0  0  0
  185.4120  178.2000  146.0270 C   0  0  0  0  0  3  0  0  0  0  0  0
  190.8400  174.7660  146.6080 N   0  0  0  0  0  2  0  0  0  0  0  0
  195.6680  173.3170  145.3800 C   0  0  0  0  0  0  0  0  0  0  0  0
  193.2310  173.0990  145.7510 C   0  0  0  0  0  3  0  0  0  0  0  0
  194.1090  176.5560  146.5140 C   0  0  0  0  0  3  0  0  0  0  0  0
  192.6320  176.6480  146.7960 C   0  0  0  0  0  2  0  0  0  0  0  0
  196.7270  172.7310  145.0370 O   0  0  0  0  0  0  0  0  0  0  0  0
  192.1820  175.2470  146.5070 C   0  0  0  0  0  0  0  0  0  0  0  0
  194.3970  172.5460  145.3980 C   0  0  0  0  0  3  0  0  0  0  0  0
  194.3930  175.3180  146.1370 C   0  0  0  0  0  0  0  0  0  0  0  0
  193.2060  174.5100  146.1310 C   0  0  0  0  0  0  0  0  0  0  0  0
  195.7380  174.7820  145.7590 C   0  0  0  0  0  2  0  0  0  0  0  0
  1 14  1  0  0  0  0
  2  3  2  0  0  0  0
  2 13  1  0  0  0  0
  3 19  1  0  0  0  0
  4  7  1  0  0  0  0
  4 11  2  0  0  0  0
  5  2  1  0  0  0  0
  6  1  2  0  0  0  0
  6 17  1  0  0  0  0
  7  3  1  0  0  0  0
  8 13  1  0  0  0  0
  8 21  1  1  0  0  0
  9  1  1  0  0  0  0
 11 15  1  0  0  0  0
 12  8  1  0  0  0  0
 13 18  2  0  0  0  0
 14  5  2  0  0  0  0
 15 20  2  0  0  0  0
 16  5  1  0  0  0  0
 16 12  1  0  0  0  0
 17 16  2  0  0  0  0
 18 10  1  0  0  0  0
 19 20  1  0  0  0  0
 19 10  2  0  0  0  0
 22 28  1  0  0  0  0
 22 31  1  0  0  0  0
 23 30  1  0  0  0  0
 24 25  1  0  0  0  0
 26 22  2  0  0  0  0
 27 21  1  0  0  0  0
 27 25  1  0  0  0  0
 28 23  2  0  0  0  0
 29 24  2  0  0  0  0
 30 29  1  0  0  0  0
 30 27  2  0  0  0  0
 31 29  1  0  0  0  0
M  END
>  <MODEL>
2

>  <REMARK>
 VINA RESULT:      -9.1      3.247      7.378
  Name = 
  2 active torsions:
  status: ('A' for Active; 'I' for Inactive)
    1  A    between atoms: C_9  and  N_23
    2  A    between atoms: C_15  and  N_23
                            x       y       z     vdW  Elec       q    Type
                         _______ _______ _______ _____ _____    ______ ____

>  <TORSDO>
F 2

$$$$
=
 OpenBabel11052417463D

 31 36  0  0  1  0  0  0  0  0999 V2000
  190.4490  177.0400  147.6400 C   0  0  0  0  0  0  0  0  0  0  0  0
  187.9810  176.4870  144.8570 C   0  0  0  0  0  0  0  0  0  0  0  0
  186.9050  177.3840  145.1110 C   0  0  0  0  0  0  0  0  0  0  0  0
  185.7310  177.9530  147.2140 C   0  0  0  0  0  3  0  0  0  0  0  0
  189.1260  176.2920  145.8020 C   0  0  0  0  0  0  0  0  0  0  0  0
  191.2960  175.9390  147.5160 C   0  0  0  0  0  3  0  0  0  0  0  0
  186.8940  178.2550  146.3300 C   0  0  0  0  0  2  0  0  0  0  0  0
  189.1390  174.8120  143.3310 C   0  0  2  0  0  3  0  0  0  0  0  0
  190.6740  177.9600  148.6080 F   0  0  0  0  0  0  0  0  0  0  0  0
  185.9260  176.8100  142.9630 C   0  0  0  0  0  3  0  0  0  0  0  0
  184.4740  178.1810  146.8420 C   0  0  0  0  0  3  0  0  0  0  0  0
  189.6920  174.1530  144.5940 C   0  0  0  0  0  2  0  0  0  0  0  0
  187.9800  175.7310  143.6570 C   0  0  0  0  0  0  0  0  0  0  0  0
  189.3980  177.1910  146.7900 N   0  0  0  0  0  0  0  0  0  0  0  0
  184.0710  178.6660  145.5090 C   0  0  0  0  0  3  0  0  0  0  0  0
  189.9760  175.1810  145.6400 C   0  0  0  0  0  0  0  0  0  0  0  0
  191.0520  175.0030  146.5100 C   0  0  0  0  0  3  0  0  0  0  0  0
  186.9720  175.9330  142.7100 C   0  0  0  0  0  3  0  0  0  0  0  0
  185.8630  177.5170  144.1620 C   0  0  0  0  0  0  0  0  0  0  0  0
  184.6790  178.3830  144.3510 C   0  0  0  0  0  3  0  0  0  0  0  0
  188.7430  173.7780  142.3820 N   0  0  0  0  0  2  0  0  0  0  0  0
  189.1810  174.0080  137.2180 C   0  0  0  0  0  0  0  0  0  0  0  0
  188.1910  174.3790  139.4550 C   0  0  0  0  0  3  0  0  0  0  0  0
  191.2780  172.5030  139.9640 C   0  0  0  0  0  3  0  0  0  0  0  0
  190.8600  172.6140  141.4070 C   0  0  0  0  0  2  0  0  0  0  0  0
  189.0610  174.1990  135.9800 O   0  0  0  0  0  0  0  0  0  0  0  0
  189.5770  173.3800  141.2910 C   0  0  0  0  0  0  0  0  0  0  0  0
  188.1340  174.5410  138.1280 C   0  0  0  0  0  3  0  0  0  0  0  0
  190.3730  173.1100  139.2110 C   0  0  0  0  0  0  0  0  0  0  0  0
  189.3230  173.6520  140.0280 C   0  0  0  0  0  0  0  0  0  0  0  0
  190.3880  173.2430  137.7210 C   0  0  0  0  0  2  0  0  0  0  0  0
  1  9  1  0  0  0  0
  2  3  1  0  0  0  0
  2  5  1  0  0  0  0
  3  7  1  0  0  0  0
  5 14  1  0  0  0  0
  6  1  1  0  0  0  0
  7  4  1  0  0  0  0
  8 21  1  6  0  0  0
  8 13  1  0  0  0  0
  8 12  1  0  0  0  0
 10 19  1  0  0  0  0
 11  4  2  0  0  0  0
 12 16  1  0  0  0  0
 13  2  2  0  0  0  0
 14  1  2  0  0  0  0
 15 11  1  0  0  0  0
 16  5  2  0  0  0  0
 16 17  1  0  0  0  0
 17  6  2  0  0  0  0
 18 10  2  0  0  0  0
 18 13  1  0  0  0  0
 19 20  1  0  0  0  0
 19  3  2  0  0  0  0
 20 15  2  0  0  0  0
 22 31  1  0  0  0  0
 22 28  1  0  0  0  0
 23 30  1  0  0  0  0
 24 25  1  0  0  0  0
 26 22  2  0  0  0  0
 27 25  1  0  0  0  0
 27 21  1  0  0  0  0
 28 23  2  0  0  0  0
 29 24  2  0  0  0  0
 29 30  1  0  0  0  0
 30 27  2  0  0  0  0
 31 29  1  0  0  0  0
M  END
>  <MODEL>
3

>  <REMARK>
 VINA RESULT:      -9.1      3.793      7.412
  Name = 
  2 active torsions:
  status: ('A' for Active; 'I' for Inactive)
    1  A    between atoms: C_9  and  N_23
    2  A    between atoms: C_15  and  N_23
                            x       y       z     vdW  Elec       q    Type
                         _______ _______ _______ _____ _____    ______ ____

>  <TORSDO>
F 2

$$$$
=
 OpenBabel11052417463D

 31 36  0  0  1  0  0  0  0  0999 V2000
  183.7220  178.1480  141.6550 C   0  0  0  0  0  0  0  0  0  0  0  0
  186.5480  176.9390  143.8220 C   0  0  0  0  0  0  0  0  0  0  0  0
  186.1340  177.1740  145.1640 C   0  0  0  0  0  0  0  0  0  0  0  0
  185.0200  179.1270  146.1970 C   0  0  0  0  0  3  0  0  0  0  0  0
  185.7640  177.3940  142.6300 C   0  0  0  0  0  0  0  0  0  0  0  0
  184.3070  178.1870  140.3900 C   0  0  0  0  0  3  0  0  0  0  0  0
  184.8270  177.8430  145.4650 C   0  0  0  0  0  2  0  0  0  0  0  0
  188.2000  175.9270  142.1720 C   0  0  2  0  0  3  0  0  0  0  0  0
  182.4230  178.5000  141.8110 F   0  0  0  0  0  0  0  0  0  0  0  0
  188.0810  175.9650  145.9710 C   0  0  0  0  0  3  0  0  0  0  0  0
  185.5160  179.1790  147.4310 C   0  0  0  0  0  3  0  0  0  0  0  0
  187.8190  177.0540  141.2120 C   0  0  0  0  0  2  0  0  0  0  0  0
  187.7610  176.2430  143.5860 C   0  0  0  0  0  0  0  0  0  0  0  0
  184.4530  177.7560  142.7320 N   0  0  0  0  0  0  0  0  0  0  0  0
  186.0090  178.0110  148.1830 C   0  0  0  0  0  3  0  0  0  0  0  0
  186.3750  177.4060  141.3610 C   0  0  0  0  0  0  0  0  0  0  0  0
  185.6440  177.8170  140.2470 C   0  0  0  0  0  3  0  0  0  0  0  0
  188.4900  175.7340  144.6640 C   0  0  0  0  0  3  0  0  0  0  0  0
  186.9290  176.7030  146.2360 C   0  0  0  0  0  0  0  0  0  0  0  0
  186.6130  176.9360  147.6620 C   0  0  0  0  0  3  0  0  0  0  0  0
  189.6380  175.6990  142.1020 N   0  0  0  0  0  2  0  0  0  0  0  0
  192.9960  172.4770  144.3950 C   0  0  0  0  0  0  0  0  0  0  0  0
  191.7030  174.5520  144.0130 C   0  0  0  0  0  3  0  0  0  0  0  0
  190.7430  172.2110  141.3850 C   0  0  0  0  0  3  0  0  0  0  0  0
  189.8640  173.3630  140.9710 C   0  0  0  0  0  3  0  0  0  0  0  0
  193.8450  171.8960  145.1190 O   0  0  0  0  0  0  0  0  0  0  0  0
  190.2020  174.3880  142.0110 C   0  0  0  0  0  0  0  0  0  0  0  0
  192.5990  173.8680  144.7340 C   0  0  0  0  0  3  0  0  0  0  0  0
  191.4280  172.5650  142.4620 C   0  0  0  0  0  0  0  0  0  0  0  0
  191.0940  173.9070  142.8500 C   0  0  0  0  0  0  0  0  0  0  0  0
  192.4190  171.7300  143.2100 C   0  0  0  0  0  3  0  0  0  0  0  0
  1  9  1  0  0  0  0
  1 14  1  0  0  0  0
  2  3  1  0  0  0  0
  3  7  1  0  0  0  0
  3 19  2  0  0  0  0
  4 11  2  0  0  0  0
  5 14  2  0  0  0  0
  5  2  1  0  0  0  0
  6  1  2  0  0  0  0
  7  4  1  0  0  0  0
  8 21  1  1  0  0  0
  8 13  1  0  0  0  0
 10 19  1  0  0  0  0
 11 15  1  0  0  0  0
 12 16  1  0  0  0  0
 12  8  1  0  0  0  0
 13  2  2  0  0  0  0
 13 18  1  0  0  0  0
 16  5  1  0  0  0  0
 17  6  1  0  0  0  0
 17 16  2  0  0  0  0
 18 10  2  0  0  0  0
 19 20  1  0  0  0  0
 20 15  2  0  0  0  0
 22 28  1  0  0  0  0
 22 26  2  0  0  0  0
 23 28  2  0  0  0  0
 24 29  1  0  0  0  0
 25 24  2  0  0  0  0
 25 27  1  0  0  0  0
 27 21  1  0  0  0  0
 27 30  2  0  0  0  0
 29 30  1  0  0  0  0
 29 31  2  0  0  0  0
 30 23  1  0  0  0  0
 31 22  1  0  0  0  0
M  END
>  <MODEL>
4

>  <REMARK>
 VINA RESULT:      -9.0      3.426      7.090
  Name = 
  2 active torsions:
  status: ('A' for Active; 'I' for Inactive)
    1  A    between atoms: C_9  and  N_23
    2  A    between atoms: C_15  and  N_23
                            x       y       z     vdW  Elec       q    Type
                         _______ _______ _______ _____ _____    ______ ____

>  <TORSDO>
F 2

$$$$
=
 OpenBabel11052417463D

 31 36  0  0  1  0  0  0  0  0999 V2000
  183.6590  178.2470  141.7000 C   0  0  0  0  0  0  0  0  0  0  0  0
  186.5270  177.0220  143.8000 C   0  0  0  0  0  0  0  0  0  0  0  0
  186.1430  177.2540  145.1520 C   0  0  0  0  0  0  0  0  0  0  0  0
  185.0570  179.2060  146.2160 C   0  0  0  0  0  3  0  0  0  0  0  0
  185.7190  177.4840  142.6280 C   0  0  0  0  0  0  0  0  0  0  0  0
  184.2160  178.2900  140.4230 C   0  0  0  0  0  3  0  0  0  0  0  0
  184.8450  177.9250  145.4840 C   0  0  0  0  0  2  0  0  0  0  0  0
  188.1400  176.0120  142.1110 C   0  0  2  0  0  3  0  0  0  0  0  0
  182.3650  178.6020  141.8850 F   0  0  0  0  0  0  0  0  0  0  0  0
  188.1040  176.0370  145.9120 C   0  0  0  0  0  3  0  0  0  0  0  0
  185.5800  179.2520  147.4390 C   0  0  0  0  0  3  0  0  0  0  0  0
  187.7420  177.1430  141.1640 C   0  0  0  0  0  2  0  0  0  0  0  0
  187.7330  176.3240  143.5360 C   0  0  0  0  0  0  0  0  0  0  0  0
  184.4110  177.8490  142.7600 N   0  0  0  0  0  0  0  0  0  0  0  0
  186.0860  178.0790  148.1770 C   0  0  0  0  0  3  0  0  0  0  0  0
  186.3030  177.4990  141.3460 C   0  0  0  0  0  0  0  0  0  0  0  0
  185.5480  177.9160  140.2490 C   0  0  0  0  0  3  0  0  0  0  0  0
  188.4840  175.8090  144.5960 C   0  0  0  0  0  3  0  0  0  0  0  0
  186.9600  176.7770  146.2060 C   0  0  0  0  0  0  0  0  0  0  0  0
  186.6760  177.0050  147.6390 C   0  0  0  0  0  3  0  0  0  0  0  0
  189.5760  175.7810  142.0100 N   0  0  0  0  0  2  0  0  0  0  0  0
  189.5120  171.5440  139.0160 C   0  0  0  0  0  0  0  0  0  0  0  0
  188.9220  173.8220  139.7810 C   0  0  0  0  0  3  0  0  0  0  0  0
  191.3430  172.5010  142.1680 C   0  0  0  0  0  3  0  0  0  0  0  0
  191.1330  173.8500  142.8070 C   0  0  0  0  0  2  0  0  0  0  0  0
  189.3230  170.6550  138.1460 O   0  0  0  0  0  0  0  0  0  0  0  0
  190.1330  174.4700  141.8790 C   0  0  0  0  0  0  0  0  0  0  0  0
  188.7750  172.8290  138.8960 C   0  0  0  0  0  3  0  0  0  0  0  0
  190.5850  172.4220  141.0840 C   0  0  0  0  0  0  0  0  0  0  0  0
  189.8390  173.6360  140.9040 C   0  0  0  0  0  0  0  0  0  0  0  0
  190.4810  171.2620  140.1450 C   0  0  0  0  0  2  0  0  0  0  0  0
  1  9  1  0  0  0  0
  1 14  1  0  0  0  0
  2  3  1  0  0  0  0
  3  7  1  0  0  0  0
  3 19  2  0  0  0  0
  4 11  2  0  0  0  0
  5 14  2  0  0  0  0
  5  2  1  0  0  0  0
  6  1  2  0  0  0  0
  7  4  1  0  0  0  0
  8 21  1  1  0  0  0
  8 13  1  0  0  0  0
 10 19  1  0  0  0  0
 11 15  1  0  0  0  0
 12 16  1  0  0  0  0
 12  8  1  0  0  0  0
 13  2  2  0  0  0  0
 13 18  1  0  0  0  0
 16  5  1  0  0  0  0
 17  6  1  0  0  0  0
 17 16  2  0  0  0  0
 18 10  2  0  0  0  0
 19 20  1  0  0  0  0
 20 15  2  0  0  0  0
 22 31  1  0  0  0  0
 23 30  1  0  0  0  0
 24 25  1  0  0  0  0
 26 22  2  0  0  0  0
 27 21  1  0  0  0  0
 27 25  1  0  0  0  0
 28 22  1  0  0  0  0
 28 23  2  0  0  0  0
 29 24  2  0  0  0  0
 30 29  1  0  0  0  0
 30 27  2  0  0  0  0
 31 29  1  0  0  0  0
M  END
>  <MODEL>
5

>  <REMARK>
 VINA RESULT:      -9.0      3.896      7.367
  Name = 
  2 active torsions:
  status: ('A' for Active; 'I' for Inactive)
    1  A    between atoms: C_9  and  N_23
    2  A    between atoms: C_15  and  N_23
                            x       y       z     vdW  Elec       q    Type
                         _______ _______ _______ _____ _____    ______ ____

>  <TORSDO>
F 2

$$$$
=
 OpenBabel11052417463D

 31 36  0  0  1  0  0  0  0  0999 V2000
  190.5010  176.9350  147.4790 C   0  0  0  0  0  0  0  0  0  0  0  0
  187.8630  176.4740  144.8390 C   0  0  0  0  0  0  0  0  0  0  0  0
  186.8320  177.4020  145.1570 C   0  0  0  0  0  0  0  0  0  0  0  0
  185.7970  177.9960  147.3250 C   0  0  0  0  0  3  0  0  0  0  0  0
  189.0540  176.2390  145.7160 C   0  0  0  0  0  0  0  0  0  0  0  0
  191.3050  175.8090  147.3030 C   0  0  0  0  0  3  0  0  0  0  0  0
  186.9160  178.2660  146.3780 C   0  0  0  0  0  2  0  0  0  0  0  0
  188.8800  174.7720  143.2430 C   0  0  2  0  0  3  0  0  0  0  0  0
  190.8090  177.8420  148.4370 F   0  0  0  0  0  0  0  0  0  0  0  0
  185.7150  176.8710  143.0650 C   0  0  0  0  0  3  0  0  0  0  0  0
  184.5280  178.2640  147.0260 C   0  0  0  0  0  3  0  0  0  0  0  0
  189.4830  174.0900  144.4700 C   0  0  0  0  0  2  0  0  0  0  0  0
  187.7710  175.7250  143.6380 C   0  0  0  0  0  0  0  0  0  0  0  0
  189.4090  177.1230  146.6910 N   0  0  0  0  0  0  0  0  0  0  0  0
  184.0650  178.7680  145.7200 C   0  0  0  0  0  3  0  0  0  0  0  0
  189.8580  175.1030  145.5030 C   0  0  0  0  0  0  0  0  0  0  0  0
  190.9760  174.8880  146.3100 C   0  0  0  0  0  3  0  0  0  0  0  0
  186.7180  175.9630  142.7500 C   0  0  0  0  0  3  0  0  0  0  0  0
  185.7420  177.5720  144.2690 C   0  0  0  0  0  0  0  0  0  0  0  0
  184.5990  178.4730  144.5290 C   0  0  0  0  0  3  0  0  0  0  0  0
  188.3990  173.7570  142.3140 N   0  0  0  0  0  2  0  0  0  0  0  0
  191.5630  170.0480  140.5390 C   0  0  0  0  0  0  0  0  0  0  0  0
  190.1120  171.2530  142.1410 C   0  0  0  0  0  3  0  0  0  0  0  0
  190.1240  173.2000  139.0560 C   0  0  0  0  0  3  0  0  0  0  0  0
  189.2090  174.0860  139.8600 C   0  0  0  0  0  2  0  0  0  0  0  0
  192.2970  169.0440  140.3490 O   0  0  0  0  0  0  0  0  0  0  0  0
  189.1490  173.3530  141.1660 C   0  0  0  0  0  0  0  0  0  0  0  0
  190.9060  170.2130  141.8620 C   0  0  0  0  0  3  0  0  0  0  0  0
  190.4850  172.1700  139.8070 C   0  0  0  0  0  0  0  0  0  0  0  0
  189.8840  172.2620  141.1080 C   0  0  0  0  0  0  0  0  0  0  0  0
  191.3860  171.0430  139.4110 C   0  0  0  0  0  2  0  0  0  0  0  0
  1  9  1  0  0  0  0
  2  3  1  0  0  0  0
  2  5  1  0  0  0  0
  3  7  1  0  0  0  0
  5 14  1  0  0  0  0
  6  1  1  0  0  0  0
  7  4  1  0  0  0  0
  8 21  1  6  0  0  0
  8 13  1  0  0  0  0
  8 12  1  0  0  0  0
 10 19  1  0  0  0  0
 11  4  2  0  0  0  0
 12 16  1  0  0  0  0
 13  2  2  0  0  0  0
 14  1  2  0  0  0  0
 15 11  1  0  0  0  0
 16  5  2  0  0  0  0
 16 17  1  0  0  0  0
 17  6  2  0  0  0  0
 18 10  2  0  0  0  0
 18 13  1  0  0  0  0
 19 20  1  0  0  0  0
 19  3  2  0  0  0  0
 20 15  2  0  0  0  0
 22 28  1  0  0  0  0
 24 29  2  0  0  0  0
 24 25  1  0  0  0  0
 25 27  1  0  0  0  0
 26 22  2  0  0  0  0
 27 21  1  0  0  0  0
 28 23  2  0  0  0  0
 29 30  1  0  0  0  0
 30 27  2  0  0  0  0
 30 23  1  0  0  0  0
 31 29  1  0  0  0  0
 31 22  1  0  0  0  0
M  END
>  <MODEL>
6

>  <REMARK>
 VINA RESULT:      -8.9      3.701      7.566
  Name = 
  2 active torsions:
  status: ('A' for Active; 'I' for Inactive)
    1  A    between atoms: C_9  and  N_23
    2  A    between atoms: C_15  and  N_23
                            x       y       z     vdW  Elec       q    Type
                         _______ _______ _______ _____ _____    ______ ____

>  <TORSDO>
F 2

$$$$
=
 OpenBabel11052417463D

 31 36  0  0  1  0  0  0  0  0999 V2000
  184.1780  177.9160  141.5940 C   0  0  0  0  0  0  0  0  0  0  0  0
  186.9190  177.2100  144.0700 C   0  0  0  0  0  0  0  0  0  0  0  0
  186.2890  177.1830  145.3470 C   0  0  0  0  0  0  0  0  0  0  0  0
  184.5790  178.6690  146.3430 C   0  0  0  0  0  3  0  0  0  0  0  0
  186.2030  177.5880  142.8100 C   0  0  0  0  0  0  0  0  0  0  0  0
  184.8890  178.2420  140.4400 C   0  0  0  0  0  3  0  0  0  0  0  0
  184.8260  177.4680  145.4940 C   0  0  0  0  0  2  0  0  0  0  0  0
  188.9760  176.8330  142.6200 C   0  0  2  0  0  3  0  0  0  0  0  0
  182.8230  177.9160  141.5760 F   0  0  0  0  0  0  0  0  0  0  0  0
  188.3640  176.4120  146.3480 C   0  0  0  0  0  3  0  0  0  0  0  0
  184.8820  178.7030  147.6380 C   0  0  0  0  0  3  0  0  0  0  0  0
  188.4400  177.9310  141.7020 C   0  0  0  0  0  2  0  0  0  0  0  0
  188.2920  176.8690  143.9710 C   0  0  0  0  0  0  0  0  0  0  0  0
  184.8410  177.5990  142.7380 N   0  0  0  0  0  0  0  0  0  0  0  0
  185.5630  177.6160  148.3660 C   0  0  0  0  0  3  0  0  0  0  0  0
  186.9480  177.8940  141.6550 C   0  0  0  0  0  0  0  0  0  0  0  0
  186.2830  178.2340  140.4760 C   0  0  0  0  0  3  0  0  0  0  0  0
  188.9840  176.4380  145.1060 C   0  0  0  0  0  3  0  0  0  0  0  0
  187.0350  176.8060  146.4890 C   0  0  0  0  0  0  0  0  0  0  0  0
  186.4890  176.7910  147.8640 C   0  0  0  0  0  3  0  0  0  0  0  0
  190.4200  176.9780  142.7540 N   0  0  0  0  0  2  0  0  0  0  0  0
  194.5030  175.1350  145.3720 C   0  0  0  0  0  0  0  0  0  0  0  0
  192.7230  176.7260  144.7200 C   0  0  0  0  0  3  0  0  0  0  0  0
  192.3680  173.8050  142.5650 C   0  0  0  0  0  3  0  0  0  0  0  0
  191.2230  174.6130  142.0130 C   0  0  0  0  0  3  0  0  0  0  0  0
  195.4760  174.9160  146.1380 O   0  0  0  0  0  0  0  0  0  0  0  0
  191.2970  175.8530  142.8510 C   0  0  0  0  0  0  0  0  0  0  0  0
  193.7690  176.4210  145.4970 C   0  0  0  0  0  3  0  0  0  0  0  0
  192.9490  174.4970  143.5330 C   0  0  0  0  0  0  0  0  0  0  0  0
  192.2890  175.7610  143.7120 C   0  0  0  0  0  0  0  0  0  0  0  0
  194.1250  174.0760  144.3560 C   0  0  0  0  0  3  0  0  0  0  0  0
  1 14  1  0  0  0  0
  2  3  1  0  0  0  0
  3  7  1  0  0  0  0
  3 19  2  0  0  0  0
  4 11  2  0  0  0  0
  5  2  1  0  0  0  0
  6 17  1  0  0  0  0
  6  1  2  0  0  0  0
  7  4  1  0  0  0  0
  8 21  1  1  0  0  0
  8 13  1  0  0  0  0
  9  1  1  0  0  0  0
 10 19  1  0  0  0  0
 11 15  1  0  0  0  0
 12  8  1  0  0  0  0
 13  2  2  0  0  0  0
 13 18  1  0  0  0  0
 14  5  2  0  0  0  0
 16 12  1  0  0  0  0
 16  5  1  0  0  0  0
 17 16  2  0  0  0  0
 18 10  2  0  0  0  0
 19 20  1  0  0  0  0
 20 15  2  0  0  0  0
 21 27  1  0  0  0  0
 22 28  1  0  0  0  0
 22 26  2  0  0  0  0
 23 28  2  0  0  0  0
 24 29  1  0  0  0  0
 25 24  2  0  0  0  0
 25 27  1  0  0  0  0
 27 30  2  0  0  0  0
 29 30  1  0  0  0  0
 29 31  2  0  0  0  0
 30 23  1  0  0  0  0
 31 22  1  0  0  0  0
M  END
>  <MODEL>
7

>  <REMARK>
 VINA RESULT:      -8.8      3.350      7.043
  Name = 
  2 active torsions:
  status: ('A' for Active; 'I' for Inactive)
    1  A    between atoms: C_9  and  N_23
    2  A    between atoms: C_15  and  N_23
                            x       y       z     vdW  Elec       q    Type
                         _______ _______ _______ _____ _____    ______ ____

>  <TORSDO>
F 2

$$$$
=
 OpenBabel11052417463D

 31 36  0  0  1  0  0  0  0  0999 V2000
  190.2780  172.2520  140.9140 C   0  0  0  0  0  0  0  0  0  0  0  0
  191.5990  174.6230  143.5170 C   0  0  0  0  0  0  0  0  0  0  0  0
  192.8390  174.0710  143.9480 C   0  0  0  0  0  0  0  0  0  0  0  0
  193.4760  171.7420  144.4890 C   0  0  0  0  0  3  0  0  0  0  0  0
  190.6750  173.9210  142.5700 C   0  0  0  0  0  0  0  0  0  0  0  0
  188.9540  172.6650  140.7730 C   0  0  0  0  0  3  0  0  0  0  0  0
  193.3330  172.7620  143.4120 C   0  0  0  0  0  2  0  0  0  0  0  0
  189.9190  176.5340  143.5190 C   0  0  2  0  0  3  0  0  0  0  0  0
  190.7480  171.2220  140.1700 F   0  0  0  0  0  0  0  0  0  0  0  0
  193.2750  176.0790  145.2460 C   0  0  0  0  0  3  0  0  0  0  0  0
  194.3670  171.8600  145.4710 C   0  0  0  0  0  3  0  0  0  0  0  0
  188.8330  175.4830  143.2920 C   0  0  0  0  0  2  0  0  0  0  0  0
  191.2040  175.8950  144.0030 C   0  0  0  0  0  0  0  0  0  0  0  0
  191.0990  172.8820  141.7960 N   0  0  0  0  0  0  0  0  0  0  0  0
  195.2470  173.0280  145.6660 C   0  0  0  0  0  3  0  0  0  0  0  0
  189.3480  174.3720  142.4350 C   0  0  0  0  0  0  0  0  0  0  0  0
  188.4880  173.7300  141.5440 C   0  0  0  0  0  3  0  0  0  0  0  0
  192.0660  176.6210  144.8300 C   0  0  0  0  0  3  0  0  0  0  0  0
  193.6600  174.8020  144.8400 C   0  0  0  0  0  0  0  0  0  0  0  0
  194.9400  174.3000  145.3840 C   0  0  0  0  0  3  0  0  0  0  0  0
  189.4350  177.5310  144.4660 N   0  0  0  0  0  2  0  0  0  0  0  0
  184.4520  178.6010  145.4380 C   0  0  0  0  0  0  0  0  0  0  0  0
  186.6270  178.6740  144.2600 C   0  0  0  0  0  3  0  0  0  0  0  0
  187.0580  176.4730  147.1360 C   0  0  0  0  0  3  0  0  0  0  0  0
  188.4550  176.3710  146.5830 C   0  0  0  0  0  2  0  0  0  0  0  0
  183.2620  179.0080  145.4550 O   0  0  0  0  0  0  0  0  0  0  0  0
  188.3700  177.2630  145.3820 C   0  0  0  0  0  0  0  0  0  0  0  0
  185.3490  179.0620  144.3460 C   0  0  0  0  0  3  0  0  0  0  0  0
  186.3510  177.2780  146.3580 C   0  0  0  0  0  0  0  0  0  0  0  0
  187.1580  177.7660  145.2750 C   0  0  0  0  0  0  0  0  0  0  0  0
  184.9150  177.6610  146.5320 C   0  0  0  0  0  2  0  0  0  0  0  0
  1 14  1  0  0  0  0
  2  3  2  0  0  0  0
  2 13  1  0  0  0  0
  3 19  1  0  0  0  0
  4 11  2  0  0  0  0
  5  2  1  0  0  0  0
  6  1  2  0  0  0  0
  6 17  1  0  0  0  0
  7  3  1  0  0  0  0
  7  4  1  0  0  0  0
  8 13  1  0  0  0  0
  8 21  1  1  0  0  0
  9  1  1  0  0  0  0
 11 15  1  0  0  0  0
 12  8  1  0  0  0  0
 13 18  2  0  0  0  0
 14  5  2  0  0  0  0
 16  5  1  0  0  0  0
 16 12  1  0  0  0  0
 17 16  2  0  0  0  0
 18 10  1  0  0  0  0
 19 10  2  0  0  0  0
 19 20  1  0  0  0  0
 20 15  2  0  0  0  0
 21 27  1  0  0  0  0
 22 26  2  0  0  0  0
 22 31  1  0  0  0  0
 23 28  2  0  0  0  0
 23 30  1  0  0  0  0
 25 24  1  0  0  0  0
 27 25  1  0  0  0  0
 28 22  1  0  0  0  0
 29 31  1  0  0  0  0
 29 24  2  0  0  0  0
 30 27  2  0  0  0  0
 30 29  1  0  0  0  0
M  END
>  <MODEL>
8

>  <REMARK>
 VINA RESULT:      -8.5      1.808      2.773
  Name = 
  2 active torsions:
  status: ('A' for Active; 'I' for Inactive)
    1  A    between atoms: C_9  and  N_23
    2  A    between atoms: C_15  and  N_23
                            x       y       z     vdW  Elec       q    Type
                         _______ _______ _______ _____ _____    ______ ____

>  <TORSDO>
F 2

$$$$
=
 OpenBabel11052417463D

 31 36  0  0  1  0  0  0  0  0999 V2000
  184.6820  177.9010  141.3900 C   0  0  0  0  0  0  0  0  0  0  0  0
  187.0730  176.7670  144.0610 C   0  0  0  0  0  0  0  0  0  0  0  0
  186.4290  177.0450  145.3000 C   0  0  0  0  0  0  0  0  0  0  0  0
  185.1580  179.0290  146.0560 C   0  0  0  0  0  3  0  0  0  0  0  0
  186.5150  177.1830  142.7350 C   0  0  0  0  0  0  0  0  0  0  0  0
  185.4820  177.9010  140.2480 C   0  0  0  0  0  3  0  0  0  0  0  0
  185.0930  177.7210  145.3430 C   0  0  0  0  0  2  0  0  0  0  0  0
  188.9870  175.7050  142.7630 C   0  0  2  0  0  3  0  0  0  0  0  0
  183.3780  178.2570  141.3010 F   0  0  0  0  0  0  0  0  0  0  0  0
  188.1970  175.8660  146.4780 C   0  0  0  0  0  3  0  0  0  0  0  0
  185.4280  179.1210  147.3560 C   0  0  0  0  0  3  0  0  0  0  0  0
  188.7880  176.7990  141.7160 C   0  0  0  0  0  2  0  0  0  0  0  0
  188.3060  176.0660  144.0670 C   0  0  0  0  0  0  0  0  0  0  0  0
  185.2080  177.5450  142.5920 N   0  0  0  0  0  0  0  0  0  0  0  0
  185.7740  177.9780  148.2210 C   0  0  0  0  0  3  0  0  0  0  0  0
  187.3420  177.1540  141.5950 C   0  0  0  0  0  0  0  0  0  0  0  0
  186.8210  177.5280  140.3560 C   0  0  0  0  0  3  0  0  0  0  0  0
  188.8300  175.5920  145.2730 C   0  0  0  0  0  3  0  0  0  0  0  0
  187.0190  176.6100  146.5110 C   0  0  0  0  0  0  0  0  0  0  0  0
  186.4570  176.8880  147.8500 C   0  0  0  0  0  3  0  0  0  0  0  0
  190.4140  175.4770  142.9570 N   0  0  0  0  0  2  0  0  0  0  0  0
  195.1810  175.3220  140.9140 C   0  0  0  0  0  0  0  0  0  0  0  0
  193.3300  176.0930  142.3640 C   0  0  0  0  0  3  0  0  0  0  0  0
  192.0170  173.3560  140.3430 C   0  0  0  0  0  3  0  0  0  0  0  0
  190.7650  173.6590  141.1240 C   0  0  0  0  0  2  0  0  0  0  0  0
  196.3850  175.4830  140.5870 O   0  0  0  0  0  0  0  0  0  0  0  0
  191.2180  174.7930  141.9920 C   0  0  0  0  0  0  0  0  0  0  0  0
  194.6010  176.2020  141.9620 C   0  0  0  0  0  3  0  0  0  0  0  0
  192.9720  174.1860  140.7330 C   0  0  0  0  0  0  0  0  0  0  0  0
  192.4820  175.0730  141.7510 C   0  0  0  0  0  0  0  0  0  0  0  0
  194.3780  174.2390  140.2230 C   0  0  0  0  0  2  0  0  0  0  0  0
  1 14  1  0  0  0  0
  2 13  2  0  0  0  0
  2  3  1  0  0  0  0
  3  7  1  0  0  0  0
  3 19  2  0  0  0  0
  4 11  2  0  0  0  0
  5  2  1  0  0  0  0
  6 17  1  0  0  0  0
  6  1  2  0  0  0  0
  7  4  1  0  0  0  0
  8 21  1  1  0  0  0
  8 13  1  0  0  0  0
  9  1  1  0  0  0  0
 10 19  1  0  0  0  0
 11 15  1  0  0  0  0
 12  8  1  0  0  0  0
 13 18  1  0  0  0  0
 14  5  2  0  0  0  0
 16 12  1  0  0  0  0
 16  5  1  0  0  0  0
 17 16  2  0  0  0  0
 18 10  2  0  0  0  0
 19 20  1  0  0  0  0
 20 15  2  0  0  0  0
 22 28  1  0  0  0  0
 24 29  2  0  0  0  0
 24 25  1  0  0  0  0
 25 27  1  0  0  0  0
 26 22  2  0  0  0  0
 27 21  1  0  0  0  0
 28 23  2  0  0  0  0
 29 30  1  0  0  0  0
 30 27  2  0  0  0  0
 30 23  1  0  0  0  0
 31 29  1  0  0  0  0
 31 22  1  0  0  0  0
M  END
>  <MODEL>
9

>  <REMARK>
 VINA RESULT:      -8.4      3.863      7.453
  Name = 
  2 active torsions:
  status: ('A' for Active; 'I' for Inactive)
    1  A    between atoms: C_9  and  N_23
    2  A    between atoms: C_15  and  N_23
                            x       y       z     vdW  Elec       q    Type
                         _______ _______ _______ _____ _____    ______ ____

>  <TORSDO>
F 2

$$$$
