=
 OpenBabel11052421433D

 32 37  0  0  1  0  0  0  0  0999 V2000
  182.3360  177.9970  141.1990 C   0  0  2  0  0  3  0  0  0  0  0  0
  186.9130  177.7120  143.6120 C   0  0  0  0  0  0  0  0  0  0  0  0
  184.2880  178.5570  147.2100 O   0  0  0  0  0  0  0  0  0  0  0  0
  186.3720  178.1520  148.2660 N   0  0  0  0  0  0  0  0  0  0  0  0
  189.2830  177.1200  143.1720 C   0  0  0  0  0  3  0  0  0  0  0  0
  190.5660  176.8490  143.6460 C   0  0  0  0  0  0  0  0  0  0  0  0
  185.1270  178.0470  141.8090 C   0  0  0  0  0  0  0  0  0  0  0  0
  184.5150  178.2960  144.1660 C   0  0  0  0  0  3  0  0  0  0  0  0
  193.0920  176.3170  144.6250 N   0  0  0  0  0  0  0  0  0  0  0  0
  182.7110  178.6110  142.5470 C   0  0  0  0  0  2  0  0  0  0  0  0
  185.5110  178.2720  147.1350 C   0  0  0  0  0  0  0  0  0  0  0  0
  185.9060  178.0090  144.5720 C   0  0  0  0  0  0  0  0  0  0  0  0
  186.2600  178.0200  145.9220 C   0  0  0  0  0  0  0  0  0  0  0  0
  188.5470  177.4550  145.4520 C   0  0  0  0  0  0  0  0  0  0  0  0
  192.8740  176.2740  143.2820 C   0  0  0  0  0  3  0  0  0  0  0  0
  183.3380  178.4460  140.1330 C   0  0  0  0  0  2  0  0  0  0  0  0
  184.1400  178.3000  142.8870 C   0  0  0  0  0  0  0  0  0  0  0  0
  191.6020  176.5400  142.7660 C   0  0  0  0  0  3  0  0  0  0  0  0
  184.7400  178.0730  140.5270 C   0  0  0  0  0  3  0  0  0  0  0  0
  187.5540  177.8500  147.8150 C   0  0  0  0  0  3  0  0  0  0  0  0
  187.5290  177.7560  146.3500 C   0  0  0  0  0  0  0  0  0  0  0  0
  189.8070  177.1870  145.8950 N   0  0  0  0  0  0  0  0  0  0  0  0
  186.5210  177.7200  142.1720 C   0  0  0  0  0  0  0  0  0  0  0  0
  187.3580  177.4620  141.2640 O   0  0  0  0  0  0  0  0  0  0  0  0
  192.0960  176.6160  145.5030 C   0  0  0  0  0  3  0  0  0  0  0  0
  188.2440  177.4290  144.0610 C   0  0  0  0  0  0  0  0  0  0  0  0
  190.8110  176.8880  145.0320 C   0  0  0  0  0  0  0  0  0  0  0  0
  180.9290  178.4270  140.8210 C   0  0  0  0  0  2  0  0  0  0  0  0
  180.2510  179.1130  141.9930 C   0  0  0  0  0  2  0  0  0  0  0  0
  178.9270  178.4840  142.2470 C   0  0  0  0  0  0  0  0  0  0  0  0
  177.7970  179.2770  142.3960 O   0  0  0  0  0  1  0  0  0  0  0  0
  178.8340  177.2330  142.3490 O   0  0  0  0  0  0  0  0  0  0  0  0
  1 28  1  6  0  0  0
  1 10  1  0  0  0  0
  2 26  2  0  0  0  0
  2 12  1  0  0  0  0
  5  6  2  0  0  0  0
  5 26  1  0  0  0  0
  6 27  1  0  0  0  0
  7 23  1  0  0  0  0
  7 17  1  0  0  0  0
  8 12  1  0  0  0  0
  9 25  2  0  0  0  0
 10 17  1  0  0  0  0
 11  3  2  0  0  0  0
 11  4  1  0  0  0  0
 12 13  2  0  0  0  0
 13 21  1  0  0  0  0
 13 11  1  0  0  0  0
 14 22  1  0  0  0  0
 14 21  2  0  0  0  0
 15  9  1  0  0  0  0
 16 19  1  0  0  0  0
 16  1  1  0  0  0  0
 17  8  2  0  0  0  0
 18 15  2  0  0  0  0
 18  6  1  0  0  0  0
 19  7  2  0  0  0  0
 20  4  2  0  0  0  0
 21 20  1  0  0  0  0
 23  2  1  0  0  0  0
 24 23  2  0  0  0  0
 26 14  1  0  0  0  0
 27 25  1  0  0  0  0
 27 22  2  0  0  0  0
 28 29  1  0  0  0  0
 29 30  1  0  0  0  0
 30 32  2  0  0  0  0
 30 31  1  0  0  0  0
M  END
>  <MODEL>
1

>  <REMARK>
 VINA RESULT:      -8.9      0.000      0.000
  Name = 
  3 active torsions:
  status: ('A' for Active; 'I' for Inactive)
    1  A    between atoms: C_1  and  C_10
    2  A    between atoms: C_2  and  C_24
    3  A    between atoms: C_10  and  C_24
                            x       y       z     vdW  Elec       q    Type
                         _______ _______ _______ _____ _____    ______ ____

>  <TORSDO>
F 3

$$$$
=
 OpenBabel11052421433D

 32 37  0  0  1  0  0  0  0  0999 V2000
  194.9890  174.3720  145.4530 C   0  0  2  0  0  3  0  0  0  0  0  0
  190.1310  176.1070  144.9590 C   0  0  0  0  0  0  0  0  0  0  0  0
  190.5510  174.0730  140.9280 O   0  0  0  0  0  0  0  0  0  0  0  0
  188.2570  174.6710  140.8880 N   0  0  0  0  0  0  0  0  0  0  0  0
  188.3370  177.1980  146.2820 C   0  0  0  0  0  3  0  0  0  0  0  0
  187.0090  177.6050  146.4070 C   0  0  0  0  0  0  0  0  0  0  0  0
  192.5650  175.8640  145.7100 C   0  0  0  0  0  0  0  0  0  0  0  0
  191.8830  174.9570  143.5420 C   0  0  0  0  0  3  0  0  0  0  0  0
  184.3720  178.3930  146.6170 N   0  0  0  0  0  0  0  0  0  0  0  0
  194.2270  174.6330  144.1550 C   0  0  0  0  0  2  0  0  0  0  0  0
  189.5520  174.6050  141.4800 C   0  0  0  0  0  0  0  0  0  0  0  0
  190.5030  175.4370  143.7600 C   0  0  0  0  0  0  0  0  0  0  0  0
  189.5270  175.2340  142.7830 C   0  0  0  0  0  0  0  0  0  0  0  0
  187.8220  176.3070  144.0930 C   0  0  0  0  0  0  0  0  0  0  0  0
  185.2290  178.6490  147.6440 C   0  0  0  0  0  3  0  0  0  0  0  0
  194.9610  175.6280  146.3270 C   0  0  0  0  0  2  0  0  0  0  0  0
  192.8440  175.1370  144.4480 C   0  0  0  0  0  0  0  0  0  0  0  0
  186.5680  178.2590  147.5570 C   0  0  0  0  0  3  0  0  0  0  0  0
  193.5450  176.0530  146.6040 C   0  0  0  0  0  3  0  0  0  0  0  0
  187.4820  175.2830  141.7340 C   0  0  0  0  0  3  0  0  0  0  0  0
  188.2370  175.6530  142.9380 C   0  0  0  0  0  0  0  0  0  0  0  0
  186.5300  176.7120  144.2340 N   0  0  0  0  0  0  0  0  0  0  0  0
  191.1910  176.3290  145.9860 C   0  0  0  0  0  0  0  0  0  0  0  0
  190.9350  176.9120  147.0750 O   0  0  0  0  0  0  0  0  0  0  0  0
  184.7790  177.7560  145.4860 C   0  0  0  0  0  3  0  0  0  0  0  0
  188.7760  176.5410  145.1240 C   0  0  0  0  0  0  0  0  0  0  0  0
  186.1070  177.3480  145.3570 C   0  0  0  0  0  0  0  0  0  0  0  0
  196.4200  173.9810  145.1310 C   0  0  0  0  0  2  0  0  0  0  0  0
  196.9710  173.0550  146.2010 C   0  0  0  0  0  2  0  0  0  0  0  0
  196.9590  171.6520  145.7080 C   0  0  0  0  0  0  0  0  0  0  0  0
  195.9710  170.7730  146.1330 O   0  0  0  0  0  1  0  0  0  0  0  0
  197.8580  171.2530  144.9220 O   0  0  0  0  0  0  0  0  0  0  0  0
  1 28  1  6  0  0  0
  1 16  1  0  0  0  0
  2 26  1  0  0  0  0
  2 23  1  0  0  0  0
  3 11  2  0  0  0  0
  4 11  1  0  0  0  0
  4 20  2  0  0  0  0
  5  6  1  0  0  0  0
  6 18  1  0  0  0  0
  7 23  1  0  0  0  0
  7 19  2  0  0  0  0
  8 12  1  0  0  0  0
  8 17  2  0  0  0  0
  9 15  1  0  0  0  0
 10 17  1  0  0  0  0
 10  1  1  0  0  0  0
 11 13  1  0  0  0  0
 12  2  2  0  0  0  0
 13 21  2  0  0  0  0
 13 12  1  0  0  0  0
 14 22  2  0  0  0  0
 14 26  1  0  0  0  0
 16 19  1  0  0  0  0
 17  7  1  0  0  0  0
 18 15  2  0  0  0  0
 20 21  1  0  0  0  0
 21 14  1  0  0  0  0
 22 27  1  0  0  0  0
 23 24  2  0  0  0  0
 25  9  2  0  0  0  0
 26  5  2  0  0  0  0
 27 25  1  0  0  0  0
 27  6  2  0  0  0  0
 28 29  1  0  0  0  0
 30 31  1  0  0  0  0
 30 29  1  0  0  0  0
 32 30  2  0  0  0  0
M  END
>  <MODEL>
2

>  <REMARK>
 VINA RESULT:      -8.8      4.756     10.433
  Name = 
  3 active torsions:
  status: ('A' for Active; 'I' for Inactive)
    1  A    between atoms: C_1  and  C_10
    2  A    between atoms: C_2  and  C_24
    3  A    between atoms: C_10  and  C_24
                            x       y       z     vdW  Elec       q    Type
                         _______ _______ _______ _____ _____    ______ ____

>  <TORSDO>
F 3

$$$$
=
 OpenBabel11052421433D

 32 37  0  0  1  0  0  0  0  0999 V2000
  192.6940  176.8690  144.4860 C   0  0  2  0  0  3  0  0  0  0  0  0
  187.5890  177.4680  143.8320 C   0  0  0  0  0  0  0  0  0  0  0  0
  187.8150  178.2870  148.2860 O   0  0  0  0  0  0  0  0  0  0  0  0
  185.5400  178.7990  147.8540 N   0  0  0  0  0  0  0  0  0  0  0  0
  185.8830  177.5820  142.0330 C   0  0  0  0  0  3  0  0  0  0  0  0
  184.5780  177.8540  141.6250 C   0  0  0  0  0  0  0  0  0  0  0  0
  190.0140  176.7180  143.5070 C   0  0  0  0  0  0  0  0  0  0  0  0
  189.2590  177.4070  145.7310 C   0  0  0  0  0  3  0  0  0  0  0  0
  181.9840  178.4040  140.8560 N   0  0  0  0  0  0  0  0  0  0  0  0
  191.6040  176.7420  145.5490 C   0  0  0  0  0  2  0  0  0  0  0  0
  186.8510  178.3810  147.4810 C   0  0  0  0  0  0  0  0  0  0  0  0
  187.9000  177.6570  145.2070 C   0  0  0  0  0  0  0  0  0  0  0  0
  186.8870  178.0910  146.0640 C   0  0  0  0  0  0  0  0  0  0  0  0
  185.2640  178.1780  144.2940 C   0  0  0  0  0  0  0  0  0  0  0  0
  182.8820  177.9860  139.9220 C   0  0  0  0  0  3  0  0  0  0  0  0
  192.3690  175.9530  143.3040 C   0  0  0  0  0  2  0  0  0  0  0  0
  190.2510  176.9860  144.9470 C   0  0  0  0  0  0  0  0  0  0  0  0
  184.2000  177.7030  140.2900 C   0  0  0  0  0  3  0  0  0  0  0  0
  191.0160  176.2780  142.7350 C   0  0  0  0  0  3  0  0  0  0  0  0
  184.8120  178.7780  146.7760 C   0  0  0  0  0  3  0  0  0  0  0  0
  185.6170  178.3410  145.6290 C   0  0  0  0  0  0  0  0  0  0  0  0
  183.9950  178.4390  143.8750 N   0  0  0  0  0  0  0  0  0  0  0  0
  188.6800  176.9890  142.9340 C   0  0  0  0  0  0  0  0  0  0  0  0
  188.4800  176.8030  141.7020 O   0  0  0  0  0  0  0  0  0  0  0  0
  182.3290  178.5590  142.1630 C   0  0  0  0  0  3  0  0  0  0  0  0
  186.2580  177.7370  143.3750 C   0  0  0  0  0  0  0  0  0  0  0  0
  183.6350  178.2880  142.5750 C   0  0  0  0  0  0  0  0  0  0  0  0
  194.0370  176.5000  145.0910 C   0  0  0  0  0  2  0  0  0  0  0  0
  193.9300  175.1980  145.8660 C   0  0  0  0  0  2  0  0  0  0  0  0
  194.9730  174.2460  145.3970 C   0  0  0  0  0  0  0  0  0  0  0  0
  196.2240  174.2330  145.9990 O   0  0  0  0  0  1  0  0  0  0  0  0
  194.7280  173.4670  144.4390 O   0  0  0  0  0  0  0  0  0  0  0  0
  1 28  1  1  0  0  0
  1 10  1  0  0  0  0
  2 12  1  0  0  0  0
  5 26  1  0  0  0  0
  6  5  2  0  0  0  0
  6 27  1  0  0  0  0
  7 17  1  0  0  0  0
  9 25  2  0  0  0  0
 11  4  1  0  0  0  0
 11  3  2  0  0  0  0
 12  8  1  0  0  0  0
 12 13  2  0  0  0  0
 13 11  1  0  0  0  0
 14 21  2  0  0  0  0
 15 18  2  0  0  0  0
 15  9  1  0  0  0  0
 16  1  1  0  0  0  0
 17 10  1  0  0  0  0
 17  8  2  0  0  0  0
 18  6  1  0  0  0  0
 19 16  1  0  0  0  0
 19  7  2  0  0  0  0
 20  4  2  0  0  0  0
 21 13  1  0  0  0  0
 21 20  1  0  0  0  0
 22 14  1  0  0  0  0
 23  7  1  0  0  0  0
 23  2  1  0  0  0  0
 24 23  2  0  0  0  0
 25 27  1  0  0  0  0
 26  2  2  0  0  0  0
 26 14  1  0  0  0  0
 27 22  2  0  0  0  0
 28 29  1  0  0  0  0
 30 29  1  0  0  0  0
 30 31  1  0  0  0  0
 32 30  2  0  0  0  0
M  END
>  <MODEL>
3

>  <REMARK>
 VINA RESULT:      -8.2      3.357      8.736
  Name = 
  3 active torsions:
  status: ('A' for Active; 'I' for Inactive)
    1  A    between atoms: C_1  and  C_10
    2  A    between atoms: C_2  and  C_24
    3  A    between atoms: C_10  and  C_24
                            x       y       z     vdW  Elec       q    Type
                         _______ _______ _______ _____ _____    ______ ____

>  <TORSDO>
F 3

$$$$
=
 OpenBabel11052421433D

 32 37  0  0  1  0  0  0  0  0999 V2000
  185.9180  178.4060  144.1160 C   0  0  2  0  0  3  0  0  0  0  0  0
  188.5480  174.7940  141.4910 C   0  0  0  0  0  0  0  0  0  0  0  0
  189.8810  173.7070  145.6860 O   0  0  0  0  0  0  0  0  0  0  0  0
  190.8390  171.9300  144.4410 N   0  0  0  0  0  0  0  0  0  0  0  0
  188.7760  173.8700  139.1990 C   0  0  0  0  0  3  0  0  0  0  0  0
  189.2680  172.8890  138.3390 C   0  0  0  0  0  0  0  0  0  0  0  0
  187.3040  176.9510  142.0850 C   0  0  0  0  0  0  0  0  0  0  0  0
  188.3560  175.6430  143.8660 C   0  0  0  0  0  3  0  0  0  0  0  0
  190.2580  170.9270  136.6670 N   0  0  0  0  0  0  0  0  0  0  0  0
  187.1740  177.6640  144.5690 C   0  0  0  0  0  2  0  0  0  0  0  0
  190.0860  173.1330  144.5850 C   0  0  0  0  0  0  0  0  0  0  0  0
  188.8440  174.6610  142.8770 C   0  0  0  0  0  0  0  0  0  0  0  0
  189.6100  173.5700  143.2890 C   0  0  0  0  0  0  0  0  0  0  0  0
  189.8140  172.7130  141.0530 C   0  0  0  0  0  0  0  0  0  0  0  0
  189.5210  171.9440  136.1400 C   0  0  0  0  0  3  0  0  0  0  0  0
  186.1680  179.0570  142.7540 C   0  0  0  0  0  2  0  0  0  0  0  0
  187.6270  176.7010  143.5110 C   0  0  0  0  0  0  0  0  0  0  0  0
  189.0100  172.9460  136.9690 C   0  0  0  0  0  3  0  0  0  0  0  0
  186.5860  178.0280  141.7400 C   0  0  0  0  0  3  0  0  0  0  0  0
  190.8410  171.6310  143.1750 C   0  0  0  0  0  3  0  0  0  0  0  0
  190.0810  172.6320  142.4160 C   0  0  0  0  0  0  0  0  0  0  0  0
  190.2850  171.7660  140.1970 N   0  0  0  0  0  0  0  0  0  0  0  0
  187.7420  175.9750  141.0650 C   0  0  0  0  0  0  0  0  0  0  0  0
  187.4360  176.1580  139.8550 O   0  0  0  0  0  0  0  0  0  0  0  0
  190.5210  170.8500  137.9990 C   0  0  0  0  0  3  0  0  0  0  0  0
  189.0370  173.8070  140.5750 C   0  0  0  0  0  0  0  0  0  0  0  0
  190.0310  171.8290  138.8640 C   0  0  0  0  0  0  0  0  0  0  0  0
  185.5500  179.4570  145.1480 C   0  0  0  0  0  2  0  0  0  0  0  0
  184.7880  178.8270  146.2990 C   0  0  0  0  0  2  0  0  0  0  0  0
  185.6470  178.7920  147.5130 C   0  0  0  0  0  0  0  0  0  0  0  0
  186.1740  179.9690  148.0280 O   0  0  0  0  0  0  0  0  0  0  0  0
  185.9160  177.6910  148.0610 O   0  0  0  0  0  1  0  0  0  0  0  0
  1 10  1  0  0  0  0
  1 28  1  1  0  0  0
  2 12  1  0  0  0  0
  4 11  1  0  0  0  0
  5 26  1  0  0  0  0
  6 27  1  0  0  0  0
  6  5  2  0  0  0  0
  7 17  1  0  0  0  0
  9 25  2  0  0  0  0
 11  3  2  0  0  0  0
 12 13  2  0  0  0  0
 12  8  1  0  0  0  0
 13 11  1  0  0  0  0
 14 21  2  0  0  0  0
 15  9  1  0  0  0  0
 15 18  2  0  0  0  0
 16  1  1  0  0  0  0
 17  8  2  0  0  0  0
 17 10  1  0  0  0  0
 18  6  1  0  0  0  0
 19  7  2  0  0  0  0
 19 16  1  0  0  0  0
 20  4  2  0  0  0  0
 21 20  1  0  0  0  0
 21 13  1  0  0  0  0
 22 14  1  0  0  0  0
 23  2  1  0  0  0  0
 23  7  1  0  0  0  0
 24 23  2  0  0  0  0
 25 27  1  0  0  0  0
 26 14  1  0  0  0  0
 26  2  2  0  0  0  0
 27 22  2  0  0  0  0
 28 29  1  0  0  0  0
 29 30  1  0  0  0  0
 30 31  2  0  0  0  0
 30 32  1  0  0  0  0
M  END
>  <MODEL>
4

>  <REMARK>
 VINA RESULT:      -8.2      4.519      6.690
  Name = 
  3 active torsions:
  status: ('A' for Active; 'I' for Inactive)
    1  A    between atoms: C_1  and  C_10
    2  A    between atoms: C_2  and  C_24
    3  A    between atoms: C_10  and  C_24
                            x       y       z     vdW  Elec       q    Type
                         _______ _______ _______ _____ _____    ______ ____

>  <TORSDO>
F 3

$$$$
=
 OpenBabel11052421433D

 32 37  0  0  1  0  0  0  0  0999 V2000
  186.8030  177.4790  145.7240 C   0  0  2  0  0  3  0  0  0  0  0  0
  191.1870  175.7870  143.5410 C   0  0  0  0  0  0  0  0  0  0  0  0
  188.2150  173.6880  140.8360 O   0  0  0  0  0  0  0  0  0  0  0  0
  190.2540  173.1740  139.7400 N   0  0  0  0  0  0  0  0  0  0  0  0
  193.6430  176.1330  143.6450 C   0  0  0  0  0  3  0  0  0  0  0  0
  194.9140  175.9220  143.1100 C   0  0  0  0  0  0  0  0  0  0  0  0
  189.5070  176.6870  145.2490 C   0  0  0  0  0  0  0  0  0  0  0  0
  188.6970  175.3950  143.3340 C   0  0  0  0  0  3  0  0  0  0  0  0
  197.4120  175.4820  142.0210 N   0  0  0  0  0  0  0  0  0  0  0  0
  186.9890  176.2230  144.8740 C   0  0  0  0  0  2  0  0  0  0  0  0
  189.4690  173.7730  140.7680 C   0  0  0  0  0  0  0  0  0  0  0  0
  190.0820  175.2150  142.8520 C   0  0  0  0  0  0  0  0  0  0  0  0
  190.3310  174.4750  141.6950 C   0  0  0  0  0  0  0  0  0  0  0  0
  192.7040  174.8260  141.8380 C   0  0  0  0  0  0  0  0  0  0  0  0
  197.3010  176.2250  143.1570 C   0  0  0  0  0  3  0  0  0  0  0  0
  187.8050  177.4700  146.8810 C   0  0  0  0  0  2  0  0  0  0  0  0
  188.4180  176.0900  144.4370 C   0  0  0  0  0  0  0  0  0  0  0  0
  196.0450  176.4590  143.7240 C   0  0  0  0  0  3  0  0  0  0  0  0
  189.2140  177.3670  146.3650 C   0  0  0  0  0  3  0  0  0  0  0  0
  191.4960  173.4670  139.9890 C   0  0  0  0  0  3  0  0  0  0  0  0
  191.5910  174.2830  141.2050 C   0  0  0  0  0  0  0  0  0  0  0  0
  193.9530  174.6310  141.3330 N   0  0  0  0  0  0  0  0  0  0  0  0
  190.9040  176.5620  144.7840 C   0  0  0  0  0  0  0  0  0  0  0  0
  191.8330  177.1020  145.4460 O   0  0  0  0  0  0  0  0  0  0  0  0
  196.3230  174.9480  141.4050 C   0  0  0  0  0  3  0  0  0  0  0  0
  192.5090  175.5910  143.0230 C   0  0  0  0  0  0  0  0  0  0  0  0
  195.0500  175.1570  141.9360 C   0  0  0  0  0  0  0  0  0  0  0  0
  185.3810  177.5270  146.2540 C   0  0  0  0  0  2  0  0  0  0  0  0
  184.7840  178.9070  146.0480 C   0  0  0  0  0  2  0  0  0  0  0  0
  184.7390  179.2250  144.5950 C   0  0  0  0  0  0  0  0  0  0  0  0
  185.4750  180.2880  144.0920 O   0  0  0  0  0  1  0  0  0  0  0  0
  184.0130  178.5430  143.8250 O   0  0  0  0  0  0  0  0  0  0  0  0
  1 28  1  1  0  0  0
  1 16  1  0  0  0  0
  2 23  1  0  0  0  0
  4 20  2  0  0  0  0
  4 11  1  0  0  0  0
  6  5  1  0  0  0  0
  6 18  1  0  0  0  0
  7 19  2  0  0  0  0
  8 17  2  0  0  0  0
  9 15  1  0  0  0  0
 10  1  1  0  0  0  0
 11  3  2  0  0  0  0
 11 13  1  0  0  0  0
 12  8  1  0  0  0  0
 12  2  2  0  0  0  0
 13 12  1  0  0  0  0
 14 26  1  0  0  0  0
 15 18  2  0  0  0  0
 17 10  1  0  0  0  0
 17  7  1  0  0  0  0
 19 16  1  0  0  0  0
 20 21  1  0  0  0  0
 21 13  2  0  0  0  0
 21 14  1  0  0  0  0
 22 14  2  0  0  0  0
 22 27  1  0  0  0  0
 23  7  1  0  0  0  0
 23 24  2  0  0  0  0
 25 27  1  0  0  0  0
 25  9  2  0  0  0  0
 26  2  1  0  0  0  0
 26  5  2  0  0  0  0
 27  6  2  0  0  0  0
 29 28  1  0  0  0  0
 30 29  1  0  0  0  0
 31 30  1  0  0  0  0
 32 30  2  0  0  0  0
M  END
>  <MODEL>
5

>  <REMARK>
 VINA RESULT:      -8.1      3.875      6.514
  Name = 
  3 active torsions:
  status: ('A' for Active; 'I' for Inactive)
    1  A    between atoms: C_1  and  C_10
    2  A    between atoms: C_2  and  C_24
    3  A    between atoms: C_10  and  C_24
                            x       y       z     vdW  Elec       q    Type
                         _______ _______ _______ _____ _____    ______ ____

>  <TORSDO>
F 3

$$$$
=
 OpenBabel11052421433D

 32 37  0  0  1  0  0  0  0  0999 V2000
  184.8460  178.5180  143.3700 C   0  0  2  0  0  3  0  0  0  0  0  0
  189.4350  176.1330  143.6980 C   0  0  0  0  0  0  0  0  0  0  0  0
  187.9740  174.2880  139.8220 O   0  0  0  0  0  0  0  0  0  0  0  0
  190.1880  173.4430  139.9100 N   0  0  0  0  0  0  0  0  0  0  0  0
  191.5200  176.1560  145.0440 C   0  0  0  0  0  3  0  0  0  0  0  0
  192.8400  175.7470  145.2280 C   0  0  0  0  0  0  0  0  0  0  0  0
  187.2720  177.3480  144.3260 C   0  0  0  0  0  0  0  0  0  0  0  0
  187.3660  176.0630  142.2450 C   0  0  0  0  0  3  0  0  0  0  0  0
  195.4520  174.9160  145.5570 N   0  0  0  0  0  0  0  0  0  0  0  0
  185.2530  177.2000  142.7120 C   0  0  0  0  0  2  0  0  0  0  0  0
  189.0870  174.2020  140.4040 C   0  0  0  0  0  0  0  0  0  0  0  0
  188.7610  175.6720  142.5330 C   0  0  0  0  0  0  0  0  0  0  0  0
  189.4520  174.8370  141.6530 C   0  0  0  0  0  0  0  0  0  0  0  0
  191.4480  174.8790  142.9900 C   0  0  0  0  0  0  0  0  0  0  0  0
  194.8900  175.7340  146.4900 C   0  0  0  0  0  3  0  0  0  0  0  0
  185.1110  178.4450  144.8750 C   0  0  0  0  0  2  0  0  0  0  0  0
  186.6710  176.8530  143.0630 C   0  0  0  0  0  0  0  0  0  0  0  0
  193.5690  176.1650  146.3420 C   0  0  0  0  0  3  0  0  0  0  0  0
  186.5550  178.1260  145.1470 C   0  0  0  0  0  3  0  0  0  0  0  0
  191.1610  173.5840  140.7620 C   0  0  0  0  0  3  0  0  0  0  0  0
  190.7440  174.4510  141.8700 C   0  0  0  0  0  0  0  0  0  0  0  0
  192.7380  174.4910  143.1890 N   0  0  0  0  0  0  0  0  0  0  0  0
  188.6760  177.0110  144.6360 C   0  0  0  0  0  0  0  0  0  0  0  0
  189.2090  177.4620  145.6870 O   0  0  0  0  0  0  0  0  0  0  0  0
  194.7620  174.4950  144.4640 C   0  0  0  0  0  3  0  0  0  0  0  0
  190.7920  175.7330  143.9230 C   0  0  0  0  0  0  0  0  0  0  0  0
  193.4400  174.9020  144.2750 C   0  0  0  0  0  0  0  0  0  0  0  0
  183.3760  178.7850  143.1010 C   0  0  0  0  0  2  0  0  0  0  0  0
  182.9740  178.2290  141.7470 C   0  0  0  0  0  2  0  0  0  0  0  0
  181.5540  178.5680  141.4650 C   0  0  0  0  0  0  0  0  0  0  0  0
  180.8190  179.3090  142.3810 O   0  0  0  0  0  1  0  0  0  0  0  0
  181.0090  178.1640  140.4040 O   0  0  0  0  0  0  0  0  0  0  0  0
  1 28  1  1  0  0  0
  1 16  1  0  0  0  0
  2 26  1  0  0  0  0
  2 23  1  0  0  0  0
  3 11  2  0  0  0  0
  4 11  1  0  0  0  0
  4 20  2  0  0  0  0
  5  6  1  0  0  0  0
  6 18  1  0  0  0  0
  7 23  1  0  0  0  0
  7 19  2  0  0  0  0
  8 12  1  0  0  0  0
  8 17  2  0  0  0  0
  9 15  1  0  0  0  0
 10 17  1  0  0  0  0
 10  1  1  0  0  0  0
 11 13  1  0  0  0  0
 12  2  2  0  0  0  0
 13 21  2  0  0  0  0
 13 12  1  0  0  0  0
 14 22  2  0  0  0  0
 14 26  1  0  0  0  0
 16 19  1  0  0  0  0
 17  7  1  0  0  0  0
 18 15  2  0  0  0  0
 20 21  1  0  0  0  0
 21 14  1  0  0  0  0
 22 27  1  0  0  0  0
 23 24  2  0  0  0  0
 25  9  2  0  0  0  0
 26  5  2  0  0  0  0
 27 25  1  0  0  0  0
 27  6  2  0  0  0  0
 29 28  1  0  0  0  0
 30 29  1  0  0  0  0
 30 31  1  0  0  0  0
 32 30  2  0  0  0  0
M  END
>  <MODEL>
6

>  <REMARK>
 VINA RESULT:      -8.0      2.623      4.930
  Name = 
  3 active torsions:
  status: ('A' for Active; 'I' for Inactive)
    1  A    between atoms: C_1  and  C_10
    2  A    between atoms: C_2  and  C_24
    3  A    between atoms: C_10  and  C_24
                            x       y       z     vdW  Elec       q    Type
                         _______ _______ _______ _____ _____    ______ ____

>  <TORSDO>
F 3

$$$$
=
 OpenBabel11052421433D

 32 37  0  0  1  0  0  0  0  0999 V2000
  186.3890  177.3020  145.7740 C   0  0  2  0  0  3  0  0  0  0  0  0
  190.8460  175.1090  144.2980 C   0  0  0  0  0  0  0  0  0  0  0  0
  188.4320  174.3660  140.5330 O   0  0  0  0  0  0  0  0  0  0  0  0
  190.5740  173.6210  139.8410 N   0  0  0  0  0  0  0  0  0  0  0  0
  193.1960  174.8390  145.0500 C   0  0  0  0  0  3  0  0  0  0  0  0
  194.5080  174.4490  144.7870 C   0  0  0  0  0  0  0  0  0  0  0  0
  188.9380  176.0100  145.7460 C   0  0  0  0  0  0  0  0  0  0  0  0
  188.4850  175.3650  143.4290 C   0  0  0  0  0  3  0  0  0  0  0  0
  197.0960  173.6660  144.2280 N   0  0  0  0  0  0  0  0  0  0  0  0
  186.5840  176.2390  144.6940 C   0  0  0  0  0  2  0  0  0  0  0  0
  189.6490  174.1660  140.7810 C   0  0  0  0  0  0  0  0  0  0  0  0
  189.8950  174.9660  143.2490 C   0  0  0  0  0  0  0  0  0  0  0  0
  190.3260  174.4400  142.0300 C   0  0  0  0  0  0  0  0  0  0  0  0
  192.5880  174.1870  142.8020 C   0  0  0  0  0  0  0  0  0  0  0  0
  196.8020  174.1660  145.4590 C   0  0  0  0  0  3  0  0  0  0  0  0
  187.0100  176.8210  147.0880 C   0  0  0  0  0  2  0  0  0  0  0  0
  188.0330  175.8650  144.5800 C   0  0  0  0  0  0  0  0  0  0  0  0
  195.4980  174.5680  145.7630 C   0  0  0  0  0  3  0  0  0  0  0  0
  188.4670  176.4980  146.9010 C   0  0  0  0  0  3  0  0  0  0  0  0
  191.7290  173.5580  140.4370 C   0  0  0  0  0  3  0  0  0  0  0  0
  191.6200  174.0620  141.8110 C   0  0  0  0  0  0  0  0  0  0  0  0
  193.8750  173.8110  142.5650 N   0  0  0  0  0  0  0  0  0  0  0  0
  190.3650  175.6580  145.6000 C   0  0  0  0  0  0  0  0  0  0  0  0
  191.1510  175.8180  146.5740 O   0  0  0  0  0  0  0  0  0  0  0  0
  196.1480  173.5410  143.2600 C   0  0  0  0  0  3  0  0  0  0  0  0
  192.2050  174.7180  144.0660 C   0  0  0  0  0  0  0  0  0  0  0  0
  194.8330  173.9300  143.5190 C   0  0  0  0  0  0  0  0  0  0  0  0
  184.9060  177.5740  145.9560 C   0  0  0  0  0  2  0  0  0  0  0  0
  184.6020  179.0410  145.7120 C   0  0  0  0  0  2  0  0  0  0  0  0
  184.7460  179.3510  144.2640 C   0  0  0  0  0  0  0  0  0  0  0  0
  183.9950  178.6570  143.3250 O   0  0  0  0  0  0  0  0  0  0  0  0
  185.5660  180.2280  143.8880 O   0  0  0  0  0  1  0  0  0  0  0  0
  1 28  1  1  0  0  0
  1 16  1  0  0  0  0
  2 23  1  0  0  0  0
  3 11  2  0  0  0  0
  4 20  2  0  0  0  0
  4 11  1  0  0  0  0
  6  5  1  0  0  0  0
  6 18  1  0  0  0  0
  7 19  2  0  0  0  0
  8 17  2  0  0  0  0
  9 15  1  0  0  0  0
 10  1  1  0  0  0  0
 11 13  1  0  0  0  0
 12  8  1  0  0  0  0
 12  2  2  0  0  0  0
 13 12  1  0  0  0  0
 14 26  1  0  0  0  0
 15 18  2  0  0  0  0
 17 10  1  0  0  0  0
 17  7  1  0  0  0  0
 19 16  1  0  0  0  0
 20 21  1  0  0  0  0
 21 13  2  0  0  0  0
 21 14  1  0  0  0  0
 22 14  2  0  0  0  0
 22 27  1  0  0  0  0
 23  7  1  0  0  0  0
 23 24  2  0  0  0  0
 25 27  1  0  0  0  0
 25  9  2  0  0  0  0
 26  2  1  0  0  0  0
 26  5  2  0  0  0  0
 27  6  2  0  0  0  0
 29 28  1  0  0  0  0
 30 29  1  0  0  0  0
 31 30  2  0  0  0  0
 32 30  1  0  0  0  0
M  END
>  <MODEL>
7

>  <REMARK>
 VINA RESULT:      -8.0      3.811      6.445
  Name = 
  3 active torsions:
  status: ('A' for Active; 'I' for Inactive)
    1  A    between atoms: C_1  and  C_10
    2  A    between atoms: C_2  and  C_24
    3  A    between atoms: C_10  and  C_24
                            x       y       z     vdW  Elec       q    Type
                         _______ _______ _______ _____ _____    ______ ____

>  <TORSDO>
F 3

$$$$
=
 OpenBabel11052421433D

 32 37  0  0  1  0  0  0  0  0999 V2000
  190.8240  173.4220  139.3190 C   0  0  2  0  0  3  0  0  0  0  0  0
  188.8000  175.3610  143.6770 C   0  0  0  0  0  0  0  0  0  0  0  0
  192.8090  174.0200  145.3150 O   0  0  0  0  0  0  0  0  0  0  0  0
  191.9190  175.1590  147.1950 N   0  0  0  0  0  0  0  0  0  0  0  0
  186.8310  176.6430  144.4760 C   0  0  0  0  0  3  0  0  0  0  0  0
  186.1830  177.3500  145.4890 C   0  0  0  0  0  0  0  0  0  0  0  0
  189.0250  174.3220  141.3500 C   0  0  0  0  0  0  0  0  0  0  0  0
  190.8600  174.0870  142.9520 C   0  0  0  0  0  3  0  0  0  0  0  0
  184.9320  178.7440  147.5170 N   0  0  0  0  0  0  0  0  0  0  0  0
  191.2140  173.0750  140.7550 C   0  0  0  0  0  2  0  0  0  0  0  0
  191.8800  174.6750  145.8550 C   0  0  0  0  0  0  0  0  0  0  0  0
  190.0910  174.8370  143.9650 C   0  0  0  0  0  0  0  0  0  0  0  0
  190.6260  175.0530  145.2360 C   0  0  0  0  0  0  0  0  0  0  0  0
  188.6970  176.2810  145.9720 C   0  0  0  0  0  0  0  0  0  0  0  0
  184.3030  178.6030  146.3180 C   0  0  0  0  0  3  0  0  0  0  0  0
  189.3160  173.2310  139.1360 C   0  0  0  0  0  2  0  0  0  0  0  0
  190.3810  173.8550  141.7300 C   0  0  0  0  0  0  0  0  0  0  0  0
  184.9190  177.9010  145.2780 C   0  0  0  0  0  3  0  0  0  0  0  0
  188.5490  174.0660  140.1240 C   0  0  0  0  0  3  0  0  0  0  0  0
  190.7990  175.7850  147.4080 C   0  0  0  0  0  3  0  0  0  0  0  0
  189.9590  175.7440  146.2050 C   0  0  0  0  0  0  0  0  0  0  0  0
  188.0470  176.9740  146.9470 N   0  0  0  0  0  0  0  0  0  0  0  0
  188.2360  175.1080  142.3190 C   0  0  0  0  0  0  0  0  0  0  0  0
  187.0990  175.5440  141.9900 O   0  0  0  0  0  0  0  0  0  0  0  0
  186.1650  178.2160  147.7460 C   0  0  0  0  0  3  0  0  0  0  0  0
  188.1010  176.0920  144.6920 C   0  0  0  0  0  0  0  0  0  0  0  0
  186.8170  177.5070  146.7350 C   0  0  0  0  0  0  0  0  0  0  0  0
  191.5920  172.5340  138.3560 C   0  0  0  0  0  2  0  0  0  0  0  0
  191.5560  171.0890  138.8230 C   0  0  0  0  0  2  0  0  0  0  0  0
  190.9560  170.2330  137.7650 C   0  0  0  0  0  0  0  0  0  0  0  0
  189.6580  169.7610  137.9040 O   0  0  0  0  0  1  0  0  0  0  0  0
  191.6340  169.9170  136.7520 O   0  0  0  0  0  0  0  0  0  0  0  0
  1 28  1  6  0  0  0
  1 10  1  0  0  0  0
  2 12  2  0  0  0  0
  2 26  1  0  0  0  0
  3 11  2  0  0  0  0
  4 20  2  0  0  0  0
  5 26  2  0  0  0  0
  5  6  1  0  0  0  0
  6 27  1  0  0  0  0
  7 17  1  0  0  0  0
  7 23  1  0  0  0  0
  8 12  1  0  0  0  0
  9 25  1  0  0  0  0
 10 17  1  0  0  0  0
 11  4  1  0  0  0  0
 12 13  1  0  0  0  0
 13 11  1  0  0  0  0
 13 21  2  0  0  0  0
 14 21  1  0  0  0  0
 14 22  2  0  0  0  0
 15  9  2  0  0  0  0
 16  1  1  0  0  0  0
 16 19  1  0  0  0  0
 17  8  2  0  0  0  0
 18  6  2  0  0  0  0
 18 15  1  0  0  0  0
 19  7  2  0  0  0  0
 21 20  1  0  0  0  0
 23  2  1  0  0  0  0
 24 23  2  0  0  0  0
 26 14  1  0  0  0  0
 27 22  1  0  0  0  0
 27 25  2  0  0  0  0
 28 29  1  0  0  0  0
 30 31  1  0  0  0  0
 30 29  1  0  0  0  0
 32 30  2  0  0  0  0
M  END
>  <MODEL>
8

>  <REMARK>
 VINA RESULT:      -7.9      4.157      8.208
  Name = 
  3 active torsions:
  status: ('A' for Active; 'I' for Inactive)
    1  A    between atoms: C_1  and  C_10
    2  A    between atoms: C_2  and  C_24
    3  A    between atoms: C_10  and  C_24
                            x       y       z     vdW  Elec       q    Type
                         _______ _______ _______ _____ _____    ______ ____

>  <TORSDO>
F 3

$$$$
=
 OpenBabel11052421433D

 32 37  0  0  1  0  0  0  0  0999 V2000
  182.9490  178.1280  141.5610 C   0  0  2  0  0  3  0  0  0  0  0  0
  187.6050  176.3360  142.9620 C   0  0  0  0  0  0  0  0  0  0  0  0
  185.8880  177.0970  147.0890 O   0  0  0  0  0  0  0  0  0  0  0  0
  187.9290  176.0260  147.6470 N   0  0  0  0  0  0  0  0  0  0  0  0
  189.6350  175.2950  141.9870 C   0  0  0  0  0  3  0  0  0  0  0  0
  190.8590  174.6470  142.1570 C   0  0  0  0  0  0  0  0  0  0  0  0
  185.7140  177.4070  141.6110 C   0  0  0  0  0  0  0  0  0  0  0  0
  185.5630  177.3540  144.0530 C   0  0  0  0  0  3  0  0  0  0  0  0
  193.2750  173.3660  142.5360 N   0  0  0  0  0  0  0  0  0  0  0  0
  183.6780  178.3770  142.8810 C   0  0  0  0  0  2  0  0  0  0  0  0
  186.9660  176.5510  146.7360 C   0  0  0  0  0  0  0  0  0  0  0  0
  186.8740  176.6790  144.1340 C   0  0  0  0  0  0  0  0  0  0  0  0
  187.4230  176.3580  145.3760 C   0  0  0  0  0  0  0  0  0  0  0  0
  189.3780  175.3670  144.3910 C   0  0  0  0  0  0  0  0  0  0  0  0
  192.8470  173.6230  141.2690 C   0  0  0  0  0  3  0  0  0  0  0  0
  183.8550  178.5170  140.3910 C   0  0  0  0  0  2  0  0  0  0  0  0
  185.0080  177.6820  142.8860 C   0  0  0  0  0  0  0  0  0  0  0  0
  191.6270  174.2710  141.0560 C   0  0  0  0  0  3  0  0  0  0  0  0
  185.1520  177.7580  140.4470 C   0  0  0  0  0  3  0  0  0  0  0  0
  188.9040  175.5430  146.9340 C   0  0  0  0  0  3  0  0  0  0  0  0
  188.6280  175.7290  145.5050 C   0  0  0  0  0  0  0  0  0  0  0  0
  190.5750  174.7350  144.5360 N   0  0  0  0  0  0  0  0  0  0  0  0
  187.0100  176.7000  141.6430 C   0  0  0  0  0  0  0  0  0  0  0  0
  187.5980  176.4240  140.5610 O   0  0  0  0  0  0  0  0  0  0  0  0
  192.5420  173.7240  143.6250 C   0  0  0  0  0  3  0  0  0  0  0  0
  188.8660  175.6700  143.0970 C   0  0  0  0  0  0  0  0  0  0  0  0
  191.3180  174.3720  143.4590 C   0  0  0  0  0  0  0  0  0  0  0  0
  181.6650  178.9380  141.5310 C   0  0  0  0  0  2  0  0  0  0  0  0
  180.5980  178.2110  140.7320 C   0  0  0  0  0  2  0  0  0  0  0  0
  179.3770  178.0370  141.5630 C   0  0  0  0  0  0  0  0  0  0  0  0
  179.2390  178.7390  142.7530 O   0  0  0  0  0  1  0  0  0  0  0  0
  178.4770  177.2350  141.2000 O   0  0  0  0  0  0  0  0  0  0  0  0
  1 28  1  1  0  0  0
  1 10  1  0  0  0  0
  2 26  2  0  0  0  0
  2 12  1  0  0  0  0
  5  6  2  0  0  0  0
  5 26  1  0  0  0  0
  6 27  1  0  0  0  0
  7 23  1  0  0  0  0
  7 17  1  0  0  0  0
  8 12  1  0  0  0  0
  9 25  2  0  0  0  0
 10 17  1  0  0  0  0
 11  3  2  0  0  0  0
 11  4  1  0  0  0  0
 12 13  2  0  0  0  0
 13 21  1  0  0  0  0
 13 11  1  0  0  0  0
 14 22  1  0  0  0  0
 14 21  2  0  0  0  0
 15  9  1  0  0  0  0
 16 19  1  0  0  0  0
 16  1  1  0  0  0  0
 17  8  2  0  0  0  0
 18 15  2  0  0  0  0
 18  6  1  0  0  0  0
 19  7  2  0  0  0  0
 20  4  2  0  0  0  0
 21 20  1  0  0  0  0
 23  2  1  0  0  0  0
 24 23  2  0  0  0  0
 26 14  1  0  0  0  0
 27 25  1  0  0  0  0
 27 22  2  0  0  0  0
 29 28  1  0  0  0  0
 29 30  1  0  0  0  0
 30 31  1  0  0  0  0
 32 30  2  0  0  0  0
M  END
>  <MODEL>
9

>  <REMARK>
 VINA RESULT:      -7.9      1.868      2.120
  Name = 
  3 active torsions:
  status: ('A' for Active; 'I' for Inactive)
    1  A    between atoms: C_1  and  C_10
    2  A    between atoms: C_2  and  C_24
    3  A    between atoms: C_10  and  C_24
                            x       y       z     vdW  Elec       q    Type
                         _______ _______ _______ _____ _____    ______ ____

>  <TORSDO>
F 3

$$$$
