=
 OpenBabel11052419393D

 55 60  0  0  1  0  0  0  0  0999 V2000
  195.9350  174.4380  142.5180 C   0  0  1  0  0  3  0  0  0  0  0  0
  196.1890  175.7380  143.2260 C   0  0  0  0  0  0  0  0  0  0  0  0
  195.2270  176.3580  144.0930 N   0  0  0  0  0  2  0  0  0  0  0  0
  197.3310  176.2600  143.1170 O   0  0  0  0  0  0  0  0  0  0  0  0
  191.2420  175.1320  145.2140 C   0  0  2  0  0  0  0  0  0  0  0  0
  193.8070  176.0370  144.1210 C   0  0  2  0  0  3  0  0  0  0  0  0
  192.7200  174.4850  147.0020 F   0  0  0  0  0  0  0  0  0  0  0  0
  191.7460  177.3440  144.1810 O   0  0  0  0  0  0  0  0  0  0  0  0
  193.0360  177.1860  144.7700 C   0  0  1  0  0  3  0  0  0  0  0  0
  192.8760  176.7220  146.1830 C   0  0  1  0  0  3  0  0  0  0  0  0
  192.6290  175.2710  145.8680 C   0  0  2  0  0  0  0  0  0  0  0  0
  190.7880  173.8550  144.8720 O   0  0  0  0  0  1  0  0  0  0  0  0
  194.0760  176.8800  146.8840 O   0  0  0  0  0  1  0  0  0  0  0  0
  193.6010  174.8920  144.9210 O   0  0  0  0  0  0  0  0  0  0  0  0
  190.9130  176.1760  144.2190 C   0  0  2  0  0  3  0  0  0  0  0  0
  190.2000  176.1400  145.5200 N   0  0  0  0  0  0  0  0  0  0  0  0
  188.8640  175.6370  145.2340 C   0  0  0  0  0  2  0  0  0  0  0  0
  187.8510  176.3910  146.0690 C   0  0  0  0  0  2  0  0  0  0  0  0
  187.2660  177.5220  145.2520 C   0  0  0  0  0  2  0  0  0  0  0  0
  185.2650  176.7900  146.5090 C   0  0  0  0  0  1  0  0  0  0  0  0
  185.7590  177.3810  145.2060 C   0  0  0  0  0  2  0  0  0  0  0  0
  195.6350  174.6980  141.0480 C   0  0  0  0  0  2  0  0  0  0  0  0
  195.0990  172.4640  139.9970 C   0  0  0  0  0  0  0  0  0  0  0  0
  194.6880  173.7080  140.5610 N   0  0  0  0  0  2  0  0  0  0  0  0
  196.3100  172.2730  139.6920 O   0  0  0  0  0  0  0  0  0  0  0  0
  193.8840  170.9460  138.6740 O   0  0  0  0  0  0  0  0  0  0  0  0
  194.1060  171.3890  139.8330 C   0  0  0  0  0  0  0  0  0  0  0  0
  193.3550  170.8770  140.9500 N   0  0  0  0  0  0  0  0  0  0  0  0
  193.9580  169.2280  142.7030 C   0  0  0  0  0  2  0  0  0  0  0  0
  194.3440  169.0900  144.1480 C   0  0  0  0  0  3  0  0  0  0  0  0
  193.5540  171.7290  143.2970 C   0  0  0  0  0  2  0  0  0  0  0  0
  192.9840  171.0860  144.5660 C   0  0  0  0  0  2  0  0  0  0  0  0
  193.8790  169.9740  145.0370 C   0  0  0  0  0  3  0  0  0  0  0  0
  194.0290  170.6960  142.2470 C   0  0  2  0  0  3  0  0  0  0  0  0
  191.8320  169.1700  140.2350 C   0  0  0  0  0  2  0  0  0  0  0  0
  192.0140  170.3830  140.7470 C   0  0  0  0  0  0  0  0  0  0  0  0
  189.8640  173.8550  141.6160 O   0  0  0  0  0  0  0  0  0  0  0  0
  190.5460  171.9070  138.6070 C   0  0  0  0  0  2  0  0  0  0  0  0
  189.3660  172.3980  137.7810 C   0  0  0  0  0  2  0  0  0  0  0  0
  190.8470  171.2550  141.0130 C   0  0  0  0  0  0  0  0  0  0  0  0
  189.7140  173.4160  140.4420 C   0  0  0  0  0  0  0  0  0  0  0  0
  190.2540  171.1460  142.1210 O   0  0  0  0  0  0  0  0  0  0  0  0
  188.8000  174.1520  139.5070 C   0  0  0  0  0  2  0  0  0  0  0  0
  189.1630  173.8860  138.0470 C   0  0  2  0  0  3  0  0  0  0  0  0
  190.3570  172.1910  140.0320 N   0  0  0  0  0  0  0  0  0  0  0  0
  188.1930  174.4860  137.1240 N   0  0  0  0  0  2  0  0  0  0  0  0
  186.7800  176.3220  136.9340 F   0  0  0  0  0  0  0  0  0  0  0  0
  187.2980  175.4030  137.8240 C   0  0  0  0  0  2  0  0  0  0  0  0
  197.0300  173.5380  142.6590 O   0  0  0  0  0  0  0  0  0  0  0  0
  197.2950  170.7200  145.7610 C   0  0  0  0  0  3  0  0  0  0  0  0
  197.1120  172.5790  143.6740 C   0  0  0  0  0  0  0  0  0  0  0  0
  196.6880  172.9210  144.9620 C   0  0  0  0  0  3  0  0  0  0  0  0
  197.7090  170.3660  144.4750 C   0  0  0  0  0  3  0  0  0  0  0  0
  196.7820  171.9960  146.0020 C   0  0  0  0  0  3  0  0  0  0  0  0
  197.6160  171.2910  143.4330 C   0  0  0  0  0  3  0  0  0  0  0  0
  1 22  1  6  0  0  0
  1 49  1  0  0  0  0
  1  2  1  0  0  0  0
  2  3  1  0  0  0  0
  4  2  2  0  0  0  0
  5 12  1  6  0  0  0
  5 16  1  0  0  0  0
  5 11  1  0  0  0  0
  6  3  1  1  0  0  0
  6  9  1  0  0  0  0
  6 14  1  0  0  0  0
  9  8  1  6  0  0  0
  9 10  1  0  0  0  0
 10 13  1  1  0  0  0
 11 10  1  0  0  0  0
 11  7  1  1  0  0  0
 14 11  1  0  0  0  0
 15  8  1  1  0  0  0
 15  5  1  0  0  0  0
 15 16  1  0  0  0  0
 17 16  1  0  0  0  0
 17 18  1  0  0  0  0
 19 18  1  0  0  0  0
 21 19  1  0  0  0  0
 21 20  1  0  0  0  0
 23 24  1  0  0  0  0
 24 22  1  0  0  0  0
 25 23  2  0  0  0  0
 26 27  2  0  0  0  0
 27 23  1  0  0  0  0
 27 28  1  0  0  0  0
 29 30  1  0  0  0  0
 30 33  2  0  0  0  0
 31 32  1  0  0  0  0
 32 33  1  0  0  0  0
 34 28  1  6  0  0  0
 34 29  1  0  0  0  0
 34 31  1  0  0  0  0
 35 36  2  0  0  0  0
 36 28  1  0  0  0  0
 36 40  1  0  0  0  0
 38 45  1  0  0  0  0
 39 44  1  0  0  0  0
 39 38  1  0  0  0  0
 40 42  2  0  0  0  0
 41 37  2  0  0  0  0
 43 41  1  0  0  0  0
 44 46  1  6  0  0  0
 44 43  1  0  0  0  0
 45 41  1  0  0  0  0
 45 40  1  0  0  0  0
 46 48  1  0  0  0  0
 47 48  1  0  0  0  0
 49 51  1  0  0  0  0
 50 54  1  0  0  0  0
 51 52  1  0  0  0  0
 52 54  2  0  0  0  0
 53 50  2  0  0  0  0
 55 51  2  0  0  0  0
 55 53  1  0  0  0  0
M  END
>  <MODEL>
1

>  <REMARK>
 VINA RESULT:      -6.3      0.000      0.000
  Name = 
  16 active torsions:
  status: ('A' for Active; 'I' for Inactive)
    1  A    between atoms: C_3  and  C_25
    2  A    between atoms: C_3  and  C_38
    3  A    between atoms: C_4  and  N_37
    4  A    between atoms: C_4  and  C_54
    5  A    between atoms: C_6  and  N_22
    6  A    between atoms: C_8  and  C_54
    7  A    between atoms: N_10  and  C_47
    8  A    between atoms: N_10  and  C_48
    9  A    between atoms: C_19  and  C_35
   10  A    between atoms: C_26  and  N_45
   11  A    between atoms: C_27  and  O_51
   12  A    between atoms: C_29  and  C_38
   13  A    between atoms: C_29  and  N_53
   14  A    between atoms: C_33  and  C_49
   15  A    between atoms: N_45  and  C_49
   16  A    between atoms: O_51  and  C_54
                            x       y       z     vdW  Elec       q    Type
                         _______ _______ _______ _____ _____    ______ ____

>  <TORSDO>
F 16

$$$$
=
 OpenBabel11052419393D

 55 60  0  0  1  0  0  0  0  0999 V2000
  190.6230  173.0110  141.4020 C   0  0  1  0  0  3  0  0  0  0  0  0
  191.4070  174.1620  141.9660 C   0  0  0  0  0  0  0  0  0  0  0  0
  190.8090  175.2050  142.7500 N   0  0  0  0  0  2  0  0  0  0  0  0
  192.6580  174.1600  141.8130 O   0  0  0  0  0  0  0  0  0  0  0  0
  186.8960  176.7950  143.6460 C   0  0  2  0  0  0  0  0  0  0  0  0
  189.3830  175.4940  142.7980 C   0  0  2  0  0  3  0  0  0  0  0  0
  188.4220  177.6840  145.2830 F   0  0  0  0  0  0  0  0  0  0  0  0
  187.8070  176.6440  141.3310 O   0  0  0  0  0  0  0  0  0  0  0  0
  189.0840  176.7370  141.9600 C   0  0  1  0  0  3  0  0  0  0  0  0
  189.0480  177.8270  142.9840 C   0  0  1  0  0  3  0  0  0  0  0  0
  188.3580  177.0360  144.0620 C   0  0  2  0  0  0  0  0  0  0  0  0
  186.0540  176.1070  144.5250 O   0  0  0  0  0  1  0  0  0  0  0  0
  190.3470  178.1690  143.3730 O   0  0  0  0  0  1  0  0  0  0  0  0
  189.0090  175.7880  144.1280 O   0  0  0  0  0  0  0  0  0  0  0  0
  186.7030  176.4380  142.2230 C   0  0  2  0  0  3  0  0  0  0  0  0
  186.2430  177.7570  142.7270 N   0  0  0  0  0  0  0  0  0  0  0  0
  184.7920  177.6740  142.8050 C   0  0  0  0  0  2  0  0  0  0  0  0
  184.2600  178.8580  143.5850 C   0  0  0  0  0  2  0  0  0  0  0  0
  185.4170  179.6340  144.1740 C   0  0  0  0  0  2  0  0  0  0  0  0
  184.1840  178.7170  146.1130 C   0  0  0  0  0  1  0  0  0  0  0  0
  185.4440  179.4340  145.6750 C   0  0  0  0  0  2  0  0  0  0  0  0
  190.2670  172.0320  142.5120 C   0  0  0  0  0  2  0  0  0  0  0  0
  192.3920  170.8790  143.2420 C   0  0  0  0  0  0  0  0  0  0  0  0
  191.3960  171.8850  143.4150 N   0  0  0  0  0  2  0  0  0  0  0  0
  192.2060  169.9320  142.4260 O   0  0  0  0  0  0  0  0  0  0  0  0
  193.7350  170.4840  145.1320 O   0  0  0  0  0  0  0  0  0  0  0  0
  193.6610  170.9920  143.9810 C   0  0  0  0  0  0  0  0  0  0  0  0
  194.7880  171.7090  143.4440 N   0  0  0  0  0  0  0  0  0  0  0  0
  195.7490  170.2400  141.6910 C   0  0  0  0  0  2  0  0  0  0  0  0
  196.3540  170.2400  140.3150 C   0  0  0  0  0  3  0  0  0  0  0  0
  195.8580  172.8320  141.4760 C   0  0  0  0  0  2  0  0  0  0  0  0
  197.2030  172.4810  140.8310 C   0  0  0  0  0  2  0  0  0  0  0  0
  197.0490  171.3060  139.9060 C   0  0  0  0  0  3  0  0  0  0  0  0
  195.0930  171.5960  142.0070 C   0  0  2  0  0  3  0  0  0  0  0  0
  196.5300  171.6640  145.0880 C   0  0  0  0  0  2  0  0  0  0  0  0
  195.7030  172.3810  144.3350 C   0  0  0  0  0  0  0  0  0  0  0  0
  194.8630  176.3660  143.4140 O   0  0  0  0  0  0  0  0  0  0  0  0
  193.4180  173.8520  145.6290 C   0  0  0  0  0  2  0  0  0  0  0  0
  192.7130  174.8070  146.5800 C   0  0  0  0  0  2  0  0  0  0  0  0
  195.6540  173.8530  144.4870 C   0  0  0  0  0  0  0  0  0  0  0  0
  194.2000  175.8920  144.3780 C   0  0  0  0  0  0  0  0  0  0  0  0
  196.7200  174.5100  144.3360 O   0  0  0  0  0  0  0  0  0  0  0  0
  193.2160  176.7780  145.0840 C   0  0  0  0  0  2  0  0  0  0  0  0
  192.1250  175.9620  145.7750 C   0  0  2  0  0  3  0  0  0  0  0  0
  194.4370  174.5430  144.8340 N   0  0  0  0  0  0  0  0  0  0  0  0
  191.2390  176.8060  146.5840 N   0  0  0  0  0  2  0  0  0  0  0  0
  189.4670  175.4960  147.3250 F   0  0  0  0  0  0  0  0  0  0  0  0
  190.6720  176.0550  147.7010 C   0  0  0  0  0  2  0  0  0  0  0  0
  189.4520  173.4540  140.7210 O   0  0  0  0  0  0  0  0  0  0  0  0
  189.4030  174.2220  136.5940 C   0  0  0  0  0  3  0  0  0  0  0  0
  189.4090  173.7020  139.3450 C   0  0  0  0  0  0  0  0  0  0  0  0
  190.5460  173.4370  138.5760 C   0  0  0  0  0  3  0  0  0  0  0  0
  188.2590  174.4770  137.3530 C   0  0  0  0  0  3  0  0  0  0  0  0
  190.5450  173.6990  137.2050 C   0  0  0  0  0  3  0  0  0  0  0  0
  188.2600  174.2160  138.7250 C   0  0  0  0  0  3  0  0  0  0  0  0
  1  2  1  0  0  0  0
  1 22  1  1  0  0  0
  2  3  1  0  0  0  0
  4  2  2  0  0  0  0
  5 11  1  0  0  0  0
  5 12  1  1  0  0  0
  6  3  1  1  0  0  0
  6 14  1  0  0  0  0
  9  8  1  1  0  0  0
  9  6  1  0  0  0  0
  9 10  1  0  0  0  0
 10 13  1  1  0  0  0
 10 11  1  0  0  0  0
 11 14  1  0  0  0  0
 11  7  1  1  0  0  0
 15  8  1  6  0  0  0
 15 16  1  0  0  0  0
 15  5  1  0  0  0  0
 16 17  1  0  0  0  0
 16  5  1  0  0  0  0
 17 18  1  0  0  0  0
 18 19  1  0  0  0  0
 19 21  1  0  0  0  0
 21 20  1  0  0  0  0
 22 24  1  0  0  0  0
 23 24  1  0  0  0  0
 23 27  1  0  0  0  0
 25 23  2  0  0  0  0
 27 26  2  0  0  0  0
 28 27  1  0  0  0  0
 28 36  1  0  0  0  0
 29 34  1  0  0  0  0
 30 29  1  0  0  0  0
 31 34  1  0  0  0  0
 32 31  1  0  0  0  0
 33 30  2  0  0  0  0
 33 32  1  0  0  0  0
 34 28  1  1  0  0  0
 36 40  1  0  0  0  0
 36 35  2  0  0  0  0
 37 41  2  0  0  0  0
 38 39  1  0  0  0  0
 40 45  1  0  0  0  0
 41 45  1  0  0  0  0
 41 43  1  0  0  0  0
 42 40  2  0  0  0  0
 43 44  1  0  0  0  0
 44 39  1  0  0  0  0
 44 46  1  1  0  0  0
 45 38  1  0  0  0  0
 46 48  1  0  0  0  0
 47 48  1  0  0  0  0
 49  1  1  0  0  0  0
 50 54  2  0  0  0  0
 50 53  1  0  0  0  0
 51 49  1  0  0  0  0
 52 51  2  0  0  0  0
 53 55  2  0  0  0  0
 54 52  1  0  0  0  0
 55 51  1  0  0  0  0
M  END
>  <MODEL>
2

>  <REMARK>
 VINA RESULT:      -6.3      2.568      6.689
  Name = 
  16 active torsions:
  status: ('A' for Active; 'I' for Inactive)
    1  A    between atoms: C_3  and  C_25
    2  A    between atoms: C_3  and  C_38
    3  A    between atoms: C_4  and  N_37
    4  A    between atoms: C_4  and  C_54
    5  A    between atoms: C_6  and  N_22
    6  A    between atoms: C_8  and  C_54
    7  A    between atoms: N_10  and  C_47
    8  A    between atoms: N_10  and  C_48
    9  A    between atoms: C_19  and  C_35
   10  A    between atoms: C_26  and  N_45
   11  A    between atoms: C_27  and  O_51
   12  A    between atoms: C_29  and  C_38
   13  A    between atoms: C_29  and  N_53
   14  A    between atoms: C_33  and  C_49
   15  A    between atoms: N_45  and  C_49
   16  A    between atoms: O_51  and  C_54
                            x       y       z     vdW  Elec       q    Type
                         _______ _______ _______ _____ _____    ______ ____

>  <TORSDO>
F 16

$$$$
=
 OpenBabel11052419393D

 55 60  0  0  1  0  0  0  0  0999 V2000
  196.1460  173.8020  142.7480 C   0  0  1  0  0  3  0  0  0  0  0  0
  196.7600  174.7930  143.6960 C   0  0  0  0  0  0  0  0  0  0  0  0
  196.1010  175.2490  144.8870 N   0  0  0  0  0  2  0  0  0  0  0  0
  197.9410  175.1730  143.4740 O   0  0  0  0  0  0  0  0  0  0  0  0
  192.0560  175.7210  146.3200 C   0  0  2  0  0  0  0  0  0  0  0  0
  194.6740  175.1190  145.1470 C   0  0  2  0  0  3  0  0  0  0  0  0
  193.4600  177.1510  147.6550 F   0  0  0  0  0  0  0  0  0  0  0  0
  192.6410  175.6350  143.8990 O   0  0  0  0  0  0  0  0  0  0  0  0
  193.9070  176.1460  144.3140 C   0  0  1  0  0  3  0  0  0  0  0  0
  193.6910  177.2640  145.2820 C   0  0  1  0  0  3  0  0  0  0  0  0
  193.4240  176.4070  146.4890 C   0  0  2  0  0  0  0  0  0  0  0  0
  191.5860  174.9010  147.3510 O   0  0  0  0  0  1  0  0  0  0  0  0
  194.8700  177.9980  145.4460 O   0  0  0  0  0  1  0  0  0  0  0  0
  194.4180  175.4090  146.5060 O   0  0  0  0  0  0  0  0  0  0  0  0
  191.7820  175.2000  144.9630 C   0  0  2  0  0  3  0  0  0  0  0  0
  191.0260  176.3700  145.4760 N   0  0  0  0  0  0  0  0  0  0  0  0
  189.6900  175.8820  145.7850 C   0  0  0  0  0  2  0  0  0  0  0  0
  188.7690  177.0570  146.0380 C   0  0  0  0  0  2  0  0  0  0  0  0
  187.3770  176.5490  146.3450 C   0  0  0  0  0  2  0  0  0  0  0  0
  185.0240  177.2830  146.5470 C   0  0  0  0  0  1  0  0  0  0  0  0
  186.3570  177.5740  145.8930 C   0  0  0  0  0  2  0  0  0  0  0  0
  196.1210  174.3790  141.3390 C   0  0  0  0  0  2  0  0  0  0  0  0
  195.0650  172.6800  139.7970 C   0  0  0  0  0  0  0  0  0  0  0  0
  194.9790  173.8460  140.6140 N   0  0  0  0  0  2  0  0  0  0  0  0
  196.1920  172.1970  139.4920 O   0  0  0  0  0  0  0  0  0  0  0  0
  193.6600  171.7820  138.1380 O   0  0  0  0  0  0  0  0  0  0  0  0
  193.8230  172.0150  139.3660 C   0  0  0  0  0  0  0  0  0  0  0  0
  192.7820  171.6770  140.3020 N   0  0  0  0  0  0  0  0  0  0  0  0
  192.6190  169.7310  141.8320 C   0  0  0  0  0  2  0  0  0  0  0  0
  192.7000  169.3210  143.2760 C   0  0  0  0  0  3  0  0  0  0  0  0
  192.7910  172.1570  142.7600 C   0  0  0  0  0  2  0  0  0  0  0  0
  191.8610  171.5590  143.8220 C   0  0  0  0  0  2  0  0  0  0  0  0
  192.3370  170.1910  144.2240 C   0  0  0  0  0  3  0  0  0  0  0  0
  193.1510  171.1620  141.6310 C   0  0  2  0  0  3  0  0  0  0  0  0
  190.7690  170.5210  139.7090 C   0  0  0  0  0  2  0  0  0  0  0  0
  191.4040  171.6760  139.8730 C   0  0  0  0  0  0  0  0  0  0  0  0
  188.4250  174.2500  138.4800 O   0  0  0  0  0  0  0  0  0  0  0  0
  189.6280  173.2030  141.7630 C   0  0  0  0  0  2  0  0  0  0  0  0
  189.1000  174.3900  142.5550 C   0  0  0  0  0  2  0  0  0  0  0  0
  190.7300  172.9470  139.5210 C   0  0  0  0  0  0  0  0  0  0  0  0
  188.6250  174.2920  139.7260 C   0  0  0  0  0  0  0  0  0  0  0  0
  191.1260  173.5770  138.5030 O   0  0  0  0  0  0  0  0  0  0  0  0
  187.8090  175.2370  140.5570 C   0  0  0  0  0  2  0  0  0  0  0  0
  187.7280  174.7760  142.0120 C   0  0  2  0  0  3  0  0  0  0  0  0
  189.6660  173.4930  140.3260 N   0  0  0  0  0  0  0  0  0  0  0  0
  187.0530  175.7620  142.8620 N   0  0  0  0  0  2  0  0  0  0  0  0
  188.4490  177.6090  142.6500 F   0  0  0  0  0  0  0  0  0  0  0  0
  187.2030  177.1120  142.3240 C   0  0  0  0  0  2  0  0  0  0  0  0
  196.8330  172.5540  142.7720 O   0  0  0  0  0  0  0  0  0  0  0  0
  195.7630  169.4020  145.3310 C   0  0  0  0  0  3  0  0  0  0  0  0
  196.4660  171.4900  143.6030 C   0  0  0  0  0  0  0  0  0  0  0  0
  196.0210  171.7670  144.8990 C   0  0  0  0  0  3  0  0  0  0  0  0
  196.1930  169.1160  144.0330 C   0  0  0  0  0  3  0  0  0  0  0  0
  195.6740  170.7270  145.7620 C   0  0  0  0  0  3  0  0  0  0  0  0
  196.5420  170.1570  143.1700 C   0  0  0  0  0  3  0  0  0  0  0  0
  1 22  1  6  0  0  0
  1 49  1  0  0  0  0
  1  2  1  0  0  0  0
  2  3  1  0  0  0  0
  4  2  2  0  0  0  0
  5 11  1  0  0  0  0
  5 12  1  1  0  0  0
  6  3  1  1  0  0  0
  6 14  1  0  0  0  0
  9  8  1  1  0  0  0
  9  6  1  0  0  0  0
  9 10  1  0  0  0  0
 10 13  1  1  0  0  0
 10 11  1  0  0  0  0
 11 14  1  0  0  0  0
 11  7  1  1  0  0  0
 15  8  1  6  0  0  0
 15 16  1  0  0  0  0
 15  5  1  0  0  0  0
 16 17  1  0  0  0  0
 16  5  1  0  0  0  0
 17 18  1  0  0  0  0
 18 19  1  0  0  0  0
 21 19  1  0  0  0  0
 21 20  1  0  0  0  0
 23 24  1  0  0  0  0
 24 22  1  0  0  0  0
 25 23  2  0  0  0  0
 26 27  2  0  0  0  0
 27 23  1  0  0  0  0
 27 28  1  0  0  0  0
 29 30  1  0  0  0  0
 30 33  2  0  0  0  0
 31 32  1  0  0  0  0
 32 33  1  0  0  0  0
 34 28  1  6  0  0  0
 34 29  1  0  0  0  0
 34 31  1  0  0  0  0
 35 36  2  0  0  0  0
 36 28  1  0  0  0  0
 37 41  2  0  0  0  0
 38 39  1  0  0  0  0
 40 36  1  0  0  0  0
 40 45  1  0  0  0  0
 41 45  1  0  0  0  0
 41 43  1  0  0  0  0
 42 40  2  0  0  0  0
 43 44  1  0  0  0  0
 44 39  1  0  0  0  0
 44 46  1  1  0  0  0
 45 38  1  0  0  0  0
 48 47  1  0  0  0  0
 48 46  1  0  0  0  0
 49 51  1  0  0  0  0
 50 54  1  0  0  0  0
 51 52  1  0  0  0  0
 52 54  2  0  0  0  0
 53 50  2  0  0  0  0
 55 51  2  0  0  0  0
 55 53  1  0  0  0  0
M  END
>  <MODEL>
3

>  <REMARK>
 VINA RESULT:      -6.2      1.828      2.311
  Name = 
  16 active torsions:
  status: ('A' for Active; 'I' for Inactive)
    1  A    between atoms: C_3  and  C_25
    2  A    between atoms: C_3  and  C_38
    3  A    between atoms: C_4  and  N_37
    4  A    between atoms: C_4  and  C_54
    5  A    between atoms: C_6  and  N_22
    6  A    between atoms: C_8  and  C_54
    7  A    between atoms: N_10  and  C_47
    8  A    between atoms: N_10  and  C_48
    9  A    between atoms: C_19  and  C_35
   10  A    between atoms: C_26  and  N_45
   11  A    between atoms: C_27  and  O_51
   12  A    between atoms: C_29  and  C_38
   13  A    between atoms: C_29  and  N_53
   14  A    between atoms: C_33  and  C_49
   15  A    between atoms: N_45  and  C_49
   16  A    between atoms: O_51  and  C_54
                            x       y       z     vdW  Elec       q    Type
                         _______ _______ _______ _____ _____    ______ ____

>  <TORSDO>
F 16

$$$$
=
 OpenBabel11052419393D

 55 60  0  0  1  0  0  0  0  0999 V2000
  188.4810  176.4920  141.9380 C   0  0  1  0  0  3  0  0  0  0  0  0
  188.2120  175.6480  143.1510 C   0  0  0  0  0  0  0  0  0  0  0  0
  189.1100  175.5750  144.2680 N   0  0  0  0  0  2  0  0  0  0  0  0
  187.1060  175.0460  143.2220 O   0  0  0  0  0  0  0  0  0  0  0  0
  193.3440  176.0370  144.9760 C   0  0  2  0  0  0  0  0  0  0  0  0
  190.5070  175.9840  144.2380 C   0  0  2  0  0  3  0  0  0  0  0  0
  192.4720  174.6410  146.7340 F   0  0  0  0  0  0  0  0  0  0  0  0
  192.3790  175.6110  142.7170 O   0  0  0  0  0  0  0  0  0  0  0  0
  191.3180  174.9740  143.4270 C   0  0  1  0  0  3  0  0  0  0  0  0
  191.8970  174.0880  144.4840 C   0  0  1  0  0  3  0  0  0  0  0  0
  192.1790  175.1710  145.4900 C   0  0  2  0  0  0  0  0  0  0  0  0
  193.8010  177.0880  145.7780 O   0  0  0  0  0  1  0  0  0  0  0  0
  190.9230  173.2060  144.9640 O   0  0  0  0  0  1  0  0  0  0  0  0
  191.0250  175.9760  145.5520 O   0  0  0  0  0  0  0  0  0  0  0  0
  193.2940  176.3580  143.5320 C   0  0  2  0  0  3  0  0  0  0  0  0
  194.3340  175.4350  144.0530 N   0  0  0  0  0  0  0  0  0  0  0  0
  195.5810  176.1850  144.0380 C   0  0  0  0  0  2  0  0  0  0  0  0
  196.7500  175.2220  144.0310 C   0  0  0  0  0  2  0  0  0  0  0  0
  197.6860  175.5750  142.8960 C   0  0  0  0  0  2  0  0  0  0  0  0
  197.3790  175.3500  140.4520 C   0  0  0  0  0  1  0  0  0  0  0  0
  196.8760  176.0380  141.7030 C   0  0  0  0  0  2  0  0  0  0  0  0
  187.9210  175.8100  140.6970 C   0  0  0  0  0  2  0  0  0  0  0  0
  188.7310  173.8960  139.2620 C   0  0  0  0  0  0  0  0  0  0  0  0
  188.5370  174.5030  140.5380 N   0  0  0  0  0  2  0  0  0  0  0  0
  188.1680  174.3730  138.2370 O   0  0  0  0  0  0  0  0  0  0  0  0
  189.1520  171.6080  138.9140 O   0  0  0  0  0  0  0  0  0  0  0  0
  189.6430  172.7450  139.1490 C   0  0  0  0  0  0  0  0  0  0  0  0
  191.0620  172.8810  139.3490 N   0  0  0  0  0  0  0  0  0  0  0  0
  191.8330  174.0350  137.2920 C   0  0  0  0  0  2  0  0  0  0  0  0
  192.8010  175.0610  136.7740 C   0  0  0  0  0  3  0  0  0  0  0  0
  193.0950  174.3310  139.5480 C   0  0  0  0  0  2  0  0  0  0  0  0
  194.2940  174.3790  138.5950 C   0  0  0  0  0  2  0  0  0  0  0  0
  193.9740  175.2240  137.3940 C   0  0  0  0  0  3  0  0  0  0  0  0
  191.7500  174.0750  138.8290 C   0  0  2  0  0  3  0  0  0  0  0  0
  192.3720  170.8940  139.0730 C   0  0  0  0  0  2  0  0  0  0  0  0
  191.8200  171.7800  139.8940 C   0  0  0  0  0  0  0  0  0  0  0  0
  192.2630  169.7830  143.5350 O   0  0  0  0  0  0  0  0  0  0  0  0
  194.3880  171.9040  141.4590 C   0  0  0  0  0  2  0  0  0  0  0  0
  195.3570  172.3390  142.5480 C   0  0  0  0  0  2  0  0  0  0  0  0
  191.9000  171.5800  141.3590 C   0  0  0  0  0  0  0  0  0  0  0  0
  193.2130  170.5590  143.2340 C   0  0  0  0  0  0  0  0  0  0  0  0
  190.8360  171.6430  142.0350 O   0  0  0  0  0  0  0  0  0  0  0  0
  194.3650  170.6930  144.1850 C   0  0  0  0  0  2  0  0  0  0  0  0
  195.6330  171.1540  143.4680 C   0  0  2  0  0  3  0  0  0  0  0  0
  193.1550  171.3520  142.0290 N   0  0  0  0  0  0  0  0  0  0  0  0
  196.7270  171.4240  144.4070 N   0  0  0  0  0  2  0  0  0  0  0  0
  197.1890  172.5850  146.3670 F   0  0  0  0  0  0  0  0  0  0  0  0
  196.2120  171.8750  145.6970 C   0  0  0  0  0  2  0  0  0  0  0  0
  187.9460  177.8050  142.0790 O   0  0  0  0  0  0  0  0  0  0  0  0
  184.2480  178.6440  143.8800 C   0  0  0  0  0  3  0  0  0  0  0  0
  186.7240  178.0750  142.7030 C   0  0  0  0  0  0  0  0  0  0  0  0
  185.5420  177.9090  141.9740 C   0  0  0  0  0  3  0  0  0  0  0  0
  185.4220  178.8000  144.6200 C   0  0  0  0  0  3  0  0  0  0  0  0
  184.3080  178.1950  142.5600 C   0  0  0  0  0  3  0  0  0  0  0  0
  186.6570  178.5140  144.0340 C   0  0  0  0  0  3  0  0  0  0  0  0
  1 22  1  6  0  0  0
  1 49  1  0  0  0  0
  1  2  1  0  0  0  0
  2  4  2  0  0  0  0
  2  3  1  0  0  0  0
  5 11  1  0  0  0  0
  5 12  1  1  0  0  0
  6  3  1  1  0  0  0
  6 14  1  0  0  0  0
  9  8  1  1  0  0  0
  9  6  1  0  0  0  0
  9 10  1  0  0  0  0
 10 13  1  1  0  0  0
 10 11  1  0  0  0  0
 11 14  1  0  0  0  0
 11  7  1  1  0  0  0
 15  8  1  6  0  0  0
 15 16  1  0  0  0  0
 15  5  1  0  0  0  0
 16  5  1  0  0  0  0
 17 16  1  0  0  0  0
 18 17  1  0  0  0  0
 19 18  1  0  0  0  0
 20 21  1  0  0  0  0
 21 19  1  0  0  0  0
 23 24  1  0  0  0  0
 24 22  1  0  0  0  0
 25 23  2  0  0  0  0
 26 27  2  0  0  0  0
 27 23  1  0  0  0  0
 27 28  1  0  0  0  0
 28 36  1  0  0  0  0
 29 34  1  0  0  0  0
 30 29  1  0  0  0  0
 30 33  2  0  0  0  0
 32 31  1  0  0  0  0
 33 32  1  0  0  0  0
 34 28  1  1  0  0  0
 34 31  1  0  0  0  0
 35 36  2  0  0  0  0
 36 40  1  0  0  0  0
 38 45  1  0  0  0  0
 38 39  1  0  0  0  0
 39 44  1  0  0  0  0
 40 45  1  0  0  0  0
 40 42  2  0  0  0  0
 41 37  2  0  0  0  0
 41 43  1  0  0  0  0
 44 43  1  0  0  0  0
 44 46  1  1  0  0  0
 45 41  1  0  0  0  0
 46 48  1  0  0  0  0
 48 47  1  0  0  0  0
 49 51  1  0  0  0  0
 50 53  1  0  0  0  0
 51 55  1  0  0  0  0
 52 54  1  0  0  0  0
 52 51  2  0  0  0  0
 54 50  2  0  0  0  0
 55 53  2  0  0  0  0
M  END
>  <MODEL>
4

>  <REMARK>
 VINA RESULT:      -6.1      2.633      8.098
  Name = 
  16 active torsions:
  status: ('A' for Active; 'I' for Inactive)
    1  A    between atoms: C_3  and  C_25
    2  A    between atoms: C_3  and  C_38
    3  A    between atoms: C_4  and  N_37
    4  A    between atoms: C_4  and  C_54
    5  A    between atoms: C_6  and  N_22
    6  A    between atoms: C_8  and  C_54
    7  A    between atoms: N_10  and  C_47
    8  A    between atoms: N_10  and  C_48
    9  A    between atoms: C_19  and  C_35
   10  A    between atoms: C_26  and  N_45
   11  A    between atoms: C_27  and  O_51
   12  A    between atoms: C_29  and  C_38
   13  A    between atoms: C_29  and  N_53
   14  A    between atoms: C_33  and  C_49
   15  A    between atoms: N_45  and  C_49
   16  A    between atoms: O_51  and  C_54
                            x       y       z     vdW  Elec       q    Type
                         _______ _______ _______ _____ _____    ______ ____

>  <TORSDO>
F 16

$$$$
=
 OpenBabel11052419393D

 55 60  0  0  1  0  0  0  0  0999 V2000
  189.3810  176.7480  145.5450 C   0  0  1  0  0  3  0  0  0  0  0  0
  189.7730  175.3520  145.9360 C   0  0  0  0  0  0  0  0  0  0  0  0
  191.1350  174.8980  145.9550 N   0  0  0  0  0  2  0  0  0  0  0  0
  188.8700  174.5750  146.3470 O   0  0  0  0  0  0  0  0  0  0  0  0
  195.0050  176.3670  144.7270 C   0  0  2  0  0  0  0  0  0  0  0  0
  192.2400  175.5620  145.2780 C   0  0  2  0  0  3  0  0  0  0  0  0
  195.2920  175.2920  146.8620 F   0  0  0  0  0  0  0  0  0  0  0  0
  193.4290  175.2180  143.1740 O   0  0  0  0  0  0  0  0  0  0  0  0
  192.9400  174.5710  144.3480 C   0  0  1  0  0  3  0  0  0  0  0  0
  194.0990  174.1050  145.1690 C   0  0  1  0  0  3  0  0  0  0  0  0
  194.4170  175.4330  145.8000 C   0  0  2  0  0  0  0  0  0  0  0  0
  195.4100  177.6510  145.1040 O   0  0  0  0  0  1  0  0  0  0  0  0
  193.6710  173.1870  146.1340 O   0  0  0  0  0  1  0  0  0  0  0  0
  193.1930  175.9790  146.2350 O   0  0  0  0  0  0  0  0  0  0  0  0
  194.3290  176.3110  143.4120 C   0  0  2  0  0  3  0  0  0  0  0  0
  195.7050  175.7730  143.5630 N   0  0  0  0  0  0  0  0  0  0  0  0
  196.5860  176.7340  142.9170 C   0  0  0  0  0  2  0  0  0  0  0  0
  197.8930  176.0580  142.5580 C   0  0  0  0  0  2  0  0  0  0  0  0
  197.6390  174.9900  141.5170 C   0  0  0  0  0  2  0  0  0  0  0  0
  196.0800  175.2330  139.6120 C   0  0  0  0  0  1  0  0  0  0  0  0
  197.4260  175.6450  140.1680 C   0  0  0  0  0  2  0  0  0  0  0  0
  188.7600  176.7430  144.1550 C   0  0  0  0  0  2  0  0  0  0  0  0
  189.6540  174.9050  142.6710 C   0  0  0  0  0  0  0  0  0  0  0  0
  188.7250  175.3830  143.6410 N   0  0  0  0  0  2  0  0  0  0  0  0
  190.4030  175.7140  142.0530 O   0  0  0  0  0  0  0  0  0  0  0  0
  188.9570  172.6870  143.0270 O   0  0  0  0  0  0  0  0  0  0  0  0
  189.7710  173.4540  142.4450 C   0  0  0  0  0  0  0  0  0  0  0  0
  190.8140  172.8980  141.6240 N   0  0  0  0  0  0  0  0  0  0  0  0
  190.2810  173.2040  139.2200 C   0  0  0  0  0  2  0  0  0  0  0  0
  190.8540  173.6440  137.9030 C   0  0  0  0  0  3  0  0  0  0  0  0
  192.7180  173.4600  140.0960 C   0  0  0  0  0  2  0  0  0  0  0  0
  193.0190  172.8400  138.7270 C   0  0  0  0  0  2  0  0  0  0  0  0
  192.1590  173.4690  137.6670 C   0  0  0  0  0  3  0  0  0  0  0  0
  191.2050  173.5960  140.3870 C   0  0  2  0  0  3  0  0  0  0  0  0
  191.0750  170.5730  141.1030 C   0  0  0  0  0  2  0  0  0  0  0  0
  191.3400  171.5870  141.9210 C   0  0  0  0  0  0  0  0  0  0  0  0
  193.4120  169.4950  144.8820 O   0  0  0  0  0  0  0  0  0  0  0  0
  194.3390  171.7100  142.1340 C   0  0  0  0  0  2  0  0  0  0  0  0
  195.7000  172.1310  142.6690 C   0  0  0  0  0  2  0  0  0  0  0  0
  192.0840  171.3460  143.1780 C   0  0  0  0  0  0  0  0  0  0  0  0
  194.1150  170.2960  144.2040 C   0  0  0  0  0  0  0  0  0  0  0  0
  191.4510  171.3720  144.2680 O   0  0  0  0  0  0  0  0  0  0  0  0
  195.5750  170.4230  144.5240 C   0  0  0  0  0  2  0  0  0  0  0  0
  196.3700  170.9250  143.3190 C   0  0  2  0  0  3  0  0  0  0  0  0
  193.5080  171.1210  143.1880 N   0  0  0  0  0  0  0  0  0  0  0  0
  197.7730  171.1870  143.6590 N   0  0  0  0  0  2  0  0  0  0  0  0
  197.4390  172.5420  145.5180 F   0  0  0  0  0  0  0  0  0  0  0  0
  197.9350  172.5210  144.2300 C   0  0  0  0  0  2  0  0  0  0  0  0
  188.4930  177.3320  146.4940 O   0  0  0  0  0  0  0  0  0  0  0  0
  184.4540  178.1220  145.6640 C   0  0  0  0  0  3  0  0  0  0  0  0
  187.1530  177.6230  146.2170 C   0  0  0  0  0  0  0  0  0  0  0  0
  186.1570  176.8300  146.7950 C   0  0  0  0  0  3  0  0  0  0  0  0
  185.4420  178.9270  145.0930 C   0  0  0  0  0  3  0  0  0  0  0  0
  184.8120  177.0760  146.5170 C   0  0  0  0  0  3  0  0  0  0  0  0
  186.7880  178.6810  145.3700 C   0  0  0  0  0  3  0  0  0  0  0  0
  1 22  1  6  0  0  0
  1  2  1  0  0  0  0
  1 49  1  0  0  0  0
  2  3  1  0  0  0  0
  2  4  2  0  0  0  0
  5 12  1  1  0  0  0
  5 11  1  0  0  0  0
  6  3  1  1  0  0  0
  6 14  1  0  0  0  0
  9  8  1  6  0  0  0
  9 10  1  0  0  0  0
  9  6  1  0  0  0  0
 10 11  1  0  0  0  0
 10 13  1  1  0  0  0
 11 14  1  0  0  0  0
 11  7  1  1  0  0  0
 15  8  1  1  0  0  0
 15 16  1  0  0  0  0
 15  5  1  0  0  0  0
 16  5  1  0  0  0  0
 17 16  1  0  0  0  0
 18 17  1  0  0  0  0
 19 18  1  0  0  0  0
 20 21  1  0  0  0  0
 21 19  1  0  0  0  0
 23 24  1  0  0  0  0
 24 22  1  0  0  0  0
 25 23  2  0  0  0  0
 27 23  1  0  0  0  0
 27 26  2  0  0  0  0
 28 36  1  0  0  0  0
 28 27  1  0  0  0  0
 29 34  1  0  0  0  0
 30 29  1  0  0  0  0
 31 34  1  0  0  0  0
 32 31  1  0  0  0  0
 33 30  2  0  0  0  0
 33 32  1  0  0  0  0
 34 28  1  1  0  0  0
 35 36  2  0  0  0  0
 36 40  1  0  0  0  0
 38 39  1  0  0  0  0
 38 45  1  0  0  0  0
 39 44  1  0  0  0  0
 40 45  1  0  0  0  0
 40 42  2  0  0  0  0
 41 43  1  0  0  0  0
 41 37  2  0  0  0  0
 44 46  1  1  0  0  0
 44 43  1  0  0  0  0
 45 41  1  0  0  0  0
 46 48  1  0  0  0  0
 48 47  1  0  0  0  0
 50 54  1  0  0  0  0
 51 49  1  0  0  0  0
 51 52  1  0  0  0  0
 53 55  1  0  0  0  0
 53 50  2  0  0  0  0
 54 52  2  0  0  0  0
 55 51  2  0  0  0  0
M  END
>  <MODEL>
5

>  <REMARK>
 VINA RESULT:      -6.0      2.879      8.094
  Name = 
  16 active torsions:
  status: ('A' for Active; 'I' for Inactive)
    1  A    between atoms: C_3  and  C_25
    2  A    between atoms: C_3  and  C_38
    3  A    between atoms: C_4  and  N_37
    4  A    between atoms: C_4  and  C_54
    5  A    between atoms: C_6  and  N_22
    6  A    between atoms: C_8  and  C_54
    7  A    between atoms: N_10  and  C_47
    8  A    between atoms: N_10  and  C_48
    9  A    between atoms: C_19  and  C_35
   10  A    between atoms: C_26  and  N_45
   11  A    between atoms: C_27  and  O_51
   12  A    between atoms: C_29  and  C_38
   13  A    between atoms: C_29  and  N_53
   14  A    between atoms: C_33  and  C_49
   15  A    between atoms: N_45  and  C_49
   16  A    between atoms: O_51  and  C_54
                            x       y       z     vdW  Elec       q    Type
                         _______ _______ _______ _____ _____    ______ ____

>  <TORSDO>
F 16

$$$$
=
 OpenBabel11052419393D

 55 60  0  0  1  0  0  0  0  0999 V2000
  195.5740  173.8060  142.9940 C   0  0  1  0  0  3  0  0  0  0  0  0
  195.9690  174.6190  144.1950 C   0  0  0  0  0  0  0  0  0  0  0  0
  195.0340  175.0290  145.2040 N   0  0  0  0  0  2  0  0  0  0  0  0
  197.1920  174.8750  144.3610 O   0  0  0  0  0  0  0  0  0  0  0  0
  190.7620  175.1910  145.8040 C   0  0  2  0  0  0  0  0  0  0  0  0
  193.5880  175.0440  145.0380 C   0  0  2  0  0  3  0  0  0  0  0  0
  191.7830  175.0130  147.9770 F   0  0  0  0  0  0  0  0  0  0  0  0
  191.9670  176.6620  144.1920 O   0  0  0  0  0  0  0  0  0  0  0  0
  193.0850  176.4880  145.0610 C   0  0  1  0  0  3  0  0  0  0  0  0
  192.6380  176.6610  146.4760 C   0  0  1  0  0  3  0  0  0  0  0  0
  192.0460  175.2880  146.6470 C   0  0  2  0  0  0  0  0  0  0  0  0
  190.0220  174.0050  145.8440 O   0  0  0  0  0  1  0  0  0  0  0  0
  193.7430  176.8330  147.3170 O   0  0  0  0  0  1  0  0  0  0  0  0
  192.9840  174.3750  146.1260 O   0  0  0  0  0  0  0  0  0  0  0  0
  190.8500  175.8020  144.4590 C   0  0  2  0  0  3  0  0  0  0  0  0
  190.0030  176.4280  145.5050 N   0  0  0  0  0  0  0  0  0  0  0  0
  188.6250  176.1390  145.1350 C   0  0  0  0  0  2  0  0  0  0  0  0
  187.6940  177.0590  145.8970 C   0  0  0  0  0  2  0  0  0  0  0  0
  186.9010  177.8960  144.9180 C   0  0  0  0  0  2  0  0  0  0  0  0
  185.1800  176.9030  146.3900 C   0  0  0  0  0  1  0  0  0  0  0  0
  185.4690  178.0080  145.3970 C   0  0  0  0  0  2  0  0  0  0  0  0
  195.3460  174.7230  141.8000 C   0  0  0  0  0  2  0  0  0  0  0  0
  194.3830  173.9030  139.6130 C   0  0  0  0  0  0  0  0  0  0  0  0
  194.2450  174.2150  140.9980 N   0  0  0  0  0  2  0  0  0  0  0  0
  195.4100  174.2720  138.9770 O   0  0  0  0  0  0  0  0  0  0  0  0
  192.6560  173.6270  138.0400 O   0  0  0  0  0  0  0  0  0  0  0  0
  193.3420  173.0950  138.9540 C   0  0  0  0  0  0  0  0  0  0  0  0
  193.0610  171.7430  139.3640 N   0  0  0  0  0  0  0  0  0  0  0  0
  194.9260  170.3690  138.4760 C   0  0  0  0  0  2  0  0  0  0  0  0
  195.8450  169.2260  138.8040 C   0  0  0  0  0  3  0  0  0  0  0  0
  193.7380  169.7380  140.7040 C   0  0  0  0  0  2  0  0  0  0  0  0
  194.0240  168.3280  140.1770 C   0  0  0  0  0  2  0  0  0  0  0  0
  195.4150  168.2520  139.6130 C   0  0  0  0  0  3  0  0  0  0  0  0
  194.1790  170.8570  139.7300 C   0  0  2  0  0  3  0  0  0  0  0  0
  191.3180  170.7140  138.0830 C   0  0  0  0  0  2  0  0  0  0  0  0
  191.7220  171.2200  139.2420 C   0  0  0  0  0  0  0  0  0  0  0  0
  190.2510  172.2670  143.0080 O   0  0  0  0  0  0  0  0  0  0  0  0
  189.8510  173.5480  139.6140 C   0  0  0  0  0  2  0  0  0  0  0  0
  188.5350  174.2800  139.8330 C   0  0  0  0  0  2  0  0  0  0  0  0
  190.7690  171.3360  140.3700 C   0  0  0  0  0  0  0  0  0  0  0  0
  189.7280  172.8880  142.0400 C   0  0  0  0  0  0  0  0  0  0  0  0
  190.5120  170.3060  141.0500 O   0  0  0  0  0  0  0  0  0  0  0  0
  188.6580  173.8990  142.3260 C   0  0  0  0  0  2  0  0  0  0  0  0
  188.5570  174.9370  141.2090 C   0  0  2  0  0  3  0  0  0  0  0  0
  190.1080  172.5780  140.6830 N   0  0  0  0  0  0  0  0  0  0  0  0
  187.4230  175.8470  141.4070 N   0  0  0  0  0  2  0  0  0  0  0  0
  189.0220  177.3690  142.1360 F   0  0  0  0  0  0  0  0  0  0  0  0
  187.8610  177.2410  141.4010 C   0  0  0  0  0  2  0  0  0  0  0  0
  196.5450  172.8090  142.6890 O   0  0  0  0  0  0  0  0  0  0  0  0
  196.0420  168.7150  143.4720 C   0  0  0  0  0  3  0  0  0  0  0  0
  196.3700  171.4510  142.9760 C   0  0  0  0  0  0  0  0  0  0  0  0
  197.2350  170.5200  142.3920 C   0  0  0  0  0  3  0  0  0  0  0  0
  195.1820  169.6380  144.0700 C   0  0  0  0  0  3  0  0  0  0  0  0
  197.0700  169.1570  142.6370 C   0  0  0  0  0  3  0  0  0  0  0  0
  195.3460  171.0030  143.8250 C   0  0  0  0  0  3  0  0  0  0  0  0
  1 22  1  6  0  0  0
  1  2  1  0  0  0  0
  2  4  2  0  0  0  0
  2  3  1  0  0  0  0
  5 12  1  1  0  0  0
  5 11  1  0  0  0  0
  6  9  1  0  0  0  0
  6  3  1  1  0  0  0
  6 14  1  0  0  0  0
  9  8  1  6  0  0  0
  9 10  1  0  0  0  0
 10 11  1  0  0  0  0
 10 13  1  1  0  0  0
 11  7  1  1  0  0  0
 14 11  1  0  0  0  0
 15  8  1  1  0  0  0
 15 16  1  0  0  0  0
 15  5  1  0  0  0  0
 16  5  1  0  0  0  0
 17 16  1  0  0  0  0
 17 18  1  0  0  0  0
 19 21  1  0  0  0  0
 19 18  1  0  0  0  0
 21 20  1  0  0  0  0
 23 24  1  0  0  0  0
 24 22  1  0  0  0  0
 25 23  2  0  0  0  0
 26 27  2  0  0  0  0
 27 28  1  0  0  0  0
 27 23  1  0  0  0  0
 29 30  1  0  0  0  0
 29 34  1  0  0  0  0
 30 33  2  0  0  0  0
 32 31  1  0  0  0  0
 33 32  1  0  0  0  0
 34 28  1  6  0  0  0
 34 31  1  0  0  0  0
 35 36  2  0  0  0  0
 36 28  1  0  0  0  0
 36 40  1  0  0  0  0
 38 39  1  0  0  0  0
 38 45  1  0  0  0  0
 39 44  1  0  0  0  0
 40 45  1  0  0  0  0
 40 42  2  0  0  0  0
 41 43  1  0  0  0  0
 41 37  2  0  0  0  0
 44 46  1  1  0  0  0
 44 43  1  0  0  0  0
 45 41  1  0  0  0  0
 48 46  1  0  0  0  0
 48 47  1  0  0  0  0
 49 51  1  0  0  0  0
 49  1  1  0  0  0  0
 50 53  1  0  0  0  0
 51 55  1  0  0  0  0
 52 54  1  0  0  0  0
 52 51  2  0  0  0  0
 54 50  2  0  0  0  0
 55 53  2  0  0  0  0
M  END
>  <MODEL>
6

>  <REMARK>
 VINA RESULT:      -6.0      1.855      2.562
  Name = 
  16 active torsions:
  status: ('A' for Active; 'I' for Inactive)
    1  A    between atoms: C_3  and  C_25
    2  A    between atoms: C_3  and  C_38
    3  A    between atoms: C_4  and  N_37
    4  A    between atoms: C_4  and  C_54
    5  A    between atoms: C_6  and  N_22
    6  A    between atoms: C_8  and  C_54
    7  A    between atoms: N_10  and  C_47
    8  A    between atoms: N_10  and  C_48
    9  A    between atoms: C_19  and  C_35
   10  A    between atoms: C_26  and  N_45
   11  A    between atoms: C_27  and  O_51
   12  A    between atoms: C_29  and  C_38
   13  A    between atoms: C_29  and  N_53
   14  A    between atoms: C_33  and  C_49
   15  A    between atoms: N_45  and  C_49
   16  A    between atoms: O_51  and  C_54
                            x       y       z     vdW  Elec       q    Type
                         _______ _______ _______ _____ _____    ______ ____

>  <TORSDO>
F 16

$$$$
=
 OpenBabel11052419393D

 55 60  0  0  1  0  0  0  0  0999 V2000
  189.0930  176.8380  143.2490 C   0  0  1  0  0  3  0  0  0  0  0  0
  189.2920  177.1550  144.7030 C   0  0  0  0  0  0  0  0  0  0  0  0
  190.5810  177.1450  145.3360 N   0  0  0  0  0  2  0  0  0  0  0  0
  188.2920  177.5280  145.3720 O   0  0  0  0  0  0  0  0  0  0  0  0
  194.6100  175.8650  144.4620 C   0  0  2  0  0  0  0  0  0  0  0  0
  191.7670  176.5000  144.7930 C   0  0  2  0  0  3  0  0  0  0  0  0
  194.7660  177.7620  145.9380 F   0  0  0  0  0  0  0  0  0  0  0  0
  192.7600  174.2780  144.9810 O   0  0  0  0  0  0  0  0  0  0  0  0
  192.2020  175.3640  145.7190 C   0  0  1  0  0  3  0  0  0  0  0  0
  193.2740  175.9990  146.5430 C   0  0  1  0  0  3  0  0  0  0  0  0
  193.8910  176.8130  145.4390 C   0  0  2  0  0  0  0  0  0  0  0  0
  195.2910  176.4160  143.3720 O   0  0  0  0  0  1  0  0  0  0  0  0
  192.7100  176.8300  147.5170 O   0  0  0  0  0  1  0  0  0  0  0  0
  192.8290  177.4310  144.7500 O   0  0  0  0  0  0  0  0  0  0  0  0
  193.8770  174.6190  144.1480 C   0  0  2  0  0  3  0  0  0  0  0  0
  195.1160  174.5660  144.9640 N   0  0  0  0  0  0  0  0  0  0  0  0
  196.1470  174.0180  144.0950 C   0  0  0  0  0  2  0  0  0  0  0  0
  197.3210  173.5560  144.9340 C   0  0  0  0  0  2  0  0  0  0  0  0
  196.8180  172.6930  146.0710 C   0  0  0  0  0  2  0  0  0  0  0  0
  195.2660  170.7920  145.7630 C   0  0  0  0  0  1  0  0  0  0  0  0
  196.6960  171.2590  145.5970 C   0  0  0  0  0  2  0  0  0  0  0  0
  188.1200  175.6760  143.0990 C   0  0  0  0  0  2  0  0  0  0  0  0
  189.4220  173.5140  143.0350 C   0  0  0  0  0  0  0  0  0  0  0  0
  188.7620  174.5920  142.3750 N   0  0  0  0  0  2  0  0  0  0  0  0
  189.6700  173.5790  144.2720 O   0  0  0  0  0  0  0  0  0  0  0  0
  189.5570  171.1770  142.8020 O   0  0  0  0  0  0  0  0  0  0  0  0
  189.7550  172.3010  142.2680 C   0  0  0  0  0  0  0  0  0  0  0  0
  190.3440  172.3740  140.9560 N   0  0  0  0  0  0  0  0  0  0  0  0
  188.5180  173.0270  139.4080 C   0  0  0  0  0  2  0  0  0  0  0  0
  188.1900  173.8930  138.2250 C   0  0  0  0  0  3  0  0  0  0  0  0
  190.9690  173.7910  138.9870 C   0  0  0  0  0  2  0  0  0  0  0  0
  190.5240  173.6020  137.5330 C   0  0  0  0  0  2  0  0  0  0  0  0
  189.1450  174.1660  137.3300 C   0  0  0  0  0  3  0  0  0  0  0  0
  189.8800  173.4090  140.0160 C   0  0  2  0  0  3  0  0  0  0  0  0
  190.8950  170.5500  139.5030 C   0  0  0  0  0  2  0  0  0  0  0  0
  191.2460  171.3370  140.5140 C   0  0  0  0  0  0  0  0  0  0  0  0
  195.0460  169.7970  141.3070 O   0  0  0  0  0  0  0  0  0  0  0  0
  193.7260  173.0110  140.1910 C   0  0  0  0  0  2  0  0  0  0  0  0
  194.9140  173.8670  140.6030 C   0  0  0  0  0  2  0  0  0  0  0  0
  192.5090  171.0840  141.2440 C   0  0  0  0  0  0  0  0  0  0  0  0
  195.0100  171.0400  141.0870 C   0  0  0  0  0  0  0  0  0  0  0  0
  192.4810  170.3250  142.2510 O   0  0  0  0  0  0  0  0  0  0  0  0
  196.2900  171.8200  141.1410 C   0  0  0  0  0  2  0  0  0  0  0  0
  196.2000  173.1010  140.3120 C   0  0  2  0  0  3  0  0  0  0  0  0
  193.7500  171.7060  140.8560 N   0  0  0  0  0  0  0  0  0  0  0  0
  197.3930  173.9400  140.4690 N   0  0  0  0  0  2  0  0  0  0  0  0
  197.2310  175.6660  138.9200 F   0  0  0  0  0  0  0  0  0  0  0  0
  197.0750  175.3500  140.2540 C   0  0  0  0  0  2  0  0  0  0  0  0
  188.6390  177.9750  142.5180 O   0  0  0  0  0  0  0  0  0  0  0  0
  184.7440  178.2730  140.9800 C   0  0  0  0  0  3  0  0  0  0  0  0
  187.3520  178.0810  141.9810 C   0  0  0  0  0  0  0  0  0  0  0  0
  186.3220  178.5730  142.7880 C   0  0  0  0  0  3  0  0  0  0  0  0
  185.7700  177.7930  140.1630 C   0  0  0  0  0  3  0  0  0  0  0  0
  185.0220  178.6660  142.2910 C   0  0  0  0  0  3  0  0  0  0  0  0
  187.0710  177.6990  140.6600 C   0  0  0  0  0  3  0  0  0  0  0  0
  1 22  1  1  0  0  0
  1  2  1  0  0  0  0
  2  3  1  0  0  0  0
  2  4  2  0  0  0  0
  5 12  1  6  0  0  0
  5 16  1  0  0  0  0
  5 11  1  0  0  0  0
  6  3  1  1  0  0  0
  6  9  1  0  0  0  0
  9  8  1  6  0  0  0
  9 10  1  0  0  0  0
 10 13  1  1  0  0  0
 11  7  1  1  0  0  0
 11 10  1  0  0  0  0
 14  6  1  0  0  0  0
 14 11  1  0  0  0  0
 15  5  1  0  0  0  0
 15 16  1  0  0  0  0
 15  8  1  1  0  0  0
 17 18  1  0  0  0  0
 17 16  1  0  0  0  0
 18 19  1  0  0  0  0
 21 20  1  0  0  0  0
 21 19  1  0  0  0  0
 23 25  2  0  0  0  0
 24 23  1  0  0  0  0
 24 22  1  0  0  0  0
 27 26  2  0  0  0  0
 27 23  1  0  0  0  0
 28 27  1  0  0  0  0
 29 34  1  0  0  0  0
 30 29  1  0  0  0  0
 31 34  1  0  0  0  0
 32 31  1  0  0  0  0
 33 32  1  0  0  0  0
 33 30  2  0  0  0  0
 34 28  1  6  0  0  0
 35 36  2  0  0  0  0
 36 28  1  0  0  0  0
 36 40  1  0  0  0  0
 38 39  1  0  0  0  0
 38 45  1  0  0  0  0
 40 42  2  0  0  0  0
 41 43  1  0  0  0  0
 41 37  2  0  0  0  0
 44 46  1  1  0  0  0
 44 39  1  0  0  0  0
 44 43  1  0  0  0  0
 45 41  1  0  0  0  0
 45 40  1  0  0  0  0
 47 48  1  0  0  0  0
 48 46  1  0  0  0  0
 49  1  1  0  0  0  0
 50 54  1  0  0  0  0
 51 49  1  0  0  0  0
 51 52  1  0  0  0  0
 53 55  1  0  0  0  0
 53 50  2  0  0  0  0
 54 52  2  0  0  0  0
 55 51  2  0  0  0  0
M  END
>  <MODEL>
7

>  <REMARK>
 VINA RESULT:      -5.9      2.455      7.780
  Name = 
  16 active torsions:
  status: ('A' for Active; 'I' for Inactive)
    1  A    between atoms: C_3  and  C_25
    2  A    between atoms: C_3  and  C_38
    3  A    between atoms: C_4  and  N_37
    4  A    between atoms: C_4  and  C_54
    5  A    between atoms: C_6  and  N_22
    6  A    between atoms: C_8  and  C_54
    7  A    between atoms: N_10  and  C_47
    8  A    between atoms: N_10  and  C_48
    9  A    between atoms: C_19  and  C_35
   10  A    between atoms: C_26  and  N_45
   11  A    between atoms: C_27  and  O_51
   12  A    between atoms: C_29  and  C_38
   13  A    between atoms: C_29  and  N_53
   14  A    between atoms: C_33  and  C_49
   15  A    between atoms: N_45  and  C_49
   16  A    between atoms: O_51  and  C_54
                            x       y       z     vdW  Elec       q    Type
                         _______ _______ _______ _____ _____    ______ ____

>  <TORSDO>
F 16

$$$$
=
 OpenBabel11052419393D

 55 60  0  0  1  0  0  0  0  0999 V2000
  187.5460  177.1610  143.7890 C   0  0  1  0  0  3  0  0  0  0  0  0
  187.2660  177.0260  145.2590 C   0  0  0  0  0  0  0  0  0  0  0  0
  188.2870  177.1360  146.2630 N   0  0  0  0  0  2  0  0  0  0  0  0
  186.0670  176.8960  145.6260 O   0  0  0  0  0  0  0  0  0  0  0  0
  192.4910  176.1680  146.4030 C   0  0  2  0  0  0  0  0  0  0  0  0
  189.7160  177.0250  146.0090 C   0  0  2  0  0  3  0  0  0  0  0  0
  191.5060  175.3740  148.4510 F   0  0  0  0  0  0  0  0  0  0  0  0
  191.0880  175.8500  144.3670 O   0  0  0  0  0  0  0  0  0  0  0  0
  190.0060  175.7100  145.2860 C   0  0  1  0  0  3  0  0  0  0  0  0
  190.4240  174.8040  146.4000 C   0  0  1  0  0  3  0  0  0  0  0  0
  191.2060  175.8270  147.1790 C   0  0  2  0  0  0  0  0  0  0  0  0
  193.3930  177.0760  146.9650 O   0  0  0  0  0  1  0  0  0  0  0  0
  189.3060  174.3790  147.1250 O   0  0  0  0  0  1  0  0  0  0  0  0
  190.4080  176.9870  147.2390 O   0  0  0  0  0  0  0  0  0  0  0  0
  192.3170  176.3190  144.9410 C   0  0  2  0  0  3  0  0  0  0  0  0
  193.0650  175.1570  145.4830 N   0  0  0  0  0  0  0  0  0  0  0  0
  194.4700  175.4170  145.2060 C   0  0  0  0  0  2  0  0  0  0  0  0
  195.2870  174.1870  145.5420 C   0  0  0  0  0  2  0  0  0  0  0  0
  196.7200  174.4000  145.1030 C   0  0  0  0  0  2  0  0  0  0  0  0
  197.2940  174.5710  142.7030 C   0  0  0  0  0  1  0  0  0  0  0  0
  196.7440  175.3180  143.8990 C   0  0  0  0  0  2  0  0  0  0  0  0
  187.0510  175.9240  143.0520 C   0  0  0  0  0  2  0  0  0  0  0  0
  188.1450  174.2030  141.5610 C   0  0  0  0  0  0  0  0  0  0  0  0
  188.0190  175.5420  142.0370 N   0  0  0  0  0  2  0  0  0  0  0  0
  187.5730  173.2550  142.1690 O   0  0  0  0  0  0  0  0  0  0  0  0
  188.4400  174.4000  139.2350 O   0  0  0  0  0  0  0  0  0  0  0  0
  188.8990  173.9520  140.3210 C   0  0  0  0  0  0  0  0  0  0  0  0
  190.1080  173.1700  140.3150 N   0  0  0  0  0  0  0  0  0  0  0  0
  192.2200  174.2620  141.0240 C   0  0  0  0  0  2  0  0  0  0  0  0
  193.3560  174.1710  142.0030 C   0  0  0  0  0  3  0  0  0  0  0  0
  191.5080  171.9580  142.0030 C   0  0  0  0  0  2  0  0  0  0  0  0
  193.0240  171.7420  141.9620 C   0  0  0  0  0  2  0  0  0  0  0  0
  193.7410  172.9700  142.4490 C   0  0  0  0  0  3  0  0  0  0  0  0
  191.0670  173.3230  141.4220 C   0  0  2  0  0  3  0  0  0  0  0  0
  190.2960  171.0660  139.1840 C   0  0  0  0  0  2  0  0  0  0  0  0
  190.4500  172.3850  139.1530 C   0  0  0  0  0  0  0  0  0  0  0  0
  192.3420  175.3140  136.8550 O   0  0  0  0  0  0  0  0  0  0  0  0
  193.3820  172.2230  138.4940 C   0  0  0  0  0  2  0  0  0  0  0  0
  194.6290  171.9670  137.6610 C   0  0  0  0  0  2  0  0  0  0  0  0
  191.0630  173.0300  137.9700 C   0  0  0  0  0  0  0  0  0  0  0  0
  193.0460  174.2950  137.1040 C   0  0  0  0  0  0  0  0  0  0  0  0
  190.3070  173.4240  137.0400 O   0  0  0  0  0  0  0  0  0  0  0  0
  194.4420  174.2320  136.5600 C   0  0  0  0  0  2  0  0  0  0  0  0
  195.3230  173.2980  137.3880 C   0  0  2  0  0  3  0  0  0  0  0  0
  192.4900  173.1850  137.8410 N   0  0  0  0  0  0  0  0  0  0  0  0
  196.6490  173.1180  136.7860 N   0  0  0  0  0  2  0  0  0  0  0  0
  197.1710  173.9340  138.8990 F   0  0  0  0  0  0  0  0  0  0  0  0
  197.6970  173.6440  137.6560 C   0  0  0  0  0  2  0  0  0  0  0  0
  186.9600  178.3420  143.2470 O   0  0  0  0  0  0  0  0  0  0  0  0
  183.5780  178.2570  140.7600 C   0  0  0  0  0  3  0  0  0  0  0  0
  185.8470  178.3290  142.3990 C   0  0  0  0  0  0  0  0  0  0  0  0
  184.5680  178.3450  142.9650 C   0  0  0  0  0  3  0  0  0  0  0  0
  184.8520  178.2540  140.1870 C   0  0  0  0  0  3  0  0  0  0  0  0
  183.4370  178.3060  142.1480 C   0  0  0  0  0  3  0  0  0  0  0  0
  185.9840  178.2920  141.0030 C   0  0  0  0  0  3  0  0  0  0  0  0
  1 22  1  6  0  0  0
  1  2  1  0  0  0  0
  2  4  2  0  0  0  0
  2  3  1  0  0  0  0
  5 12  1  1  0  0  0
  5 11  1  0  0  0  0
  6  3  1  1  0  0  0
  6 14  1  0  0  0  0
  9  8  1  6  0  0  0
  9  6  1  0  0  0  0
  9 10  1  0  0  0  0
 10 13  1  1  0  0  0
 10 11  1  0  0  0  0
 11 14  1  0  0  0  0
 11  7  1  1  0  0  0
 15  8  1  1  0  0  0
 15 16  1  0  0  0  0
 15  5  1  0  0  0  0
 16  5  1  0  0  0  0
 17 16  1  0  0  0  0
 17 18  1  0  0  0  0
 19 18  1  0  0  0  0
 20 21  1  0  0  0  0
 21 19  1  0  0  0  0
 23 24  1  0  0  0  0
 23 25  2  0  0  0  0
 24 22  1  0  0  0  0
 26 27  2  0  0  0  0
 27 23  1  0  0  0  0
 28 27  1  0  0  0  0
 29 34  1  0  0  0  0
 29 30  1  0  0  0  0
 30 33  2  0  0  0  0
 32 31  1  0  0  0  0
 32 33  1  0  0  0  0
 34 28  1  6  0  0  0
 34 31  1  0  0  0  0
 36 35  2  0  0  0  0
 36 28  1  0  0  0  0
 37 41  2  0  0  0  0
 39 38  1  0  0  0  0
 40 36  1  0  0  0  0
 41 45  1  0  0  0  0
 42 40  2  0  0  0  0
 43 41  1  0  0  0  0
 43 44  1  0  0  0  0
 44 46  1  6  0  0  0
 44 39  1  0  0  0  0
 45 40  1  0  0  0  0
 45 38  1  0  0  0  0
 46 48  1  0  0  0  0
 48 47  1  0  0  0  0
 49  1  1  0  0  0  0
 50 54  1  0  0  0  0
 51 52  1  0  0  0  0
 51 49  1  0  0  0  0
 53 50  2  0  0  0  0
 53 55  1  0  0  0  0
 54 52  2  0  0  0  0
 55 51  2  0  0  0  0
M  END
>  <MODEL>
8

>  <REMARK>
 VINA RESULT:      -5.9      3.061      7.847
  Name = 
  16 active torsions:
  status: ('A' for Active; 'I' for Inactive)
    1  A    between atoms: C_3  and  C_25
    2  A    between atoms: C_3  and  C_38
    3  A    between atoms: C_4  and  N_37
    4  A    between atoms: C_4  and  C_54
    5  A    between atoms: C_6  and  N_22
    6  A    between atoms: C_8  and  C_54
    7  A    between atoms: N_10  and  C_47
    8  A    between atoms: N_10  and  C_48
    9  A    between atoms: C_19  and  C_35
   10  A    between atoms: C_26  and  N_45
   11  A    between atoms: C_27  and  O_51
   12  A    between atoms: C_29  and  C_38
   13  A    between atoms: C_29  and  N_53
   14  A    between atoms: C_33  and  C_49
   15  A    between atoms: N_45  and  C_49
   16  A    between atoms: O_51  and  C_54
                            x       y       z     vdW  Elec       q    Type
                         _______ _______ _______ _____ _____    ______ ____

>  <TORSDO>
F 16

$$$$
=
 OpenBabel11052419393D

 55 60  0  0  1  0  0  0  0  0999 V2000
  195.9390  171.4100  144.0970 C   0  0  1  0  0  3  0  0  0  0  0  0
  196.6860  172.7100  144.0110 C   0  0  0  0  0  0  0  0  0  0  0  0
  196.2000  173.9310  144.5890 N   0  0  0  0  0  2  0  0  0  0  0  0
  197.8300  172.7030  143.4810 O   0  0  0  0  0  0  0  0  0  0  0  0
  192.5220  175.5940  146.1200 C   0  0  2  0  0  0  0  0  0  0  0  0
  194.8220  174.1680  144.9910 C   0  0  2  0  0  3  0  0  0  0  0  0
  194.3090  177.0530  146.8110 F   0  0  0  0  0  0  0  0  0  0  0  0
  192.7450  174.6760  143.8130 O   0  0  0  0  0  0  0  0  0  0  0  0
  194.1220  175.0280  143.9400 C   0  0  1  0  0  3  0  0  0  0  0  0
  194.2250  176.4050  144.5140 C   0  0  1  0  0  3  0  0  0  0  0  0
  193.9930  176.0170  145.9500 C   0  0  2  0  0  0  0  0  0  0  0  0
  192.0740  175.2280  147.3930 O   0  0  0  0  0  1  0  0  0  0  0  0
  195.5180  176.9080  144.3400 O   0  0  0  0  0  1  0  0  0  0  0  0
  194.8060  174.8950  146.2030 O   0  0  0  0  0  0  0  0  0  0  0  0
  191.9830  174.7560  145.0260 C   0  0  2  0  0  3  0  0  0  0  0  0
  191.5030  176.1500  145.1990 N   0  0  0  0  0  0  0  0  0  0  0  0
  190.1620  176.0490  145.7560 C   0  0  0  0  0  2  0  0  0  0  0  0
  189.7440  177.3930  146.3130 C   0  0  0  0  0  2  0  0  0  0  0  0
  188.3650  177.2770  146.9260 C   0  0  0  0  0  2  0  0  0  0  0  0
  185.9480  177.4070  146.4160 C   0  0  0  0  0  1  0  0  0  0  0  0
  187.3280  177.2240  145.8230 C   0  0  0  0  0  2  0  0  0  0  0  0
  195.4050  171.0260  142.7240 C   0  0  0  0  0  2  0  0  0  0  0  0
  194.0810  172.4330  141.0960 C   0  0  0  0  0  0  0  0  0  0  0  0
  194.2650  171.8650  142.3910 N   0  0  0  0  0  2  0  0  0  0  0  0
  195.0220  172.4140  140.2530 O   0  0  0  0  0  0  0  0  0  0  0  0
  192.6280  174.2380  140.6920 O   0  0  0  0  0  0  0  0  0  0  0  0
  192.7640  172.9860  140.7370 C   0  0  0  0  0  0  0  0  0  0  0  0
  191.6280  172.1350  140.4910 N   0  0  0  0  0  0  0  0  0  0  0  0
  191.0160  170.8730  138.4450 C   0  0  0  0  0  2  0  0  0  0  0  0
  190.9410  169.4930  137.8550 C   0  0  0  0  0  3  0  0  0  0  0  0
  191.6010  169.6360  140.6580 C   0  0  0  0  0  2  0  0  0  0  0  0
  190.5200  168.6860  140.1310 C   0  0  0  0  0  2  0  0  0  0  0  0
  190.7030  168.4510  138.6580 C   0  0  0  0  0  3  0  0  0  0  0  0
  191.8210  170.8740  139.7560 C   0  0  2  0  0  3  0  0  0  0  0  0
  189.5710  171.9530  141.7050 C   0  0  0  0  0  2  0  0  0  0  0  0
  190.2990  172.6030  140.8050 C   0  0  0  0  0  0  0  0  0  0  0  0
  187.3890  174.9700  138.9700 O   0  0  0  0  0  0  0  0  0  0  0  0
  189.2250  175.0870  142.1230 C   0  0  0  0  0  2  0  0  0  0  0  0
  189.0460  176.5720  142.4010 C   0  0  0  0  0  2  0  0  0  0  0  0
  189.7110  173.7400  140.0600 C   0  0  0  0  0  0  0  0  0  0  0  0
  187.8900  175.4600  140.0210 C   0  0  0  0  0  0  0  0  0  0  0  0
  189.9180  173.8170  138.8180 O   0  0  0  0  0  0  0  0  0  0  0  0
  187.4150  176.8040  140.4880 C   0  0  0  0  0  2  0  0  0  0  0  0
  187.6370  176.9860  141.9890 C   0  0  2  0  0  3  0  0  0  0  0  0
  188.9460  174.7680  140.7190 N   0  0  0  0  0  0  0  0  0  0  0  0
  187.3080  178.3450  142.4310 N   0  0  0  0  0  2  0  0  0  0  0  0
  185.6200  179.7110  143.2630 F   0  0  0  0  0  0  0  0  0  0  0  0
  185.8770  178.4810  142.6900 C   0  0  0  0  0  2  0  0  0  0  0  0
  196.7510  170.3690  144.6330 O   0  0  0  0  0  0  0  0  0  0  0  0
  195.6170  168.1660  148.0230 C   0  0  0  0  0  3  0  0  0  0  0  0
  196.3970  169.6210  145.7610 C   0  0  0  0  0  0  0  0  0  0  0  0
  195.0530  169.2880  145.9560 C   0  0  0  0  0  3  0  0  0  0  0  0
  196.9640  168.4830  147.8290 C   0  0  0  0  0  3  0  0  0  0  0  0
  194.6640  168.5650  147.0850 C   0  0  0  0  0  3  0  0  0  0  0  0
  197.3540  169.2060  146.7010 C   0  0  0  0  0  3  0  0  0  0  0  0
  1 22  1  6  0  0  0
  1 49  1  0  0  0  0
  2  1  1  0  0  0  0
  2  3  1  0  0  0  0
  4  2  2  0  0  0  0
  5 12  1  1  0  0  0
  6  3  1  6  0  0  0
  6 14  1  0  0  0  0
  9  8  1  1  0  0  0
  9 10  1  0  0  0  0
  9  6  1  0  0  0  0
 10 13  1  1  0  0  0
 10 11  1  0  0  0  0
 11  5  1  0  0  0  0
 11 14  1  0  0  0  0
 11  7  1  1  0  0  0
 15  8  1  6  0  0  0
 15 16  1  0  0  0  0
 15  5  1  0  0  0  0
 16 17  1  0  0  0  0
 16  5  1  0  0  0  0
 17 18  1  0  0  0  0
 18 19  1  0  0  0  0
 21 20  1  0  0  0  0
 21 19  1  0  0  0  0
 23 24  1  0  0  0  0
 24 22  1  0  0  0  0
 25 23  2  0  0  0  0
 26 27  2  0  0  0  0
 27 23  1  0  0  0  0
 28 27  1  0  0  0  0
 28 36  1  0  0  0  0
 29 34  1  0  0  0  0
 30 29  1  0  0  0  0
 30 33  2  0  0  0  0
 32 31  1  0  0  0  0
 33 32  1  0  0  0  0
 34 28  1  1  0  0  0
 34 31  1  0  0  0  0
 36 35  2  0  0  0  0
 37 41  2  0  0  0  0
 38 39  1  0  0  0  0
 40 45  1  0  0  0  0
 40 36  1  0  0  0  0
 41 43  1  0  0  0  0
 41 45  1  0  0  0  0
 42 40  2  0  0  0  0
 43 44  1  0  0  0  0
 44 39  1  0  0  0  0
 44 46  1  6  0  0  0
 45 38  1  0  0  0  0
 46 48  1  0  0  0  0
 48 47  1  0  0  0  0
 49 51  1  0  0  0  0
 51 52  2  0  0  0  0
 51 55  1  0  0  0  0
 52 54  1  0  0  0  0
 53 50  1  0  0  0  0
 54 50  2  0  0  0  0
 55 53  2  0  0  0  0
M  END
>  <MODEL>
9

>  <REMARK>
 VINA RESULT:      -5.9      2.368      3.785
  Name = 
  16 active torsions:
  status: ('A' for Active; 'I' for Inactive)
    1  A    between atoms: C_3  and  C_25
    2  A    between atoms: C_3  and  C_38
    3  A    between atoms: C_4  and  N_37
    4  A    between atoms: C_4  and  C_54
    5  A    between atoms: C_6  and  N_22
    6  A    between atoms: C_8  and  C_54
    7  A    between atoms: N_10  and  C_47
    8  A    between atoms: N_10  and  C_48
    9  A    between atoms: C_19  and  C_35
   10  A    between atoms: C_26  and  N_45
   11  A    between atoms: C_27  and  O_51
   12  A    between atoms: C_29  and  C_38
   13  A    between atoms: C_29  and  N_53
   14  A    between atoms: C_33  and  C_49
   15  A    between atoms: N_45  and  C_49
   16  A    between atoms: O_51  and  C_54
                            x       y       z     vdW  Elec       q    Type
                         _______ _______ _______ _____ _____    ______ ____

>  <TORSDO>
F 16

$$$$
