=
 OpenBabel11052420373D

 34 34  0  0  1  0  0  0  0  0999 V2000
  187.2390  175.5720  142.0330 C   0  0  0  0  0  0  0  0  0  0  0  0
  187.6340  176.5740  141.3820 O   0  0  0  0  0  0  0  0  0  0  0  0
  186.4320  175.7820  143.1600 O   0  0  0  0  0  0  0  0  0  0  0  0
  186.3600  177.0180  143.8610 C   0  0  2  0  0  3  0  0  0  0  0  0
  186.4840  176.7560  145.3550 C   0  0  0  0  0  2  0  0  0  0  0  0
  190.5290  176.6620  146.8970 C   0  0  2  0  0  3  0  0  0  0  0  0
  189.7080  175.3970  147.1310 C   0  0  0  0  0  2  0  0  0  0  0  0
  188.2210  175.7050  146.9700 C   0  0  0  0  0  2  0  0  0  0  0  0
  188.8650  177.2630  145.1260 C   0  0  0  0  0  3  0  0  0  0  0  0
  187.9120  176.5540  145.7550 C   0  0  0  0  0  0  0  0  0  0  0  0
  190.3270  177.1450  145.4620 C   0  0  0  0  0  2  0  0  0  0  0  0
  191.9100  176.4370  147.1700 O   0  0  0  0  0  0  0  0  0  0  0  0
  193.2220  174.7680  146.1530 C   0  0  0  0  0  2  0  0  0  0  0  0
  192.8050  176.0230  146.1830 C   0  0  0  0  0  3  0  0  0  0  0  0
  185.0280  177.7000  143.5730 C   0  0  0  0  0  2  0  0  0  0  0  0
  185.5460  180.0630  144.1520 C   0  0  0  0  0  1  0  0  0  0  0  0
  184.7590  178.8300  144.5510 C   0  0  0  0  0  2  0  0  0  0  0  0
  187.6380  174.2990  141.6020 O   0  0  0  0  0  0  0  0  0  0  0  0
  188.9970  173.8920  141.4920 C   0  0  1  0  0  3  0  0  0  0  0  0
  188.5090  174.1330  139.0340 O   0  0  0  0  0  0  0  0  0  0  0  0
  189.4200  173.8680  140.0520 C   0  0  0  0  0  0  0  0  0  0  0  0
  190.6220  173.6390  139.7590 O   0  0  0  0  0  1  0  0  0  0  0  0
  189.8980  174.7990  142.3300 C   0  0  0  0  0  2  0  0  0  0  0  0
  190.8860  174.0220  143.2120 C   0  0  1  0  0  3  0  0  0  0  0  0
  190.3700  172.6060  143.5020 C   0  0  2  0  0  3  0  0  0  0  0  0
  189.9300  172.4750  144.9530 C   0  0  0  0  0  1  0  0  0  0  0  0
  191.3550  171.5680  143.1790 N   0  0  0  0  0  0  0  0  0  0  0  0
  191.3470  170.9300  141.8940 C   0  0  0  0  0  3  0  0  0  0  0  0
  190.8700  169.7040  141.7130 C   0  0  0  0  0  2  0  0  0  0  0  0
  192.1720  170.9740  144.2340 C   0  0  0  0  0  2  0  0  0  0  0  0
  194.5020  171.4910  144.8490 C   0  0  0  0  0  2  0  0  0  0  0  0
  193.6310  171.0980  143.9230 C   0  0  0  0  0  3  0  0  0  0  0  0
  192.1550  173.9870  142.6180 O   0  0  0  0  0  0  0  0  0  0  0  0
  192.5310  175.3260  142.4860 C   0  0  0  0  0  1  0  0  0  0  0  0
  1  3  1  0  0  0  0
  2  1  2  0  0  0  0
  3  4  1  0  0  0  0
  4 15  1  1  0  0  0
  4  5  1  0  0  0  0
  5 10  1  0  0  0  0
  6  7  1  0  0  0  0
  6 12  1  6  0  0  0
  8  7  1  0  0  0  0
  9 11  1  0  0  0  0
  9 10  2  0  0  0  0
 10  8  1  0  0  0  0
 11  6  1  0  0  0  0
 13 14  2  0  0  0  0
 14 12  1  0  0  0  0
 15 17  1  0  0  0  0
 16 17  1  0  0  0  0
 18  1  1  0  0  0  0
 19 18  1  0  0  0  0
 19 23  1  1  0  0  0
 20 21  2  0  0  0  0
 21 19  1  0  0  0  0
 22 21  1  0  0  0  0
 24 23  1  6  0  0  0
 24 25  1  0  0  0  0
 25 26  1  1  0  0  0
 27 25  1  0  0  0  0
 27 30  1  0  0  0  0
 28 27  1  0  0  0  0
 29 28  2  0  0  0  0
 32 30  1  0  0  0  0
 32 31  2  0  0  0  0
 33 24  1  0  0  0  0
 34 33  1  0  0  0  0
M  END
>  <MODEL>
1

>  <REMARK>
 VINA RESULT:      -5.0      0.000      0.000
  Name = 
  19 active torsions:
  status: ('A' for Active; 'I' for Inactive)
    1  A    between atoms: C_1  and  O_8
    2  A    between atoms: C_1  and  O_34
    3  A    between atoms: C_2  and  N_25
    4  A    between atoms: C_2  and  C_32
    5  A    between atoms: C_3  and  C_24
    6  A    between atoms: C_3  and  N_25
    7  A    between atoms: C_5  and  C_20
    8  A    between atoms: C_5  and  C_32
    9  A    between atoms: C_6  and  C_18
   10  A    between atoms: C_6  and  C_28
   11  A    between atoms: C_7  and  O_11
   12  A    between atoms: O_8  and  C_18
   13  A    between atoms: O_11  and  C_21
   14  A    between atoms: C_12  and  C_20
   15  A    between atoms: C_18  and  C_30
   16  A    between atoms: O_19  and  C_32
   17  A    between atoms: C_20  and  O_34
   18  A    between atoms: N_25  and  C_27
   19  A    between atoms: C_30  and  C_31
                            x       y       z     vdW  Elec       q    Type
                         _______ _______ _______ _____ _____    ______ ____

>  <TORSDO>
F 19

$$$$
=
 OpenBabel11052420373D

 34 34  0  0  1  0  0  0  0  0999 V2000
  191.3960  173.9110  143.5410 C   0  0  0  0  0  0  0  0  0  0  0  0
  190.9460  172.8110  143.9530 O   0  0  0  0  0  0  0  0  0  0  0  0
  192.0810  174.7340  144.4460 O   0  0  0  0  0  0  0  0  0  0  0  0
  192.6300  174.2740  145.6740 C   0  0  2  0  0  3  0  0  0  0  0  0
  192.4540  175.3480  146.7390 C   0  0  0  0  0  2  0  0  0  0  0  0
  188.2470  176.3710  146.6390 C   0  0  2  0  0  3  0  0  0  0  0  0
  188.5880  175.0610  147.3440 C   0  0  0  0  0  2  0  0  0  0  0  0
  189.9800  174.5910  146.9250 C   0  0  0  0  0  2  0  0  0  0  0  0
  190.6570  176.9970  146.9110 C   0  0  0  0  0  3  0  0  0  0  0  0
  191.0100  175.7000  146.9210 C   0  0  0  0  0  0  0  0  0  0  0  0
  189.2320  177.4560  147.0720 C   0  0  0  0  0  2  0  0  0  0  0  0
  186.9040  176.7660  146.9070 O   0  0  0  0  0  0  0  0  0  0  0  0
  185.3230  178.3540  147.6260 C   0  0  0  0  0  2  0  0  0  0  0  0
  186.5890  178.0150  147.4400 C   0  0  0  0  0  3  0  0  0  0  0  0
  194.1130  173.9720  145.4970 C   0  0  0  0  0  2  0  0  0  0  0  0
  195.4850  175.8880  144.7010 C   0  0  0  0  0  1  0  0  0  0  0  0
  194.9750  175.1480  145.9220 C   0  0  0  0  0  2  0  0  0  0  0  0
  191.1790  174.2600  142.2000 O   0  0  0  0  0  0  0  0  0  0  0  0
  189.9450  174.7700  141.7060 C   0  0  1  0  0  3  0  0  0  0  0  0
  188.9270  173.4410  139.8270 O   0  0  0  0  0  0  0  0  0  0  0  0
  189.0870  173.6500  141.1920 C   0  0  0  0  0  0  0  0  0  0  0  0
  188.5310  172.8680  142.0060 O   0  0  0  0  0  1  0  0  0  0  0  0
  189.2290  175.5800  142.7880 C   0  0  0  0  0  2  0  0  0  0  0  0
  188.5480  176.8440  142.2440 C   0  0  1  0  0  3  0  0  0  0  0  0
  187.2810  177.1750  143.0440 C   0  0  2  0  0  3  0  0  0  0  0  0
  186.5310  175.9060  143.4230 C   0  0  0  0  0  1  0  0  0  0  0  0
  186.3870  178.0940  142.3320 N   0  0  0  0  0  0  0  0  0  0  0  0
  186.0500  179.3690  142.8990 C   0  0  0  0  0  3  0  0  0  0  0  0
  185.7050  179.5110  144.1730 C   0  0  0  0  0  2  0  0  0  0  0  0
  185.6100  177.6280  141.1860 C   0  0  0  0  0  2  0  0  0  0  0  0
  186.5460  176.7330  139.0890 C   0  0  0  0  0  2  0  0  0  0  0  0
  186.3870  177.7650  139.9140 C   0  0  0  0  0  3  0  0  0  0  0  0
  189.4420  177.9230  142.2420 O   0  0  0  0  0  0  0  0  0  0  0  0
  189.9980  177.9360  143.5240 C   0  0  0  0  0  1  0  0  0  0  0  0
  1  2  2  0  0  0  0
  1  3  1  0  0  0  0
  3  4  1  0  0  0  0
  4 15  1  6  0  0  0
  4  5  1  0  0  0  0
  5 10  1  0  0  0  0
  6 12  1  1  0  0  0
  6 11  1  0  0  0  0
  6  7  1  0  0  0  0
  8  7  1  0  0  0  0
  9 10  2  0  0  0  0
  9 11  1  0  0  0  0
 10  8  1  0  0  0  0
 12 14  1  0  0  0  0
 14 13  2  0  0  0  0
 15 17  1  0  0  0  0
 16 17  1  0  0  0  0
 18  1  1  0  0  0  0
 19 18  1  0  0  0  0
 19 23  1  1  0  0  0
 20 21  2  0  0  0  0
 21 19  1  0  0  0  0
 21 22  1  0  0  0  0
 24 23  1  1  0  0  0
 24 25  1  0  0  0  0
 25 26  1  6  0  0  0
 27 28  1  0  0  0  0
 27 25  1  0  0  0  0
 28 29  2  0  0  0  0
 30 27  1  0  0  0  0
 31 32  2  0  0  0  0
 32 30  1  0  0  0  0
 33 24  1  0  0  0  0
 33 34  1  0  0  0  0
M  END
>  <MODEL>
2

>  <REMARK>
 VINA RESULT:      -5.0      2.454      6.558
  Name = 
  19 active torsions:
  status: ('A' for Active; 'I' for Inactive)
    1  A    between atoms: C_1  and  O_8
    2  A    between atoms: C_1  and  O_34
    3  A    between atoms: C_2  and  N_25
    4  A    between atoms: C_2  and  C_32
    5  A    between atoms: C_3  and  C_24
    6  A    between atoms: C_3  and  N_25
    7  A    between atoms: C_5  and  C_20
    8  A    between atoms: C_5  and  C_32
    9  A    between atoms: C_6  and  C_18
   10  A    between atoms: C_6  and  C_28
   11  A    between atoms: C_7  and  O_11
   12  A    between atoms: O_8  and  C_18
   13  A    between atoms: O_11  and  C_21
   14  A    between atoms: C_12  and  C_20
   15  A    between atoms: C_18  and  C_30
   16  A    between atoms: O_19  and  C_32
   17  A    between atoms: C_20  and  O_34
   18  A    between atoms: N_25  and  C_27
   19  A    between atoms: C_30  and  C_31
                            x       y       z     vdW  Elec       q    Type
                         _______ _______ _______ _____ _____    ______ ____

>  <TORSDO>
F 19

$$$$
=
 OpenBabel11052420373D

 34 34  0  0  1  0  0  0  0  0999 V2000
  192.5320  174.8430  142.7730 C   0  0  0  0  0  0  0  0  0  0  0  0
  193.5620  174.3080  142.2860 O   0  0  0  0  0  0  0  0  0  0  0  0
  192.4880  175.0710  144.1550 O   0  0  0  0  0  0  0  0  0  0  0  0
  192.1870  174.0650  145.1140 C   0  0  2  0  0  3  0  0  0  0  0  0
  192.2030  174.6770  146.5080 C   0  0  0  0  0  2  0  0  0  0  0  0
  188.4830  176.8820  146.7300 C   0  0  2  0  0  3  0  0  0  0  0  0
  188.4200  175.4370  147.2160 C   0  0  0  0  0  2  0  0  0  0  0  0
  189.6150  174.6540  146.6770 C   0  0  0  0  0  2  0  0  0  0  0  0
  190.9680  176.7300  146.9970 C   0  0  0  0  0  3  0  0  0  0  0  0
  190.9260  175.4010  146.7980 C   0  0  0  0  0  0  0  0  0  0  0  0
  189.7400  177.5520  147.2820 C   0  0  0  0  0  2  0  0  0  0  0  0
  187.3130  177.6040  147.1070 O   0  0  0  0  0  0  0  0  0  0  0  0
  185.3260  176.7670  146.1620 C   0  0  0  0  0  2  0  0  0  0  0  0
  186.0690  176.9870  147.2360 C   0  0  0  0  0  3  0  0  0  0  0  0
  193.2220  172.9490  145.0370 C   0  0  0  0  0  2  0  0  0  0  0  0
  195.6110  172.3240  145.3400 C   0  0  0  0  0  1  0  0  0  0  0  0
  194.5720  173.4040  145.5650 C   0  0  0  0  0  2  0  0  0  0  0  0
  191.4790  175.1700  141.9070 O   0  0  0  0  0  0  0  0  0  0  0  0
  190.1850  174.5820  141.9800 C   0  0  1  0  0  3  0  0  0  0  0  0
  190.9280  172.3570  141.0680 O   0  0  0  0  0  0  0  0  0  0  0  0
  190.2950  173.0880  142.0670 C   0  0  0  0  0  0  0  0  0  0  0  0
  189.8390  172.4890  143.0760 O   0  0  0  0  0  1  0  0  0  0  0  0
  189.3980  175.1610  143.1560 C   0  0  0  0  0  2  0  0  0  0  0  0
  188.8650  176.5760  142.8890 C   0  0  1  0  0  3  0  0  0  0  0  0
  187.3350  176.6190  142.9960 C   0  0  2  0  0  3  0  0  0  0  0  0
  186.7600  175.2140  143.1050 C   0  0  0  0  0  1  0  0  0  0  0  0
  186.7090  177.3340  141.8790 N   0  0  0  0  0  0  0  0  0  0  0  0
  187.1890  177.1540  140.5390 C   0  0  0  0  0  3  0  0  0  0  0  0
  186.4490  177.4410  139.4750 C   0  0  0  0  0  2  0  0  0  0  0  0
  185.7860  178.4370  142.1350 C   0  0  0  0  0  2  0  0  0  0  0  0
  185.2940  179.8230  144.1130 C   0  0  0  0  0  2  0  0  0  0  0  0
  186.1960  179.2160  143.3450 C   0  0  0  0  0  3  0  0  0  0  0  0
  189.4600  177.4990  143.7610 O   0  0  0  0  0  0  0  0  0  0  0  0
  190.4470  178.1320  143.0010 C   0  0  0  0  0  1  0  0  0  0  0  0
  1  3  1  0  0  0  0
  2  1  2  0  0  0  0
  3  4  1  0  0  0  0
  4 15  1  1  0  0  0
  4  5  1  0  0  0  0
  5 10  1  0  0  0  0
  6 12  1  1  0  0  0
  6  7  1  0  0  0  0
  6 11  1  0  0  0  0
  8 10  1  0  0  0  0
  8  7  1  0  0  0  0
  9 11  1  0  0  0  0
 10  9  2  0  0  0  0
 12 14  1  0  0  0  0
 13 14  2  0  0  0  0
 15 17  1  0  0  0  0
 16 17  1  0  0  0  0
 18 19  1  0  0  0  0
 18  1  1  0  0  0  0
 19 21  1  0  0  0  0
 19 23  1  1  0  0  0
 20 21  2  0  0  0  0
 21 22  1  0  0  0  0
 24 25  1  0  0  0  0
 24 23  1  1  0  0  0
 24 33  1  0  0  0  0
 25 26  1  6  0  0  0
 27 30  1  0  0  0  0
 27 25  1  0  0  0  0
 28 27  1  0  0  0  0
 29 28  2  0  0  0  0
 30 32  1  0  0  0  0
 32 31  2  0  0  0  0
 34 33  1  0  0  0  0
M  END
>  <MODEL>
3

>  <REMARK>
 VINA RESULT:      -4.9      2.372      6.548
  Name = 
  19 active torsions:
  status: ('A' for Active; 'I' for Inactive)
    1  A    between atoms: C_1  and  O_8
    2  A    between atoms: C_1  and  O_34
    3  A    between atoms: C_2  and  N_25
    4  A    between atoms: C_2  and  C_32
    5  A    between atoms: C_3  and  C_24
    6  A    between atoms: C_3  and  N_25
    7  A    between atoms: C_5  and  C_20
    8  A    between atoms: C_5  and  C_32
    9  A    between atoms: C_6  and  C_18
   10  A    between atoms: C_6  and  C_28
   11  A    between atoms: C_7  and  O_11
   12  A    between atoms: O_8  and  C_18
   13  A    between atoms: O_11  and  C_21
   14  A    between atoms: C_12  and  C_20
   15  A    between atoms: C_18  and  C_30
   16  A    between atoms: O_19  and  C_32
   17  A    between atoms: C_20  and  O_34
   18  A    between atoms: N_25  and  C_27
   19  A    between atoms: C_30  and  C_31
                            x       y       z     vdW  Elec       q    Type
                         _______ _______ _______ _____ _____    ______ ____

>  <TORSDO>
F 19

$$$$
=
 OpenBabel11052420373D

 34 34  0  0  1  0  0  0  0  0999 V2000
  187.6340  175.8820  141.9940 C   0  0  0  0  0  0  0  0  0  0  0  0
  187.2930  176.3190  140.8650 O   0  0  0  0  0  0  0  0  0  0  0  0
  186.7070  175.9470  143.0440 O   0  0  0  0  0  0  0  0  0  0  0  0
  186.4600  177.1200  143.8080 C   0  0  2  0  0  3  0  0  0  0  0  0
  186.5490  176.7830  145.2900 C   0  0  0  0  0  2  0  0  0  0  0  0
  190.5400  176.5910  146.9590 C   0  0  2  0  0  3  0  0  0  0  0  0
  189.7510  175.2850  146.9920 C   0  0  0  0  0  2  0  0  0  0  0  0
  188.2610  175.5730  146.8170 C   0  0  0  0  0  2  0  0  0  0  0  0
  188.9200  177.3790  145.2210 C   0  0  0  0  0  3  0  0  0  0  0  0
  187.9690  176.5680  145.7140 C   0  0  0  0  0  0  0  0  0  0  0  0
  190.3730  177.2550  145.5930 C   0  0  0  0  0  2  0  0  0  0  0  0
  191.9170  176.3670  147.2520 O   0  0  0  0  0  0  0  0  0  0  0  0
  194.1850  176.4240  146.6220 C   0  0  0  0  0  2  0  0  0  0  0  0
  192.9080  176.4500  146.2740 C   0  0  0  0  0  3  0  0  0  0  0  0
  185.0710  177.6610  143.4930 C   0  0  0  0  0  2  0  0  0  0  0  0
  185.4590  180.0350  144.1290 C   0  0  0  0  0  1  0  0  0  0  0  0
  184.6780  178.7760  144.4470 C   0  0  0  0  0  2  0  0  0  0  0  0
  188.9280  175.3630  142.1440 O   0  0  0  0  0  0  0  0  0  0  0  0
  189.2560  174.3040  143.0370 C   0  0  1  0  0  3  0  0  0  0  0  0
  188.5200  172.8640  141.1090 O   0  0  0  0  0  0  0  0  0  0  0  0
  188.8360  172.9850  142.4570 C   0  0  0  0  0  0  0  0  0  0  0  0
  188.8010  171.9650  143.1930 O   0  0  0  0  0  1  0  0  0  0  0  0
  190.7490  174.3260  143.3690 C   0  0  0  0  0  2  0  0  0  0  0  0
  191.5970  173.4990  142.3920 C   0  0  1  0  0  3  0  0  0  0  0  0
  192.0070  174.3350  141.1720 C   0  0  2  0  0  3  0  0  0  0  0  0
  191.7460  173.5740  139.8800 C   0  0  0  0  0  1  0  0  0  0  0  0
  193.4070  174.7670  141.2270 N   0  0  0  0  0  0  0  0  0  0  0  0
  193.7690  175.9790  141.9070 C   0  0  0  0  0  3  0  0  0  0  0  0
  194.5290  175.9820  142.9950 C   0  0  0  0  0  2  0  0  0  0  0  0
  194.4080  174.1370  140.3700 C   0  0  0  0  0  2  0  0  0  0  0  0
  195.8760  174.7720  138.4950 C   0  0  0  0  0  2  0  0  0  0  0  0
  195.0850  175.1470  139.4970 C   0  0  0  0  0  3  0  0  0  0  0  0
  192.7200  172.9680  143.0420 O   0  0  0  0  0  0  0  0  0  0  0  0
  192.4750  173.1600  144.4040 C   0  0  0  0  0  1  0  0  0  0  0  0
  1 18  1  0  0  0  0
  1  3  1  0  0  0  0
  2  1  2  0  0  0  0
  3  4  1  0  0  0  0
  4 15  1  1  0  0  0
  4  5  1  0  0  0  0
  5 10  1  0  0  0  0
  6  7  1  0  0  0  0
  6 12  1  6  0  0  0
  8  7  1  0  0  0  0
  9 11  1  0  0  0  0
  9 10  2  0  0  0  0
 10  8  1  0  0  0  0
 11  6  1  0  0  0  0
 14 13  2  0  0  0  0
 14 12  1  0  0  0  0
 15 17  1  0  0  0  0
 16 17  1  0  0  0  0
 18 19  1  0  0  0  0
 19 23  1  6  0  0  0
 20 21  2  0  0  0  0
 21 19  1  0  0  0  0
 21 22  1  0  0  0  0
 24 33  1  0  0  0  0
 24 23  1  1  0  0  0
 25 26  1  6  0  0  0
 25 27  1  0  0  0  0
 25 24  1  0  0  0  0
 27 28  1  0  0  0  0
 28 29  2  0  0  0  0
 30 27  1  0  0  0  0
 31 32  2  0  0  0  0
 32 30  1  0  0  0  0
 33 34  1  0  0  0  0
M  END
>  <MODEL>
4

>  <REMARK>
 VINA RESULT:      -4.9      1.846      3.075
  Name = 
  19 active torsions:
  status: ('A' for Active; 'I' for Inactive)
    1  A    between atoms: C_1  and  O_8
    2  A    between atoms: C_1  and  O_34
    3  A    between atoms: C_2  and  N_25
    4  A    between atoms: C_2  and  C_32
    5  A    between atoms: C_3  and  C_24
    6  A    between atoms: C_3  and  N_25
    7  A    between atoms: C_5  and  C_20
    8  A    between atoms: C_5  and  C_32
    9  A    between atoms: C_6  and  C_18
   10  A    between atoms: C_6  and  C_28
   11  A    between atoms: C_7  and  O_11
   12  A    between atoms: O_8  and  C_18
   13  A    between atoms: O_11  and  C_21
   14  A    between atoms: C_12  and  C_20
   15  A    between atoms: C_18  and  C_30
   16  A    between atoms: O_19  and  C_32
   17  A    between atoms: C_20  and  O_34
   18  A    between atoms: N_25  and  C_27
   19  A    between atoms: C_30  and  C_31
                            x       y       z     vdW  Elec       q    Type
                         _______ _______ _______ _____ _____    ______ ____

>  <TORSDO>
F 19

$$$$
=
 OpenBabel11052420373D

 34 34  0  0  1  0  0  0  0  0999 V2000
  190.7690  173.0890  143.8360 C   0  0  0  0  0  0  0  0  0  0  0  0
  190.3080  172.0090  144.2890 O   0  0  0  0  0  0  0  0  0  0  0  0
  189.8700  174.0380  143.3290 O   0  0  0  0  0  0  0  0  0  0  0  0
  190.0730  174.7490  142.1140 C   0  0  2  0  0  3  0  0  0  0  0  0
  188.7300  174.9780  141.4360 C   0  0  0  0  0  2  0  0  0  0  0  0
  186.9650  178.1440  143.8050 C   0  0  2  0  0  3  0  0  0  0  0  0
  187.0370  178.4090  142.3040 C   0  0  0  0  0  2  0  0  0  0  0  0
  188.0570  177.4730  141.6580 C   0  0  0  0  0  2  0  0  0  0  0  0
  187.2850  175.7200  143.2630 C   0  0  0  0  0  3  0  0  0  0  0  0
  187.9410  176.0410  142.1350 C   0  0  0  0  0  0  0  0  0  0  0  0
  186.4760  176.7170  144.0490 C   0  0  0  0  0  2  0  0  0  0  0  0
  186.1210  179.0900  144.4560 O   0  0  0  0  0  0  0  0  0  0  0  0
  184.1420  178.8540  145.7090 C   0  0  0  0  0  2  0  0  0  0  0  0
  184.7380  178.9250  144.5290 C   0  0  0  0  0  3  0  0  0  0  0  0
  190.9800  173.9470  141.1890 C   0  0  0  0  0  2  0  0  0  0  0  0
  190.9940  172.2700  139.3520 C   0  0  0  0  0  1  0  0  0  0  0  0
  190.2150  173.3980  139.9980 C   0  0  0  0  0  2  0  0  0  0  0  0
  192.1580  173.2780  143.8500 O   0  0  0  0  0  0  0  0  0  0  0  0
  192.9660  173.1130  145.0110 C   0  0  1  0  0  3  0  0  0  0  0  0
  193.2880  170.6620  144.5340 O   0  0  0  0  0  0  0  0  0  0  0  0
  193.8330  171.8960  144.8720 C   0  0  0  0  0  0  0  0  0  0  0  0
  195.0780  171.9970  145.0310 O   0  0  0  0  0  1  0  0  0  0  0  0
  193.7950  174.3710  145.2700 C   0  0  0  0  0  2  0  0  0  0  0  0
  193.3120  175.5890  144.4700 C   0  0  1  0  0  3  0  0  0  0  0  0
  192.8860  176.7300  145.4040 C   0  0  2  0  0  3  0  0  0  0  0  0
  193.6500  176.6670  146.7190 C   0  0  0  0  0  1  0  0  0  0  0  0
  191.4420  176.7420  145.6610 N   0  0  0  0  0  0  0  0  0  0  0  0
  190.5350  177.2890  144.6930 C   0  0  0  0  0  3  0  0  0  0  0  0
  190.8920  178.2470  143.8460 C   0  0  0  0  0  2  0  0  0  0  0  0
  190.9290  176.4610  146.9990 C   0  0  0  0  0  2  0  0  0  0  0  0
  189.0960  174.8180  146.8710 C   0  0  0  0  0  2  0  0  0  0  0  0
  190.3850  175.0690  147.0880 C   0  0  0  0  0  3  0  0  0  0  0  0
  194.3010  176.0120  143.5720 O   0  0  0  0  0  0  0  0  0  0  0  0
  195.4730  175.3820  143.9980 C   0  0  0  0  0  1  0  0  0  0  0  0
  1 18  1  0  0  0  0
  1  2  2  0  0  0  0
  3  1  1  0  0  0  0
  4 15  1  6  0  0  0
  4  3  1  0  0  0  0
  5  4  1  0  0  0  0
  5 10  1  0  0  0  0
  6 11  1  0  0  0  0
  6 12  1  1  0  0  0
  7  6  1  0  0  0  0
  8 10  1  0  0  0  0
  8  7  1  0  0  0  0
  9 11  1  0  0  0  0
 10  9  2  0  0  0  0
 12 14  1  0  0  0  0
 14 13  2  0  0  0  0
 16 17  1  0  0  0  0
 17 15  1  0  0  0  0
 18 19  1  0  0  0  0
 19 23  1  6  0  0  0
 20 21  2  0  0  0  0
 21 19  1  0  0  0  0
 21 22  1  0  0  0  0
 24 23  1  1  0  0  0
 24 25  1  0  0  0  0
 25 27  1  0  0  0  0
 25 26  1  1  0  0  0
 27 30  1  0  0  0  0
 28 27  1  0  0  0  0
 29 28  2  0  0  0  0
 30 32  1  0  0  0  0
 31 32  2  0  0  0  0
 33 34  1  0  0  0  0
 33 24  1  0  0  0  0
M  END
>  <MODEL>
5

>  <REMARK>
 VINA RESULT:      -4.8      2.312      6.272
  Name = 
  19 active torsions:
  status: ('A' for Active; 'I' for Inactive)
    1  A    between atoms: C_1  and  O_8
    2  A    between atoms: C_1  and  O_34
    3  A    between atoms: C_2  and  N_25
    4  A    between atoms: C_2  and  C_32
    5  A    between atoms: C_3  and  C_24
    6  A    between atoms: C_3  and  N_25
    7  A    between atoms: C_5  and  C_20
    8  A    between atoms: C_5  and  C_32
    9  A    between atoms: C_6  and  C_18
   10  A    between atoms: C_6  and  C_28
   11  A    between atoms: C_7  and  O_11
   12  A    between atoms: O_8  and  C_18
   13  A    between atoms: O_11  and  C_21
   14  A    between atoms: C_12  and  C_20
   15  A    between atoms: C_18  and  C_30
   16  A    between atoms: O_19  and  C_32
   17  A    between atoms: C_20  and  O_34
   18  A    between atoms: N_25  and  C_27
   19  A    between atoms: C_30  and  C_31
                            x       y       z     vdW  Elec       q    Type
                         _______ _______ _______ _____ _____    ______ ____

>  <TORSDO>
F 19

$$$$
=
 OpenBabel11052420373D

 34 34  0  0  1  0  0  0  0  0999 V2000
  188.4720  177.1440  146.0560 C   0  0  0  0  0  0  0  0  0  0  0  0
  187.9960  176.1350  146.6370 O   0  0  0  0  0  0  0  0  0  0  0  0
  187.8070  177.6410  144.9270 O   0  0  0  0  0  0  0  0  0  0  0  0
  186.8370  176.9050  144.1920 C   0  0  2  0  0  3  0  0  0  0  0  0
  187.1700  176.9740  142.7080 C   0  0  0  0  0  2  0  0  0  0  0  0
  189.6720  173.6960  141.3880 C   0  0  2  0  0  3  0  0  0  0  0  0
  188.9110  173.4580  142.6890 C   0  0  0  0  0  2  0  0  0  0  0  0
  188.4530  174.7920  143.2750 C   0  0  0  0  0  2  0  0  0  0  0  0
  188.0540  175.5500  140.9280 C   0  0  0  0  0  3  0  0  0  0  0  0
  187.8520  175.7250  142.2450 C   0  0  0  0  0  0  0  0  0  0  0  0
  188.7410  174.3370  140.3610 C   0  0  0  0  0  2  0  0  0  0  0  0
  190.2270  172.4820  140.8870 O   0  0  0  0  0  0  0  0  0  0  0  0
  192.4450  173.1740  141.2600 C   0  0  0  0  0  2  0  0  0  0  0  0
  191.5940  172.2140  140.9360 C   0  0  0  0  0  3  0  0  0  0  0  0
  185.4510  177.4910  144.4300 C   0  0  0  0  0  2  0  0  0  0  0  0
  184.2250  178.4840  146.3540 C   0  0  0  0  0  1  0  0  0  0  0  0
  184.9920  177.2730  145.8610 C   0  0  0  0  0  2  0  0  0  0  0  0
  189.6510  177.7100  146.5630 O   0  0  0  0  0  0  0  0  0  0  0  0
  190.9110  177.0490  146.5560 C   0  0  1  0  0  3  0  0  0  0  0  0
  191.2430  175.1530  148.1780 O   0  0  0  0  0  0  0  0  0  0  0  0
  191.2300  176.5200  147.9240 C   0  0  0  0  0  0  0  0  0  0  0  0
  191.5230  177.3220  148.8480 O   0  0  0  0  0  1  0  0  0  0  0  0
  190.9290  175.9400  145.5030 C   0  0  0  0  0  2  0  0  0  0  0  0
  192.0440  176.1140  144.4620 C   0  0  1  0  0  3  0  0  0  0  0  0
  193.0230  174.9330  144.5010 C   0  0  2  0  0  3  0  0  0  0  0  0
  192.4040  173.7370  145.2090 C   0  0  0  0  0  1  0  0  0  0  0  0
  194.3040  175.2800  145.1250 N   0  0  0  0  0  0  0  0  0  0  0  0
  194.3740  176.3140  146.1180 C   0  0  0  0  0  3  0  0  0  0  0  0
  194.7990  177.5400  145.8370 C   0  0  0  0  0  2  0  0  0  0  0  0
  195.5580  174.7860  144.5600 C   0  0  0  0  0  2  0  0  0  0  0  0
  196.9770  173.5760  146.1710 C   0  0  0  0  0  2  0  0  0  0  0  0
  196.0110  173.5410  145.2570 C   0  0  0  0  0  3  0  0  0  0  0  0
  191.5010  176.2780  143.1810 O   0  0  0  0  0  0  0  0  0  0  0  0
  191.1280  177.6230  143.1150 C   0  0  0  0  0  1  0  0  0  0  0  0
  1 18  1  0  0  0  0
  1  2  2  0  0  0  0
  3  1  1  0  0  0  0
  4  5  1  6  0  0  0
  4 15  1  0  0  0  0
  4  3  1  0  0  0  0
  6 12  1  6  0  0  0
  6  7  1  0  0  0  0
  7  8  1  0  0  0  0
  9 10  2  0  0  0  0
 10  5  1  0  0  0  0
 10  8  1  0  0  0  0
 11  9  1  0  0  0  0
 11  6  1  0  0  0  0
 12 14  1  0  0  0  0
 14 13  2  0  0  0  0
 15 17  1  0  0  0  0
 17 16  1  0  0  0  0
 19 23  1  6  0  0  0
 19 18  1  0  0  0  0
 19 21  1  0  0  0  0
 21 20  2  0  0  0  0
 21 22  1  0  0  0  0
 24 25  1  0  0  0  0
 24 23  1  1  0  0  0
 25 27  1  0  0  0  0
 25 26  1  1  0  0  0
 27 28  1  0  0  0  0
 29 28  2  0  0  0  0
 30 27  1  0  0  0  0
 30 32  1  0  0  0  0
 32 31  2  0  0  0  0
 33 24  1  0  0  0  0
 34 33  1  0  0  0  0
M  END
>  <MODEL>
6

>  <REMARK>
 VINA RESULT:      -4.7      2.215      5.368
  Name = 
  19 active torsions:
  status: ('A' for Active; 'I' for Inactive)
    1  A    between atoms: C_1  and  O_8
    2  A    between atoms: C_1  and  O_34
    3  A    between atoms: C_2  and  N_25
    4  A    between atoms: C_2  and  C_32
    5  A    between atoms: C_3  and  C_24
    6  A    between atoms: C_3  and  N_25
    7  A    between atoms: C_5  and  C_20
    8  A    between atoms: C_5  and  C_32
    9  A    between atoms: C_6  and  C_18
   10  A    between atoms: C_6  and  C_28
   11  A    between atoms: C_7  and  O_11
   12  A    between atoms: O_8  and  C_18
   13  A    between atoms: O_11  and  C_21
   14  A    between atoms: C_12  and  C_20
   15  A    between atoms: C_18  and  C_30
   16  A    between atoms: O_19  and  C_32
   17  A    between atoms: C_20  and  O_34
   18  A    between atoms: N_25  and  C_27
   19  A    between atoms: C_30  and  C_31
                            x       y       z     vdW  Elec       q    Type
                         _______ _______ _______ _____ _____    ______ ____

>  <TORSDO>
F 19

$$$$
=
 OpenBabel11052420373D

 34 34  0  0  1  0  0  0  0  0999 V2000
  187.7650  175.1750  141.9000 C   0  0  0  0  0  0  0  0  0  0  0  0
  187.8950  174.2560  142.7500 O   0  0  0  0  0  0  0  0  0  0  0  0
  186.9530  176.2710  142.2200 O   0  0  0  0  0  0  0  0  0  0  0  0
  187.4030  177.4000  142.9600 C   0  0  2  0  0  3  0  0  0  0  0  0
  187.2240  177.1290  144.4480 C   0  0  0  0  0  2  0  0  0  0  0  0
  190.8440  176.4920  146.7360 C   0  0  2  0  0  3  0  0  0  0  0  0
  189.9160  175.2860  146.6270 C   0  0  0  0  0  2  0  0  0  0  0  0
  188.5160  175.7420  146.2170 C   0  0  0  0  0  2  0  0  0  0  0  0
  189.6270  177.4480  144.7680 C   0  0  0  0  0  3  0  0  0  0  0  0
  188.5220  176.7550  145.0920 C   0  0  0  0  0  0  0  0  0  0  0  0
  190.9770  177.1600  145.3680 C   0  0  0  0  0  2  0  0  0  0  0  0
  192.1210  176.1140  147.2450 O   0  0  0  0  0  0  0  0  0  0  0  0
  194.2840  175.8080  146.3690 C   0  0  0  0  0  2  0  0  0  0  0  0
  193.0360  175.3830  146.4870 C   0  0  0  0  0  3  0  0  0  0  0  0
  186.5980  178.6320  142.5660 C   0  0  0  0  0  2  0  0  0  0  0  0
  185.4480  180.1310  144.1840 C   0  0  0  0  0  1  0  0  0  0  0  0
  185.3770  178.8060  143.4530 C   0  0  0  0  0  2  0  0  0  0  0  0
  188.4330  175.0460  140.6740 O   0  0  0  0  0  0  0  0  0  0  0  0
  189.0020  173.8270  140.2080 C   0  0  1  0  0  3  0  0  0  0  0  0
  187.9400  174.5340  138.0380 O   0  0  0  0  0  0  0  0  0  0  0  0
  188.5590  173.5500  138.8010 C   0  0  0  0  0  0  0  0  0  0  0  0
  188.7800  172.4210  138.2900 O   0  0  0  0  0  1  0  0  0  0  0  0
  190.5260  173.8690  140.3230 C   0  0  0  0  0  2  0  0  0  0  0  0
  191.0750  172.9400  141.4150 C   0  0  1  0  0  3  0  0  0  0  0  0
  191.6560  173.7460  142.5840 C   0  0  2  0  0  3  0  0  0  0  0  0
  191.4770  175.2400  142.3550 C   0  0  0  0  0  1  0  0  0  0  0  0
  193.0680  173.4410  142.8350 N   0  0  0  0  0  0  0  0  0  0  0  0
  193.4440  172.2230  143.4950 C   0  0  0  0  0  3  0  0  0  0  0  0
  193.1690  171.9940  144.7740 C   0  0  0  0  0  2  0  0  0  0  0  0
  194.0860  174.4770  142.6760 C   0  0  0  0  0  2  0  0  0  0  0  0
  194.5030  174.5110  140.2470 C   0  0  0  0  0  2  0  0  0  0  0  0
  194.9360  174.2190  141.4720 C   0  0  0  0  0  3  0  0  0  0  0  0
  190.0810  172.0550  141.8540 O   0  0  0  0  0  0  0  0  0  0  0  0
  190.6190  170.7800  141.6640 C   0  0  0  0  0  1  0  0  0  0  0  0
  1  3  1  0  0  0  0
  1  2  2  0  0  0  0
  3  4  1  0  0  0  0
  4 15  1  6  0  0  0
  4  5  1  0  0  0  0
  5 10  1  0  0  0  0
  6 12  1  6  0  0  0
  7  6  1  0  0  0  0
  8  7  1  0  0  0  0
  9 10  2  0  0  0  0
  9 11  1  0  0  0  0
 10  8  1  0  0  0  0
 11  6  1  0  0  0  0
 13 14  2  0  0  0  0
 14 12  1  0  0  0  0
 15 17  1  0  0  0  0
 17 16  1  0  0  0  0
 18  1  1  0  0  0  0
 19 23  1  6  0  0  0
 19 18  1  0  0  0  0
 20 21  2  0  0  0  0
 21 19  1  0  0  0  0
 22 21  1  0  0  0  0
 24 23  1  6  0  0  0
 24 33  1  0  0  0  0
 24 25  1  0  0  0  0
 25 26  1  6  0  0  0
 25 27  1  0  0  0  0
 27 28  1  0  0  0  0
 28 29  2  0  0  0  0
 30 27  1  0  0  0  0
 31 32  2  0  0  0  0
 32 30  1  0  0  0  0
 34 33  1  0  0  0  0
M  END
>  <MODEL>
7

>  <REMARK>
 VINA RESULT:      -4.7      1.470      2.453
  Name = 
  19 active torsions:
  status: ('A' for Active; 'I' for Inactive)
    1  A    between atoms: C_1  and  O_8
    2  A    between atoms: C_1  and  O_34
    3  A    between atoms: C_2  and  N_25
    4  A    between atoms: C_2  and  C_32
    5  A    between atoms: C_3  and  C_24
    6  A    between atoms: C_3  and  N_25
    7  A    between atoms: C_5  and  C_20
    8  A    between atoms: C_5  and  C_32
    9  A    between atoms: C_6  and  C_18
   10  A    between atoms: C_6  and  C_28
   11  A    between atoms: C_7  and  O_11
   12  A    between atoms: O_8  and  C_18
   13  A    between atoms: O_11  and  C_21
   14  A    between atoms: C_12  and  C_20
   15  A    between atoms: C_18  and  C_30
   16  A    between atoms: O_19  and  C_32
   17  A    between atoms: C_20  and  O_34
   18  A    between atoms: N_25  and  C_27
   19  A    between atoms: C_30  and  C_31
                            x       y       z     vdW  Elec       q    Type
                         _______ _______ _______ _____ _____    ______ ____

>  <TORSDO>
F 19

$$$$
=
 OpenBabel11052420373D

 34 34  0  0  1  0  0  0  0  0999 V2000
  189.9930  174.7190  145.3460 C   0  0  0  0  0  0  0  0  0  0  0  0
  191.1630  174.7410  145.8100 O   0  0  0  0  0  0  0  0  0  0  0  0
  188.9310  175.0550  146.1960 O   0  0  0  0  0  0  0  0  0  0  0  0
  187.9700  176.0610  145.9020 C   0  0  2  0  0  3  0  0  0  0  0  0
  188.5710  177.0580  144.9200 C   0  0  0  0  0  2  0  0  0  0  0  0
  186.2390  178.3700  141.5150 C   0  0  2  0  0  3  0  0  0  0  0  0
  186.6920  176.9130  141.4790 C   0  0  0  0  0  2  0  0  0  0  0  0
  187.8480  176.7030  142.4540 C   0  0  0  0  0  2  0  0  0  0  0  0
  186.7020  178.3200  143.9750 C   0  0  0  0  0  3  0  0  0  0  0  0
  187.6230  177.3570  143.8000 C   0  0  0  0  0  0  0  0  0  0  0  0
  185.7130  178.7070  142.9090 C   0  0  0  0  0  2  0  0  0  0  0  0
  185.2510  178.6270  140.5200 O   0  0  0  0  0  0  0  0  0  0  0  0
  182.9270  178.3720  140.7960 C   0  0  0  0  0  2  0  0  0  0  0  0
  184.0880  177.8640  140.4140 C   0  0  0  0  0  3  0  0  0  0  0  0
  187.5700  176.7860  147.1810 C   0  0  0  0  0  2  0  0  0  0  0  0
  185.8450  178.5530  147.4800 C   0  0  0  0  0  1  0  0  0  0  0  0
  186.0800  177.0800  147.2110 C   0  0  0  0  0  2  0  0  0  0  0  0
  189.8160  174.3490  144.0050 O   0  0  0  0  0  0  0  0  0  0  0  0
  190.5880  173.3460  143.3540 C   0  0  1  0  0  3  0  0  0  0  0  0
  188.3050  172.4830  142.7370 O   0  0  0  0  0  1  0  0  0  0  0  0
  189.6870  172.3380  142.7010 C   0  0  0  0  0  0  0  0  0  0  0  0
  190.1890  171.3630  142.0830 O   0  0  0  0  0  0  0  0  0  0  0  0
  191.5500  173.9790  142.3480 C   0  0  0  0  0  2  0  0  0  0  0  0
  193.0050  174.0060  142.8390 C   0  0  1  0  0  3  0  0  0  0  0  0
  193.3330  175.3420  143.5190 C   0  0  2  0  0  3  0  0  0  0  0  0
  192.5690  176.4850  142.8660 C   0  0  0  0  0  1  0  0  0  0  0  0
  194.7700  175.6350  143.5260 N   0  0  0  0  0  0  0  0  0  0  0  0
  195.5220  175.6210  142.3040 C   0  0  0  0  0  3  0  0  0  0  0  0
  195.9710  176.7330  141.7330 C   0  0  0  0  0  2  0  0  0  0  0  0
  195.5090  175.6710  144.7860 C   0  0  0  0  0  2  0  0  0  0  0  0
  194.3940  177.0710  146.4800 C   0  0  0  0  0  2  0  0  0  0  0  0
  194.5870  175.8660  145.9480 C   0  0  0  0  0  3  0  0  0  0  0  0
  193.2550  172.9260  143.6960 O   0  0  0  0  0  0  0  0  0  0  0  0
  193.9850  172.0150  142.9290 C   0  0  0  0  0  1  0  0  0  0  0  0
  1  2  2  0  0  0  0
  1  3  1  0  0  0  0
  4  5  1  6  0  0  0
  4  3  1  0  0  0  0
  4 15  1  0  0  0  0
  6 12  1  6  0  0  0
  6 11  1  0  0  0  0
  7  6  1  0  0  0  0
  7  8  1  0  0  0  0
  8 10  1  0  0  0  0
 10  9  2  0  0  0  0
 10  5  1  0  0  0  0
 11  9  1  0  0  0  0
 14 12  1  0  0  0  0
 14 13  2  0  0  0  0
 15 17  1  0  0  0  0
 17 16  1  0  0  0  0
 18  1  1  0  0  0  0
 19 23  1  6  0  0  0
 19 18  1  0  0  0  0
 21 20  1  0  0  0  0
 21 19  1  0  0  0  0
 22 21  2  0  0  0  0
 24 23  1  1  0  0  0
 24 25  1  0  0  0  0
 24 33  1  0  0  0  0
 25 26  1  6  0  0  0
 25 27  1  0  0  0  0
 27 30  1  0  0  0  0
 28 27  1  0  0  0  0
 29 28  2  0  0  0  0
 30 32  1  0  0  0  0
 32 31  2  0  0  0  0
 34 33  1  0  0  0  0
M  END
>  <MODEL>
8

>  <REMARK>
 VINA RESULT:      -4.6      2.352      5.423
  Name = 
  19 active torsions:
  status: ('A' for Active; 'I' for Inactive)
    1  A    between atoms: C_1  and  O_8
    2  A    between atoms: C_1  and  O_34
    3  A    between atoms: C_2  and  N_25
    4  A    between atoms: C_2  and  C_32
    5  A    between atoms: C_3  and  C_24
    6  A    between atoms: C_3  and  N_25
    7  A    between atoms: C_5  and  C_20
    8  A    between atoms: C_5  and  C_32
    9  A    between atoms: C_6  and  C_18
   10  A    between atoms: C_6  and  C_28
   11  A    between atoms: C_7  and  O_11
   12  A    between atoms: O_8  and  C_18
   13  A    between atoms: O_11  and  C_21
   14  A    between atoms: C_12  and  C_20
   15  A    between atoms: C_18  and  C_30
   16  A    between atoms: O_19  and  C_32
   17  A    between atoms: C_20  and  O_34
   18  A    between atoms: N_25  and  C_27
   19  A    between atoms: C_30  and  C_31
                            x       y       z     vdW  Elec       q    Type
                         _______ _______ _______ _____ _____    ______ ____

>  <TORSDO>
F 19

$$$$
=
 OpenBabel11052420373D

 34 34  0  0  1  0  0  0  0  0999 V2000
  187.4180  176.0050  142.3500 C   0  0  0  0  0  0  0  0  0  0  0  0
  187.7940  176.7910  141.4420 O   0  0  0  0  0  0  0  0  0  0  0  0
  186.9690  176.5480  143.5610 O   0  0  0  0  0  0  0  0  0  0  0  0
  187.4020  177.8020  144.0740 C   0  0  2  0  0  3  0  0  0  0  0  0
  188.0770  177.5870  145.4220 C   0  0  0  0  0  2  0  0  0  0  0  0
  192.3610  176.9630  145.3320 C   0  0  2  0  0  3  0  0  0  0  0  0
  191.5380  175.7900  145.8540 C   0  0  0  0  0  2  0  0  0  0  0  0
  190.1480  176.2710  146.2650 C   0  0  0  0  0  2  0  0  0  0  0  0
  190.2440  177.8330  144.3160 C   0  0  0  0  0  3  0  0  0  0  0  0
  189.5150  177.2060  145.2560 C   0  0  0  0  0  0  0  0  0  0  0  0
  191.7000  177.5340  144.0780 C   0  0  0  0  0  2  0  0  0  0  0  0
  193.7050  176.5710  145.0660 O   0  0  0  0  0  0  0  0  0  0  0  0
  195.1890  174.9270  145.8640 C   0  0  0  0  0  2  0  0  0  0  0  0
  194.5430  176.0660  146.0600 C   0  0  0  0  0  3  0  0  0  0  0  0
  186.2090  178.7330  144.2460 C   0  0  0  0  0  2  0  0  0  0  0  0
  184.5140  178.6060  146.0630 C   0  0  0  0  0  1  0  0  0  0  0  0
  184.9910  177.9870  144.7640 C   0  0  0  0  0  2  0  0  0  0  0  0
  187.4810  174.6260  142.1030 O   0  0  0  0  0  0  0  0  0  0  0  0
  188.6850  173.9310  141.7980 C   0  0  1  0  0  3  0  0  0  0  0  0
  189.2040  171.7700  142.9790 O   0  0  0  0  0  0  0  0  0  0  0  0
  189.1590  173.1590  142.9950 C   0  0  0  0  0  0  0  0  0  0  0  0
  189.5530  173.7780  144.0180 O   0  0  0  0  0  1  0  0  0  0  0  0
  188.4880  173.0240  140.5830 C   0  0  0  0  0  2  0  0  0  0  0  0
  189.1880  173.5460  139.3200 C   0  0  1  0  0  3  0  0  0  0  0  0
  190.4060  172.6810  138.9680 C   0  0  2  0  0  3  0  0  0  0  0  0
  190.4260  171.4070  139.8000 C   0  0  0  0  0  1  0  0  0  0  0  0
  191.6740  173.4020  139.1200 N   0  0  0  0  0  0  0  0  0  0  0  0
  192.2590  174.0910  138.0040 C   0  0  0  0  0  3  0  0  0  0  0  0
  193.4700  174.6330  138.0610 C   0  0  0  0  0  2  0  0  0  0  0  0
  192.4960  173.2050  140.3110 C   0  0  0  0  0  2  0  0  0  0  0  0
  193.2580  174.9430  141.8830 C   0  0  0  0  0  2  0  0  0  0  0  0
  192.2500  174.2810  141.3220 C   0  0  0  0  0  3  0  0  0  0  0  0
  188.2870  173.6110  138.2480 O   0  0  0  0  0  0  0  0  0  0  0  0
  187.8260  174.9300  138.2410 C   0  0  0  0  0  1  0  0  0  0  0  0
  1  3  1  0  0  0  0
  2  1  2  0  0  0  0
  3  4  1  0  0  0  0
  4 15  1  1  0  0  0
  4  5  1  0  0  0  0
  6 12  1  6  0  0  0
  6  7  1  0  0  0  0
  7  8  1  0  0  0  0
  9 10  2  0  0  0  0
 10  5  1  0  0  0  0
 10  8  1  0  0  0  0
 11  9  1  0  0  0  0
 11  6  1  0  0  0  0
 12 14  1  0  0  0  0
 13 14  2  0  0  0  0
 15 17  1  0  0  0  0
 17 16  1  0  0  0  0
 18  1  1  0  0  0  0
 19 23  1  6  0  0  0
 19 18  1  0  0  0  0
 19 21  1  0  0  0  0
 20 21  2  0  0  0  0
 21 22  1  0  0  0  0
 24 23  1  1  0  0  0
 25 27  1  0  0  0  0
 25 24  1  0  0  0  0
 25 26  1  1  0  0  0
 27 30  1  0  0  0  0
 28 29  2  0  0  0  0
 28 27  1  0  0  0  0
 30 32  1  0  0  0  0
 32 31  2  0  0  0  0
 33 24  1  0  0  0  0
 34 33  1  0  0  0  0
M  END
>  <MODEL>
9

>  <REMARK>
 VINA RESULT:      -4.6      2.070      3.470
  Name = 
  19 active torsions:
  status: ('A' for Active; 'I' for Inactive)
    1  A    between atoms: C_1  and  O_8
    2  A    between atoms: C_1  and  O_34
    3  A    between atoms: C_2  and  N_25
    4  A    between atoms: C_2  and  C_32
    5  A    between atoms: C_3  and  C_24
    6  A    between atoms: C_3  and  N_25
    7  A    between atoms: C_5  and  C_20
    8  A    between atoms: C_5  and  C_32
    9  A    between atoms: C_6  and  C_18
   10  A    between atoms: C_6  and  C_28
   11  A    between atoms: C_7  and  O_11
   12  A    between atoms: O_8  and  C_18
   13  A    between atoms: O_11  and  C_21
   14  A    between atoms: C_12  and  C_20
   15  A    between atoms: C_18  and  C_30
   16  A    between atoms: O_19  and  C_32
   17  A    between atoms: C_20  and  O_34
   18  A    between atoms: N_25  and  C_27
   19  A    between atoms: C_30  and  C_31
                            x       y       z     vdW  Elec       q    Type
                         _______ _______ _______ _____ _____    ______ ____

>  <TORSDO>
F 19

$$$$
