=
 OpenBabel11052417073D

 30 32  0  0  1  0  0  0  0  0999 V2000
  189.3070  176.3830  143.3610 C   0  0  1  0  0  3  0  0  0  0  0  0
  188.5870  175.9820  144.6590 C   0  0  1  0  0  3  0  0  0  0  0  0
  188.4960  177.7890  142.5010 S   0  0  0  0  0  0  0  0  0  0  0  0
  185.8760  176.7610  145.6090 C   0  0  1  0  0  3  0  0  0  0  0  0
  185.7630  177.8950  142.3550 C   0  0  2  0  0  3  0  0  0  0  0  0
  186.9860  176.3870  140.8530 O   0  0  0  0  0  1  0  0  0  0  0  0
  187.1260  176.9320  146.4730 C   0  0  2  0  0  3  0  0  0  0  0  0
  186.9400  176.9090  142.1480 C   0  0  1  0  0  3  0  0  0  0  0  0
  185.0240  177.5890  143.5110 O   0  0  0  0  0  0  0  0  0  0  0  0
  186.7460  178.1780  147.2630 C   0  0  0  0  0  2  0  0  0  0  0  0
  184.8550  177.1030  146.4980 O   0  0  0  0  0  0  0  0  0  0  0  0
  189.2060  174.7590  145.3130 C   0  0  0  0  0  1  0  0  0  0  0  0
  188.4130  177.1220  145.6610 C   0  0  0  0  0  2  0  0  0  0  0  0
  185.2950  178.3920  146.8000 C   0  0  2  0  0  3  0  0  0  0  0  0
  185.3350  179.0520  145.4280 C   0  0  0  0  0  2  0  0  0  0  0  0
  185.8590  177.9030  144.5890 C   0  0  1  0  0  3  0  0  0  0  0  0
  184.8130  177.9980  141.1640 C   0  0  0  0  0  2  0  0  0  0  0  0
  182.4120  178.0080  140.4910 C   0  0  0  0  0  1  0  0  0  0  0  0
  183.3890  178.2740  141.6200 C   0  0  0  0  0  2  0  0  0  0  0  0
  190.8350  176.5580  143.5190 C   0  0  2  0  0  3  0  0  0  0  0  0
  191.4570  178.8450  144.1850 C   0  0  0  0  0  2  0  0  0  0  0  0
  191.3400  177.9390  143.2190 C   0  0  0  0  0  3  0  0  0  0  0  0
  191.6590  175.4920  142.7850 C   0  0  2  0  0  3  0  0  0  0  0  0
  190.8160  174.5680  141.9610 C   0  0  0  0  0  3  0  0  0  0  0  0
  190.7730  173.3750  142.2180 O   0  0  0  0  0  0  0  0  0  0  0  0
  192.5200  174.7040  143.7600 C   0  0  0  0  0  2  0  0  0  0  0  0
  194.1480  175.4950  143.9350 S   0  0  0  0  0  0  0  0  0  0  0  0
  194.1210  175.3920  145.7470 C   0  0  0  0  0  3  0  0  0  0  0  0
  194.1540  176.7890  146.3310 C   0  0  0  0  0  1  0  0  0  0  0  0
  192.8580  174.6910  146.1960 C   0  0  0  0  0  1  0  0  0  0  0  0
  1 20  1  1  0  0  0
  1  2  1  0  0  0  0
  2 12  1  1  0  0  0
  2 13  1  0  0  0  0
  3  1  1  0  0  0  0
  4  7  1  0  0  0  0
  4 11  1  1  0  0  0
  5 17  1  6  0  0  0
  5  9  1  0  0  0  0
  7 13  1  6  0  0  0
  7 10  1  0  0  0  0
  8  6  1  6  0  0  0
  8  5  1  0  0  0  0
  8  3  1  0  0  0  0
  9 16  1  0  0  0  0
 11 14  1  0  0  0  0
 14 15  1  6  0  0  0
 14 10  1  0  0  0  0
 16 15  1  1  0  0  0
 16  4  1  0  0  0  0
 17 19  1  0  0  0  0
 18 19  1  0  0  0  0
 20 22  1  6  0  0  0
 22 21  2  0  0  0  0
 23 24  1  1  0  0  0
 23 20  1  0  0  0  0
 23 26  1  0  0  0  0
 24 25  2  0  0  0  0
 26 27  1  0  0  0  0
 27 28  1  0  0  0  0
 28 30  1  0  0  0  0
 28 29  1  0  0  0  0
M  END
>  <MODEL>
1

>  <REMARK>
 VINA RESULT:      -6.7      0.000      0.000
  Name = 
  9 active torsions:
  status: ('A' for Active; 'I' for Inactive)
    1  A    between atoms: C_1  and  C_22
    2  A    between atoms: C_2  and  C_14
    3  A    between atoms: C_3  and  S_28
    4  A    between atoms: C_6  and  C_8
    5  A    between atoms: C_6  and  C_21
    6  A    between atoms: C_14  and  C_20
    7  A    between atoms: C_14  and  C_22
    8  A    between atoms: C_20  and  S_28
    9  A    between atoms: C_22  and  C_29
                            x       y       z     vdW  Elec       q    Type
                         _______ _______ _______ _____ _____    ______ ____

>  <TORSDO>
F 9

$$$$
=
 OpenBabel11052417073D

 30 32  0  0  1  0  0  0  0  0999 V2000
  190.9700  176.2320  144.9520 C   0  0  1  0  0  3  0  0  0  0  0  0
  190.5630  176.9310  143.6440 C   0  0  1  0  0  3  0  0  0  0  0  0
  189.5260  175.7030  145.9570 S   0  0  0  0  0  0  0  0  0  0  0  0
  187.9000  177.9940  142.8440 C   0  0  1  0  0  3  0  0  0  0  0  0
  187.3550  177.3570  146.1880 C   0  0  2  0  0  3  0  0  0  0  0  0
  189.3670  177.8260  147.5140 O   0  0  0  0  0  1  0  0  0  0  0  0
  188.6940  177.0270  141.9640 C   0  0  2  0  0  3  0  0  0  0  0  0
  188.9020  177.3850  146.2730 C   0  0  1  0  0  3  0  0  0  0  0  0
  186.8850  178.0020  145.0310 O   0  0  0  0  0  0  0  0  0  0  0  0
  187.5540  176.2640  141.2990 C   0  0  0  0  0  2  0  0  0  0  0  0
  186.8250  178.3300  142.0180 O   0  0  0  0  0  0  0  0  0  0  0  0
  191.7590  177.4500  142.8650 C   0  0  0  0  0  1  0  0  0  0  0  0
  189.6340  176.1070  142.7530 C   0  0  0  0  0  2  0  0  0  0  0  0
  186.3330  177.0390  141.8200 C   0  0  2  0  0  3  0  0  0  0  0  0
  186.0560  176.5750  143.2450 C   0  0  0  0  0  2  0  0  0  0  0  0
  187.2500  177.1750  143.9620 C   0  0  1  0  0  3  0  0  0  0  0  0
  186.6490  177.9400  147.4090 C   0  0  0  0  0  2  0  0  0  0  0  0
  184.2580  178.1690  146.7360 C   0  0  0  0  0  1  0  0  0  0  0  0
  185.5550  178.9120  146.9990 C   0  0  0  0  0  2  0  0  0  0  0  0
  192.0300  175.1220  144.7670 C   0  0  2  0  0  3  0  0  0  0  0  0
  191.3860  172.8610  144.0350 C   0  0  0  0  0  2  0  0  0  0  0  0
  191.5320  173.7310  145.0310 C   0  0  0  0  0  3  0  0  0  0  0  0
  193.3450  175.3920  145.5110 C   0  0  2  0  0  3  0  0  0  0  0  0
  193.2160  176.4600  146.5540 C   0  0  0  0  0  3  0  0  0  0  0  0
  194.1980  177.0820  146.9260 O   0  0  0  0  0  0  0  0  0  0  0  0
  194.4610  175.7300  144.5350 C   0  0  0  0  0  2  0  0  0  0  0  0
  195.2220  174.2030  143.9050 S   0  0  0  0  0  0  0  0  0  0  0  0
  195.3400  173.4560  145.5550 C   0  0  0  0  0  3  0  0  0  0  0  0
  194.9570  171.9930  145.4740 C   0  0  0  0  0  1  0  0  0  0  0  0
  196.7600  173.5740  146.0650 C   0  0  0  0  0  1  0  0  0  0  0  0
  1 20  1  6  0  0  0
  1  3  1  0  0  0  0
  2 12  1  6  0  0  0
  2  1  1  0  0  0  0
  3  8  1  0  0  0  0
  4 11  1  6  0  0  0
  4 16  1  0  0  0  0
  5  8  1  0  0  0  0
  5 17  1  1  0  0  0
  7 10  1  1  0  0  0
  7 13  1  0  0  0  0
  7  4  1  0  0  0  0
  8  6  1  1  0  0  0
  9  5  1  0  0  0  0
 13  2  1  0  0  0  0
 14 10  1  1  0  0  0
 14 11  1  0  0  0  0
 14 15  1  0  0  0  0
 16 15  1  6  0  0  0
 16  9  1  0  0  0  0
 18 19  1  0  0  0  0
 19 17  1  0  0  0  0
 20 22  1  1  0  0  0
 20 23  1  0  0  0  0
 21 22  2  0  0  0  0
 23 26  1  6  0  0  0
 23 24  1  0  0  0  0
 24 25  2  0  0  0  0
 27 26  1  0  0  0  0
 27 28  1  0  0  0  0
 28 30  1  0  0  0  0
 29 28  1  0  0  0  0
M  END
>  <MODEL>
2

>  <REMARK>
 VINA RESULT:      -6.6      2.311      4.556
  Name = 
  9 active torsions:
  status: ('A' for Active; 'I' for Inactive)
    1  A    between atoms: C_1  and  C_22
    2  A    between atoms: C_2  and  C_14
    3  A    between atoms: C_3  and  S_28
    4  A    between atoms: C_6  and  C_8
    5  A    between atoms: C_6  and  C_21
    6  A    between atoms: C_14  and  C_20
    7  A    between atoms: C_14  and  C_22
    8  A    between atoms: C_20  and  S_28
    9  A    between atoms: C_22  and  C_29
                            x       y       z     vdW  Elec       q    Type
                         _______ _______ _______ _____ _____    ______ ____

>  <TORSDO>
F 9

$$$$
=
 OpenBabel11052417073D

 30 32  0  0  1  0  0  0  0  0999 V2000
  189.1750  176.3640  143.5140 C   0  0  1  0  0  3  0  0  0  0  0  0
  188.4600  175.9870  144.8210 C   0  0  1  0  0  3  0  0  0  0  0  0
  188.3770  177.7730  142.6450 S   0  0  0  0  0  0  0  0  0  0  0  0
  185.7690  176.8150  145.7860 C   0  0  1  0  0  3  0  0  0  0  0  0
  185.6450  177.9160  142.5210 C   0  0  2  0  0  3  0  0  0  0  0  0
  186.8340  176.3760  141.0250 O   0  0  0  0  0  1  0  0  0  0  0  0
  187.0290  176.9760  146.6370 C   0  0  2  0  0  3  0  0  0  0  0  0
  186.8060  176.9120  142.3140 C   0  0  1  0  0  3  0  0  0  0  0  0
  184.9110  177.6330  143.6860 O   0  0  0  0  0  0  0  0  0  0  0  0
  186.6720  178.2360  147.4180 C   0  0  0  0  0  2  0  0  0  0  0  0
  184.7600  177.1800  146.6790 O   0  0  0  0  0  0  0  0  0  0  0  0
  189.0680  174.7620  145.4840 C   0  0  0  0  0  1  0  0  0  0  0  0
  188.3110  177.1400  145.8130 C   0  0  0  0  0  2  0  0  0  0  0  0
  185.2210  178.4660  146.9640 C   0  0  2  0  0  3  0  0  0  0  0  0
  185.2580  179.1110  145.5840 C   0  0  0  0  0  2  0  0  0  0  0  0
  185.7590  177.9460  144.7540 C   0  0  1  0  0  3  0  0  0  0  0  0
  184.6870  178.0210  141.3370 C   0  0  0  0  0  2  0  0  0  0  0  0
  182.3000  178.1220  140.6200 C   0  0  0  0  0  1  0  0  0  0  0  0
  183.2460  178.1490  141.8060 C   0  0  0  0  0  2  0  0  0  0  0  0
  190.7070  176.5200  143.6570 C   0  0  2  0  0  3  0  0  0  0  0  0
  191.4880  178.8200  144.0600 C   0  0  0  0  0  2  0  0  0  0  0  0
  191.2480  177.8400  143.1930 C   0  0  0  0  0  3  0  0  0  0  0  0
  191.5050  175.3510  143.0650 C   0  0  2  0  0  3  0  0  0  0  0  0
  192.8920  175.7400  142.6540 C   0  0  0  0  0  3  0  0  0  0  0  0
  193.8330  175.5710  143.4140 O   0  0  0  0  0  0  0  0  0  0  0  0
  190.7600  174.7200  141.8990 C   0  0  0  0  0  2  0  0  0  0  0  0
  190.5680  172.9330  142.1750 S   0  0  0  0  0  0  0  0  0  0  0  0
  189.0850  172.8240  141.1340 C   0  0  0  0  0  3  0  0  0  0  0  0
  187.8530  173.0240  141.9920 C   0  0  0  0  0  1  0  0  0  0  0  0
  189.1330  173.8970  140.0690 C   0  0  0  0  0  1  0  0  0  0  0  0
  1 20  1  1  0  0  0
  1  2  1  0  0  0  0
  2 12  1  1  0  0  0
  2 13  1  0  0  0  0
  3  1  1  0  0  0  0
  4  7  1  0  0  0  0
  4 11  1  1  0  0  0
  5 17  1  6  0  0  0
  5  9  1  0  0  0  0
  7 13  1  6  0  0  0
  7 10  1  0  0  0  0
  8  6  1  6  0  0  0
  8  5  1  0  0  0  0
  8  3  1  0  0  0  0
  9 16  1  0  0  0  0
 11 14  1  0  0  0  0
 14 15  1  6  0  0  0
 14 10  1  0  0  0  0
 16 15  1  1  0  0  0
 16  4  1  0  0  0  0
 17 19  1  0  0  0  0
 18 19  1  0  0  0  0
 20 22  1  6  0  0  0
 22 21  2  0  0  0  0
 23 26  1  6  0  0  0
 23 20  1  0  0  0  0
 24 23  1  0  0  0  0
 24 25  2  0  0  0  0
 26 27  1  0  0  0  0
 28 29  1  0  0  0  0
 28 27  1  0  0  0  0
 30 28  1  0  0  0  0
M  END
>  <MODEL>
3

>  <REMARK>
 VINA RESULT:      -6.4      1.639      2.768
  Name = 
  9 active torsions:
  status: ('A' for Active; 'I' for Inactive)
    1  A    between atoms: C_1  and  C_22
    2  A    between atoms: C_2  and  C_14
    3  A    between atoms: C_3  and  S_28
    4  A    between atoms: C_6  and  C_8
    5  A    between atoms: C_6  and  C_21
    6  A    between atoms: C_14  and  C_20
    7  A    between atoms: C_14  and  C_22
    8  A    between atoms: C_20  and  S_28
    9  A    between atoms: C_22  and  C_29
                            x       y       z     vdW  Elec       q    Type
                         _______ _______ _______ _____ _____    ______ ____

>  <TORSDO>
F 9

$$$$
=
 OpenBabel11052417073D

 30 32  0  0  1  0  0  0  0  0999 V2000
  189.9920  176.4300  143.5710 C   0  0  1  0  0  3  0  0  0  0  0  0
  191.3240  177.1180  143.9120 C   0  0  1  0  0  3  0  0  0  0  0  0
  190.0840  174.5990  143.6830 S   0  0  0  0  0  0  0  0  0  0  0  0
  194.0370  175.9180  144.1540 C   0  0  1  0  0  3  0  0  0  0  0  0
  192.3020  173.2940  142.7430 C   0  0  2  0  0  3  0  0  0  0  0  0
  190.6200  174.1050  141.1480 O   0  0  0  0  0  1  0  0  0  0  0  0
  193.4230  176.7830  145.2560 C   0  0  2  0  0  3  0  0  0  0  0  0
  191.2950  174.3990  142.3360 C   0  0  1  0  0  3  0  0  0  0  0  0
  193.5660  173.8280  143.0480 O   0  0  0  0  0  0  0  0  0  0  0  0
  194.0420  176.1360  146.4890 C   0  0  0  0  0  2  0  0  0  0  0  0
  195.3360  175.7160  144.6260 O   0  0  0  0  0  0  0  0  0  0  0  0
  191.2660  178.6240  143.7240 C   0  0  0  0  0  1  0  0  0  0  0  0
  191.8900  176.7490  145.2820 C   0  0  0  0  0  2  0  0  0  0  0  0
  195.0000  175.1210  145.8430 C   0  0  2  0  0  3  0  0  0  0  0  0
  194.1770  173.9170  145.4000 C   0  0  0  0  0  2  0  0  0  0  0  0
  193.4020  174.5280  144.2480 C   0  0  1  0  0  3  0  0  0  0  0  0
  192.4620  172.1800  141.7120 C   0  0  0  0  0  2  0  0  0  0  0  0
  190.4890  170.7080  142.1140 C   0  0  0  0  0  1  0  0  0  0  0  0
  191.9920  170.8460  142.2680 C   0  0  0  0  0  2  0  0  0  0  0  0
  188.7700  177.0300  144.3060 C   0  0  2  0  0  3  0  0  0  0  0  0
  188.5100  176.5900  146.7140 C   0  0  0  0  0  2  0  0  0  0  0  0
  188.2720  176.2120  145.4610 C   0  0  0  0  0  3  0  0  0  0  0  0
  187.6210  177.4290  143.3710 C   0  0  2  0  0  3  0  0  0  0  0  0
  188.0960  177.9210  142.0380 C   0  0  0  0  0  3  0  0  0  0  0  0
  187.4830  177.6420  141.0210 O   0  0  0  0  0  0  0  0  0  0  0  0
  186.7170  178.4600  144.0300 C   0  0  0  0  0  2  0  0  0  0  0  0
  184.9820  177.9280  143.9230 S   0  0  0  0  0  0  0  0  0  0  0  0
  184.6800  178.1970  145.6920 C   0  0  0  0  0  3  0  0  0  0  0  0
  184.8600  176.8920  146.4380 C   0  0  0  0  0  1  0  0  0  0  0  0
  185.6620  179.2180  146.2240 C   0  0  0  0  0  1  0  0  0  0  0  0
  1  3  1  0  0  0  0
  1  2  1  0  0  0  0
  1 20  1  1  0  0  0
  2 12  1  1  0  0  0
  2 13  1  0  0  0  0
  4 16  1  0  0  0  0
  4 11  1  1  0  0  0
  4  7  1  0  0  0  0
  5 17  1  6  0  0  0
  5  9  1  0  0  0  0
  7 13  1  1  0  0  0
  7 10  1  0  0  0  0
  8  6  1  6  0  0  0
  8  5  1  0  0  0  0
  8  3  1  0  0  0  0
  9 16  1  0  0  0  0
 11 14  1  0  0  0  0
 14 15  1  6  0  0  0
 14 10  1  0  0  0  0
 16 15  1  1  0  0  0
 17 19  1  0  0  0  0
 18 19  1  0  0  0  0
 20 22  1  1  0  0  0
 22 21  2  0  0  0  0
 23 24  1  6  0  0  0
 23 26  1  0  0  0  0
 23 20  1  0  0  0  0
 25 24  2  0  0  0  0
 27 26  1  0  0  0  0
 27 28  1  0  0  0  0
 28 30  1  0  0  0  0
 28 29  1  0  0  0  0
M  END
>  <MODEL>
4

>  <REMARK>
 VINA RESULT:      -6.4      2.416      7.450
  Name = 
  9 active torsions:
  status: ('A' for Active; 'I' for Inactive)
    1  A    between atoms: C_1  and  C_22
    2  A    between atoms: C_2  and  C_14
    3  A    between atoms: C_3  and  S_28
    4  A    between atoms: C_6  and  C_8
    5  A    between atoms: C_6  and  C_21
    6  A    between atoms: C_14  and  C_20
    7  A    between atoms: C_14  and  C_22
    8  A    between atoms: C_20  and  S_28
    9  A    between atoms: C_22  and  C_29
                            x       y       z     vdW  Elec       q    Type
                         _______ _______ _______ _____ _____    ______ ____

>  <TORSDO>
F 9

$$$$
=
 OpenBabel11052417073D

 30 32  0  0  1  0  0  0  0  0999 V2000
  190.1290  175.9530  145.6770 C   0  0  1  0  0  3  0  0  0  0  0  0
  188.8400  175.6330  146.4520 C   0  0  1  0  0  3  0  0  0  0  0  0
  189.9770  177.4540  144.6290 S   0  0  0  0  0  0  0  0  0  0  0  0
  186.1020  176.7300  146.0580 C   0  0  1  0  0  3  0  0  0  0  0  0
  187.6710  177.8950  143.2170 C   0  0  2  0  0  3  0  0  0  0  0  0
  189.2990  176.2600  142.3770 O   0  0  0  0  0  1  0  0  0  0  0  0
  186.7990  176.7400  147.4190 C   0  0  2  0  0  3  0  0  0  0  0  0
  188.6950  176.7740  143.5270 C   0  0  1  0  0  3  0  0  0  0  0  0
  186.4440  177.6720  143.8650 O   0  0  0  0  0  0  0  0  0  0  0  0
  186.2200  178.0170  148.0150 C   0  0  0  0  0  2  0  0  0  0  0  0
  184.8220  177.1880  146.3790 O   0  0  0  0  0  0  0  0  0  0  0  0
  188.9420  174.3380  147.2400 C   0  0  0  0  0  1  0  0  0  0  0  0
  188.3300  176.7780  147.3250 C   0  0  0  0  0  2  0  0  0  0  0  0
  185.1960  178.4110  146.9370 C   0  0  2  0  0  3  0  0  0  0  0  0
  185.9540  179.0720  145.7910 C   0  0  0  0  0  2  0  0  0  0  0  0
  186.6920  177.8730  145.2270 C   0  0  1  0  0  3  0  0  0  0  0  0
  187.4210  178.1220  141.7290 C   0  0  0  0  0  2  0  0  0  0  0  0
  185.5240  177.9120  140.1230 C   0  0  0  0  0  1  0  0  0  0  0  0
  185.9640  178.4680  141.4640 C   0  0  0  0  0  2  0  0  0  0  0  0
  191.4060  175.9390  146.5490 C   0  0  2  0  0  3  0  0  0  0  0  0
  191.5630  177.2000  148.6580 C   0  0  0  0  0  2  0  0  0  0  0  0
  191.6430  177.1980  147.3300 C   0  0  0  0  0  3  0  0  0  0  0  0
  192.6680  175.5080  145.7900 C   0  0  2  0  0  3  0  0  0  0  0  0
  193.6940  176.5950  145.6990 C   0  0  0  0  0  3  0  0  0  0  0  0
  194.8390  176.3990  146.0740 O   0  0  0  0  0  0  0  0  0  0  0  0
  192.3180  174.9860  144.4050 C   0  0  0  0  0  2  0  0  0  0  0  0
  193.2970  173.5000  144.0330 S   0  0  0  0  0  0  0  0  0  0  0  0
  191.8950  172.3790  144.3040 C   0  0  0  0  0  3  0  0  0  0  0  0
  190.6620  172.9430  143.6290 C   0  0  0  0  0  1  0  0  0  0  0  0
  192.2110  171.0210  143.7160 C   0  0  0  0  0  1  0  0  0  0  0  0
  1  2  1  0  0  0  0
  1 20  1  1  0  0  0
  2 12  1  1  0  0  0
  2 13  1  0  0  0  0
  3  1  1  0  0  0  0
  4 11  1  1  0  0  0
  4  7  1  0  0  0  0
  5 17  1  6  0  0  0
  5  8  1  0  0  0  0
  5  9  1  0  0  0  0
  7 13  1  6  0  0  0
  7 10  1  0  0  0  0
  8  6  1  6  0  0  0
  8  3  1  0  0  0  0
  9 16  1  0  0  0  0
 11 14  1  0  0  0  0
 14 15  1  6  0  0  0
 14 10  1  0  0  0  0
 16 15  1  1  0  0  0
 16  4  1  0  0  0  0
 18 19  1  0  0  0  0
 19 17  1  0  0  0  0
 20 22  1  6  0  0  0
 22 21  2  0  0  0  0
 23 26  1  6  0  0  0
 23 20  1  0  0  0  0
 24 23  1  0  0  0  0
 24 25  2  0  0  0  0
 27 28  1  0  0  0  0
 27 26  1  0  0  0  0
 29 28  1  0  0  0  0
 30 28  1  0  0  0  0
M  END
>  <MODEL>
5

>  <REMARK>
 VINA RESULT:      -6.0      2.123      3.016
  Name = 
  9 active torsions:
  status: ('A' for Active; 'I' for Inactive)
    1  A    between atoms: C_1  and  C_22
    2  A    between atoms: C_2  and  C_14
    3  A    between atoms: C_3  and  S_28
    4  A    between atoms: C_6  and  C_8
    5  A    between atoms: C_6  and  C_21
    6  A    between atoms: C_14  and  C_20
    7  A    between atoms: C_14  and  C_22
    8  A    between atoms: C_20  and  S_28
    9  A    between atoms: C_22  and  C_29
                            x       y       z     vdW  Elec       q    Type
                         _______ _______ _______ _____ _____    ______ ____

>  <TORSDO>
F 9

$$$$
=
 OpenBabel11052417073D

 30 32  0  0  1  0  0  0  0  0999 V2000
  189.2860  176.2320  144.1640 C   0  0  1  0  0  3  0  0  0  0  0  0
  188.4730  176.0250  145.4530 C   0  0  1  0  0  3  0  0  0  0  0  0
  188.5910  177.5460  143.0850 S   0  0  0  0  0  0  0  0  0  0  0  0
  185.7480  177.0180  146.1230 C   0  0  1  0  0  3  0  0  0  0  0  0
  185.8780  177.7330  142.7520 C   0  0  2  0  0  3  0  0  0  0  0  0
  187.1200  176.0020  141.5310 O   0  0  0  0  0  1  0  0  0  0  0  0
  186.9520  177.2510  147.0370 C   0  0  2  0  0  3  0  0  0  0  0  0
  187.0210  176.6860  142.7460 C   0  0  1  0  0  3  0  0  0  0  0  0
  185.0590  177.6030  143.8870 O   0  0  0  0  0  0  0  0  0  0  0  0
  186.5810  178.6010  147.6400 C   0  0  0  0  0  2  0  0  0  0  0  0
  184.6920  177.5080  146.8950 O   0  0  0  0  0  0  0  0  0  0  0  0
  188.9980  174.8740  146.2940 C   0  0  0  0  0  1  0  0  0  0  0  0
  188.2920  177.2900  146.2920 C   0  0  0  0  0  2  0  0  0  0  0  0
  185.1710  178.8080  147.0610 C   0  0  2  0  0  3  0  0  0  0  0  0
  185.3210  179.2860  145.6220 C   0  0  0  0  0  2  0  0  0  0  0  0
  185.8420  178.0210  144.9690 C   0  0  1  0  0  3  0  0  0  0  0  0
  185.0070  177.7180  141.4990 C   0  0  0  0  0  2  0  0  0  0  0  0
  182.7170  178.0980  140.5860 C   0  0  0  0  0  1  0  0  0  0  0  0
  183.6270  178.2910  141.7840 C   0  0  0  0  0  2  0  0  0  0  0  0
  190.8080  176.3690  144.3970 C   0  0  2  0  0  3  0  0  0  0  0  0
  191.5680  178.6950  144.1200 C   0  0  0  0  0  2  0  0  0  0  0  0
  191.4640  177.4690  143.6140 C   0  0  0  0  0  3  0  0  0  0  0  0
  191.5780  175.0500  144.2550 C   0  0  2  0  0  3  0  0  0  0  0  0
  192.5300  174.8040  145.3850 C   0  0  0  0  0  3  0  0  0  0  0  0
  192.5060  175.5110  146.3790 O   0  0  0  0  0  0  0  0  0  0  0  0
  192.3050  174.9860  142.9200 C   0  0  0  0  0  2  0  0  0  0  0  0
  194.0120  174.4110  143.1660 S   0  0  0  0  0  0  0  0  0  0  0  0
  194.7250  176.0390  142.8000 C   0  0  0  0  0  3  0  0  0  0  0  0
  196.0550  176.1770  143.5100 C   0  0  0  0  0  1  0  0  0  0  0  0
  194.9370  176.1760  141.3080 C   0  0  0  0  0  1  0  0  0  0  0  0
  1 20  1  1  0  0  0
  1  2  1  0  0  0  0
  2 13  1  0  0  0  0
  2 12  1  1  0  0  0
  3  1  1  0  0  0  0
  4 11  1  1  0  0  0
  4  7  1  0  0  0  0
  5 17  1  6  0  0  0
  5  9  1  0  0  0  0
  7 13  1  6  0  0  0
  7 10  1  0  0  0  0
  8  6  1  6  0  0  0
  8  5  1  0  0  0  0
  8  3  1  0  0  0  0
  9 16  1  0  0  0  0
 11 14  1  0  0  0  0
 14 15  1  6  0  0  0
 14 10  1  0  0  0  0
 16 15  1  1  0  0  0
 16  4  1  0  0  0  0
 17 19  1  0  0  0  0
 18 19  1  0  0  0  0
 20 22  1  6  0  0  0
 22 21  2  0  0  0  0
 23 26  1  6  0  0  0
 23 20  1  0  0  0  0
 23 24  1  0  0  0  0
 24 25  2  0  0  0  0
 26 27  1  0  0  0  0
 28 27  1  0  0  0  0
 28 29  1  0  0  0  0
 30 28  1  0  0  0  0
M  END
>  <MODEL>
6

>  <REMARK>
 VINA RESULT:      -6.0      1.505      1.868
  Name = 
  9 active torsions:
  status: ('A' for Active; 'I' for Inactive)
    1  A    between atoms: C_1  and  C_22
    2  A    between atoms: C_2  and  C_14
    3  A    between atoms: C_3  and  S_28
    4  A    between atoms: C_6  and  C_8
    5  A    between atoms: C_6  and  C_21
    6  A    between atoms: C_14  and  C_20
    7  A    between atoms: C_14  and  C_22
    8  A    between atoms: C_20  and  S_28
    9  A    between atoms: C_22  and  C_29
                            x       y       z     vdW  Elec       q    Type
                         _______ _______ _______ _____ _____    ______ ____

>  <TORSDO>
F 9

$$$$
=
 OpenBabel11052417073D

 30 32  0  0  1  0  0  0  0  0999 V2000
  189.7060  175.5580  144.6140 C   0  0  1  0  0  3  0  0  0  0  0  0
  188.7210  175.5270  145.7940 C   0  0  1  0  0  3  0  0  0  0  0  0
  189.2800  176.8330  143.3620 S   0  0  0  0  0  0  0  0  0  0  0  0
  186.0400  176.8000  146.0230 C   0  0  1  0  0  3  0  0  0  0  0  0
  186.6620  177.2220  142.6590 C   0  0  2  0  0  3  0  0  0  0  0  0
  187.8780  175.2980  141.7390 O   0  0  0  0  0  1  0  0  0  0  0  0
  187.1350  177.0040  147.0710 C   0  0  2  0  0  3  0  0  0  0  0  0
  187.6910  176.0850  142.8780 C   0  0  1  0  0  3  0  0  0  0  0  0
  185.6970  177.2560  143.6810 O   0  0  0  0  0  0  0  0  0  0  0  0
  186.8200  178.4250  147.5230 C   0  0  0  0  0  2  0  0  0  0  0  0
  184.9460  177.4380  146.6120 O   0  0  0  0  0  0  0  0  0  0  0  0
  189.0230  174.4080  146.7760 C   0  0  0  0  0  1  0  0  0  0  0  0
  188.5560  176.8670  146.5110 C   0  0  0  0  0  2  0  0  0  0  0  0
  185.5210  178.7020  146.7490 C   0  0  2  0  0  3  0  0  0  0  0  0
  185.8960  179.0470  145.3130 C   0  0  0  0  0  2  0  0  0  0  0  0
  186.3730  177.6930  144.8250 C   0  0  1  0  0  3  0  0  0  0  0  0
  185.9580  177.1790  141.3050 C   0  0  0  0  0  2  0  0  0  0  0  0
  183.8440  178.2890  140.5850 C   0  0  0  0  0  1  0  0  0  0  0  0
  185.2880  178.5080  140.9920 C   0  0  0  0  0  2  0  0  0  0  0  0
  191.1930  175.5840  145.0370 C   0  0  2  0  0  3  0  0  0  0  0  0
  193.1300  177.0950  145.2010 C   0  0  0  0  0  2  0  0  0  0  0  0
  191.8180  176.9480  145.0380 C   0  0  0  0  0  3  0  0  0  0  0  0
  192.0680  174.5710  144.2870 C   0  0  2  0  0  3  0  0  0  0  0  0
  191.8880  174.6320  142.8020 C   0  0  0  0  0  3  0  0  0  0  0  0
  192.7450  175.1370  142.0950 O   0  0  0  0  0  0  0  0  0  0  0  0
  191.8240  173.1590  144.7980 C   0  0  0  0  0  2  0  0  0  0  0  0
  192.9790  172.0010  144.0050 S   0  0  0  0  0  0  0  0  0  0  0  0
  194.1780  172.1010  145.3630 C   0  0  0  0  0  3  0  0  0  0  0  0
  194.5850  170.7030  145.7800 C   0  0  0  0  0  1  0  0  0  0  0  0
  195.4020  172.8630  144.9030 C   0  0  0  0  0  1  0  0  0  0  0  0
  1 20  1  1  0  0  0
  1  2  1  0  0  0  0
  2 13  1  0  0  0  0
  2 12  1  1  0  0  0
  3  1  1  0  0  0  0
  4 11  1  1  0  0  0
  4  7  1  0  0  0  0
  5 17  1  6  0  0  0
  5  8  1  0  0  0  0
  5  9  1  0  0  0  0
  7 13  1  6  0  0  0
  7 10  1  0  0  0  0
  8  6  1  6  0  0  0
  8  3  1  0  0  0  0
  9 16  1  0  0  0  0
 11 14  1  0  0  0  0
 14 15  1  6  0  0  0
 14 10  1  0  0  0  0
 16 15  1  1  0  0  0
 16  4  1  0  0  0  0
 18 19  1  0  0  0  0
 19 17  1  0  0  0  0
 20 22  1  6  0  0  0
 22 21  2  0  0  0  0
 23 24  1  6  0  0  0
 23 26  1  0  0  0  0
 23 20  1  0  0  0  0
 25 24  2  0  0  0  0
 27 26  1  0  0  0  0
 27 28  1  0  0  0  0
 28 29  1  0  0  0  0
 30 28  1  0  0  0  0
M  END
>  <MODEL>
7

>  <REMARK>
 VINA RESULT:      -5.9      1.737      2.083
  Name = 
  9 active torsions:
  status: ('A' for Active; 'I' for Inactive)
    1  A    between atoms: C_1  and  C_22
    2  A    between atoms: C_2  and  C_14
    3  A    between atoms: C_3  and  S_28
    4  A    between atoms: C_6  and  C_8
    5  A    between atoms: C_6  and  C_21
    6  A    between atoms: C_14  and  C_20
    7  A    between atoms: C_14  and  C_22
    8  A    between atoms: C_20  and  S_28
    9  A    between atoms: C_22  and  C_29
                            x       y       z     vdW  Elec       q    Type
                         _______ _______ _______ _____ _____    ______ ____

>  <TORSDO>
F 9

$$$$
=
 OpenBabel11052417073D

 30 32  0  0  1  0  0  0  0  0999 V2000
  190.0950  176.1360  144.8010 C   0  0  1  0  0  3  0  0  0  0  0  0
  188.7040  176.7340  145.0690 C   0  0  1  0  0  3  0  0  0  0  0  0
  190.3290  175.6320  143.0500 S   0  0  0  0  0  0  0  0  0  0  0  0
  186.2740  176.6570  143.3520 C   0  0  1  0  0  3  0  0  0  0  0  0
  188.2870  174.3880  141.7120 C   0  0  2  0  0  3  0  0  0  0  0  0
  189.6400  173.0980  143.3040 O   0  0  0  0  0  1  0  0  0  0  0  0
  186.8350  177.9620  143.9180 C   0  0  2  0  0  3  0  0  0  0  0  0
  189.0450  174.3390  143.0630 C   0  0  1  0  0  3  0  0  0  0  0  0
  186.9870  174.8990  141.8630 O   0  0  0  0  0  0  0  0  0  0  0  0
  186.4600  178.9280  142.8010 C   0  0  0  0  0  2  0  0  0  0  0  0
  185.0820  177.0800  142.7600 O   0  0  0  0  0  0  0  0  0  0  0  0
  188.4840  177.0590  146.5360 C   0  0  0  0  0  1  0  0  0  0  0  0
  188.3460  177.9210  144.1760 C   0  0  0  0  0  2  0  0  0  0  0  0
  185.6330  178.0140  141.8820 C   0  0  2  0  0  3  0  0  0  0  0  0
  186.6030  177.1650  141.0700 C   0  0  0  0  0  2  0  0  0  0  0  0
  187.1450  176.2580  142.1570 C   0  0  1  0  0  3  0  0  0  0  0  0
  188.2210  173.0500  140.9810 C   0  0  0  0  0  2  0  0  0  0  0  0
  188.2080  174.1120  138.7240 C   0  0  0  0  0  1  0  0  0  0  0  0
  188.9190  173.1260  139.6320 C   0  0  0  0  0  2  0  0  0  0  0  0
  191.2610  176.9850  145.3570 C   0  0  2  0  0  3  0  0  0  0  0  0
  191.5690  178.9010  143.8420 C   0  0  0  0  0  2  0  0  0  0  0  0
  192.0300  177.7480  144.3190 C   0  0  0  0  0  3  0  0  0  0  0  0
  192.2030  176.2080  146.2880 C   0  0  2  0  0  3  0  0  0  0  0  0
  191.7630  176.2360  147.7190 C   0  0  0  0  0  3  0  0  0  0  0  0
  191.1970  175.2730  148.2110 O   0  0  0  0  0  0  0  0  0  0  0  0
  193.6320  176.7110  146.1570 C   0  0  0  0  0  2  0  0  0  0  0  0
  194.7860  175.3070  146.1180 S   0  0  0  0  0  0  0  0  0  0  0  0
  193.7160  174.3200  145.0340 C   0  0  0  0  0  3  0  0  0  0  0  0
  194.1510  174.5040  143.5960 C   0  0  0  0  0  1  0  0  0  0  0  0
  193.8260  172.8580  145.4080 C   0  0  0  0  0  1  0  0  0  0  0  0
  1  2  1  0  0  0  0
  1 20  1  6  0  0  0
  2 12  1  1  0  0  0
  3  8  1  0  0  0  0
  3  1  1  0  0  0  0
  4 11  1  6  0  0  0
  4  7  1  0  0  0  0
  5 17  1  1  0  0  0
  5  9  1  0  0  0  0
  5  8  1  0  0  0  0
  7 10  1  6  0  0  0
  7 13  1  0  0  0  0
  8  6  1  6  0  0  0
  9 16  1  0  0  0  0
 13  2  1  0  0  0  0
 14 15  1  6  0  0  0
 14 11  1  0  0  0  0
 14 10  1  0  0  0  0
 16 15  1  6  0  0  0
 16  4  1  0  0  0  0
 18 19  1  0  0  0  0
 19 17  1  0  0  0  0
 20 22  1  6  0  0  0
 20 23  1  0  0  0  0
 21 22  2  0  0  0  0
 23 26  1  1  0  0  0
 23 24  1  0  0  0  0
 24 25  2  0  0  0  0
 27 26  1  0  0  0  0
 28 30  1  0  0  0  0
 28 27  1  0  0  0  0
 29 28  1  0  0  0  0
M  END
>  <MODEL>
8

>  <REMARK>
 VINA RESULT:      -5.8      2.212      3.987
  Name = 
  9 active torsions:
  status: ('A' for Active; 'I' for Inactive)
    1  A    between atoms: C_1  and  C_22
    2  A    between atoms: C_2  and  C_14
    3  A    between atoms: C_3  and  S_28
    4  A    between atoms: C_6  and  C_8
    5  A    between atoms: C_6  and  C_21
    6  A    between atoms: C_14  and  C_20
    7  A    between atoms: C_14  and  C_22
    8  A    between atoms: C_20  and  S_28
    9  A    between atoms: C_22  and  C_29
                            x       y       z     vdW  Elec       q    Type
                         _______ _______ _______ _____ _____    ______ ____

>  <TORSDO>
F 9

$$$$
=
 OpenBabel11052417073D

 30 32  0  0  1  0  0  0  0  0999 V2000
  189.9460  176.3970  144.5540 C   0  0  1  0  0  3  0  0  0  0  0  0
  191.3430  176.8710  144.1200 C   0  0  1  0  0  3  0  0  0  0  0  0
  189.9540  174.6990  145.2550 S   0  0  0  0  0  0  0  0  0  0  0  0
  193.8270  175.2740  143.7530 C   0  0  1  0  0  3  0  0  0  0  0  0
  191.4940  172.7580  144.0860 C   0  0  2  0  0  3  0  0  0  0  0  0
  189.3620  173.3880  143.0430 O   0  0  0  0  0  1  0  0  0  0  0  0
  193.7820  176.5280  144.6270 C   0  0  2  0  0  3  0  0  0  0  0  0
  190.4850  173.8740  143.7190 C   0  0  1  0  0  3  0  0  0  0  0  0
  192.8030  173.0920  143.7000 O   0  0  0  0  0  0  0  0  0  0  0  0
  194.8100  176.1590  145.6900 C   0  0  0  0  0  2  0  0  0  0  0  0
  195.1880  174.9620  143.7560 O   0  0  0  0  0  0  0  0  0  0  0  0
  191.3130  178.2360  143.4540 C   0  0  0  0  0  1  0  0  0  0  0  0
  192.3980  176.8130  145.2240 C   0  0  0  0  0  2  0  0  0  0  0  0
  195.3460  174.8280  145.1360 C   0  0  2  0  0  3  0  0  0  0  0  0
  194.3350  173.7390  145.4740 C   0  0  0  0  0  2  0  0  0  0  0  0
  193.1960  174.1300  144.5520 C   0  0  1  0  0  3  0  0  0  0  0  0
  191.1400  171.3830  143.5260 C   0  0  0  0  0  2  0  0  0  0  0  0
  190.8500  170.6790  141.1510 C   0  0  0  0  0  1  0  0  0  0  0  0
  191.8450  171.1310  142.2030 C   0  0  0  0  0  2  0  0  0  0  0  0
  189.1790  177.4180  145.4260 C   0  0  2  0  0  3  0  0  0  0  0  0
  189.8970  177.8680  147.7380 C   0  0  0  0  0  2  0  0  0  0  0  0
  189.1910  177.1180  146.8960 C   0  0  0  0  0  3  0  0  0  0  0  0
  187.7570  177.7110  144.9300 C   0  0  2  0  0  3  0  0  0  0  0  0
  186.6990  177.2500  145.8840 C   0  0  0  0  0  3  0  0  0  0  0  0
  185.6600  176.7630  145.4680 O   0  0  0  0  0  0  0  0  0  0  0  0
  187.5290  177.1130  143.5500 C   0  0  0  0  0  2  0  0  0  0  0  0
  186.7830  178.3520  142.4480 S   0  0  0  0  0  0  0  0  0  0  0  0
  187.4120  177.5510  140.9460 C   0  0  0  0  0  3  0  0  0  0  0  0
  187.8210  176.1280  141.2680 C   0  0  0  0  0  1  0  0  0  0  0  0
  186.3300  177.5350  139.8890 C   0  0  0  0  0  1  0  0  0  0  0  0
  1  3  1  0  0  0  0
  1 20  1  1  0  0  0
  2 12  1  1  0  0  0
  2  1  1  0  0  0  0
  2 13  1  0  0  0  0
  4 11  1  1  0  0  0
  4 16  1  0  0  0  0
  4  7  1  0  0  0  0
  5 17  1  6  0  0  0
  7 13  1  1  0  0  0
  7 10  1  0  0  0  0
  8  6  1  1  0  0  0
  8  5  1  0  0  0  0
  8  3  1  0  0  0  0
  9  5  1  0  0  0  0
  9 16  1  0  0  0  0
 11 14  1  0  0  0  0
 14 15  1  1  0  0  0
 14 10  1  0  0  0  0
 16 15  1  1  0  0  0
 18 19  1  0  0  0  0
 19 17  1  0  0  0  0
 20 22  1  1  0  0  0
 22 21  2  0  0  0  0
 23 26  1  6  0  0  0
 23 20  1  0  0  0  0
 23 24  1  0  0  0  0
 25 24  2  0  0  0  0
 27 26  1  0  0  0  0
 28 29  1  0  0  0  0
 28 27  1  0  0  0  0
 30 28  1  0  0  0  0
M  END
>  <MODEL>
9

>  <REMARK>
 VINA RESULT:      -5.8      2.234      7.462
  Name = 
  9 active torsions:
  status: ('A' for Active; 'I' for Inactive)
    1  A    between atoms: C_1  and  C_22
    2  A    between atoms: C_2  and  C_14
    3  A    between atoms: C_3  and  S_28
    4  A    between atoms: C_6  and  C_8
    5  A    between atoms: C_6  and  C_21
    6  A    between atoms: C_14  and  C_20
    7  A    between atoms: C_14  and  C_22
    8  A    between atoms: C_20  and  S_28
    9  A    between atoms: C_22  and  C_29
                            x       y       z     vdW  Elec       q    Type
                         _______ _______ _______ _____ _____    ______ ____

>  <TORSDO>
F 9

$$$$
