=
 OpenBabel11052417413D

 31 35  0  0  1  0  0  0  0  0999 V2000
  188.2030  175.3950  141.5870 C   0  0  0  0  0  0  0  0  0  0  0  0
  188.6790  176.1590  145.3360 C   0  0  0  0  0  0  0  0  0  0  0  0
  187.6720  177.0060  145.8590 C   0  0  0  0  0  0  0  0  0  0  0  0
  185.2260  176.6880  146.0630 C   0  0  0  0  0  3  0  0  0  0  0  0
  188.4030  175.3270  144.0950 C   0  0  1  0  0  3  0  0  0  0  0  0
  188.4090  173.9040  141.6290 C   0  0  0  0  0  2  0  0  0  0  0  0
  186.3450  177.1020  145.1680 C   0  0  0  0  0  2  0  0  0  0  0  0
  191.0290  175.1830  145.4470 C   0  0  1  0  0  3  0  0  0  0  0  0
  187.9290  175.9380  140.5300 O   0  0  0  0  0  0  0  0  0  0  0  0
  189.2330  177.8320  147.5210 C   0  0  0  0  0  3  0  0  0  0  0  0
  184.9020  177.3590  147.1670 C   0  0  0  0  0  3  0  0  0  0  0  0
  190.4340  173.8880  144.8980 C   0  0  0  0  0  2  0  0  0  0  0  0
  189.9470  176.1120  145.9650 C   0  0  0  0  0  0  0  0  0  0  0  0
  188.3060  176.2200  142.8460 C   0  0  0  0  0  2  0  0  0  0  0  0
  185.6400  178.5230  147.6910 C   0  0  0  0  0  3  0  0  0  0  0  0
  189.4050  174.2130  143.8670 C   0  0  0  0  0  0  0  0  0  0  0  0
  189.4030  173.5500  142.7020 C   0  0  0  0  0  3  0  0  0  0  0  0
  190.2190  176.9850  147.0260 C   0  0  0  0  0  3  0  0  0  0  0  0
  187.9520  177.8300  146.9710 C   0  0  0  0  0  0  0  0  0  0  0  0
  186.9600  178.7280  147.6000 C   0  0  0  0  0  3  0  0  0  0  0  0
  192.1330  174.8720  146.4640 C   0  0  0  0  0  2  0  0  0  0  0  0
  193.4100  174.3730  145.7940 C   0  0  0  0  0  2  0  0  0  0  0  0
  194.1560  176.8880  145.9310 C   0  0  0  0  0  1  0  0  0  0  0  0
  196.6250  174.8610  144.6620 O   0  0  0  0  0  0  0  0  0  0  0  0
  195.4190  175.2180  144.6310 C   0  0  0  0  0  0  0  0  0  0  0  0
  194.1560  175.6290  143.8620 N   0  0  0  0  0  0  0  0  0  0  0  0
  194.2220  175.5350  145.2490 C   0  0  1  0  0  0  0  0  0  0  0  0
  193.4490  175.8970  142.6220 C   0  0  0  0  0  0  0  0  0  0  0  0
  194.3280  176.4620  141.6990 O   0  0  0  0  0  1  0  0  0  0  0  0
  192.3100  176.8600  142.8870 C   0  0  0  0  0  1  0  0  0  0  0  0
  192.8930  174.6050  142.0590 C   0  0  0  0  0  1  0  0  0  0  0  0
  1  6  1  0  0  0  0
  1 14  1  0  0  0  0
  2  3  2  0  0  0  0
  2 13  1  0  0  0  0
  3 19  1  0  0  0  0
  4 11  2  0  0  0  0
  5 14  1  6  0  0  0
  5  2  1  0  0  0  0
  6 17  1  0  0  0  0
  7  3  1  0  0  0  0
  7  4  1  0  0  0  0
  8 13  1  0  0  0  0
  8 21  1  1  0  0  0
  9  1  2  0  0  0  0
 11 15  1  0  0  0  0
 12  8  1  0  0  0  0
 13 18  2  0  0  0  0
 16  5  1  0  0  0  0
 16 12  1  0  0  0  0
 17 16  2  0  0  0  0
 18 10  1  0  0  0  0
 19 10  2  0  0  0  0
 19 20  1  0  0  0  0
 20 15  2  0  0  0  0
 22 21  1  0  0  0  0
 25 24  2  0  0  0  0
 25 27  1  0  0  0  0
 26 25  1  0  0  0  0
 26 27  1  0  0  0  0
 27 22  1  0  0  0  0
 27 23  1  1  0  0  0
 28 30  1  0  0  0  0
 28 26  1  0  0  0  0
 29 28  1  0  0  0  0
 31 28  1  0  0  0  0
M  END
>  <MODEL>
1

>  <REMARK>
 VINA RESULT:      -7.9      0.000      0.000
  Name = 
  4 active torsions:
  status: ('A' for Active; 'I' for Inactive)
    1  A    between atoms: C_1  and  N_19
    2  A    between atoms: C_9  and  C_22
    3  A    between atoms: C_9  and  C_23
    4  A    between atoms: C_15  and  C_23
                            x       y       z     vdW  Elec       q    Type
                         _______ _______ _______ _____ _____    ______ ____

>  <TORSDO>
F 4

$$$$
=
 OpenBabel11052417413D

 31 35  0  0  1  0  0  0  0  0999 V2000
  189.9250  172.4590  141.8490 C   0  0  0  0  0  0  0  0  0  0  0  0
  191.1780  174.8660  144.5880 C   0  0  0  0  0  0  0  0  0  0  0  0
  192.5880  174.8750  144.7110 C   0  0  0  0  0  0  0  0  0  0  0  0
  194.3550  175.5210  143.1020 C   0  0  0  0  0  3  0  0  0  0  0  0
  190.5320  174.4370  143.2810 C   0  0  1  0  0  3  0  0  0  0  0  0
  188.9510  173.3800  141.1620 C   0  0  0  0  0  2  0  0  0  0  0  0
  193.4410  174.4350  143.5590 C   0  0  0  0  0  2  0  0  0  0  0  0
  188.8660  175.2700  145.5770 C   0  0  1  0  0  3  0  0  0  0  0  0
  190.1000  171.3320  141.4150 O   0  0  0  0  0  0  0  0  0  0  0  0
  192.3770  175.4830  147.0490 C   0  0  0  0  0  3  0  0  0  0  0  0
  195.3280  176.0110  143.8670 C   0  0  0  0  0  3  0  0  0  0  0  0
  188.4280  175.7040  144.1810 C   0  0  0  0  0  2  0  0  0  0  0  0
  190.3780  175.2350  145.6970 C   0  0  0  0  0  0  0  0  0  0  0  0
  190.7050  172.9260  143.0530 C   0  0  0  0  0  2  0  0  0  0  0  0
  195.5740  175.6210  145.2680 C   0  0  0  0  0  3  0  0  0  0  0  0
  189.0700  174.8220  143.1630 C   0  0  0  0  0  0  0  0  0  0  0  0
  188.3320  174.3170  142.1640 C   0  0  0  0  0  3  0  0  0  0  0  0
  190.9920  175.4980  146.9290 C   0  0  0  0  0  3  0  0  0  0  0  0
  193.1860  175.2070  145.9470 C   0  0  0  0  0  0  0  0  0  0  0  0
  194.6460  175.2670  146.1650 C   0  0  0  0  0  3  0  0  0  0  0  0
  188.1690  176.1240  146.6430 C   0  0  0  0  0  2  0  0  0  0  0  0
  187.8050  177.5110  146.1230 C   0  0  0  0  0  2  0  0  0  0  0  0
  185.3620  176.6360  146.5300 C   0  0  0  0  0  1  0  0  0  0  0  0
  185.8990  179.7170  147.9550 O   0  0  0  0  0  0  0  0  0  0  0  0
  185.9950  178.9820  146.9380 C   0  0  0  0  0  0  0  0  0  0  0  0
  185.8360  178.7420  145.4310 N   0  0  0  0  0  0  0  0  0  0  0  0
  186.3250  177.7890  146.3200 C   0  0  1  0  0  0  0  0  0  0  0  0
  185.4640  179.1900  144.1000 C   0  0  0  0  0  0  0  0  0  0  0  0
  185.5610  180.5790  144.0340 O   0  0  0  0  0  1  0  0  0  0  0  0
  184.0390  178.7700  143.8060 C   0  0  0  0  0  1  0  0  0  0  0  0
  186.3910  178.5730  143.0730 C   0  0  0  0  0  1  0  0  0  0  0  0
  1 14  1  0  0  0  0
  2  3  2  0  0  0  0
  2 13  1  0  0  0  0
  3 19  1  0  0  0  0
  4  7  1  0  0  0  0
  4 11  2  0  0  0  0
  5 14  1  1  0  0  0
  5  2  1  0  0  0  0
  6  1  1  0  0  0  0
  6 17  1  0  0  0  0
  7  3  1  0  0  0  0
  8 13  1  0  0  0  0
  8 21  1  1  0  0  0
  9  1  2  0  0  0  0
 11 15  1  0  0  0  0
 12  8  1  0  0  0  0
 13 18  2  0  0  0  0
 15 20  2  0  0  0  0
 16  5  1  0  0  0  0
 16 12  1  0  0  0  0
 17 16  2  0  0  0  0
 18 10  1  0  0  0  0
 19 20  1  0  0  0  0
 19 10  2  0  0  0  0
 22 27  1  0  0  0  0
 22 21  1  0  0  0  0
 25 24  2  0  0  0  0
 26 27  1  0  0  0  0
 26 25  1  0  0  0  0
 27 23  1  1  0  0  0
 27 25  1  0  0  0  0
 28 26  1  0  0  0  0
 29 28  1  0  0  0  0
 30 28  1  0  0  0  0
 31 28  1  0  0  0  0
M  END
>  <MODEL>
2

>  <REMARK>
 VINA RESULT:      -7.8      2.960      6.918
  Name = 
  4 active torsions:
  status: ('A' for Active; 'I' for Inactive)
    1  A    between atoms: C_1  and  N_19
    2  A    between atoms: C_9  and  C_22
    3  A    between atoms: C_9  and  C_23
    4  A    between atoms: C_15  and  C_23
                            x       y       z     vdW  Elec       q    Type
                         _______ _______ _______ _____ _____    ______ ____

>  <TORSDO>
F 4

$$$$
=
 OpenBabel11052417413D

 31 35  0  0  1  0  0  0  0  0999 V2000
  185.1530  177.7300  146.7020 C   0  0  0  0  0  0  0  0  0  0  0  0
  187.9220  176.2940  144.4360 C   0  0  0  0  0  0  0  0  0  0  0  0
  187.5290  176.1990  143.0780 C   0  0  0  0  0  0  0  0  0  0  0  0
  186.8720  177.9440  141.4510 C   0  0  0  0  0  3  0  0  0  0  0  0
  187.2340  177.2860  145.3580 C   0  0  1  0  0  3  0  0  0  0  0  0
  185.9770  178.7360  147.4610 C   0  0  0  0  0  2  0  0  0  0  0  0
  186.4160  177.0590  142.5610 C   0  0  0  0  0  2  0  0  0  0  0  0
  189.4040  175.5530  146.3690 C   0  0  1  0  0  3  0  0  0  0  0  0
  183.9560  177.6420  146.9190 O   0  0  0  0  0  0  0  0  0  0  0  0
  189.0600  174.3430  142.7690 C   0  0  0  0  0  3  0  0  0  0  0  0
  187.2910  177.4710  140.2790 C   0  0  0  0  0  3  0  0  0  0  0  0
  189.3540  176.9970  146.8610 C   0  0  0  0  0  2  0  0  0  0  0  0
  188.9400  175.4420  144.9290 C   0  0  0  0  0  0  0  0  0  0  0  0
  185.7900  176.8480  145.6570 C   0  0  0  0  0  2  0  0  0  0  0  0
  187.4410  176.0400  139.9550 C   0  0  0  0  0  3  0  0  0  0  0  0
  187.9820  177.5450  146.6500 C   0  0  0  0  0  0  0  0  0  0  0  0
  187.3820  178.2260  147.6360 C   0  0  0  0  0  3  0  0  0  0  0  0
  189.4660  174.4470  144.0950 C   0  0  0  0  0  3  0  0  0  0  0  0
  188.1220  175.2280  142.2400 C   0  0  0  0  0  0  0  0  0  0  0  0
  187.7950  175.0700  140.8070 C   0  0  0  0  0  3  0  0  0  0  0  0
  190.7880  174.9490  146.6330 C   0  0  0  0  0  2  0  0  0  0  0  0
  191.8730  176.0160  146.7350 C   0  0  0  0  0  2  0  0  0  0  0  0
  194.4890  176.1130  146.5130 C   0  0  0  0  0  1  0  0  0  0  0  0
  193.2290  173.0040  145.7630 O   0  0  0  0  0  0  0  0  0  0  0  0
  193.1660  174.2490  145.5910 C   0  0  0  0  0  0  0  0  0  0  0  0
  193.0380  175.4780  144.6810 N   0  0  0  0  0  0  0  0  0  0  0  0
  193.1540  175.5490  146.0660 C   0  0  1  0  0  0  0  0  0  0  0  0
  192.8950  176.0830  143.3680 C   0  0  0  0  0  0  0  0  0  0  0  0
  194.1120  176.6390  142.9780 O   0  0  0  0  0  1  0  0  0  0  0  0
  191.8400  177.1680  143.4230 C   0  0  0  0  0  1  0  0  0  0  0  0
  192.4790  175.0300  142.3610 C   0  0  0  0  0  1  0  0  0  0  0  0
  1  9  2  0  0  0  0
  1  6  1  0  0  0  0
  2 13  1  0  0  0  0
  2  5  1  0  0  0  0
  3  2  2  0  0  0  0
  4  7  1  0  0  0  0
  5 14  1  1  0  0  0
  5 16  1  0  0  0  0
  6 17  1  0  0  0  0
  7  3  1  0  0  0  0
  8 21  1  6  0  0  0
  8 12  1  0  0  0  0
 10 18  1  0  0  0  0
 11  4  2  0  0  0  0
 13  8  1  0  0  0  0
 14  1  1  0  0  0  0
 15 11  1  0  0  0  0
 15 20  2  0  0  0  0
 16 12  1  0  0  0  0
 16 17  2  0  0  0  0
 18 13  2  0  0  0  0
 19 10  2  0  0  0  0
 19  3  1  0  0  0  0
 20 19  1  0  0  0  0
 21 22  1  0  0  0  0
 25 24  2  0  0  0  0
 25 27  1  0  0  0  0
 26 25  1  0  0  0  0
 26 27  1  0  0  0  0
 27 23  1  1  0  0  0
 27 22  1  0  0  0  0
 28 30  1  0  0  0  0
 28 26  1  0  0  0  0
 29 28  1  0  0  0  0
 31 28  1  0  0  0  0
M  END
>  <MODEL>
3

>  <REMARK>
 VINA RESULT:      -7.6      1.947      4.475
  Name = 
  4 active torsions:
  status: ('A' for Active; 'I' for Inactive)
    1  A    between atoms: C_1  and  N_19
    2  A    between atoms: C_9  and  C_22
    3  A    between atoms: C_9  and  C_23
    4  A    between atoms: C_15  and  C_23
                            x       y       z     vdW  Elec       q    Type
                         _______ _______ _______ _____ _____    ______ ____

>  <TORSDO>
F 4

$$$$
=
 OpenBabel11052417413D

 31 35  0  0  1  0  0  0  0  0999 V2000
  194.2530  176.2040  145.0390 C   0  0  0  0  0  0  0  0  0  0  0  0
  190.6810  175.5020  143.7690 C   0  0  0  0  0  0  0  0  0  0  0  0
  190.6530  174.6190  142.6620 C   0  0  0  0  0  0  0  0  0  0  0  0
  191.3710  172.2610  142.4470 C   0  0  0  0  0  3  0  0  0  0  0  0
  191.8620  175.4850  144.7240 C   0  0  1  0  0  3  0  0  0  0  0  0
  194.0150  176.0060  146.5130 C   0  0  0  0  0  2  0  0  0  0  0  0
  191.8020  173.6880  142.4200 C   0  0  0  0  0  2  0  0  0  0  0  0
  189.6040  177.3420  145.1620 C   0  0  1  0  0  3  0  0  0  0  0  0
  195.3750  176.4630  144.6370 O   0  0  0  0  0  0  0  0  0  0  0  0
  188.5940  175.6480  141.8980 C   0  0  0  0  0  3  0  0  0  0  0  0
  190.5330  171.7460  141.5490 C   0  0  0  0  0  3  0  0  0  0  0  0
  190.2320  176.6780  146.3850 C   0  0  0  0  0  2  0  0  0  0  0  0
  189.6140  176.4140  143.9620 C   0  0  0  0  0  0  0  0  0  0  0  0
  193.1210  176.0580  144.0520 C   0  0  0  0  0  2  0  0  0  0  0  0
  189.8630  172.5160  140.4850 C   0  0  0  0  0  3  0  0  0  0  0  0
  191.6000  176.1930  146.0390 C   0  0  0  0  0  0  0  0  0  0  0  0
  192.6190  176.4370  146.8730 C   0  0  0  0  0  3  0  0  0  0  0  0
  188.6040  176.5030  142.9950 C   0  0  0  0  0  3  0  0  0  0  0  0
  189.5880  174.6840  141.7360 C   0  0  0  0  0  0  0  0  0  0  0  0
  189.4600  173.7900  140.5660 C   0  0  0  0  0  3  0  0  0  0  0  0
  188.2220  177.9040  145.5120 C   0  0  0  0  0  2  0  0  0  0  0  0
  187.3060  176.8450  146.1200 C   0  0  0  0  0  2  0  0  0  0  0  0
  184.8160  176.5140  146.8880 C   0  0  0  0  0  1  0  0  0  0  0  0
  186.0450  179.6060  147.7460 O   0  0  0  0  0  0  0  0  0  0  0  0
  185.8900  178.7310  146.8550 C   0  0  0  0  0  0  0  0  0  0  0  0
  185.5110  178.3160  145.4270 N   0  0  0  0  0  0  0  0  0  0  0  0
  185.9310  177.4230  146.4070 C   0  0  1  0  0  0  0  0  0  0  0  0
  185.0630  178.6360  144.0820 C   0  0  0  0  0  0  0  0  0  0  0  0
  183.7300  179.0410  144.1210 O   0  0  0  0  0  1  0  0  0  0  0  0
  185.1910  177.4100  143.2020 C   0  0  0  0  0  1  0  0  0  0  0  0
  185.9110  179.7540  143.5120 C   0  0  0  0  0  1  0  0  0  0  0  0
  1  6  1  0  0  0  0
  2 13  1  0  0  0  0
  2  5  1  0  0  0  0
  3  2  2  0  0  0  0
  5 14  1  6  0  0  0
  5 16  1  0  0  0  0
  6 17  1  0  0  0  0
  7  4  1  0  0  0  0
  7  3  1  0  0  0  0
  8 21  1  1  0  0  0
  8 12  1  0  0  0  0
  9  1  2  0  0  0  0
 10 18  1  0  0  0  0
 11  4  2  0  0  0  0
 13  8  1  0  0  0  0
 14  1  1  0  0  0  0
 15 20  2  0  0  0  0
 15 11  1  0  0  0  0
 16 12  1  0  0  0  0
 16 17  2  0  0  0  0
 18 13  2  0  0  0  0
 19 10  2  0  0  0  0
 19  3  1  0  0  0  0
 20 19  1  0  0  0  0
 21 22  1  0  0  0  0
 22 27  1  0  0  0  0
 25 24  2  0  0  0  0
 26 27  1  0  0  0  0
 26 25  1  0  0  0  0
 27 25  1  0  0  0  0
 27 23  1  1  0  0  0
 28 29  1  0  0  0  0
 28 26  1  0  0  0  0
 30 28  1  0  0  0  0
 31 28  1  0  0  0  0
M  END
>  <MODEL>
4

>  <REMARK>
 VINA RESULT:      -7.3      2.935      7.443
  Name = 
  4 active torsions:
  status: ('A' for Active; 'I' for Inactive)
    1  A    between atoms: C_1  and  N_19
    2  A    between atoms: C_9  and  C_22
    3  A    between atoms: C_9  and  C_23
    4  A    between atoms: C_15  and  C_23
                            x       y       z     vdW  Elec       q    Type
                         _______ _______ _______ _____ _____    ______ ____

>  <TORSDO>
F 4

$$$$
=
 OpenBabel11052417413D

 31 35  0  0  1  0  0  0  0  0999 V2000
  190.7020  171.3570  142.1970 C   0  0  0  0  0  0  0  0  0  0  0  0
  190.9950  174.7250  144.0510 C   0  0  0  0  0  0  0  0  0  0  0  0
  192.2550  174.9040  144.6720 C   0  0  0  0  0  0  0  0  0  0  0  0
  194.5330  175.0440  143.7140 C   0  0  0  0  0  3  0  0  0  0  0  0
  190.8570  173.7760  142.8720 C   0  0  1  0  0  3  0  0  0  0  0  0
  190.1170  171.8580  140.9030 C   0  0  0  0  0  2  0  0  0  0  0  0
  193.4450  174.1370  144.1820 C   0  0  0  0  0  2  0  0  0  0  0  0
  188.5130  175.2690  143.8800 C   0  0  1  0  0  3  0  0  0  0  0  0
  190.9520  170.1700  142.3280 O   0  0  0  0  0  0  0  0  0  0  0  0
  191.2260  176.3340  146.3390 C   0  0  0  0  0  3  0  0  0  0  0  0
  195.1790  175.8720  144.5320 C   0  0  0  0  0  3  0  0  0  0  0  0
  188.6580  175.0990  142.3700 C   0  0  0  0  0  2  0  0  0  0  0  0
  189.8640  175.4150  144.5530 C   0  0  0  0  0  0  0  0  0  0  0  0
  191.0040  172.3130  143.3240 C   0  0  0  0  0  2  0  0  0  0  0  0
  194.8580  176.0670  145.9580 C   0  0  0  0  0  3  0  0  0  0  0  0
  189.5750  173.9560  142.0850 C   0  0  0  0  0  0  0  0  0  0  0  0
  189.2320  173.0470  141.1620 C   0  0  0  0  0  3  0  0  0  0  0  0
  189.9900  176.1800  145.7200 C   0  0  0  0  0  3  0  0  0  0  0  0
  192.3670  175.7330  145.8110 C   0  0  0  0  0  0  0  0  0  0  0  0
  193.6410  176.0000  146.5100 C   0  0  0  0  0  3  0  0  0  0  0  0
  187.5260  176.3980  144.1960 C   0  0  0  0  0  2  0  0  0  0  0  0
  186.3840  176.4660  143.1860 C   0  0  0  0  0  2  0  0  0  0  0  0
  186.6580  179.0380  142.7270 C   0  0  0  0  0  1  0  0  0  0  0  0
  183.4930  177.9130  142.0000 O   0  0  0  0  0  0  0  0  0  0  0  0
  184.4470  177.9550  142.8200 C   0  0  0  0  0  0  0  0  0  0  0  0
  184.9930  178.1440  144.2420 N   0  0  0  0  0  0  0  0  0  0  0  0
  185.7910  177.8630  143.1370 C   0  0  1  0  0  0  0  0  0  0  0  0
  184.8000  178.4080  145.6570 C   0  0  0  0  0  0  0  0  0  0  0  0
  183.5720  179.0400  145.8480 O   0  0  0  0  0  1  0  0  0  0  0  0
  185.9110  179.3040  146.1610 C   0  0  0  0  0  1  0  0  0  0  0  0
  184.8180  177.1040  146.4280 C   0  0  0  0  0  1  0  0  0  0  0  0
  1  9  2  0  0  0  0
  1 14  1  0  0  0  0
  2 13  2  0  0  0  0
  2  3  1  0  0  0  0
  3 19  2  0  0  0  0
  4  7  1  0  0  0  0
  4 11  2  0  0  0  0
  5 14  1  1  0  0  0
  5  2  1  0  0  0  0
  6 17  1  0  0  0  0
  6  1  1  0  0  0  0
  7  3  1  0  0  0  0
  8 21  1  6  0  0  0
  8 13  1  0  0  0  0
 11 15  1  0  0  0  0
 12  8  1  0  0  0  0
 13 18  1  0  0  0  0
 15 20  2  0  0  0  0
 16 12  1  0  0  0  0
 16  5  1  0  0  0  0
 17 16  2  0  0  0  0
 18 10  2  0  0  0  0
 19 10  1  0  0  0  0
 19 20  1  0  0  0  0
 22 21  1  0  0  0  0
 24 25  2  0  0  0  0
 25 27  1  0  0  0  0
 25 26  1  0  0  0  0
 26 28  1  0  0  0  0
 27 23  1  6  0  0  0
 27 22  1  0  0  0  0
 27 26  1  0  0  0  0
 28 29  1  0  0  0  0
 28 30  1  0  0  0  0
 28 31  1  0  0  0  0
M  END
>  <MODEL>
5

>  <REMARK>
 VINA RESULT:      -7.2      3.088      7.307
  Name = 
  4 active torsions:
  status: ('A' for Active; 'I' for Inactive)
    1  A    between atoms: C_1  and  N_19
    2  A    between atoms: C_9  and  C_22
    3  A    between atoms: C_9  and  C_23
    4  A    between atoms: C_15  and  C_23
                            x       y       z     vdW  Elec       q    Type
                         _______ _______ _______ _____ _____    ______ ____

>  <TORSDO>
F 4

$$$$
=
 OpenBabel11052417413D

 31 35  0  0  1  0  0  0  0  0999 V2000
  191.4420  170.8560  142.8570 C   0  0  0  0  0  0  0  0  0  0  0  0
  192.2230  174.1960  144.6170 C   0  0  0  0  0  0  0  0  0  0  0  0
  193.5260  174.6740  144.3380 C   0  0  0  0  0  0  0  0  0  0  0  0
  194.5850  175.3580  142.2080 C   0  0  0  0  0  3  0  0  0  0  0  0
  191.5410  173.2410  143.6510 C   0  0  1  0  0  3  0  0  0  0  0  0
  190.0840  171.2000  142.3030 C   0  0  0  0  0  2  0  0  0  0  0  0
  194.2420  174.2150  143.1040 C   0  0  0  0  0  2  0  0  0  0  0  0
  190.1620  174.1260  146.1110 C   0  0  1  0  0  3  0  0  0  0  0  0
  191.9320  169.7640  142.6190 O   0  0  0  0  0  0  0  0  0  0  0  0
  193.5610  175.8150  146.4780 C   0  0  0  0  0  3  0  0  0  0  0  0
  195.4370  176.3170  142.5620 C   0  0  0  0  0  3  0  0  0  0  0  0
  189.3350  173.9950  144.8350 C   0  0  0  0  0  2  0  0  0  0  0  0
  191.5730  174.5940  145.8110 C   0  0  0  0  0  0  0  0  0  0  0  0
  192.2110  171.8570  143.6810 C   0  0  0  0  0  2  0  0  0  0  0  0
  196.0750  176.4300  143.8870 C   0  0  0  0  0  3  0  0  0  0  0  0
  190.0470  173.1070  143.8700 C   0  0  0  0  0  0  0  0  0  0  0  0
  189.3700  172.1410  143.2340 C   0  0  0  0  0  3  0  0  0  0  0  0
  192.2720  175.3670  146.7470 C   0  0  0  0  0  3  0  0  0  0  0  0
  194.1850  175.5060  145.2710 C   0  0  0  0  0  0  0  0  0  0  0  0
  195.5330  176.0720  145.0570 C   0  0  0  0  0  3  0  0  0  0  0  0
  189.4190  174.9840  147.1410 C   0  0  0  0  0  2  0  0  0  0  0  0
  188.1900  175.6650  146.5460 C   0  0  0  0  0  2  0  0  0  0  0  0
  189.3130  177.9160  147.3030 C   0  0  0  0  0  1  0  0  0  0  0  0
  189.0310  177.6830  143.8850 O   0  0  0  0  0  0  0  0  0  0  0  0
  188.4760  177.5790  145.0100 C   0  0  0  0  0  0  0  0  0  0  0  0
  187.2990  177.8400  145.9600 N   0  0  0  0  0  0  0  0  0  0  0  0
  188.4480  177.1450  146.3230 C   0  0  1  0  0  0  0  0  0  0  0  0
  185.9840  178.3910  146.2400 C   0  0  0  0  0  0  0  0  0  0  0  0
  186.0530  179.2020  147.3710 O   0  0  0  0  0  1  0  0  0  0  0  0
  185.0060  177.2620  146.4880 C   0  0  0  0  0  1  0  0  0  0  0  0
  185.5120  179.2140  145.0590 C   0  0  0  0  0  1  0  0  0  0  0  0
  1 14  1  0  0  0  0
  2 13  1  0  0  0  0
  3  2  2  0  0  0  0
  3 19  1  0  0  0  0
  4 11  2  0  0  0  0
  4  7  1  0  0  0  0
  5 14  1  1  0  0  0
  5 16  1  0  0  0  0
  5  2  1  0  0  0  0
  6  1  1  0  0  0  0
  6 17  1  0  0  0  0
  7  3  1  0  0  0  0
  8 21  1  1  0  0  0
  9  1  2  0  0  0  0
 10 18  1  0  0  0  0
 11 15  1  0  0  0  0
 12  8  1  0  0  0  0
 13  8  1  0  0  0  0
 13 18  2  0  0  0  0
 15 20  2  0  0  0  0
 16 12  1  0  0  0  0
 17 16  2  0  0  0  0
 19 10  2  0  0  0  0
 20 19  1  0  0  0  0
 22 21  1  0  0  0  0
 24 25  2  0  0  0  0
 25 26  1  0  0  0  0
 25 27  1  0  0  0  0
 26 28  1  0  0  0  0
 26 27  1  0  0  0  0
 27 22  1  0  0  0  0
 27 23  1  1  0  0  0
 28 30  1  0  0  0  0
 28 29  1  0  0  0  0
 31 28  1  0  0  0  0
M  END
>  <MODEL>
6

>  <REMARK>
 VINA RESULT:      -7.2      2.873      6.814
  Name = 
  4 active torsions:
  status: ('A' for Active; 'I' for Inactive)
    1  A    between atoms: C_1  and  N_19
    2  A    between atoms: C_9  and  C_22
    3  A    between atoms: C_9  and  C_23
    4  A    between atoms: C_15  and  C_23
                            x       y       z     vdW  Elec       q    Type
                         _______ _______ _______ _____ _____    ______ ____

>  <TORSDO>
F 4

$$$$
=
 OpenBabel11052417413D

 31 35  0  0  1  0  0  0  0  0999 V2000
  188.1160  175.8000  141.5450 C   0  0  0  0  0  0  0  0  0  0  0  0
  188.6140  176.3780  145.3240 C   0  0  0  0  0  0  0  0  0  0  0  0
  187.5940  177.1740  145.8990 C   0  0  0  0  0  0  0  0  0  0  0  0
  185.1580  176.7910  146.1100 C   0  0  0  0  0  3  0  0  0  0  0  0
  188.3440  175.6060  144.0440 C   0  0  1  0  0  3  0  0  0  0  0  0
  188.3560  174.3130  141.5070 C   0  0  0  0  0  2  0  0  0  0  0  0
  186.2580  177.2760  145.2270 C   0  0  0  0  0  2  0  0  0  0  0  0
  190.9860  175.4500  145.3620 C   0  0  1  0  0  3  0  0  0  0  0  0
  187.8200  176.3900  140.5190 O   0  0  0  0  0  0  0  0  0  0  0  0
  189.1540  177.9470  147.5880 C   0  0  0  0  0  3  0  0  0  0  0  0
  184.8310  177.3960  147.2490 C   0  0  0  0  0  3  0  0  0  0  0  0
  190.4140  174.1730  144.7520 C   0  0  0  0  0  2  0  0  0  0  0  0
  189.8900  176.3270  145.9380 C   0  0  0  0  0  0  0  0  0  0  0  0
  188.2140  176.5600  142.8440 C   0  0  0  0  0  2  0  0  0  0  0  0
  185.5490  178.5470  147.8270 C   0  0  0  0  0  3  0  0  0  0  0  0
  189.3680  174.5270  143.7490 C   0  0  0  0  0  0  0  0  0  0  0  0
  189.3680  173.9260  142.5510 C   0  0  0  0  0  3  0  0  0  0  0  0
  190.1540  177.1490  147.0410 C   0  0  0  0  0  3  0  0  0  0  0  0
  187.8670  177.9450  147.0510 C   0  0  0  0  0  0  0  0  0  0  0  0
  186.8630  178.7860  147.7340 C   0  0  0  0  0  3  0  0  0  0  0  0
  192.1070  175.1120  146.3510 C   0  0  0  0  0  2  0  0  0  0  0  0
  193.1630  174.2000  145.7350 C   0  0  0  0  0  2  0  0  0  0  0  0
  193.8700  175.1090  143.3740 C   0  0  0  0  0  1  0  0  0  0  0  0
  194.7590  177.2460  145.9150 O   0  0  0  0  0  0  0  0  0  0  0  0
  194.7530  176.0710  145.4640 C   0  0  0  0  0  0  0  0  0  0  0  0
  195.4560  174.7390  145.1670 N   0  0  0  0  0  0  0  0  0  0  0  0
  194.1210  174.9950  144.8660 C   0  0  1  0  0  0  0  0  0  0  0  0
  196.6270  173.8810  145.1980 C   0  0  0  0  0  0  0  0  0  0  0  0
  197.1010  173.7890  146.5060 O   0  0  0  0  0  1  0  0  0  0  0  0
  197.7070  174.4680  144.3120 C   0  0  0  0  0  1  0  0  0  0  0  0
  196.2630  172.4990  144.6970 C   0  0  0  0  0  1  0  0  0  0  0  0
  1 14  1  0  0  0  0
  2  3  2  0  0  0  0
  2 13  1  0  0  0  0
  3 19  1  0  0  0  0
  4 11  2  0  0  0  0
  5 14  1  6  0  0  0
  5  2  1  0  0  0  0
  6  1  1  0  0  0  0
  6 17  1  0  0  0  0
  7  3  1  0  0  0  0
  7  4  1  0  0  0  0
  8 13  1  0  0  0  0
  8 21  1  1  0  0  0
  9  1  2  0  0  0  0
 11 15  1  0  0  0  0
 12  8  1  0  0  0  0
 13 18  2  0  0  0  0
 16  5  1  0  0  0  0
 16 12  1  0  0  0  0
 17 16  2  0  0  0  0
 18 10  1  0  0  0  0
 19 10  2  0  0  0  0
 19 20  1  0  0  0  0
 20 15  2  0  0  0  0
 22 21  1  0  0  0  0
 25 24  2  0  0  0  0
 26 28  1  0  0  0  0
 26 25  1  0  0  0  0
 27 23  1  6  0  0  0
 27 26  1  0  0  0  0
 27 25  1  0  0  0  0
 27 22  1  0  0  0  0
 28 29  1  0  0  0  0
 30 28  1  0  0  0  0
 31 28  1  0  0  0  0
M  END
>  <MODEL>
7

>  <REMARK>
 VINA RESULT:      -7.2      1.175      2.179
  Name = 
  4 active torsions:
  status: ('A' for Active; 'I' for Inactive)
    1  A    between atoms: C_1  and  N_19
    2  A    between atoms: C_9  and  C_22
    3  A    between atoms: C_9  and  C_23
    4  A    between atoms: C_15  and  C_23
                            x       y       z     vdW  Elec       q    Type
                         _______ _______ _______ _____ _____    ______ ____

>  <TORSDO>
F 4

$$$$
=
 OpenBabel11052417413D

 31 35  0  0  1  0  0  0  0  0999 V2000
  191.4160  176.3890  148.1450 C   0  0  0  0  0  0  0  0  0  0  0  0
  192.7670  175.5060  144.6430 C   0  0  0  0  0  0  0  0  0  0  0  0
  194.1810  175.5290  144.5760 C   0  0  0  0  0  0  0  0  0  0  0  0
  195.8870  174.1780  145.7570 C   0  0  0  0  0  3  0  0  0  0  0  0
  192.0740  175.2910  145.9780 C   0  0  1  0  0  3  0  0  0  0  0  0
  190.4170  175.2720  148.2930 C   0  0  0  0  0  2  0  0  0  0  0  0
  194.9910  175.3690  145.8270 C   0  0  0  0  0  2  0  0  0  0  0  0
  190.4930  175.6490  143.5060 C   0  0  1  0  0  3  0  0  0  0  0  0
  191.5760  177.1820  149.0580 O   0  0  0  0  0  0  0  0  0  0  0  0
  194.0570  176.0800  142.2170 C   0  0  0  0  0  3  0  0  0  0  0  0
  196.8870  174.0820  144.8840 C   0  0  0  0  0  3  0  0  0  0  0  0
  190.0040  174.6240  144.5260 C   0  0  0  0  0  2  0  0  0  0  0  0
  192.0090  175.7080  143.4640 C   0  0  0  0  0  0  0  0  0  0  0  0
  192.2400  176.5200  146.8880 C   0  0  0  0  0  2  0  0  0  0  0  0
  197.1860  175.0730  143.8330 C   0  0  0  0  0  3  0  0  0  0  0  0
  190.6090  174.9210  145.8570 C   0  0  0  0  0  0  0  0  0  0  0  0
  189.8350  174.9180  146.9510 C   0  0  0  0  0  3  0  0  0  0  0  0
  192.6680  176.0360  142.2730 C   0  0  0  0  0  3  0  0  0  0  0  0
  194.8240  175.7980  143.3470 C   0  0  0  0  0  0  0  0  0  0  0  0
  196.2910  175.8190  143.1740 C   0  0  0  0  0  3  0  0  0  0  0  0
  189.8360  175.4000  142.1440 C   0  0  0  0  0  2  0  0  0  0  0  0
  188.3230  175.5940  142.1890 C   0  0  0  0  0  2  0  0  0  0  0  0
  189.0670  178.1060  141.9990 C   0  0  0  0  0  1  0  0  0  0  0  0
  186.0030  177.5390  140.5480 O   0  0  0  0  0  0  0  0  0  0  0  0
  186.7520  177.3900  141.5480 C   0  0  0  0  0  0  0  0  0  0  0  0
  187.0000  177.4260  143.0620 N   0  0  0  0  0  0  0  0  0  0  0  0
  187.9670  177.0690  142.1280 C   0  0  1  0  0  0  0  0  0  0  0  0
  186.5460  177.6540  144.4230 C   0  0  0  0  0  0  0  0  0  0  0  0
  185.5800  176.7060  144.7550 O   0  0  0  0  0  1  0  0  0  0  0  0
  185.9490  179.0410  144.5310 C   0  0  0  0  0  1  0  0  0  0  0  0
  187.7160  177.5350  145.3790 C   0  0  0  0  0  1  0  0  0  0  0  0
  1  6  1  0  0  0  0
  1  9  2  0  0  0  0
  2  5  1  0  0  0  0
  3  2  1  0  0  0  0
  3  7  1  0  0  0  0
  4  7  1  0  0  0  0
  5 14  1  1  0  0  0
  8 21  1  6  0  0  0
  8 12  1  0  0  0  0
 10 18  2  0  0  0  0
 10 19  1  0  0  0  0
 11  4  2  0  0  0  0
 12 16  1  0  0  0  0
 13  8  1  0  0  0  0
 13  2  2  0  0  0  0
 14  1  1  0  0  0  0
 15 11  1  0  0  0  0
 16  5  1  0  0  0  0
 16 17  2  0  0  0  0
 17  6  1  0  0  0  0
 18 13  1  0  0  0  0
 19  3  2  0  0  0  0
 20 19  1  0  0  0  0
 20 15  2  0  0  0  0
 21 22  1  0  0  0  0
 24 25  2  0  0  0  0
 25 27  1  0  0  0  0
 25 26  1  0  0  0  0
 26 28  1  0  0  0  0
 27 23  1  6  0  0  0
 27 22  1  0  0  0  0
 27 26  1  0  0  0  0
 28 30  1  0  0  0  0
 28 29  1  0  0  0  0
 28 31  1  0  0  0  0
M  END
>  <MODEL>
8

>  <REMARK>
 VINA RESULT:      -7.1      2.848      7.625
  Name = 
  4 active torsions:
  status: ('A' for Active; 'I' for Inactive)
    1  A    between atoms: C_1  and  N_19
    2  A    between atoms: C_9  and  C_22
    3  A    between atoms: C_9  and  C_23
    4  A    between atoms: C_15  and  C_23
                            x       y       z     vdW  Elec       q    Type
                         _______ _______ _______ _____ _____    ______ ____

>  <TORSDO>
F 4

$$$$
=
 OpenBabel11052417413D

 31 35  0  0  1  0  0  0  0  0999 V2000
  192.2370  176.2830  146.4960 C   0  0  0  0  0  0  0  0  0  0  0  0
  190.6660  174.3540  143.5500 C   0  0  0  0  0  0  0  0  0  0  0  0
  191.4710  173.2780  143.1040 C   0  0  0  0  0  0  0  0  0  0  0  0
  192.2250  171.2250  144.2630 C   0  0  0  0  0  3  0  0  0  0  0  0
  190.8150  174.8770  144.9690 C   0  0  1  0  0  3  0  0  0  0  0  0
  191.0300  176.3560  147.3920 C   0  0  0  0  0  2  0  0  0  0  0  0
  192.4870  172.6740  144.0250 C   0  0  0  0  0  2  0  0  0  0  0  0
  188.8440  176.0820  143.1240 C   0  0  1  0  0  3  0  0  0  0  0  0
  193.2990  176.7500  146.8730 O   0  0  0  0  0  0  0  0  0  0  0  0
  190.5280  173.4990  140.8800 C   0  0  0  0  0  3  0  0  0  0  0  0
  192.2980  170.3130  143.2950 C   0  0  0  0  0  3  0  0  0  0  0  0
  188.4400  175.9040  144.5860 C   0  0  0  0  0  2  0  0  0  0  0  0
  189.7430  174.9530  142.6570 C   0  0  0  0  0  0  0  0  0  0  0  0
  192.1520  175.6150  145.1460 C   0  0  0  0  0  2  0  0  0  0  0  0
  192.5530  170.6130  141.8740 C   0  0  0  0  0  3  0  0  0  0  0  0
  189.6660  175.7550  145.4240 C   0  0  0  0  0  0  0  0  0  0  0  0
  189.7760  176.4500  146.5640 C   0  0  0  0  0  3  0  0  0  0  0  0
  189.7190  174.5420  141.3180 C   0  0  0  0  0  3  0  0  0  0  0  0
  191.3810  172.8390  141.7640 C   0  0  0  0  0  0  0  0  0  0  0  0
  192.1610  171.7100  141.2150 C   0  0  0  0  0  3  0  0  0  0  0  0
  187.6020  176.2990  142.2520 C   0  0  0  0  0  2  0  0  0  0  0  0
  186.3180  176.3370  143.0760 C   0  0  0  0  0  2  0  0  0  0  0  0
  186.6660  178.9260  142.7960 C   0  0  0  0  0  1  0  0  0  0  0  0
  183.4260  177.9700  142.1650 O   0  0  0  0  0  0  0  0  0  0  0  0
  184.4230  177.9160  142.9310 C   0  0  0  0  0  0  0  0  0  0  0  0
  185.0500  177.9770  144.3300 N   0  0  0  0  0  0  0  0  0  0  0  0
  185.7770  177.7540  143.1640 C   0  0  1  0  0  0  0  0  0  0  0  0
  184.9430  178.1380  145.7700 C   0  0  0  0  0  0  0  0  0  0  0  0
  183.6910  178.6630  146.0860 O   0  0  0  0  0  1  0  0  0  0  0  0
  186.0230  179.0820  146.2550 C   0  0  0  0  0  1  0  0  0  0  0  0
  185.1100  176.7940  146.4490 C   0  0  0  0  0  1  0  0  0  0  0  0
  1  9  2  0  0  0  0
  1  6  1  0  0  0  0
  2  5  1  0  0  0  0
  3  2  1  0  0  0  0
  3  7  1  0  0  0  0
  5 14  1  6  0  0  0
  5 16  1  0  0  0  0
  7  4  1  0  0  0  0
  8 21  1  6  0  0  0
  8 12  1  0  0  0  0
 10 18  2  0  0  0  0
 10 19  1  0  0  0  0
 11  4  2  0  0  0  0
 12 16  1  0  0  0  0
 13  8  1  0  0  0  0
 13  2  2  0  0  0  0
 14  1  1  0  0  0  0
 15 11  1  0  0  0  0
 16 17  2  0  0  0  0
 17  6  1  0  0  0  0
 18 13  1  0  0  0  0
 19  3  2  0  0  0  0
 20 19  1  0  0  0  0
 20 15  2  0  0  0  0
 21 22  1  0  0  0  0
 22 27  1  0  0  0  0
 24 25  2  0  0  0  0
 25 27  1  0  0  0  0
 25 26  1  0  0  0  0
 26 28  1  0  0  0  0
 27 23  1  6  0  0  0
 27 26  1  0  0  0  0
 28 29  1  0  0  0  0
 28 30  1  0  0  0  0
 28 31  1  0  0  0  0
M  END
>  <MODEL>
9

>  <REMARK>
 VINA RESULT:      -7.1      3.181      8.044
  Name = 
  4 active torsions:
  status: ('A' for Active; 'I' for Inactive)
    1  A    between atoms: C_1  and  N_19
    2  A    between atoms: C_9  and  C_22
    3  A    between atoms: C_9  and  C_23
    4  A    between atoms: C_15  and  C_23
                            x       y       z     vdW  Elec       q    Type
                         _______ _______ _______ _____ _____    ______ ____

>  <TORSDO>
F 4

$$$$
