=
 OpenBabel11052420303D

 34 39  0  0  0  0  0  0  0  0999 V2000
  187.9490  176.3790  144.8220 C   0  0  0  0  0  3  0  0  0  0  0  0
  184.7020  178.1020  143.9630 C   0  0  0  0  0  0  0  0  0  0  0  0
  184.4200  178.6520  146.3480 C   0  0  0  0  0  3  0  0  0  0  0  0
  189.0520  176.9590  146.8670 C   0  0  0  0  0  3  0  0  0  0  0  0
  186.8970  177.2840  145.0710 C   0  0  0  0  0  0  0  0  0  0  0  0
  188.0260  177.8510  147.1680 C   0  0  0  0  0  0  0  0  0  0  0  0
  187.1360  179.4130  148.7090 C   0  0  0  0  0  3  0  0  0  0  0  0
  188.1300  178.5890  148.3020 N   0  0  0  0  0  0  0  0  0  0  0  0
  189.0030  176.1800  145.7130 C   0  0  0  0  0  0  0  0  0  0  0  0
  185.8090  178.7540  146.7970 C   0  0  0  0  0  0  0  0  0  0  0  0
  186.8840  177.9680  146.3180 C   0  0  0  0  0  0  0  0  0  0  0  0
  185.9560  179.4800  147.9810 C   0  0  0  0  0  3  0  0  0  0  0  0
  183.9850  178.3170  142.7780 C   0  0  0  0  0  3  0  0  0  0  0  0
  184.5580  178.0910  141.5290 C   0  0  0  0  0  0  0  0  0  0  0  0
  185.8720  177.6480  141.4490 C   0  0  0  0  0  3  0  0  0  0  0  0
  183.9870  178.3590  145.1670 N   0  0  0  0  0  0  0  0  0  0  0  0
  186.5910  177.4110  142.6180 C   0  0  0  0  0  3  0  0  0  0  0  0
  186.0320  177.6160  143.8990 C   0  0  0  0  0  0  0  0  0  0  0  0
  190.7880  173.0730  144.4160 C   0  0  0  0  0  3  0  0  0  0  0  0
  191.4060  175.4540  145.8200 C   0  0  0  0  0  3  0  0  0  0  0  0
  194.3670  173.2910  145.2950 N   0  0  0  0  0  0  0  0  0  0  0  0
  195.7430  172.8990  145.3940 C   0  0  0  0  0  0  0  0  0  0  0  0
  193.3140  172.5010  144.6470 C   0  0  0  0  0  2  0  0  0  0  0  0
  196.5760  173.6390  145.9820 O   0  0  0  0  0  0  0  0  0  0  0  0
  192.0870  173.3450  144.8360 C   0  0  0  0  0  0  0  0  0  0  0  0
  196.2090  171.6130  144.8030 C   0  0  0  0  0  1  0  0  0  0  0  0
  193.7880  174.4900  145.8090 C   0  0  0  0  0  0  0  0  0  0  0  0
  192.3790  174.5050  145.5180 C   0  0  0  0  0  0  0  0  0  0  0  0
  194.4250  175.3890  146.4220 O   0  0  0  0  0  0  0  0  0  0  0  0
  190.0780  175.2070  145.4080 C   0  0  0  0  0  0  0  0  0  0  0  0
  189.7840  174.0110  144.7060 C   0  0  0  0  0  3  0  0  0  0  0  0
  183.7820  178.3610  140.2890 C   0  0  0  0  0  2  0  0  0  0  0  0
  182.5210  177.6380  140.3290 N   0  0  0  0  0  2  0  0  0  0  0  0
  181.4880  178.6220  140.5980 C   0  0  0  0  0  1  0  0  0  0  0  0
  1  5  2  0  0  0  0
  1  9  1  0  0  0  0
  2 16  1  0  0  0  0
  3 10  1  0  0  0  0
  4  6  1  0  0  0  0
  5 11  1  0  0  0  0
  6  8  1  0  0  0  0
  8  7  2  0  0  0  0
  9  4  2  0  0  0  0
 10 12  2  0  0  0  0
 11 10  1  0  0  0  0
 11  6  2  0  0  0  0
 12  7  1  0  0  0  0
 13  2  2  0  0  0  0
 14 13  1  0  0  0  0
 15 14  2  0  0  0  0
 15 17  1  0  0  0  0
 16  3  2  0  0  0  0
 17 18  2  0  0  0  0
 18  2  1  0  0  0  0
 18  5  1  0  0  0  0
 19 31  2  0  0  0  0
 19 25  1  0  0  0  0
 21 22  1  0  0  0  0
 21 27  1  0  0  0  0
 22 24  2  0  0  0  0
 23 25  1  0  0  0  0
 23 21  1  0  0  0  0
 25 28  2  0  0  0  0
 26 22  1  0  0  0  0
 27 29  2  0  0  0  0
 28 27  1  0  0  0  0
 28 20  1  0  0  0  0
 30  9  1  0  0  0  0
 30 20  2  0  0  0  0
 31 30  1  0  0  0  0
 32 33  1  0  0  0  0
 32 14  1  0  0  0  0
 33 34  1  0  0  0  0
M  END
>  <MODEL>
1

>  <REMARK>
 VINA RESULT:      -8.9      0.000      0.000
  Name = 
  3 active torsions:
  status: ('A' for Active; 'I' for Inactive)
    1  A    between atoms: C_3  and  N_13
    2  A    between atoms: C_3  and  C_25
    3  A    between atoms: C_18  and  C_30
                            x       y       z     vdW  Elec       q    Type
                         _______ _______ _______ _____ _____    ______ ____

>  <TORSDO>
F 3

$$$$
=
 OpenBabel11052420303D

 34 39  0  0  0  0  0  0  0  0999 V2000
  193.5420  176.0470  142.5710 C   0  0  0  0  0  3  0  0  0  0  0  0
  196.6700  175.3710  140.5700 C   0  0  0  0  0  0  0  0  0  0  0  0
  197.9410  175.2810  142.6790 C   0  0  0  0  0  3  0  0  0  0  0  0
  193.5020  175.4300  144.8840 C   0  0  0  0  0  3  0  0  0  0  0  0
  194.8620  175.5760  142.4140 C   0  0  0  0  0  0  0  0  0  0  0  0
  194.8130  174.9720  144.7850 C   0  0  0  0  0  0  0  0  0  0  0  0
  196.6750  174.0140  145.8920 C   0  0  0  0  0  3  0  0  0  0  0  0
  195.3790  174.4050  145.8810 N   0  0  0  0  0  0  0  0  0  0  0  0
  192.8670  176.0140  143.7910 C   0  0  0  0  0  0  0  0  0  0  0  0
  196.9280  174.7960  143.6170 C   0  0  0  0  0  0  0  0  0  0  0  0
  195.5500  175.1150  143.5710 C   0  0  0  0  0  0  0  0  0  0  0  0
  197.4690  174.2340  144.7750 C   0  0  0  0  0  3  0  0  0  0  0  0
  196.9570  175.2390  139.2040 C   0  0  0  0  0  3  0  0  0  0  0  0
  195.9440  175.0900  138.2600 C   0  0  0  0  0  0  0  0  0  0  0  0
  194.6190  175.0660  138.6750 C   0  0  0  0  0  3  0  0  0  0  0  0
  197.8020  175.5310  141.4190 N   0  0  0  0  0  0  0  0  0  0  0  0
  194.3180  175.2170  140.0260 C   0  0  0  0  0  3  0  0  0  0  0  0
  195.3230  175.3840  141.0060 C   0  0  0  0  0  0  0  0  0  0  0  0
  189.6470  177.8930  142.9970 C   0  0  0  0  0  3  0  0  0  0  0  0
  190.6790  176.1920  145.0140 C   0  0  0  0  0  3  0  0  0  0  0  0
  187.2060  177.2830  145.6990 N   0  0  0  0  0  0  0  0  0  0  0  0
  185.9790  177.3790  146.4350 C   0  0  0  0  0  0  0  0  0  0  0  0
  187.4740  177.9560  144.4220 C   0  0  0  0  0  2  0  0  0  0  0  0
  185.8450  176.7740  147.5310 O   0  0  0  0  0  0  0  0  0  0  0  0
  188.8800  177.5390  144.1040 C   0  0  0  0  0  0  0  0  0  0  0  0
  184.8450  178.1930  145.9150 C   0  0  0  0  0  1  0  0  0  0  0  0
  188.3650  176.5400  146.0750 C   0  0  0  0  0  0  0  0  0  0  0  0
  189.3890  176.7120  145.0800 C   0  0  0  0  0  0  0  0  0  0  0  0
  188.4630  175.8450  147.1220 O   0  0  0  0  0  0  0  0  0  0  0  0
  191.4830  176.5320  143.9030 C   0  0  0  0  0  0  0  0  0  0  0  0
  190.9530  177.3840  142.9030 C   0  0  0  0  0  3  0  0  0  0  0  0
  196.2810  174.9170  136.8210 C   0  0  0  0  0  2  0  0  0  0  0  0
  197.2290  175.9410  136.4100 N   0  0  0  0  0  2  0  0  0  0  0  0
  196.6040  176.6720  135.3240 C   0  0  0  0  0  1  0  0  0  0  0  0
  1  9  1  0  0  0  0
  2 18  1  0  0  0  0
  2 16  1  0  0  0  0
  3 10  1  0  0  0  0
  5  1  2  0  0  0  0
  5 11  1  0  0  0  0
  6  4  1  0  0  0  0
  6  8  1  0  0  0  0
  8  7  2  0  0  0  0
  9 30  1  0  0  0  0
  9  4  2  0  0  0  0
 10 12  2  0  0  0  0
 11 10  1  0  0  0  0
 11  6  2  0  0  0  0
 12  7  1  0  0  0  0
 13  2  2  0  0  0  0
 14 15  2  0  0  0  0
 14 13  1  0  0  0  0
 15 17  1  0  0  0  0
 16  3  2  0  0  0  0
 17 18  2  0  0  0  0
 18  5  1  0  0  0  0
 19 25  1  0  0  0  0
 20 28  1  0  0  0  0
 21 27  1  0  0  0  0
 21 22  1  0  0  0  0
 22 24  2  0  0  0  0
 23 21  1  0  0  0  0
 25 23  1  0  0  0  0
 25 28  2  0  0  0  0
 26 22  1  0  0  0  0
 27 29  2  0  0  0  0
 28 27  1  0  0  0  0
 30 20  2  0  0  0  0
 31 19  2  0  0  0  0
 31 30  1  0  0  0  0
 32 14  1  0  0  0  0
 33 32  1  0  0  0  0
 34 33  1  0  0  0  0
M  END
>  <MODEL>
2

>  <REMARK>
 VINA RESULT:      -8.4      4.794     10.000
  Name = 
  3 active torsions:
  status: ('A' for Active; 'I' for Inactive)
    1  A    between atoms: C_3  and  N_13
    2  A    between atoms: C_3  and  C_25
    3  A    between atoms: C_18  and  C_30
                            x       y       z     vdW  Elec       q    Type
                         _______ _______ _______ _____ _____    ______ ____

>  <TORSDO>
F 3

$$$$
=
 OpenBabel11052420303D

 34 39  0  0  0  0  0  0  0  0999 V2000
  189.1300  176.7480  143.7480 C   0  0  0  0  0  3  0  0  0  0  0  0
  192.3950  175.2930  142.5360 C   0  0  0  0  0  0  0  0  0  0  0  0
  193.5090  176.2880  144.4950 C   0  0  0  0  0  3  0  0  0  0  0  0
  188.9220  177.3380  146.0590 C   0  0  0  0  0  3  0  0  0  0  0  0
  190.4580  176.3080  143.9250 C   0  0  0  0  0  0  0  0  0  0  0  0
  190.2370  176.9360  146.2800 C   0  0  0  0  0  0  0  0  0  0  0  0
  192.0130  176.7060  147.8300 C   0  0  0  0  0  3  0  0  0  0  0  0
  190.7220  176.9960  147.5470 N   0  0  0  0  0  0  0  0  0  0  0  0
  188.3690  177.2910  144.7820 C   0  0  0  0  0  0  0  0  0  0  0  0
  192.4310  176.2870  145.4840 C   0  0  0  0  0  0  0  0  0  0  0  0
  191.0600  176.4940  145.2010 C   0  0  0  0  0  0  0  0  0  0  0  0
  192.8860  176.3810  146.8010 C   0  0  0  0  0  3  0  0  0  0  0  0
  192.7800  174.5220  141.4310 C   0  0  0  0  0  3  0  0  0  0  0  0
  191.8380  173.8950  140.6180 C   0  0  0  0  0  0  0  0  0  0  0  0
  190.4860  174.0300  140.9070 C   0  0  0  0  0  3  0  0  0  0  0  0
  193.4620  175.8870  143.2680 N   0  0  0  0  0  0  0  0  0  0  0  0
  190.0890  174.8100  141.9890 C   0  0  0  0  0  3  0  0  0  0  0  0
  191.0190  175.4700  142.8230 C   0  0  0  0  0  0  0  0  0  0  0  0
  184.9140  178.7910  145.3680 C   0  0  0  0  0  3  0  0  0  0  0  0
  186.3810  177.5750  143.2720 C   0  0  0  0  0  3  0  0  0  0  0  0
  182.9530  178.5390  142.2500 N   0  0  0  0  0  0  0  0  0  0  0  0
  181.8310  178.6660  141.3660 C   0  0  0  0  0  0  0  0  0  0  0  0
  182.9710  178.9780  143.6510 C   0  0  0  0  0  2  0  0  0  0  0  0
  181.9050  178.2470  140.1800 O   0  0  0  0  0  0  0  0  0  0  0  0
  184.3510  178.6050  144.1080 C   0  0  0  0  0  0  0  0  0  0  0  0
  180.5640  179.2920  141.8340 C   0  0  0  0  0  1  0  0  0  0  0  0
  184.2210  177.9660  141.9350 C   0  0  0  0  0  0  0  0  0  0  0  0
  185.0710  178.0130  143.0950 C   0  0  0  0  0  0  0  0  0  0  0  0
  184.5360  177.4940  140.8090 O   0  0  0  0  0  0  0  0  0  0  0  0
  186.9800  177.7490  144.5390 C   0  0  0  0  0  0  0  0  0  0  0  0
  186.2340  178.3590  145.5780 C   0  0  0  0  0  3  0  0  0  0  0  0
  192.2790  173.0550  139.4720 C   0  0  0  0  0  2  0  0  0  0  0  0
  191.1290  172.3980  138.8710 N   0  0  0  0  0  2  0  0  0  0  0  0
  191.4010  170.9730  138.9050 C   0  0  0  0  0  1  0  0  0  0  0  0
  1  5  2  0  0  0  0
  1  9  1  0  0  0  0
  2 18  1  0  0  0  0
  2 16  1  0  0  0  0
  3 10  1  0  0  0  0
  4  6  1  0  0  0  0
  5 11  1  0  0  0  0
  6  8  1  0  0  0  0
  8  7  2  0  0  0  0
  9  4  2  0  0  0  0
 10 12  2  0  0  0  0
 11 10  1  0  0  0  0
 11  6  2  0  0  0  0
 12  7  1  0  0  0  0
 13  2  2  0  0  0  0
 14 15  2  0  0  0  0
 14 13  1  0  0  0  0
 15 17  1  0  0  0  0
 16  3  2  0  0  0  0
 17 18  2  0  0  0  0
 18  5  1  0  0  0  0
 19 31  1  0  0  0  0
 20 30  1  0  0  0  0
 21 23  1  0  0  0  0
 22 26  1  0  0  0  0
 22 21  1  0  0  0  0
 23 25  1  0  0  0  0
 24 22  2  0  0  0  0
 25 19  2  0  0  0  0
 27 21  1  0  0  0  0
 27 28  1  0  0  0  0
 28 20  2  0  0  0  0
 28 25  1  0  0  0  0
 29 27  2  0  0  0  0
 30  9  1  0  0  0  0
 30 31  2  0  0  0  0
 32 14  1  0  0  0  0
 33 34  1  0  0  0  0
 33 32  1  0  0  0  0
M  END
>  <MODEL>
3

>  <REMARK>
 VINA RESULT:      -8.4      4.147      9.048
  Name = 
  3 active torsions:
  status: ('A' for Active; 'I' for Inactive)
    1  A    between atoms: C_3  and  N_13
    2  A    between atoms: C_3  and  C_25
    3  A    between atoms: C_18  and  C_30
                            x       y       z     vdW  Elec       q    Type
                         _______ _______ _______ _____ _____    ______ ____

>  <TORSDO>
F 3

$$$$
=
 OpenBabel11052420303D

 34 39  0  0  0  0  0  0  0  0999 V2000
  193.5220  176.0240  143.0260 C   0  0  0  0  0  3  0  0  0  0  0  0
  196.4890  175.4210  140.7720 C   0  0  0  0  0  0  0  0  0  0  0  0
  197.9180  175.2780  142.7740 C   0  0  0  0  0  3  0  0  0  0  0  0
  193.6610  175.3430  145.3180 C   0  0  0  0  0  3  0  0  0  0  0  0
  194.8270  175.5650  142.7550 C   0  0  0  0  0  0  0  0  0  0  0  0
  194.9620  174.8950  145.1050 C   0  0  0  0  0  0  0  0  0  0  0  0
  196.9070  173.9160  146.0380 C   0  0  0  0  0  3  0  0  0  0  0  0
  195.6130  174.3010  146.1380 N   0  0  0  0  0  0  0  0  0  0  0  0
  192.9430  175.9540  144.2930 C   0  0  0  0  0  0  0  0  0  0  0  0
  196.9820  174.7630  143.7730 C   0  0  0  0  0  0  0  0  0  0  0  0
  195.6030  175.0750  143.8420 C   0  0  0  0  0  0  0  0  0  0  0  0
  197.6120  174.1710  144.8700 C   0  0  0  0  0  3  0  0  0  0  0  0
  196.6700  175.3270  139.3860 C   0  0  0  0  0  3  0  0  0  0  0  0
  195.5880  175.1990  138.5180 C   0  0  0  0  0  0  0  0  0  0  0  0
  194.2990  175.1570  139.0330 C   0  0  0  0  0  3  0  0  0  0  0  0
  197.6820  175.5630  141.5360 N   0  0  0  0  0  0  0  0  0  0  0  0
  194.1030  175.2680  140.4070 C   0  0  0  0  0  3  0  0  0  0  0  0
  195.1790  175.4140  141.3110 C   0  0  0  0  0  0  0  0  0  0  0  0
  189.7650  177.0580  146.0830 C   0  0  0  0  0  3  0  0  0  0  0  0
  190.7440  176.8170  143.4370 C   0  0  0  0  0  3  0  0  0  0  0  0
  187.2680  178.0900  143.5670 N   0  0  0  0  0  0  0  0  0  0  0  0
  186.0190  178.5590  143.0420 C   0  0  0  0  0  0  0  0  0  0  0  0
  187.5660  177.9170  144.9940 C   0  0  0  0  0  2  0  0  0  0  0  0
  185.8500  178.6630  141.7980 O   0  0  0  0  0  0  0  0  0  0  0  0
  188.9750  177.4000  144.9890 C   0  0  0  0  0  0  0  0  0  0  0  0
  184.9030  178.9300  143.9570 C   0  0  0  0  0  1  0  0  0  0  0  0
  188.4150  177.7050  142.8110 C   0  0  0  0  0  0  0  0  0  0  0  0
  189.4590  177.2800  143.7050 C   0  0  0  0  0  0  0  0  0  0  0  0
  188.4890  177.7370  141.5530 O   0  0  0  0  0  0  0  0  0  0  0  0
  191.5700  176.4620  144.5260 C   0  0  0  0  0  0  0  0  0  0  0  0
  191.0660  176.5870  145.8440 C   0  0  0  0  0  3  0  0  0  0  0  0
  195.8140  175.0680  137.0530 C   0  0  0  0  0  2  0  0  0  0  0  0
  197.0810  175.6840  136.6920 N   0  0  0  0  0  2  0  0  0  0  0  0
  196.7990  176.6080  135.6100 C   0  0  0  0  0  1  0  0  0  0  0  0
  1  9  1  0  0  0  0
  2 18  1  0  0  0  0
  2 16  1  0  0  0  0
  3 10  1  0  0  0  0
  5  1  2  0  0  0  0
  5 11  1  0  0  0  0
  6  4  1  0  0  0  0
  6  8  1  0  0  0  0
  7  8  2  0  0  0  0
  9 30  1  0  0  0  0
  9  4  2  0  0  0  0
 10 11  1  0  0  0  0
 10 12  2  0  0  0  0
 11  6  2  0  0  0  0
 12  7  1  0  0  0  0
 13  2  2  0  0  0  0
 14 15  2  0  0  0  0
 14 13  1  0  0  0  0
 15 17  1  0  0  0  0
 16  3  2  0  0  0  0
 17 18  2  0  0  0  0
 18  5  1  0  0  0  0
 20 28  2  0  0  0  0
 20 30  1  0  0  0  0
 21 23  1  0  0  0  0
 22 21  1  0  0  0  0
 22 26  1  0  0  0  0
 24 22  2  0  0  0  0
 25 23  1  0  0  0  0
 25 19  2  0  0  0  0
 27 21  1  0  0  0  0
 27 28  1  0  0  0  0
 28 25  1  0  0  0  0
 29 27  2  0  0  0  0
 30 31  2  0  0  0  0
 31 19  1  0  0  0  0
 32 14  1  0  0  0  0
 33 32  1  0  0  0  0
 34 33  1  0  0  0  0
M  END
>  <MODEL>
4

>  <REMARK>
 VINA RESULT:      -8.4      4.815     10.062
  Name = 
  3 active torsions:
  status: ('A' for Active; 'I' for Inactive)
    1  A    between atoms: C_3  and  N_13
    2  A    between atoms: C_3  and  C_25
    3  A    between atoms: C_18  and  C_30
                            x       y       z     vdW  Elec       q    Type
                         _______ _______ _______ _____ _____    ______ ____

>  <TORSDO>
F 3

$$$$
=
 OpenBabel11052420303D

 34 39  0  0  0  0  0  0  0  0999 V2000
  188.0000  176.3600  144.9000 C   0  0  0  0  0  3  0  0  0  0  0  0
  184.7750  178.0820  143.9610 C   0  0  0  0  0  0  0  0  0  0  0  0
  184.4410  178.6440  146.3360 C   0  0  0  0  0  3  0  0  0  0  0  0
  189.0590  176.9500  146.9650 C   0  0  0  0  0  3  0  0  0  0  0  0
  186.9440  177.2680  145.1210 C   0  0  0  0  0  0  0  0  0  0  0  0
  188.0280  177.8440  147.2390 C   0  0  0  0  0  0  0  0  0  0  0  0
  187.1060  179.4160  148.7520 C   0  0  0  0  0  3  0  0  0  0  0  0
  188.1070  178.5890  148.3720 N   0  0  0  0  0  0  0  0  0  0  0  0
  189.0340  176.1650  145.8150 C   0  0  0  0  0  0  0  0  0  0  0  0
  185.8200  178.7470  146.8150 C   0  0  0  0  0  0  0  0  0  0  0  0
  186.9050  177.9580  146.3640 C   0  0  0  0  0  0  0  0  0  0  0  0
  185.9420  179.4800  147.9980 C   0  0  0  0  0  3  0  0  0  0  0  0
  184.0840  178.2910  142.7600 C   0  0  0  0  0  3  0  0  0  0  0  0
  184.6840  178.0580  141.5250 C   0  0  0  0  0  0  0  0  0  0  0  0
  185.9990  177.6130  141.4760 C   0  0  0  0  0  3  0  0  0  0  0  0
  184.0340  178.3460  145.1470 N   0  0  0  0  0  0  0  0  0  0  0  0
  186.6920  177.3820  142.6620 C   0  0  0  0  0  3  0  0  0  0  0  0
  186.1050  177.5950  143.9290 C   0  0  0  0  0  0  0  0  0  0  0  0
  192.4540  174.4830  145.8020 C   0  0  0  0  0  3  0  0  0  0  0  0
  189.8640  174.0510  144.7410 C   0  0  0  0  0  3  0  0  0  0  0  0
  192.2640  171.3970  143.7840 N   0  0  0  0  0  0  0  0  0  0  0  0
  192.7080  170.1950  143.1390 C   0  0  0  0  0  0  0  0  0  0  0  0
  193.1130  172.2740  144.6000 C   0  0  0  0  0  2  0  0  0  0  0  0
  191.9080  169.5120  142.4460 O   0  0  0  0  0  0  0  0  0  0  0  0
  192.1750  173.3700  145.0120 C   0  0  0  0  0  0  0  0  0  0  0  0
  194.1180  169.7370  143.2780 C   0  0  0  0  0  1  0  0  0  0  0  0
  190.9490  171.9480  143.7380 C   0  0  0  0  0  0  0  0  0  0  0  0
  190.9130  173.1670  144.5010 C   0  0  0  0  0  0  0  0  0  0  0  0
  189.9770  171.4350  143.1210 O   0  0  0  0  0  0  0  0  0  0  0  0
  190.1150  175.1890  145.5380 C   0  0  0  0  0  0  0  0  0  0  0  0
  191.4160  175.3920  146.0620 C   0  0  0  0  0  3  0  0  0  0  0  0
  183.9360  178.3220  140.2660 C   0  0  0  0  0  2  0  0  0  0  0  0
  182.7100  177.5410  140.2480 N   0  0  0  0  0  2  0  0  0  0  0  0
  181.6240  178.4660  140.5130 C   0  0  0  0  0  1  0  0  0  0  0  0
  1  5  2  0  0  0  0
  1  9  1  0  0  0  0
  2 16  1  0  0  0  0
  3 10  1  0  0  0  0
  4  6  1  0  0  0  0
  5 11  1  0  0  0  0
  6  8  1  0  0  0  0
  8  7  2  0  0  0  0
  9  4  2  0  0  0  0
 10 12  2  0  0  0  0
 11 10  1  0  0  0  0
 11  6  2  0  0  0  0
 12  7  1  0  0  0  0
 13  2  2  0  0  0  0
 14 13  1  0  0  0  0
 15 14  2  0  0  0  0
 15 17  1  0  0  0  0
 16  3  2  0  0  0  0
 17 18  2  0  0  0  0
 18  2  1  0  0  0  0
 18  5  1  0  0  0  0
 19 31  1  0  0  0  0
 20 30  1  0  0  0  0
 21 23  1  0  0  0  0
 22 26  1  0  0  0  0
 22 21  1  0  0  0  0
 23 25  1  0  0  0  0
 24 22  2  0  0  0  0
 25 19  2  0  0  0  0
 27 21  1  0  0  0  0
 27 28  1  0  0  0  0
 28 20  2  0  0  0  0
 28 25  1  0  0  0  0
 29 27  2  0  0  0  0
 30  9  1  0  0  0  0
 30 31  2  0  0  0  0
 32 14  1  0  0  0  0
 33 32  1  0  0  0  0
 33 34  1  0  0  0  0
M  END
>  <MODEL>
5

>  <REMARK>
 VINA RESULT:      -8.3      1.943      2.317
  Name = 
  3 active torsions:
  status: ('A' for Active; 'I' for Inactive)
    1  A    between atoms: C_3  and  N_13
    2  A    between atoms: C_3  and  C_25
    3  A    between atoms: C_18  and  C_30
                            x       y       z     vdW  Elec       q    Type
                         _______ _______ _______ _____ _____    ______ ____

>  <TORSDO>
F 3

$$$$
=
 OpenBabel11052420303D

 34 39  0  0  0  0  0  0  0  0999 V2000
  190.5760  176.7120  143.2060 C   0  0  0  0  0  3  0  0  0  0  0  0
  194.2780  176.0320  143.4870 C   0  0  0  0  0  0  0  0  0  0  0  0
  194.2210  176.9380  145.7770 C   0  0  0  0  0  3  0  0  0  0  0  0
  189.2940  176.9430  145.2150 C   0  0  0  0  0  3  0  0  0  0  0  0
  191.7670  176.4950  143.9280 C   0  0  0  0  0  0  0  0  0  0  0  0
  190.4460  176.7540  145.9720 C   0  0  0  0  0  0  0  0  0  0  0  0
  191.4110  176.6380  148.1330 C   0  0  0  0  0  3  0  0  0  0  0  0
  190.3290  176.7300  147.3250 N   0  0  0  0  0  0  0  0  0  0  0  0
  189.3530  176.9700  143.8240 C   0  0  0  0  0  0  0  0  0  0  0  0
  192.8550  176.6160  146.1920 C   0  0  0  0  0  0  0  0  0  0  0  0
  191.7210  176.6120  145.3450 C   0  0  0  0  0  0  0  0  0  0  0  0
  192.6830  176.6120  147.5780 C   0  0  0  0  0  3  0  0  0  0  0  0
  195.2490  175.4940  142.6310 C   0  0  0  0  0  3  0  0  0  0  0  0
  194.8960  174.8250  141.4610 C   0  0  0  0  0  0  0  0  0  0  0  0
  193.5540  174.6790  141.1330 C   0  0  0  0  0  3  0  0  0  0  0  0
  194.7820  176.7020  144.6380 N   0  0  0  0  0  0  0  0  0  0  0  0
  192.5800  175.2260  141.9650 C   0  0  0  0  0  3  0  0  0  0  0  0
  192.9060  175.9230  143.1490 C   0  0  0  0  0  0  0  0  0  0  0  0
  187.0170  177.2640  140.8260 C   0  0  0  0  0  3  0  0  0  0  0  0
  186.9290  177.6040  143.6370 C   0  0  0  0  0  3  0  0  0  0  0  0
  183.6810  178.3190  142.0050 N   0  0  0  0  0  0  0  0  0  0  0  0
  182.3020  178.7070  141.9340 C   0  0  0  0  0  0  0  0  0  0  0  0
  184.5120  177.9590  140.8500 C   0  0  0  0  0  2  0  0  0  0  0  0
  181.6720  179.0120  142.9810 O   0  0  0  0  0  0  0  0  0  0  0  0
  185.8460  177.6580  141.4680 C   0  0  0  0  0  0  0  0  0  0  0  0
  181.5940  178.7540  140.6240 C   0  0  0  0  0  1  0  0  0  0  0  0
  184.4770  178.2290  143.1860 C   0  0  0  0  0  0  0  0  0  0  0  0
  185.8110  177.8210  142.8350 C   0  0  0  0  0  0  0  0  0  0  0  0
  184.0620  178.4710  144.3510 O   0  0  0  0  0  0  0  0  0  0  0  0
  188.1320  177.2030  143.0160 C   0  0  0  0  0  0  0  0  0  0  0  0
  188.1610  177.0380  141.6090 C   0  0  0  0  0  3  0  0  0  0  0  0
  195.9480  174.2350  140.5890 C   0  0  0  0  0  2  0  0  0  0  0  0
  196.5740  175.2810  139.7950 N   0  0  0  0  0  2  0  0  0  0  0  0
  196.1820  175.0450  138.4180 C   0  0  0  0  0  1  0  0  0  0  0  0
  1  9  2  0  0  0  0
  1  5  1  0  0  0  0
  2 16  1  0  0  0  0
  3 10  1  0  0  0  0
  4  6  2  0  0  0  0
  5 11  2  0  0  0  0
  6  8  1  0  0  0  0
  8  7  2  0  0  0  0
  9  4  1  0  0  0  0
 10 12  2  0  0  0  0
 11  6  1  0  0  0  0
 11 10  1  0  0  0  0
 12  7  1  0  0  0  0
 13  2  2  0  0  0  0
 14 13  1  0  0  0  0
 15 14  2  0  0  0  0
 15 17  1  0  0  0  0
 16  3  2  0  0  0  0
 17 18  2  0  0  0  0
 18  2  1  0  0  0  0
 18  5  1  0  0  0  0
 19 25  2  0  0  0  0
 19 31  1  0  0  0  0
 21 27  1  0  0  0  0
 22 21  1  0  0  0  0
 22 24  2  0  0  0  0
 23 25  1  0  0  0  0
 23 21  1  0  0  0  0
 25 28  1  0  0  0  0
 26 22  1  0  0  0  0
 27 29  2  0  0  0  0
 28 27  1  0  0  0  0
 28 20  2  0  0  0  0
 30 20  1  0  0  0  0
 30  9  1  0  0  0  0
 31 30  2  0  0  0  0
 32 14  1  0  0  0  0
 33 32  1  0  0  0  0
 34 33  1  0  0  0  0
M  END
>  <MODEL>
6

>  <REMARK>
 VINA RESULT:      -8.3      4.144      9.484
  Name = 
  3 active torsions:
  status: ('A' for Active; 'I' for Inactive)
    1  A    between atoms: C_3  and  N_13
    2  A    between atoms: C_3  and  C_25
    3  A    between atoms: C_18  and  C_30
                            x       y       z     vdW  Elec       q    Type
                         _______ _______ _______ _____ _____    ______ ____

>  <TORSDO>
F 3

$$$$
=
 OpenBabel11052420303D

 34 39  0  0  0  0  0  0  0  0999 V2000
  189.4210  176.5600  144.9910 C   0  0  0  0  0  3  0  0  0  0  0  0
  186.0810  177.3380  143.4140 C   0  0  0  0  0  0  0  0  0  0  0  0
  185.1560  177.6990  145.6690 C   0  0  0  0  0  3  0  0  0  0  0  0
  189.8570  177.3500  147.2090 C   0  0  0  0  0  3  0  0  0  0  0  0
  188.1300  177.1260  144.9870 C   0  0  0  0  0  0  0  0  0  0  0  0
  188.5820  177.9080  147.2610 C   0  0  0  0  0  0  0  0  0  0  0  0
  186.9840  179.1020  148.5370 C   0  0  0  0  0  3  0  0  0  0  0  0
  188.2310  178.6040  148.3730 N   0  0  0  0  0  0  0  0  0  0  0  0
  190.2740  176.6310  146.0920 C   0  0  0  0  0  0  0  0  0  0  0  0
  186.3320  178.1680  146.4020 C   0  0  0  0  0  0  0  0  0  0  0  0
  187.6610  177.7330  146.1840 C   0  0  0  0  0  0  0  0  0  0  0  0
  186.0150  178.8630  147.5710 C   0  0  0  0  0  3  0  0  0  0  0  0
  185.6010  177.3870  142.0980 C   0  0  0  0  0  3  0  0  0  0  0  0
  186.4660  177.3770  141.0070 C   0  0  0  0  0  0  0  0  0  0  0  0
  187.8370  177.3210  141.2210 C   0  0  0  0  0  3  0  0  0  0  0  0
  185.0840  177.3410  144.4300 N   0  0  0  0  0  0  0  0  0  0  0  0
  188.3280  177.2520  142.5220 C   0  0  0  0  0  3  0  0  0  0  0  0
  187.4750  177.2460  143.6490 C   0  0  0  0  0  0  0  0  0  0  0  0
  194.0470  176.1790  146.3870 C   0  0  0  0  0  3  0  0  0  0  0  0
  191.7760  174.6740  145.6130 C   0  0  0  0  0  3  0  0  0  0  0  0
  194.9310  172.7560  145.3220 N   0  0  0  0  0  0  0  0  0  0  0  0
  195.7590  171.6250  145.0180 C   0  0  0  0  0  0  0  0  0  0  0  0
  195.4220  174.0460  145.8200 C   0  0  0  0  0  2  0  0  0  0  0  0
  195.2480  170.5600  144.5820 O   0  0  0  0  0  0  0  0  0  0  0  0
  194.1690  174.8610  145.9540 C   0  0  0  0  0  0  0  0  0  0  0  0
  197.2350  171.6920  145.2130 C   0  0  0  0  0  1  0  0  0  0  0  0
  193.5130  172.8280  145.1870 C   0  0  0  0  0  0  0  0  0  0  0  0
  193.0600  174.1360  145.5790 C   0  0  0  0  0  0  0  0  0  0  0  0
  192.7810  171.8850  144.7840 O   0  0  0  0  0  0  0  0  0  0  0  0
  191.6190  176.0090  146.0480 C   0  0  0  0  0  0  0  0  0  0  0  0
  192.7650  176.7490  146.4320 C   0  0  0  0  0  3  0  0  0  0  0  0
  185.9270  177.4640  139.6230 C   0  0  0  0  0  2  0  0  0  0  0  0
  186.9700  177.1300  138.6660 N   0  0  0  0  0  2  0  0  0  0  0  0
  186.3790  176.2090  137.7130 C   0  0  0  0  0  1  0  0  0  0  0  0
  1  9  1  0  0  0  0
  2 18  1  0  0  0  0
  2 16  1  0  0  0  0
  3 10  1  0  0  0  0
  4  6  1  0  0  0  0
  5  1  2  0  0  0  0
  5 11  1  0  0  0  0
  6  8  1  0  0  0  0
  8  7  2  0  0  0  0
  9  4  2  0  0  0  0
 10 12  2  0  0  0  0
 11 10  1  0  0  0  0
 11  6  2  0  0  0  0
 12  7  1  0  0  0  0
 13  2  2  0  0  0  0
 14 15  2  0  0  0  0
 14 13  1  0  0  0  0
 15 17  1  0  0  0  0
 16  3  2  0  0  0  0
 17 18  2  0  0  0  0
 18  5  1  0  0  0  0
 19 31  1  0  0  0  0
 20 30  1  0  0  0  0
 21 23  1  0  0  0  0
 22 26  1  0  0  0  0
 22 21  1  0  0  0  0
 23 25  1  0  0  0  0
 24 22  2  0  0  0  0
 25 19  2  0  0  0  0
 27 21  1  0  0  0  0
 27 28  1  0  0  0  0
 28 20  2  0  0  0  0
 28 25  1  0  0  0  0
 29 27  2  0  0  0  0
 30  9  1  0  0  0  0
 30 31  2  0  0  0  0
 32 14  1  0  0  0  0
 33 32  1  0  0  0  0
 34 33  1  0  0  0  0
M  END
>  <MODEL>
7

>  <REMARK>
 VINA RESULT:      -8.3      1.879      2.445
  Name = 
  3 active torsions:
  status: ('A' for Active; 'I' for Inactive)
    1  A    between atoms: C_3  and  N_13
    2  A    between atoms: C_3  and  C_25
    3  A    between atoms: C_18  and  C_30
                            x       y       z     vdW  Elec       q    Type
                         _______ _______ _______ _____ _____    ______ ____

>  <TORSDO>
F 3

$$$$
=
 OpenBabel11052420303D

 34 39  0  0  0  0  0  0  0  0999 V2000
  188.6560  175.0690  142.9570 C   0  0  0  0  0  3  0  0  0  0  0  0
  186.0520  177.1590  144.7160 C   0  0  0  0  0  0  0  0  0  0  0  0
  187.3520  176.9380  146.7980 C   0  0  0  0  0  3  0  0  0  0  0  0
  190.8420  174.9040  143.9220 C   0  0  0  0  0  3  0  0  0  0  0  0
  188.2040  175.9070  143.9960 C   0  0  0  0  0  0  0  0  0  0  0  0
  190.4360  175.7120  144.9800 C   0  0  0  0  0  0  0  0  0  0  0  0
  191.0190  176.7530  147.0270 C   0  0  0  0  0  3  0  0  0  0  0  0
  191.3550  176.0450  145.9230 N   0  0  0  0  0  0  0  0  0  0  0  0
  189.9450  174.5370  142.9220 C   0  0  0  0  0  0  0  0  0  0  0  0
  188.7160  176.8120  146.2850 C   0  0  0  0  0  0  0  0  0  0  0  0
  189.0840  176.1590  145.0850 C   0  0  0  0  0  0  0  0  0  0  0  0
  189.6950  177.1150  147.2350 C   0  0  0  0  0  3  0  0  0  0  0  0
  184.8580  177.7800  144.3240 C   0  0  0  0  0  3  0  0  0  0  0  0
  184.5230  177.9300  142.9810 C   0  0  0  0  0  0  0  0  0  0  0  0
  185.3900  177.4610  142.0020 C   0  0  0  0  0  3  0  0  0  0  0  0
  186.2580  177.0610  146.1210 N   0  0  0  0  0  0  0  0  0  0  0  0
  186.5710  176.8230  142.3770 C   0  0  0  0  0  3  0  0  0  0  0  0
  186.9310  176.6430  143.7320 C   0  0  0  0  0  0  0  0  0  0  0  0
  191.9390  171.9960  140.8970 C   0  0  0  0  0  3  0  0  0  0  0  0
  189.6330  173.6160  140.6050 C   0  0  0  0  0  3  0  0  0  0  0  0
  190.3480  171.5850  137.5910 N   0  0  0  0  0  0  0  0  0  0  0  0
  190.1510  171.0970  136.2570 C   0  0  0  0  0  0  0  0  0  0  0  0
  191.4460  171.1810  138.4780 C   0  0  0  0  0  2  0  0  0  0  0  0
  189.1850  171.5120  135.5630 O   0  0  0  0  0  0  0  0  0  0  0  0
  191.1940  171.9850  139.7210 C   0  0  0  0  0  0  0  0  0  0  0  0
  191.0830  170.0940  135.6710 C   0  0  0  0  0  1  0  0  0  0  0  0
  189.5360  172.5390  138.2740 C   0  0  0  0  0  0  0  0  0  0  0  0
  190.0740  172.7750  139.5870 C   0  0  0  0  0  0  0  0  0  0  0  0
  188.5080  173.0830  137.7900 O   0  0  0  0  0  0  0  0  0  0  0  0
  190.3670  173.6510  141.8110 C   0  0  0  0  0  0  0  0  0  0  0  0
  191.5190  172.8350  141.9420 C   0  0  0  0  0  3  0  0  0  0  0  0
  183.2650  178.6240  142.5950 C   0  0  0  0  0  2  0  0  0  0  0  0
  182.8790  178.2330  141.2490 N   0  0  0  0  0  2  0  0  0  0  0  0
  181.4290  178.2840  141.2030 C   0  0  0  0  0  1  0  0  0  0  0  0
  1  5  1  0  0  0  0
  2 16  1  0  0  0  0
  4  6  2  0  0  0  0
  5 11  2  0  0  0  0
  6 11  1  0  0  0  0
  6  8  1  0  0  0  0
  7 12  1  0  0  0  0
  8  7  2  0  0  0  0
  9  1  2  0  0  0  0
  9  4  1  0  0  0  0
 10  3  1  0  0  0  0
 10 12  2  0  0  0  0
 11 10  1  0  0  0  0
 13  2  1  0  0  0  0
 14 13  2  0  0  0  0
 15 17  2  0  0  0  0
 15 14  1  0  0  0  0
 16  3  2  0  0  0  0
 17 18  1  0  0  0  0
 18  5  1  0  0  0  0
 18  2  2  0  0  0  0
 19 31  1  0  0  0  0
 20 30  1  0  0  0  0
 21 27  1  0  0  0  0
 21 23  1  0  0  0  0
 22 21  1  0  0  0  0
 23 25  1  0  0  0  0
 24 22  2  0  0  0  0
 25 19  2  0  0  0  0
 26 22  1  0  0  0  0
 27 28  1  0  0  0  0
 28 25  1  0  0  0  0
 28 20  2  0  0  0  0
 29 27  2  0  0  0  0
 30 31  2  0  0  0  0
 30  9  1  0  0  0  0
 32 14  1  0  0  0  0
 33 32  1  0  0  0  0
 34 33  1  0  0  0  0
M  END
>  <MODEL>
8

>  <REMARK>
 VINA RESULT:      -8.2      4.640      5.538
  Name = 
  3 active torsions:
  status: ('A' for Active; 'I' for Inactive)
    1  A    between atoms: C_3  and  N_13
    2  A    between atoms: C_3  and  C_25
    3  A    between atoms: C_18  and  C_30
                            x       y       z     vdW  Elec       q    Type
                         _______ _______ _______ _____ _____    ______ ____

>  <TORSDO>
F 3

$$$$
=
 OpenBabel11052420303D

 34 39  0  0  0  0  0  0  0  0999 V2000
  190.6020  176.2260  143.1660 C   0  0  0  0  0  3  0  0  0  0  0  0
  193.7670  174.8210  141.6640 C   0  0  0  0  0  0  0  0  0  0  0  0
  195.0550  175.9890  143.4090 C   0  0  0  0  0  3  0  0  0  0  0  0
  190.6380  176.9620  145.4440 C   0  0  0  0  0  3  0  0  0  0  0  0
  191.9600  175.8510  143.2100 C   0  0  0  0  0  0  0  0  0  0  0  0
  191.9870  176.6280  145.5300 C   0  0  0  0  0  0  0  0  0  0  0  0
  193.9420  176.5730  146.8660 C   0  0  0  0  0  3  0  0  0  0  0  0
  192.6150  176.7930  146.7230 N   0  0  0  0  0  0  0  0  0  0  0  0
  189.9420  176.8070  144.2480 C   0  0  0  0  0  0  0  0  0  0  0  0
  194.1010  176.0130  144.5180 C   0  0  0  0  0  0  0  0  0  0  0  0
  192.6980  176.1460  144.3890 C   0  0  0  0  0  0  0  0  0  0  0  0
  194.7030  176.2140  145.7620 C   0  0  0  0  0  3  0  0  0  0  0  0
  194.0550  173.9920  140.5710 C   0  0  0  0  0  3  0  0  0  0  0  0
  193.0550  173.2750  139.9180 C   0  0  0  0  0  0  0  0  0  0  0  0
  191.7410  173.3760  140.3580 C   0  0  0  0  0  3  0  0  0  0  0  0
  194.8830  175.5050  142.2240 N   0  0  0  0  0  0  0  0  0  0  0  0
  191.4370  174.2120  141.4300 C   0  0  0  0  0  3  0  0  0  0  0  0
  192.4270  174.9630  142.1030 C   0  0  0  0  0  0  0  0  0  0  0  0
  186.4220  177.8900  145.2300 C   0  0  0  0  0  3  0  0  0  0  0  0
  187.8690  177.2190  142.8890 C   0  0  0  0  0  3  0  0  0  0  0  0
  184.3370  178.0880  142.1890 N   0  0  0  0  0  0  0  0  0  0  0  0
  183.1680  178.2940  141.3840 C   0  0  0  0  0  0  0  0  0  0  0  0
  184.3910  178.2500  143.6470 C   0  0  0  0  0  2  0  0  0  0  0  0
  183.2140  178.1180  140.1380 O   0  0  0  0  0  0  0  0  0  0  0  0
  185.8140  177.9060  143.9770 C   0  0  0  0  0  0  0  0  0  0  0  0
  181.8830  178.7170  142.0080 C   0  0  0  0  0  1  0  0  0  0  0  0
  185.6260  177.6880  141.7260 C   0  0  0  0  0  0  0  0  0  0  0  0
  186.5250  177.5780  142.8440 C   0  0  0  0  0  0  0  0  0  0  0  0
  185.9190  177.4680  140.5200 O   0  0  0  0  0  0  0  0  0  0  0  0
  188.5150  177.1930  144.1450 C   0  0  0  0  0  0  0  0  0  0  0  0
  187.7770  177.5310  145.3070 C   0  0  0  0  0  3  0  0  0  0  0  0
  193.3970  172.3770  138.7820 C   0  0  0  0  0  2  0  0  0  0  0  0
  192.5570  172.6890  137.6370 N   0  0  0  0  0  2  0  0  0  0  0  0
  193.2840  173.6610  136.8420 C   0  0  0  0  0  1  0  0  0  0  0  0
  1  5  2  0  0  0  0
  1  9  1  0  0  0  0
  2 18  1  0  0  0  0
  2 16  1  0  0  0  0
  3 10  1  0  0  0  0
  4  6  1  0  0  0  0
  5 11  1  0  0  0  0
  6  8  1  0  0  0  0
  8  7  2  0  0  0  0
  9  4  2  0  0  0  0
 10 12  2  0  0  0  0
 11 10  1  0  0  0  0
 11  6  2  0  0  0  0
 12  7  1  0  0  0  0
 13  2  2  0  0  0  0
 14 15  2  0  0  0  0
 14 13  1  0  0  0  0
 15 17  1  0  0  0  0
 16  3  2  0  0  0  0
 17 18  2  0  0  0  0
 18  5  1  0  0  0  0
 19 31  1  0  0  0  0
 20 30  1  0  0  0  0
 21 23  1  0  0  0  0
 22 26  1  0  0  0  0
 22 21  1  0  0  0  0
 23 25  1  0  0  0  0
 24 22  2  0  0  0  0
 25 19  2  0  0  0  0
 27 21  1  0  0  0  0
 27 28  1  0  0  0  0
 28 20  2  0  0  0  0
 28 25  1  0  0  0  0
 29 27  2  0  0  0  0
 30  9  1  0  0  0  0
 30 31  2  0  0  0  0
 32 14  1  0  0  0  0
 33 32  1  0  0  0  0
 34 33  1  0  0  0  0
M  END
>  <MODEL>
9

>  <REMARK>
 VINA RESULT:      -8.2      4.322      9.217
  Name = 
  3 active torsions:
  status: ('A' for Active; 'I' for Inactive)
    1  A    between atoms: C_3  and  N_13
    2  A    between atoms: C_3  and  C_25
    3  A    between atoms: C_18  and  C_30
                            x       y       z     vdW  Elec       q    Type
                         _______ _______ _______ _____ _____    ______ ____

>  <TORSDO>
F 3

$$$$
