=
 OpenBabel11052420193D

 34 39  0  0  1  0  0  0  0  0999 V2000
  189.4260  174.9800  145.2230 C   0  0  2  0  0  3  0  0  0  0  0  0
  188.2510  177.9950  143.5650 C   0  0  0  0  0  3  0  0  0  0  0  0
  190.5270  177.5740  144.4730 C   0  0  0  0  0  2  0  0  0  0  0  0
  191.0400  173.9070  143.6180 C   0  0  0  0  0  3  0  0  0  0  0  0
  192.5610  175.2390  142.2840 C   0  0  0  0  0  3  0  0  0  0  0  0
  192.0560  173.9910  142.6610 C   0  0  0  0  0  3  0  0  0  0  0  0
  191.0270  176.3270  143.8100 C   0  0  0  0  0  0  0  0  0  0  0  0
  190.5250  175.0710  144.1960 C   0  0  0  0  0  0  0  0  0  0  0  0
  192.0510  176.4050  142.8620 C   0  0  0  0  0  3  0  0  0  0  0  0
  186.9470  178.2600  143.6150 C   0  0  0  0  0  3  0  0  0  0  0  0
  186.0810  178.0740  144.8000 C   0  0  0  0  0  0  0  0  0  0  0  0
  186.2260  177.0750  145.6900 C   0  0  0  0  0  3  0  0  0  0  0  0
  189.0200  177.5340  144.7580 C   0  0  2  0  0  3  0  0  0  0  0  0
  187.2800  176.0410  145.7020 C   0  0  0  0  0  3  0  0  0  0  0  0
  188.5250  176.1910  145.2440 C   0  0  0  0  0  0  0  0  0  0  0  0
  184.9010  178.9910  144.9110 C   0  0  1  0  0  3  0  0  0  0  0  0
  184.0770  178.9280  143.7160 N   0  0  0  0  0  1  0  0  0  0  0  0
  184.0670  178.6650  146.1370 C   0  0  0  0  0  1  0  0  0  0  0  0
  189.8560  174.5620  146.5050 O   0  0  0  0  0  0  0  0  0  0  0  0
  190.1810  175.6910  147.2790 C   0  0  0  0  0  2  0  0  0  0  0  0
  191.5040  175.4760  147.9950 C   0  0  0  0  0  2  0  0  0  0  0  0
  194.3210  176.8640  145.8730 C   0  0  0  0  0  3  0  0  0  0  0  0
  193.1470  174.3840  146.4570 C   0  0  0  0  0  3  0  0  0  0  0  0
  196.4360  174.5940  143.8480 C   0  0  0  0  0  0  0  0  0  0  0  0
  195.9230  175.7640  144.4280 C   0  0  0  0  0  3  0  0  0  0  0  0
  194.8270  175.7000  145.2900 C   0  0  0  0  0  0  0  0  0  0  0  0
  194.7590  173.2830  145.0220 C   0  0  0  0  0  3  0  0  0  0  0  0
  194.2370  174.4500  145.5860 C   0  0  0  0  0  0  0  0  0  0  0  0
  195.8590  173.3550  144.1620 C   0  0  0  0  0  3  0  0  0  0  0  0
  192.6420  175.5550  147.0340 C   0  0  0  0  0  0  0  0  0  0  0  0
  193.2310  176.7910  146.7460 C   0  0  0  0  0  3  0  0  0  0  0  0
  197.6500  174.6590  142.9710 C   0  0  0  0  0  3  0  0  0  0  0  0
  197.2420  174.7870  141.5110 C   0  0  0  0  0  2  0  0  0  0  0  0
  197.7260  176.0030  142.2650 C   0  0  0  0  0  2  0  0  0  0  0  0
  1 15  1  0  0  0  0
  1 19  1  1  0  0  0
  2 10  2  0  0  0  0
  3 13  1  0  0  0  0
  4  8  1  0  0  0  0
  5  6  1  0  0  0  0
  5  9  2  0  0  0  0
  6  4  2  0  0  0  0
  7  8  2  0  0  0  0
  7  3  1  0  0  0  0
  8  1  1  0  0  0  0
  9  7  1  0  0  0  0
 10 11  1  0  0  0  0
 11 16  1  0  0  0  0
 11 12  2  0  0  0  0
 12 14  1  0  0  0  0
 13  2  1  6  0  0  0
 13 15  1  0  0  0  0
 15 14  2  0  0  0  0
 16 18  1  1  0  0  0
 17 16  1  0  0  0  0
 19 20  1  0  0  0  0
 20 21  1  0  0  0  0
 22 31  1  0  0  0  0
 23 30  1  0  0  0  0
 24 29  1  0  0  0  0
 24 25  2  0  0  0  0
 25 26  1  0  0  0  0
 26 28  1  0  0  0  0
 26 22  2  0  0  0  0
 27 28  1  0  0  0  0
 28 23  2  0  0  0  0
 29 27  2  0  0  0  0
 30 21  1  0  0  0  0
 31 30  2  0  0  0  0
 32 24  1  0  0  0  0
 33 34  1  0  0  0  0
 33 32  1  0  0  0  0
 34 32  1  0  0  0  0
M  END
>  <MODEL>
1

>  <REMARK>
 VINA RESULT:      -8.1      0.000      0.000
  Name = 
  6 active torsions:
  status: ('A' for Active; 'I' for Inactive)
    1  A    between atoms: C_1  and  O_9
    2  A    between atoms: C_3  and  C_25
    3  A    between atoms: C_7  and  C_11
    4  A    between atoms: C_8  and  O_9
    5  A    between atoms: C_8  and  C_18
    6  A    between atoms: C_18  and  C_30
                            x       y       z     vdW  Elec       q    Type
                         _______ _______ _______ _____ _____    ______ ____

>  <TORSDO>
F 6

$$$$
=
 OpenBabel11052420193D

 34 39  0  0  1  0  0  0  0  0999 V2000
  190.2150  177.0270  143.8650 C   0  0  2  0  0  3  0  0  0  0  0  0
  188.1250  176.6470  146.8150 C   0  0  0  0  0  3  0  0  0  0  0  0
  189.6450  174.9470  145.8270 C   0  0  0  0  0  2  0  0  0  0  0  0
  192.5840  177.0840  144.7130 C   0  0  0  0  0  3  0  0  0  0  0  0
  193.3000  175.6680  146.5430 C   0  0  0  0  0  3  0  0  0  0  0  0
  193.5850  176.6450  145.5850 C   0  0  0  0  0  3  0  0  0  0  0  0
  191.0060  175.5730  145.7710 C   0  0  0  0  0  0  0  0  0  0  0  0
  191.2950  176.5500  144.8010 C   0  0  0  0  0  0  0  0  0  0  0  0
  192.0130  175.1280  146.6320 C   0  0  0  0  0  3  0  0  0  0  0  0
  187.0340  177.4060  146.9020 C   0  0  0  0  0  3  0  0  0  0  0  0
  186.1180  177.7170  145.7830 C   0  0  0  0  0  0  0  0  0  0  0  0
  186.5170  177.8970  144.5100 C   0  0  0  0  0  3  0  0  0  0  0  0
  188.5170  175.9500  145.5560 C   0  0  2  0  0  3  0  0  0  0  0  0
  187.8890  177.7590  143.9800 C   0  0  0  0  0  3  0  0  0  0  0  0
  188.8290  176.9390  144.4560 C   0  0  0  0  0  0  0  0  0  0  0  0
  184.6870  177.9730  146.1460 C   0  0  1  0  0  3  0  0  0  0  0  0
  184.5760  178.4840  147.5020 N   0  0  0  0  0  1  0  0  0  0  0  0
  184.0370  178.9380  145.1700 C   0  0  0  0  0  1  0  0  0  0  0  0
  190.3120  176.5160  142.5490 O   0  0  0  0  0  0  0  0  0  0  0  0
  189.5890  175.3120  142.4630 C   0  0  0  0  0  2  0  0  0  0  0  0
  190.4160  174.2490  141.7580 C   0  0  0  0  0  2  0  0  0  0  0  0
  192.0440  172.0910  144.4150 C   0  0  0  0  0  3  0  0  0  0  0  0
  192.7570  174.1350  142.6300 C   0  0  0  0  0  3  0  0  0  0  0  0
  195.6590  172.4310  145.1510 C   0  0  0  0  0  0  0  0  0  0  0  0
  194.3320  171.9790  145.2010 C   0  0  0  0  0  3  0  0  0  0  0  0
  193.3640  172.5460  144.3700 C   0  0  0  0  0  0  0  0  0  0  0  0
  195.0490  174.0120  143.4070 C   0  0  0  0  0  3  0  0  0  0  0  0
  193.7240  173.5750  143.4700 C   0  0  0  0  0  0  0  0  0  0  0  0
  196.0140  173.4380  144.2400 C   0  0  0  0  0  3  0  0  0  0  0  0
  191.4360  173.6770  142.6830 C   0  0  0  0  0  0  0  0  0  0  0  0
  191.0820  172.6550  143.5710 C   0  0  0  0  0  3  0  0  0  0  0  0
  196.7080  171.7800  146.0000 C   0  0  0  0  0  3  0  0  0  0  0  0
  196.5590  170.2670  145.9580 C   0  0  0  0  0  2  0  0  0  0  0  0
  197.6390  170.9380  145.1430 C   0  0  0  0  0  2  0  0  0  0  0  0
  1 19  1  6  0  0  0
  1 15  1  0  0  0  0
  1  8  1  0  0  0  0
  2 10  2  0  0  0  0
  4  8  2  0  0  0  0
  4  6  1  0  0  0  0
  5  9  1  0  0  0  0
  6  5  2  0  0  0  0
  7  3  1  0  0  0  0
  7  9  2  0  0  0  0
  8  7  1  0  0  0  0
 11 16  1  0  0  0  0
 11 10  1  0  0  0  0
 12 11  2  0  0  0  0
 13  3  1  1  0  0  0
 13  2  1  0  0  0  0
 14 15  2  0  0  0  0
 14 12  1  0  0  0  0
 15 13  1  0  0  0  0
 16 18  1  6  0  0  0
 16 17  1  0  0  0  0
 20 19  1  0  0  0  0
 21 20  1  0  0  0  0
 21 30  1  0  0  0  0
 23 30  2  0  0  0  0
 23 28  1  0  0  0  0
 24 25  1  0  0  0  0
 24 32  1  0  0  0  0
 26 22  1  0  0  0  0
 26 25  2  0  0  0  0
 27 28  2  0  0  0  0
 27 29  1  0  0  0  0
 28 26  1  0  0  0  0
 29 24  2  0  0  0  0
 30 31  1  0  0  0  0
 31 22  2  0  0  0  0
 33 32  1  0  0  0  0
 34 33  1  0  0  0  0
 34 32  1  0  0  0  0
M  END
>  <MODEL>
2

>  <REMARK>
 VINA RESULT:      -8.1      1.799      3.723
  Name = 
  6 active torsions:
  status: ('A' for Active; 'I' for Inactive)
    1  A    between atoms: C_1  and  O_9
    2  A    between atoms: C_3  and  C_25
    3  A    between atoms: C_7  and  C_11
    4  A    between atoms: C_8  and  O_9
    5  A    between atoms: C_8  and  C_18
    6  A    between atoms: C_18  and  C_30
                            x       y       z     vdW  Elec       q    Type
                         _______ _______ _______ _____ _____    ______ ____

>  <TORSDO>
F 6

$$$$
=
 OpenBabel11052420193D

 34 39  0  0  1  0  0  0  0  0999 V2000
  190.1650  177.0510  143.8640 C   0  0  2  0  0  3  0  0  0  0  0  0
  188.1260  176.6300  146.8440 C   0  0  0  0  0  3  0  0  0  0  0  0
  189.6490  174.9530  145.8220 C   0  0  0  0  0  2  0  0  0  0  0  0
  192.5460  177.1290  144.6760 C   0  0  0  0  0  3  0  0  0  0  0  0
  193.3060  175.7090  146.4850 C   0  0  0  0  0  3  0  0  0  0  0  0
  193.5650  176.6960  145.5290 C   0  0  0  0  0  3  0  0  0  0  0  0
  191.0020  175.5940  145.7480 C   0  0  0  0  0  0  0  0  0  0  0  0
  191.2650  176.5800  144.7810 C   0  0  0  0  0  0  0  0  0  0  0  0
  192.0270  175.1550  146.5910 C   0  0  0  0  0  3  0  0  0  0  0  0
  187.0270  177.3770  146.9520 C   0  0  0  0  0  3  0  0  0  0  0  0
  186.0910  177.6840  145.8490 C   0  0  0  0  0  0  0  0  0  0  0  0
  186.4690  177.8760  144.5710 C   0  0  0  0  0  3  0  0  0  0  0  0
  188.5050  175.9450  145.5740 C   0  0  2  0  0  3  0  0  0  0  0  0
  187.8330  177.7560  144.0200 C   0  0  0  0  0  3  0  0  0  0  0  0
  188.7890  176.9440  144.4760 C   0  0  0  0  0  0  0  0  0  0  0  0
  184.6630  177.9220  146.2350 C   0  0  1  0  0  3  0  0  0  0  0  0
  184.5690  178.4380  147.5910 N   0  0  0  0  0  1  0  0  0  0  0  0
  183.9840  178.8740  145.2670 C   0  0  0  0  0  1  0  0  0  0  0  0
  190.2480  176.5480  142.5430 O   0  0  0  0  0  0  0  0  0  0  0  0
  189.4480  175.3960  142.4330 C   0  0  0  0  0  2  0  0  0  0  0  0
  190.1800  174.3200  141.6490 C   0  0  0  0  0  2  0  0  0  0  0  0
  193.9070  174.5800  142.2900 C   0  0  0  0  0  3  0  0  0  0  0  0
  191.6880  173.1850  143.2910 C   0  0  0  0  0  3  0  0  0  0  0  0
  195.4860  172.6030  144.9950 C   0  0  0  0  0  0  0  0  0  0  0  0
  195.3260  173.4950  143.9250 C   0  0  0  0  0  3  0  0  0  0  0  0
  194.0680  173.6870  143.3520 C   0  0  0  0  0  0  0  0  0  0  0  0
  193.1060  172.1110  144.9350 C   0  0  0  0  0  3  0  0  0  0  0  0
  192.9490  172.9850  143.8570 C   0  0  0  0  0  0  0  0  0  0  0  0
  194.3690  171.9260  145.5060 C   0  0  0  0  0  3  0  0  0  0  0  0
  191.5340  174.0790  142.2250 C   0  0  0  0  0  0  0  0  0  0  0  0
  192.6410  174.7770  141.7290 C   0  0  0  0  0  3  0  0  0  0  0  0
  196.8260  172.4450  145.6480 C   0  0  0  0  0  3  0  0  0  0  0  0
  197.5480  171.2290  145.0880 C   0  0  0  0  0  2  0  0  0  0  0  0
  197.9390  172.6130  144.6270 C   0  0  0  0  0  2  0  0  0  0  0  0
  1 19  1  6  0  0  0
  1 15  1  0  0  0  0
  1  8  1  0  0  0  0
  2 10  2  0  0  0  0
  4  8  2  0  0  0  0
  4  6  1  0  0  0  0
  5  9  1  0  0  0  0
  6  5  2  0  0  0  0
  7  3  1  0  0  0  0
  7  9  2  0  0  0  0
  8  7  1  0  0  0  0
 11 16  1  0  0  0  0
 11 10  1  0  0  0  0
 12 11  2  0  0  0  0
 13  3  1  1  0  0  0
 13  2  1  0  0  0  0
 14 15  2  0  0  0  0
 14 12  1  0  0  0  0
 15 13  1  0  0  0  0
 16 18  1  6  0  0  0
 16 17  1  0  0  0  0
 20 19  1  0  0  0  0
 21 30  1  0  0  0  0
 21 20  1  0  0  0  0
 22 26  1  0  0  0  0
 23 28  1  0  0  0  0
 24 29  1  0  0  0  0
 24 32  1  0  0  0  0
 25 24  2  0  0  0  0
 26 28  2  0  0  0  0
 26 25  1  0  0  0  0
 27 29  2  0  0  0  0
 28 27  1  0  0  0  0
 30 23  2  0  0  0  0
 31 30  1  0  0  0  0
 31 22  2  0  0  0  0
 33 32  1  0  0  0  0
 34 33  1  0  0  0  0
 34 32  1  0  0  0  0
M  END
>  <MODEL>
3

>  <REMARK>
 VINA RESULT:      -8.1      1.807      3.493
  Name = 
  6 active torsions:
  status: ('A' for Active; 'I' for Inactive)
    1  A    between atoms: C_1  and  O_9
    2  A    between atoms: C_3  and  C_25
    3  A    between atoms: C_7  and  C_11
    4  A    between atoms: C_8  and  O_9
    5  A    between atoms: C_8  and  C_18
    6  A    between atoms: C_18  and  C_30
                            x       y       z     vdW  Elec       q    Type
                         _______ _______ _______ _____ _____    ______ ____

>  <TORSDO>
F 6

$$$$
=
 OpenBabel11052420193D

 34 39  0  0  1  0  0  0  0  0999 V2000
  195.5080  173.9020  144.2960 C   0  0  2  0  0  3  0  0  0  0  0  0
  193.8340  170.7220  144.8450 C   0  0  0  0  0  3  0  0  0  0  0  0
  192.8670  172.9940  145.1330 C   0  0  0  0  0  2  0  0  0  0  0  0
  194.4430  174.8830  142.2370 C   0  0  0  0  0  3  0  0  0  0  0  0
  192.0660  174.6670  141.8250 C   0  0  0  0  0  3  0  0  0  0  0  0
  193.3260  175.1290  141.4330 C   0  0  0  0  0  3  0  0  0  0  0  0
  193.0360  173.6990  143.8220 C   0  0  0  0  0  0  0  0  0  0  0  0
  194.3020  174.1710  143.4320 C   0  0  0  0  0  0  0  0  0  0  0  0
  191.9210  173.9580  143.0210 C   0  0  0  0  0  3  0  0  0  0  0  0
  194.5910  169.6690  145.1510 C   0  0  0  0  0  3  0  0  0  0  0  0
  195.7530  169.6890  146.0660 C   0  0  0  0  0  0  0  0  0  0  0  0
  196.6060  170.7240  146.1780 C   0  0  0  0  0  3  0  0  0  0  0  0
  194.0400  172.0630  145.4650 C   0  0  2  0  0  3  0  0  0  0  0  0
  196.5190  172.0260  145.4870 C   0  0  0  0  0  3  0  0  0  0  0  0
  195.3930  172.6310  145.1030 C   0  0  0  0  0  0  0  0  0  0  0  0
  196.0460  168.4140  146.7970 C   0  0  1  0  0  3  0  0  0  0  0  0
  197.3910  168.4270  147.3490 N   0  0  0  0  0  1  0  0  0  0  0  0
  195.0320  168.1670  147.8990 C   0  0  0  0  0  1  0  0  0  0  0  0
  195.9560  175.0180  145.0400 O   0  0  0  0  0  0  0  0  0  0  0  0
  195.1200  175.1990  146.1580 C   0  0  0  0  0  2  0  0  0  0  0  0
  194.6120  176.6290  146.2100 C   0  0  0  0  0  2  0  0  0  0  0  0
  190.8480  176.3120  146.5320 C   0  0  0  0  0  3  0  0  0  0  0  0
  192.7350  177.2290  144.6690 C   0  0  0  0  0  3  0  0  0  0  0  0
  188.6280  177.4970  143.8140 C   0  0  0  0  0  0  0  0  0  0  0  0
  189.0580  176.9490  145.0310 C   0  0  0  0  0  3  0  0  0  0  0  0
  190.4210  176.8520  145.3170 C   0  0  0  0  0  0  0  0  0  0  0  0
  190.9420  177.8790  143.1750 C   0  0  0  0  0  3  0  0  0  0  0  0
  191.3710  177.3160  144.3790 C   0  0  0  0  0  0  0  0  0  0  0  0
  189.5760  177.9750  142.8960 C   0  0  0  0  0  3  0  0  0  0  0  0
  193.1570  176.6830  145.8870 C   0  0  0  0  0  0  0  0  0  0  0  0
  192.2150  176.2300  146.8170 C   0  0  0  0  0  3  0  0  0  0  0  0
  187.1640  177.6550  143.5350 C   0  0  0  0  0  3  0  0  0  0  0  0
  186.5620  176.3300  143.0950 C   0  0  0  0  0  2  0  0  0  0  0  0
  186.3440  176.8220  144.5060 C   0  0  0  0  0  2  0  0  0  0  0  0
  1 19  1  1  0  0  0
  1 15  1  0  0  0  0
  2 10  2  0  0  0  0
  3 13  1  0  0  0  0
  4  8  1  0  0  0  0
  5  9  2  0  0  0  0
  6  5  1  0  0  0  0
  6  4  2  0  0  0  0
  7  3  1  0  0  0  0
  8  7  2  0  0  0  0
  8  1  1  0  0  0  0
  9  7  1  0  0  0  0
 10 11  1  0  0  0  0
 11 12  2  0  0  0  0
 11 16  1  0  0  0  0
 13  2  1  6  0  0  0
 14 12  1  0  0  0  0
 15 13  1  0  0  0  0
 15 14  2  0  0  0  0
 16 17  1  0  0  0  0
 16 18  1  1  0  0  0
 19 20  1  0  0  0  0
 20 21  1  0  0  0  0
 22 31  1  0  0  0  0
 23 30  1  0  0  0  0
 24 25  2  0  0  0  0
 25 26  1  0  0  0  0
 26 22  2  0  0  0  0
 27 28  1  0  0  0  0
 28 23  2  0  0  0  0
 28 26  1  0  0  0  0
 29 27  2  0  0  0  0
 29 24  1  0  0  0  0
 30 21  1  0  0  0  0
 30 31  2  0  0  0  0
 32 24  1  0  0  0  0
 32 34  1  0  0  0  0
 33 32  1  0  0  0  0
 33 34  1  0  0  0  0
M  END
>  <MODEL>
4

>  <REMARK>
 VINA RESULT:      -7.7      3.814      8.372
  Name = 
  6 active torsions:
  status: ('A' for Active; 'I' for Inactive)
    1  A    between atoms: C_1  and  O_9
    2  A    between atoms: C_3  and  C_25
    3  A    between atoms: C_7  and  C_11
    4  A    between atoms: C_8  and  O_9
    5  A    between atoms: C_8  and  C_18
    6  A    between atoms: C_18  and  C_30
                            x       y       z     vdW  Elec       q    Type
                         _______ _______ _______ _____ _____    ______ ____

>  <TORSDO>
F 6

$$$$
=
 OpenBabel11052420193D

 34 39  0  0  1  0  0  0  0  0999 V2000
  193.0850  174.1750  145.4450 C   0  0  2  0  0  3  0  0  0  0  0  0
  192.1260  174.7560  141.9870 C   0  0  0  0  0  3  0  0  0  0  0  0
  193.3590  176.3120  143.4820 C   0  0  0  0  0  2  0  0  0  0  0  0
  195.5890  173.9240  145.4230 C   0  0  0  0  0  3  0  0  0  0  0  0
  196.9780  175.2900  143.9840 C   0  0  0  0  0  3  0  0  0  0  0  0
  196.8530  174.2830  144.9460 C   0  0  0  0  0  3  0  0  0  0  0  0
  194.5720  175.5730  143.9600 C   0  0  0  0  0  0  0  0  0  0  0  0
  194.4470  174.5670  144.9350 C   0  0  0  0  0  0  0  0  0  0  0  0
  195.8390  175.9380  143.4960 C   0  0  0  0  0  3  0  0  0  0  0  0
  191.0690  174.0930  141.5180 C   0  0  0  0  0  3  0  0  0  0  0  0
  189.8140  173.8510  142.2610 C   0  0  0  0  0  0  0  0  0  0  0  0
  189.7530  173.6270  143.5880 C   0  0  0  0  0  3  0  0  0  0  0  0
  192.1310  175.4060  143.3300 C   0  0  2  0  0  3  0  0  0  0  0  0
  190.8790  173.6440  144.5440 C   0  0  0  0  0  3  0  0  0  0  0  0
  191.9840  174.3850  144.4340 C   0  0  0  0  0  0  0  0  0  0  0  0
  188.5680  173.7210  141.4390 C   0  0  1  0  0  3  0  0  0  0  0  0
  187.3980  173.5630  142.2860 N   0  0  0  0  0  1  0  0  0  0  0  0
  188.3890  174.9160  140.5200 C   0  0  0  0  0  1  0  0  0  0  0  0
  192.7800  174.6650  146.7370 O   0  0  0  0  0  0  0  0  0  0  0  0
  192.8980  176.0670  146.7440 C   0  0  0  0  0  2  0  0  0  0  0  0
  191.7290  176.6910  147.4870 C   0  0  0  0  0  2  0  0  0  0  0  0
  188.1920  175.8560  146.4080 C   0  0  0  0  0  3  0  0  0  0  0  0
  190.4110  177.2770  145.4440 C   0  0  0  0  0  3  0  0  0  0  0  0
  186.8540  177.1530  143.2060 C   0  0  0  0  0  0  0  0  0  0  0  0
  186.9340  176.4840  144.4360 C   0  0  0  0  0  3  0  0  0  0  0  0
  188.1150  176.5170  145.1790 C   0  0  0  0  0  0  0  0  0  0  0  0
  189.1460  177.9160  143.4780 C   0  0  0  0  0  3  0  0  0  0  0  0
  189.2320  177.2340  144.6950 C   0  0  0  0  0  0  0  0  0  0  0  0
  187.9600  177.8810  142.7400 C   0  0  0  0  0  3  0  0  0  0  0  0
  190.4830  176.6100  146.6710 C   0  0  0  0  0  0  0  0  0  0  0  0
  189.3740  175.9050  147.1530 C   0  0  0  0  0  3  0  0  0  0  0  0
  185.5660  177.1660  142.4390 C   0  0  0  0  0  3  0  0  0  0  0  0
  184.8050  178.4550  142.7040 C   0  0  0  0  0  2  0  0  0  0  0  0
  185.5700  178.2860  141.4120 C   0  0  0  0  0  2  0  0  0  0  0  0
  1 19  1  1  0  0  0
  3  7  1  0  0  0  0
  5  6  2  0  0  0  0
  6  4  1  0  0  0  0
  7  8  1  0  0  0  0
  8  4  2  0  0  0  0
  8  1  1  0  0  0  0
  9  7  2  0  0  0  0
  9  5  1  0  0  0  0
 10  2  2  0  0  0  0
 10 11  1  0  0  0  0
 11 12  2  0  0  0  0
 12 14  1  0  0  0  0
 13  2  1  6  0  0  0
 13  3  1  0  0  0  0
 13 15  1  0  0  0  0
 15 14  2  0  0  0  0
 15  1  1  0  0  0  0
 16 18  1  1  0  0  0
 16 11  1  0  0  0  0
 16 17  1  0  0  0  0
 19 20  1  0  0  0  0
 20 21  1  0  0  0  0
 22 31  1  0  0  0  0
 23 30  1  0  0  0  0
 24 25  2  0  0  0  0
 25 26  1  0  0  0  0
 26 22  2  0  0  0  0
 27 28  1  0  0  0  0
 28 26  1  0  0  0  0
 28 23  2  0  0  0  0
 29 24  1  0  0  0  0
 29 27  2  0  0  0  0
 30 31  2  0  0  0  0
 30 21  1  0  0  0  0
 32 33  1  0  0  0  0
 32 24  1  0  0  0  0
 34 32  1  0  0  0  0
 34 33  1  0  0  0  0
M  END
>  <MODEL>
5

>  <REMARK>
 VINA RESULT:      -7.7      1.949      6.553
  Name = 
  6 active torsions:
  status: ('A' for Active; 'I' for Inactive)
    1  A    between atoms: C_1  and  O_9
    2  A    between atoms: C_3  and  C_25
    3  A    between atoms: C_7  and  C_11
    4  A    between atoms: C_8  and  O_9
    5  A    between atoms: C_8  and  C_18
    6  A    between atoms: C_18  and  C_30
                            x       y       z     vdW  Elec       q    Type
                         _______ _______ _______ _____ _____    ______ ____

>  <TORSDO>
F 6

$$$$
=
 OpenBabel11052420193D

 34 39  0  0  1  0  0  0  0  0999 V2000
  189.3560  174.8820  146.0530 C   0  0  2  0  0  3  0  0  0  0  0  0
  187.3930  176.4170  143.4060 C   0  0  0  0  0  3  0  0  0  0  0  0
  189.8710  176.3260  143.5730 C   0  0  0  0  0  2  0  0  0  0  0  0
  190.4260  172.8540  145.0160 C   0  0  0  0  0  3  0  0  0  0  0  0
  191.2630  172.8960  142.7430 C   0  0  0  0  0  3  0  0  0  0  0  0
  191.0430  172.2080  143.9400 C   0  0  0  0  0  3  0  0  0  0  0  0
  190.2380  174.8770  143.6880 C   0  0  0  0  0  0  0  0  0  0  0  0
  190.0240  174.1880  144.8950 C   0  0  0  0  0  0  0  0  0  0  0  0
  190.8660  174.2310  142.6190 C   0  0  0  0  0  3  0  0  0  0  0  0
  186.1630  176.8310  143.7080 C   0  0  0  0  0  3  0  0  0  0  0  0
  185.7750  177.5140  144.9610 C   0  0  0  0  0  0  0  0  0  0  0  0
  186.3120  177.2430  146.1650 C   0  0  0  0  0  3  0  0  0  0  0  0
  188.5630  176.6680  144.2970 C   0  0  2  0  0  3  0  0  0  0  0  0
  187.4050  176.2940  146.4570 C   0  0  0  0  0  3  0  0  0  0  0  0
  188.3980  175.9690  145.6270 C   0  0  0  0  0  0  0  0  0  0  0  0
  184.6180  178.4620  144.8710 C   0  0  1  0  0  3  0  0  0  0  0  0
  184.0170  178.6770  146.1770 N   0  0  0  0  0  1  0  0  0  0  0  0
  185.0400  179.7890  144.2670 C   0  0  0  0  0  1  0  0  0  0  0  0
  190.2340  175.2650  147.0940 O   0  0  0  0  0  0  0  0  0  0  0  0
  190.8530  176.4830  146.7560 C   0  0  0  0  0  2  0  0  0  0  0  0
  192.3380  176.4260  147.0720 C   0  0  0  0  0  2  0  0  0  0  0  0
  194.2450  173.8120  145.0980 C   0  0  0  0  0  3  0  0  0  0  0  0
  193.2560  176.4140  144.7460 C   0  0  0  0  0  3  0  0  0  0  0  0
  195.2520  174.4740  141.5950 C   0  0  0  0  0  0  0  0  0  0  0  0
  195.0790  173.8220  142.8240 C   0  0  0  0  0  3  0  0  0  0  0  0
  194.4230  174.4640  143.8750 C   0  0  0  0  0  0  0  0  0  0  0  0
  194.0790  176.4170  142.4670 C   0  0  0  0  0  3  0  0  0  0  0  0
  193.9230  175.7740  143.6970 C   0  0  0  0  0  0  0  0  0  0  0  0
  194.7350  175.7660  141.4180 C   0  0  0  0  0  3  0  0  0  0  0  0
  193.0850  175.7560  145.9690 C   0  0  0  0  0  0  0  0  0  0  0  0
  193.5750  174.4570  146.1420 C   0  0  0  0  0  3  0  0  0  0  0  0
  195.9030  173.7600  140.4490 C   0  0  0  0  0  3  0  0  0  0  0  0
  197.2810  174.3420  140.1770 C   0  0  0  0  0  2  0  0  0  0  0  0
  197.1520  173.0320  140.9160 C   0  0  0  0  0  2  0  0  0  0  0  0
  1 19  1  1  0  0  0
  2 10  2  0  0  0  0
  3  7  1  0  0  0  0
  3 13  1  0  0  0  0
  5  6  1  0  0  0  0
  6  4  2  0  0  0  0
  7  8  2  0  0  0  0
  8  4  1  0  0  0  0
  8  1  1  0  0  0  0
  9  5  2  0  0  0  0
  9  7  1  0  0  0  0
 10 11  1  0  0  0  0
 11 12  2  0  0  0  0
 12 14  1  0  0  0  0
 13  2  1  6  0  0  0
 13 15  1  0  0  0  0
 15  1  1  0  0  0  0
 15 14  2  0  0  0  0
 16 18  1  1  0  0  0
 16 11  1  0  0  0  0
 16 17  1  0  0  0  0
 20 21  1  0  0  0  0
 20 19  1  0  0  0  0
 22 31  1  0  0  0  0
 23 30  1  0  0  0  0
 24 25  2  0  0  0  0
 25 26  1  0  0  0  0
 26 22  2  0  0  0  0
 27 28  1  0  0  0  0
 28 26  1  0  0  0  0
 28 23  2  0  0  0  0
 29 24  1  0  0  0  0
 29 27  2  0  0  0  0
 30 31  2  0  0  0  0
 30 21  1  0  0  0  0
 32 34  1  0  0  0  0
 32 24  1  0  0  0  0
 33 32  1  0  0  0  0
 33 34  1  0  0  0  0
M  END
>  <MODEL>
6

>  <REMARK>
 VINA RESULT:      -7.6      1.464      2.154
  Name = 
  6 active torsions:
  status: ('A' for Active; 'I' for Inactive)
    1  A    between atoms: C_1  and  O_9
    2  A    between atoms: C_3  and  C_25
    3  A    between atoms: C_7  and  C_11
    4  A    between atoms: C_8  and  O_9
    5  A    between atoms: C_8  and  C_18
    6  A    between atoms: C_18  and  C_30
                            x       y       z     vdW  Elec       q    Type
                         _______ _______ _______ _____ _____    ______ ____

>  <TORSDO>
F 6

$$$$
=
 OpenBabel11052420193D

 34 39  0  0  1  0  0  0  0  0999 V2000
  193.7970  173.6790  144.4860 C   0  0  2  0  0  3  0  0  0  0  0  0
  191.8070  174.5770  141.5790 C   0  0  0  0  0  3  0  0  0  0  0  0
  193.6800  175.8760  142.5730 C   0  0  0  0  0  2  0  0  0  0  0  0
  196.0830  173.1160  143.5970 C   0  0  0  0  0  3  0  0  0  0  0  0
  197.0740  174.3770  141.7820 C   0  0  0  0  0  3  0  0  0  0  0  0
  197.1460  173.3400  142.7170 C   0  0  0  0  0  3  0  0  0  0  0  0
  194.8680  174.9630  142.5940 C   0  0  0  0  0  0  0  0  0  0  0  0
  194.9440  173.9250  143.5400 C   0  0  0  0  0  0  0  0  0  0  0  0
  195.9380  175.1910  141.7250 C   0  0  0  0  0  3  0  0  0  0  0  0
  190.5730  174.0820  141.4970 C   0  0  0  0  0  3  0  0  0  0  0  0
  189.6260  173.9580  142.6260 C   0  0  0  0  0  0  0  0  0  0  0  0
  189.9910  173.6660  143.8880 C   0  0  0  0  0  3  0  0  0  0  0  0
  192.3600  175.1430  142.8440 C   0  0  2  0  0  3  0  0  0  0  0  0
  191.3650  173.4850  144.3970 C   0  0  0  0  0  3  0  0  0  0  0  0
  192.4580  174.0860  143.9200 C   0  0  0  0  0  0  0  0  0  0  0  0
  188.1690  174.0340  142.2830 C   0  0  1  0  0  3  0  0  0  0  0  0
  187.8010  175.3760  141.8640 N   0  0  0  0  0  1  0  0  0  0  0  0
  187.8070  173.0330  141.2010 C   0  0  0  0  0  1  0  0  0  0  0  0
  194.0220  174.1280  145.8090 O   0  0  0  0  0  0  0  0  0  0  0  0
  194.4530  175.4670  145.7800 C   0  0  0  0  0  2  0  0  0  0  0  0
  193.7810  176.2610  146.8880 C   0  0  0  0  0  2  0  0  0  0  0  0
  190.1700  175.3450  147.5850 C   0  0  0  0  0  3  0  0  0  0  0  0
  191.6360  176.9180  145.7830 C   0  0  0  0  0  3  0  0  0  0  0  0
  187.4420  176.7820  145.5310 C   0  0  0  0  0  0  0  0  0  0  0  0
  188.1110  176.0410  146.5160 C   0  0  0  0  0  3  0  0  0  0  0  0
  189.5040  176.0780  146.5990 C   0  0  0  0  0  0  0  0  0  0  0  0
  189.5750  177.6240  144.7240 C   0  0  0  0  0  3  0  0  0  0  0  0
  190.2430  176.8720  145.6930 C   0  0  0  0  0  0  0  0  0  0  0  0
  188.1800  177.5850  144.6480 C   0  0  0  0  0  3  0  0  0  0  0  0
  192.2970  176.1780  146.7690 C   0  0  0  0  0  0  0  0  0  0  0  0
  191.5650  175.3970  147.6710 C   0  0  0  0  0  3  0  0  0  0  0  0
  185.9440  176.7890  145.4820 C   0  0  0  0  0  3  0  0  0  0  0  0
  185.3840  177.7550  146.5150 C   0  0  0  0  0  2  0  0  0  0  0  0
  185.4310  178.1550  145.0590 C   0  0  0  0  0  2  0  0  0  0  0  0
  1 19  1  1  0  0  0
  3  7  1  0  0  0  0
  3 13  1  0  0  0  0
  5  6  1  0  0  0  0
  6  4  2  0  0  0  0
  7  8  2  0  0  0  0
  8  4  1  0  0  0  0
  8  1  1  0  0  0  0
  9  5  2  0  0  0  0
  9  7  1  0  0  0  0
 10  2  2  0  0  0  0
 10 11  1  0  0  0  0
 11 12  2  0  0  0  0
 12 14  1  0  0  0  0
 13  2  1  6  0  0  0
 13 15  1  0  0  0  0
 15 14  2  0  0  0  0
 15  1  1  0  0  0  0
 16 18  1  6  0  0  0
 16 11  1  0  0  0  0
 17 16  1  0  0  0  0
 20 19  1  0  0  0  0
 20 21  1  0  0  0  0
 22 31  1  0  0  0  0
 23 30  1  0  0  0  0
 24 25  2  0  0  0  0
 25 26  1  0  0  0  0
 26 22  2  0  0  0  0
 27 28  1  0  0  0  0
 28 23  2  0  0  0  0
 28 26  1  0  0  0  0
 29 27  2  0  0  0  0
 29 24  1  0  0  0  0
 30 21  1  0  0  0  0
 30 31  2  0  0  0  0
 32 24  1  0  0  0  0
 32 33  1  0  0  0  0
 34 32  1  0  0  0  0
 34 33  1  0  0  0  0
M  END
>  <MODEL>
7

>  <REMARK>
 VINA RESULT:      -7.4      1.838      6.424
  Name = 
  6 active torsions:
  status: ('A' for Active; 'I' for Inactive)
    1  A    between atoms: C_1  and  O_9
    2  A    between atoms: C_3  and  C_25
    3  A    between atoms: C_7  and  C_11
    4  A    between atoms: C_8  and  O_9
    5  A    between atoms: C_8  and  C_18
    6  A    between atoms: C_18  and  C_30
                            x       y       z     vdW  Elec       q    Type
                         _______ _______ _______ _____ _____    ______ ____

>  <TORSDO>
F 6

$$$$
=
 OpenBabel11052420193D

 34 39  0  0  1  0  0  0  0  0999 V2000
  191.2930  173.6670  144.8700 C   0  0  2  0  0  3  0  0  0  0  0  0
  194.1810  175.5530  146.0180 C   0  0  0  0  0  3  0  0  0  0  0  0
  192.1770  176.4450  144.8490 C   0  0  0  0  0  2  0  0  0  0  0  0
  189.3930  174.3540  146.3710 C   0  0  0  0  0  3  0  0  0  0  0  0
  189.1390  176.6460  147.1110 C   0  0  0  0  0  3  0  0  0  0  0  0
  188.6950  175.3200  147.1010 C   0  0  0  0  0  3  0  0  0  0  0  0
  190.9900  176.0420  145.6700 C   0  0  0  0  0  0  0  0  0  0  0  0
  190.5380  174.7110  145.6530 C   0  0  0  0  0  0  0  0  0  0  0  0
  190.2820  177.0080  146.3910 C   0  0  0  0  0  3  0  0  0  0  0  0
  195.3380  174.9020  146.1360 C   0  0  0  0  0  3  0  0  0  0  0  0
  195.8530  173.8960  145.1820 C   0  0  0  0  0  0  0  0  0  0  0  0
  195.0750  173.0230  144.5140 C   0  0  0  0  0  3  0  0  0  0  0  0
  193.2830  175.3820  144.8400 C   0  0  2  0  0  3  0  0  0  0  0  0
  193.6010  172.9410  144.5460 C   0  0  0  0  0  3  0  0  0  0  0  0
  192.7680  173.9650  144.7440 C   0  0  0  0  0  0  0  0  0  0  0  0
  197.3430  173.7790  145.0780 C   0  0  1  0  0  3  0  0  0  0  0  0
  197.7500  172.3880  144.9660 N   0  0  0  0  0  1  0  0  0  0  0  0
  197.8760  174.5740  143.9010 C   0  0  0  0  0  1  0  0  0  0  0  0
  190.6770  173.2880  143.6540 O   0  0  0  0  0  0  0  0  0  0  0  0
  191.3510  173.8990  142.5800 C   0  0  0  0  0  2  0  0  0  0  0  0
  190.3560  174.5550  141.6380 C   0  0  0  0  0  2  0  0  0  0  0  0
  189.2260  177.8950  143.0280 C   0  0  0  0  0  3  0  0  0  0  0  0
  188.3420  175.2340  142.9570 C   0  0  0  0  0  3  0  0  0  0  0  0
  186.0230  178.1730  144.8680 C   0  0  0  0  0  0  0  0  0  0  0  0
  187.2400  178.5210  144.2650 C   0  0  0  0  0  3  0  0  0  0  0  0
  188.0170  177.5470  143.6350 C   0  0  0  0  0  0  0  0  0  0  0  0
  186.3490  175.8640  144.1820 C   0  0  0  0  0  3  0  0  0  0  0  0
  187.5700  176.2070  143.5970 C   0  0  0  0  0  0  0  0  0  0  0  0
  185.5750  176.8450  144.8090 C   0  0  0  0  0  3  0  0  0  0  0  0
  189.5550  175.5880  142.3550 C   0  0  0  0  0  0  0  0  0  0  0  0
  189.9920  176.9170  142.3870 C   0  0  0  0  0  3  0  0  0  0  0  0
  185.1620  179.2310  145.4910 C   0  0  0  0  0  3  0  0  0  0  0  0
  183.9490  178.6010  146.1570 C   0  0  0  0  0  2  0  0  0  0  0  0
  185.1160  179.0590  147.0000 C   0  0  0  0  0  2  0  0  0  0  0  0
  1 19  1  6  0  0  0
  1  8  1  0  0  0  0
  2 10  2  0  0  0  0
  3  7  1  0  0  0  0
  4  6  1  0  0  0  0
  6  5  2  0  0  0  0
  7  9  2  0  0  0  0
  8  7  1  0  0  0  0
  8  4  2  0  0  0  0
  9  5  1  0  0  0  0
 11 10  1  0  0  0  0
 12 14  1  0  0  0  0
 12 11  2  0  0  0  0
 13  3  1  1  0  0  0
 13  2  1  0  0  0  0
 14 15  2  0  0  0  0
 15 13  1  0  0  0  0
 15  1  1  0  0  0  0
 16 18  1  6  0  0  0
 16 11  1  0  0  0  0
 17 16  1  0  0  0  0
 20 19  1  0  0  0  0
 21 30  1  0  0  0  0
 21 20  1  0  0  0  0
 22 26  1  0  0  0  0
 23 28  1  0  0  0  0
 24 32  1  0  0  0  0
 25 24  2  0  0  0  0
 26 25  1  0  0  0  0
 27 29  2  0  0  0  0
 28 26  2  0  0  0  0
 28 27  1  0  0  0  0
 29 24  1  0  0  0  0
 30 31  1  0  0  0  0
 30 23  2  0  0  0  0
 31 22  2  0  0  0  0
 32 33  1  0  0  0  0
 32 34  1  0  0  0  0
 33 34  1  0  0  0  0
M  END
>  <MODEL>
8

>  <REMARK>
 VINA RESULT:      -7.3      3.033      8.545
  Name = 
  6 active torsions:
  status: ('A' for Active; 'I' for Inactive)
    1  A    between atoms: C_1  and  O_9
    2  A    between atoms: C_3  and  C_25
    3  A    between atoms: C_7  and  C_11
    4  A    between atoms: C_8  and  O_9
    5  A    between atoms: C_8  and  C_18
    6  A    between atoms: C_18  and  C_30
                            x       y       z     vdW  Elec       q    Type
                         _______ _______ _______ _____ _____    ______ ____

>  <TORSDO>
F 6

$$$$
=
 OpenBabel11052420193D

 34 39  0  0  1  0  0  0  0  0999 V2000
  191.1230  173.7310  144.9510 C   0  0  2  0  0  3  0  0  0  0  0  0
  194.0160  175.8520  145.5410 C   0  0  0  0  0  3  0  0  0  0  0  0
  192.0970  176.3220  144.0340 C   0  0  0  0  0  2  0  0  0  0  0  0
  189.1810  174.9170  146.0260 C   0  0  0  0  0  3  0  0  0  0  0  0
  188.9680  177.3280  145.9290 C   0  0  0  0  0  3  0  0  0  0  0  0
  188.4830  176.0850  146.3460 C   0  0  0  0  0  3  0  0  0  0  0  0
  190.8610  176.2410  144.8790 C   0  0  0  0  0  0  0  0  0  0  0  0
  190.3680  174.9910  145.2910 C   0  0  0  0  0  0  0  0  0  0  0  0
  190.1530  177.4050  145.1900 C   0  0  0  0  0  3  0  0  0  0  0  0
  195.1450  175.2630  145.9340 C   0  0  0  0  0  3  0  0  0  0  0  0
  195.6690  173.9840  145.4070 C   0  0  0  0  0  0  0  0  0  0  0  0
  194.8940  172.9470  145.0360 C   0  0  0  0  0  3  0  0  0  0  0  0
  193.1670  175.3030  144.4450 C   0  0  2  0  0  3  0  0  0  0  0  0
  193.4180  172.9030  145.0160 C   0  0  0  0  0  3  0  0  0  0  0  0
  192.6110  173.9450  144.8090 C   0  0  0  0  0  0  0  0  0  0  0  0
  197.1580  173.8150  145.4290 C   0  0  1  0  0  3  0  0  0  0  0  0
  197.5240  172.4090  145.4100 N   0  0  0  0  0  1  0  0  0  0  0  0
  197.8090  174.5390  144.2650 C   0  0  0  0  0  1  0  0  0  0  0  0
  190.5500  172.9690  143.9050 O   0  0  0  0  0  0  0  0  0  0  0  0
  191.3400  173.0980  142.7480 C   0  0  0  0  0  2  0  0  0  0  0  0
  190.4610  173.3480  141.5340 C   0  0  0  0  0  2  0  0  0  0  0  0
  187.0660  174.5030  142.7600 C   0  0  0  0  0  3  0  0  0  0  0  0
  189.4370  175.6190  141.7580 C   0  0  0  0  0  3  0  0  0  0  0  0
  186.2450  178.1130  142.8790 C   0  0  0  0  0  0  0  0  0  0  0  0
  186.1260  176.7220  143.0050 C   0  0  0  0  0  3  0  0  0  0  0  0
  187.1810  175.8890  142.6280 C   0  0  0  0  0  0  0  0  0  0  0  0
  188.5010  177.8380  142.0170 C   0  0  0  0  0  3  0  0  0  0  0  0
  188.3770  176.4510  142.1250 C   0  0  0  0  0  0  0  0  0  0  0  0
  187.4420  178.6660  142.3990 C   0  0  0  0  0  3  0  0  0  0  0  0
  189.3140  174.2310  141.8890 C   0  0  0  0  0  0  0  0  0  0  0  0
  188.1320  173.6760  142.3930 C   0  0  0  0  0  3  0  0  0  0  0  0
  185.1340  179.0080  143.3410 C   0  0  0  0  0  3  0  0  0  0  0  0
  184.6580  178.5910  144.7240 C   0  0  0  0  0  2  0  0  0  0  0  0
  185.5590  179.7940  144.5700 C   0  0  0  0  0  2  0  0  0  0  0  0
  1 19  1  6  0  0  0
  1  8  1  0  0  0  0
  2 10  2  0  0  0  0
  3  7  1  0  0  0  0
  4  6  1  0  0  0  0
  5  6  2  0  0  0  0
  7  9  2  0  0  0  0
  7  8  1  0  0  0  0
  8  4  2  0  0  0  0
  9  5  1  0  0  0  0
 11 16  1  0  0  0  0
 11 10  1  0  0  0  0
 12 11  2  0  0  0  0
 13  3  1  1  0  0  0
 13 15  1  0  0  0  0
 13  2  1  0  0  0  0
 14 12  1  0  0  0  0
 15  1  1  0  0  0  0
 15 14  2  0  0  0  0
 16 18  1  6  0  0  0
 17 16  1  0  0  0  0
 20 19  1  0  0  0  0
 21 30  1  0  0  0  0
 21 20  1  0  0  0  0
 23 30  2  0  0  0  0
 23 28  1  0  0  0  0
 24 25  1  0  0  0  0
 24 32  1  0  0  0  0
 26 22  1  0  0  0  0
 26 25  2  0  0  0  0
 27 28  2  0  0  0  0
 27 29  1  0  0  0  0
 28 26  1  0  0  0  0
 29 24  2  0  0  0  0
 30 31  1  0  0  0  0
 31 22  2  0  0  0  0
 32 34  1  0  0  0  0
 32 33  1  0  0  0  0
 34 33  1  0  0  0  0
M  END
>  <MODEL>
9

>  <REMARK>
 VINA RESULT:      -7.2      3.093      8.467
  Name = 
  6 active torsions:
  status: ('A' for Active; 'I' for Inactive)
    1  A    between atoms: C_1  and  O_9
    2  A    between atoms: C_3  and  C_25
    3  A    between atoms: C_7  and  C_11
    4  A    between atoms: C_8  and  O_9
    5  A    between atoms: C_8  and  C_18
    6  A    between atoms: C_18  and  C_30
                            x       y       z     vdW  Elec       q    Type
                         _______ _______ _______ _____ _____    ______ ____

>  <TORSDO>
F 6

$$$$
