=
 OpenBabel11052419563D

 37 41  0  0  1  0  0  0  0  0999 V2000
  196.4010  174.1370  144.7030 C   0  0  0  0  0  0  0  0  0  0  0  0
  193.3840  175.7500  143.5810 C   0  0  2  0  0  3  0  0  0  0  0  0
  194.5490  175.1650  145.9380 C   0  0  0  0  0  2  0  0  0  0  0  0
  192.6210  174.4240  143.7780 C   0  0  0  0  0  2  0  0  0  0  0  0
  194.9150  175.5560  143.5320 C   0  0  2  0  0  3  0  0  0  0  0  0
  191.2260  174.6080  144.3760 C   0  0  1  0  0  3  0  0  0  0  0  0
  194.1350  177.5060  146.6980 C   0  0  0  0  0  1  0  0  0  0  0  0
  195.4780  174.5280  142.5460 C   0  0  1  0  0  3  0  0  0  0  0  0
  196.3100  173.2560  145.7890 O   0  0  0  0  0  1  0  0  0  0  0  0
  191.4430  178.4080  143.9340 C   0  0  0  0  0  1  0  0  0  0  0  0
  193.5310  176.3180  145.9730 C   0  0  1  0  0  3  0  0  0  0  0  0
  195.9830  173.4210  143.4360 C   0  0  0  0  0  2  0  0  0  0  0  0
  193.0790  176.7350  144.6330 N   0  0  2  0  0  0  0  0  0  0  0  0
  195.5400  175.3300  144.8570 N   0  0  2  0  0  0  0  0  0  0  0  0
  190.6820  176.0310  144.1640 C   0  0  2  0  0  3  0  0  0  0  0  0
  197.7280  174.5500  144.5730 O   0  0  0  0  0  1  0  0  0  0  0  0
  191.6560  177.1060  144.6860 C   0  0  2  0  0  3  0  0  0  0  0  0
  189.2020  176.1050  146.1830 C   0  0  0  0  0  3  0  0  0  0  0  0
  189.3300  176.2130  144.7940 C   0  0  0  0  0  0  0  0  0  0  0  0
  188.1970  176.4850  144.0120 C   0  0  0  0  0  3  0  0  0  0  0  0
  185.8580  176.9120  143.8590 F   0  0  0  0  0  0  0  0  0  0  0  0
  186.8260  176.5430  146.0050 C   0  0  0  0  0  3  0  0  0  0  0  0
  186.9480  176.6500  144.6170 C   0  0  0  0  0  0  0  0  0  0  0  0
  187.9520  176.2710  146.7890 C   0  0  0  0  0  3  0  0  0  0  0  0
  194.9810  172.6850  140.9230 C   0  0  0  0  0  2  0  0  0  0  0  0
  195.7890  172.9640  139.6680 C   0  0  1  0  0  3  0  0  0  0  0  0
  194.6260  174.9380  140.2290 C   0  0  0  0  0  2  0  0  0  0  0  0
  195.6250  174.3750  139.3250 N   0  0  0  0  0  0  0  0  0  0  0  0
  194.5330  174.0340  141.4410 C   0  0  2  0  0  3  0  0  0  0  0  0
  197.2590  172.6700  139.9130 C   0  0  0  0  0  2  0  0  0  0  0  0
  197.9390  173.8510  140.2130 O   0  0  0  0  0  1  0  0  0  0  0  0
  195.1840  174.5230  137.9310 C   0  0  0  0  0  2  0  0  0  0  0  0
  196.1700  175.2360  137.0490 C   0  0  0  0  0  0  0  0  0  0  0  0
  195.8850  175.4670  135.8460 O   0  0  0  0  0  0  0  0  0  0  0  0
  197.3890  175.6570  137.5650 O   0  0  0  0  0  1  0  0  0  0  0  0
  190.3000  173.5480  143.8470 C   0  0  0  0  0  3  0  0  0  0  0  0
  189.8470  172.5550  144.6150 C   0  0  0  0  0  2  0  0  0  0  0  0
  1 14  1  0  0  0  0
  1  9  1  0  0  0  0
  2  4  1  1  0  0  0
  2 13  1  0  0  0  0
  3 11  1  0  0  0  0
  4  6  1  0  0  0  0
  5  2  1  0  0  0  0
  5 14  1  0  0  0  0
  8 12  1  0  0  0  0
  8  5  1  0  0  0  0
 10 17  1  0  0  0  0
 11  7  1  0  0  0  0
 12  1  1  0  0  0  0
 13 17  1  0  0  0  0
 13 11  1  0  0  0  0
 14  3  1  0  0  0  0
 15  6  1  0  0  0  0
 15 17  1  0  0  0  0
 15 19  1  0  0  0  0
 16  1  1  0  0  0  0
 18 24  1  0  0  0  0
 19 18  2  0  0  0  0
 20 23  2  0  0  0  0
 20 19  1  0  0  0  0
 21 23  1  0  0  0  0
 22 24  2  0  0  0  0
 23 22  1  0  0  0  0
 25 29  1  0  0  0  0
 26 30  1  0  0  0  0
 26 25  1  0  0  0  0
 27 29  1  0  0  0  0
 28 26  1  0  0  0  0
 28 27  1  0  0  0  0
 29  8  1  0  0  0  0
 30 31  1  0  0  0  0
 32 28  1  0  0  0  0
 33 35  1  0  0  0  0
 33 32  1  0  0  0  0
 34 33  2  0  0  0  0
 36  6  1  0  0  0  0
 36 37  2  0  0  0  0
M  END
>  <MODEL>
1

>  <REMARK>
 VINA RESULT:      -6.8      0.000      0.000
  Name = 
  6 active torsions:
  status: ('A' for Active; 'I' for Inactive)
    1  A    between atoms: C_5  and  C_12
    2  A    between atoms: C_6  and  C_31
    3  A    between atoms: C_7  and  C_14
    4  A    between atoms: C_11  and  C_26
    5  A    between atoms: C_20  and  C_36
    6  A    between atoms: C_26  and  N_33
                            x       y       z     vdW  Elec       q    Type
                         _______ _______ _______ _____ _____    ______ ____

>  <TORSDO>
F 6

$$$$
=
 OpenBabel11052419563D

 37 41  0  0  1  0  0  0  0  0999 V2000
  194.0770  175.3800  143.5830 C   0  0  0  0  0  0  0  0  0  0  0  0
  190.4890  175.6430  143.4370 C   0  0  2  0  0  3  0  0  0  0  0  0
  192.5290  177.0460  144.4990 C   0  0  0  0  0  2  0  0  0  0  0  0
  190.4000  174.9740  144.8240 C   0  0  0  0  0  2  0  0  0  0  0  0
  191.8610  175.4320  142.7600 C   0  0  2  0  0  3  0  0  0  0  0  0
  189.3400  175.5970  145.7330 C   0  0  1  0  0  3  0  0  0  0  0  0
  191.5590  179.1380  143.5430 C   0  0  0  0  0  1  0  0  0  0  0  0
  192.3880  173.9990  142.6360 C   0  0  1  0  0  3  0  0  0  0  0  0
  194.7070  175.6570  144.8040 O   0  0  0  0  0  1  0  0  0  0  0  0
  187.9460  177.6730  142.8290 C   0  0  0  0  0  1  0  0  0  0  0  0
  191.2340  177.8420  144.2620 C   0  0  1  0  0  3  0  0  0  0  0  0
  193.5460  173.9610  143.6000 C   0  0  0  0  0  2  0  0  0  0  0  0
  190.2230  177.0910  143.4940 N   0  0  2  0  0  0  0  0  0  0  0  0
  192.9430  176.2870  143.3030 N   0  0  2  0  0  0  0  0  0  0  0  0
  188.2650  176.3590  144.9400 C   0  0  2  0  0  3  0  0  0  0  0  0
  195.0170  175.5000  142.5580 O   0  0  0  0  0  1  0  0  0  0  0  0
  188.8790  177.4150  143.9990 C   0  0  2  0  0  3  0  0  0  0  0  0
  185.8940  176.7270  145.6600 C   0  0  0  0  0  3  0  0  0  0  0  0
  187.2540  177.0040  145.8450 C   0  0  0  0  0  0  0  0  0  0  0  0
  187.6500  177.8810  146.8660 C   0  0  0  0  0  3  0  0  0  0  0  0
  187.0800  179.3170  148.6800 F   0  0  0  0  0  0  0  0  0  0  0  0
  185.3370  178.1900  147.5090 C   0  0  0  0  0  3  0  0  0  0  0  0
  186.6940  178.4720  147.6960 C   0  0  0  0  0  0  0  0  0  0  0  0
  184.9370  177.3180  146.4920 C   0  0  0  0  0  3  0  0  0  0  0  0
  192.0740  171.6280  143.3830 C   0  0  0  0  0  2  0  0  0  0  0  0
  192.3220  170.7420  142.1740 C   0  0  1  0  0  3  0  0  0  0  0  0
  190.7910  172.4180  141.5350 C   0  0  0  0  0  2  0  0  0  0  0  0
  191.5980  171.3080  141.0380 N   0  0  0  0  0  0  0  0  0  0  0  0
  191.3780  172.8640  142.8590 C   0  0  2  0  0  3  0  0  0  0  0  0
  193.8070  170.6920  141.8550 C   0  0  0  0  0  2  0  0  0  0  0  0
  194.0810  171.4800  140.7360 O   0  0  0  0  0  1  0  0  0  0  0  0
  190.7340  170.2940  140.4160 C   0  0  0  0  0  2  0  0  0  0  0  0
  190.6900  170.3650  138.9160 C   0  0  0  0  0  0  0  0  0  0  0  0
  191.5750  171.0060  138.2910 O   0  0  0  0  0  1  0  0  0  0  0  0
  189.6860  169.7100  138.2160 O   0  0  0  0  0  0  0  0  0  0  0  0
  188.7580  174.5440  146.6350 C   0  0  0  0  0  3  0  0  0  0  0  0
  188.9720  174.5430  147.9520 C   0  0  0  0  0  2  0  0  0  0  0  0
  1 12  1  0  0  0  0
  1  9  1  0  0  0  0
  2 13  1  0  0  0  0
  2  4  1  1  0  0  0
  4  6  1  0  0  0  0
  5 14  1  0  0  0  0
  5  2  1  0  0  0  0
  6 36  1  0  0  0  0
  7 11  1  0  0  0  0
  8  5  1  0  0  0  0
  8 29  1  0  0  0  0
  8 12  1  0  0  0  0
 10 17  1  0  0  0  0
 11  3  1  0  0  0  0
 13 17  1  0  0  0  0
 13 11  1  0  0  0  0
 14  1  1  0  0  0  0
 14  3  1  0  0  0  0
 15  6  1  0  0  0  0
 15 19  1  0  0  0  0
 16  1  1  0  0  0  0
 17 15  1  0  0  0  0
 18 19  2  0  0  0  0
 18 24  1  0  0  0  0
 19 20  1  0  0  0  0
 20 23  2  0  0  0  0
 22 23  1  0  0  0  0
 23 21  1  0  0  0  0
 24 22  2  0  0  0  0
 26 25  1  0  0  0  0
 27 29  1  0  0  0  0
 28 27  1  0  0  0  0
 28 26  1  0  0  0  0
 29 25  1  0  0  0  0
 30 26  1  0  0  0  0
 31 30  1  0  0  0  0
 32 28  1  0  0  0  0
 33 32  1  0  0  0  0
 34 33  1  0  0  0  0
 35 33  2  0  0  0  0
 36 37  2  0  0  0  0
M  END
>  <MODEL>
2

>  <REMARK>
 VINA RESULT:      -6.7      3.159      4.241
  Name = 
  6 active torsions:
  status: ('A' for Active; 'I' for Inactive)
    1  A    between atoms: C_5  and  C_12
    2  A    between atoms: C_6  and  C_31
    3  A    between atoms: C_7  and  C_14
    4  A    between atoms: C_11  and  C_26
    5  A    between atoms: C_20  and  C_36
    6  A    between atoms: C_26  and  N_33
                            x       y       z     vdW  Elec       q    Type
                         _______ _______ _______ _____ _____    ______ ____

>  <TORSDO>
F 6

$$$$
=
 OpenBabel11052419563D

 37 41  0  0  1  0  0  0  0  0999 V2000
  195.9780  173.9000  144.7670 C   0  0  0  0  0  0  0  0  0  0  0  0
  193.1720  175.8000  143.5500 C   0  0  2  0  0  3  0  0  0  0  0  0
  194.0750  174.9170  145.9290 C   0  0  0  0  0  2  0  0  0  0  0  0
  192.3240  174.5120  143.5410 C   0  0  0  0  0  2  0  0  0  0  0  0
  194.6880  175.5160  143.6180 C   0  0  2  0  0  3  0  0  0  0  0  0
  190.8900  174.7230  144.0290 C   0  0  1  0  0  3  0  0  0  0  0  0
  193.7160  177.1950  146.8850 C   0  0  0  0  0  1  0  0  0  0  0  0
  195.2870  174.5550  142.5870 C   0  0  1  0  0  3  0  0  0  0  0  0
  195.7370  172.9250  145.7440 O   0  0  0  0  0  1  0  0  0  0  0  0
  191.3500  178.5270  143.9990 C   0  0  0  0  0  1  0  0  0  0  0  0
  193.1210  176.1230  145.9920 C   0  0  1  0  0  3  0  0  0  0  0  0
  195.6450  173.3370  143.4000 C   0  0  0  0  0  2  0  0  0  0  0  0
  192.8210  176.6950  144.6660 N   0  0  2  0  0  0  0  0  0  0  0  0
  195.1720  175.1240  144.9640 N   0  0  2  0  0  0  0  0  0  0  0  0
  190.4450  176.1910  143.9160 C   0  0  2  0  0  3  0  0  0  0  0  0
  197.3320  174.2400  144.7970 O   0  0  0  0  0  1  0  0  0  0  0  0
  191.4220  177.1480  144.6290 C   0  0  2  0  0  3  0  0  0  0  0  0
  188.0360  176.7700  143.5510 C   0  0  0  0  0  3  0  0  0  0  0  0
  189.0510  176.3950  144.4380 C   0  0  0  0  0  0  0  0  0  0  0  0
  188.7550  176.2200  145.7980 C   0  0  0  0  0  3  0  0  0  0  0  0
  187.1690  176.2480  147.5770 F   0  0  0  0  0  0  0  0  0  0  0  0
  186.4410  176.7890  145.3740 C   0  0  0  0  0  3  0  0  0  0  0  0
  187.4520  176.4170  146.2640 C   0  0  0  0  0  0  0  0  0  0  0  0
  186.7320  176.9660  144.0170 C   0  0  0  0  0  3  0  0  0  0  0  0
  194.8150  172.8900  140.7750 C   0  0  0  0  0  2  0  0  0  0  0  0
  195.7700  173.1880  139.6330 C   0  0  1  0  0  3  0  0  0  0  0  0
  194.7180  175.2110  140.2400 C   0  0  0  0  0  2  0  0  0  0  0  0
  195.7580  174.6300  139.3940 N   0  0  0  0  0  0  0  0  0  0  0  0
  194.4260  174.2300  141.3570 C   0  0  2  0  0  3  0  0  0  0  0  0
  197.1780  172.7470  139.9960 C   0  0  0  0  0  2  0  0  0  0  0  0
  197.9110  173.8350  140.4720 O   0  0  0  0  0  1  0  0  0  0  0  0
  195.4780  174.9200  137.9800 C   0  0  0  0  0  2  0  0  0  0  0  0
  196.7010  175.2440  137.1690 C   0  0  0  0  0  0  0  0  0  0  0  0
  197.7420  175.6610  137.7410 O   0  0  0  0  0  1  0  0  0  0  0  0
  196.6910  175.0670  135.7920 O   0  0  0  0  0  0  0  0  0  0  0  0
  189.9640  173.7790  143.3130 C   0  0  0  0  0  3  0  0  0  0  0  0
  189.6710  172.5710  143.7980 C   0  0  0  0  0  2  0  0  0  0  0  0
  1 16  1  0  0  0  0
  1 14  1  0  0  0  0
  1  9  1  0  0  0  0
  2  4  1  1  0  0  0
  2  5  1  0  0  0  0
  2 13  1  0  0  0  0
  3 11  1  0  0  0  0
  4  6  1  0  0  0  0
  5 14  1  0  0  0  0
  8 12  1  0  0  0  0
  8  5  1  0  0  0  0
 10 17  1  0  0  0  0
 11  7  1  0  0  0  0
 12  1  1  0  0  0  0
 13 11  1  0  0  0  0
 14  3  1  0  0  0  0
 15  6  1  0  0  0  0
 15 19  1  0  0  0  0
 15 17  1  0  0  0  0
 17 13  1  0  0  0  0
 18 24  2  0  0  0  0
 18 19  1  0  0  0  0
 19 20  2  0  0  0  0
 20 23  1  0  0  0  0
 22 23  2  0  0  0  0
 23 21  1  0  0  0  0
 24 22  1  0  0  0  0
 25 29  1  0  0  0  0
 26 30  1  0  0  0  0
 26 25  1  0  0  0  0
 27 29  1  0  0  0  0
 28 26  1  0  0  0  0
 28 27  1  0  0  0  0
 29  8  1  0  0  0  0
 30 31  1  0  0  0  0
 32 28  1  0  0  0  0
 33 34  1  0  0  0  0
 33 32  1  0  0  0  0
 35 33  2  0  0  0  0
 36 37  2  0  0  0  0
 36  6  1  0  0  0  0
M  END
>  <MODEL>
3

>  <REMARK>
 VINA RESULT:      -6.7      0.815      1.252
  Name = 
  6 active torsions:
  status: ('A' for Active; 'I' for Inactive)
    1  A    between atoms: C_5  and  C_12
    2  A    between atoms: C_6  and  C_31
    3  A    between atoms: C_7  and  C_14
    4  A    between atoms: C_11  and  C_26
    5  A    between atoms: C_20  and  C_36
    6  A    between atoms: C_26  and  N_33
                            x       y       z     vdW  Elec       q    Type
                         _______ _______ _______ _____ _____    ______ ____

>  <TORSDO>
F 6

$$$$
=
 OpenBabel11052419563D

 37 41  0  0  1  0  0  0  0  0999 V2000
  191.9380  173.4630  139.7160 C   0  0  0  0  0  0  0  0  0  0  0  0
  191.3130  174.4680  143.1170 C   0  0  2  0  0  3  0  0  0  0  0  0
  189.8500  173.7970  140.9570 C   0  0  0  0  0  2  0  0  0  0  0  0
  191.1180  175.9200  142.6350 C   0  0  0  0  0  2  0  0  0  0  0  0
  192.0360  173.5860  142.0760 C   0  0  2  0  0  3  0  0  0  0  0  0
  189.9700  176.6450  143.3370 C   0  0  1  0  0  3  0  0  0  0  0  0
  188.4850  172.2700  142.3830 C   0  0  0  0  0  1  0  0  0  0  0  0
  193.3690  174.0860  141.5110 C   0  0  1  0  0  3  0  0  0  0  0  0
  191.1390  174.0210  138.7090 O   0  0  0  0  0  1  0  0  0  0  0  0
  189.6010  173.7920  145.8680 C   0  0  0  0  0  1  0  0  0  0  0  0
  189.1380  173.6370  142.3110 C   0  0  1  0  0  3  0  0  0  0  0  0
  193.0420  174.4340  140.0810 C   0  0  0  0  0  2  0  0  0  0  0  0
  190.0390  173.8160  143.4650 N   0  0  2  0  0  0  0  0  0  0  0  0
  191.1780  173.1530  140.9470 N   0  0  2  0  0  0  0  0  0  0  0  0
  189.6130  176.0040  144.6880 C   0  0  2  0  0  3  0  0  0  0  0  0
  192.5130  172.2870  139.2300 O   0  0  0  0  0  1  0  0  0  0  0  0
  189.3180  174.4960  144.5530 C   0  0  2  0  0  3  0  0  0  0  0  0
  188.6220  177.2430  146.6260 C   0  0  0  0  0  3  0  0  0  0  0  0
  188.4550  176.6960  145.3490 C   0  0  0  0  0  0  0  0  0  0  0  0
  187.2110  176.8000  144.7070 C   0  0  0  0  0  3  0  0  0  0  0  0
  184.9480  177.5450  144.7170 F   0  0  0  0  0  0  0  0  0  0  0  0
  186.3190  177.9930  146.6140 C   0  0  0  0  0  3  0  0  0  0  0  0
  186.1460  177.4470  145.3390 C   0  0  0  0  0  0  0  0  0  0  0  0
  187.5560  177.8910  147.2580 C   0  0  0  0  0  3  0  0  0  0  0  0
  195.1360  175.8590  141.4140 C   0  0  0  0  0  2  0  0  0  0  0  0
  196.4430  175.2110  141.8370 C   0  0  1  0  0  3  0  0  0  0  0  0
  194.8180  174.6810  143.4620 C   0  0  0  0  0  2  0  0  0  0  0  0
  196.1910  174.4210  143.0400 N   0  0  0  0  0  0  0  0  0  0  0  0
  194.0610  175.2280  142.2690 C   0  0  2  0  0  3  0  0  0  0  0  0
  196.9610  174.3030  140.7340 C   0  0  0  0  0  2  0  0  0  0  0  0
  197.3260  175.0640  139.6220 O   0  0  0  0  0  1  0  0  0  0  0  0
  197.1270  174.7940  144.1110 C   0  0  0  0  0  2  0  0  0  0  0  0
  197.4320  173.6790  145.0720 C   0  0  0  0  0  0  0  0  0  0  0  0
  197.9410  172.6080  144.6510 O   0  0  0  0  0  0  0  0  0  0  0  0
  197.1710  173.8360  146.4270 O   0  0  0  0  0  1  0  0  0  0  0  0
  190.2880  178.1100  143.4560 C   0  0  0  0  0  3  0  0  0  0  0  0
  191.4990  178.5440  143.8110 C   0  0  0  0  0  2  0  0  0  0  0  0
  1 12  1  0  0  0  0
  1 14  1  0  0  0  0
  2  4  1  6  0  0  0
  2 13  1  0  0  0  0
  3 11  1  0  0  0  0
  4  6  1  0  0  0  0
  5  2  1  0  0  0  0
  6 36  1  0  0  0  0
  6 15  1  0  0  0  0
  8  5  1  0  0  0  0
  8 29  1  0  0  0  0
  9  1  1  0  0  0  0
 11  7  1  0  0  0  0
 11 13  1  0  0  0  0
 12  8  1  0  0  0  0
 13 17  1  0  0  0  0
 14  3  1  0  0  0  0
 14  5  1  0  0  0  0
 15 19  1  0  0  0  0
 16  1  1  0  0  0  0
 17 15  1  0  0  0  0
 17 10  1  0  0  0  0
 18 24  1  0  0  0  0
 19 18  2  0  0  0  0
 20 23  2  0  0  0  0
 20 19  1  0  0  0  0
 21 23  1  0  0  0  0
 22 24  2  0  0  0  0
 23 22  1  0  0  0  0
 25 26  1  0  0  0  0
 25 29  1  0  0  0  0
 26 28  1  0  0  0  0
 28 27  1  0  0  0  0
 28 32  1  0  0  0  0
 29 27  1  0  0  0  0
 30 26  1  0  0  0  0
 31 30  1  0  0  0  0
 32 33  1  0  0  0  0
 33 35  1  0  0  0  0
 34 33  2  0  0  0  0
 36 37  2  0  0  0  0
M  END
>  <MODEL>
4

>  <REMARK>
 VINA RESULT:      -6.6      2.306      4.986
  Name = 
  6 active torsions:
  status: ('A' for Active; 'I' for Inactive)
    1  A    between atoms: C_5  and  C_12
    2  A    between atoms: C_6  and  C_31
    3  A    between atoms: C_7  and  C_14
    4  A    between atoms: C_11  and  C_26
    5  A    between atoms: C_20  and  C_36
    6  A    between atoms: C_26  and  N_33
                            x       y       z     vdW  Elec       q    Type
                         _______ _______ _______ _____ _____    ______ ____

>  <TORSDO>
F 6

$$$$
=
 OpenBabel11052419563D

 37 41  0  0  1  0  0  0  0  0999 V2000
  194.5320  173.0000  144.6480 C   0  0  0  0  0  0  0  0  0  0  0  0
  192.3410  175.5520  143.3620 C   0  0  2  0  0  3  0  0  0  0  0  0
  192.7000  174.2500  145.6930 C   0  0  0  0  0  2  0  0  0  0  0  0
  191.2790  174.4720  143.0730 C   0  0  0  0  0  2  0  0  0  0  0  0
  193.7500  174.9600  143.5790 C   0  0  2  0  0  3  0  0  0  0  0  0
  189.8530  174.9160  143.4030 C   0  0  1  0  0  3  0  0  0  0  0  0
  192.6340  176.4340  146.8980 C   0  0  0  0  0  1  0  0  0  0  0  0
  194.3060  174.0160  142.5080 C   0  0  1  0  0  3  0  0  0  0  0  0
  193.9710  171.9940  145.4450 O   0  0  0  0  0  1  0  0  0  0  0  0
  191.0140  178.5270  143.9490 C   0  0  0  0  0  1  0  0  0  0  0  0
  191.9890  175.6100  145.8000 C   0  0  1  0  0  3  0  0  0  0  0  0
  194.3060  172.6700  143.1860 C   0  0  0  0  0  2  0  0  0  0  0  0
  192.0020  176.3720  144.5380 N   0  0  2  0  0  0  0  0  0  0  0  0
  193.9470  174.3330  144.9080 N   0  0  2  0  0  0  0  0  0  0  0  0
  189.7120  176.4470  143.4370 C   0  0  2  0  0  3  0  0  0  0  0  0
  195.9050  173.0520  144.8920 O   0  0  0  0  0  1  0  0  0  0  0  0
  190.7320  177.1020  144.3900 C   0  0  2  0  0  3  0  0  0  0  0  0
  187.5840  177.6600  142.9100 C   0  0  0  0  0  3  0  0  0  0  0  0
  188.3190  176.8730  143.8040 C   0  0  0  0  0  0  0  0  0  0  0  0
  187.7460  176.4970  145.0290 C   0  0  0  0  0  3  0  0  0  0  0  0
  185.9000  176.5400  146.5360 F   0  0  0  0  0  0  0  0  0  0  0  0
  185.7190  177.6890  144.4560 C   0  0  0  0  0  3  0  0  0  0  0  0
  186.4490  176.9040  145.3540 C   0  0  0  0  0  0  0  0  0  0  0  0
  186.2860  178.0670  143.2350 C   0  0  0  0  0  3  0  0  0  0  0  0
  193.7730  172.6750  140.4610 C   0  0  0  0  0  2  0  0  0  0  0  0
  194.9310  172.8540  139.4950 C   0  0  1  0  0  3  0  0  0  0  0  0
  194.2510  174.9970  140.2070 C   0  0  0  0  0  2  0  0  0  0  0  0
  195.2600  174.2760  139.4360 N   0  0  0  0  0  0  0  0  0  0  0  0
  193.5920  174.0090  141.1490 C   0  0  2  0  0  3  0  0  0  0  0  0
  196.1420  172.0730  139.9770 C   0  0  0  0  0  2  0  0  0  0  0  0
  197.0440  172.9330  140.6070 O   0  0  0  0  0  1  0  0  0  0  0  0
  195.2650  174.7510  138.0440 C   0  0  0  0  0  2  0  0  0  0  0  0
  196.5840  175.3140  137.5960 C   0  0  0  0  0  0  0  0  0  0  0  0
  197.5720  175.3000  138.3760 O   0  0  0  0  0  1  0  0  0  0  0  0
  196.7210  175.8340  136.3150 O   0  0  0  0  0  0  0  0  0  0  0  0
  188.8840  174.2650  142.4560 C   0  0  0  0  0  3  0  0  0  0  0  0
  189.0430  174.3180  141.1320 C   0  0  0  0  0  2  0  0  0  0  0  0
  1 16  1  0  0  0  0
  1 14  1  0  0  0  0
  1  9  1  0  0  0  0
  2  4  1  1  0  0  0
  2  5  1  0  0  0  0
  2 13  1  0  0  0  0
  3 11  1  0  0  0  0
  4  6  1  0  0  0  0
  5 14  1  0  0  0  0
  6 15  1  0  0  0  0
  8 12  1  0  0  0  0
  8  5  1  0  0  0  0
 10 17  1  0  0  0  0
 11  7  1  0  0  0  0
 12  1  1  0  0  0  0
 13 11  1  0  0  0  0
 14  3  1  0  0  0  0
 15 19  1  0  0  0  0
 15 17  1  0  0  0  0
 17 13  1  0  0  0  0
 18 24  2  0  0  0  0
 18 19  1  0  0  0  0
 19 20  2  0  0  0  0
 20 23  1  0  0  0  0
 22 23  2  0  0  0  0
 23 21  1  0  0  0  0
 24 22  1  0  0  0  0
 25 29  1  0  0  0  0
 26 30  1  0  0  0  0
 26 25  1  0  0  0  0
 27 29  1  0  0  0  0
 28 26  1  0  0  0  0
 28 27  1  0  0  0  0
 29  8  1  0  0  0  0
 30 31  1  0  0  0  0
 32 28  1  0  0  0  0
 33 32  1  0  0  0  0
 33 34  1  0  0  0  0
 35 33  2  0  0  0  0
 36  6  1  0  0  0  0
 37 36  2  0  0  0  0
M  END
>  <MODEL>
5

>  <REMARK>
 VINA RESULT:      -6.6      1.474      1.942
  Name = 
  6 active torsions:
  status: ('A' for Active; 'I' for Inactive)
    1  A    between atoms: C_5  and  C_12
    2  A    between atoms: C_6  and  C_31
    3  A    between atoms: C_7  and  C_14
    4  A    between atoms: C_11  and  C_26
    5  A    between atoms: C_20  and  C_36
    6  A    between atoms: C_26  and  N_33
                            x       y       z     vdW  Elec       q    Type
                         _______ _______ _______ _____ _____    ______ ____

>  <TORSDO>
F 6

$$$$
=
 OpenBabel11052419563D

 37 41  0  0  1  0  0  0  0  0999 V2000
  194.4730  172.9950  144.6180 C   0  0  0  0  0  0  0  0  0  0  0  0
  192.4260  175.6510  143.3050 C   0  0  2  0  0  3  0  0  0  0  0  0
  192.6530  174.2950  145.6220 C   0  0  0  0  0  2  0  0  0  0  0  0
  191.3350  174.6180  142.9590 C   0  0  0  0  0  2  0  0  0  0  0  0
  193.8040  175.0020  143.5600 C   0  0  2  0  0  3  0  0  0  0  0  0
  189.9160  175.1100  143.2480 C   0  0  1  0  0  3  0  0  0  0  0  0
  192.6270  176.4590  146.8660 C   0  0  0  0  0  1  0  0  0  0  0  0
  194.3610  174.0570  142.4920 C   0  0  1  0  0  3  0  0  0  0  0  0
  193.8470  171.9970  145.3760 O   0  0  0  0  0  1  0  0  0  0  0  0
  191.1920  178.6640  143.9020 C   0  0  0  0  0  1  0  0  0  0  0  0
  191.9910  175.6790  145.7300 C   0  0  1  0  0  3  0  0  0  0  0  0
  194.2870  172.6990  143.1430 C   0  0  0  0  0  2  0  0  0  0  0  0
  192.0770  176.4630  144.4840 N   0  0  2  0  0  0  0  0  0  0  0  0
  193.9300  174.3450  144.8830 N   0  0  2  0  0  0  0  0  0  0  0  0
  189.8310  176.6440  143.3050 C   0  0  2  0  0  3  0  0  0  0  0  0
  195.8380  172.9900  144.9110 O   0  0  0  0  0  1  0  0  0  0  0  0
  190.8410  177.2430  144.3050 C   0  0  2  0  0  3  0  0  0  0  0  0
  187.8820  176.7870  144.8720 C   0  0  0  0  0  3  0  0  0  0  0  0
  188.4430  177.1160  143.6330 C   0  0  0  0  0  0  0  0  0  0  0  0
  187.7020  177.8770  142.7160 C   0  0  0  0  0  3  0  0  0  0  0  0
  185.6990  179.0390  142.1520 F   0  0  0  0  0  0  0  0  0  0  0  0
  185.8560  177.9750  144.2790 C   0  0  0  0  0  3  0  0  0  0  0  0
  186.4110  178.3050  143.0390 C   0  0  0  0  0  0  0  0  0  0  0  0
  186.5910  177.2160  145.1950 C   0  0  0  0  0  3  0  0  0  0  0  0
  193.8720  172.7810  140.3910 C   0  0  0  0  0  2  0  0  0  0  0  0
  195.0680  172.9580  139.4720 C   0  0  1  0  0  3  0  0  0  0  0  0
  194.4090  175.0970  140.2170 C   0  0  0  0  0  2  0  0  0  0  0  0
  195.4290  174.3740  139.4620 N   0  0  0  0  0  0  0  0  0  0  0  0
  193.6960  174.1010  141.1080 C   0  0  2  0  0  3  0  0  0  0  0  0
  196.2440  172.1380  139.9750 C   0  0  0  0  0  2  0  0  0  0  0  0
  197.0680  172.9290  140.7770 O   0  0  0  0  0  1  0  0  0  0  0  0
  195.4940  174.8840  138.0850 C   0  0  0  0  0  2  0  0  0  0  0  0
  196.8730  175.2910  137.6480 C   0  0  0  0  0  0  0  0  0  0  0  0
  197.8740  174.9600  138.3360 O   0  0  0  0  0  1  0  0  0  0  0  0
  197.0480  176.0150  136.4760 O   0  0  0  0  0  0  0  0  0  0  0  0
  188.9580  174.5130  142.2550 C   0  0  0  0  0  3  0  0  0  0  0  0
  189.3380  174.1650  141.0240 C   0  0  0  0  0  2  0  0  0  0  0  0
  1 14  1  0  0  0  0
  1 16  1  0  0  0  0
  1  9  1  0  0  0  0
  2  4  1  1  0  0  0
  2  5  1  0  0  0  0
  2 13  1  0  0  0  0
  3 11  1  0  0  0  0
  4  6  1  0  0  0  0
  5 14  1  0  0  0  0
  6 15  1  0  0  0  0
  8 12  1  0  0  0  0
  8  5  1  0  0  0  0
 10 17  1  0  0  0  0
 11  7  1  0  0  0  0
 12  1  1  0  0  0  0
 13 11  1  0  0  0  0
 14  3  1  0  0  0  0
 15 19  1  0  0  0  0
 15 17  1  0  0  0  0
 17 13  1  0  0  0  0
 18 24  1  0  0  0  0
 19 18  2  0  0  0  0
 20 23  2  0  0  0  0
 20 19  1  0  0  0  0
 21 23  1  0  0  0  0
 22 24  2  0  0  0  0
 23 22  1  0  0  0  0
 25 29  1  0  0  0  0
 26 30  1  0  0  0  0
 26 25  1  0  0  0  0
 27 29  1  0  0  0  0
 28 26  1  0  0  0  0
 28 27  1  0  0  0  0
 29  8  1  0  0  0  0
 30 31  1  0  0  0  0
 32 28  1  0  0  0  0
 33 32  1  0  0  0  0
 33 34  1  0  0  0  0
 35 33  2  0  0  0  0
 36  6  1  0  0  0  0
 37 36  2  0  0  0  0
M  END
>  <MODEL>
6

>  <REMARK>
 VINA RESULT:      -6.5      1.518      1.841
  Name = 
  6 active torsions:
  status: ('A' for Active; 'I' for Inactive)
    1  A    between atoms: C_5  and  C_12
    2  A    between atoms: C_6  and  C_31
    3  A    between atoms: C_7  and  C_14
    4  A    between atoms: C_11  and  C_26
    5  A    between atoms: C_20  and  C_36
    6  A    between atoms: C_26  and  N_33
                            x       y       z     vdW  Elec       q    Type
                         _______ _______ _______ _____ _____    ______ ____

>  <TORSDO>
F 6

$$$$
=
 OpenBabel11052419563D

 37 41  0  0  1  0  0  0  0  0999 V2000
  191.7420  172.8960  140.1540 C   0  0  0  0  0  0  0  0  0  0  0  0
  191.1370  174.6550  143.2370 C   0  0  2  0  0  3  0  0  0  0  0  0
  189.7470  173.0610  141.5690 C   0  0  0  0  0  2  0  0  0  0  0  0
  190.5160  175.8160  142.4340 C   0  0  0  0  0  2  0  0  0  0  0  0
  191.9890  173.7120  142.3600 C   0  0  2  0  0  3  0  0  0  0  0  0
  189.2710  176.4140  143.0920 C   0  0  1  0  0  3  0  0  0  0  0  0
  188.9670  171.7270  143.5290 C   0  0  0  0  0  1  0  0  0  0  0  0
  193.0850  174.3340  141.4910 C   0  0  1  0  0  3  0  0  0  0  0  0
  190.7450  172.9330  139.1700 O   0  0  0  0  0  1  0  0  0  0  0  0
  189.8960  174.4070  146.2960 C   0  0  0  0  0  1  0  0  0  0  0  0
  189.2140  173.1310  143.0100 C   0  0  1  0  0  3  0  0  0  0  0  0
  192.5640  174.1680  140.0860 C   0  0  0  0  0  2  0  0  0  0  0  0
  190.1200  173.8450  143.9290 N   0  0  2  0  0  0  0  0  0  0  0  0
  191.1950  172.7800  141.5230 N   0  0  2  0  0  0  0  0  0  0  0  0
  189.2110  176.1220  144.6000 C   0  0  2  0  0  3  0  0  0  0  0  0
  192.5760  171.8050  139.9050 O   0  0  0  0  0  1  0  0  0  0  0  0
  189.3290  174.6140  144.9030 C   0  0  2  0  0  3  0  0  0  0  0  0
  186.7230  176.4120  144.6360 C   0  0  0  0  0  3  0  0  0  0  0  0
  187.9630  176.6760  145.2290 C   0  0  0  0  0  0  0  0  0  0  0  0
  188.0240  177.4540  146.3950 C   0  0  0  0  0  3  0  0  0  0  0  0
  186.9140  178.7110  148.0880 F   0  0  0  0  0  0  0  0  0  0  0  0
  185.6150  177.6930  146.3680 C   0  0  0  0  0  3  0  0  0  0  0  0
  186.8520  177.9610  146.9630 C   0  0  0  0  0  0  0  0  0  0  0  0
  185.5500  176.9190  145.2050 C   0  0  0  0  0  3  0  0  0  0  0  0
  194.8220  176.1110  141.1700 C   0  0  0  0  0  2  0  0  0  0  0  0
  195.8770  175.9050  142.2430 C   0  0  1  0  0  3  0  0  0  0  0  0
  193.7690  175.9220  143.3000 C   0  0  0  0  0  2  0  0  0  0  0  0
  195.1950  175.6970  143.5180 N   0  0  0  0  0  0  0  0  0  0  0  0
  193.4970  175.7770  141.8170 C   0  0  2  0  0  3  0  0  0  0  0  0
  196.7260  174.6870  141.9180 C   0  0  0  0  0  2  0  0  0  0  0  0
  196.3670  173.6210  142.7450 O   0  0  0  0  0  1  0  0  0  0  0  0
  195.7020  176.6290  144.5360 C   0  0  0  0  0  2  0  0  0  0  0  0
  195.0060  176.5230  145.8640 C   0  0  0  0  0  0  0  0  0  0  0  0
  194.5020  177.5480  146.3930 O   0  0  0  0  0  0  0  0  0  0  0  0
  194.9000  175.2930  146.5000 O   0  0  0  0  0  1  0  0  0  0  0  0
  189.1870  177.8830  142.7820 C   0  0  0  0  0  3  0  0  0  0  0  0
  188.4790  178.3490  141.7510 C   0  0  0  0  0  2  0  0  0  0  0  0
  1 14  1  0  0  0  0
  2  4  1  6  0  0  0
  2 13  1  0  0  0  0
  3 11  1  0  0  0  0
  4  6  1  0  0  0  0
  5  2  1  0  0  0  0
  6 15  1  0  0  0  0
  8 29  1  0  0  0  0
  8  5  1  0  0  0  0
  9  1  1  0  0  0  0
 11  7  1  0  0  0  0
 11 13  1  0  0  0  0
 12  1  1  0  0  0  0
 12  8  1  0  0  0  0
 13 17  1  0  0  0  0
 14  3  1  0  0  0  0
 14  5  1  0  0  0  0
 15 17  1  0  0  0  0
 15 19  1  0  0  0  0
 16  1  1  0  0  0  0
 17 10  1  0  0  0  0
 18 24  2  0  0  0  0
 18 19  1  0  0  0  0
 19 20  2  0  0  0  0
 20 23  1  0  0  0  0
 22 23  2  0  0  0  0
 23 21  1  0  0  0  0
 24 22  1  0  0  0  0
 25 29  1  0  0  0  0
 25 26  1  0  0  0  0
 26 28  1  0  0  0  0
 27 28  1  0  0  0  0
 28 32  1  0  0  0  0
 29 27  1  0  0  0  0
 30 26  1  0  0  0  0
 30 31  1  0  0  0  0
 32 33  1  0  0  0  0
 33 34  2  0  0  0  0
 33 35  1  0  0  0  0
 36  6  1  0  0  0  0
 37 36  2  0  0  0  0
M  END
>  <MODEL>
7

>  <REMARK>
 VINA RESULT:      -6.5      2.667      5.259
  Name = 
  6 active torsions:
  status: ('A' for Active; 'I' for Inactive)
    1  A    between atoms: C_5  and  C_12
    2  A    between atoms: C_6  and  C_31
    3  A    between atoms: C_7  and  C_14
    4  A    between atoms: C_11  and  C_26
    5  A    between atoms: C_20  and  C_36
    6  A    between atoms: C_26  and  N_33
                            x       y       z     vdW  Elec       q    Type
                         _______ _______ _______ _____ _____    ______ ____

>  <TORSDO>
F 6

$$$$
=
 OpenBabel11052419563D

 37 41  0  0  1  0  0  0  0  0999 V2000
  193.2460  172.0860  143.5140 C   0  0  0  0  0  0  0  0  0  0  0  0
  191.5170  175.1770  142.8600 C   0  0  2  0  0  3  0  0  0  0  0  0
  192.0010  173.5970  144.9880 C   0  0  0  0  0  2  0  0  0  0  0  0
  190.1940  174.3930  142.7450 C   0  0  0  0  0  2  0  0  0  0  0  0
  192.7600  174.2680  142.7420 C   0  0  2  0  0  3  0  0  0  0  0  0
  189.0060  175.1060  143.3920 C   0  0  1  0  0  3  0  0  0  0  0  0
  192.6890  175.6090  146.2970 C   0  0  0  0  0  1  0  0  0  0  0  0
  192.8590  173.3390  141.5290 C   0  0  1  0  0  3  0  0  0  0  0  0
  192.6280  171.1530  144.3560 O   0  0  0  0  0  1  0  0  0  0  0  0
  191.0730  178.2960  143.8740 C   0  0  0  0  0  1  0  0  0  0  0  0
  191.6670  175.0630  145.3170 C   0  0  1  0  0  3  0  0  0  0  0  0
  192.6700  171.9640  142.1170 C   0  0  0  0  0  2  0  0  0  0  0  0
  191.6160  175.9280  144.1230 N   0  0  2  0  0  0  0  0  0  0  0  0
  193.0560  173.4830  143.9630 N   0  0  2  0  0  0  0  0  0  0  0  0
  189.2410  176.6180  143.5370 C   0  0  2  0  0  3  0  0  0  0  0  0
  194.6130  171.8080  143.4650 O   0  0  0  0  0  1  0  0  0  0  0  0
  190.5520  176.9310  144.2870 C   0  0  2  0  0  3  0  0  0  0  0  0
  187.7850  176.9830  145.5430 C   0  0  0  0  0  3  0  0  0  0  0  0
  188.0870  177.3020  144.2140 C   0  0  0  0  0  0  0  0  0  0  0  0
  187.3070  178.2500  143.5340 C   0  0  0  0  0  3  0  0  0  0  0  0
  185.4860  179.7880  143.5220 F   0  0  0  0  0  0  0  0  0  0  0  0
  185.9410  178.5530  145.5090 C   0  0  0  0  0  3  0  0  0  0  0  0
  186.2360  178.8740  144.1810 C   0  0  0  0  0  0  0  0  0  0  0  0
  186.7140  177.6070  146.1900 C   0  0  0  0  0  3  0  0  0  0  0  0
  191.3020  172.3460  139.8350 C   0  0  0  0  0  2  0  0  0  0  0  0
  192.1460  171.9290  138.6430 C   0  0  1  0  0  3  0  0  0  0  0  0
  192.6990  174.1600  139.1700 C   0  0  0  0  0  2  0  0  0  0  0  0
  193.0560  173.0260  138.3220 N   0  0  0  0  0  0  0  0  0  0  0  0
  191.9150  173.6280  140.3520 C   0  0  2  0  0  3  0  0  0  0  0  0
  192.9510  170.6840  138.9790 C   0  0  0  0  0  2  0  0  0  0  0  0
  192.0970  169.6630  139.3980 O   0  0  0  0  0  1  0  0  0  0  0  0
  192.9390  173.4000  136.9050 C   0  0  0  0  0  2  0  0  0  0  0  0
  191.9150  174.4670  136.6360 C   0  0  0  0  0  0  0  0  0  0  0  0
  190.6900  174.1790  136.6510 O   0  0  0  0  0  1  0  0  0  0  0  0
  192.3170  175.7730  136.3890 O   0  0  0  0  0  0  0  0  0  0  0  0
  187.7460  174.7840  142.6380 C   0  0  0  0  0  3  0  0  0  0  0  0
  187.6750  173.7650  141.7780 C   0  0  0  0  0  2  0  0  0  0  0  0
  1 14  1  0  0  0  0
  1  9  1  0  0  0  0
  2  4  1  1  0  0  0
  2 13  1  0  0  0  0
  3 11  1  0  0  0  0
  4  6  1  0  0  0  0
  5  2  1  0  0  0  0
  5 14  1  0  0  0  0
  6 15  1  0  0  0  0
  8 12  1  0  0  0  0
  8  5  1  0  0  0  0
 10 17  1  0  0  0  0
 11  7  1  0  0  0  0
 12  1  1  0  0  0  0
 13 17  1  0  0  0  0
 13 11  1  0  0  0  0
 14  3  1  0  0  0  0
 15 19  1  0  0  0  0
 15 17  1  0  0  0  0
 16  1  1  0  0  0  0
 18 24  1  0  0  0  0
 19 18  2  0  0  0  0
 20 23  2  0  0  0  0
 20 19  1  0  0  0  0
 21 23  1  0  0  0  0
 22 24  2  0  0  0  0
 23 22  1  0  0  0  0
 25 29  1  0  0  0  0
 26 30  1  0  0  0  0
 26 25  1  0  0  0  0
 27 29  1  0  0  0  0
 28 26  1  0  0  0  0
 28 27  1  0  0  0  0
 29  8  1  0  0  0  0
 30 31  1  0  0  0  0
 32 28  1  0  0  0  0
 33 34  1  0  0  0  0
 33 32  1  0  0  0  0
 35 33  2  0  0  0  0
 36  6  1  0  0  0  0
 37 36  2  0  0  0  0
M  END
>  <MODEL>
8

>  <REMARK>
 VINA RESULT:      -6.2      2.831      3.330
  Name = 
  6 active torsions:
  status: ('A' for Active; 'I' for Inactive)
    1  A    between atoms: C_5  and  C_12
    2  A    between atoms: C_6  and  C_31
    3  A    between atoms: C_7  and  C_14
    4  A    between atoms: C_11  and  C_26
    5  A    between atoms: C_20  and  C_36
    6  A    between atoms: C_26  and  N_33
                            x       y       z     vdW  Elec       q    Type
                         _______ _______ _______ _____ _____    ______ ____

>  <TORSDO>
F 6

$$$$
=
 OpenBabel11052419563D

 37 41  0  0  1  0  0  0  0  0999 V2000
  195.4960  173.4970  144.5260 C   0  0  0  0  0  0  0  0  0  0  0  0
  192.6740  175.5270  143.5860 C   0  0  2  0  0  3  0  0  0  0  0  0
  193.7590  174.5900  145.8670 C   0  0  0  0  0  2  0  0  0  0  0  0
  191.7730  174.2780  143.6560 C   0  0  0  0  0  2  0  0  0  0  0  0
  194.1760  175.1750  143.5090 C   0  0  2  0  0  3  0  0  0  0  0  0
  190.4020  174.5500  144.2780 C   0  0  1  0  0  3  0  0  0  0  0  0
  193.5950  176.8740  146.8580 C   0  0  0  0  0  1  0  0  0  0  0  0
  194.6300  174.1960  142.4230 C   0  0  1  0  0  3  0  0  0  0  0  0
  195.3050  172.5270  145.5190 O   0  0  0  0  0  1  0  0  0  0  0  0
  191.0280  178.3300  144.2130 C   0  0  0  0  0  1  0  0  0  0  0  0
  192.8700  175.8360  146.0230 C   0  0  1  0  0  3  0  0  0  0  0  0
  195.0090  172.9580  143.1960 C   0  0  0  0  0  2  0  0  0  0  0  0
  192.4720  176.4300  144.7330 N   0  0  2  0  0  0  0  0  0  0  0  0
  194.7670  174.7540  144.8020 N   0  0  2  0  0  0  0  0  0  0  0  0
  190.0150  176.0370  144.2110 C   0  0  2  0  0  3  0  0  0  0  0  0
  196.8600  173.7760  144.4290 O   0  0  0  0  0  1  0  0  0  0  0  0
  191.0970  176.9440  144.8310 C   0  0  2  0  0  3  0  0  0  0  0  0
  188.5770  176.1980  146.2550 C   0  0  0  0  0  3  0  0  0  0  0  0
  188.6880  176.3000  144.8640 C   0  0  0  0  0  0  0  0  0  0  0  0
  187.5610  176.6410  144.1010 C   0  0  0  0  0  3  0  0  0  0  0  0
  185.2490  177.2080  143.9880 F   0  0  0  0  0  0  0  0  0  0  0  0
  186.2290  176.7790  146.1180 C   0  0  0  0  0  3  0  0  0  0  0  0
  186.3340  176.8800  144.7270 C   0  0  0  0  0  0  0  0  0  0  0  0
  187.3500  176.4380  146.8820 C   0  0  0  0  0  3  0  0  0  0  0  0
  193.9750  172.6100  140.5980 C   0  0  0  0  0  2  0  0  0  0  0  0
  194.7990  172.9720  139.3740 C   0  0  1  0  0  3  0  0  0  0  0  0
  193.8050  174.9520  140.1850 C   0  0  0  0  0  2  0  0  0  0  0  0
  194.7500  174.4230  139.2060 N   0  0  0  0  0  0  0  0  0  0  0  0
  193.6430  173.9180  141.2810 C   0  0  2  0  0  3  0  0  0  0  0  0
  196.2400  172.5310  139.5610 C   0  0  0  0  0  2  0  0  0  0  0  0
  197.0420  173.6350  139.8570 O   0  0  0  0  0  1  0  0  0  0  0  0
  194.3170  174.7740  137.8460 C   0  0  0  0  0  2  0  0  0  0  0  0
  193.2310  173.8880  137.3020 C   0  0  0  0  0  0  0  0  0  0  0  0
  193.5150  172.9790  136.4800 O   0  0  0  0  0  0  0  0  0  0  0  0
  191.9180  174.0600  137.7190 O   0  0  0  0  0  1  0  0  0  0  0  0
  189.3710  173.6530  143.6510 C   0  0  0  0  0  3  0  0  0  0  0  0
  189.7060  172.5490  142.9800 C   0  0  0  0  0  2  0  0  0  0  0  0
  1 14  1  0  0  0  0
  1  9  1  0  0  0  0
  2  4  1  1  0  0  0
  2 13  1  0  0  0  0
  3 11  1  0  0  0  0
  4  6  1  0  0  0  0
  5  2  1  0  0  0  0
  5 14  1  0  0  0  0
  8 12  1  0  0  0  0
  8  5  1  0  0  0  0
 10 17  1  0  0  0  0
 11  7  1  0  0  0  0
 12  1  1  0  0  0  0
 13 17  1  0  0  0  0
 13 11  1  0  0  0  0
 14  3  1  0  0  0  0
 15  6  1  0  0  0  0
 15 17  1  0  0  0  0
 15 19  1  0  0  0  0
 16  1  1  0  0  0  0
 18 24  1  0  0  0  0
 19 18  2  0  0  0  0
 20 23  2  0  0  0  0
 20 19  1  0  0  0  0
 21 23  1  0  0  0  0
 22 24  2  0  0  0  0
 23 22  1  0  0  0  0
 25 29  1  0  0  0  0
 26 30  1  0  0  0  0
 26 25  1  0  0  0  0
 27 29  1  0  0  0  0
 28 26  1  0  0  0  0
 28 27  1  0  0  0  0
 29  8  1  0  0  0  0
 30 31  1  0  0  0  0
 32 28  1  0  0  0  0
 33 35  1  0  0  0  0
 33 32  1  0  0  0  0
 34 33  2  0  0  0  0
 36  6  1  0  0  0  0
 37 36  2  0  0  0  0
M  END
>  <MODEL>
9

>  <REMARK>
 VINA RESULT:      -6.1      1.321      1.499
  Name = 
  6 active torsions:
  status: ('A' for Active; 'I' for Inactive)
    1  A    between atoms: C_5  and  C_12
    2  A    between atoms: C_6  and  C_31
    3  A    between atoms: C_7  and  C_14
    4  A    between atoms: C_11  and  C_26
    5  A    between atoms: C_20  and  C_36
    6  A    between atoms: C_26  and  N_33
                            x       y       z     vdW  Elec       q    Type
                         _______ _______ _______ _____ _____    ______ ____

>  <TORSDO>
F 6

$$$$
