=
 OpenBabel11052418263D

 27 31  0  0  1  0  0  0  0  0999 V2000
  187.3460  176.7270  142.5130 N   0  0  0  0  0  2  0  0  0  0  0  0
  188.8900  176.5950  144.3990 C   0  0  0  0  0  0  0  0  0  0  0  0
  189.5970  174.8630  142.8160 N   0  0  0  0  0  2  0  0  0  0  0  0
  192.5680  176.2530  146.4970 C   0  0  0  0  0  3  0  0  0  0  0  0
  194.8590  175.5000  146.5480 O   0  0  0  0  0  1  0  0  0  0  0  0
  189.2640  177.6190  145.4480 C   0  0  0  0  0  2  0  0  0  0  0  0
  192.2160  174.9890  144.0250 C   0  0  0  0  0  3  0  0  0  0  0  0
  188.4540  174.2570  139.4900 C   0  0  0  0  0  0  0  0  0  0  0  0
  193.4530  174.9300  144.6720 C   0  0  0  0  0  3  0  0  0  0  0  0
  188.7340  173.3090  138.3800 C   0  0  0  0  0  1  0  0  0  0  0  0
  191.1460  175.6860  144.6060 C   0  0  0  0  0  0  0  0  0  0  0  0
  187.4740  176.4590  143.9370 C   0  0  1  0  0  3  0  0  0  0  0  0
  193.6300  175.5620  145.9060 C   0  0  0  0  0  0  0  0  0  0  0  0
  191.3330  176.3260  145.8480 C   0  0  0  0  0  0  0  0  0  0  0  0
  187.8770  176.0190  141.5640 C   0  0  0  0  0  0  0  0  0  0  0  0
  189.8250  175.7490  143.9290 C   0  0  0  0  0  0  0  0  0  0  0  0
  189.0440  174.0610  140.7370 C   0  0  0  0  0  3  0  0  0  0  0  0
  190.1800  177.0140  146.5090 C   0  0  0  0  0  2  0  0  0  0  0  0
  187.6740  175.3450  139.2720 N   0  0  0  0  0  0  0  0  0  0  0  0
  187.3730  176.2120  140.2730 C   0  0  0  0  0  3  0  0  0  0  0  0
  188.8060  174.9610  141.7810 C   0  0  0  0  0  0  0  0  0  0  0  0
  184.5970  178.7880  146.1310 C   0  0  0  0  0  3  0  0  0  0  0  0
  186.4800  177.2640  144.7220 C   0  0  0  0  0  0  0  0  0  0  0  0
  186.1900  178.5720  144.3170 C   0  0  0  0  0  3  0  0  0  0  0  0
  185.2520  179.3330  145.0210 C   0  0  0  0  0  3  0  0  0  0  0  0
  184.8800  177.4790  146.5350 C   0  0  0  0  0  3  0  0  0  0  0  0
  185.8180  176.7170  145.8320 C   0  0  0  0  0  3  0  0  0  0  0  0
  1 12  1  0  0  0  0
  2  6  1  0  0  0  0
  3 16  1  0  0  0  0
  6 18  1  0  0  0  0
  7 11  2  0  0  0  0
  7  9  1  0  0  0  0
  8 17  1  0  0  0  0
  9 13  2  0  0  0  0
 10  8  1  0  0  0  0
 11 14  1  0  0  0  0
 12  2  1  0  0  0  0
 12 23  1  1  0  0  0
 13  4  1  0  0  0  0
 13  5  1  0  0  0  0
 14  4  2  0  0  0  0
 14 18  1  0  0  0  0
 15 21  1  0  0  0  0
 15  1  1  0  0  0  0
 16  2  2  0  0  0  0
 16 11  1  0  0  0  0
 17 21  2  0  0  0  0
 19  8  2  0  0  0  0
 19 20  1  0  0  0  0
 20 15  2  0  0  0  0
 21  3  1  0  0  0  0
 22 26  1  0  0  0  0
 23 27  1  0  0  0  0
 24 23  2  0  0  0  0
 24 25  1  0  0  0  0
 25 22  2  0  0  0  0
 27 26  2  0  0  0  0
M  END
>  <MODEL>
1

>  <REMARK>
 VINA RESULT:      -8.7      0.000      0.000
  Name = 
  1 active torsions:
  status: ('A' for Active; 'I' for Inactive)
    1  A    between atoms: C_9  and  C_15
                            x       y       z     vdW  Elec       q    Type
                         _______ _______ _______ _____ _____    ______ ____

>  <TORSDO>
F 1

$$$$
=
 OpenBabel11052418263D

 27 31  0  0  1  0  0  0  0  0999 V2000
  191.1110  174.3780  143.1870 N   0  0  0  0  0  2  0  0  0  0  0  0
  190.0110  175.8780  144.7670 C   0  0  0  0  0  0  0  0  0  0  0  0
  188.6360  175.8970  142.7380 N   0  0  0  0  0  2  0  0  0  0  0  0
  186.8760  177.7090  146.9730 C   0  0  0  0  0  3  0  0  0  0  0  0
  184.5420  178.2910  147.1570 O   0  0  0  0  0  1  0  0  0  0  0  0
  190.0920  175.9620  146.2760 C   0  0  0  0  0  2  0  0  0  0  0  0
  186.4210  176.7410  144.3860 C   0  0  0  0  0  3  0  0  0  0  0  0
  188.8930  173.8440  139.8310 C   0  0  0  0  0  0  0  0  0  0  0  0
  185.3660  177.2760  145.1300 C   0  0  0  0  0  3  0  0  0  0  0  0
  188.1910  173.6740  138.5310 C   0  0  0  0  0  1  0  0  0  0  0  0
  187.7110  176.6800  144.9320 C   0  0  0  0  0  0  0  0  0  0  0  0
  191.2360  175.6090  143.9510 C   0  0  1  0  0  3  0  0  0  0  0  0
  185.5920  177.7580  146.4220 C   0  0  0  0  0  0  0  0  0  0  0  0
  187.9320  177.1630  146.2380 C   0  0  0  0  0  0  0  0  0  0  0  0
  190.2550  174.1680  142.2350 C   0  0  0  0  0  0  0  0  0  0  0  0
  188.8410  176.1190  144.1480 C   0  0  0  0  0  0  0  0  0  0  0  0
  188.5550  174.9030  140.6710 C   0  0  0  0  0  3  0  0  0  0  0  0
  189.3170  177.1660  146.8050 C   0  0  0  0  0  2  0  0  0  0  0  0
  189.8190  172.9350  140.2250 N   0  0  0  0  0  0  0  0  0  0  0  0
  190.5010  173.0800  141.3910 C   0  0  0  0  0  3  0  0  0  0  0  0
  189.1920  175.0580  141.9060 C   0  0  0  0  0  0  0  0  0  0  0  0
  194.9410  175.6110  146.1380 C   0  0  0  0  0  3  0  0  0  0  0  0
  192.5200  175.6260  144.7280 C   0  0  0  0  0  0  0  0  0  0  0  0
  193.1190  174.4130  145.0820 C   0  0  0  0  0  3  0  0  0  0  0  0
  194.3270  174.4050  145.7870 C   0  0  0  0  0  3  0  0  0  0  0  0
  194.3490  176.8260  145.7810 C   0  0  0  0  0  3  0  0  0  0  0  0
  193.1420  176.8350  145.0760 C   0  0  0  0  0  3  0  0  0  0  0  0
  1 12  1  0  0  0  0
  2  6  1  0  0  0  0
  3 16  1  0  0  0  0
  6 18  1  0  0  0  0
  7 11  2  0  0  0  0
  7  9  1  0  0  0  0
  8 19  2  0  0  0  0
  8 17  1  0  0  0  0
  9 13  2  0  0  0  0
 10  8  1  0  0  0  0
 11 14  1  0  0  0  0
 12 23  1  1  0  0  0
 12  2  1  0  0  0  0
 13  4  1  0  0  0  0
 13  5  1  0  0  0  0
 14 18  1  0  0  0  0
 14  4  2  0  0  0  0
 15  1  1  0  0  0  0
 16  2  2  0  0  0  0
 16 11  1  0  0  0  0
 17 21  2  0  0  0  0
 19 20  1  0  0  0  0
 20 15  2  0  0  0  0
 21 15  1  0  0  0  0
 21  3  1  0  0  0  0
 23 27  2  0  0  0  0
 23 24  1  0  0  0  0
 24 25  2  0  0  0  0
 25 22  1  0  0  0  0
 26 22  2  0  0  0  0
 27 26  1  0  0  0  0
M  END
>  <MODEL>
2

>  <REMARK>
 VINA RESULT:      -8.3      2.456      5.822
  Name = 
  1 active torsions:
  status: ('A' for Active; 'I' for Inactive)
    1  A    between atoms: C_9  and  C_15
                            x       y       z     vdW  Elec       q    Type
                         _______ _______ _______ _____ _____    ______ ____

>  <TORSDO>
F 1

$$$$
=
 OpenBabel11052418263D

 27 31  0  0  1  0  0  0  0  0999 V2000
  188.8520  176.8970  145.8340 N   0  0  0  0  0  2  0  0  0  0  0  0
  188.3040  176.2690  143.5400 C   0  0  0  0  0  0  0  0  0  0  0  0
  190.7490  176.2070  143.6980 N   0  0  0  0  0  2  0  0  0  0  0  0
  188.4340  174.1200  139.8770 C   0  0  0  0  0  3  0  0  0  0  0  0
  189.6620  172.7260  138.3390 O   0  0  0  0  0  1  0  0  0  0  0  0
  187.0320  175.7080  142.9420 C   0  0  0  0  0  2  0  0  0  0  0  0
  190.7340  174.3980  141.4480 C   0  0  0  0  0  3  0  0  0  0  0  0
  192.8220  176.5180  146.5860 C   0  0  0  0  0  0  0  0  0  0  0  0
  190.7700  173.6280  140.2820 C   0  0  0  0  0  3  0  0  0  0  0  0
  194.2720  176.5020  146.9140 C   0  0  0  0  0  1  0  0  0  0  0  0
  189.5450  175.0300  141.8420 C   0  0  0  0  0  0  0  0  0  0  0  0
  188.2490  177.3370  144.5860 C   0  0  1  0  0  3  0  0  0  0  0  0
  189.6220  173.4890  139.4980 C   0  0  0  0  0  0  0  0  0  0  0  0
  188.3890  174.8800  141.0500 C   0  0  0  0  0  0  0  0  0  0  0  0
  190.1040  176.5970  146.0000 C   0  0  0  0  0  0  0  0  0  0  0  0
  189.4970  175.8550  143.0760 C   0  0  0  0  0  0  0  0  0  0  0  0
  192.4090  176.5030  145.2550 C   0  0  0  0  0  3  0  0  0  0  0  0
  187.1340  175.6040  141.4230 C   0  0  0  0  0  2  0  0  0  0  0  0
  191.9020  176.4860  147.5820 N   0  0  0  0  0  0  0  0  0  0  0  0
  190.5710  176.5330  147.3170 C   0  0  0  0  0  3  0  0  0  0  0  0
  191.0480  176.4940  144.9370 C   0  0  0  0  0  0  0  0  0  0  0  0
  184.3420  178.9730  145.3400 C   0  0  0  0  0  3  0  0  0  0  0  0
  186.8810  177.9060  144.8260 C   0  0  0  0  0  0  0  0  0  0  0  0
  186.1180  177.4200  145.8930 C   0  0  0  0  0  3  0  0  0  0  0  0
  184.8500  177.9510  146.1490 C   0  0  0  0  0  3  0  0  0  0  0  0
  185.1040  179.4660  144.2760 C   0  0  0  0  0  3  0  0  0  0  0  0
  186.3720  178.9360  144.0200 C   0  0  0  0  0  3  0  0  0  0  0  0
  1 15  1  0  0  0  0
  2 12  1  0  0  0  0
  3 21  1  0  0  0  0
  4 14  1  0  0  0  0
  5 13  1  0  0  0  0
  6  2  1  0  0  0  0
  7 11  1  0  0  0  0
  8 10  1  0  0  0  0
  8 19  1  0  0  0  0
  9  7  2  0  0  0  0
 11 16  1  0  0  0  0
 12 23  1  1  0  0  0
 12  1  1  0  0  0  0
 13  4  2  0  0  0  0
 13  9  1  0  0  0  0
 14 18  1  0  0  0  0
 14 11  2  0  0  0  0
 15 20  1  0  0  0  0
 16  2  2  0  0  0  0
 16  3  1  0  0  0  0
 17  8  2  0  0  0  0
 18  6  1  0  0  0  0
 20 19  2  0  0  0  0
 21 17  1  0  0  0  0
 21 15  2  0  0  0  0
 22 25  1  0  0  0  0
 23 24  1  0  0  0  0
 24 25  2  0  0  0  0
 26 22  2  0  0  0  0
 27 26  1  0  0  0  0
 27 23  2  0  0  0  0
M  END
>  <MODEL>
3

>  <REMARK>
 VINA RESULT:      -8.2      2.547      5.532
  Name = 
  1 active torsions:
  status: ('A' for Active; 'I' for Inactive)
    1  A    between atoms: C_9  and  C_15
                            x       y       z     vdW  Elec       q    Type
                         _______ _______ _______ _____ _____    ______ ____

>  <TORSDO>
F 1

$$$$
=
 OpenBabel11052418263D

 27 31  0  0  1  0  0  0  0  0999 V2000
  187.6840  176.1950  141.8290 N   0  0  0  0  0  2  0  0  0  0  0  0
  189.0750  176.4330  143.8190 C   0  0  0  0  0  0  0  0  0  0  0  0
  189.8130  174.3740  142.7140 N   0  0  0  0  0  2  0  0  0  0  0  0
  192.5670  176.4470  146.2400 C   0  0  0  0  0  3  0  0  0  0  0  0
  194.8080  175.6520  146.6420 O   0  0  0  0  0  1  0  0  0  0  0  0
  189.4210  177.6510  144.6480 C   0  0  0  0  0  2  0  0  0  0  0  0
  192.3370  174.6810  144.0800 C   0  0  0  0  0  3  0  0  0  0  0  0
  188.8900  173.0850  139.5170 C   0  0  0  0  0  0  0  0  0  0  0  0
  193.5190  174.7270  144.8250 C   0  0  0  0  0  3  0  0  0  0  0  0
  189.2050  171.9080  138.6660 C   0  0  0  0  0  1  0  0  0  0  0  0
  191.2630  175.5210  144.4050 C   0  0  0  0  0  0  0  0  0  0  0  0
  187.6920  176.2430  143.2820 C   0  0  1  0  0  3  0  0  0  0  0  0
  193.6340  175.6100  145.9030 C   0  0  0  0  0  0  0  0  0  0  0  0
  191.3880  176.4140  145.4900 C   0  0  0  0  0  0  0  0  0  0  0  0
  188.2480  175.2780  141.1030 C   0  0  0  0  0  0  0  0  0  0  0  0
  190.0010  175.4760  143.6240 C   0  0  0  0  0  0  0  0  0  0  0  0
  189.3760  173.1510  140.8210 C   0  0  0  0  0  3  0  0  0  0  0  0
  190.2250  177.2670  145.8880 C   0  0  0  0  0  2  0  0  0  0  0  0
  188.1830  174.1230  139.0030 N   0  0  0  0  0  0  0  0  0  0  0  0
  187.8510  175.1980  139.7640 C   0  0  0  0  0  3  0  0  0  0  0  0
  189.1060  174.2660  141.6210 C   0  0  0  0  0  0  0  0  0  0  0  0
  184.8230  179.0690  144.7960 C   0  0  0  0  0  3  0  0  0  0  0  0
  186.6840  177.2330  143.7880 C   0  0  0  0  0  0  0  0  0  0  0  0
  185.9100  176.9060  144.9070 C   0  0  0  0  0  3  0  0  0  0  0  0
  184.9800  177.8220  145.4090 C   0  0  0  0  0  3  0  0  0  0  0  0
  185.5990  179.4030  143.6820 C   0  0  0  0  0  3  0  0  0  0  0  0
  186.5300  178.4880  143.1790 C   0  0  0  0  0  3  0  0  0  0  0  0
  1 12  1  0  0  0  0
  2  6  1  0  0  0  0
  3 16  1  0  0  0  0
  6 18  1  0  0  0  0
  7 11  2  0  0  0  0
  7  9  1  0  0  0  0
  8 17  1  0  0  0  0
  9 13  2  0  0  0  0
 10  8  1  0  0  0  0
 11 14  1  0  0  0  0
 12 23  1  6  0  0  0
 12  2  1  0  0  0  0
 13  4  1  0  0  0  0
 13  5  1  0  0  0  0
 14 18  1  0  0  0  0
 14  4  2  0  0  0  0
 15 21  1  0  0  0  0
 15  1  1  0  0  0  0
 16  2  2  0  0  0  0
 16 11  1  0  0  0  0
 17 21  2  0  0  0  0
 19  8  2  0  0  0  0
 19 20  1  0  0  0  0
 20 15  2  0  0  0  0
 21  3  1  0  0  0  0
 22 25  1  0  0  0  0
 23 24  1  0  0  0  0
 24 25  2  0  0  0  0
 26 22  2  0  0  0  0
 27 26  1  0  0  0  0
 27 23  2  0  0  0  0
M  END
>  <MODEL>
4

>  <REMARK>
 VINA RESULT:      -8.1      0.841      1.293
  Name = 
  1 active torsions:
  status: ('A' for Active; 'I' for Inactive)
    1  A    between atoms: C_9  and  C_15
                            x       y       z     vdW  Elec       q    Type
                         _______ _______ _______ _____ _____    ______ ____

>  <TORSDO>
F 1

$$$$
=
 OpenBabel11052418263D

 27 31  0  0  1  0  0  0  0  0999 V2000
  188.4260  174.8870  141.5310 N   0  0  0  0  0  2  0  0  0  0  0  0
  188.5140  176.1010  143.6460 C   0  0  0  0  0  0  0  0  0  0  0  0
  189.4410  173.8780  144.0970 N   0  0  0  0  0  2  0  0  0  0  0  0
  190.0670  177.5530  147.3240 C   0  0  0  0  0  3  0  0  0  0  0  0
  191.5830  177.2820  149.1810 O   0  0  0  0  0  1  0  0  0  0  0  0
  188.5140  177.5860  143.9380 C   0  0  0  0  0  2  0  0  0  0  0  0
  190.8160  175.0360  146.3560 C   0  0  0  0  0  3  0  0  0  0  0  0
  190.2560  171.2740  141.7970 C   0  0  0  0  0  0  0  0  0  0  0  0
  191.3880  175.5340  147.5300 C   0  0  0  0  0  3  0  0  0  0  0  0
  190.8170  169.8990  141.8370 C   0  0  0  0  0  1  0  0  0  0  0  0
  189.8690  175.7950  145.6540 C   0  0  0  0  0  0  0  0  0  0  0  0
  187.6420  175.5350  142.5710 C   0  0  1  0  0  3  0  0  0  0  0  0
  191.0150  176.7910  148.0130 C   0  0  0  0  0  0  0  0  0  0  0  0
  189.5020  177.0650  146.1430 C   0  0  0  0  0  0  0  0  0  0  0  0
  189.1610  173.8300  141.6930 C   0  0  0  0  0  0  0  0  0  0  0  0
  189.2510  175.2730  144.4080 C   0  0  0  0  0  0  0  0  0  0  0  0
  189.9490  171.9360  142.9850 C   0  0  0  0  0  3  0  0  0  0  0  0
  188.4430  177.8550  145.4390 C   0  0  0  0  0  2  0  0  0  0  0  0
  190.0980  171.9080  140.6080 N   0  0  0  0  0  0  0  0  0  0  0  0
  189.5570  173.1510  140.5350 C   0  0  0  0  0  3  0  0  0  0  0  0
  189.4430  173.2390  142.9580 C   0  0  0  0  0  0  0  0  0  0  0  0
  184.8620  178.3730  140.9190 C   0  0  0  0  0  3  0  0  0  0  0  0
  186.6710  176.5130  141.9750 C   0  0  0  0  0  0  0  0  0  0  0  0
  185.6070  176.9780  142.7540 C   0  0  0  0  0  3  0  0  0  0  0  0
  184.7030  177.9050  142.2270 C   0  0  0  0  0  3  0  0  0  0  0  0
  185.9280  177.9160  140.1380 C   0  0  0  0  0  3  0  0  0  0  0  0
  186.8330  176.9890  140.6640 C   0  0  0  0  0  3  0  0  0  0  0  0
  1 15  1  0  0  0  0
  1 12  1  0  0  0  0
  2  6  1  0  0  0  0
  2 16  2  0  0  0  0
  3 16  1  0  0  0  0
  4 13  1  0  0  0  0
  6 18  1  0  0  0  0
  7  9  1  0  0  0  0
  8 10  1  0  0  0  0
  8 17  1  0  0  0  0
  9 13  2  0  0  0  0
 11 14  1  0  0  0  0
 11  7  2  0  0  0  0
 12 23  1  6  0  0  0
 12  2  1  0  0  0  0
 13  5  1  0  0  0  0
 14  4  2  0  0  0  0
 15 21  1  0  0  0  0
 16 11  1  0  0  0  0
 18 14  1  0  0  0  0
 19  8  2  0  0  0  0
 20 19  1  0  0  0  0
 20 15  2  0  0  0  0
 21 17  2  0  0  0  0
 21  3  1  0  0  0  0
 22 25  1  0  0  0  0
 23 24  1  0  0  0  0
 25 24  2  0  0  0  0
 26 27  1  0  0  0  0
 26 22  2  0  0  0  0
 27 23  2  0  0  0  0
M  END
>  <MODEL>
5

>  <REMARK>
 VINA RESULT:      -8.1      2.309      3.395
  Name = 
  1 active torsions:
  status: ('A' for Active; 'I' for Inactive)
    1  A    between atoms: C_9  and  C_15
                            x       y       z     vdW  Elec       q    Type
                         _______ _______ _______ _____ _____    ______ ____

>  <TORSDO>
F 1

$$$$
=
 OpenBabel11052418263D

 27 31  0  0  1  0  0  0  0  0999 V2000
  188.1090  176.1650  142.7730 N   0  0  0  0  0  2  0  0  0  0  0  0
  189.7890  176.0600  144.5400 C   0  0  0  0  0  0  0  0  0  0  0  0
  190.2720  174.1930  143.0280 N   0  0  0  0  0  2  0  0  0  0  0  0
  193.6000  175.6330  146.3690 C   0  0  0  0  0  3  0  0  0  0  0  0
  195.8430  174.7490  146.2950 O   0  0  0  0  0  1  0  0  0  0  0  0
  190.3030  177.1250  145.4850 C   0  0  0  0  0  2  0  0  0  0  0  0
  192.9820  174.2380  144.0220 C   0  0  0  0  0  3  0  0  0  0  0  0
  188.8340  173.4470  139.8480 C   0  0  0  0  0  0  0  0  0  0  0  0
  194.2620  174.1470  144.5750 C   0  0  0  0  0  3  0  0  0  0  0  0
  188.9710  172.4160  138.7870 C   0  0  0  0  0  1  0  0  0  0  0  0
  192.0020  175.0330  144.6350 C   0  0  0  0  0  0  0  0  0  0  0  0
  188.3360  175.9800  144.1980 C   0  0  1  0  0  3  0  0  0  0  0  0
  194.5720  174.8430  145.7460 C   0  0  0  0  0  0  0  0  0  0  0  0
  192.3230  175.7380  145.8130 C   0  0  0  0  0  0  0  0  0  0  0  0
  188.5220  175.3680  141.8360 C   0  0  0  0  0  0  0  0  0  0  0  0
  190.6370  175.1320  144.0580 C   0  0  0  0  0  0  0  0  0  0  0  0
  189.5100  173.2960  141.0570 C   0  0  0  0  0  3  0  0  0  0  0  0
  191.2660  176.5350  146.5120 C   0  0  0  0  0  2  0  0  0  0  0  0
  188.1000  174.5640  139.6170 N   0  0  0  0  0  0  0  0  0  0  0  0
  187.9280  175.5080  140.5780 C   0  0  0  0  0  3  0  0  0  0  0  0
  189.4070  174.2720  142.0530 C   0  0  0  0  0  0  0  0  0  0  0  0
  185.7640  178.5950  146.4480 C   0  0  0  0  0  3  0  0  0  0  0  0
  187.4540  176.8920  145.0000 C   0  0  0  0  0  0  0  0  0  0  0  0
  186.8960  178.0170  144.3850 C   0  0  0  0  0  3  0  0  0  0  0  0
  186.0540  178.8680  145.1080 C   0  0  0  0  0  3  0  0  0  0  0  0
  186.3150  177.4680  147.0660 C   0  0  0  0  0  3  0  0  0  0  0  0
  187.1570  176.6160  146.3440 C   0  0  0  0  0  3  0  0  0  0  0  0
  1 12  1  0  0  0  0
  2  6  1  0  0  0  0
  3 16  1  0  0  0  0
  6 18  1  0  0  0  0
  7  9  2  0  0  0  0
  7 11  1  0  0  0  0
  8 17  1  0  0  0  0
  9 13  1  0  0  0  0
 10  8  1  0  0  0  0
 11 14  2  0  0  0  0
 12  2  1  0  0  0  0
 12 23  1  1  0  0  0
 13  5  1  0  0  0  0
 13  4  2  0  0  0  0
 14  4  1  0  0  0  0
 14 18  1  0  0  0  0
 15 21  1  0  0  0  0
 15  1  1  0  0  0  0
 16  2  2  0  0  0  0
 16 11  1  0  0  0  0
 17 21  2  0  0  0  0
 19  8  2  0  0  0  0
 19 20  1  0  0  0  0
 20 15  2  0  0  0  0
 21  3  1  0  0  0  0
 22 26  1  0  0  0  0
 23 27  1  0  0  0  0
 24 23  2  0  0  0  0
 24 25  1  0  0  0  0
 25 22  2  0  0  0  0
 27 26  2  0  0  0  0
M  END
>  <MODEL>
6

>  <REMARK>
 VINA RESULT:      -8.1      0.997      1.097
  Name = 
  1 active torsions:
  status: ('A' for Active; 'I' for Inactive)
    1  A    between atoms: C_9  and  C_15
                            x       y       z     vdW  Elec       q    Type
                         _______ _______ _______ _____ _____    ______ ____

>  <TORSDO>
F 1

$$$$
=
 OpenBabel11052418263D

 27 31  0  0  1  0  0  0  0  0999 V2000
  189.6890  174.4700  142.2750 N   0  0  0  0  0  2  0  0  0  0  0  0
  188.9920  175.6100  144.3170 C   0  0  0  0  0  0  0  0  0  0  0  0
  187.7070  176.6280  142.4960 N   0  0  0  0  0  2  0  0  0  0  0  0
  186.4050  177.3650  147.1940 C   0  0  0  0  0  3  0  0  0  0  0  0
  184.3020  178.4290  147.7090 O   0  0  0  0  0  1  0  0  0  0  0  0
  189.0630  175.1800  145.7670 C   0  0  0  0  0  2  0  0  0  0  0  0
  185.7600  177.4300  144.4710 C   0  0  0  0  0  3  0  0  0  0  0  0
  187.4710  175.6250  139.0790 C   0  0  0  0  0  0  0  0  0  0  0  0
  184.8680  177.9460  145.4150 C   0  0  0  0  0  3  0  0  0  0  0  0
  186.7730  176.0660  137.8430 C   0  0  0  0  0  1  0  0  0  0  0  0
  186.9790  176.8720  144.8810 C   0  0  0  0  0  0  0  0  0  0  0  0
  190.1180  175.3160  143.3780 C   0  0  1  0  0  3  0  0  0  0  0  0
  185.1890  177.9130  146.7740 C   0  0  0  0  0  0  0  0  0  0  0  0
  187.2940  176.8360  146.2550 C   0  0  0  0  0  0  0  0  0  0  0  0
  188.8260  174.8020  141.3650 C   0  0  0  0  0  0  0  0  0  0  0  0
  187.9370  176.3260  143.8860 C   0  0  0  0  0  0  0  0  0  0  0  0
  187.4060  176.4070  140.2310 C   0  0  0  0  0  3  0  0  0  0  0  0
  188.6210  176.3050  146.6990 C   0  0  0  0  0  2  0  0  0  0  0  0
  188.1200  174.4340  139.1030 N   0  0  0  0  0  0  0  0  0  0  0  0
  188.7940  174.0190  140.2070 C   0  0  0  0  0  3  0  0  0  0  0  0
  188.0390  175.9890  141.4060 C   0  0  0  0  0  0  0  0  0  0  0  0
  193.6500  173.6700  145.2010 C   0  0  0  0  0  3  0  0  0  0  0  0
  191.3470  174.7560  144.0320 C   0  0  0  0  0  0  0  0  0  0  0  0
  191.5400  173.3700  144.0490 C   0  0  0  0  0  3  0  0  0  0  0  0
  192.6890  172.8280  144.6340 C   0  0  0  0  0  3  0  0  0  0  0  0
  193.4650  175.0550  145.1820 C   0  0  0  0  0  3  0  0  0  0  0  0
  192.3170  175.5990  144.5970 C   0  0  0  0  0  3  0  0  0  0  0  0
  1 12  1  0  0  0  0
  2  6  1  0  0  0  0
  3 16  1  0  0  0  0
  6 18  1  0  0  0  0
  7 11  2  0  0  0  0
  7  9  1  0  0  0  0
  8 19  2  0  0  0  0
  8 17  1  0  0  0  0
  9 13  2  0  0  0  0
 10  8  1  0  0  0  0
 11 14  1  0  0  0  0
 12 23  1  1  0  0  0
 12  2  1  0  0  0  0
 13  4  1  0  0  0  0
 13  5  1  0  0  0  0
 14 18  1  0  0  0  0
 14  4  2  0  0  0  0
 15 21  1  0  0  0  0
 15  1  1  0  0  0  0
 16  2  2  0  0  0  0
 16 11  1  0  0  0  0
 17 21  2  0  0  0  0
 19 20  1  0  0  0  0
 20 15  2  0  0  0  0
 21  3  1  0  0  0  0
 23 24  2  0  0  0  0
 23 27  1  0  0  0  0
 24 25  1  0  0  0  0
 25 22  2  0  0  0  0
 26 22  1  0  0  0  0
 27 26  2  0  0  0  0
M  END
>  <MODEL>
7

>  <REMARK>
 VINA RESULT:      -7.7      2.432      5.774
  Name = 
  1 active torsions:
  status: ('A' for Active; 'I' for Inactive)
    1  A    between atoms: C_9  and  C_15
                            x       y       z     vdW  Elec       q    Type
                         _______ _______ _______ _____ _____    ______ ____

>  <TORSDO>
F 1

$$$$
=
 OpenBabel11052418263D

 27 31  0  0  1  0  0  0  0  0999 V2000
  189.1720  174.4610  143.5460 N   0  0  0  0  0  2  0  0  0  0  0  0
  187.7010  176.2910  144.2120 C   0  0  0  0  0  0  0  0  0  0  0  0
  187.4990  176.1060  141.7770 N   0  0  0  0  0  2  0  0  0  0  0  0
  184.2270  178.7310  144.3680 C   0  0  0  0  0  3  0  0  0  0  0  0
  182.2210  179.5450  143.3040 O   0  0  0  0  0  1  0  0  0  0  0  0
  187.0550  176.6100  145.5430 C   0  0  0  0  0  2  0  0  0  0  0  0
  184.9300  177.4040  142.0070 C   0  0  0  0  0  3  0  0  0  0  0  0
  188.7970  173.5950  139.5990 C   0  0  0  0  0  0  0  0  0  0  0  0
  183.7470  178.1450  142.0680 C   0  0  0  0  0  3  0  0  0  0  0  0
  188.7930  173.2810  138.1460 C   0  0  0  0  0  1  0  0  0  0  0  0
  185.7680  177.3150  143.1280 C   0  0  0  0  0  0  0  0  0  0  0  0
  189.1060  175.7830  144.1480 C   0  0  1  0  0  3  0  0  0  0  0  0
  183.3950  178.8080  143.2470 C   0  0  0  0  0  0  0  0  0  0  0  0
  185.4040  177.9800  144.3160 C   0  0  0  0  0  0  0  0  0  0  0  0
  188.8600  174.1780  142.3180 C   0  0  0  0  0  0  0  0  0  0  0  0
  187.0310  176.5340  143.0710 C   0  0  0  0  0  0  0  0  0  0  0  0
  188.2680  174.8020  140.0520 C   0  0  0  0  0  3  0  0  0  0  0  0
  186.3240  177.9490  145.4960 C   0  0  0  0  0  2  0  0  0  0  0  0
  189.2590  172.6810  140.4880 N   0  0  0  0  0  0  0  0  0  0  0  0
  189.3070  172.9500  141.8180 C   0  0  0  0  0  3  0  0  0  0  0  0
  188.2460  175.0960  141.4180 C   0  0  0  0  0  0  0  0  0  0  0  0
  191.2180  175.7900  147.8970 C   0  0  0  0  0  3  0  0  0  0  0  0
  189.8400  175.8080  145.4580 C   0  0  0  0  0  0  0  0  0  0  0  0
  189.5450  174.8400  146.4240 C   0  0  0  0  0  3  0  0  0  0  0  0
  190.2310  174.8320  147.6420 C   0  0  0  0  0  3  0  0  0  0  0  0
  191.5200  176.7560  146.9320 C   0  0  0  0  0  3  0  0  0  0  0  0
  190.8350  176.7650  145.7140 C   0  0  0  0  0  3  0  0  0  0  0  0
  1 12  1  0  0  0  0
  2  6  1  0  0  0  0
  3 16  1  0  0  0  0
  7  9  2  0  0  0  0
  7 11  1  0  0  0  0
  8 17  2  0  0  0  0
  8 19  1  0  0  0  0
  9 13  1  0  0  0  0
 10  8  1  0  0  0  0
 11 14  2  0  0  0  0
 12  2  1  0  0  0  0
 12 23  1  1  0  0  0
 13  5  1  0  0  0  0
 13  4  2  0  0  0  0
 14  4  1  0  0  0  0
 14 18  1  0  0  0  0
 15  1  1  0  0  0  0
 16 11  1  0  0  0  0
 16  2  2  0  0  0  0
 17 21  1  0  0  0  0
 18  6  1  0  0  0  0
 19 20  2  0  0  0  0
 20 15  1  0  0  0  0
 21  3  1  0  0  0  0
 21 15  2  0  0  0  0
 23 27  2  0  0  0  0
 23 24  1  0  0  0  0
 24 25  2  0  0  0  0
 25 22  1  0  0  0  0
 26 22  2  0  0  0  0
 27 26  1  0  0  0  0
M  END
>  <MODEL>
8

>  <REMARK>
 VINA RESULT:      -7.6      3.101      5.924
  Name = 
  1 active torsions:
  status: ('A' for Active; 'I' for Inactive)
    1  A    between atoms: C_9  and  C_15
                            x       y       z     vdW  Elec       q    Type
                         _______ _______ _______ _____ _____    ______ ____

>  <TORSDO>
F 1

$$$$
=
 OpenBabel11052418263D

 27 31  0  0  1  0  0  0  0  0999 V2000
  191.0670  175.3980  144.8730 N   0  0  0  0  0  2  0  0  0  0  0  0
  188.8140  175.6240  143.9650 C   0  0  0  0  0  0  0  0  0  0  0  0
  188.7560  176.6450  146.1920 N   0  0  0  0  0  2  0  0  0  0  0  0
  185.0950  177.4300  142.9830 C   0  0  0  0  0  3  0  0  0  0  0  0
  183.4180  179.0980  143.4540 O   0  0  0  0  0  1  0  0  0  0  0  0
  188.3140  175.6070  142.5360 C   0  0  0  0  0  2  0  0  0  0  0  0
  186.4670  178.1660  145.3100 C   0  0  0  0  0  3  0  0  0  0  0  0
  191.4600  177.3410  148.4150 C   0  0  0  0  0  0  0  0  0  0  0  0
  185.2810  178.8170  144.9590 C   0  0  0  0  0  3  0  0  0  0  0  0
  191.6600  177.9410  149.7600 C   0  0  0  0  0  1  0  0  0  0  0  0
  186.9800  177.1450  144.4970 C   0  0  0  0  0  0  0  0  0  0  0  0
  189.8890  174.6840  144.4080 C   0  0  1  0  0  3  0  0  0  0  0  0
  184.5970  178.4510  143.7980 C   0  0  0  0  0  0  0  0  0  0  0  0
  186.2880  176.7840  143.3230 C   0  0  0  0  0  0  0  0  0  0  0  0
  191.1150  176.1720  145.9140 C   0  0  0  0  0  0  0  0  0  0  0  0
  188.2360  176.4420  144.8630 C   0  0  0  0  0  0  0  0  0  0  0  0
  190.1700  177.1140  147.9380 C   0  0  0  0  0  3  0  0  0  0  0  0
  186.7890  175.6510  142.4840 C   0  0  0  0  0  2  0  0  0  0  0  0
  192.5310  177.0700  147.6270 N   0  0  0  0  0  0  0  0  0  0  0  0
  192.3840  176.4920  146.4070 C   0  0  0  0  0  3  0  0  0  0  0  0
  189.9720  176.5720  146.6650 C   0  0  0  0  0  0  0  0  0  0  0  0
  190.8970  171.6860  141.4910 C   0  0  0  0  0  3  0  0  0  0  0  0
  190.2640  173.6410  143.3950 C   0  0  0  0  0  0  0  0  0  0  0  0
  189.5660  172.4290  143.3740 C   0  0  0  0  0  3  0  0  0  0  0  0
  189.8830  171.4520  142.4250 C   0  0  0  0  0  3  0  0  0  0  0  0
  191.5940  172.8980  141.5040 C   0  0  0  0  0  3  0  0  0  0  0  0
  191.2770  173.8760  142.4520 C   0  0  0  0  0  3  0  0  0  0  0  0
  1 15  1  0  0  0  0
  2 12  1  0  0  0  0
  2 16  2  0  0  0  0
  3 21  1  0  0  0  0
  4 14  2  0  0  0  0
  4 13  1  0  0  0  0
  5 13  1  0  0  0  0
  6  2  1  0  0  0  0
  8 10  1  0  0  0  0
  9  7  1  0  0  0  0
 11 16  1  0  0  0  0
 11  7  2  0  0  0  0
 12 23  1  6  0  0  0
 12  1  1  0  0  0  0
 13  9  2  0  0  0  0
 14 11  1  0  0  0  0
 15 20  2  0  0  0  0
 15 21  1  0  0  0  0
 16  3  1  0  0  0  0
 17  8  1  0  0  0  0
 18  6  1  0  0  0  0
 18 14  1  0  0  0  0
 19  8  2  0  0  0  0
 20 19  1  0  0  0  0
 21 17  2  0  0  0  0
 22 26  2  0  0  0  0
 22 25  1  0  0  0  0
 24 23  1  0  0  0  0
 25 24  2  0  0  0  0
 26 27  1  0  0  0  0
 27 23  2  0  0  0  0
M  END
>  <MODEL>
9

>  <REMARK>
 VINA RESULT:      -7.5      3.323      7.571
  Name = 
  1 active torsions:
  status: ('A' for Active; 'I' for Inactive)
    1  A    between atoms: C_9  and  C_15
                            x       y       z     vdW  Elec       q    Type
                         _______ _______ _______ _____ _____    ______ ____

>  <TORSDO>
F 1

$$$$
