=
 OpenBabel11052421413D

 32 33  0  0  1  0  0  0  0  0999 V2000
  186.4440  177.5340  144.2860 C   0  0  2  0  0  3  0  0  0  0  0  0
  185.5140  176.9380  146.6690 C   0  0  0  0  0  2  0  0  0  0  0  0
  186.6890  177.3240  145.7870 C   0  0  0  0  0  0  0  0  0  0  0  0
  186.0210  178.3700  146.6600 C   0  0  0  0  0  2  0  0  0  0  0  0
  187.9840  177.0130  146.2490 O   0  0  0  0  0  0  0  0  0  0  0  0
  187.8570  175.8880  147.0730 C   0  0  0  0  0  2  0  0  0  0  0  0
  188.9470  174.8870  146.7560 C   0  0  0  0  0  2  0  0  0  0  0  0
  190.2090  175.6450  146.3920 C   0  0  0  0  0  2  0  0  0  0  0  0
  191.2500  175.5170  147.4900 C   0  0  2  0  0  3  0  0  0  0  0  0
  191.4210  176.8530  148.1950 C   0  0  0  0  0  1  0  0  0  0  0  0
  192.5740  175.0880  146.8650 C   0  0  0  0  0  2  0  0  0  0  0  0
  192.4610  174.8000  145.3680 C   0  0  1  0  0  3  0  0  0  0  0  0
  193.5210  175.5450  144.5770 C   0  0  0  0  0  1  0  0  0  0  0  0
  192.5490  173.4300  145.1160 O   0  0  0  0  0  0  0  0  0  0  0  0
  193.9160  173.1690  145.0020 C   0  0  0  0  0  2  0  0  0  0  0  0
  194.2480  171.9060  145.7630 C   0  0  0  0  0  1  0  0  0  0  0  0
  187.6080  177.1030  143.4430 C   0  0  0  0  0  0  0  0  0  0  0  0
  187.5440  175.9310  142.8740 N   0  0  0  0  0  0  0  0  0  0  0  0
  188.7690  177.9530  143.3710 N   0  0  0  0  0  2  0  0  0  0  0  0
  188.0970  175.3070  140.6020 C   0  0  0  0  0  2  0  0  0  0  0  0
  188.6760  173.8550  142.3690 C   0  0  1  0  0  3  0  0  0  0  0  0
  188.4110  173.0980  141.1540 N   0  0  0  0  0  2  0  0  0  0  0  0
  188.4390  173.9990  140.0710 N   0  0  0  0  0  2  0  0  0  0  0  0
  190.0760  173.5580  142.8600 C   0  0  0  0  0  1  0  0  0  0  0  0
  188.5560  175.3150  142.0320 C   0  0  2  0  0  3  0  0  0  0  0  0
  190.0500  177.6360  142.7600 C   0  0  0  0  0  2  0  0  0  0  0  0
  191.1700  178.1160  143.6560 C   0  0  0  0  0  1  0  0  0  0  0  0
  185.9380  178.9390  143.9460 C   0  0  0  0  0  2  0  0  0  0  0  0
  185.2460  178.9470  142.7310 O   0  0  0  0  0  0  0  0  0  0  0  0
  184.0870  178.2120  142.9830 C   0  0  0  0  0  2  0  0  0  0  0  0
  183.2260  178.1680  141.7390 C   0  0  0  0  0  2  0  0  0  0  0  0
  183.9910  178.4970  140.6190 O   0  0  0  0  0  1  0  0  0  0  0  0
  1 28  1  1  0  0  0
  1  3  1  0  0  0  0
  3  5  1  0  0  0  0
  3  4  1  0  0  0  0
  3  2  1  0  0  0  0
  4  2  1  0  0  0  0
  5  6  1  0  0  0  0
  7  6  1  0  0  0  0
  8  7  1  0  0  0  0
  8  9  1  0  0  0  0
  9 10  1  6  0  0  0
 11  9  1  0  0  0  0
 12 13  1  6  0  0  0
 12 11  1  0  0  0  0
 14 12  1  0  0  0  0
 15 14  1  0  0  0  0
 15 16  1  0  0  0  0
 17  1  1  0  0  0  0
 18 17  2  0  0  0  0
 19 17  1  0  0  0  0
 20 25  1  0  0  0  0
 21 24  1  6  0  0  0
 22 21  1  0  0  0  0
 23 20  1  0  0  0  0
 23 22  1  0  0  0  0
 25 21  1  0  0  0  0
 25 18  1  1  0  0  0
 26 19  1  0  0  0  0
 26 27  1  0  0  0  0
 29 30  1  0  0  0  0
 29 28  1  0  0  0  0
 31 30  1  0  0  0  0
 32 31  1  0  0  0  0
M  END
>  <MODEL>
1

>  <REMARK>
 VINA RESULT:      -5.6      0.000      0.000
  Name = 
  17 active torsions:
  status: ('A' for Active; 'I' for Inactive)
    1  A    between atoms: C_1  and  O_20
    2  A    between atoms: C_2  and  C_9
    3  A    between atoms: C_2  and  C_23
    4  A    between atoms: C_4  and  C_5
    5  A    between atoms: C_4  and  O_13
    6  A    between atoms: C_6  and  N_31
    7  A    between atoms: C_8  and  C_23
    8  A    between atoms: C_8  and  O_28
    9  A    between atoms: C_9  and  C_10
   10  A    between atoms: C_10  and  C_19
   11  A    between atoms: O_13  and  C_15
   12  A    between atoms: C_14  and  C_26
   13  A    between atoms: C_14  and  O_28
   14  A    between atoms: C_15  and  C_26
   15  A    between atoms: C_16  and  C_26
   16  A    between atoms: C_19  and  O_20
   17  A    between atoms: N_27  and  C_32
                            x       y       z     vdW  Elec       q    Type
                         _______ _______ _______ _____ _____    ______ ____

>  <TORSDO>
F 17

$$$$
=
 OpenBabel11052421413D

 32 33  0  0  1  0  0  0  0  0999 V2000
  187.3410  176.8240  144.6560 C   0  0  2  0  0  3  0  0  0  0  0  0
  186.7530  176.6750  147.2110 C   0  0  0  0  0  2  0  0  0  0  0  0
  187.7180  176.3780  146.0760 C   0  0  0  0  0  0  0  0  0  0  0  0
  187.9920  177.5330  147.0190 C   0  0  0  0  0  2  0  0  0  0  0  0
  188.6400  175.3280  146.2590 O   0  0  0  0  0  0  0  0  0  0  0  0
  189.6740  175.8350  147.0570 C   0  0  0  0  0  2  0  0  0  0  0  0
  191.0150  175.4070  146.5010 C   0  0  0  0  0  2  0  0  0  0  0  0
  192.0860  176.3200  147.0670 C   0  0  0  0  0  2  0  0  0  0  0  0
  193.4700  175.8290  146.6810 C   0  0  2  0  0  3  0  0  0  0  0  0
  194.3690  177.0150  146.3720 C   0  0  0  0  0  1  0  0  0  0  0  0
  193.3500  174.9360  145.4490 C   0  0  0  0  0  2  0  0  0  0  0  0
  194.3470  173.7780  145.4520 C   0  0  1  0  0  3  0  0  0  0  0  0
  193.6400  172.4350  145.4200 C   0  0  0  0  0  1  0  0  0  0  0  0
  195.2320  173.8800  144.3770 O   0  0  0  0  0  0  0  0  0  0  0  0
  196.3770  174.4780  144.9060 C   0  0  0  0  0  2  0  0  0  0  0  0
  196.8820  173.6490  146.0650 C   0  0  0  0  0  1  0  0  0  0  0  0
  188.4150  176.5250  143.6510 C   0  0  0  0  0  0  0  0  0  0  0  0
  188.3370  175.4000  142.9960 N   0  0  0  0  0  0  0  0  0  0  0  0
  189.5200  177.4410  143.5180 N   0  0  0  0  0  2  0  0  0  0  0  0
  188.5420  174.6360  140.7090 C   0  0  0  0  0  2  0  0  0  0  0  0
  189.7840  173.5570  142.4000 C   0  0  1  0  0  3  0  0  0  0  0  0
  189.4550  172.6210  141.3330 N   0  0  0  0  0  2  0  0  0  0  0  0
  189.0560  173.3720  140.2110 N   0  0  0  0  0  2  0  0  0  0  0  0
  191.2850  173.6150  142.5820 C   0  0  0  0  0  1  0  0  0  0  0  0
  189.2690  174.9100  141.9940 C   0  0  2  0  0  3  0  0  0  0  0  0
  190.7310  177.2450  142.7400 C   0  0  0  0  0  2  0  0  0  0  0  0
  191.9310  177.6770  143.5540 C   0  0  0  0  0  1  0  0  0  0  0  0
  186.8350  178.2680  144.5900 C   0  0  0  0  0  2  0  0  0  0  0  0
  185.8860  178.4240  143.5750 O   0  0  0  0  0  0  0  0  0  0  0  0
  184.6840  178.0160  144.1530 C   0  0  0  0  0  2  0  0  0  0  0  0
  184.2040  179.0630  145.1350 C   0  0  0  0  0  2  0  0  0  0  0  0
  183.8610  178.4580  146.3450 O   0  0  0  0  0  1  0  0  0  0  0  0
  1 28  1  1  0  0  0
  1  3  1  0  0  0  0
  3  5  1  0  0  0  0
  3  4  1  0  0  0  0
  3  2  1  0  0  0  0
  4  2  1  0  0  0  0
  5  6  1  0  0  0  0
  7  6  1  0  0  0  0
  7  8  1  0  0  0  0
  9 10  1  6  0  0  0
  9  8  1  0  0  0  0
 11 12  1  0  0  0  0
 11  9  1  0  0  0  0
 12 13  1  6  0  0  0
 14 15  1  0  0  0  0
 14 12  1  0  0  0  0
 15 16  1  0  0  0  0
 17  1  1  0  0  0  0
 18 17  2  0  0  0  0
 19 17  1  0  0  0  0
 20 25  1  0  0  0  0
 21 24  1  6  0  0  0
 22 21  1  0  0  0  0
 23 20  1  0  0  0  0
 23 22  1  0  0  0  0
 25 21  1  0  0  0  0
 25 18  1  1  0  0  0
 26 19  1  0  0  0  0
 26 27  1  0  0  0  0
 29 30  1  0  0  0  0
 29 28  1  0  0  0  0
 30 31  1  0  0  0  0
 31 32  1  0  0  0  0
M  END
>  <MODEL>
2

>  <REMARK>
 VINA RESULT:      -5.4      1.604      2.153
  Name = 
  17 active torsions:
  status: ('A' for Active; 'I' for Inactive)
    1  A    between atoms: C_1  and  O_20
    2  A    between atoms: C_2  and  C_9
    3  A    between atoms: C_2  and  C_23
    4  A    between atoms: C_4  and  C_5
    5  A    between atoms: C_4  and  O_13
    6  A    between atoms: C_6  and  N_31
    7  A    between atoms: C_8  and  C_23
    8  A    between atoms: C_8  and  O_28
    9  A    between atoms: C_9  and  C_10
   10  A    between atoms: C_10  and  C_19
   11  A    between atoms: O_13  and  C_15
   12  A    between atoms: C_14  and  C_26
   13  A    between atoms: C_14  and  O_28
   14  A    between atoms: C_15  and  C_26
   15  A    between atoms: C_16  and  C_26
   16  A    between atoms: C_19  and  O_20
   17  A    between atoms: N_27  and  C_32
                            x       y       z     vdW  Elec       q    Type
                         _______ _______ _______ _____ _____    ______ ____

>  <TORSDO>
F 17

$$$$
=
 OpenBabel11052421413D

 32 33  0  0  1  0  0  0  0  0999 V2000
  191.8460  174.5950  144.6710 C   0  0  2  0  0  3  0  0  0  0  0  0
  192.4920  175.8760  146.8710 C   0  0  0  0  0  2  0  0  0  0  0  0
  191.6050  175.7580  145.6430 C   0  0  0  0  0  0  0  0  0  0  0  0
  191.0850  175.3150  146.9980 C   0  0  0  0  0  2  0  0  0  0  0  0
  190.9530  176.9240  145.1940 O   0  0  0  0  0  0  0  0  0  0  0  0
  189.8750  177.1420  146.0620 C   0  0  0  0  0  2  0  0  0  0  0  0
  188.6350  177.4950  145.2700 C   0  0  0  0  0  2  0  0  0  0  0  0
  187.4340  176.8560  145.9420 C   0  0  0  0  0  2  0  0  0  0  0  0
  186.3540  177.8910  146.2100 C   0  0  2  0  0  3  0  0  0  0  0  0
  186.0970  177.9900  147.7050 C   0  0  0  0  0  1  0  0  0  0  0  0
  185.0770  177.4660  145.4920 C   0  0  0  0  0  2  0  0  0  0  0  0
  184.7600  178.3340  144.2750 C   0  0  1  0  0  3  0  0  0  0  0  0
  185.3460  179.7270  144.4170 C   0  0  0  0  0  1  0  0  0  0  0  0
  185.2240  177.7360  143.1010 O   0  0  0  0  0  0  0  0  0  0  0  0
  186.1200  178.6570  142.5550 C   0  0  0  0  0  2  0  0  0  0  0  0
  187.1930  177.9150  141.7900 C   0  0  0  0  0  1  0  0  0  0  0  0
  193.3010  174.3830  144.3720 C   0  0  0  0  0  0  0  0  0  0  0  0
  193.8970  175.2550  143.6060 N   0  0  0  0  0  0  0  0  0  0  0  0
  193.9480  173.1930  144.8650 N   0  0  0  0  0  2  0  0  0  0  0  0
  196.0460  176.3350  143.8680 C   0  0  0  0  0  2  0  0  0  0  0  0
  195.3780  175.6020  141.7280 C   0  0  1  0  0  3  0  0  0  0  0  0
  196.2400  176.7720  141.6200 N   0  0  0  0  0  2  0  0  0  0  0  0
  196.8950  176.9370  142.8560 N   0  0  0  0  0  2  0  0  0  0  0  0
  195.9790  174.4530  140.9480 C   0  0  0  0  0  1  0  0  0  0  0  0
  195.2870  175.2350  143.1820 C   0  0  2  0  0  3  0  0  0  0  0  0
  195.2850  172.7240  144.5390 C   0  0  0  0  0  2  0  0  0  0  0  0
  196.1270  172.6860  145.7950 C   0  0  0  0  0  1  0  0  0  0  0  0
  190.9730  174.6650  143.4150 C   0  0  0  0  0  2  0  0  0  0  0  0
  189.7650  173.9850  143.6010 O   0  0  0  0  0  0  0  0  0  0  0  0
  188.8210  174.7560  142.9220 C   0  0  0  0  0  2  0  0  0  0  0  0
  187.9540  173.8650  142.0590 C   0  0  0  0  0  2  0  0  0  0  0  0
  188.3220  172.5300  142.2340 O   0  0  0  0  0  1  0  0  0  0  0  0
  1 28  1  6  0  0  0
  1  3  1  0  0  0  0
  2  4  1  0  0  0  0
  3  2  1  0  0  0  0
  3  4  1  0  0  0  0
  5  3  1  0  0  0  0
  5  6  1  0  0  0  0
  7  8  1  0  0  0  0
  7  6  1  0  0  0  0
  8  9  1  0  0  0  0
  9 10  1  1  0  0  0
 11  9  1  0  0  0  0
 12 13  1  1  0  0  0
 12 11  1  0  0  0  0
 14 12  1  0  0  0  0
 15 14  1  0  0  0  0
 16 15  1  0  0  0  0
 17  1  1  0  0  0  0
 17 19  1  0  0  0  0
 18 17  2  0  0  0  0
 21 24  1  6  0  0  0
 21 25  1  0  0  0  0
 22 21  1  0  0  0  0
 22 23  1  0  0  0  0
 23 20  1  0  0  0  0
 25 18  1  1  0  0  0
 25 20  1  0  0  0  0
 26 19  1  0  0  0  0
 26 27  1  0  0  0  0
 28 29  1  0  0  0  0
 30 29  1  0  0  0  0
 31 32  1  0  0  0  0
 31 30  1  0  0  0  0
M  END
>  <MODEL>
3

>  <REMARK>
 VINA RESULT:      -5.3      3.232      7.033
  Name = 
  17 active torsions:
  status: ('A' for Active; 'I' for Inactive)
    1  A    between atoms: C_1  and  O_20
    2  A    between atoms: C_2  and  C_9
    3  A    between atoms: C_2  and  C_23
    4  A    between atoms: C_4  and  C_5
    5  A    between atoms: C_4  and  O_13
    6  A    between atoms: C_6  and  N_31
    7  A    between atoms: C_8  and  C_23
    8  A    between atoms: C_8  and  O_28
    9  A    between atoms: C_9  and  C_10
   10  A    between atoms: C_10  and  C_19
   11  A    between atoms: O_13  and  C_15
   12  A    between atoms: C_14  and  C_26
   13  A    between atoms: C_14  and  O_28
   14  A    between atoms: C_15  and  C_26
   15  A    between atoms: C_16  and  C_26
   16  A    between atoms: C_19  and  O_20
   17  A    between atoms: N_27  and  C_32
                            x       y       z     vdW  Elec       q    Type
                         _______ _______ _______ _____ _____    ______ ____

>  <TORSDO>
F 17

$$$$
=
 OpenBabel11052421413D

 32 33  0  0  1  0  0  0  0  0999 V2000
  191.9500  176.0810  143.7960 C   0  0  2  0  0  3  0  0  0  0  0  0
  190.2410  177.8790  142.9340 C   0  0  0  0  0  2  0  0  0  0  0  0
  190.8560  177.1150  144.0940 C   0  0  0  0  0  0  0  0  0  0  0  0
  191.2830  178.5440  143.8170 C   0  0  0  0  0  2  0  0  0  0  0  0
  190.1060  177.0200  145.2840 O   0  0  0  0  0  0  0  0  0  0  0  0
  188.8360  177.5400  145.0020 C   0  0  0  0  0  2  0  0  0  0  0  0
  187.7670  176.6540  145.6040 C   0  0  0  0  0  2  0  0  0  0  0  0
  187.1130  177.3980  146.7520 C   0  0  0  0  0  2  0  0  0  0  0  0
  185.9190  178.2000  146.2630 C   0  0  2  0  0  3  0  0  0  0  0  0
  185.0080  178.5310  147.4340 C   0  0  0  0  0  1  0  0  0  0  0  0
  185.1580  177.3690  145.2340 C   0  0  0  0  0  2  0  0  0  0  0  0
  184.8860  178.1290  143.9370 C   0  0  1  0  0  3  0  0  0  0  0  0
  185.5880  179.4750  143.9230 C   0  0  0  0  0  1  0  0  0  0  0  0
  185.2720  177.3750  142.8270 O   0  0  0  0  0  0  0  0  0  0  0  0
  186.3390  178.0790  142.2640 C   0  0  0  0  0  2  0  0  0  0  0  0
  186.9520  177.2510  141.1570 C   0  0  0  0  0  1  0  0  0  0  0  0
  191.3970  174.7840  143.2830 C   0  0  0  0  0  0  0  0  0  0  0  0
  190.8670  174.7790  142.0910 N   0  0  0  0  0  0  0  0  0  0  0  0
  191.3950  173.6350  144.1520 N   0  0  0  0  0  2  0  0  0  0  0  0
  190.9660  173.4030  140.1030 C   0  0  0  0  0  2  0  0  0  0  0  0
  188.8620  173.9870  140.9970 C   0  0  1  0  0  3  0  0  0  0  0  0
  188.7750  173.8250  139.5520 N   0  0  0  0  0  2  0  0  0  0  0  0
  189.9250  173.1320  139.1270 N   0  0  0  0  0  2  0  0  0  0  0  0
  187.8880  173.0480  141.6760 C   0  0  0  0  0  1  0  0  0  0  0  0
  190.2670  173.6440  141.4100 C   0  0  2  0  0  3  0  0  0  0  0  0
  190.7540  172.3530  143.9090 C   0  0  0  0  0  2  0  0  0  0  0  0
  189.6070  172.1690  144.8780 C   0  0  0  0  0  1  0  0  0  0  0  0
  192.9440  175.9030  144.9480 C   0  0  0  0  0  2  0  0  0  0  0  0
  194.1420  175.3370  144.4980 O   0  0  0  0  0  0  0  0  0  0  0  0
  194.9010  176.4240  144.0630 C   0  0  0  0  0  2  0  0  0  0  0  0
  196.3150  175.9750  143.7620 C   0  0  0  0  0  2  0  0  0  0  0  0
  197.0660  177.0530  143.2910 O   0  0  0  0  0  1  0  0  0  0  0  0
  1  3  1  0  0  0  0
  1 28  1  1  0  0  0
  2  4  1  0  0  0  0
  2  3  1  0  0  0  0
  3  5  1  0  0  0  0
  4  3  1  0  0  0  0
  6  5  1  0  0  0  0
  6  7  1  0  0  0  0
  7  8  1  0  0  0  0
  9  8  1  0  0  0  0
  9 10  1  1  0  0  0
 11  9  1  0  0  0  0
 12 13  1  1  0  0  0
 12 11  1  0  0  0  0
 14 12  1  0  0  0  0
 15 14  1  0  0  0  0
 16 15  1  0  0  0  0
 17  1  1  0  0  0  0
 17 19  1  0  0  0  0
 18 17  2  0  0  0  0
 20 25  1  0  0  0  0
 21 25  1  0  0  0  0
 21 24  1  1  0  0  0
 22 21  1  0  0  0  0
 23 22  1  0  0  0  0
 23 20  1  0  0  0  0
 25 18  1  6  0  0  0
 26 19  1  0  0  0  0
 26 27  1  0  0  0  0
 29 28  1  0  0  0  0
 30 29  1  0  0  0  0
 31 30  1  0  0  0  0
 32 31  1  0  0  0  0
M  END
>  <MODEL>
4

>  <REMARK>
 VINA RESULT:      -5.3      2.195      6.882
  Name = 
  17 active torsions:
  status: ('A' for Active; 'I' for Inactive)
    1  A    between atoms: C_1  and  O_20
    2  A    between atoms: C_2  and  C_9
    3  A    between atoms: C_2  and  C_23
    4  A    between atoms: C_4  and  C_5
    5  A    between atoms: C_4  and  O_13
    6  A    between atoms: C_6  and  N_31
    7  A    between atoms: C_8  and  C_23
    8  A    between atoms: C_8  and  O_28
    9  A    between atoms: C_9  and  C_10
   10  A    between atoms: C_10  and  C_19
   11  A    between atoms: O_13  and  C_15
   12  A    between atoms: C_14  and  C_26
   13  A    between atoms: C_14  and  O_28
   14  A    between atoms: C_15  and  C_26
   15  A    between atoms: C_16  and  C_26
   16  A    between atoms: C_19  and  O_20
   17  A    between atoms: N_27  and  C_32
                            x       y       z     vdW  Elec       q    Type
                         _______ _______ _______ _____ _____    ______ ____

>  <TORSDO>
F 17

$$$$
=
 OpenBabel11052421413D

 32 33  0  0  1  0  0  0  0  0999 V2000
  191.9370  174.3780  144.7340 C   0  0  2  0  0  3  0  0  0  0  0  0
  192.6250  175.8560  146.7940 C   0  0  0  0  0  2  0  0  0  0  0  0
  191.7300  175.6390  145.5860 C   0  0  0  0  0  0  0  0  0  0  0  0
  191.2050  175.3470  146.9790 C   0  0  0  0  0  2  0  0  0  0  0  0
  191.1060  176.7700  145.0230 O   0  0  0  0  0  0  0  0  0  0  0  0
  190.0720  177.1350  145.8950 C   0  0  0  0  0  2  0  0  0  0  0  0
  188.7890  177.3410  145.1200 C   0  0  0  0  0  2  0  0  0  0  0  0
  187.6690  176.6110  145.8360 C   0  0  0  0  0  2  0  0  0  0  0  0
  186.3280  177.2610  145.5410 C   0  0  2  0  0  3  0  0  0  0  0  0
  185.3140  176.8500  146.5970 C   0  0  0  0  0  1  0  0  0  0  0  0
  185.8540  176.8060  144.1640 C   0  0  0  0  0  2  0  0  0  0  0  0
  185.1330  177.9070  143.3870 C   0  0  1  0  0  3  0  0  0  0  0  0
  185.6630  179.2820  143.7500 C   0  0  0  0  0  1  0  0  0  0  0  0
  185.2410  177.6990  142.0110 O   0  0  0  0  0  0  0  0  0  0  0  0
  186.4130  176.9580  141.8470 C   0  0  0  0  0  2  0  0  0  0  0  0
  187.2870  177.6300  140.8120 C   0  0  0  0  0  1  0  0  0  0  0  0
  193.3620  174.2040  144.2940 C   0  0  0  0  0  0  0  0  0  0  0  0
  194.0240  173.1860  144.7690 N   0  0  0  0  0  0  0  0  0  0  0  0
  193.9550  175.2060  143.4450 N   0  0  0  0  0  2  0  0  0  0  0  0
  195.4740  171.4760  143.8590 C   0  0  0  0  0  2  0  0  0  0  0  0
  196.1590  172.6680  145.7770 C   0  0  1  0  0  3  0  0  0  0  0  0
  196.7060  171.3180  145.7930 N   0  0  0  0  0  2  0  0  0  0  0  0
  196.5870  170.7900  144.4920 N   0  0  0  0  0  2  0  0  0  0  0  0
  197.2860  173.6750  145.8480 C   0  0  0  0  0  1  0  0  0  0  0  0
  195.4070  172.8390  144.4870 C   0  0  2  0  0  3  0  0  0  0  0  0
  195.3530  175.3100  143.0590 C   0  0  0  0  0  2  0  0  0  0  0  0
  195.9850  176.4920  143.7600 C   0  0  0  0  0  1  0  0  0  0  0  0
  190.9290  174.2490  143.5890 C   0  0  0  0  0  2  0  0  0  0  0  0
  189.6360  174.0330  144.0760 O   0  0  0  0  0  0  0  0  0  0  0  0
  188.8250  174.0540  142.9410 C   0  0  0  0  0  2  0  0  0  0  0  0
  189.5430  174.7600  141.8100 C   0  0  0  0  0  2  0  0  0  0  0  0
  188.8920  174.5060  140.6020 O   0  0  0  0  0  1  0  0  0  0  0  0
  1 28  1  6  0  0  0
  1  3  1  0  0  0  0
  2  4  1  0  0  0  0
  3  2  1  0  0  0  0
  3  4  1  0  0  0  0
  5  3  1  0  0  0  0
  5  6  1  0  0  0  0
  7  8  1  0  0  0  0
  7  6  1  0  0  0  0
  9  8  1  0  0  0  0
  9 10  1  1  0  0  0
 11  9  1  0  0  0  0
 12 13  1  6  0  0  0
 12 11  1  0  0  0  0
 14 12  1  0  0  0  0
 15 14  1  0  0  0  0
 16 15  1  0  0  0  0
 17  1  1  0  0  0  0
 17 18  2  0  0  0  0
 19 17  1  0  0  0  0
 20 25  1  0  0  0  0
 20 23  1  0  0  0  0
 21 22  1  0  0  0  0
 21 24  1  6  0  0  0
 23 22  1  0  0  0  0
 25 18  1  1  0  0  0
 25 21  1  0  0  0  0
 26 19  1  0  0  0  0
 26 27  1  0  0  0  0
 28 29  1  0  0  0  0
 30 29  1  0  0  0  0
 31 30  1  0  0  0  0
 32 31  1  0  0  0  0
M  END
>  <MODEL>
5

>  <REMARK>
 VINA RESULT:      -5.1      3.452      7.073
  Name = 
  17 active torsions:
  status: ('A' for Active; 'I' for Inactive)
    1  A    between atoms: C_1  and  O_20
    2  A    between atoms: C_2  and  C_9
    3  A    between atoms: C_2  and  C_23
    4  A    between atoms: C_4  and  C_5
    5  A    between atoms: C_4  and  O_13
    6  A    between atoms: C_6  and  N_31
    7  A    between atoms: C_8  and  C_23
    8  A    between atoms: C_8  and  O_28
    9  A    between atoms: C_9  and  C_10
   10  A    between atoms: C_10  and  C_19
   11  A    between atoms: O_13  and  C_15
   12  A    between atoms: C_14  and  C_26
   13  A    between atoms: C_14  and  O_28
   14  A    between atoms: C_15  and  C_26
   15  A    between atoms: C_16  and  C_26
   16  A    between atoms: C_19  and  O_20
   17  A    between atoms: N_27  and  C_32
                            x       y       z     vdW  Elec       q    Type
                         _______ _______ _______ _____ _____    ______ ____

>  <TORSDO>
F 17

$$$$
=
 OpenBabel11052421413D

 32 33  0  0  1  0  0  0  0  0999 V2000
  188.1010  176.6090  146.4090 C   0  0  2  0  0  3  0  0  0  0  0  0
  189.5690  174.4380  146.2440 C   0  0  0  0  0  2  0  0  0  0  0  0
  189.3150  175.7950  146.8780 C   0  0  0  0  0  0  0  0  0  0  0  0
  188.9420  174.5280  147.6240 C   0  0  0  0  0  2  0  0  0  0  0  0
  190.4080  176.4490  147.4800 O   0  0  0  0  0  0  0  0  0  0  0  0
  191.5330  175.6470  147.2530 C   0  0  0  0  0  2  0  0  0  0  0  0
  192.5050  176.3620  146.3410 C   0  0  0  0  0  2  0  0  0  0  0  0
  193.8740  175.7270  146.4990 C   0  0  0  0  0  2  0  0  0  0  0  0
  194.2930  175.0250  145.2190 C   0  0  2  0  0  3  0  0  0  0  0  0
  194.2870  173.5200  145.4320 C   0  0  0  0  0  1  0  0  0  0  0  0
  195.6960  175.4890  144.8400 C   0  0  0  0  0  2  0  0  0  0  0  0
  195.8210  175.8670  143.3650 C   0  0  1  0  0  3  0  0  0  0  0  0
  197.0190  176.7680  143.1210 C   0  0  0  0  0  1  0  0  0  0  0  0
  195.9080  174.7270  142.5630 O   0  0  0  0  0  0  0  0  0  0  0  0
  194.6770  174.6520  141.9070 C   0  0  0  0  0  2  0  0  0  0  0  0
  194.2970  176.0250  141.4020 C   0  0  0  0  0  1  0  0  0  0  0  0
  188.3020  177.2230  145.0550 C   0  0  0  0  0  0  0  0  0  0  0  0
  187.2910  177.2220  144.2310 N   0  0  0  0  0  0  0  0  0  0  0  0
  189.6130  177.7030  144.6960 N   0  0  0  0  0  2  0  0  0  0  0  0
  186.2830  178.8750  142.7810 C   0  0  0  0  0  2  0  0  0  0  0  0
  186.7150  176.7140  141.9390 C   0  0  1  0  0  3  0  0  0  0  0  0
  185.5520  177.2950  141.2810 N   0  0  0  0  0  2  0  0  0  0  0  0
  185.5610  178.6800  141.5360 N   0  0  0  0  0  2  0  0  0  0  0  0
  187.7570  176.3500  140.9040 C   0  0  0  0  0  1  0  0  0  0  0  0
  187.2710  177.7490  142.8770 C   0  0  2  0  0  3  0  0  0  0  0  0
  190.0480  178.1630  143.3880 C   0  0  0  0  0  2  0  0  0  0  0  0
  191.0420  177.1790  142.8110 C   0  0  0  0  0  1  0  0  0  0  0  0
  187.6000  177.6060  147.4580 C   0  0  0  0  0  2  0  0  0  0  0  0
  186.3200  177.2660  147.9080 O   0  0  0  0  0  0  0  0  0  0  0  0
  185.5190  178.3450  147.5340 C   0  0  0  0  0  2  0  0  0  0  0  0
  184.5180  177.9040  146.4870 C   0  0  0  0  0  2  0  0  0  0  0  0
  184.0900  179.0050  145.7440 O   0  0  0  0  0  1  0  0  0  0  0  0
  1  3  1  0  0  0  0
  1 28  1  1  0  0  0
  2  3  1  0  0  0  0
  2  4  1  0  0  0  0
  3  5  1  0  0  0  0
  3  4  1  0  0  0  0
  6  5  1  0  0  0  0
  7  8  1  0  0  0  0
  7  6  1  0  0  0  0
  9 10  1  1  0  0  0
  9  8  1  0  0  0  0
 11  9  1  0  0  0  0
 12 13  1  1  0  0  0
 12 11  1  0  0  0  0
 14 12  1  0  0  0  0
 15 14  1  0  0  0  0
 16 15  1  0  0  0  0
 17  1  1  0  0  0  0
 18 17  2  0  0  0  0
 19 17  1  0  0  0  0
 20 25  1  0  0  0  0
 21 24  1  6  0  0  0
 21 25  1  0  0  0  0
 22 23  1  0  0  0  0
 22 21  1  0  0  0  0
 23 20  1  0  0  0  0
 25 18  1  1  0  0  0
 26 19  1  0  0  0  0
 27 26  1  0  0  0  0
 28 29  1  0  0  0  0
 30 29  1  0  0  0  0
 31 30  1  0  0  0  0
 32 31  1  0  0  0  0
M  END
>  <MODEL>
6

>  <REMARK>
 VINA RESULT:      -5.1      2.400      4.032
  Name = 
  17 active torsions:
  status: ('A' for Active; 'I' for Inactive)
    1  A    between atoms: C_1  and  O_20
    2  A    between atoms: C_2  and  C_9
    3  A    between atoms: C_2  and  C_23
    4  A    between atoms: C_4  and  C_5
    5  A    between atoms: C_4  and  O_13
    6  A    between atoms: C_6  and  N_31
    7  A    between atoms: C_8  and  C_23
    8  A    between atoms: C_8  and  O_28
    9  A    between atoms: C_9  and  C_10
   10  A    between atoms: C_10  and  C_19
   11  A    between atoms: O_13  and  C_15
   12  A    between atoms: C_14  and  C_26
   13  A    between atoms: C_14  and  O_28
   14  A    between atoms: C_15  and  C_26
   15  A    between atoms: C_16  and  C_26
   16  A    between atoms: C_19  and  O_20
   17  A    between atoms: N_27  and  C_32
                            x       y       z     vdW  Elec       q    Type
                         _______ _______ _______ _____ _____    ______ ____

>  <TORSDO>
F 17

$$$$
=
 OpenBabel11052421413D

 32 33  0  0  1  0  0  0  0  0999 V2000
  190.3220  173.9280  145.4470 C   0  0  2  0  0  3  0  0  0  0  0  0
  189.7810  175.8010  147.2080 C   0  0  0  0  0  2  0  0  0  0  0  0
  189.3200  174.9150  146.0630 C   0  0  0  0  0  0  0  0  0  0  0  0
  188.9330  174.5720  147.4880 C   0  0  0  0  0  2  0  0  0  0  0  0
  188.2070  175.3440  145.3120 O   0  0  0  0  0  0  0  0  0  0  0  0
  188.2970  176.7390  145.2210 C   0  0  0  0  0  2  0  0  0  0  0  0
  187.7790  177.2050  143.8770 C   0  0  0  0  0  2  0  0  0  0  0  0
  186.7780  178.3220  144.1060 C   0  0  0  0  0  2  0  0  0  0  0  0
  185.3560  177.8000  144.0000 C   0  0  2  0  0  3  0  0  0  0  0  0
  184.9040  177.8300  142.5480 C   0  0  0  0  0  1  0  0  0  0  0  0
  184.4430  178.6840  144.8440 C   0  0  0  0  0  2  0  0  0  0  0  0
  184.4250  178.2860  146.3190 C   0  0  1  0  0  3  0  0  0  0  0  0
  184.8210  176.8320  146.5080 C   0  0  0  0  0  1  0  0  0  0  0  0
  185.2620  179.1130  147.0700 O   0  0  0  0  0  0  0  0  0  0  0  0
  186.1230  178.2430  147.7420 C   0  0  0  0  0  2  0  0  0  0  0  0
  187.1870  179.0470  148.4560 C   0  0  0  0  0  1  0  0  0  0  0  0
  191.4730  174.6170  144.7720 C   0  0  0  0  0  0  0  0  0  0  0  0
  192.6790  174.2710  145.1260 N   0  0  0  0  0  0  0  0  0  0  0  0
  191.1980  175.6790  143.8380 N   0  0  0  0  0  2  0  0  0  0  0  0
  194.7950  173.7020  144.0980 C   0  0  0  0  0  2  0  0  0  0  0  0
  194.7310  175.3900  145.7450 C   0  0  1  0  0  3  0  0  0  0  0  0
  196.0160  174.7060  145.7670 N   0  0  0  0  0  2  0  0  0  0  0  0
  196.1420  173.9890  144.5610 N   0  0  0  0  0  2  0  0  0  0  0  0
  194.9450  176.8710  145.5170 C   0  0  0  0  0  1  0  0  0  0  0  0
  193.9270  174.8140  144.6140 C   0  0  2  0  0  3  0  0  0  0  0  0
  192.1630  176.5740  143.2220 C   0  0  0  0  0  2  0  0  0  0  0  0
  191.5860  177.9710  143.1560 C   0  0  0  0  0  1  0  0  0  0  0  0
  189.6600  172.8590  144.5740 C   0  0  0  0  0  2  0  0  0  0  0  0
  190.5780  172.2940  143.6830 O   0  0  0  0  0  0  0  0  0  0  0  0
  189.8430  172.0660  142.5200 C   0  0  0  0  0  2  0  0  0  0  0  0
  190.4150  172.8850  141.3820 C   0  0  0  0  0  2  0  0  0  0  0  0
  189.7030  174.0780  141.2510 O   0  0  0  0  0  1  0  0  0  0  0  0
  1 28  1  6  0  0  0
  1  3  1  0  0  0  0
  2  4  1  0  0  0  0
  3  2  1  0  0  0  0
  3  4  1  0  0  0  0
  5  3  1  0  0  0  0
  6  5  1  0  0  0  0
  7  8  1  0  0  0  0
  7  6  1  0  0  0  0
  9 10  1  6  0  0  0
  9  8  1  0  0  0  0
  9 11  1  0  0  0  0
 11 12  1  0  0  0  0
 12 13  1  6  0  0  0
 12 14  1  0  0  0  0
 14 15  1  0  0  0  0
 15 16  1  0  0  0  0
 17 18  2  0  0  0  0
 17  1  1  0  0  0  0
 19 17  1  0  0  0  0
 20 23  1  0  0  0  0
 20 25  1  0  0  0  0
 21 24  1  6  0  0  0
 21 22  1  0  0  0  0
 23 22  1  0  0  0  0
 25 18  1  1  0  0  0
 25 21  1  0  0  0  0
 26 19  1  0  0  0  0
 27 26  1  0  0  0  0
 29 28  1  0  0  0  0
 30 29  1  0  0  0  0
 31 30  1  0  0  0  0
 32 31  1  0  0  0  0
M  END
>  <MODEL>
7

>  <REMARK>
 VINA RESULT:      -5.1      2.956      6.949
  Name = 
  17 active torsions:
  status: ('A' for Active; 'I' for Inactive)
    1  A    between atoms: C_1  and  O_20
    2  A    between atoms: C_2  and  C_9
    3  A    between atoms: C_2  and  C_23
    4  A    between atoms: C_4  and  C_5
    5  A    between atoms: C_4  and  O_13
    6  A    between atoms: C_6  and  N_31
    7  A    between atoms: C_8  and  C_23
    8  A    between atoms: C_8  and  O_28
    9  A    between atoms: C_9  and  C_10
   10  A    between atoms: C_10  and  C_19
   11  A    between atoms: O_13  and  C_15
   12  A    between atoms: C_14  and  C_26
   13  A    between atoms: C_14  and  O_28
   14  A    between atoms: C_15  and  C_26
   15  A    between atoms: C_16  and  C_26
   16  A    between atoms: C_19  and  O_20
   17  A    between atoms: N_27  and  C_32
                            x       y       z     vdW  Elec       q    Type
                         _______ _______ _______ _____ _____    ______ ____

>  <TORSDO>
F 17

$$$$
=
 OpenBabel11052421413D

 32 33  0  0  1  0  0  0  0  0999 V2000
  192.2930  175.8760  145.7680 C   0  0  2  0  0  3  0  0  0  0  0  0
  191.2230  176.6810  148.0270 C   0  0  0  0  0  2  0  0  0  0  0  0
  191.0420  176.1720  146.6080 C   0  0  0  0  0  0  0  0  0  0  0  0
  190.8650  175.2260  147.7800 C   0  0  0  0  0  2  0  0  0  0  0  0
  189.8150  176.4400  145.9680 O   0  0  0  0  0  0  0  0  0  0  0  0
  188.8110  175.9000  146.7810 C   0  0  0  0  0  2  0  0  0  0  0  0
  187.6430  176.8580  146.8680 C   0  0  0  0  0  2  0  0  0  0  0  0
  186.8070  176.7170  145.6110 C   0  0  0  0  0  2  0  0  0  0  0  0
  186.4480  178.0820  145.0470 C   0  0  2  0  0  3  0  0  0  0  0  0
  184.9400  178.1940  144.8930 C   0  0  0  0  0  1  0  0  0  0  0  0
  187.1210  178.2450  143.6880 C   0  0  0  0  0  2  0  0  0  0  0  0
  187.4050  176.9100  142.9990 C   0  0  1  0  0  3  0  0  0  0  0  0
  186.7160  176.8230  141.6490 C   0  0  0  0  0  1  0  0  0  0  0  0
  188.7790  176.7080  142.8510 O   0  0  0  0  0  0  0  0  0  0  0  0
  189.2980  177.9650  142.5340 C   0  0  0  0  0  2  0  0  0  0  0  0
  190.7140  178.0650  143.0550 C   0  0  0  0  0  1  0  0  0  0  0  0
  192.1320  174.6650  144.8960 C   0  0  0  0  0  0  0  0  0  0  0  0
  191.2460  174.7180  143.9400 N   0  0  0  0  0  0  0  0  0  0  0  0
  192.8910  173.4790  145.2040 N   0  0  0  0  0  2  0  0  0  0  0  0
  191.1110  174.1590  141.5900 C   0  0  0  0  0  2  0  0  0  0  0  0
  189.4510  173.3580  143.0630 C   0  0  1  0  0  3  0  0  0  0  0  0
  188.8950  173.5640  141.7320 N   0  0  0  0  0  2  0  0  0  0  0  0
  189.9710  173.6760  140.8300 N   0  0  0  0  0  2  0  0  0  0  0  0
  189.2470  171.9180  143.4820 C   0  0  0  0  0  1  0  0  0  0  0  0
  190.9210  173.6630  142.9950 C   0  0  2  0  0  3  0  0  0  0  0  0
  192.7480  172.1660  144.5970 C   0  0  0  0  0  2  0  0  0  0  0  0
  193.9230  171.2970  144.9900 C   0  0  0  0  0  1  0  0  0  0  0  0
  193.5850  175.8640  146.5900 C   0  0  0  0  0  2  0  0  0  0  0  0
  194.3360  177.0220  146.3670 O   0  0  0  0  0  0  0  0  0  0  0  0
  194.4690  177.0930  144.9810 C   0  0  0  0  0  2  0  0  0  0  0  0
  195.6130  176.2120  144.5280 C   0  0  0  0  0  2  0  0  0  0  0  0
  195.2130  175.4320  143.4420 O   0  0  0  0  0  1  0  0  0  0  0  0
  1 28  1  1  0  0  0
  1  3  1  0  0  0  0
  3  4  1  0  0  0  0
  3  2  1  0  0  0  0
  4  2  1  0  0  0  0
  5  3  1  0  0  0  0
  5  6  1  0  0  0  0
  6  7  1  0  0  0  0
  8  7  1  0  0  0  0
  9 10  1  6  0  0  0
  9  8  1  0  0  0  0
 11  9  1  0  0  0  0
 12 13  1  6  0  0  0
 12 11  1  0  0  0  0
 14 12  1  0  0  0  0
 15 14  1  0  0  0  0
 15 16  1  0  0  0  0
 17 19  1  0  0  0  0
 17  1  1  0  0  0  0
 18 17  2  0  0  0  0
 20 25  1  0  0  0  0
 21 24  1  6  0  0  0
 22 21  1  0  0  0  0
 23 20  1  0  0  0  0
 23 22  1  0  0  0  0
 25 21  1  0  0  0  0
 25 18  1  1  0  0  0
 26 27  1  0  0  0  0
 26 19  1  0  0  0  0
 29 28  1  0  0  0  0
 30 29  1  0  0  0  0
 31 30  1  0  0  0  0
 32 31  1  0  0  0  0
M  END
>  <MODEL>
8

>  <REMARK>
 VINA RESULT:      -5.1      2.146      6.448
  Name = 
  17 active torsions:
  status: ('A' for Active; 'I' for Inactive)
    1  A    between atoms: C_1  and  O_20
    2  A    between atoms: C_2  and  C_9
    3  A    between atoms: C_2  and  C_23
    4  A    between atoms: C_4  and  C_5
    5  A    between atoms: C_4  and  O_13
    6  A    between atoms: C_6  and  N_31
    7  A    between atoms: C_8  and  C_23
    8  A    between atoms: C_8  and  O_28
    9  A    between atoms: C_9  and  C_10
   10  A    between atoms: C_10  and  C_19
   11  A    between atoms: O_13  and  C_15
   12  A    between atoms: C_14  and  C_26
   13  A    between atoms: C_14  and  O_28
   14  A    between atoms: C_15  and  C_26
   15  A    between atoms: C_16  and  C_26
   16  A    between atoms: C_19  and  O_20
   17  A    between atoms: N_27  and  C_32
                            x       y       z     vdW  Elec       q    Type
                         _______ _______ _______ _____ _____    ______ ____

>  <TORSDO>
F 17

$$$$
=
 OpenBabel11052421413D

 32 33  0  0  1  0  0  0  0  0999 V2000
  190.8300  174.8040  144.3160 C   0  0  2  0  0  3  0  0  0  0  0  0
  190.6140  175.0710  146.9200 C   0  0  0  0  0  2  0  0  0  0  0  0
  190.0360  175.2990  145.5330 C   0  0  0  0  0  0  0  0  0  0  0  0
  189.5000  174.1770  146.4020 C   0  0  0  0  0  2  0  0  0  0  0  0
  189.0920  176.3330  145.3810 O   0  0  0  0  0  0  0  0  0  0  0  0
  189.2550  177.1920  146.4760 C   0  0  0  0  0  2  0  0  0  0  0  0
  187.9040  177.6140  147.0110 C   0  0  0  0  0  2  0  0  0  0  0  0
  186.8290  176.8250  146.2870 C   0  0  0  0  0  2  0  0  0  0  0  0
  185.7490  177.7500  145.7540 C   0  0  2  0  0  3  0  0  0  0  0  0
  184.4520  177.5170  146.5120 C   0  0  0  0  0  1  0  0  0  0  0  0
  185.5410  177.4590  144.2710 C   0  0  0  0  0  2  0  0  0  0  0  0
  185.2320  178.7140  143.4550 C   0  0  1  0  0  3  0  0  0  0  0  0
  185.5640  179.9770  144.2290 C   0  0  0  0  0  1  0  0  0  0  0  0
  185.9190  178.7000  142.2400 O   0  0  0  0  0  0  0  0  0  0  0  0
  187.1620  178.1350  142.5330 C   0  0  0  0  0  2  0  0  0  0  0  0
  187.6280  177.3150  141.3520 C   0  0  0  0  0  1  0  0  0  0  0  0
  192.2620  175.2530  144.3370 C   0  0  0  0  0  0  0  0  0  0  0  0
  193.1700  174.4040  143.9450 N   0  0  0  0  0  0  0  0  0  0  0  0
  192.5760  176.5570  144.8660 N   0  0  0  0  0  2  0  0  0  0  0  0
  195.0870  174.5570  142.4750 C   0  0  0  0  0  2  0  0  0  0  0  0
  195.3170  173.4800  144.5620 C   0  0  1  0  0  3  0  0  0  0  0  0
  196.2250  172.8950  143.5840 N   0  0  0  0  0  2  0  0  0  0  0  0
  196.3190  173.7880  142.4980 N   0  0  0  0  0  2  0  0  0  0  0  0
  196.1070  173.9890  145.7490 C   0  0  0  0  0  1  0  0  0  0  0  0
  194.6070  174.6250  143.8960 C   0  0  2  0  0  3  0  0  0  0  0  0
  193.8980  177.0990  145.1310 C   0  0  0  0  0  2  0  0  0  0  0  0
  194.1890  177.0180  146.6140 C   0  0  0  0  0  1  0  0  0  0  0  0
  190.1280  175.0800  142.9830 C   0  0  0  0  0  2  0  0  0  0  0  0
  189.0750  174.1840  142.7720 O   0  0  0  0  0  0  0  0  0  0  0  0
  189.2420  173.7500  141.4570 C   0  0  0  0  0  2  0  0  0  0  0  0
  190.1040  172.5070  141.4300 C   0  0  0  0  0  2  0  0  0  0  0  0
  189.6790  171.6120  142.4150 O   0  0  0  0  0  1  0  0  0  0  0  0
  1 28  1  6  0  0  0
  1 17  1  0  0  0  0
  1  3  1  0  0  0  0
  3  4  1  0  0  0  0
  3  2  1  0  0  0  0
  4  2  1  0  0  0  0
  5  3  1  0  0  0  0
  5  6  1  0  0  0  0
  6  7  1  0  0  0  0
  8  7  1  0  0  0  0
  9  8  1  0  0  0  0
  9 10  1  1  0  0  0
 11  9  1  0  0  0  0
 12 13  1  1  0  0  0
 12 11  1  0  0  0  0
 14 15  1  0  0  0  0
 14 12  1  0  0  0  0
 16 15  1  0  0  0  0
 17 19  1  0  0  0  0
 18 17  2  0  0  0  0
 19 26  1  0  0  0  0
 20 23  1  0  0  0  0
 20 25  1  0  0  0  0
 21 24  1  1  0  0  0
 22 21  1  0  0  0  0
 23 22  1  0  0  0  0
 25 18  1  6  0  0  0
 25 21  1  0  0  0  0
 26 27  1  0  0  0  0
 29 28  1  0  0  0  0
 30 29  1  0  0  0  0
 31 30  1  0  0  0  0
 31 32  1  0  0  0  0
M  END
>  <MODEL>
9

>  <REMARK>
 VINA RESULT:      -5.1      2.978      6.634
  Name = 
  17 active torsions:
  status: ('A' for Active; 'I' for Inactive)
    1  A    between atoms: C_1  and  O_20
    2  A    between atoms: C_2  and  C_9
    3  A    between atoms: C_2  and  C_23
    4  A    between atoms: C_4  and  C_5
    5  A    between atoms: C_4  and  O_13
    6  A    between atoms: C_6  and  N_31
    7  A    between atoms: C_8  and  C_23
    8  A    between atoms: C_8  and  O_28
    9  A    between atoms: C_9  and  C_10
   10  A    between atoms: C_10  and  C_19
   11  A    between atoms: O_13  and  C_15
   12  A    between atoms: C_14  and  C_26
   13  A    between atoms: C_14  and  O_28
   14  A    between atoms: C_15  and  C_26
   15  A    between atoms: C_16  and  C_26
   16  A    between atoms: C_19  and  O_20
   17  A    between atoms: N_27  and  C_32
                            x       y       z     vdW  Elec       q    Type
                         _______ _______ _______ _____ _____    ______ ____

>  <TORSDO>
F 17

$$$$
