=
 OpenBabel11052417233D

 30 31  0  0  1  0  0  0  0  0999 V2000
  190.5940  176.9460  146.6080 C   0  0  1  0  0  3  0  0  0  0  0  0
  193.0290  175.4360  146.0360 C   0  0  0  0  0  2  0  0  0  0  0  0
  192.9790  176.5300  144.9890 C   0  0  0  0  0  0  0  0  0  0  0  0
  189.6920  177.6590  147.4130 O   0  0  0  0  0  1  0  0  0  0  0  0
  191.6730  174.7080  146.2500 C   0  0  0  0  0  2  0  0  0  0  0  0
  190.6430  175.5420  146.8530 N   0  0  0  0  0  0  0  0  0  0  0  0
  191.6700  176.8470  144.3060 C   0  0  2  0  0  3  0  0  0  0  0  0
  193.9260  177.2480  144.8750 O   0  0  0  0  0  0  0  0  0  0  0  0
  190.4360  177.3970  145.0970 C   0  0  1  0  0  3  0  0  0  0  0  0
  189.2780  174.8450  146.5870 C   0  0  0  0  0  2  0  0  0  0  0  0
  188.7090  174.4150  147.7580 O   0  0  0  0  0  1  0  0  0  0  0  0
  191.4790  176.3740  142.8740 C   0  0  0  0  0  2  0  0  0  0  0  0
  192.4510  175.1740  142.6290 C   0  0  0  0  0  2  0  0  0  0  0  0
  191.7070  173.8670  142.7850 N   0  0  0  0  0  2  0  0  0  0  0  0
  190.2930  174.0620  142.2460 C   0  0  0  0  0  3  0  0  0  0  0  0
  189.6910  172.7570  141.7530 C   0  0  0  0  0  2  0  0  0  0  0  0
  189.3380  173.2390  143.1580 C   0  0  0  0  0  2  0  0  0  0  0  0
  189.0880  177.0150  144.4390 C   0  0  0  0  0  2  0  0  0  0  0  0
  187.9480  177.8030  143.7460 C   0  0  0  0  0  2  0  0  0  0  0  0
  186.5200  177.2400  143.8140 C   0  0  2  0  0  0  0  0  0  0  0  0
  186.6010  175.9840  142.8820 C   0  0  0  0  0  1  0  0  0  0  0  0
  185.6430  178.2370  143.2630 O   0  0  0  0  0  0  0  0  0  0  0  0
  185.7460  178.4150  141.8510 C   0  0  0  0  0  3  0  0  0  0  0  0
  184.5310  178.2760  140.8220 C   0  0  0  0  0  3  0  0  0  0  0  0
  183.2670  178.1580  141.3080 O   0  0  0  0  0  1  0  0  0  0  0  0
  185.9960  176.8830  145.3630 C   0  0  0  0  0  2  0  0  0  0  0  0
  186.1180  176.7970  147.8220 O   0  0  0  0  0  1  0  0  0  0  0  0
  186.2960  177.6500  146.7090 C   0  0  2  0  0  3  0  0  0  0  0  0
  183.9980  178.2690  146.2390 O   0  0  0  0  0  1  0  0  0  0  0  0
  185.2160  178.6980  146.7590 C   0  0  0  0  0  2  0  0  0  0  0  0
  1  6  1  0  0  0  0
  1  4  1  1  0  0  0
  2  5  1  0  0  0  0
  3  2  1  0  0  0  0
  5  6  1  0  0  0  0
  7 12  1  1  0  0  0
  7  3  1  0  0  0  0
  7  9  1  0  0  0  0
  8  3  2  0  0  0  0
  9 18  1  6  0  0  0
  9  1  1  0  0  0  0
 10  6  1  0  0  0  0
 10 11  1  0  0  0  0
 13 14  1  0  0  0  0
 13 12  1  0  0  0  0
 15 14  1  0  0  0  0
 15 17  1  0  0  0  0
 16 15  1  0  0  0  0
 16 17  1  0  0  0  0
 19 20  1  0  0  0  0
 19 18  1  0  0  0  0
 20 21  1  6  0  0  0
 20 26  1  0  0  0  0
 22 20  1  0  0  0  0
 23 22  1  0  0  0  0
 24 25  1  0  0  0  0
 24 23  2  0  0  0  0
 26 28  1  0  0  0  0
 28 30  1  0  0  0  0
 28 27  1  1  0  0  0
 29 30  1  0  0  0  0
M  END
>  <MODEL>
1

>  <REMARK>
 VINA RESULT:      -5.6      0.000      0.000
  Name = 
  14 active torsions:
  status: ('A' for Active; 'I' for Inactive)
    1  A    between atoms: C_1  and  C_4
    2  A    between atoms: C_1  and  C_22
    3  A    between atoms: C_4  and  O_8
    4  A    between atoms: C_4  and  C_12
    5  A    between atoms: C_7  and  C_23
    6  A    between atoms: C_7  and  C_25
    7  A    between atoms: O_8  and  C_27
    8  A    between atoms: C_10  and  N_15
    9  A    between atoms: C_12  and  C_21
   10  A    between atoms: C_13  and  C_27
   11  A    between atoms: C_14  and  N_20
   12  A    between atoms: N_15  and  C_25
   13  A    between atoms: C_17  and  C_21
   14  A    between atoms: C_22  and  C_29
                            x       y       z     vdW  Elec       q    Type
                         _______ _______ _______ _____ _____    ______ ____

>  <TORSDO>
F 14

$$$$
=
 OpenBabel11052417233D

 30 31  0  0  1  0  0  0  0  0999 V2000
  191.5180  173.9380  145.2240 C   0  0  1  0  0  3  0  0  0  0  0  0
  190.8760  175.4500  147.6400 C   0  0  0  0  0  2  0  0  0  0  0  0
  189.5420  175.0080  147.0770 C   0  0  0  0  0  0  0  0  0  0  0  0
  192.1770  172.9540  144.4690 O   0  0  0  0  0  1  0  0  0  0  0  0
  191.8490  176.0270  146.5750 C   0  0  0  0  0  2  0  0  0  0  0  0
  192.3300  175.0410  145.6180 N   0  0  0  0  0  0  0  0  0  0  0  0
  189.2910  175.1090  145.5910 C   0  0  2  0  0  3  0  0  0  0  0  0
  188.7980  174.4030  147.7890 O   0  0  0  0  0  0  0  0  0  0  0  0
  190.1260  174.2860  144.5530 C   0  0  1  0  0  3  0  0  0  0  0  0
  192.8960  175.8270  144.4000 C   0  0  0  0  0  2  0  0  0  0  0  0
  192.6680  177.1720  144.5350 O   0  0  0  0  0  1  0  0  0  0  0  0
  188.3880  176.2260  145.0940 C   0  0  0  0  0  2  0  0  0  0  0  0
  187.3760  176.5720  146.2350 C   0  0  0  0  0  2  0  0  0  0  0  0
  186.6300  177.8420  145.8960 N   0  0  0  0  0  2  0  0  0  0  0  0
  185.1410  177.5130  145.8400 C   0  0  0  0  0  3  0  0  0  0  0  0
  184.3520  178.2810  146.8860 C   0  0  0  0  0  2  0  0  0  0  0  0
  184.3960  178.8260  145.4600 C   0  0  0  0  0  2  0  0  0  0  0  0
  190.2220  174.9870  143.1760 C   0  0  0  0  0  2  0  0  0  0  0  0
  189.9320  174.5660  141.7130 C   0  0  0  0  0  2  0  0  0  0  0  0
  188.4680  174.4540  141.2590 C   0  0  2  0  0  0  0  0  0  0  0  0
  188.0480  173.0450  141.7990 C   0  0  0  0  0  1  0  0  0  0  0  0
  188.4670  174.4780  139.8210 O   0  0  0  0  0  0  0  0  0  0  0  0
  189.4590  173.6580  139.2040 C   0  0  0  0  0  2  0  0  0  0  0  0
  189.1570  172.3300  138.3680 C   0  0  0  0  0  2  0  0  0  0  0  0
  189.6100  171.1370  138.8400 O   0  0  0  0  0  1  0  0  0  0  0  0
  187.4840  175.6940  141.8020 C   0  0  0  0  0  2  0  0  0  0  0  0
  188.5670  177.9050  141.7550 O   0  0  0  0  0  1  0  0  0  0  0  0
  187.4270  177.1940  141.3180 C   0  0  2  0  0  3  0  0  0  0  0  0
  186.4360  179.0310  142.5530 O   0  0  0  0  0  1  0  0  0  0  0  0
  186.2340  177.7500  142.0500 C   0  0  0  0  0  2  0  0  0  0  0  0
  1  4  1  6  0  0  0
  1  6  1  0  0  0  0
  3  2  1  0  0  0  0
  3  8  2  0  0  0  0
  5  2  1  0  0  0  0
  6  5  1  0  0  0  0
  7 12  1  6  0  0  0
  7  3  1  0  0  0  0
  9 18  1  6  0  0  0
  9  1  1  0  0  0  0
  9  7  1  0  0  0  0
 10 11  1  0  0  0  0
 10  6  1  0  0  0  0
 12 13  1  0  0  0  0
 14 13  1  0  0  0  0
 15 14  1  0  0  0  0
 15 16  1  0  0  0  0
 17 15  1  0  0  0  0
 17 16  1  0  0  0  0
 19 18  1  0  0  0  0
 20 19  1  0  0  0  0
 20 21  1  1  0  0  0
 20 26  1  0  0  0  0
 22 20  1  0  0  0  0
 23 22  1  0  0  0  0
 24 25  1  0  0  0  0
 24 23  1  0  0  0  0
 28 27  1  1  0  0  0
 28 26  1  0  0  0  0
 28 30  1  0  0  0  0
 30 29  1  0  0  0  0
M  END
>  <MODEL>
2

>  <REMARK>
 VINA RESULT:      -5.5      2.830      5.560
  Name = 
  14 active torsions:
  status: ('A' for Active; 'I' for Inactive)
    1  A    between atoms: C_1  and  C_4
    2  A    between atoms: C_1  and  C_22
    3  A    between atoms: C_4  and  O_8
    4  A    between atoms: C_4  and  C_12
    5  A    between atoms: C_7  and  C_23
    6  A    between atoms: C_7  and  C_25
    7  A    between atoms: O_8  and  C_27
    8  A    between atoms: C_10  and  N_15
    9  A    between atoms: C_12  and  C_21
   10  A    between atoms: C_13  and  C_27
   11  A    between atoms: C_14  and  N_20
   12  A    between atoms: N_15  and  C_25
   13  A    between atoms: C_17  and  C_21
   14  A    between atoms: C_22  and  C_29
                            x       y       z     vdW  Elec       q    Type
                         _______ _______ _______ _____ _____    ______ ____

>  <TORSDO>
F 14

$$$$
=
 OpenBabel11052417233D

 30 31  0  0  1  0  0  0  0  0999 V2000
  191.2950  175.0410  144.8020 C   0  0  1  0  0  3  0  0  0  0  0  0
  191.0240  175.2460  147.7040 C   0  0  0  0  0  2  0  0  0  0  0  0
  189.6070  175.2010  147.1710 C   0  0  0  0  0  0  0  0  0  0  0  0
  191.7780  174.5040  143.5990 O   0  0  0  0  0  1  0  0  0  0  0  0
  191.9600  176.2090  146.9220 C   0  0  0  0  0  2  0  0  0  0  0  0
  192.2510  175.7750  145.5630 N   0  0  0  0  0  0  0  0  0  0  0  0
  189.2450  176.0130  145.9510 C   0  0  2  0  0  3  0  0  0  0  0  0
  188.8650  174.3710  147.6040 O   0  0  0  0  0  0  0  0  0  0  0  0
  189.8960  175.7430  144.5530 C   0  0  1  0  0  3  0  0  0  0  0  0
  192.7930  177.0160  144.7960 C   0  0  0  0  0  2  0  0  0  0  0  0
  194.0920  177.2820  145.1490 O   0  0  0  0  0  1  0  0  0  0  0  0
  188.4280  177.2800  146.1530 C   0  0  0  0  0  2  0  0  0  0  0  0
  187.3450  176.9860  147.2420 C   0  0  0  0  0  2  0  0  0  0  0  0
  185.9650  177.0430  146.6250 N   0  0  0  0  0  2  0  0  0  0  0  0
  185.2980  178.3370  147.0820 C   0  0  0  0  0  3  0  0  0  0  0  0
  185.3490  179.4100  146.0070 C   0  0  0  0  0  2  0  0  0  0  0  0
  184.0770  178.5770  146.1480 C   0  0  0  0  0  2  0  0  0  0  0  0
  189.9510  177.0110  143.6660 C   0  0  0  0  0  2  0  0  0  0  0  0
  189.1840  177.5010  142.4120 C   0  0  0  0  0  2  0  0  0  0  0  0
  187.8110  176.8810  142.1040 C   0  0  2  0  0  0  0  0  0  0  0  0
  187.4120  177.5800  140.7610 C   0  0  0  0  0  1  0  0  0  0  0  0
  186.9240  177.2630  143.1700 O   0  0  0  0  0  0  0  0  0  0  0  0
  185.5390  177.0370  142.9100 C   0  0  0  0  0  2  0  0  0  0  0  0
  184.4730  178.1800  142.5770 C   0  0  0  0  0  2  0  0  0  0  0  0
  183.6140  177.9970  141.5380 O   0  0  0  0  0  1  0  0  0  0  0  0
  187.8190  175.2100  142.0060 C   0  0  0  0  0  2  0  0  0  0  0  0
  188.3600  173.8980  139.9940 O   0  0  0  0  0  1  0  0  0  0  0  0
  188.8470  174.2680  141.2680 C   0  0  2  0  0  3  0  0  0  0  0  0
  189.6660  172.0130  141.6210 O   0  0  0  0  0  1  0  0  0  0  0  0
  188.8650  173.0330  142.1270 C   0  0  0  0  0  2  0  0  0  0  0  0
  1  4  1  6  0  0  0
  1  6  1  0  0  0  0
  3  8  2  0  0  0  0
  3  2  1  0  0  0  0
  5  2  1  0  0  0  0
  6  5  1  0  0  0  0
  7 12  1  1  0  0  0
  7  3  1  0  0  0  0
  9 18  1  1  0  0  0
  9  1  1  0  0  0  0
  9  7  1  0  0  0  0
 10 11  1  0  0  0  0
 10  6  1  0  0  0  0
 12 13  1  0  0  0  0
 14 15  1  0  0  0  0
 14 13  1  0  0  0  0
 16 17  1  0  0  0  0
 16 15  1  0  0  0  0
 17 15  1  0  0  0  0
 19 18  1  0  0  0  0
 20 21  1  6  0  0  0
 20 19  1  0  0  0  0
 20 22  1  0  0  0  0
 23 22  1  0  0  0  0
 24 23  1  0  0  0  0
 25 24  1  0  0  0  0
 26 20  1  0  0  0  0
 28 27  1  6  0  0  0
 28 26  1  0  0  0  0
 28 30  1  0  0  0  0
 29 30  1  0  0  0  0
M  END
>  <MODEL>
3

>  <REMARK>
 VINA RESULT:      -5.5      2.384      5.335
  Name = 
  14 active torsions:
  status: ('A' for Active; 'I' for Inactive)
    1  A    between atoms: C_1  and  C_4
    2  A    between atoms: C_1  and  C_22
    3  A    between atoms: C_4  and  O_8
    4  A    between atoms: C_4  and  C_12
    5  A    between atoms: C_7  and  C_23
    6  A    between atoms: C_7  and  C_25
    7  A    between atoms: O_8  and  C_27
    8  A    between atoms: C_10  and  N_15
    9  A    between atoms: C_12  and  C_21
   10  A    between atoms: C_13  and  C_27
   11  A    between atoms: C_14  and  N_20
   12  A    between atoms: N_15  and  C_25
   13  A    between atoms: C_17  and  C_21
   14  A    between atoms: C_22  and  C_29
                            x       y       z     vdW  Elec       q    Type
                         _______ _______ _______ _____ _____    ______ ____

>  <TORSDO>
F 14

$$$$
=
 OpenBabel11052417233D

 30 31  0  0  1  0  0  0  0  0999 V2000
  189.1730  177.6020  142.6050 C   0  0  1  0  0  3  0  0  0  0  0  0
  186.9270  176.8310  140.9030 C   0  0  0  0  0  2  0  0  0  0  0  0
  186.3330  177.7250  141.9720 C   0  0  0  0  0  0  0  0  0  0  0  0
  190.4550  178.1040  142.8810 O   0  0  0  0  0  1  0  0  0  0  0  0
  187.9120  175.7630  141.4540 C   0  0  0  0  0  2  0  0  0  0  0  0
  189.1480  176.3170  141.9870 N   0  0  0  0  0  0  0  0  0  0  0  0
  186.7610  177.5520  143.4090 C   0  0  2  0  0  3  0  0  0  0  0  0
  185.6970  178.6750  141.6260 O   0  0  0  0  0  0  0  0  0  0  0  0
  188.2370  177.7990  143.8690 C   0  0  1  0  0  3  0  0  0  0  0  0
  189.7940  175.2170  142.8780 C   0  0  0  0  0  2  0  0  0  0  0  0
  188.9810  174.1160  142.9650 O   0  0  0  0  0  1  0  0  0  0  0  0
  185.7930  176.8750  144.3660 C   0  0  0  0  0  2  0  0  0  0  0  0
  184.8270  177.9690  144.9290 C   0  0  0  0  0  2  0  0  0  0  0  0
  185.5930  178.9300  145.8100 N   0  0  0  0  0  2  0  0  0  0  0  0
  185.2630  178.6030  147.2630 C   0  0  0  0  0  3  0  0  0  0  0  0
  186.0760  177.4280  147.7780 C   0  0  0  0  0  2  0  0  0  0  0  0
  186.5570  178.8420  148.0920 C   0  0  0  0  0  2  0  0  0  0  0  0
  188.6250  176.9550  145.1080 C   0  0  0  0  0  2  0  0  0  0  0  0
  189.4950  177.1990  146.3670 C   0  0  0  0  0  2  0  0  0  0  0  0
  190.4680  176.0950  146.8100 C   0  0  2  0  0  0  0  0  0  0  0  0
  189.5860  174.8040  146.7230 C   0  0  0  0  0  1  0  0  0  0  0  0
  190.8390  176.3770  148.1700 O   0  0  0  0  0  0  0  0  0  0  0  0
  191.0760  177.7550  148.4560 C   0  0  0  0  0  3  0  0  0  0  0  0
  191.4750  178.3350  149.8910 C   0  0  0  0  0  3  0  0  0  0  0  0
  191.6710  177.4680  150.9200 O   0  0  0  0  0  1  0  0  0  0  0  0
  191.8670  176.0050  145.8960 C   0  0  0  0  0  2  0  0  0  0  0  0
  194.1940  175.5020  146.5280 O   0  0  0  0  0  1  0  0  0  0  0  0
  193.0270  174.9370  145.9660 C   0  0  2  0  0  3  0  0  0  0  0  0
  194.4010  173.7930  144.3280 O   0  0  0  0  0  1  0  0  0  0  0  0
  193.3140  174.6410  144.5180 C   0  0  0  0  0  2  0  0  0  0  0  0
  1  4  1  1  0  0  0
  1  9  1  0  0  0  0
  2  5  1  0  0  0  0
  2  3  1  0  0  0  0
  3  7  1  0  0  0  0
  5  6  1  0  0  0  0
  6  1  1  0  0  0  0
  6 10  1  0  0  0  0
  7  9  1  0  0  0  0
  7 12  1  6  0  0  0
  8  3  2  0  0  0  0
  9 18  1  1  0  0  0
 10 11  1  0  0  0  0
 12 13  1  0  0  0  0
 13 14  1  0  0  0  0
 14 15  1  0  0  0  0
 15 16  1  0  0  0  0
 15 17  1  0  0  0  0
 16 17  1  0  0  0  0
 18 19  1  0  0  0  0
 19 20  1  0  0  0  0
 20 21  1  6  0  0  0
 20 22  1  0  0  0  0
 22 23  1  0  0  0  0
 23 24  2  0  0  0  0
 24 25  1  0  0  0  0
 26 28  1  0  0  0  0
 26 20  1  0  0  0  0
 28 27  1  6  0  0  0
 29 30  1  0  0  0  0
 30 28  1  0  0  0  0
M  END
>  <MODEL>
4

>  <REMARK>
 VINA RESULT:      -5.5      2.456      7.341
  Name = 
  14 active torsions:
  status: ('A' for Active; 'I' for Inactive)
    1  A    between atoms: C_1  and  C_4
    2  A    between atoms: C_1  and  C_22
    3  A    between atoms: C_4  and  O_8
    4  A    between atoms: C_4  and  C_12
    5  A    between atoms: C_7  and  C_23
    6  A    between atoms: C_7  and  C_25
    7  A    between atoms: O_8  and  C_27
    8  A    between atoms: C_10  and  N_15
    9  A    between atoms: C_12  and  C_21
   10  A    between atoms: C_13  and  C_27
   11  A    between atoms: C_14  and  N_20
   12  A    between atoms: N_15  and  C_25
   13  A    between atoms: C_17  and  C_21
   14  A    between atoms: C_22  and  C_29
                            x       y       z     vdW  Elec       q    Type
                         _______ _______ _______ _____ _____    ______ ____

>  <TORSDO>
F 14

$$$$
=
 OpenBabel11052417233D

 30 31  0  0  1  0  0  0  0  0999 V2000
  190.5210  177.1210  146.6760 C   0  0  1  0  0  3  0  0  0  0  0  0
  192.9850  175.5740  146.4120 C   0  0  0  0  0  2  0  0  0  0  0  0
  193.0470  176.6180  145.3160 C   0  0  0  0  0  0  0  0  0  0  0  0
  189.5520  177.8750  147.3560 O   0  0  0  0  0  1  0  0  0  0  0  0
  191.6080  174.8640  146.5270 C   0  0  0  0  0  2  0  0  0  0  0  0
  190.5330  175.7300  146.9890 N   0  0  0  0  0  0  0  0  0  0  0  0
  191.8130  176.9090  144.4960 C   0  0  2  0  0  3  0  0  0  0  0  0
  194.0080  177.3260  145.2620 O   0  0  0  0  0  0  0  0  0  0  0  0
  190.5140  177.5020  145.1380 C   0  0  1  0  0  3  0  0  0  0  0  0
  189.1930  175.0280  146.6240 C   0  0  0  0  0  2  0  0  0  0  0  0
  189.4180  173.8990  145.8790 O   0  0  0  0  0  1  0  0  0  0  0  0
  191.7570  176.3710  143.0750 C   0  0  0  0  0  2  0  0  0  0  0  0
  192.5350  175.0150  143.0420 C   0  0  0  0  0  2  0  0  0  0  0  0
  193.4100  174.9520  141.8100 N   0  0  0  0  0  2  0  0  0  0  0  0
  194.2090  176.2490  141.7320 C   0  0  0  0  0  3  0  0  0  0  0  0
  195.6070  176.0880  142.3020 C   0  0  0  0  0  2  0  0  0  0  0  0
  195.4190  175.9860  140.7910 C   0  0  0  0  0  2  0  0  0  0  0  0
  189.2320  177.0960  144.3710 C   0  0  0  0  0  2  0  0  0  0  0  0
  187.9160  177.8170  143.9830 C   0  0  0  0  0  2  0  0  0  0  0  0
  186.6110  177.0070  143.9750 C   0  0  2  0  0  0  0  0  0  0  0  0
  187.0510  175.6520  143.3250 C   0  0  0  0  0  1  0  0  0  0  0  0
  185.6810  177.7070  143.1300 O   0  0  0  0  0  0  0  0  0  0  0  0
  186.2740  178.4280  142.0510 C   0  0  0  0  0  2  0  0  0  0  0  0
  186.2270  177.9790  140.5180 C   0  0  0  0  0  2  0  0  0  0  0  0
  186.9410  176.8890  140.1280 O   0  0  0  0  0  1  0  0  0  0  0  0
  185.9080  176.8220  145.4830 C   0  0  0  0  0  2  0  0  0  0  0  0
  186.0190  176.7890  147.9430 O   0  0  0  0  0  1  0  0  0  0  0  0
  186.2010  177.6180  146.8140 C   0  0  2  0  0  3  0  0  0  0  0  0
  183.9780  178.3030  146.1300 O   0  0  0  0  0  1  0  0  0  0  0  0
  185.1200  178.6650  146.8370 C   0  0  0  0  0  2  0  0  0  0  0  0
  1  6  1  0  0  0  0
  1  4  1  1  0  0  0
  2  5  1  0  0  0  0
  3  2  1  0  0  0  0
  5  6  1  0  0  0  0
  7 12  1  1  0  0  0
  7  9  1  0  0  0  0
  7  3  1  0  0  0  0
  8  3  2  0  0  0  0
  9 18  1  6  0  0  0
  9  1  1  0  0  0  0
 10  6  1  0  0  0  0
 11 10  1  0  0  0  0
 13 12  1  0  0  0  0
 14 13  1  0  0  0  0
 15 14  1  0  0  0  0
 15 16  1  0  0  0  0
 17 15  1  0  0  0  0
 17 16  1  0  0  0  0
 19 18  1  0  0  0  0
 20 21  1  6  0  0  0
 20 19  1  0  0  0  0
 20 26  1  0  0  0  0
 22 20  1  0  0  0  0
 23 22  1  0  0  0  0
 24 23  1  0  0  0  0
 25 24  1  0  0  0  0
 26 28  1  0  0  0  0
 28 30  1  0  0  0  0
 28 27  1  1  0  0  0
 29 30  1  0  0  0  0
M  END
>  <MODEL>
5

>  <REMARK>
 VINA RESULT:      -5.3      1.376      2.224
  Name = 
  14 active torsions:
  status: ('A' for Active; 'I' for Inactive)
    1  A    between atoms: C_1  and  C_4
    2  A    between atoms: C_1  and  C_22
    3  A    between atoms: C_4  and  O_8
    4  A    between atoms: C_4  and  C_12
    5  A    between atoms: C_7  and  C_23
    6  A    between atoms: C_7  and  C_25
    7  A    between atoms: O_8  and  C_27
    8  A    between atoms: C_10  and  N_15
    9  A    between atoms: C_12  and  C_21
   10  A    between atoms: C_13  and  C_27
   11  A    between atoms: C_14  and  N_20
   12  A    between atoms: N_15  and  C_25
   13  A    between atoms: C_17  and  C_21
   14  A    between atoms: C_22  and  C_29
                            x       y       z     vdW  Elec       q    Type
                         _______ _______ _______ _____ _____    ______ ____

>  <TORSDO>
F 14

$$$$
=
 OpenBabel11052417233D

 30 31  0  0  1  0  0  0  0  0999 V2000
  191.1520  177.1980  143.5900 C   0  0  1  0  0  3  0  0  0  0  0  0
  192.4810  174.6070  143.3550 C   0  0  0  0  0  2  0  0  0  0  0  0
  191.3910  174.5960  142.3040 C   0  0  0  0  0  0  0  0  0  0  0  0
  191.0850  178.5980  143.6630 O   0  0  0  0  0  1  0  0  0  0  0  0
  192.0150  175.1400  144.7380 C   0  0  0  0  0  2  0  0  0  0  0  0
  191.6890  176.5590  144.7460 N   0  0  0  0  0  0  0  0  0  0  0  0
  190.0190  175.1250  142.6480 C   0  0  2  0  0  3  0  0  0  0  0  0
  191.6960  174.3590  141.1730 O   0  0  0  0  0  0  0  0  0  0  0  0
  189.7830  176.6240  143.0340 C   0  0  1  0  0  3  0  0  0  0  0  0
  190.8380  176.8240  146.0210 C   0  0  0  0  0  2  0  0  0  0  0  0
  190.5520  175.6520  146.6740 O   0  0  0  0  0  1  0  0  0  0  0  0
  188.9020  174.1200  142.8740 C   0  0  0  0  0  2  0  0  0  0  0  0
  188.1420  173.9310  141.5200 C   0  0  0  0  0  2  0  0  0  0  0  0
  188.6250  172.6770  140.8270 N   0  0  0  0  0  2  0  0  0  0  0  0
  188.3030  172.8050  139.3420 C   0  0  0  0  0  3  0  0  0  0  0  0
  189.1960  173.8230  138.6550 C   0  0  0  0  0  2  0  0  0  0  0  0
  189.5660  172.3450  138.5580 C   0  0  0  0  0  2  0  0  0  0  0  0
  188.5660  176.8140  143.9730 C   0  0  0  0  0  2  0  0  0  0  0  0
  187.6050  177.9860  144.2910 C   0  0  0  0  0  2  0  0  0  0  0  0
  186.0950  177.7660  144.1090 C   0  0  2  0  0  0  0  0  0  0  0  0
  185.4910  179.1360  144.5680 C   0  0  0  0  0  1  0  0  0  0  0  0
  185.7100  176.7070  145.0010 O   0  0  0  0  0  0  0  0  0  0  0  0
  185.2300  177.1360  146.2750 C   0  0  0  0  0  2  0  0  0  0  0  0
  186.1130  177.2130  147.6050 C   0  0  0  0  0  2  0  0  0  0  0  0
  186.4570  178.4340  148.0980 O   0  0  0  0  0  1  0  0  0  0  0  0
  185.6470  177.3300  142.5570 C   0  0  0  0  0  2  0  0  0  0  0  0
  183.8720  178.1220  141.0440 O   0  0  0  0  0  1  0  0  0  0  0  0
  185.2450  178.2590  141.3460 C   0  0  2  0  0  3  0  0  0  0  0  0
  187.3100  177.2740  140.5410 O   0  0  0  0  0  1  0  0  0  0  0  0
  186.0260  177.6860  140.1940 C   0  0  0  0  0  2  0  0  0  0  0  0
  1  4  1  1  0  0  0
  1  6  1  0  0  0  0
  2  5  1  0  0  0  0
  3  7  1  0  0  0  0
  3  2  1  0  0  0  0
  5  6  1  0  0  0  0
  6 10  1  0  0  0  0
  7 12  1  1  0  0  0
  7  9  1  0  0  0  0
  8  3  2  0  0  0  0
  9  1  1  0  0  0  0
  9 18  1  1  0  0  0
 10 11  1  0  0  0  0
 13 12  1  0  0  0  0
 14 13  1  0  0  0  0
 15 14  1  0  0  0  0
 16 15  1  0  0  0  0
 17 16  1  0  0  0  0
 17 15  1  0  0  0  0
 18 19  1  0  0  0  0
 20 19  1  0  0  0  0
 20 21  1  1  0  0  0
 20 22  1  0  0  0  0
 22 23  1  0  0  0  0
 23 24  1  0  0  0  0
 24 25  1  0  0  0  0
 26 20  1  0  0  0  0
 28 27  1  6  0  0  0
 28 26  1  0  0  0  0
 30 29  1  0  0  0  0
 30 28  1  0  0  0  0
M  END
>  <MODEL>
6

>  <REMARK>
 VINA RESULT:      -5.3      2.186      4.220
  Name = 
  14 active torsions:
  status: ('A' for Active; 'I' for Inactive)
    1  A    between atoms: C_1  and  C_4
    2  A    between atoms: C_1  and  C_22
    3  A    between atoms: C_4  and  O_8
    4  A    between atoms: C_4  and  C_12
    5  A    between atoms: C_7  and  C_23
    6  A    between atoms: C_7  and  C_25
    7  A    between atoms: O_8  and  C_27
    8  A    between atoms: C_10  and  N_15
    9  A    between atoms: C_12  and  C_21
   10  A    between atoms: C_13  and  C_27
   11  A    between atoms: C_14  and  N_20
   12  A    between atoms: N_15  and  C_25
   13  A    between atoms: C_17  and  C_21
   14  A    between atoms: C_22  and  C_29
                            x       y       z     vdW  Elec       q    Type
                         _______ _______ _______ _____ _____    ______ ____

>  <TORSDO>
F 14

$$$$
=
 OpenBabel11052417233D

 30 31  0  0  1  0  0  0  0  0999 V2000
  190.6060  176.9610  146.7860 C   0  0  1  0  0  3  0  0  0  0  0  0
  192.9730  175.3890  146.1040 C   0  0  0  0  0  2  0  0  0  0  0  0
  192.9610  176.5440  145.1230 C   0  0  0  0  0  0  0  0  0  0  0  0
  189.7390  177.6610  147.6390 O   0  0  0  0  0  1  0  0  0  0  0  0
  191.5890  174.7060  146.2870 C   0  0  0  0  0  2  0  0  0  0  0  0
  190.5990  175.5440  146.9480 N   0  0  0  0  0  0  0  0  0  0  0  0
  191.6620  176.9540  144.4720 C   0  0  2  0  0  3  0  0  0  0  0  0
  193.9360  177.2290  145.0430 O   0  0  0  0  0  0  0  0  0  0  0  0
  190.4570  177.5060  145.3050 C   0  0  1  0  0  3  0  0  0  0  0  0
  189.2050  174.9200  146.6530 C   0  0  0  0  0  2  0  0  0  0  0  0
  188.5870  174.5280  147.8140 O   0  0  0  0  0  1  0  0  0  0  0  0
  191.4420  176.5750  143.0170 C   0  0  0  0  0  2  0  0  0  0  0  0
  191.8970  175.0900  142.8320 C   0  0  0  0  0  2  0  0  0  0  0  0
  190.7190  174.1610  143.0210 N   0  0  0  0  0  2  0  0  0  0  0  0
  189.7730  174.3520  141.8400 C   0  0  0  0  0  3  0  0  0  0  0  0
  188.8760  173.1440  141.6320 C   0  0  0  0  0  2  0  0  0  0  0  0
  188.3240  174.3380  142.4070 C   0  0  0  0  0  2  0  0  0  0  0  0
  189.0890  177.2180  144.6380 C   0  0  0  0  0  2  0  0  0  0  0  0
  188.0690  178.0600  143.8310 C   0  0  0  0  0  2  0  0  0  0  0  0
  186.5770  177.7120  143.9470 C   0  0  2  0  0  0  0  0  0  0  0  0
  185.9710  179.0080  144.5830 C   0  0  0  0  0  1  0  0  0  0  0  0
  186.4700  176.5960  144.8470 O   0  0  0  0  0  0  0  0  0  0  0  0
  185.6610  176.8270  146.0000 C   0  0  0  0  0  2  0  0  0  0  0  0
  186.2220  177.0630  147.4770 C   0  0  0  0  0  2  0  0  0  0  0  0
  186.0600  178.2840  148.0560 O   0  0  0  0  0  1  0  0  0  0  0  0
  185.8560  177.2840  142.4980 C   0  0  0  0  0  2  0  0  0  0  0  0
  187.5360  178.1300  140.9080 O   0  0  0  0  0  1  0  0  0  0  0  0
  186.5080  177.1730  141.0650 C   0  0  2  0  0  3  0  0  0  0  0  0
  184.6350  178.6390  140.5930 O   0  0  0  0  0  1  0  0  0  0  0  0
  185.3830  177.5560  140.1410 C   0  0  0  0  0  2  0  0  0  0  0  0
  1  6  1  0  0  0  0
  1  4  1  1  0  0  0
  2  5  1  0  0  0  0
  3  2  1  0  0  0  0
  5  6  1  0  0  0  0
  7 12  1  1  0  0  0
  7  3  1  0  0  0  0
  7  9  1  0  0  0  0
  8  3  2  0  0  0  0
  9 18  1  6  0  0  0
  9  1  1  0  0  0  0
 10  6  1  0  0  0  0
 10 11  1  0  0  0  0
 13 12  1  0  0  0  0
 13 14  1  0  0  0  0
 15 17  1  0  0  0  0
 15 14  1  0  0  0  0
 16 15  1  0  0  0  0
 16 17  1  0  0  0  0
 19 20  1  0  0  0  0
 19 18  1  0  0  0  0
 20 21  1  1  0  0  0
 20 22  1  0  0  0  0
 22 23  1  0  0  0  0
 23 24  1  0  0  0  0
 24 25  1  0  0  0  0
 26 20  1  0  0  0  0
 28 27  1  1  0  0  0
 28 26  1  0  0  0  0
 30 29  1  0  0  0  0
 30 28  1  0  0  0  0
M  END
>  <MODEL>
7

>  <REMARK>
 VINA RESULT:      -5.2      1.125      3.246
  Name = 
  14 active torsions:
  status: ('A' for Active; 'I' for Inactive)
    1  A    between atoms: C_1  and  C_4
    2  A    between atoms: C_1  and  C_22
    3  A    between atoms: C_4  and  O_8
    4  A    between atoms: C_4  and  C_12
    5  A    between atoms: C_7  and  C_23
    6  A    between atoms: C_7  and  C_25
    7  A    between atoms: O_8  and  C_27
    8  A    between atoms: C_10  and  N_15
    9  A    between atoms: C_12  and  C_21
   10  A    between atoms: C_13  and  C_27
   11  A    between atoms: C_14  and  N_20
   12  A    between atoms: N_15  and  C_25
   13  A    between atoms: C_17  and  C_21
   14  A    between atoms: C_22  and  C_29
                            x       y       z     vdW  Elec       q    Type
                         _______ _______ _______ _____ _____    ______ ____

>  <TORSDO>
F 14

$$$$
=
 OpenBabel11052417233D

 30 31  0  0  1  0  0  0  0  0999 V2000
  188.7090  172.5880  142.0770 C   0  0  1  0  0  3  0  0  0  0  0  0
  191.4560  171.6210  141.8450 C   0  0  0  0  0  2  0  0  0  0  0  0
  191.3670  172.2520  143.2190 C   0  0  0  0  0  0  0  0  0  0  0  0
  187.3100  172.4880  142.0180 O   0  0  0  0  0  1  0  0  0  0  0  0
  190.8160  172.4760  140.7170 C   0  0  0  0  0  2  0  0  0  0  0  0
  189.3680  172.5910  140.8120 N   0  0  0  0  0  0  0  0  0  0  0  0
  190.6540  173.5730  143.3860 C   0  0  2  0  0  3  0  0  0  0  0  0
  191.6840  171.5970  144.1660 O   0  0  0  0  0  0  0  0  0  0  0  0
  189.1240  173.7290  143.0950 C   0  0  1  0  0  3  0  0  0  0  0  0
  188.9470  173.7990  139.9270 C   0  0  0  0  0  2  0  0  0  0  0  0
  188.1790  173.3880  138.8680 O   0  0  0  0  0  1  0  0  0  0  0  0
  191.4980  174.8200  143.5900 C   0  0  0  0  0  2  0  0  0  0  0  0
  191.7410  174.9930  145.1250 C   0  0  0  0  0  2  0  0  0  0  0  0
  192.2930  176.3710  145.4090 N   0  0  0  0  0  2  0  0  0  0  0  0
  193.2230  176.2680  146.6140 C   0  0  0  0  0  3  0  0  0  0  0  0
  194.5680  175.6690  146.2410 C   0  0  0  0  0  2  0  0  0  0  0  0
  194.4450  177.1880  146.3300 C   0  0  0  0  0  2  0  0  0  0  0  0
  188.7440  175.1650  142.6560 C   0  0  0  0  0  2  0  0  0  0  0  0
  187.5270  176.0940  142.8940 C   0  0  0  0  0  2  0  0  0  0  0  0
  187.7870  177.5610  143.2720 C   0  0  2  0  0  0  0  0  0  0  0  0
  188.5830  178.0970  142.0350 C   0  0  0  0  0  1  0  0  0  0  0  0
  188.6080  177.5560  144.4530 O   0  0  0  0  0  0  0  0  0  0  0  0
  187.8980  177.7110  145.6810 C   0  0  0  0  0  2  0  0  0  0  0  0
  187.2490  176.5140  146.5180 C   0  0  0  0  0  2  0  0  0  0  0  0
  185.9760  176.6470  146.9780 O   0  0  0  0  0  1  0  0  0  0  0  0
  186.4020  178.4410  143.6030 C   0  0  0  0  0  2  0  0  0  0  0  0
  184.3810  177.7960  142.3530 O   0  0  0  0  0  1  0  0  0  0  0  0
  184.9060  177.9450  143.6570 C   0  0  2  0  0  3  0  0  0  0  0  0
  183.9130  178.8830  145.6610 O   0  0  0  0  0  1  0  0  0  0  0  0
  184.1830  179.0920  144.3120 C   0  0  0  0  0  2  0  0  0  0  0  0
  1  4  1  6  0  0  0
  1  9  1  0  0  0  0
  2  3  1  0  0  0  0
  3  7  1  0  0  0  0
  3  8  2  0  0  0  0
  5  6  1  0  0  0  0
  5  2  1  0  0  0  0
  6  1  1  0  0  0  0
  7 12  1  6  0  0  0
  9 18  1  6  0  0  0
  9  7  1  0  0  0  0
 10  6  1  0  0  0  0
 11 10  1  0  0  0  0
 12 13  1  0  0  0  0
 13 14  1  0  0  0  0
 14 15  1  0  0  0  0
 16 17  1  0  0  0  0
 16 15  1  0  0  0  0
 17 15  1  0  0  0  0
 18 19  1  0  0  0  0
 19 20  1  0  0  0  0
 20 21  1  6  0  0  0
 20 26  1  0  0  0  0
 20 22  1  0  0  0  0
 22 23  1  0  0  0  0
 23 24  1  0  0  0  0
 24 25  1  0  0  0  0
 26 28  1  0  0  0  0
 28 27  1  6  0  0  0
 28 30  1  0  0  0  0
 30 29  1  0  0  0  0
M  END
>  <MODEL>
8

>  <REMARK>
 VINA RESULT:      -5.1      2.606      5.155
  Name = 
  14 active torsions:
  status: ('A' for Active; 'I' for Inactive)
    1  A    between atoms: C_1  and  C_4
    2  A    between atoms: C_1  and  C_22
    3  A    between atoms: C_4  and  O_8
    4  A    between atoms: C_4  and  C_12
    5  A    between atoms: C_7  and  C_23
    6  A    between atoms: C_7  and  C_25
    7  A    between atoms: O_8  and  C_27
    8  A    between atoms: C_10  and  N_15
    9  A    between atoms: C_12  and  C_21
   10  A    between atoms: C_13  and  C_27
   11  A    between atoms: C_14  and  N_20
   12  A    between atoms: N_15  and  C_25
   13  A    between atoms: C_17  and  C_21
   14  A    between atoms: C_22  and  C_29
                            x       y       z     vdW  Elec       q    Type
                         _______ _______ _______ _____ _____    ______ ____

>  <TORSDO>
F 14

$$$$
=
 OpenBabel11052417233D

 30 31  0  0  1  0  0  0  0  0999 V2000
  190.9150  176.9850  146.8070 C   0  0  1  0  0  3  0  0  0  0  0  0
  193.4950  175.6470  146.5070 C   0  0  0  0  0  2  0  0  0  0  0  0
  193.5160  176.7880  145.5100 C   0  0  0  0  0  0  0  0  0  0  0  0
  189.8700  177.6030  147.5110 O   0  0  0  0  0  1  0  0  0  0  0  0
  192.1710  174.8330  146.5030 C   0  0  0  0  0  2  0  0  0  0  0  0
  191.0200  175.5760  146.9960 N   0  0  0  0  0  0  0  0  0  0  0  0
  192.2920  177.0640  144.6700 C   0  0  2  0  0  3  0  0  0  0  0  0
  194.4220  177.5640  145.5570 O   0  0  0  0  0  0  0  0  0  0  0  0
  190.9320  177.5020  145.3090 C   0  0  1  0  0  3  0  0  0  0  0  0
  189.7490  174.8160  146.5170 C   0  0  0  0  0  2  0  0  0  0  0  0
  188.9150  174.5410  147.5700 O   0  0  0  0  0  1  0  0  0  0  0  0
  192.3230  176.6550  143.2060 C   0  0  0  0  0  2  0  0  0  0  0  0
  193.4020  175.5340  143.0430 C   0  0  0  0  0  2  0  0  0  0  0  0
  194.5840  176.0650  142.2640 N   0  0  0  0  0  2  0  0  0  0  0  0
  195.8570  175.5790  142.9500 C   0  0  0  0  0  3  0  0  0  0  0  0
  197.0620  175.6560  142.0280 C   0  0  0  0  0  2  0  0  0  0  0  0
  196.8290  176.7920  143.0220 C   0  0  0  0  0  2  0  0  0  0  0  0
  189.7090  177.0780  144.4580 C   0  0  0  0  0  2  0  0  0  0  0  0
  188.5530  177.8320  143.7540 C   0  0  0  0  0  2  0  0  0  0  0  0
  187.1180  177.3160  143.9440 C   0  0  2  0  0  0  0  0  0  0  0  0
  186.3080  178.6340  144.1830 C   0  0  0  0  0  1  0  0  0  0  0  0
  187.1170  176.4880  145.1200 O   0  0  0  0  0  0  0  0  0  0  0  0
  186.0810  176.7750  146.0580 C   0  0  0  0  0  2  0  0  0  0  0  0
  186.3020  177.0020  147.6240 C   0  0  0  0  0  2  0  0  0  0  0  0
  185.8500  178.1510  148.1940 O   0  0  0  0  0  1  0  0  0  0  0  0
  186.5410  176.4040  142.6640 C   0  0  0  0  0  2  0  0  0  0  0  0
  188.5650  175.8770  141.3640 O   0  0  0  0  0  1  0  0  0  0  0  0
  187.1890  176.1740  141.2440 C   0  0  2  0  0  3  0  0  0  0  0  0
  185.7970  178.0790  140.6830 O   0  0  0  0  0  1  0  0  0  0  0  0
  187.0690  177.5220  140.5850 C   0  0  0  0  0  2  0  0  0  0  0  0
  1  6  1  0  0  0  0
  1  4  1  6  0  0  0
  3  8  2  0  0  0  0
  3  2  1  0  0  0  0
  5  2  1  0  0  0  0
  5  6  1  0  0  0  0
  7 12  1  1  0  0  0
  7  9  1  0  0  0  0
  7  3  1  0  0  0  0
  9 18  1  6  0  0  0
  9  1  1  0  0  0  0
 10  6  1  0  0  0  0
 10 11  1  0  0  0  0
 13 12  1  0  0  0  0
 14 15  1  0  0  0  0
 14 13  1  0  0  0  0
 15 17  1  0  0  0  0
 16 15  1  0  0  0  0
 16 17  1  0  0  0  0
 19 20  1  0  0  0  0
 19 18  1  0  0  0  0
 20 21  1  1  0  0  0
 20 22  1  0  0  0  0
 22 23  1  0  0  0  0
 23 24  1  0  0  0  0
 24 25  1  0  0  0  0
 26 20  1  0  0  0  0
 28 27  1  1  0  0  0
 28 26  1  0  0  0  0
 30 29  1  0  0  0  0
 30 28  1  0  0  0  0
M  END
>  <MODEL>
9

>  <REMARK>
 VINA RESULT:      -5.1      1.992      4.063
  Name = 
  14 active torsions:
  status: ('A' for Active; 'I' for Inactive)
    1  A    between atoms: C_1  and  C_4
    2  A    between atoms: C_1  and  C_22
    3  A    between atoms: C_4  and  O_8
    4  A    between atoms: C_4  and  C_12
    5  A    between atoms: C_7  and  C_23
    6  A    between atoms: C_7  and  C_25
    7  A    between atoms: O_8  and  C_27
    8  A    between atoms: C_10  and  N_15
    9  A    between atoms: C_12  and  C_21
   10  A    between atoms: C_13  and  C_27
   11  A    between atoms: C_14  and  N_20
   12  A    between atoms: N_15  and  C_25
   13  A    between atoms: C_17  and  C_21
   14  A    between atoms: C_22  and  C_29
                            x       y       z     vdW  Elec       q    Type
                         _______ _______ _______ _____ _____    ______ ____

>  <TORSDO>
F 14

$$$$
