=
 OpenBabel11052419573D

 37 41  0  0  1  0  0  0  0  0999 V2000
  190.6870  177.2980  144.9270 C   0  0  0  0  0  0  0  0  0  0  0  0
  187.9210  176.3060  143.4490 C   0  0  0  0  0  0  0  0  0  0  0  0
  191.6170  174.2900  143.3040 C   0  0  2  0  0  3  0  0  0  0  0  0
  189.3730  176.9960  145.5840 C   0  0  2  0  0  0  0  0  0  0  0  0
  193.6840  174.3200  144.6840 C   0  0  1  0  0  3  0  0  0  0  0  0
  188.3310  174.7940  141.3990 C   0  0  0  0  0  3  0  0  0  0  0  0
  193.1170  176.8340  144.6070 C   0  0  0  0  0  2  0  0  0  0  0  0
  189.2220  175.4700  145.5370 C   0  0  2  0  0  3  0  0  0  0  0  0
  190.1210  175.9760  142.3960 O   0  0  0  0  0  0  0  0  0  0  0  0
  189.1710  174.1660  140.5740 C   0  0  0  0  0  3  0  0  0  0  0  0
  190.1720  174.9820  147.8420 C   0  0  0  0  0  2  0  0  0  0  0  0
  190.7310  178.1410  143.9910 O   0  0  0  0  0  0  0  0  0  0  0  0
  188.1100  176.3410  144.9890 C   0  0  2  0  0  3  0  0  0  0  0  0
  190.6290  174.0220  140.9270 C   0  0  0  0  0  2  0  0  0  0  0  0
  187.9830  177.7180  142.8830 C   0  0  0  0  0  1  0  0  0  0  0  0
  191.5220  174.9310  147.1230 C   0  0  0  0  0  2  0  0  0  0  0  0
  194.1690  175.7580  144.9010 C   0  0  0  0  0  2  0  0  0  0  0  0
  191.0730  174.9840  142.0570 C   0  0  2  0  0  3  0  0  0  0  0  0
  191.9060  176.6970  145.4180 N   0  0  0  0  0  0  0  0  0  0  0  0
  188.8890  175.3530  142.6830 C   0  0  1  0  0  3  0  0  0  0  0  0
  193.1330  174.0950  143.2630 C   0  0  1  0  0  3  0  0  0  0  0  0
  186.4830  175.8370  143.2690 C   0  0  0  0  0  1  0  0  0  0  0  0
  192.0330  176.3440  146.8370 C   0  0  0  0  0  2  0  0  0  0  0  0
  188.9590  174.8540  146.9070 C   0  0  0  0  0  2  0  0  0  0  0  0
  190.9260  173.1130  143.6140 O   0  0  0  0  0  1  0  0  0  0  0  0
  196.1020  173.6770  145.0820 C   0  0  0  0  0  3  0  0  0  0  0  0
  194.7380  173.3470  145.1290 C   0  0  0  0  0  0  0  0  0  0  0  0
  194.3480  172.0820  145.5830 C   0  0  0  0  0  3  0  0  0  0  0  0
  194.9290  169.9320  146.4320 F   0  0  0  0  0  0  0  0  0  0  0  0
  196.6680  171.4880  145.9450 C   0  0  0  0  0  3  0  0  0  0  0  0
  195.3110  171.1540  145.9920 C   0  0  0  0  0  0  0  0  0  0  0  0
  197.0640  172.7490  145.4900 C   0  0  0  0  0  3  0  0  0  0  0  0
  187.6250  178.0750  147.0110 C   0  0  0  0  0  1  0  0  0  0  0  0
  189.0940  177.7180  146.9040 C   0  0  0  0  0  2  0  0  0  0  0  0
  193.5210  172.7580  142.6200 C   0  0  0  0  0  2  0  0  0  0  0  0
  194.7440  174.3270  141.3030 O   0  0  0  0  0  1  0  0  0  0  0  0
  194.4050  172.9770  141.4060 C   0  0  0  0  0  2  0  0  0  0  0  0
  1 19  1  0  0  0  0
  1  4  1  0  0  0  0
  3 25  1  6  0  0  0
  4 34  1  1  0  0  0
  5 17  1  0  0  0  0
  5 27  1  6  0  0  0
  7 17  1  0  0  0  0
  7 19  1  0  0  0  0
  8  4  1  0  0  0  0
  8 24  1  1  0  0  0
  9 20  1  0  0  0  0
 10 14  1  0  0  0  0
 10  6  2  0  0  0  0
 12  1  2  0  0  0  0
 13  2  1  6  0  0  0
 13  8  1  0  0  0  0
 13  4  1  0  0  0  0
 15  2  1  0  0  0  0
 16 11  1  0  0  0  0
 18 14  1  6  0  0  0
 18  9  1  0  0  0  0
 18  3  1  0  0  0  0
 19 23  1  0  0  0  0
 20  6  1  6  0  0  0
 20  2  1  0  0  0  0
 21 35  1  1  0  0  0
 21  3  1  0  0  0  0
 21  5  1  0  0  0  0
 22  2  1  0  0  0  0
 23 16  1  0  0  0  0
 24 11  1  0  0  0  0
 26 27  2  0  0  0  0
 26 32  1  0  0  0  0
 27 28  1  0  0  0  0
 28 31  2  0  0  0  0
 30 31  1  0  0  0  0
 31 29  1  0  0  0  0
 32 30  2  0  0  0  0
 34 33  1  0  0  0  0
 36 37  1  0  0  0  0
 37 35  1  0  0  0  0
M  END
>  <MODEL>
1

>  <REMARK>
 VINA RESULT:      -8.2      0.000      0.000
  Name = 
  4 active torsions:
  status: ('A' for Active; 'I' for Inactive)
    1  A    between atoms: C_5  and  C_23
    2  A    between atoms: C_6  and  C_7
    3  A    between atoms: C_14  and  C_31
    4  A    between atoms: C_14  and  C_37
                            x       y       z     vdW  Elec       q    Type
                         _______ _______ _______ _____ _____    ______ ____

>  <TORSDO>
F 4

$$$$
=
 OpenBabel11052419573D

 37 41  0  0  1  0  0  0  0  0999 V2000
  190.9100  174.9540  141.7490 C   0  0  0  0  0  0  0  0  0  0  0  0
  192.7490  172.7230  143.3190 C   0  0  0  0  0  0  0  0  0  0  0  0
  190.1690  175.4890  145.1720 C   0  0  2  0  0  3  0  0  0  0  0  0
  190.8690  173.4650  141.5710 C   0  0  2  0  0  0  0  0  0  0  0  0
  188.2340  176.8560  144.4190 C   0  0  1  0  0  3  0  0  0  0  0  0
  193.3110  173.3750  145.7510 C   0  0  0  0  0  3  0  0  0  0  0  0
  189.8130  177.0990  142.3970 C   0  0  0  0  0  2  0  0  0  0  0  0
  190.2020  172.9100  142.8370 C   0  0  2  0  0  3  0  0  0  0  0  0
  192.3630  174.9590  144.2720 O   0  0  0  0  0  0  0  0  0  0  0  0
  193.2220  174.2330  146.7690 C   0  0  0  0  0  3  0  0  0  0  0  0
  187.8310  172.8060  141.9330 C   0  0  0  0  0  2  0  0  0  0  0  0
  192.0040  175.5630  141.6060 O   0  0  0  0  0  0  0  0  0  0  0  0
  191.5480  172.3600  142.4050 C   0  0  2  0  0  3  0  0  0  0  0  0
  192.2310  175.3670  146.7320 C   0  0  0  0  0  2  0  0  0  0  0  0
  193.8490  173.3820  142.4980 C   0  0  0  0  0  1  0  0  0  0  0  0
  187.7240  174.2480  142.4370 C   0  0  0  0  0  2  0  0  0  0  0  0
  188.5800  177.6250  143.1390 C   0  0  0  0  0  2  0  0  0  0  0  0
  191.6820  175.6420  145.3090 C   0  0  2  0  0  3  0  0  0  0  0  0
  189.6940  175.6950  141.9970 N   0  0  0  0  0  0  0  0  0  0  0  0
  192.3950  173.5810  144.5720 C   0  0  1  0  0  3  0  0  0  0  0  0
  189.4150  176.7990  145.4060 C   0  0  1  0  0  3  0  0  0  0  0  0
  193.2960  171.3700  143.7560 C   0  0  0  0  0  1  0  0  0  0  0  0
  188.4150  175.2090  141.4680 C   0  0  0  0  0  2  0  0  0  0  0  0
  189.0030  172.0160  142.5370 C   0  0  0  0  0  2  0  0  0  0  0  0
  189.6610  174.4270  145.9280 O   0  0  0  0  0  1  0  0  0  0  0  0
  186.2190  176.6140  145.9350 C   0  0  0  0  0  3  0  0  0  0  0  0
  186.9390  177.3600  144.9900 C   0  0  0  0  0  0  0  0  0  0  0  0
  186.4380  178.5930  144.5550 C   0  0  0  0  0  3  0  0  0  0  0  0
  184.7490  180.2730  144.6400 F   0  0  0  0  0  0  0  0  0  0  0  0
  184.5160  178.3330  146.0060 C   0  0  0  0  0  3  0  0  0  0  0  0
  185.2290  179.0790  145.0630 C   0  0  0  0  0  0  0  0  0  0  0  0
  185.0100  177.1000  146.4420 C   0  0  0  0  0  3  0  0  0  0  0  0
  191.2680  173.5050  139.1020 C   0  0  0  0  0  1  0  0  0  0  0  0
  190.3870  172.9600  140.2090 C   0  0  0  0  0  2  0  0  0  0  0  0
  189.0400  176.9870  146.8810 C   0  0  0  0  0  2  0  0  0  0  0  0
  190.6660  177.7090  148.4720 O   0  0  0  0  0  1  0  0  0  0  0  0
  189.7900  178.1610  147.4850 C   0  0  0  0  0  2  0  0  0  0  0  0
  1 19  1  0  0  0  0
  2 22  1  0  0  0  0
  2 20  1  0  0  0  0
  3 18  1  0  0  0  0
  3 21  1  0  0  0  0
  3 25  1  1  0  0  0
  4 34  1  6  0  0  0
  4  1  1  0  0  0  0
  4 13  1  0  0  0  0
  4  8  1  0  0  0  0
  5 27  1  1  0  0  0
  5 21  1  0  0  0  0
  6 10  2  0  0  0  0
  7 17  1  0  0  0  0
  8 24  1  6  0  0  0
  9 20  1  0  0  0  0
  9 18  1  0  0  0  0
 11 16  1  0  0  0  0
 11 24  1  0  0  0  0
 12  1  2  0  0  0  0
 13  8  1  0  0  0  0
 13  2  1  1  0  0  0
 14 10  1  0  0  0  0
 15  2  1  0  0  0  0
 17  5  1  0  0  0  0
 18 14  1  1  0  0  0
 19  7  1  0  0  0  0
 20  6  1  1  0  0  0
 21 35  1  1  0  0  0
 23 19  1  0  0  0  0
 23 16  1  0  0  0  0
 26 32  1  0  0  0  0
 27 26  2  0  0  0  0
 28 27  1  0  0  0  0
 28 31  2  0  0  0  0
 29 31  1  0  0  0  0
 30 32  2  0  0  0  0
 31 30  1  0  0  0  0
 33 34  1  0  0  0  0
 35 37  1  0  0  0  0
 37 36  1  0  0  0  0
M  END
>  <MODEL>
2

>  <REMARK>
 VINA RESULT:      -8.2      3.149      7.642
  Name = 
  4 active torsions:
  status: ('A' for Active; 'I' for Inactive)
    1  A    between atoms: C_5  and  C_23
    2  A    between atoms: C_6  and  C_7
    3  A    between atoms: C_14  and  C_31
    4  A    between atoms: C_14  and  C_37
                            x       y       z     vdW  Elec       q    Type
                         _______ _______ _______ _____ _____    ______ ____

>  <TORSDO>
F 4

$$$$
=
 OpenBabel11052419573D

 37 41  0  0  1  0  0  0  0  0999 V2000
  189.6950  174.5980  145.0030 C   0  0  0  0  0  0  0  0  0  0  0  0
  192.4510  175.8450  146.2960 C   0  0  0  0  0  0  0  0  0  0  0  0
  192.2520  173.4460  142.8390 C   0  0  2  0  0  3  0  0  0  0  0  0
  190.0060  176.0480  145.2360 C   0  0  2  0  0  0  0  0  0  0  0  0
  190.4560  172.8340  141.2320 C   0  0  1  0  0  3  0  0  0  0  0  0
  194.5710  174.5000  145.7000 C   0  0  0  0  0  3  0  0  0  0  0  0
  189.1730  172.7050  143.4640 C   0  0  0  0  0  2  0  0  0  0  0  0
  191.0550  176.4250  144.1820 C   0  0  2  0  0  3  0  0  0  0  0  0
  192.4230  173.6140  145.2570 O   0  0  0  0  0  0  0  0  0  0  0  0
  195.1520  173.4700  145.0830 C   0  0  0  0  0  3  0  0  0  0  0  0
  189.4470  177.3360  142.4400 C   0  0  0  0  0  2  0  0  0  0  0  0
  189.7650  173.7890  145.9660 O   0  0  0  0  0  0  0  0  0  0  0  0
  191.3380  176.7090  145.6430 C   0  0  2  0  0  3  0  0  0  0  0  0
  194.3970  172.6640  144.0580 C   0  0  0  0  0  2  0  0  0  0  0  0
  191.9130  175.1530  147.5410 C   0  0  0  0  0  1  0  0  0  0  0  0
  189.3830  175.8890  141.9440 C   0  0  0  0  0  2  0  0  0  0  0  0
  189.2100  172.3400  141.9770 C   0  0  0  0  0  2  0  0  0  0  0  0
  192.8650  172.8910  144.1220 C   0  0  2  0  0  3  0  0  0  0  0  0
  189.2360  174.1480  143.7080 N   0  0  0  0  0  0  0  0  0  0  0  0
  193.1430  174.8240  145.3420 C   0  0  1  0  0  3  0  0  0  0  0  0
  191.7620  172.3510  141.8910 C   0  0  1  0  0  3  0  0  0  0  0  0
  193.4680  176.8700  146.7830 C   0  0  0  0  0  1  0  0  0  0  0  0
  188.4700  175.0530  142.8430 C   0  0  0  0  0  2  0  0  0  0  0  0
  190.6520  177.6350  143.3450 C   0  0  0  0  0  2  0  0  0  0  0  0
  193.0750  174.3840  142.2060 O   0  0  0  0  0  1  0  0  0  0  0  0
  190.6210  173.5230  138.8000 C   0  0  0  0  0  3  0  0  0  0  0  0
  190.3290  172.5460  139.7640 C   0  0  0  0  0  0  0  0  0  0  0  0
  189.8920  171.2800  139.3550 C   0  0  0  0  0  3  0  0  0  0  0  0
  189.3330  169.7640  137.6020 F   0  0  0  0  0  0  0  0  0  0  0  0
  190.0490  171.9670  137.0370 C   0  0  0  0  0  3  0  0  0  0  0  0
  189.7540  170.9910  137.9930 C   0  0  0  0  0  0  0  0  0  0  0  0
  190.4820  173.2340  137.4400 C   0  0  0  0  0  3  0  0  0  0  0  0
  187.7970  176.3360  146.3740 C   0  0  0  0  0  1  0  0  0  0  0  0
  188.8050  176.9730  145.4370 C   0  0  0  0  0  2  0  0  0  0  0  0
  192.8580  171.9080  140.9130 C   0  0  0  0  0  2  0  0  0  0  0  0
  192.3070  169.8670  142.0190 O   0  0  0  0  0  1  0  0  0  0  0  0
  193.1790  170.4350  141.0910 C   0  0  0  0  0  2  0  0  0  0  0  0
  1  4  1  0  0  0  0
  1 12  2  0  0  0  0
  2 22  1  0  0  0  0
  2 15  1  0  0  0  0
  3 25  1  6  0  0  0
  3 18  1  0  0  0  0
  4 34  1  1  0  0  0
  4 13  1  0  0  0  0
  5 27  1  6  0  0  0
  5 21  1  0  0  0  0
  5 17  1  0  0  0  0
  7 19  1  0  0  0  0
  8 24  1  6  0  0  0
  8  4  1  0  0  0  0
  8 13  1  0  0  0  0
  9 20  1  0  0  0  0
 10  6  2  0  0  0  0
 11 24  1  0  0  0  0
 13  2  1  1  0  0  0
 14 10  1  0  0  0  0
 16 11  1  0  0  0  0
 16 23  1  0  0  0  0
 17  7  1  0  0  0  0
 18 14  1  6  0  0  0
 18  9  1  0  0  0  0
 19  1  1  0  0  0  0
 20  6  1  1  0  0  0
 20  2  1  0  0  0  0
 21 35  1  6  0  0  0
 21  3  1  0  0  0  0
 23 19  1  0  0  0  0
 26 27  1  0  0  0  0
 28 27  2  0  0  0  0
 29 31  1  0  0  0  0
 30 32  1  0  0  0  0
 30 31  2  0  0  0  0
 31 28  1  0  0  0  0
 32 26  2  0  0  0  0
 34 33  1  0  0  0  0
 35 37  1  0  0  0  0
 37 36  1  0  0  0  0
M  END
>  <MODEL>
3

>  <REMARK>
 VINA RESULT:      -8.0      2.745      5.922
  Name = 
  4 active torsions:
  status: ('A' for Active; 'I' for Inactive)
    1  A    between atoms: C_5  and  C_23
    2  A    between atoms: C_6  and  C_7
    3  A    between atoms: C_14  and  C_31
    4  A    between atoms: C_14  and  C_37
                            x       y       z     vdW  Elec       q    Type
                         _______ _______ _______ _____ _____    ______ ____

>  <TORSDO>
F 4

$$$$
=
 OpenBabel11052419573D

 37 41  0  0  1  0  0  0  0  0999 V2000
  189.6850  174.7790  145.1260 C   0  0  0  0  0  0  0  0  0  0  0  0
  192.4730  175.9800  146.3940 C   0  0  0  0  0  0  0  0  0  0  0  0
  192.2000  173.6080  142.9230 C   0  0  2  0  0  3  0  0  0  0  0  0
  190.0180  176.2220  145.3650 C   0  0  2  0  0  0  0  0  0  0  0  0
  190.3770  173.0300  141.3350 C   0  0  1  0  0  3  0  0  0  0  0  0
  194.5670  174.6110  145.7630 C   0  0  0  0  0  3  0  0  0  0  0  0
  189.1190  172.9030  143.5810 C   0  0  0  0  0  2  0  0  0  0  0  0
  191.0590  176.5930  144.3010 C   0  0  2  0  0  3  0  0  0  0  0  0
  192.4030  173.7560  145.3400 O   0  0  0  0  0  0  0  0  0  0  0  0
  195.1270  173.5780  145.1320 C   0  0  0  0  0  3  0  0  0  0  0  0
  189.4420  177.5370  142.5850 C   0  0  0  0  0  2  0  0  0  0  0  0
  189.7560  173.9620  146.0830 O   0  0  0  0  0  0  0  0  0  0  0  0
  191.3630  176.8620  145.7610 C   0  0  2  0  0  3  0  0  0  0  0  0
  194.3490  172.7890  144.1110 C   0  0  0  0  0  2  0  0  0  0  0  0
  191.9410  175.2860  147.6400 C   0  0  0  0  0  1  0  0  0  0  0  0
  189.3530  176.0950  142.0800 C   0  0  0  0  0  2  0  0  0  0  0  0
  189.1330  172.5480  142.0910 C   0  0  0  0  0  2  0  0  0  0  0  0
  192.8220  173.0360  144.1950 C   0  0  2  0  0  3  0  0  0  0  0  0
  189.2040  174.3430  143.8340 N   0  0  0  0  0  0  0  0  0  0  0  0
  193.1400  174.9570  145.4240 C   0  0  1  0  0  3  0  0  0  0  0  0
  191.6840  172.5260  141.9740 C   0  0  1  0  0  3  0  0  0  0  0  0
  193.5100  176.9870  146.8750 C   0  0  0  0  0  1  0  0  0  0  0  0
  188.4410  175.2640  142.9840 C   0  0  0  0  0  2  0  0  0  0  0  0
  190.6620  177.8140  143.4780 C   0  0  0  0  0  2  0  0  0  0  0  0
  193.0280  174.5390  142.2860 O   0  0  0  0  0  1  0  0  0  0  0  0
  189.8470  171.4880  139.3970 C   0  0  0  0  0  3  0  0  0  0  0  0
  190.2280  172.7540  139.8660 C   0  0  0  0  0  0  0  0  0  0  0  0
  190.4910  173.7800  138.9510 C   0  0  0  0  0  3  0  0  0  0  0  0
  190.6260  174.5410  136.6960 F   0  0  0  0  0  0  0  0  0  0  0  0
  189.9890  172.2820  137.1150 C   0  0  0  0  0  3  0  0  0  0  0  0
  190.3710  173.5450  137.5770 C   0  0  0  0  0  0  0  0  0  0  0  0
  189.7270  171.2530  138.0240 C   0  0  0  0  0  3  0  0  0  0  0  0
  187.8110  176.5170  146.5050 C   0  0  0  0  0  1  0  0  0  0  0  0
  188.8320  177.1620  145.5870 C   0  0  0  0  0  2  0  0  0  0  0  0
  192.7620  172.0750  140.9800 C   0  0  0  0  0  2  0  0  0  0  0  0
  192.1800  170.0250  142.0520 O   0  0  0  0  0  1  0  0  0  0  0  0
  193.0830  170.6020  141.1590 C   0  0  0  0  0  2  0  0  0  0  0  0
  1  4  1  0  0  0  0
  1 12  2  0  0  0  0
  2 22  1  0  0  0  0
  2 15  1  0  0  0  0
  3 25  1  6  0  0  0
  3 18  1  0  0  0  0
  4 34  1  1  0  0  0
  4 13  1  0  0  0  0
  5 27  1  6  0  0  0
  5 21  1  0  0  0  0
  5 17  1  0  0  0  0
  7 19  1  0  0  0  0
  8 24  1  6  0  0  0
  8  4  1  0  0  0  0
  8 13  1  0  0  0  0
  9 20  1  0  0  0  0
 10  6  2  0  0  0  0
 11 24  1  0  0  0  0
 13  2  1  1  0  0  0
 14 10  1  0  0  0  0
 16 11  1  0  0  0  0
 16 23  1  0  0  0  0
 17  7  1  0  0  0  0
 18 14  1  6  0  0  0
 18  9  1  0  0  0  0
 19  1  1  0  0  0  0
 20  6  1  1  0  0  0
 20  2  1  0  0  0  0
 21 35  1  6  0  0  0
 21  3  1  0  0  0  0
 23 19  1  0  0  0  0
 26 27  1  0  0  0  0
 28 27  2  0  0  0  0
 29 31  1  0  0  0  0
 30 31  2  0  0  0  0
 30 32  1  0  0  0  0
 31 28  1  0  0  0  0
 32 26  2  0  0  0  0
 34 33  1  0  0  0  0
 35 37  1  0  0  0  0
 37 36  1  0  0  0  0
M  END
>  <MODEL>
4

>  <REMARK>
 VINA RESULT:      -7.9      2.808      5.995
  Name = 
  4 active torsions:
  status: ('A' for Active; 'I' for Inactive)
    1  A    between atoms: C_5  and  C_23
    2  A    between atoms: C_6  and  C_7
    3  A    between atoms: C_14  and  C_31
    4  A    between atoms: C_14  and  C_37
                            x       y       z     vdW  Elec       q    Type
                         _______ _______ _______ _____ _____    ______ ____

>  <TORSDO>
F 4

$$$$
=
 OpenBabel11052419573D

 37 41  0  0  1  0  0  0  0  0999 V2000
  193.7670  173.1510  141.3280 C   0  0  0  0  0  0  0  0  0  0  0  0
  196.1310  171.2290  142.5670 C   0  0  0  0  0  0  0  0  0  0  0  0
  193.8600  174.0160  144.7620 C   0  0  2  0  0  3  0  0  0  0  0  0
  193.8150  171.6520  141.3030 C   0  0  2  0  0  0  0  0  0  0  0  0
  191.6840  175.1660  144.4120 C   0  0  1  0  0  3  0  0  0  0  0  0
  197.2220  172.1810  144.7030 C   0  0  0  0  0  3  0  0  0  0  0  0
  192.6800  175.2810  142.0370 C   0  0  0  0  0  2  0  0  0  0  0  0
  193.5390  171.2000  142.7430 C   0  0  2  0  0  3  0  0  0  0  0  0
  195.7980  173.5280  143.3800 O   0  0  0  0  0  0  0  0  0  0  0  0
  197.3140  173.1390  145.6270 C   0  0  0  0  0  3  0  0  0  0  0  0
  191.0360  170.8480  142.4930 C   0  0  0  0  0  2  0  0  0  0  0  0
  194.7320  173.8080  140.8530 O   0  0  0  0  0  0  0  0  0  0  0  0
  194.7770  170.6920  142.0310 C   0  0  2  0  0  3  0  0  0  0  0  0
  196.2480  174.1970  145.7430 C   0  0  0  0  0  2  0  0  0  0  0  0
  196.9290  171.8600  141.4340 C   0  0  0  0  0  1  0  0  0  0  0  0
  190.9300  172.3270  142.8740 C   0  0  0  0  0  2  0  0  0  0  0  0
  191.6290  175.8080  143.0200 C   0  0  0  0  0  2  0  0  0  0  0  0
  195.3400  174.2780  144.4900 C   0  0  2  0  0  3  0  0  0  0  0  0
  192.5910  173.8380  141.8120 N   0  0  0  0  0  0  0  0  0  0  0  0
  196.0260  172.1960  143.7860 C   0  0  1  0  0  3  0  0  0  0  0  0
  193.0750  175.2930  145.0620 C   0  0  1  0  0  3  0  0  0  0  0  0
  196.8880  169.9690  142.9710 C   0  0  0  0  0  1  0  0  0  0  0  0
  191.2680  173.2160  141.6760 C   0  0  0  0  0  2  0  0  0  0  0  0
  192.3870  170.2060  142.8450 C   0  0  0  0  0  2  0  0  0  0  0  0
  193.6530  173.0150  145.7170 O   0  0  0  0  0  1  0  0  0  0  0  0
  189.9920  176.9310  145.0740 C   0  0  0  0  0  3  0  0  0  0  0  0
  190.5340  175.6480  145.2480 C   0  0  0  0  0  0  0  0  0  0  0  0
  190.0070  174.8030  146.2320 C   0  0  0  0  0  3  0  0  0  0  0  0
  188.4350  174.4110  147.9810 F   0  0  0  0  0  0  0  0  0  0  0  0
  188.4050  176.5110  146.8530 C   0  0  0  0  0  3  0  0  0  0  0  0
  188.9430  175.2330  147.0320 C   0  0  0  0  0  0  0  0  0  0  0  0
  188.9300  177.3600  145.8740 C   0  0  0  0  0  3  0  0  0  0  0  0
  193.2780  171.7140  138.8600 C   0  0  0  0  0  1  0  0  0  0  0  0
  193.0560  170.9700  140.1630 C   0  0  0  0  0  2  0  0  0  0  0  0
  193.0640  175.6200  146.5600 C   0  0  0  0  0  2  0  0  0  0  0  0
  194.3550  177.4120  145.6540 O   0  0  0  0  0  1  0  0  0  0  0  0
  193.8860  176.8640  146.8490 C   0  0  0  0  0  2  0  0  0  0  0  0
  1 19  1  0  0  0  0
  2 22  1  0  0  0  0
  2 20  1  0  0  0  0
  3 21  1  0  0  0  0
  3 25  1  1  0  0  0
  4 34  1  6  0  0  0
  4  1  1  0  0  0  0
  4 13  1  0  0  0  0
  4  8  1  0  0  0  0
  5 21  1  0  0  0  0
  5 27  1  1  0  0  0
  6 10  2  0  0  0  0
  7 17  1  0  0  0  0
  8 24  1  6  0  0  0
  9 20  1  0  0  0  0
  9 18  1  0  0  0  0
 10 14  1  0  0  0  0
 11 24  1  0  0  0  0
 11 16  1  0  0  0  0
 12  1  2  0  0  0  0
 13  2  1  1  0  0  0
 13  8  1  0  0  0  0
 15  2  1  0  0  0  0
 17  5  1  0  0  0  0
 18  3  1  0  0  0  0
 18 14  1  1  0  0  0
 19  7  1  0  0  0  0
 20  6  1  6  0  0  0
 21 35  1  1  0  0  0
 23 19  1  0  0  0  0
 23 16  1  0  0  0  0
 26 27  2  0  0  0  0
 26 32  1  0  0  0  0
 27 28  1  0  0  0  0
 28 31  2  0  0  0  0
 30 31  1  0  0  0  0
 31 29  1  0  0  0  0
 32 30  2  0  0  0  0
 33 34  1  0  0  0  0
 35 37  1  0  0  0  0
 36 37  1  0  0  0  0
M  END
>  <MODEL>
5

>  <REMARK>
 VINA RESULT:      -7.7      2.588      7.311
  Name = 
  4 active torsions:
  status: ('A' for Active; 'I' for Inactive)
    1  A    between atoms: C_5  and  C_23
    2  A    between atoms: C_6  and  C_7
    3  A    between atoms: C_14  and  C_31
    4  A    between atoms: C_14  and  C_37
                            x       y       z     vdW  Elec       q    Type
                         _______ _______ _______ _____ _____    ______ ____

>  <TORSDO>
F 4

$$$$
=
 OpenBabel11052419573D

 37 41  0  0  1  0  0  0  0  0999 V2000
  193.6630  173.5400  145.0620 C   0  0  0  0  0  0  0  0  0  0  0  0
  195.2330  173.8660  142.1900 C   0  0  0  0  0  0  0  0  0  0  0  0
  191.2190  174.9250  142.9040 C   0  0  2  0  0  3  0  0  0  0  0  0
  194.9080  174.3350  144.8010 C   0  0  2  0  0  0  0  0  0  0  0  0
  189.8700  175.4140  144.9340 C   0  0  1  0  0  3  0  0  0  0  0  0
  193.6590  173.8650  140.1460 C   0  0  0  0  0  3  0  0  0  0  0  0
  191.2690  173.4100  145.7530 C   0  0  0  0  0  2  0  0  0  0  0  0
  194.4590  175.5640  143.9990 C   0  0  2  0  0  3  0  0  0  0  0  0
  192.8550  173.2390  142.2810 O   0  0  0  0  0  0  0  0  0  0  0  0
  192.4300  173.7910  139.6330 C   0  0  0  0  0  3  0  0  0  0  0  0
  194.1910  177.1490  145.9660 C   0  0  0  0  0  2  0  0  0  0  0  0
  193.6360  172.3160  144.7590 O   0  0  0  0  0  0  0  0  0  0  0  0
  195.5760  174.6930  143.4590 C   0  0  2  0  0  3  0  0  0  0  0  0
  191.2190  173.9150  140.5200 C   0  0  0  0  0  2  0  0  0  0  0  0
  195.5200  172.3910  142.4350 C   0  0  0  0  0  1  0  0  0  0  0  0
  192.7640  176.6000  146.0350 C   0  0  0  0  0  2  0  0  0  0  0  0
  190.0490  174.3080  145.9810 C   0  0  0  0  0  2  0  0  0  0  0  0
  191.5500  173.7220  142.0220 C   0  0  2  0  0  3  0  0  0  0  0  0
  192.5350  174.1450  145.7330 N   0  0  0  0  0  0  0  0  0  0  0  0
  193.7920  174.0730  141.6330 C   0  0  1  0  0  3  0  0  0  0  0  0
  189.8120  174.8570  143.4980 C   0  0  1  0  0  3  0  0  0  0  0  0
  196.2560  174.3350  141.1630 C   0  0  0  0  0  1  0  0  0  0  0  0
  192.7490  175.2250  146.7040 C   0  0  0  0  0  2  0  0  0  0  0  0
  194.9010  176.8810  144.6290 C   0  0  0  0  0  2  0  0  0  0  0  0
  191.4860  176.1470  142.2760 O   0  0  0  0  0  1  0  0  0  0  0  0
  188.4140  177.4530  144.5680 C   0  0  0  0  0  3  0  0  0  0  0  0
  188.7340  176.3150  145.3240 C   0  0  0  0  0  0  0  0  0  0  0  0
  187.9950  176.0190  146.4750 C   0  0  0  0  0  3  0  0  0  0  0  0
  186.2260  176.5580  147.9790 F   0  0  0  0  0  0  0  0  0  0  0  0
  186.6230  177.9810  146.1080 C   0  0  0  0  0  3  0  0  0  0  0  0
  186.9400  176.8500  146.8660 C   0  0  0  0  0  0  0  0  0  0  0  0
  187.3600  178.2830  144.9590 C   0  0  0  0  0  3  0  0  0  0  0  0
  196.7850  173.3630  146.1380 C   0  0  0  0  0  1  0  0  0  0  0  0
  195.8410  174.5410  145.9960 C   0  0  0  0  0  2  0  0  0  0  0  0
  188.7730  175.5210  142.5860 C   0  0  0  0  0  2  0  0  0  0  0  0
  188.2040  173.2100  142.4140 O   0  0  0  0  0  1  0  0  0  0  0  0
  187.8180  174.4900  142.0130 C   0  0  0  0  0  2  0  0  0  0  0  0
  1 19  1  0  0  0  0
  2 15  1  0  0  0  0
  3 25  1  6  0  0  0
  3 21  1  0  0  0  0
  4  1  1  0  0  0  0
  4 34  1  1  0  0  0
  5 27  1  1  0  0  0
  5 17  1  0  0  0  0
  7 17  1  0  0  0  0
  8 24  1  1  0  0  0
  8  4  1  0  0  0  0
 10  6  2  0  0  0  0
 10 14  1  0  0  0  0
 11 16  1  0  0  0  0
 12  1  2  0  0  0  0
 13  2  1  6  0  0  0
 13  8  1  0  0  0  0
 13  4  1  0  0  0  0
 16 23  1  0  0  0  0
 18 14  1  6  0  0  0
 18  9  1  0  0  0  0
 18  3  1  0  0  0  0
 19  7  1  0  0  0  0
 19 23  1  0  0  0  0
 20  6  1  6  0  0  0
 20  2  1  0  0  0  0
 20  9  1  0  0  0  0
 21 35  1  6  0  0  0
 21  5  1  0  0  0  0
 22  2  1  0  0  0  0
 24 11  1  0  0  0  0
 26 32  2  0  0  0  0
 26 27  1  0  0  0  0
 27 28  2  0  0  0  0
 28 31  1  0  0  0  0
 30 31  2  0  0  0  0
 31 29  1  0  0  0  0
 32 30  1  0  0  0  0
 34 33  1  0  0  0  0
 37 36  1  0  0  0  0
 37 35  1  0  0  0  0
M  END
>  <MODEL>
6

>  <REMARK>
 VINA RESULT:      -7.7      2.423      6.664
  Name = 
  4 active torsions:
  status: ('A' for Active; 'I' for Inactive)
    1  A    between atoms: C_5  and  C_23
    2  A    between atoms: C_6  and  C_7
    3  A    between atoms: C_14  and  C_31
    4  A    between atoms: C_14  and  C_37
                            x       y       z     vdW  Elec       q    Type
                         _______ _______ _______ _____ _____    ______ ____

>  <TORSDO>
F 4

$$$$
=
 OpenBabel11052419573D

 37 41  0  0  1  0  0  0  0  0999 V2000
  191.5460  175.1220  143.3790 C   0  0  0  0  0  0  0  0  0  0  0  0
  188.8870  176.1530  145.0180 C   0  0  0  0  0  0  0  0  0  0  0  0
  188.8680  174.4860  141.1500 C   0  0  2  0  0  3  0  0  0  0  0  0
  191.0650  174.6350  144.7140 C   0  0  2  0  0  0  0  0  0  0  0  0
  190.4440  173.0790  139.8410 C   0  0  1  0  0  3  0  0  0  0  0  0
  186.9220  176.8190  143.4840 C   0  0  0  0  0  3  0  0  0  0  0  0
  192.0830  174.7120  140.9780 C   0  0  0  0  0  2  0  0  0  0  0  0
  189.8120  173.7980  144.4280 C   0  0  2  0  0  3  0  0  0  0  0  0
  189.0750  176.4390  142.5810 O   0  0  0  0  0  0  0  0  0  0  0  0
  186.4070  176.9670  142.2620 C   0  0  0  0  0  3  0  0  0  0  0  0
  190.9570  171.5330  144.3230 C   0  0  0  0  0  2  0  0  0  0  0  0
  191.7580  176.3530  143.2100 O   0  0  0  0  0  0  0  0  0  0  0  0
  189.7360  174.9240  145.4400 C   0  0  2  0  0  3  0  0  0  0  0  0
  187.0940  176.3690  141.0620 C   0  0  0  0  0  2  0  0  0  0  0  0
  189.7200  177.4240  145.1230 C   0  0  0  0  0  1  0  0  0  0  0  0
  191.1530  171.8550  142.8400 C   0  0  0  0  0  2  0  0  0  0  0  0
  191.8560  173.6770  139.8710 C   0  0  0  0  0  2  0  0  0  0  0  0
  188.5640  175.9700  141.3470 C   0  0  2  0  0  3  0  0  0  0  0  0
  191.8470  174.1830  142.3230 N   0  0  0  0  0  0  0  0  0  0  0  0
  188.2070  176.0420  143.6200 C   0  0  1  0  0  3  0  0  0  0  0  0
  189.3510  174.1600  139.7370 C   0  0  1  0  0  3  0  0  0  0  0  0
  187.8230  176.2510  146.1050 C   0  0  0  0  0  1  0  0  0  0  0  0
  192.3150  172.8310  142.6510 C   0  0  0  0  0  2  0  0  0  0  0  0
  189.8870  172.3920  145.0160 C   0  0  0  0  0  2  0  0  0  0  0  0
  187.8210  173.6580  141.5700 O   0  0  0  0  0  1  0  0  0  0  0  0
  189.7370  170.7630  139.0970 C   0  0  0  0  0  3  0  0  0  0  0  0
  190.3690  171.9840  138.8160 C   0  0  0  0  0  0  0  0  0  0  0  0
  190.9580  172.1840  137.5620 C   0  0  0  0  0  3  0  0  0  0  0  0
  191.4820  171.3750  135.3820 F   0  0  0  0  0  0  0  0  0  0  0  0
  190.2790  169.9620  136.8780 C   0  0  0  0  0  3  0  0  0  0  0  0
  190.9120  171.1760  136.5940 C   0  0  0  0  0  0  0  0  0  0  0  0
  189.6910  169.7550  138.1300 C   0  0  0  0  0  3  0  0  0  0  0  0
  193.0820  175.1520  146.1000 C   0  0  0  0  0  1  0  0  0  0  0  0
  192.1320  174.0610  145.6480 C   0  0  0  0  0  2  0  0  0  0  0  0
  188.1870  173.8190  138.7980 C   0  0  0  0  0  2  0  0  0  0  0  0
  187.0710  175.5430  137.5840 O   0  0  0  0  0  1  0  0  0  0  0  0
  188.1970  174.7190  137.5750 C   0  0  0  0  0  2  0  0  0  0  0  0
  1  4  1  0  0  0  0
  2 15  1  0  0  0  0
  2 22  1  0  0  0  0
  3 18  1  0  0  0  0
  3 25  1  6  0  0  0
  4 13  1  0  0  0  0
  4 34  1  1  0  0  0
  5 27  1  6  0  0  0
  5 17  1  0  0  0  0
  7 19  1  0  0  0  0
  8  4  1  0  0  0  0
  8 24  1  1  0  0  0
  8 13  1  0  0  0  0
  9 20  1  0  0  0  0
 10  6  2  0  0  0  0
 11 24  1  0  0  0  0
 12  1  2  0  0  0  0
 13  2  1  6  0  0  0
 14 10  1  0  0  0  0
 16 11  1  0  0  0  0
 17  7  1  0  0  0  0
 18 14  1  1  0  0  0
 18  9  1  0  0  0  0
 19 23  1  0  0  0  0
 19  1  1  0  0  0  0
 20  6  1  1  0  0  0
 20  2  1  0  0  0  0
 21 35  1  6  0  0  0
 21  5  1  0  0  0  0
 21  3  1  0  0  0  0
 23 16  1  0  0  0  0
 27 26  1  0  0  0  0
 28 27  2  0  0  0  0
 29 31  1  0  0  0  0
 30 32  1  0  0  0  0
 31 30  2  0  0  0  0
 31 28  1  0  0  0  0
 32 26  2  0  0  0  0
 34 33  1  0  0  0  0
 37 36  1  0  0  0  0
 37 35  1  0  0  0  0
M  END
>  <MODEL>
7

>  <REMARK>
 VINA RESULT:      -7.6      3.283      5.946
  Name = 
  4 active torsions:
  status: ('A' for Active; 'I' for Inactive)
    1  A    between atoms: C_5  and  C_23
    2  A    between atoms: C_6  and  C_7
    3  A    between atoms: C_14  and  C_31
    4  A    between atoms: C_14  and  C_37
                            x       y       z     vdW  Elec       q    Type
                         _______ _______ _______ _____ _____    ______ ____

>  <TORSDO>
F 4

$$$$
=
 OpenBabel11052419573D

 37 41  0  0  1  0  0  0  0  0999 V2000
  192.8650  175.7750  143.0530 C   0  0  0  0  0  0  0  0  0  0  0  0
  190.6020  177.1110  145.0310 C   0  0  0  0  0  0  0  0  0  0  0  0
  189.9050  173.9820  142.2990 C   0  0  2  0  0  3  0  0  0  0  0  0
  192.9060  175.8450  144.5510 C   0  0  2  0  0  0  0  0  0  0  0  0
  191.3430  172.3310  141.1220 C   0  0  1  0  0  3  0  0  0  0  0  0
  188.1880  176.8590  144.1560 C   0  0  0  0  0  3  0  0  0  0  0  0
  192.7940  174.4530  140.9390 C   0  0  0  0  0  2  0  0  0  0  0  0
  191.8600  174.8370  145.0470 C   0  0  2  0  0  3  0  0  0  0  0  0
  190.0300  176.3650  142.7570 O   0  0  0  0  0  0  0  0  0  0  0  0
  187.3330  176.4260  143.2280 C   0  0  0  0  0  3  0  0  0  0  0  0
  193.4370  172.8730  145.3720 C   0  0  0  0  0  2  0  0  0  0  0  0
  192.7210  176.8360  142.3890 O   0  0  0  0  0  0  0  0  0  0  0  0
  191.8030  176.2690  145.5410 C   0  0  2  0  0  3  0  0  0  0  0  0
  187.7810  175.4550  142.1660 C   0  0  0  0  0  2  0  0  0  0  0  0
  191.1020  178.3880  144.3710 C   0  0  0  0  0  1  0  0  0  0  0  0
  193.1300  172.5610  143.9050 C   0  0  0  0  0  2  0  0  0  0  0  0
  192.5210  173.0310  140.4360 C   0  0  0  0  0  2  0  0  0  0  0  0
  189.3230  175.3700  142.0390 C   0  0  2  0  0  3  0  0  0  0  0  0
  193.0760  174.5160  142.3740 N   0  0  0  0  0  0  0  0  0  0  0  0
  189.6060  176.3510  144.1020 C   0  0  1  0  0  3  0  0  0  0  0  0
  190.0390  173.1460  141.0260 C   0  0  1  0  0  3  0  0  0  0  0  0
  189.8910  177.5420  146.3090 C   0  0  0  0  0  1  0  0  0  0  0  0
  193.9250  173.4850  142.9810 C   0  0  0  0  0  2  0  0  0  0  0  0
  192.4290  173.8250  146.0360 C   0  0  0  0  0  2  0  0  0  0  0  0
  189.2450  173.3010  143.3280 O   0  0  0  0  0  1  0  0  0  0  0  0
  190.9560  169.8640  141.5530 C   0  0  0  0  0  3  0  0  0  0  0  0
  191.2490  170.9050  140.6580 C   0  0  0  0  0  0  0  0  0  0  0  0
  191.4750  170.6130  139.3080 C   0  0  0  0  0  3  0  0  0  0  0  0
  191.6230  169.0150  137.5460 F   0  0  0  0  0  0  0  0  0  0  0  0
  191.1110  168.2590  139.7480 C   0  0  0  0  0  3  0  0  0  0  0  0
  191.4050  169.2920  138.8530 C   0  0  0  0  0  0  0  0  0  0  0  0
  190.8870  168.5450  141.0980 C   0  0  0  0  0  3  0  0  0  0  0  0
  195.2790  176.6050  144.3350 C   0  0  0  0  0  1  0  0  0  0  0  0
  194.2960  175.8320  145.1910 C   0  0  0  0  0  2  0  0  0  0  0  0
  188.7760  172.3210  140.7460 C   0  0  0  0  0  2  0  0  0  0  0  0
  188.8350  173.7910  138.8670 O   0  0  0  0  0  1  0  0  0  0  0  0
  188.1940  172.6670  139.3870 C   0  0  0  0  0  2  0  0  0  0  0  0
  1  4  1  0  0  0  0
  2 22  1  0  0  0  0
  3 25  1  1  0  0  0
  4  8  1  0  0  0  0
  4 34  1  1  0  0  0
  4 13  1  0  0  0  0
  5 27  1  6  0  0  0
  7 19  1  0  0  0  0
  8 13  1  0  0  0  0
  8 24  1  1  0  0  0
  9 20  1  0  0  0  0
 10  6  2  0  0  0  0
 11 24  1  0  0  0  0
 12  1  2  0  0  0  0
 13  2  1  6  0  0  0
 14 10  1  0  0  0  0
 15  2  1  0  0  0  0
 16 11  1  0  0  0  0
 17  7  1  0  0  0  0
 17  5  1  0  0  0  0
 18 14  1  1  0  0  0
 18  3  1  0  0  0  0
 18  9  1  0  0  0  0
 19 23  1  0  0  0  0
 19  1  1  0  0  0  0
 20  6  1  6  0  0  0
 20  2  1  0  0  0  0
 21 35  1  1  0  0  0
 21  5  1  0  0  0  0
 21  3  1  0  0  0  0
 23 16  1  0  0  0  0
 27 26  2  0  0  0  0
 28 27  1  0  0  0  0
 29 31  1  0  0  0  0
 30 32  2  0  0  0  0
 31 28  2  0  0  0  0
 31 30  1  0  0  0  0
 32 26  1  0  0  0  0
 33 34  1  0  0  0  0
 36 37  1  0  0  0  0
 37 35  1  0  0  0  0
M  END
>  <MODEL>
8

>  <REMARK>
 VINA RESULT:      -7.3      2.928      5.213
  Name = 
  4 active torsions:
  status: ('A' for Active; 'I' for Inactive)
    1  A    between atoms: C_5  and  C_23
    2  A    between atoms: C_6  and  C_7
    3  A    between atoms: C_14  and  C_31
    4  A    between atoms: C_14  and  C_37
                            x       y       z     vdW  Elec       q    Type
                         _______ _______ _______ _____ _____    ______ ____

>  <TORSDO>
F 4

$$$$
=
 OpenBabel11052419573D

 37 41  0  0  1  0  0  0  0  0999 V2000
  193.9440  174.7920  143.1080 C   0  0  0  0  0  0  0  0  0  0  0  0
  192.3070  175.3900  145.8980 C   0  0  0  0  0  0  0  0  0  0  0  0
  190.5880  173.9720  142.3240 C   0  0  2  0  0  3  0  0  0  0  0  0
  194.1930  174.1690  144.4500 C   0  0  2  0  0  0  0  0  0  0  0  0
  191.4600  172.8490  140.2850 C   0  0  1  0  0  3  0  0  0  0  0  0
  189.8050  175.9040  145.5380 C   0  0  0  0  0  3  0  0  0  0  0  0
  193.3080  174.5970  140.7030 C   0  0  0  0  0  2  0  0  0  0  0  0
  193.0230  173.2050  144.6880 C   0  0  2  0  0  3  0  0  0  0  0  0
  191.2950  175.8450  143.7020 O   0  0  0  0  0  0  0  0  0  0  0  0
  188.7620  176.0630  144.7210 C   0  0  0  0  0  3  0  0  0  0  0  0
  194.1560  171.1060  143.8120 C   0  0  0  0  0  2  0  0  0  0  0  0
  193.9530  176.0480  142.9980 O   0  0  0  0  0  0  0  0  0  0  0  0
  193.3480  174.2490  145.7370 C   0  0  2  0  0  3  0  0  0  0  0  0
  188.8430  175.6270  143.2810 C   0  0  0  0  0  2  0  0  0  0  0  0
  192.9880  176.7430  145.7440 C   0  0  0  0  0  1  0  0  0  0  0  0
  193.5990  171.5400  142.4540 C   0  0  0  0  0  2  0  0  0  0  0  0
  192.6650  173.6110  139.7210 C   0  0  0  0  0  2  0  0  0  0  0  0
  190.2980  175.3930  142.8030 C   0  0  2  0  0  3  0  0  0  0  0  0
  193.7810  173.9620  141.9350 N   0  0  0  0  0  0  0  0  0  0  0  0
  191.0570  175.2820  144.9740 C   0  0  1  0  0  3  0  0  0  0  0  0
  190.3680  173.7940  140.8210 C   0  0  1  0  0  3  0  0  0  0  0  0
  191.8810  175.2900  147.3580 C   0  0  0  0  0  1  0  0  0  0  0  0
  194.4530  172.6600  141.8560 C   0  0  0  0  0  2  0  0  0  0  0  0
  193.4780  171.7850  145.0130 C   0  0  0  0  0  2  0  0  0  0  0  0
  189.9340  172.9990  143.0880 O   0  0  0  0  0  1  0  0  0  0  0  0
  190.6870  170.5090  139.7000 C   0  0  0  0  0  3  0  0  0  0  0  0
  190.9940  171.8180  139.2980 C   0  0  0  0  0  0  0  0  0  0  0  0
  190.8820  172.1700  137.9480 C   0  0  0  0  0  3  0  0  0  0  0  0
  190.3530  171.5710  135.7020 F   0  0  0  0  0  0  0  0  0  0  0  0
  190.1550  169.9230  137.4130 C   0  0  0  0  0  3  0  0  0  0  0  0
  190.4620  171.2250  137.0070 C   0  0  0  0  0  0  0  0  0  0  0  0
  190.2680  169.5650  138.7590 C   0  0  0  0  0  3  0  0  0  0  0  0
  196.6280  174.7070  144.2590 C   0  0  0  0  0  1  0  0  0  0  0  0
  195.6160  173.6730  144.7110 C   0  0  0  0  0  2  0  0  0  0  0  0
  188.9290  173.3720  140.5000 C   0  0  0  0  0  2  0  0  0  0  0  0
  188.1300  174.1850  138.4030 O   0  0  0  0  0  1  0  0  0  0  0  0
  188.1920  174.4780  139.7650 C   0  0  0  0  0  2  0  0  0  0  0  0
  1  4  1  0  0  0  0
  2 22  1  0  0  0  0
  3 18  1  0  0  0  0
  3 25  1  1  0  0  0
  4  8  1  0  0  0  0
  4 34  1  1  0  0  0
  4 13  1  0  0  0  0
  5 27  1  6  0  0  0
  5 21  1  0  0  0  0
  7 19  1  0  0  0  0
  8 24  1  1  0  0  0
  8 13  1  0  0  0  0
  9 20  1  0  0  0  0
 10  6  2  0  0  0  0
 11 24  1  0  0  0  0
 12  1  2  0  0  0  0
 13  2  1  6  0  0  0
 14 10  1  0  0  0  0
 15  2  1  0  0  0  0
 16 11  1  0  0  0  0
 17  5  1  0  0  0  0
 17  7  1  0  0  0  0
 18 14  1  1  0  0  0
 18  9  1  0  0  0  0
 19  1  1  0  0  0  0
 20  6  1  1  0  0  0
 20  2  1  0  0  0  0
 21 35  1  1  0  0  0
 21  3  1  0  0  0  0
 23 19  1  0  0  0  0
 23 16  1  0  0  0  0
 27 26  1  0  0  0  0
 28 27  2  0  0  0  0
 29 31  1  0  0  0  0
 30 32  1  0  0  0  0
 31 30  2  0  0  0  0
 31 28  1  0  0  0  0
 32 26  2  0  0  0  0
 33 34  1  0  0  0  0
 36 37  1  0  0  0  0
 37 35  1  0  0  0  0
M  END
>  <MODEL>
9

>  <REMARK>
 VINA RESULT:      -7.3      3.062      6.398
  Name = 
  4 active torsions:
  status: ('A' for Active; 'I' for Inactive)
    1  A    between atoms: C_5  and  C_23
    2  A    between atoms: C_6  and  C_7
    3  A    between atoms: C_14  and  C_31
    4  A    between atoms: C_14  and  C_37
                            x       y       z     vdW  Elec       q    Type
                         _______ _______ _______ _____ _____    ______ ____

>  <TORSDO>
F 4

$$$$
