=
 OpenBabel11052418553D

 34 41  0  0  1  0  0  0  0  0999 V2000
  186.7840  177.9050  146.3860 C   0  0  0  0  0  0  0  0  0  0  0  0
  184.8290  178.4910  145.0130 C   0  0  0  0  0  0  0  0  0  0  0  0
  187.0400  178.1990  144.0160 C   0  0  0  0  0  0  0  0  0  0  0  0
  187.1110  177.6480  141.7200 C   0  0  1  0  0  3  0  0  0  0  0  0
  184.6230  178.2460  147.4250 C   0  0  0  0  0  3  0  0  0  0  0  0
  184.0470  178.5110  146.1740 C   0  0  0  0  0  3  0  0  0  0  0  0
  185.1170  178.4850  142.5140 C   0  0  0  0  0  0  0  0  0  0  0  0
  186.2160  178.2180  145.1360 C   0  0  0  0  0  0  0  0  0  0  0  0
  186.1950  177.8510  140.5230 C   0  0  0  0  0  2  0  0  0  0  0  0
  185.9840  177.9340  147.5310 C   0  0  0  0  0  3  0  0  0  0  0  0
  188.3620  177.7520  144.0870 C   0  0  0  0  0  0  0  0  0  0  0  0
  188.1380  177.5310  146.4480 C   0  0  0  0  0  3  0  0  0  0  0  0
  184.1580  178.7120  143.6590 C   0  0  0  0  0  2  0  0  0  0  0  0
  188.4890  177.9200  141.6290 O   0  0  0  0  0  0  0  0  0  0  0  0
  189.0370  177.4570  142.8140 N   0  0  0  0  0  0  0  0  0  0  0  0
  184.8960  178.1200  141.2470 C   0  0  0  0  0  0  0  0  0  0  0  0
  186.5550  178.6220  142.7030 C   0  0  1  0  0  3  0  0  0  0  0  0
  188.8870  177.4400  145.3070 N   0  0  0  0  0  0  0  0  0  0  0  0
  192.5260  176.0380  142.8710 C   0  0  0  0  0  0  0  0  0  0  0  0
  192.2700  174.7000  142.5650 C   0  0  0  0  0  3  0  0  0  0  0  0
  190.1470  176.5400  142.7190 C   0  0  0  0  0  0  0  0  0  0  0  0
  190.9590  174.2750  142.3380 C   0  0  0  0  0  3  0  0  0  0  0  0
  191.4710  176.9500  142.9510 C   0  0  0  0  0  3  0  0  0  0  0  0
  189.9050  175.1900  142.4170 C   0  0  0  0  0  3  0  0  0  0  0  0
  193.7960  176.4510  143.0960 F   0  0  0  0  0  0  0  0  0  0  0  0
  183.6140  177.8920  140.6490 N   0  0  0  0  0  2  0  0  0  0  0  0
  182.5620  178.8920  140.5790 C   0  0  0  0  0  2  0  0  0  0  0  0
  180.8720  179.4020  142.7540 F   0  0  0  0  0  0  0  0  0  0  0  0
  181.2090  178.2050  140.5360 C   0  0  1  0  0  3  0  0  0  0  0  0
  180.3990  178.5440  141.7760 C   0  0  2  0  0  0  0  0  0  0  0  0
  178.3170  178.1340  141.1740 C   0  0  0  0  0  2  0  0  0  0  0  0
  178.9130  178.6840  140.0260 O   0  0  0  0  0  0  0  0  0  0  0  0
  180.0970  179.2520  140.4940 C   0  0  2  0  0  3  0  0  0  0  0  0
  179.3100  177.7300  142.0800 O   0  0  0  0  0  0  0  0  0  0  0  0
  1 12  1  0  0  0  0
  1 10  2  0  0  0  0
  2  8  2  0  0  0  0
  2  6  1  0  0  0  0
  3 11  2  0  0  0  0
  3  8  1  0  0  0  0
  4  9  1  6  0  0  0
  4 17  1  0  0  0  0
  5 10  1  0  0  0  0
  6  5  2  0  0  0  0
  7 13  1  0  0  0  0
  8  1  1  0  0  0  0
  9 16  1  0  0  0  0
 11 18  1  0  0  0  0
 13  2  1  0  0  0  0
 14  4  1  0  0  0  0
 14 15  1  0  0  0  0
 15 11  1  0  0  0  0
 16  7  2  0  0  0  0
 17  7  1  1  0  0  0
 17  3  1  0  0  0  0
 18 12  2  0  0  0  0
 19 23  1  0  0  0  0
 19 25  1  0  0  0  0
 20 19  2  0  0  0  0
 21 15  1  0  0  0  0
 21 23  2  0  0  0  0
 22 24  2  0  0  0  0
 22 20  1  0  0  0  0
 24 21  1  0  0  0  0
 26 16  1  0  0  0  0
 27 26  1  0  0  0  0
 29 27  1  1  0  0  0
 29 30  1  0  0  0  0
 30 34  1  0  0  0  0
 30 28  1  1  0  0  0
 31 34  1  0  0  0  0
 32 31  1  0  0  0  0
 33 32  1  6  0  0  0
 33 29  1  0  0  0  0
 33 30  1  0  0  0  0
M  END
>  <MODEL>
1

>  <REMARK>
 VINA RESULT:      -9.9      0.000      0.000
  Name = 
  4 active torsions:
  status: ('A' for Active; 'I' for Inactive)
    1  A    between atoms: C_3  and  C_13
    2  A    between atoms: C_3  and  N_17
    3  A    between atoms: C_12  and  N_28
    4  A    between atoms: N_17  and  C_29
                            x       y       z     vdW  Elec       q    Type
                         _______ _______ _______ _____ _____    ______ ____

>  <TORSDO>
F 4

$$$$
=
 OpenBabel11052418553D

 34 41  0  0  1  0  0  0  0  0999 V2000
  186.6810  177.0900  146.0490 C   0  0  0  0  0  0  0  0  0  0  0  0
  184.9420  178.3640  144.8640 C   0  0  0  0  0  0  0  0  0  0  0  0
  186.9280  177.5400  143.7040 C   0  0  0  0  0  0  0  0  0  0  0  0
  186.7490  177.2350  141.3680 C   0  0  1  0  0  3  0  0  0  0  0  0
  184.7580  177.9400  147.2530 C   0  0  0  0  0  3  0  0  0  0  0  0
  184.2440  178.4910  146.0700 C   0  0  0  0  0  3  0  0  0  0  0  0
  185.1250  178.5330  142.3610 C   0  0  0  0  0  0  0  0  0  0  0  0
  186.1870  177.6840  144.8720 C   0  0  0  0  0  0  0  0  0  0  0  0
  185.8930  177.8200  140.2550 C   0  0  0  0  0  2  0  0  0  0  0  0
  185.9680  177.2340  147.2420 C   0  0  0  0  0  3  0  0  0  0  0  0
  188.0580  176.7200  143.6490 C   0  0  0  0  0  0  0  0  0  0  0  0
  187.8630  176.3310  145.9910 C   0  0  0  0  0  3  0  0  0  0  0  0
  184.3200  178.9110  143.5810 C   0  0  0  0  0  2  0  0  0  0  0  0
  188.1410  177.0980  141.2110 O   0  0  0  0  0  0  0  0  0  0  0  0
  188.5680  176.3740  142.3130 N   0  0  0  0  0  0  0  0  0  0  0  0
  184.7600  178.3830  141.0840 C   0  0  0  0  0  0  0  0  0  0  0  0
  186.5450  178.2210  142.4680 C   0  0  1  0  0  3  0  0  0  0  0  0
  188.5090  176.1430  144.7990 N   0  0  0  0  0  0  0  0  0  0  0  0
  189.7380  173.0900  140.8870 C   0  0  0  0  0  0  0  0  0  0  0  0
  190.9340  172.9120  141.5850 C   0  0  0  0  0  3  0  0  0  0  0  0
  189.3490  175.1870  142.0650 C   0  0  0  0  0  0  0  0  0  0  0  0
  191.3440  173.8640  142.5200 C   0  0  0  0  0  3  0  0  0  0  0  0
  188.9540  174.2220  141.1230 C   0  0  0  0  0  3  0  0  0  0  0  0
  190.5570  174.9950  142.7550 C   0  0  0  0  0  3  0  0  0  0  0  0
  189.3400  172.1690  139.9770 F   0  0  0  0  0  0  0  0  0  0  0  0
  183.4480  178.6040  140.5520 N   0  0  0  0  0  2  0  0  0  0  0  0
  182.2480  177.9630  141.0610 C   0  0  0  0  0  2  0  0  0  0  0  0
  179.7000  177.5450  142.1480 F   0  0  0  0  0  0  0  0  0  0  0  0
  181.0820  178.2590  140.1360 C   0  0  1  0  0  3  0  0  0  0  0  0
  179.7620  177.9750  140.8320 C   0  0  2  0  0  0  0  0  0  0  0  0
  178.2950  179.1540  139.6830 C   0  0  0  0  0  2  0  0  0  0  0  0
  179.4430  179.9630  139.7210 O   0  0  0  0  0  0  0  0  0  0  0  0
  180.2330  179.3890  140.7160 C   0  0  2  0  0  3  0  0  0  0  0  0
  178.6260  177.8370  140.0370 O   0  0  0  0  0  0  0  0  0  0  0  0
  1 10  2  0  0  0  0
  2  8  2  0  0  0  0
  2  6  1  0  0  0  0
  3  8  1  0  0  0  0
  4  9  1  6  0  0  0
  4 17  1  0  0  0  0
  6  5  2  0  0  0  0
  7 13  1  0  0  0  0
  8  1  1  0  0  0  0
  9 16  1  0  0  0  0
 10  5  1  0  0  0  0
 11  3  2  0  0  0  0
 11 18  1  0  0  0  0
 12  1  1  0  0  0  0
 13  2  1  0  0  0  0
 14  4  1  0  0  0  0
 14 15  1  0  0  0  0
 15 11  1  0  0  0  0
 16  7  2  0  0  0  0
 17  7  1  1  0  0  0
 17  3  1  0  0  0  0
 18 12  2  0  0  0  0
 19 23  2  0  0  0  0
 19 20  1  0  0  0  0
 20 22  2  0  0  0  0
 21 15  1  0  0  0  0
 21 24  2  0  0  0  0
 22 24  1  0  0  0  0
 23 21  1  0  0  0  0
 25 19  1  0  0  0  0
 26 27  1  0  0  0  0
 26 16  1  0  0  0  0
 29 33  1  0  0  0  0
 29 30  1  0  0  0  0
 29 27  1  1  0  0  0
 30 28  1  1  0  0  0
 31 32  1  0  0  0  0
 31 34  1  0  0  0  0
 33 32  1  6  0  0  0
 33 30  1  0  0  0  0
 34 30  1  0  0  0  0
M  END
>  <MODEL>
2

>  <REMARK>
 VINA RESULT:      -9.0      1.629      1.919
  Name = 
  4 active torsions:
  status: ('A' for Active; 'I' for Inactive)
    1  A    between atoms: C_3  and  C_13
    2  A    between atoms: C_3  and  N_17
    3  A    between atoms: C_12  and  N_28
    4  A    between atoms: N_17  and  C_29
                            x       y       z     vdW  Elec       q    Type
                         _______ _______ _______ _____ _____    ______ ____

>  <TORSDO>
F 4

$$$$
=
 OpenBabel11052418553D

 34 41  0  0  1  0  0  0  0  0999 V2000
  188.7030  173.8300  141.8920 C   0  0  0  0  0  0  0  0  0  0  0  0
  191.0120  173.5350  142.6890 C   0  0  0  0  0  0  0  0  0  0  0  0
  189.6810  175.4760  143.3410 C   0  0  0  0  0  0  0  0  0  0  0  0
  190.2950  176.5660  145.3460 C   0  0  1  0  0  3  0  0  0  0  0  0
  190.0070  171.9210  141.1710 C   0  0  0  0  0  3  0  0  0  0  0  0
  191.0960  172.3540  141.9420 C   0  0  0  0  0  3  0  0  0  0  0  0
  191.8560  175.1380  144.4330 C   0  0  0  0  0  0  0  0  0  0  0  0
  189.8120  174.2890  142.6290 C   0  0  0  0  0  0  0  0  0  0  0  0
  191.5700  176.7070  146.1620 C   0  0  0  0  0  2  0  0  0  0  0  0
  188.8120  172.6500  141.1520 C   0  0  0  0  0  3  0  0  0  0  0  0
  188.4530  176.1360  143.4460 C   0  0  0  0  0  0  0  0  0  0  0  0
  187.4970  174.5490  141.9490 C   0  0  0  0  0  3  0  0  0  0  0  0
  192.1870  173.9410  143.5750 C   0  0  0  0  0  2  0  0  0  0  0  0
  189.4920  177.6870  145.0610 O   0  0  0  0  0  0  0  0  0  0  0  0
  188.3420  177.1800  144.4760 N   0  0  0  0  0  0  0  0  0  0  0  0
  192.3470  175.5330  145.6120 C   0  0  0  0  0  0  0  0  0  0  0  0
  190.8170  176.0800  144.0360 C   0  0  1  0  0  3  0  0  0  0  0  0
  187.3890  175.6640  142.7360 N   0  0  0  0  0  0  0  0  0  0  0  0
  185.0820  178.9680  145.0810 C   0  0  0  0  0  0  0  0  0  0  0  0
  184.5960  178.2620  146.1830 C   0  0  0  0  0  3  0  0  0  0  0  0
  187.0780  177.5710  145.0520 C   0  0  0  0  0  0  0  0  0  0  0  0
  185.3420  177.2120  146.7230 C   0  0  0  0  0  3  0  0  0  0  0  0
  186.3130  178.6210  144.5170 C   0  0  0  0  0  3  0  0  0  0  0  0
  186.5740  176.8680  146.1570 C   0  0  0  0  0  3  0  0  0  0  0  0
  184.3590  179.9850  144.5540 F   0  0  0  0  0  0  0  0  0  0  0  0
  193.3960  174.8870  146.3450 N   0  0  0  0  0  2  0  0  0  0  0  0
  194.8060  175.2050  146.1950 C   0  0  0  0  0  2  0  0  0  0  0  0
  195.2250  176.0340  143.5530 F   0  0  0  0  0  0  0  0  0  0  0  0
  195.4630  174.1860  145.2830 C   0  0  1  0  0  3  0  0  0  0  0  0
  195.6150  174.7460  143.8790 C   0  0  2  0  0  0  0  0  0  0  0  0
  197.2070  173.5070  142.9870 C   0  0  0  0  0  2  0  0  0  0  0  0
  197.6040  173.6800  144.3230 O   0  0  0  0  0  0  0  0  0  0  0  0
  196.8040  174.7240  144.7860 C   0  0  2  0  0  3  0  0  0  0  0  0
  195.8520  173.8440  142.8440 O   0  0  0  0  0  0  0  0  0  0  0  0
  1 12  2  0  0  0  0
  1  8  1  0  0  0  0
  2 13  1  0  0  0  0
  3 11  1  0  0  0  0
  4  9  1  1  0  0  0
  5  6  1  0  0  0  0
  6  2  2  0  0  0  0
  7 16  2  0  0  0  0
  8  2  1  0  0  0  0
  8  3  2  0  0  0  0
 10  5  2  0  0  0  0
 10  1  1  0  0  0  0
 11 15  1  0  0  0  0
 12 18  1  0  0  0  0
 13  7  1  0  0  0  0
 14  4  1  0  0  0  0
 15 21  1  0  0  0  0
 15 14  1  0  0  0  0
 16  9  1  0  0  0  0
 16 26  1  0  0  0  0
 17  3  1  1  0  0  0
 17  7  1  0  0  0  0
 17  4  1  0  0  0  0
 18 11  2  0  0  0  0
 19 20  1  0  0  0  0
 20 22  2  0  0  0  0
 21 24  2  0  0  0  0
 23 21  1  0  0  0  0
 23 19  2  0  0  0  0
 24 22  1  0  0  0  0
 25 19  1  0  0  0  0
 27 26  1  0  0  0  0
 29 27  1  1  0  0  0
 30 28  1  6  0  0  0
 30 33  1  0  0  0  0
 30 29  1  0  0  0  0
 31 32  1  0  0  0  0
 33 32  1  6  0  0  0
 33 29  1  0  0  0  0
 34 31  1  0  0  0  0
 34 30  1  0  0  0  0
M  END
>  <MODEL>
3

>  <REMARK>
 VINA RESULT:      -8.4      4.140     10.386
  Name = 
  4 active torsions:
  status: ('A' for Active; 'I' for Inactive)
    1  A    between atoms: C_3  and  C_13
    2  A    between atoms: C_3  and  N_17
    3  A    between atoms: C_12  and  N_28
    4  A    between atoms: N_17  and  C_29
                            x       y       z     vdW  Elec       q    Type
                         _______ _______ _______ _____ _____    ______ ____

>  <TORSDO>
F 4

$$$$
=
 OpenBabel11052418553D

 34 41  0  0  1  0  0  0  0  0999 V2000
  190.5510  172.9240  140.5950 C   0  0  0  0  0  0  0  0  0  0  0  0
  188.6060  174.4300  140.5660 C   0  0  0  0  0  0  0  0  0  0  0  0
  190.2000  174.4470  142.4180 C   0  0  0  0  0  0  0  0  0  0  0  0
  190.3350  176.4340  143.6900 C   0  0  1  0  0  3  0  0  0  0  0  0
  188.9620  172.8300  138.7690 C   0  0  0  0  0  3  0  0  0  0  0  0
  188.2100  173.8610  139.3500 C   0  0  0  0  0  3  0  0  0  0  0  0
  188.4740  176.1950  142.3530 C   0  0  0  0  0  0  0  0  0  0  0  0
  189.7700  173.9260  141.2020 C   0  0  0  0  0  0  0  0  0  0  0  0
  189.4020  177.5930  144.0020 C   0  0  0  0  0  2  0  0  0  0  0  0
  190.1330  172.3680  139.3830 C   0  0  0  0  0  3  0  0  0  0  0  0
  191.4360  174.0990  142.9680 C   0  0  0  0  0  0  0  0  0  0  0  0
  191.7560  172.5310  141.2040 C   0  0  0  0  0  3  0  0  0  0  0  0
  187.8070  175.6000  141.1360 C   0  0  0  0  0  2  0  0  0  0  0  0
  191.0750  175.8080  144.7120 O   0  0  0  0  0  0  0  0  0  0  0  0
  191.9400  174.9400  144.0640 N   0  0  0  0  0  0  0  0  0  0  0  0
  188.4140  177.4270  142.8690 C   0  0  0  0  0  0  0  0  0  0  0  0
  189.3890  175.4060  143.1680 C   0  0  1  0  0  3  0  0  0  0  0  0
  192.1820  173.1370  142.3540 N   0  0  0  0  0  0  0  0  0  0  0  0
  195.5440  176.0350  144.0210 C   0  0  0  0  0  0  0  0  0  0  0  0
  196.0670  175.2570  145.0550 C   0  0  0  0  0  3  0  0  0  0  0  0
  193.3450  175.0490  144.3760 C   0  0  0  0  0  0  0  0  0  0  0  0
  195.2380  174.3770  145.7540 C   0  0  0  0  0  3  0  0  0  0  0  0
  194.1910  175.9340  143.6870 C   0  0  0  0  0  3  0  0  0  0  0  0
  193.8850  174.2770  145.4170 C   0  0  0  0  0  3  0  0  0  0  0  0
  196.3460  176.8910  143.3440 F   0  0  0  0  0  0  0  0  0  0  0  0
  187.6170  178.5100  142.3720 N   0  0  0  0  0  2  0  0  0  0  0  0
  186.2010  178.6710  142.6540 C   0  0  0  0  0  2  0  0  0  0  0  0
  183.5250  178.6660  143.4820 F   0  0  0  0  0  0  0  0  0  0  0  0
  185.9770  178.6610  144.1550 C   0  0  1  0  0  3  0  0  0  0  0  0
  184.4920  178.6800  144.4740 C   0  0  2  0  0  0  0  0  0  0  0  0
  184.3840  177.8990  146.5330 C   0  0  0  0  0  2  0  0  0  0  0  0
  185.4010  177.1440  145.9240 O   0  0  0  0  0  0  0  0  0  0  0  0
  185.2370  177.3870  144.5610 C   0  0  2  0  0  3  0  0  0  0  0  0
  184.1110  179.0410  145.7640 O   0  0  0  0  0  0  0  0  0  0  0  0
  1  8  2  0  0  0  0
  1 12  1  0  0  0  0
  2 13  1  0  0  0  0
  2  8  1  0  0  0  0
  3 11  2  0  0  0  0
  3 17  1  0  0  0  0
  4  9  1  1  0  0  0
  4 14  1  0  0  0  0
  5  6  1  0  0  0  0
  5 10  2  0  0  0  0
  6  2  2  0  0  0  0
  7 16  2  0  0  0  0
  8  3  1  0  0  0  0
 10  1  1  0  0  0  0
 11 15  1  0  0  0  0
 12 18  2  0  0  0  0
 13  7  1  0  0  0  0
 15 21  1  0  0  0  0
 15 14  1  0  0  0  0
 16  9  1  0  0  0  0
 17  7  1  6  0  0  0
 17  4  1  0  0  0  0
 18 11  1  0  0  0  0
 19 20  1  0  0  0  0
 20 22  2  0  0  0  0
 21 24  2  0  0  0  0
 23 19  2  0  0  0  0
 23 21  1  0  0  0  0
 24 22  1  0  0  0  0
 25 19  1  0  0  0  0
 26 27  1  0  0  0  0
 26 16  1  0  0  0  0
 29 27  1  6  0  0  0
 29 30  1  0  0  0  0
 29 33  1  0  0  0  0
 30 28  1  6  0  0  0
 30 33  1  0  0  0  0
 30 34  1  0  0  0  0
 32 31  1  0  0  0  0
 33 32  1  1  0  0  0
 34 31  1  0  0  0  0
M  END
>  <MODEL>
4

>  <REMARK>
 VINA RESULT:      -8.2      3.284      6.076
  Name = 
  4 active torsions:
  status: ('A' for Active; 'I' for Inactive)
    1  A    between atoms: C_3  and  C_13
    2  A    between atoms: C_3  and  N_17
    3  A    between atoms: C_12  and  N_28
    4  A    between atoms: N_17  and  C_29
                            x       y       z     vdW  Elec       q    Type
                         _______ _______ _______ _____ _____    ______ ____

>  <TORSDO>
F 4

$$$$
=
 OpenBabel11052418553D

 34 41  0  0  1  0  0  0  0  0999 V2000
  191.1840  176.2960  146.4120 C   0  0  0  0  0  0  0  0  0  0  0  0
  192.1920  174.8550  144.6910 C   0  0  0  0  0  0  0  0  0  0  0  0
  189.8050  175.3750  144.6750 C   0  0  0  0  0  0  0  0  0  0  0  0
  188.6900  175.2070  142.5980 C   0  0  1  0  0  3  0  0  0  0  0  0
  193.5440  175.7570  146.5020 C   0  0  0  0  0  3  0  0  0  0  0  0
  193.4290  174.9920  145.3320 C   0  0  0  0  0  3  0  0  0  0  0  0
  190.7470  174.1800  142.7460 C   0  0  0  0  0  0  0  0  0  0  0  0
  191.0590  175.4890  145.2640 C   0  0  0  0  0  0  0  0  0  0  0  0
  188.9030  174.4320  141.3080 C   0  0  0  0  0  2  0  0  0  0  0  0
  192.4280  176.4140  147.0360 C   0  0  0  0  0  3  0  0  0  0  0  0
  188.7170  176.1360  145.1120 C   0  0  0  0  0  0  0  0  0  0  0  0
  190.0590  176.9960  146.8830 C   0  0  0  0  0  3  0  0  0  0  0  0
  192.1140  174.0770  143.3790 C   0  0  0  0  0  2  0  0  0  0  0  0
  187.4190  175.2730  143.2000 O   0  0  0  0  0  0  0  0  0  0  0  0
  187.5430  176.1930  144.2290 N   0  0  0  0  0  0  0  0  0  0  0  0
  190.3640  174.0790  141.4690 C   0  0  0  0  0  0  0  0  0  0  0  0
  189.5680  174.4680  143.5520 C   0  0  1  0  0  3  0  0  0  0  0  0
  188.8660  176.9220  146.2170 N   0  0  0  0  0  0  0  0  0  0  0  0
  184.6800  178.4250  145.2340 C   0  0  0  0  0  0  0  0  0  0  0  0
  184.8170  179.4600  144.3070 C   0  0  0  0  0  3  0  0  0  0  0  0
  186.6000  177.2840  144.2600 C   0  0  0  0  0  0  0  0  0  0  0  0
  185.8400  179.4150  143.3570 C   0  0  0  0  0  3  0  0  0  0  0  0
  185.5690  177.3470  145.2130 C   0  0  0  0  0  3  0  0  0  0  0  0
  186.7270  178.3350  143.3370 C   0  0  0  0  0  3  0  0  0  0  0  0
  183.6910  178.4680  146.1580 F   0  0  0  0  0  0  0  0  0  0  0  0
  191.2180  173.7890  140.3550 N   0  0  0  0  0  2  0  0  0  0  0  0
  190.7450  173.6200  138.9920 C   0  0  0  0  0  2  0  0  0  0  0  0
  188.5210  171.9180  139.0800 F   0  0  0  0  0  0  0  0  0  0  0  0
  190.9910  172.1930  138.5410 C   0  0  1  0  0  3  0  0  0  0  0  0
  189.7200  171.3690  138.6550 C   0  0  2  0  0  0  0  0  0  0  0  0
  190.0650  169.6740  137.2870 C   0  0  0  0  0  2  0  0  0  0  0  0
  190.6450  170.7750  136.6350 O   0  0  0  0  0  0  0  0  0  0  0  0
  190.1360  171.8820  137.3130 C   0  0  2  0  0  3  0  0  0  0  0  0
  189.8430  169.9820  138.6380 O   0  0  0  0  0  0  0  0  0  0  0  0
  1 12  1  0  0  0  0
  1 10  2  0  0  0  0
  2  8  2  0  0  0  0
  2  6  1  0  0  0  0
  3 11  2  0  0  0  0
  3  8  1  0  0  0  0
  4  9  1  6  0  0  0
  4 14  1  0  0  0  0
  4 17  1  0  0  0  0
  5 10  1  0  0  0  0
  6  5  2  0  0  0  0
  7 13  1  0  0  0  0
  8  1  1  0  0  0  0
  9 16  1  0  0  0  0
 11 18  1  0  0  0  0
 13  2  1  0  0  0  0
 14 15  1  0  0  0  0
 15 21  1  0  0  0  0
 15 11  1  0  0  0  0
 16  7  2  0  0  0  0
 17  7  1  6  0  0  0
 17  3  1  0  0  0  0
 18 12  2  0  0  0  0
 19 25  1  0  0  0  0
 20 19  2  0  0  0  0
 21 23  2  0  0  0  0
 22 20  1  0  0  0  0
 23 19  1  0  0  0  0
 24 22  2  0  0  0  0
 24 21  1  0  0  0  0
 26 16  1  0  0  0  0
 27 26  1  0  0  0  0
 29 30  1  0  0  0  0
 29 27  1  1  0  0  0
 30 28  1  1  0  0  0
 31 34  1  0  0  0  0
 32 31  1  0  0  0  0
 33 32  1  6  0  0  0
 33 29  1  0  0  0  0
 33 30  1  0  0  0  0
 34 30  1  0  0  0  0
M  END
>  <MODEL>
5

>  <REMARK>
 VINA RESULT:      -8.1      3.954      8.400
  Name = 
  4 active torsions:
  status: ('A' for Active; 'I' for Inactive)
    1  A    between atoms: C_3  and  C_13
    2  A    between atoms: C_3  and  N_17
    3  A    between atoms: C_12  and  N_28
    4  A    between atoms: N_17  and  C_29
                            x       y       z     vdW  Elec       q    Type
                         _______ _______ _______ _____ _____    ______ ____

>  <TORSDO>
F 4

$$$$
=
 OpenBabel11052418553D

 34 41  0  0  1  0  0  0  0  0999 V2000
  188.6560  174.4640  141.7770 C   0  0  0  0  0  0  0  0  0  0  0  0
  190.9800  173.9470  142.4000 C   0  0  0  0  0  0  0  0  0  0  0  0
  189.7950  175.8460  143.3770 C   0  0  0  0  0  0  0  0  0  0  0  0
  190.5650  176.6190  145.4730 C   0  0  1  0  0  3  0  0  0  0  0  0
  189.8120  172.6070  140.7370 C   0  0  0  0  0  3  0  0  0  0  0  0
  190.9590  172.8760  141.4990 C   0  0  0  0  0  3  0  0  0  0  0  0
  191.9960  175.2520  144.2940 C   0  0  0  0  0  0  0  0  0  0  0  0
  189.8230  174.7620  142.5070 C   0  0  0  0  0  0  0  0  0  0  0  0
  191.8830  176.5830  146.2300 C   0  0  0  0  0  2  0  0  0  0  0  0
  188.6610  173.3920  140.8820 C   0  0  0  0  0  3  0  0  0  0  0  0
  188.6140  176.5470  143.6370 C   0  0  0  0  0  0  0  0  0  0  0  0
  187.4970  175.2300  141.9960 C   0  0  0  0  0  3  0  0  0  0  0  0
  192.2170  174.1680  143.2670 C   0  0  0  0  0  2  0  0  0  0  0  0
  189.8150  177.8080  145.3850 O   0  0  0  0  0  0  0  0  0  0  0  0
  188.6120  177.4450  144.8010 N   0  0  0  0  0  0  0  0  0  0  0  0
  192.5650  175.4570  145.4860 C   0  0  0  0  0  0  0  0  0  0  0  0
  190.9960  176.2910  144.0830 C   0  0  1  0  0  3  0  0  0  0  0  0
  187.4920  176.2310  142.9290 N   0  0  0  0  0  0  0  0  0  0  0  0
  185.9790  177.8140  147.4700 C   0  0  0  0  0  0  0  0  0  0  0  0
  185.0450  178.6120  146.8070 C   0  0  0  0  0  3  0  0  0  0  0  0
  187.4010  177.8180  145.4920 C   0  0  0  0  0  0  0  0  0  0  0  0
  185.2810  179.0180  145.4920 C   0  0  0  0  0  3  0  0  0  0  0  0
  187.1510  177.4230  146.8170 C   0  0  0  0  0  3  0  0  0  0  0  0
  186.4540  178.6250  144.8410 C   0  0  0  0  0  3  0  0  0  0  0  0
  185.7530  177.4220  148.7460 F   0  0  0  0  0  0  0  0  0  0  0  0
  193.6070  174.6640  146.0680 N   0  0  0  0  0  2  0  0  0  0  0  0
  195.0110  174.7800  145.7090 C   0  0  0  0  0  2  0  0  0  0  0  0
  197.5700  174.7900  144.5700 F   0  0  0  0  0  0  0  0  0  0  0  0
  195.5330  173.4300  145.2540 C   0  0  1  0  0  3  0  0  0  0  0  0
  196.9140  173.5720  144.6380 C   0  0  2  0  0  0  0  0  0  0  0  0
  197.7630  171.5410  144.7750 C   0  0  0  0  0  2  0  0  0  0  0  0
  197.0340  171.6970  145.9650 O   0  0  0  0  0  0  0  0  0  0  0  0
  196.7910  173.0690  146.0410 C   0  0  2  0  0  3  0  0  0  0  0  0
  197.3810  172.5240  143.8480 O   0  0  0  0  0  0  0  0  0  0  0  0
  1 12  2  0  0  0  0
  1  8  1  0  0  0  0
  2  8  1  0  0  0  0
  2 13  1  0  0  0  0
  3 11  1  0  0  0  0
  4  9  1  1  0  0  0
  5 10  2  0  0  0  0
  5  6  1  0  0  0  0
  6  2  2  0  0  0  0
  7 16  2  0  0  0  0
  8  3  2  0  0  0  0
 10  1  1  0  0  0  0
 11 15  1  0  0  0  0
 12 18  1  0  0  0  0
 13  7  1  0  0  0  0
 14  4  1  0  0  0  0
 15 14  1  0  0  0  0
 15 21  1  0  0  0  0
 16 26  1  0  0  0  0
 16  9  1  0  0  0  0
 17  3  1  6  0  0  0
 17  7  1  0  0  0  0
 17  4  1  0  0  0  0
 18 11  2  0  0  0  0
 19 25  1  0  0  0  0
 20 19  2  0  0  0  0
 21 23  2  0  0  0  0
 22 20  1  0  0  0  0
 23 19  1  0  0  0  0
 24 21  1  0  0  0  0
 24 22  2  0  0  0  0
 27 26  1  0  0  0  0
 29 27  1  1  0  0  0
 29 33  1  0  0  0  0
 30 28  1  6  0  0  0
 30 29  1  0  0  0  0
 30 33  1  0  0  0  0
 31 32  1  0  0  0  0
 33 32  1  6  0  0  0
 34 30  1  0  0  0  0
 34 31  1  0  0  0  0
M  END
>  <MODEL>
6

>  <REMARK>
 VINA RESULT:      -8.1      4.506     10.813
  Name = 
  4 active torsions:
  status: ('A' for Active; 'I' for Inactive)
    1  A    between atoms: C_3  and  C_13
    2  A    between atoms: C_3  and  N_17
    3  A    between atoms: C_12  and  N_28
    4  A    between atoms: N_17  and  C_29
                            x       y       z     vdW  Elec       q    Type
                         _______ _______ _______ _____ _____    ______ ____

>  <TORSDO>
F 4

$$$$
=
 OpenBabel11052418553D

 34 41  0  0  1  0  0  0  0  0999 V2000
  191.0620  176.3490  146.4420 C   0  0  0  0  0  0  0  0  0  0  0  0
  191.9670  174.8350  144.7260 C   0  0  0  0  0  0  0  0  0  0  0  0
  189.6090  175.4710  144.7440 C   0  0  0  0  0  0  0  0  0  0  0  0
  188.4500  175.3280  142.6890 C   0  0  1  0  0  3  0  0  0  0  0  0
  193.3940  175.6960  146.4990 C   0  0  0  0  0  3  0  0  0  0  0  0
  193.2210  174.9210  145.3430 C   0  0  0  0  0  3  0  0  0  0  0  0
  190.4560  174.2020  142.8180 C   0  0  0  0  0  0  0  0  0  0  0  0
  190.8780  175.5330  145.3090 C   0  0  0  0  0  0  0  0  0  0  0  0
  188.6010  174.5240  141.4080 C   0  0  0  0  0  2  0  0  0  0  0  0
  192.3220  176.4160  147.0420 C   0  0  0  0  0  3  0  0  0  0  0  0
  188.5680  176.2920  145.1870 C   0  0  0  0  0  0  0  0  0  0  0  0
  189.9820  177.1110  146.9210 C   0  0  0  0  0  3  0  0  0  0  0  0
  191.8280  174.0420  143.4290 C   0  0  0  0  0  2  0  0  0  0  0  0
  187.1950  175.4650  143.3110 O   0  0  0  0  0  0  0  0  0  0  0  0
  187.3820  176.3920  144.3240 N   0  0  0  0  0  0  0  0  0  0  0  0
  190.0460  174.1010  141.5490 C   0  0  0  0  0  0  0  0  0  0  0  0
  189.3080  174.5610  143.6390 C   0  0  1  0  0  3  0  0  0  0  0  0
  188.7750  177.0860  146.2770 N   0  0  0  0  0  0  0  0  0  0  0  0
  184.5790  178.7240  145.2710 C   0  0  0  0  0  0  0  0  0  0  0  0
  184.8210  179.7910  144.4040 C   0  0  0  0  0  3  0  0  0  0  0  0
  186.4940  177.5290  144.3540 C   0  0  0  0  0  0  0  0  0  0  0  0
  185.8950  179.7360  143.5130 C   0  0  0  0  0  3  0  0  0  0  0  0
  185.4130  177.6030  145.2480 C   0  0  0  0  0  3  0  0  0  0  0  0
  186.7270  178.6130  143.4920 C   0  0  0  0  0  3  0  0  0  0  0  0
  183.5400  178.7770  146.1380 F   0  0  0  0  0  0  0  0  0  0  0  0
  190.8650  173.7530  140.4260 N   0  0  0  0  0  2  0  0  0  0  0  0
  190.8600  172.4460  139.7920 C   0  0  0  0  0  2  0  0  0  0  0  0
  190.0660  170.8280  141.9360 F   0  0  0  0  0  0  0  0  0  0  0  0
  191.9480  171.5810  140.4000 C   0  0  1  0  0  3  0  0  0  0  0  0
  191.3990  170.7700  141.5610 C   0  0  2  0  0  0  0  0  0  0  0  0
  192.8300  169.1050  141.7660 C   0  0  0  0  0  2  0  0  0  0  0  0
  192.7260  169.3100  140.3800 O   0  0  0  0  0  0  0  0  0  0  0  0
  191.5890  170.1050  140.2360 C   0  0  2  0  0  3  0  0  0  0  0  0
  192.3140  170.2140  142.4530 O   0  0  0  0  0  0  0  0  0  0  0  0
  1 12  1  0  0  0  0
  1 10  2  0  0  0  0
  2  8  2  0  0  0  0
  2  6  1  0  0  0  0
  3 11  2  0  0  0  0
  3  8  1  0  0  0  0
  4  9  1  6  0  0  0
  4 14  1  0  0  0  0
  4 17  1  0  0  0  0
  5 10  1  0  0  0  0
  6  5  2  0  0  0  0
  7 13  1  0  0  0  0
  8  1  1  0  0  0  0
  9 16  1  0  0  0  0
 11 18  1  0  0  0  0
 13  2  1  0  0  0  0
 14 15  1  0  0  0  0
 15 21  1  0  0  0  0
 15 11  1  0  0  0  0
 16  7  2  0  0  0  0
 17  7  1  6  0  0  0
 17  3  1  0  0  0  0
 18 12  2  0  0  0  0
 19 25  1  0  0  0  0
 20 19  2  0  0  0  0
 21 23  2  0  0  0  0
 22 20  1  0  0  0  0
 23 19  1  0  0  0  0
 24 22  2  0  0  0  0
 24 21  1  0  0  0  0
 26 16  1  0  0  0  0
 27 26  1  0  0  0  0
 29 27  1  6  0  0  0
 29 30  1  0  0  0  0
 30 28  1  1  0  0  0
 30 34  1  0  0  0  0
 31 34  1  0  0  0  0
 32 31  1  0  0  0  0
 33 32  1  1  0  0  0
 33 29  1  0  0  0  0
 33 30  1  0  0  0  0
M  END
>  <MODEL>
7

>  <REMARK>
 VINA RESULT:      -8.1      3.898      8.932
  Name = 
  4 active torsions:
  status: ('A' for Active; 'I' for Inactive)
    1  A    between atoms: C_3  and  C_13
    2  A    between atoms: C_3  and  N_17
    3  A    between atoms: C_12  and  N_28
    4  A    between atoms: N_17  and  C_29
                            x       y       z     vdW  Elec       q    Type
                         _______ _______ _______ _____ _____    ______ ____

>  <TORSDO>
F 4

$$$$
=
 OpenBabel11052418553D

 34 41  0  0  1  0  0  0  0  0999 V2000
  190.8810  173.4280  141.6940 C   0  0  0  0  0  0  0  0  0  0  0  0
  189.1340  174.6840  142.8890 C   0  0  0  0  0  0  0  0  0  0  0  0
  191.1790  173.9630  144.0160 C   0  0  0  0  0  0  0  0  0  0  0  0
  191.8260  175.1830  145.9330 C   0  0  1  0  0  3  0  0  0  0  0  0
  188.8420  174.0680  140.5530 C   0  0  0  0  0  3  0  0  0  0  0  0
  188.3690  174.6920  141.7170 C   0  0  0  0  0  3  0  0  0  0  0  0
  189.6530  175.4630  145.2230 C   0  0  0  0  0  0  0  0  0  0  0  0
  190.3850  174.0130  142.8750 C   0  0  0  0  0  0  0  0  0  0  0  0
  191.1150  176.0320  146.9750 C   0  0  0  0  0  2  0  0  0  0  0  0
  190.0970  173.4460  140.5380 C   0  0  0  0  0  3  0  0  0  0  0  0
  192.4870  173.4740  143.9770 C   0  0  0  0  0  0  0  0  0  0  0  0
  192.1710  172.8710  141.6940 C   0  0  0  0  0  3  0  0  0  0  0  0
  188.6250  175.4340  144.1170 C   0  0  0  0  0  2  0  0  0  0  0  0
  192.7690  174.2100  146.3160 O   0  0  0  0  0  0  0  0  0  0  0  0
  193.3450  173.7670  145.1350 N   0  0  0  0  0  0  0  0  0  0  0  0
  189.8400  176.3330  146.2210 C   0  0  0  0  0  0  0  0  0  0  0  0
  190.6910  174.4440  145.3080 C   0  0  1  0  0  3  0  0  0  0  0  0
  192.9510  172.9260  142.8180 N   0  0  0  0  0  0  0  0  0  0  0  0
  196.8590  174.8700  144.3440 C   0  0  0  0  0  0  0  0  0  0  0  0
  197.5960  173.8450  144.9410 C   0  0  0  0  0  3  0  0  0  0  0  0
  194.7850  173.8020  145.0460 C   0  0  0  0  0  0  0  0  0  0  0  0
  196.9370  172.8000  145.5920 C   0  0  0  0  0  3  0  0  0  0  0  0
  195.4630  174.8500  144.4000 C   0  0  0  0  0  3  0  0  0  0  0  0
  195.5400  172.7820  145.6450 C   0  0  0  0  0  3  0  0  0  0  0  0
  197.4960  175.8870  143.7160 F   0  0  0  0  0  0  0  0  0  0  0  0
  189.0260  177.4790  146.5020 N   0  0  0  0  0  2  0  0  0  0  0  0
  187.6040  177.4130  146.7910 C   0  0  0  0  0  2  0  0  0  0  0  0
  185.0970  176.2990  146.2250 F   0  0  0  0  0  0  0  0  0  0  0  0
  186.8260  178.0790  145.6720 C   0  0  1  0  0  3  0  0  0  0  0  0
  185.4990  177.3730  145.4490 C   0  0  2  0  0  0  0  0  0  0  0  0
  184.2660  178.8810  144.4140 C   0  0  0  0  0  2  0  0  0  0  0  0
  185.0120  179.6190  145.3480 O   0  0  0  0  0  0  0  0  0  0  0  0
  185.5210  178.6550  146.2190 C   0  0  2  0  0  3  0  0  0  0  0  0
  184.8340  177.6080  144.2480 O   0  0  0  0  0  0  0  0  0  0  0  0
  1 12  2  0  0  0  0
  1  8  1  0  0  0  0
  2 13  1  0  0  0  0
  4 14  1  0  0  0  0
  4  9  1  1  0  0  0
  5  6  1  0  0  0  0
  6  2  2  0  0  0  0
  7 17  1  0  0  0  0
  7 16  2  0  0  0  0
  8  2  1  0  0  0  0
  8  3  2  0  0  0  0
 10  5  2  0  0  0  0
 10  1  1  0  0  0  0
 11  3  1  0  0  0  0
 11 15  1  0  0  0  0
 12 18  1  0  0  0  0
 13  7  1  0  0  0  0
 15 14  1  0  0  0  0
 16 26  1  0  0  0  0
 16  9  1  0  0  0  0
 17  3  1  6  0  0  0
 17  4  1  0  0  0  0
 18 11  2  0  0  0  0
 19 23  2  0  0  0  0
 19 20  1  0  0  0  0
 20 22  2  0  0  0  0
 21 15  1  0  0  0  0
 21 24  2  0  0  0  0
 22 24  1  0  0  0  0
 23 21  1  0  0  0  0
 25 19  1  0  0  0  0
 26 27  1  0  0  0  0
 29 33  1  0  0  0  0
 29 27  1  1  0  0  0
 30 29  1  0  0  0  0
 30 33  1  0  0  0  0
 30 28  1  1  0  0  0
 31 32  1  0  0  0  0
 33 32  1  6  0  0  0
 34 31  1  0  0  0  0
 34 30  1  0  0  0  0
M  END
>  <MODEL>
8

>  <REMARK>
 VINA RESULT:      -8.1      3.762      6.869
  Name = 
  4 active torsions:
  status: ('A' for Active; 'I' for Inactive)
    1  A    between atoms: C_3  and  C_13
    2  A    between atoms: C_3  and  N_17
    3  A    between atoms: C_12  and  N_28
    4  A    between atoms: N_17  and  C_29
                            x       y       z     vdW  Elec       q    Type
                         _______ _______ _______ _____ _____    ______ ____

>  <TORSDO>
F 4

$$$$
=
 OpenBabel11052418553D

 34 41  0  0  1  0  0  0  0  0999 V2000
  186.6090  177.7110  142.4810 C   0  0  0  0  0  0  0  0  0  0  0  0
  187.1150  177.5650  144.8850 C   0  0  0  0  0  0  0  0  0  0  0  0
  187.7470  175.7800  143.3420 C   0  0  0  0  0  0  0  0  0  0  0  0
  189.5380  174.3860  144.0000 C   0  0  1  0  0  3  0  0  0  0  0  0
  185.9080  179.4770  143.9840 C   0  0  0  0  0  3  0  0  0  0  0  0
  186.4810  178.8000  145.0710 C   0  0  0  0  0  3  0  0  0  0  0  0
  188.5680  175.6620  145.6550 C   0  0  0  0  0  0  0  0  0  0  0  0
  187.1430  177.0100  143.5790 C   0  0  0  0  0  0  0  0  0  0  0  0
  190.1590  173.9620  145.3220 C   0  0  0  0  0  2  0  0  0  0  0  0
  185.9790  178.9400  142.6930 C   0  0  0  0  0  3  0  0  0  0  0  0
  187.9510  175.3020  142.0440 C   0  0  0  0  0  0  0  0  0  0  0  0
  186.7570  177.1770  141.1890 C   0  0  0  0  0  3  0  0  0  0  0  0
  187.7930  176.8890  146.0740 C   0  0  0  0  0  2  0  0  0  0  0  0
  189.2550  173.4370  142.9990 O   0  0  0  0  0  0  0  0  0  0  0  0
  188.8810  174.1730  141.8860 N   0  0  0  0  0  0  0  0  0  0  0  0
  189.6260  175.0640  146.2100 C   0  0  0  0  0  0  0  0  0  0  0  0
  188.2230  174.9380  144.4390 C   0  0  1  0  0  3  0  0  0  0  0  0
  187.4390  176.0070  140.9950 N   0  0  0  0  0  0  0  0  0  0  0  0
  189.6020  173.5570  138.2410 C   0  0  0  0  0  0  0  0  0  0  0  0
  190.9940  173.4430  138.2650 C   0  0  0  0  0  3  0  0  0  0  0  0
  189.5790  173.9100  140.6510 C   0  0  0  0  0  0  0  0  0  0  0  0
  191.6830  173.5630  139.4730 C   0  0  0  0  0  3  0  0  0  0  0  0
  188.9010  173.7930  139.4260 C   0  0  0  0  0  3  0  0  0  0  0  0
  190.9790  173.7980  140.6580 C   0  0  0  0  0  3  0  0  0  0  0  0
  188.9320  173.4440  137.0690 F   0  0  0  0  0  0  0  0  0  0  0  0
  190.2720  175.4580  147.4280 N   0  0  0  0  0  2  0  0  0  0  0  0
  191.3930  176.3810  147.4900 C   0  0  0  0  0  2  0  0  0  0  0  0
  192.0540  177.2070  144.8970 F   0  0  0  0  0  0  0  0  0  0  0  0
  192.6230  175.7290  146.8860 C   0  0  1  0  0  3  0  0  0  0  0  0
  192.8620  176.2430  145.4770 C   0  0  2  0  0  0  0  0  0  0  0  0
  194.9950  175.8130  145.1140 C   0  0  0  0  0  2  0  0  0  0  0  0
  194.9390  176.1970  146.4640 O   0  0  0  0  0  0  0  0  0  0  0  0
  193.6840  176.7900  146.6000 C   0  0  2  0  0  3  0  0  0  0  0  0
  193.7060  175.5030  144.6520 O   0  0  0  0  0  0  0  0  0  0  0  0
  1 10  2  0  0  0  0
  1  8  1  0  0  0  0
  2  6  1  0  0  0  0
  2 13  1  0  0  0  0
  3  8  1  0  0  0  0
  4 17  1  0  0  0  0
  4  9  1  1  0  0  0
  5  6  2  0  0  0  0
  7 13  1  0  0  0  0
  7 16  2  0  0  0  0
  8  2  2  0  0  0  0
  9 16  1  0  0  0  0
 10  5  1  0  0  0  0
 11  3  2  0  0  0  0
 12  1  1  0  0  0  0
 14  4  1  0  0  0  0
 15 11  1  0  0  0  0
 15 14  1  0  0  0  0
 16 26  1  0  0  0  0
 17  3  1  6  0  0  0
 17  7  1  0  0  0  0
 18 12  2  0  0  0  0
 18 11  1  0  0  0  0
 19 20  2  0  0  0  0
 19 23  1  0  0  0  0
 20 22  1  0  0  0  0
 21 24  1  0  0  0  0
 21 15  1  0  0  0  0
 22 24  2  0  0  0  0
 23 21  2  0  0  0  0
 25 19  1  0  0  0  0
 26 27  1  0  0  0  0
 29 27  1  1  0  0  0
 30 28  1  6  0  0  0
 30 33  1  0  0  0  0
 30 29  1  0  0  0  0
 31 32  1  0  0  0  0
 33 32  1  6  0  0  0
 33 29  1  0  0  0  0
 34 31  1  0  0  0  0
 34 30  1  0  0  0  0
M  END
>  <MODEL>
9

>  <REMARK>
 VINA RESULT:      -8.0      4.589      8.273
  Name = 
  4 active torsions:
  status: ('A' for Active; 'I' for Inactive)
    1  A    between atoms: C_3  and  C_13
    2  A    between atoms: C_3  and  N_17
    3  A    between atoms: C_12  and  N_28
    4  A    between atoms: N_17  and  C_29
                            x       y       z     vdW  Elec       q    Type
                         _______ _______ _______ _____ _____    ______ ____

>  <TORSDO>
F 4

$$$$
