=
 OpenBabel11052420483D

 43 48  0  0  1  0  0  0  0  0999 V2000
  189.8740  174.0370  143.2910 C   0  0  1  0  0  3  0  0  0  0  0  0
  184.9610  178.1560  144.5910 C   0  0  1  0  0  3  0  0  0  0  0  0
  190.6950  172.1620  141.8190 C   0  0  0  0  0  1  0  0  0  0  0  0
  188.0150  175.5130  141.3790 C   0  0  0  0  0  0  0  0  0  0  0  0
  189.4690  172.8250  142.4280 C   0  0  2  0  0  3  0  0  0  0  0  0
  185.8030  176.9760  142.5010 C   0  0  1  0  0  3  0  0  0  0  0  0
  186.3860  178.3530  145.1260 C   0  0  0  0  0  2  0  0  0  0  0  0
  184.0710  179.2740  145.0900 C   0  0  0  0  0  1  0  0  0  0  0  0
  186.8540  176.4570  143.5110 C   0  0  2  0  0  3  0  0  0  0  0  0
  184.9430  178.1170  143.0640 C   0  0  0  0  0  2  0  0  0  0  0  0
  187.4550  177.6170  144.3070 C   0  0  0  0  0  2  0  0  0  0  0  0
  188.7210  174.9140  143.6970 C   0  0  0  0  0  3  0  0  0  0  0  0
  187.9210  175.6010  142.8700 C   0  0  0  0  0  0  0  0  0  0  0  0
  187.3080  176.3680  140.6260 C   0  0  0  0  0  3  0  0  0  0  0  0
  188.8240  174.4100  140.7290 C   0  0  1  0  0  3  0  0  0  0  0  0
  188.4980  173.1400  141.3740 N   0  0  0  0  0  2  0  0  0  0  0  0
  186.4820  177.4630  141.2250 C   0  0  0  0  0  2  0  0  0  0  0  0
  188.6180  174.2880  139.2210 C   0  0  0  0  0  2  0  0  0  0  0  0
  188.2710  172.8560  138.8530 C   0  0  0  0  0  2  0  0  0  0  0  0
  189.9170  173.5540  137.3340 C   0  0  0  0  0  2  0  0  0  0  0  0
  191.3300  173.0610  137.0980 C   0  0  1  0  0  0  0  0  0  0  0  0
  191.6760  173.1370  135.6240 C   0  0  0  0  0  1  0  0  0  0  0  0
  190.0340  171.4350  138.2780 C   0  0  0  0  0  2  0  0  0  0  0  0
  189.1010  172.4160  137.7450 N   0  0  0  0  0  0  0  0  0  0  0  0
  192.2300  173.8230  137.8390 O   0  0  0  0  0  1  0  0  0  0  0  0
  191.3520  171.6290  137.5650 C   0  0  0  0  0  2  0  0  0  0  0  0
  190.8160  173.5130  144.7710 S   0  0  0  0  0  0  0  0  0  0  0  0
  190.3870  174.9790  145.7720 C   0  0  1  0  0  3  0  0  0  0  0  0
  189.5190  174.5590  146.9390 C   0  0  0  0  0  1  0  0  0  0  0  0
  191.5500  175.5900  146.2520 O   0  0  0  0  0  0  0  0  0  0  0  0
  192.2470  176.0030  145.1110 C   0  0  2  0  0  3  0  0  0  0  0  0
  194.6660  175.0500  145.0370 C   0  0  2  0  0  0  0  0  0  0  0  0
  194.5220  176.2960  144.3460 O   0  0  0  0  0  0  0  0  0  0  0  0
  193.7250  176.1590  145.4500 C   0  0  1  0  0  0  0  0  0  0  0  0
  195.5860  175.0460  146.1250 O   0  0  0  0  0  0  0  0  0  0  0  0
  196.1500  174.9020  144.8800 C   0  0  1  0  0  3  0  0  0  0  0  0
  194.0970  177.0460  146.4690 O   0  0  0  0  0  1  0  0  0  0  0  0
  197.3480  173.3090  143.4030 C   0  0  0  0  0  1  0  0  0  0  0  0
  197.2030  172.9520  145.7460 O   0  0  0  0  0  1  0  0  0  0  0  0
  196.4970  173.4440  144.6490 C   0  0  1  0  0  3  0  0  0  0  0  0
  191.6520  177.3030  144.5820 C   0  0  0  0  0  2  0  0  0  0  0  0
  190.3680  177.8860  142.6600 F   0  0  0  0  0  0  0  0  0  0  0  0
  191.5310  177.2610  143.0690 C   0  0  0  0  0  2  0  0  0  0  0  0
  1 12  1  0  0  0  0
  1 27  1  1  0  0  0
  2  8  1  6  0  0  0
  2  7  1  0  0  0  0
  4 13  1  0  0  0  0
  5  3  1  6  0  0  0
  5  1  1  0  0  0  0
  6 17  1  6  0  0  0
  6 10  1  0  0  0  0
  6  9  1  0  0  0  0
  9 11  1  6  0  0  0
 10  2  1  0  0  0  0
 11  7  1  0  0  0  0
 13  9  1  0  0  0  0
 13 12  2  0  0  0  0
 14 17  1  0  0  0  0
 14  4  2  0  0  0  0
 15 18  1  6  0  0  0
 15 16  1  0  0  0  0
 15  4  1  0  0  0  0
 16  5  1  0  0  0  0
 19 18  1  0  0  0  0
 20 24  1  0  0  0  0
 21 22  1  6  0  0  0
 21 20  1  0  0  0  0
 21 26  1  0  0  0  0
 21 25  1  0  0  0  0
 24 23  1  0  0  0  0
 24 19  1  0  0  0  0
 26 23  1  0  0  0  0
 27 28  1  0  0  0  0
 28 30  1  0  0  0  0
 28 29  1  1  0  0  0
 31 41  1  1  0  0  0
 31 34  1  0  0  0  0
 31 30  1  0  0  0  0
 32 33  1  1  0  0  0
 32 34  1  0  0  0  0
 32 35  1  0  0  0  0
 33 34  1  0  0  0  0
 34 37  1  1  0  0  0
 36 40  1  1  0  0  0
 36 32  1  0  0  0  0
 36 35  1  0  0  0  0
 40 38  1  6  0  0  0
 40 39  1  0  0  0  0
 42 43  1  0  0  0  0
 43 41  1  0  0  0  0
M  END
>  <MODEL>
1

>  <REMARK>
 VINA RESULT:      -7.5      0.000      0.000
  Name = 
  11 active torsions:
  status: ('A' for Active; 'I' for Inactive)
    1  A    between atoms: C_1  and  C_34
    2  A    between atoms: C_1  and  C_35
    3  A    between atoms: C_2  and  S_6
    4  A    between atoms: O_3  and  C_4
    5  A    between atoms: O_3  and  C_12
    6  A    between atoms: C_4  and  C_15
    7  A    between atoms: C_4  and  C_22
    8  A    between atoms: S_6  and  C_12
    9  A    between atoms: C_15  and  C_42
   10  A    between atoms: C_31  and  C_40
   11  A    between atoms: N_32  and  C_35
                            x       y       z     vdW  Elec       q    Type
                         _______ _______ _______ _____ _____    ______ ____

>  <TORSDO>
F 11

$$$$
=
 OpenBabel11052420483D

 43 48  0  0  1  0  0  0  0  0999 V2000
  191.7700  176.1000  142.8390 C   0  0  1  0  0  3  0  0  0  0  0  0
  190.3600  171.4770  138.4300 C   0  0  1  0  0  3  0  0  0  0  0  0
  190.9720  178.1900  144.0040 C   0  0  0  0  0  1  0  0  0  0  0  0
  189.1230  174.7040  142.2620 C   0  0  0  0  0  0  0  0  0  0  0  0
  190.8950  177.3660  142.7280 C   0  0  2  0  0  3  0  0  0  0  0  0
  188.9850  172.9500  139.9830 C   0  0  1  0  0  3  0  0  0  0  0  0
  191.4860  171.3380  139.4630 C   0  0  0  0  0  2  0  0  0  0  0  0
  190.3140  170.2420  137.5570 C   0  0  0  0  0  1  0  0  0  0  0  0
  190.4000  173.4350  140.3800 C   0  0  2  0  0  3  0  0  0  0  0  0
  189.0080  171.6870  139.1090 C   0  0  0  0  0  2  0  0  0  0  0  0
  191.3110  172.2450  140.6880 C   0  0  0  0  0  2  0  0  0  0  0  0
  191.5330  175.0930  141.7470 C   0  0  0  0  0  3  0  0  0  0  0  0
  190.3870  174.4410  141.5070 C   0  0  0  0  0  0  0  0  0  0  0  0
  188.0740  173.8850  142.0910 C   0  0  0  0  0  3  0  0  0  0  0  0
  188.9970  175.9360  143.1350 C   0  0  1  0  0  3  0  0  0  0  0  0
  189.4920  177.0940  142.3950 N   0  0  0  0  0  2  0  0  0  0  0  0
  188.1470  172.6660  141.2260 C   0  0  0  0  0  2  0  0  0  0  0  0
  187.5780  176.2100  143.6300 C   0  0  0  0  0  2  0  0  0  0  0  0
  186.9020  177.2360  142.7390 C   0  0  0  0  0  2  0  0  0  0  0  0
  185.7790  177.3350  144.7970 C   0  0  0  0  0  2  0  0  0  0  0  0
  185.4050  178.5110  145.6740 C   0  0  1  0  0  0  0  0  0  0  0  0
  184.0700  178.2640  146.3480 C   0  0  0  0  0  1  0  0  0  0  0  0
  185.8780  179.2160  143.4390 C   0  0  0  0  0  2  0  0  0  0  0  0
  185.7260  177.7700  143.4050 N   0  0  0  0  0  0  0  0  0  0  0  0
  186.3930  178.7220  146.6340 O   0  0  0  0  0  1  0  0  0  0  0  0
  185.3120  179.7010  144.7530 C   0  0  0  0  0  2  0  0  0  0  0  0
  193.5480  176.5280  142.9240 S   0  0  0  0  0  0  0  0  0  0  0  0
  194.1380  174.8000  142.9170 C   0  0  1  0  0  3  0  0  0  0  0  0
  194.9870  174.5600  141.6870 C   0  0  0  0  0  1  0  0  0  0  0  0
  194.8980  174.5480  144.0640 O   0  0  0  0  0  0  0  0  0  0  0  0
  194.0340  173.8850  144.9410 C   0  0  2  0  0  3  0  0  0  0  0  0
  192.1320  175.1210  146.2130 C   0  0  2  0  0  0  0  0  0  0  0  0
  192.8860  174.2300  147.0420 O   0  0  0  0  0  0  0  0  0  0  0  0
  193.6080  174.8390  146.0500 C   0  0  1  0  0  0  0  0  0  0  0  0
  192.1510  176.4930  146.5970 O   0  0  0  0  0  0  0  0  0  0  0  0
  191.2600  175.7040  147.2850 C   0  0  1  0  0  3  0  0  0  0  0  0
  194.5510  175.7350  146.5730 O   0  0  0  0  0  1  0  0  0  0  0  0
  188.9170  174.8900  147.3070 C   0  0  0  0  0  1  0  0  0  0  0  0
  189.4200  177.2020  147.1030 O   0  0  0  0  0  1  0  0  0  0  0  0
  189.8620  175.9290  146.7410 C   0  0  1  0  0  3  0  0  0  0  0  0
  194.7150  172.6420  145.5000 C   0  0  0  0  0  2  0  0  0  0  0  0
  196.7220  173.3700  146.5610 F   0  0  0  0  0  0  0  0  0  0  0  0
  196.2250  172.7730  145.4170 C   0  0  0  0  0  2  0  0  0  0  0  0
  1 27  1  6  0  0  0
  2  8  1  1  0  0  0
  2 10  1  0  0  0  0
  2  7  1  0  0  0  0
  4 15  1  0  0  0  0
  5  1  1  0  0  0  0
  5  3  1  1  0  0  0
  6 10  1  1  0  0  0
  6  9  1  0  0  0  0
  6 17  1  0  0  0  0
  7 11  1  0  0  0  0
  9 11  1  1  0  0  0
  9 13  1  0  0  0  0
 12  1  1  0  0  0  0
 13 12  2  0  0  0  0
 13  4  1  0  0  0  0
 14  4  2  0  0  0  0
 15 18  1  6  0  0  0
 16  5  1  0  0  0  0
 16 15  1  0  0  0  0
 17 14  1  0  0  0  0
 19 24  1  0  0  0  0
 19 18  1  0  0  0  0
 20 21  1  0  0  0  0
 21 22  1  1  0  0  0
 21 25  1  0  0  0  0
 23 26  1  0  0  0  0
 24 23  1  0  0  0  0
 24 20  1  0  0  0  0
 26 21  1  0  0  0  0
 28 29  1  6  0  0  0
 28 27  1  0  0  0  0
 28 30  1  0  0  0  0
 30 31  1  0  0  0  0
 31 41  1  1  0  0  0
 31 34  1  0  0  0  0
 32 35  1  1  0  0  0
 32 33  1  0  0  0  0
 32 36  1  0  0  0  0
 34 32  1  0  0  0  0
 34 37  1  1  0  0  0
 34 33  1  0  0  0  0
 35 36  1  0  0  0  0
 36 40  1  6  0  0  0
 40 39  1  0  0  0  0
 40 38  1  1  0  0  0
 43 41  1  0  0  0  0
 43 42  1  0  0  0  0
M  END
>  <MODEL>
2

>  <REMARK>
 VINA RESULT:      -6.9      2.676      7.268
  Name = 
  11 active torsions:
  status: ('A' for Active; 'I' for Inactive)
    1  A    between atoms: C_1  and  C_34
    2  A    between atoms: C_1  and  C_35
    3  A    between atoms: C_2  and  S_6
    4  A    between atoms: O_3  and  C_4
    5  A    between atoms: O_3  and  C_12
    6  A    between atoms: C_4  and  C_15
    7  A    between atoms: C_4  and  C_22
    8  A    between atoms: S_6  and  C_12
    9  A    between atoms: C_15  and  C_42
   10  A    between atoms: C_31  and  C_40
   11  A    between atoms: N_32  and  C_35
                            x       y       z     vdW  Elec       q    Type
                         _______ _______ _______ _____ _____    ______ ____

>  <TORSDO>
F 11

$$$$
=
 OpenBabel11052420483D

 43 48  0  0  1  0  0  0  0  0999 V2000
  191.9070  175.1810  145.6340 C   0  0  1  0  0  3  0  0  0  0  0  0
  191.6350  173.1460  139.4220 C   0  0  1  0  0  3  0  0  0  0  0  0
  190.9940  176.7900  147.3480 C   0  0  0  0  0  1  0  0  0  0  0  0
  189.4960  174.8490  143.7990 C   0  0  0  0  0  0  0  0  0  0  0  0
  191.2810  176.5710  145.8700 C   0  0  2  0  0  3  0  0  0  0  0  0
  189.9770  174.2080  141.0330 C   0  0  1  0  0  3  0  0  0  0  0  0
  192.2950  172.3340  140.5450 C   0  0  0  0  0  2  0  0  0  0  0  0
  191.7610  172.4000  138.1120 C   0  0  0  0  0  1  0  0  0  0  0  0
  191.2040  174.1190  141.9720 C   0  0  2  0  0  3  0  0  0  0  0  0
  190.1640  173.4190  139.7280 C   0  0  0  0  0  2  0  0  0  0  0  0
  191.8020  172.7110  141.9480 C   0  0  0  0  0  2  0  0  0  0  0  0
  191.9600  174.7700  144.1880 C   0  0  0  0  0  3  0  0  0  0  0  0
  190.9070  174.5810  143.3800 C   0  0  0  0  0  0  0  0  0  0  0  0
  188.4900  174.4600  143.0020 C   0  0  0  0  0  3  0  0  0  0  0  0
  189.2110  175.6370  145.0610 C   0  0  1  0  0  3  0  0  0  0  0  0
  190.0670  176.8200  145.0850 N   0  0  0  0  0  2  0  0  0  0  0  0
  188.7260  173.6940  141.7370 C   0  0  0  0  0  2  0  0  0  0  0  0
  187.7510  176.0550  145.2210 C   0  0  0  0  0  2  0  0  0  0  0  0
  187.5410  176.7190  146.5700 C   0  0  0  0  0  2  0  0  0  0  0  0
  186.6850  178.2180  144.9810 C   0  0  0  0  0  2  0  0  0  0  0  0
  185.2610  178.6030  144.6370 C   0  0  1  0  0  0  0  0  0  0  0  0
  185.1860  180.0690  144.2600 C   0  0  0  0  0  1  0  0  0  0  0  0
  185.3850  177.5880  146.7980 C   0  0  0  0  0  2  0  0  0  0  0  0
  186.7450  177.9240  146.4090 N   0  0  0  0  0  0  0  0  0  0  0  0
  184.7960  177.8150  143.5860 O   0  0  0  0  0  1  0  0  0  0  0  0
  184.4510  178.3420  145.8810 C   0  0  0  0  0  2  0  0  0  0  0  0
  193.5750  175.0680  146.3800 S   0  0  0  0  0  0  0  0  0  0  0  0
  194.3790  176.1650  145.1610 C   0  0  1  0  0  3  0  0  0  0  0  0
  194.5780  177.5370  145.7700 C   0  0  0  0  0  1  0  0  0  0  0  0
  195.6190  175.6380  144.7850 O   0  0  0  0  0  0  0  0  0  0  0  0
  195.4020  175.0400  143.5390 C   0  0  2  0  0  3  0  0  0  0  0  0
  194.9520  172.5080  143.9280 C   0  0  2  0  0  0  0  0  0  0  0  0
  195.3790  172.8130  142.5960 O   0  0  0  0  0  0  0  0  0  0  0  0
  195.9240  173.6090  143.5680 C   0  0  1  0  0  0  0  0  0  0  0  0
  195.7940  171.6220  144.6620 O   0  0  0  0  0  0  0  0  0  0  0  0
  194.9200  171.0150  143.7920 C   0  0  1  0  0  3  0  0  0  0  0  0
  197.3030  173.3910  143.6990 O   0  0  0  0  0  1  0  0  0  0  0  0
  192.8800  169.6090  143.6540 C   0  0  0  0  0  1  0  0  0  0  0  0
  194.2070  169.6720  145.6230 O   0  0  0  0  0  1  0  0  0  0  0  0
  193.7420  170.4560  144.5680 C   0  0  1  0  0  3  0  0  0  0  0  0
  196.0740  175.8610  142.4460 C   0  0  0  0  0  2  0  0  0  0  0  0
  194.1090  175.3640  141.1910 F   0  0  0  0  0  0  0  0  0  0  0  0
  195.0510  176.3460  141.4330 C   0  0  0  0  0  2  0  0  0  0  0  0
  1  5  1  0  0  0  0
  1 27  1  6  0  0  0
  2  8  1  6  0  0  0
  2 10  1  0  0  0  0
  2  7  1  0  0  0  0
  4 15  1  0  0  0  0
  5  3  1  1  0  0  0
  6 10  1  6  0  0  0
  6 17  1  0  0  0  0
  6  9  1  0  0  0  0
  7 11  1  0  0  0  0
  9 11  1  1  0  0  0
  9 13  1  0  0  0  0
 12  1  1  0  0  0  0
 13  4  1  0  0  0  0
 13 12  2  0  0  0  0
 14  4  2  0  0  0  0
 15 16  1  0  0  0  0
 15 18  1  6  0  0  0
 16  5  1  0  0  0  0
 17 14  1  0  0  0  0
 18 19  1  0  0  0  0
 20 24  1  0  0  0  0
 21 22  1  6  0  0  0
 21 20  1  0  0  0  0
 21 26  1  0  0  0  0
 24 19  1  0  0  0  0
 24 23  1  0  0  0  0
 25 21  1  0  0  0  0
 26 23  1  0  0  0  0
 28 29  1  1  0  0  0
 28 27  1  0  0  0  0
 30 28  1  0  0  0  0
 31 41  1  6  0  0  0
 31 34  1  0  0  0  0
 31 30  1  0  0  0  0
 32 33  1  6  0  0  0
 32 35  1  0  0  0  0
 33 34  1  0  0  0  0
 34 37  1  1  0  0  0
 34 32  1  0  0  0  0
 36 32  1  0  0  0  0
 36 40  1  1  0  0  0
 36 35  1  0  0  0  0
 40 38  1  6  0  0  0
 40 39  1  0  0  0  0
 42 43  1  0  0  0  0
 43 41  1  0  0  0  0
M  END
>  <MODEL>
3

>  <REMARK>
 VINA RESULT:      -6.8      2.845      6.899
  Name = 
  11 active torsions:
  status: ('A' for Active; 'I' for Inactive)
    1  A    between atoms: C_1  and  C_34
    2  A    between atoms: C_1  and  C_35
    3  A    between atoms: C_2  and  S_6
    4  A    between atoms: O_3  and  C_4
    5  A    between atoms: O_3  and  C_12
    6  A    between atoms: C_4  and  C_15
    7  A    between atoms: C_4  and  C_22
    8  A    between atoms: S_6  and  C_12
    9  A    between atoms: C_15  and  C_42
   10  A    between atoms: C_31  and  C_40
   11  A    between atoms: N_32  and  C_35
                            x       y       z     vdW  Elec       q    Type
                         _______ _______ _______ _____ _____    ______ ____

>  <TORSDO>
F 11

$$$$
=
 OpenBabel11052420483D

 43 48  0  0  1  0  0  0  0  0999 V2000
  190.3550  175.3760  144.8070 C   0  0  1  0  0  3  0  0  0  0  0  0
  190.9800  171.2420  139.7760 C   0  0  1  0  0  3  0  0  0  0  0  0
  190.1220  177.7850  145.5150 C   0  0  0  0  0  1  0  0  0  0  0  0
  189.0400  175.4440  142.0580 C   0  0  0  0  0  0  0  0  0  0  0  0
  190.6840  176.8430  144.4620 C   0  0  2  0  0  3  0  0  0  0  0  0
  189.9110  173.5280  140.0920 C   0  0  1  0  0  3  0  0  0  0  0  0
  190.5780  170.7930  141.1870 C   0  0  0  0  0  2  0  0  0  0  0  0
  191.0470  170.0390  138.8590 C   0  0  0  0  0  1  0  0  0  0  0  0
  190.4200  173.2980  141.5350 C   0  0  2  0  0  3  0  0  0  0  0  0
  189.9940  172.2680  139.2190 C   0  0  0  0  0  2  0  0  0  0  0  0
  189.9900  171.9210  142.0450 C   0  0  0  0  0  2  0  0  0  0  0  0
  190.6220  174.4090  143.6870 C   0  0  0  0  0  3  0  0  0  0  0  0
  190.0230  174.4010  142.4880 C   0  0  0  0  0  0  0  0  0  0  0  0
  188.3480  175.2650  140.9230 C   0  0  0  0  0  3  0  0  0  0  0  0
  188.9000  176.7310  142.8440 C   0  0  1  0  0  3  0  0  0  0  0  0
  190.2320  177.2600  143.1300 N   0  0  0  0  0  2  0  0  0  0  0  0
  188.4670  174.0160  140.1060 C   0  0  0  0  0  2  0  0  0  0  0  0
  188.0610  177.8010  142.1490 C   0  0  0  0  0  2  0  0  0  0  0  0
  186.6740  177.8610  142.7630 C   0  0  0  0  0  2  0  0  0  0  0  0
  186.0710  178.9930  144.7270 C   0  0  0  0  0  2  0  0  0  0  0  0
  185.2350  178.5580  145.9130 C   0  0  1  0  0  0  0  0  0  0  0  0
  185.7830  179.1550  147.1930 C   0  0  0  0  0  1  0  0  0  0  0  0
  186.0010  176.6730  144.6580 C   0  0  0  0  0  2  0  0  0  0  0  0
  186.7730  177.8220  144.2120 N   0  0  0  0  0  0  0  0  0  0  0  0
  183.9110  178.9520  145.7310 O   0  0  0  0  0  1  0  0  0  0  0  0
  185.3290  177.0550  145.9560 C   0  0  0  0  0  2  0  0  0  0  0  0
  191.2290  174.8390  146.3230 S   0  0  0  0  0  0  0  0  0  0  0  0
  192.8570  174.6410  145.5180 C   0  0  1  0  0  3  0  0  0  0  0  0
  193.8610  175.5660  146.1740 C   0  0  0  0  0  1  0  0  0  0  0  0
  193.2940  173.3180  145.6390 O   0  0  0  0  0  0  0  0  0  0  0  0
  194.5630  173.2950  145.0500 C   0  0  2  0  0  3  0  0  0  0  0  0
  195.0620  174.0540  142.6140 C   0  0  2  0  0  0  0  0  0  0  0  0
  195.6090  172.7710  142.9340 O   0  0  0  0  0  0  0  0  0  0  0  0
  194.4210  173.0570  143.5520 C   0  0  1  0  0  0  0  0  0  0  0  0
  194.1180  174.0780  141.5460 O   0  0  0  0  0  0  0  0  0  0  0  0
  195.4380  174.0770  141.1620 C   0  0  1  0  0  3  0  0  0  0  0  0
  193.3880  172.2300  143.0910 O   0  0  0  0  0  1  0  0  0  0  0  0
  196.8960  175.4190  139.6690 C   0  0  0  0  0  1  0  0  0  0  0  0
  194.7340  176.1780  140.2950 O   0  0  0  0  0  1  0  0  0  0  0  0
  195.8480  175.4810  140.7620 C   0  0  1  0  0  3  0  0  0  0  0  0
  195.4220  172.2230  145.7110 C   0  0  0  0  0  2  0  0  0  0  0  0
  196.7740  174.1510  146.0810 F   0  0  0  0  0  0  0  0  0  0  0  0
  196.7980  172.7690  146.0480 C   0  0  0  0  0  2  0  0  0  0  0  0
  1 27  1  1  0  0  0
  2  8  1  6  0  0  0
  2  7  1  0  0  0  0
  4 13  1  0  0  0  0
  4 15  1  0  0  0  0
  5  1  1  0  0  0  0
  5  3  1  1  0  0  0
  6 10  1  6  0  0  0
  6 17  1  0  0  0  0
  6  9  1  0  0  0  0
  7 11  1  0  0  0  0
  9 11  1  1  0  0  0
  9 13  1  0  0  0  0
 10  2  1  0  0  0  0
 12  1  1  0  0  0  0
 13 12  2  0  0  0  0
 14  4  2  0  0  0  0
 15 18  1  6  0  0  0
 15 16  1  0  0  0  0
 16  5  1  0  0  0  0
 17 14  1  0  0  0  0
 18 19  1  0  0  0  0
 19 24  1  0  0  0  0
 20 21  1  0  0  0  0
 21 26  1  0  0  0  0
 21 22  1  1  0  0  0
 23 26  1  0  0  0  0
 24 23  1  0  0  0  0
 24 20  1  0  0  0  0
 25 21  1  0  0  0  0
 28 30  1  0  0  0  0
 28 29  1  1  0  0  0
 28 27  1  0  0  0  0
 31 30  1  0  0  0  0
 31 41  1  1  0  0  0
 32 35  1  6  0  0  0
 32 33  1  0  0  0  0
 32 34  1  0  0  0  0
 33 34  1  0  0  0  0
 34 37  1  6  0  0  0
 34 31  1  0  0  0  0
 36 40  1  1  0  0  0
 36 35  1  0  0  0  0
 36 32  1  0  0  0  0
 39 40  1  0  0  0  0
 40 38  1  6  0  0  0
 41 43  1  0  0  0  0
 43 42  1  0  0  0  0
M  END
>  <MODEL>
4

>  <REMARK>
 VINA RESULT:      -6.8      2.959      6.930
  Name = 
  11 active torsions:
  status: ('A' for Active; 'I' for Inactive)
    1  A    between atoms: C_1  and  C_34
    2  A    between atoms: C_1  and  C_35
    3  A    between atoms: C_2  and  S_6
    4  A    between atoms: O_3  and  C_4
    5  A    between atoms: O_3  and  C_12
    6  A    between atoms: C_4  and  C_15
    7  A    between atoms: C_4  and  C_22
    8  A    between atoms: S_6  and  C_12
    9  A    between atoms: C_15  and  C_42
   10  A    between atoms: C_31  and  C_40
   11  A    between atoms: N_32  and  C_35
                            x       y       z     vdW  Elec       q    Type
                         _______ _______ _______ _____ _____    ______ ____

>  <TORSDO>
F 11

$$$$
=
 OpenBabel11052420483D

 43 48  0  0  1  0  0  0  0  0999 V2000
  190.0390  173.7260  143.2410 C   0  0  1  0  0  3  0  0  0  0  0  0
  185.2780  177.9250  144.8220 C   0  0  1  0  0  3  0  0  0  0  0  0
  190.7600  171.8710  141.6930 C   0  0  0  0  0  1  0  0  0  0  0  0
  188.1500  175.2950  141.4360 C   0  0  0  0  0  0  0  0  0  0  0  0
  189.5730  172.5460  142.3630 C   0  0  2  0  0  3  0  0  0  0  0  0
  186.0150  176.7800  142.6740 C   0  0  1  0  0  3  0  0  0  0  0  0
  186.7250  178.0730  145.3100 C   0  0  0  0  0  2  0  0  0  0  0  0
  184.4340  179.0490  145.3810 C   0  0  0  0  0  1  0  0  0  0  0  0
  187.0880  176.2100  143.6320 C   0  0  2  0  0  3  0  0  0  0  0  0
  185.2040  177.9260  143.2960 C   0  0  0  0  0  2  0  0  0  0  0  0
  187.7460  177.3340  144.4350 C   0  0  0  0  0  2  0  0  0  0  0  0
  188.9230  174.6180  143.7100 C   0  0  0  0  0  3  0  0  0  0  0  0
  188.1100  175.3460  142.9310 C   0  0  0  0  0  0  0  0  0  0  0  0
  187.4370  176.1860  140.7310 C   0  0  0  0  0  3  0  0  0  0  0  0
  188.9080  174.1900  140.7290 C   0  0  1  0  0  3  0  0  0  0  0  0
  188.5730  172.9120  141.3530 N   0  0  0  0  0  2  0  0  0  0  0  0
  186.6600  177.2840  141.3870 C   0  0  0  0  0  2  0  0  0  0  0  0
  188.6450  174.1130  139.2270 C   0  0  0  0  0  2  0  0  0  0  0  0
  189.9300  173.7920  138.4860 C   0  0  0  0  0  2  0  0  0  0  0  0
  190.9730  172.4100  136.9030 C   0  0  0  0  0  2  0  0  0  0  0  0
  191.0750  170.9020  136.8080 C   0  0  1  0  0  0  0  0  0  0  0  0
  191.0340  170.4590  135.3590 C   0  0  0  0  0  1  0  0  0  0  0  0
  189.2890  171.5580  138.2550 C   0  0  0  0  0  2  0  0  0  0  0  0
  189.6890  172.7420  137.5110 N   0  0  0  0  0  0  0  0  0  0  0  0
  192.2560  170.4660  137.4060 O   0  0  0  0  0  1  0  0  0  0  0  0
  189.8840  170.3590  137.5540 C   0  0  0  0  0  2  0  0  0  0  0  0
  191.0190  173.1400  144.6730 S   0  0  0  0  0  0  0  0  0  0  0  0
  191.3550  174.8070  145.3390 C   0  0  1  0  0  3  0  0  0  0  0  0
  190.7090  174.9470  146.7010 C   0  0  0  0  0  1  0  0  0  0  0  0
  192.7340  175.0080  145.4560 O   0  0  0  0  0  0  0  0  0  0  0  0
  193.0770  175.8400  144.3840 C   0  0  2  0  0  3  0  0  0  0  0  0
  193.7760  175.0040  142.0230 C   0  0  2  0  0  0  0  0  0  0  0  0
  194.6860  175.9580  142.5830 O   0  0  0  0  0  0  0  0  0  0  0  0
  194.0920  175.1300  143.4970 C   0  0  1  0  0  0  0  0  0  0  0  0
  194.3250  173.7220  141.7300 O   0  0  0  0  0  0  0  0  0  0  0  0
  194.5540  174.6890  140.7810 C   0  0  1  0  0  3  0  0  0  0  0  0
  195.0210  174.2620  144.0870 O   0  0  0  0  0  1  0  0  0  0  0  0
  194.1870  175.1050  138.3630 C   0  0  0  0  0  1  0  0  0  0  0  0
  193.3940  173.1270  139.4100 O   0  0  0  0  0  1  0  0  0  0  0  0
  193.6010  174.4900  139.6170 C   0  0  1  0  0  3  0  0  0  0  0  0
  193.6200  177.1640  144.9090 C   0  0  0  0  0  2  0  0  0  0  0  0
  193.9560  177.2740  147.2660 F   0  0  0  0  0  0  0  0  0  0  0  0
  194.5660  176.9340  146.0730 C   0  0  0  0  0  2  0  0  0  0  0  0
  1 12  1  0  0  0  0
  1 27  1  1  0  0  0
  2  7  1  0  0  0  0
  2  8  1  1  0  0  0
  4 13  1  0  0  0  0
  5  3  1  6  0  0  0
  5  1  1  0  0  0  0
  6 17  1  6  0  0  0
  6 10  1  0  0  0  0
  6  9  1  0  0  0  0
  9 11  1  6  0  0  0
 10  2  1  0  0  0  0
 11  7  1  0  0  0  0
 13  9  1  0  0  0  0
 13 12  2  0  0  0  0
 14 17  1  0  0  0  0
 14  4  2  0  0  0  0
 15 18  1  6  0  0  0
 15 16  1  0  0  0  0
 15  4  1  0  0  0  0
 16  5  1  0  0  0  0
 19 18  1  0  0  0  0
 20 24  1  0  0  0  0
 21 22  1  6  0  0  0
 21 20  1  0  0  0  0
 21 25  1  0  0  0  0
 21 26  1  0  0  0  0
 24 23  1  0  0  0  0
 24 19  1  0  0  0  0
 26 23  1  0  0  0  0
 27 28  1  0  0  0  0
 28 30  1  0  0  0  0
 28 29  1  1  0  0  0
 31 41  1  1  0  0  0
 31 30  1  0  0  0  0
 32 35  1  1  0  0  0
 32 33  1  0  0  0  0
 32 34  1  0  0  0  0
 33 34  1  0  0  0  0
 34 37  1  1  0  0  0
 34 31  1  0  0  0  0
 36 40  1  6  0  0  0
 36 35  1  0  0  0  0
 36 32  1  0  0  0  0
 39 40  1  0  0  0  0
 40 38  1  6  0  0  0
 41 43  1  0  0  0  0
 43 42  1  0  0  0  0
M  END
>  <MODEL>
5

>  <REMARK>
 VINA RESULT:      -6.7      1.877      2.656
  Name = 
  11 active torsions:
  status: ('A' for Active; 'I' for Inactive)
    1  A    between atoms: C_1  and  C_34
    2  A    between atoms: C_1  and  C_35
    3  A    between atoms: C_2  and  S_6
    4  A    between atoms: O_3  and  C_4
    5  A    between atoms: O_3  and  C_12
    6  A    between atoms: C_4  and  C_15
    7  A    between atoms: C_4  and  C_22
    8  A    between atoms: S_6  and  C_12
    9  A    between atoms: C_15  and  C_42
   10  A    between atoms: C_31  and  C_40
   11  A    between atoms: N_32  and  C_35
                            x       y       z     vdW  Elec       q    Type
                         _______ _______ _______ _____ _____    ______ ____

>  <TORSDO>
F 11

$$$$
=
 OpenBabel11052420483D

 43 48  0  0  1  0  0  0  0  0999 V2000
  190.0560  173.7520  143.2620 C   0  0  1  0  0  3  0  0  0  0  0  0
  185.3860  177.9310  145.1410 C   0  0  1  0  0  3  0  0  0  0  0  0
  190.7140  171.9530  141.6220 C   0  0  0  0  0  1  0  0  0  0  0  0
  188.1350  175.4100  141.5740 C   0  0  0  0  0  0  0  0  0  0  0  0
  189.5540  172.6130  142.3510 C   0  0  2  0  0  3  0  0  0  0  0  0
  186.0520  176.8660  142.9290 C   0  0  1  0  0  3  0  0  0  0  0  0
  186.8480  178.0450  145.5940 C   0  0  0  0  0  2  0  0  0  0  0  0
  184.5710  179.0410  145.7680 C   0  0  0  0  0  1  0  0  0  0  0  0
  187.1450  176.2470  143.8330 C   0  0  2  0  0  3  0  0  0  0  0  0
  185.2710  177.9940  143.6190 C   0  0  0  0  0  2  0  0  0  0  0  0
  187.8370  177.3320  144.6620 C   0  0  0  0  0  2  0  0  0  0  0  0
  188.9630  174.6360  143.7980 C   0  0  0  0  0  3  0  0  0  0  0  0
  188.1380  175.4020  143.0710 C   0  0  0  0  0  0  0  0  0  0  0  0
  187.4130  176.3360  140.9250 C   0  0  0  0  0  3  0  0  0  0  0  0
  188.8610  174.3270  140.8030 C   0  0  1  0  0  3  0  0  0  0  0  0
  188.5300  173.0280  141.3850 N   0  0  0  0  0  2  0  0  0  0  0  0
  186.6670  177.4150  141.6460 C   0  0  0  0  0  2  0  0  0  0  0  0
  188.5560  174.3130  139.3070 C   0  0  0  0  0  2  0  0  0  0  0  0
  188.2830  172.8940  138.8420 C   0  0  0  0  0  2  0  0  0  0  0  0
  189.7630  173.8340  137.2840 C   0  0  0  0  0  2  0  0  0  0  0  0
  191.1590  173.4270  136.8620 C   0  0  1  0  0  0  0  0  0  0  0  0
  191.3650  173.6980  135.3850 C   0  0  0  0  0  1  0  0  0  0  0  0
  190.0200  171.6210  137.9370 C   0  0  0  0  0  2  0  0  0  0  0  0
  189.0180  172.6250  137.6180 N   0  0  0  0  0  0  0  0  0  0  0  0
  192.1050  174.1240  137.6110 O   0  0  0  0  0  1  0  0  0  0  0  0
  191.2610  171.9490  137.1400 C   0  0  0  0  0  2  0  0  0  0  0  0
  191.0690  173.1010  144.6410 S   0  0  0  0  0  0  0  0  0  0  0  0
  192.4290  174.3020  144.4340 C   0  0  1  0  0  3  0  0  0  0  0  0
  193.5820  173.9220  145.3380 C   0  0  0  0  0  1  0  0  0  0  0  0
  192.8630  174.3100  143.1040 O   0  0  0  0  0  0  0  0  0  0  0  0
  192.9920  175.6620  142.7670 C   0  0  2  0  0  3  0  0  0  0  0  0
  195.2550  175.4500  141.5030 C   0  0  2  0  0  0  0  0  0  0  0  0
  194.7660  176.7930  141.5740 O   0  0  0  0  0  0  0  0  0  0  0  0
  194.4700  176.0180  142.6640 C   0  0  1  0  0  0  0  0  0  0  0  0
  196.5230  175.2180  142.1110 O   0  0  0  0  0  0  0  0  0  0  0  0
  196.5680  175.7490  140.8440 C   0  0  1  0  0  3  0  0  0  0  0  0
  195.1440  176.4610  143.8100 O   0  0  0  0  0  1  0  0  0  0  0  0
  197.3530  175.2670  138.5400 C   0  0  0  0  0  1  0  0  0  0  0  0
  197.9240  173.8530  140.3610 O   0  0  0  0  0  1  0  0  0  0  0  0
  196.9030  174.6530  139.8490 C   0  0  1  0  0  3  0  0  0  0  0  0
  192.2780  176.5250  143.8000 C   0  0  0  0  0  2  0  0  0  0  0  0
  190.8970  178.4540  144.0350 F   0  0  0  0  0  0  0  0  0  0  0  0
  191.3550  177.5220  143.1220 C   0  0  0  0  0  2  0  0  0  0  0  0
  1 12  1  0  0  0  0
  1 27  1  1  0  0  0
  2  7  1  0  0  0  0
  2  8  1  1  0  0  0
  4 13  1  0  0  0  0
  5  3  1  6  0  0  0
  5  1  1  0  0  0  0
  6 17  1  6  0  0  0
  6 10  1  0  0  0  0
  6  9  1  0  0  0  0
  9 11  1  6  0  0  0
 10  2  1  0  0  0  0
 11  7  1  0  0  0  0
 13 12  2  0  0  0  0
 13  9  1  0  0  0  0
 14  4  2  0  0  0  0
 14 17  1  0  0  0  0
 15 18  1  6  0  0  0
 15 16  1  0  0  0  0
 15  4  1  0  0  0  0
 16  5  1  0  0  0  0
 19 18  1  0  0  0  0
 20 24  1  0  0  0  0
 21 22  1  6  0  0  0
 21 26  1  0  0  0  0
 21 20  1  0  0  0  0
 21 25  1  0  0  0  0
 24 23  1  0  0  0  0
 24 19  1  0  0  0  0
 26 23  1  0  0  0  0
 28 27  1  0  0  0  0
 28 29  1  1  0  0  0
 30 28  1  0  0  0  0
 31 30  1  0  0  0  0
 31 41  1  1  0  0  0
 32 33  1  1  0  0  0
 32 35  1  0  0  0  0
 32 34  1  0  0  0  0
 33 34  1  0  0  0  0
 34 31  1  0  0  0  0
 34 37  1  1  0  0  0
 36 40  1  6  0  0  0
 36 32  1  0  0  0  0
 36 35  1  0  0  0  0
 40 38  1  6  0  0  0
 40 39  1  0  0  0  0
 43 41  1  0  0  0  0
 43 42  1  0  0  0  0
M  END
>  <MODEL>
6

>  <REMARK>
 VINA RESULT:      -6.6      1.883      2.209
  Name = 
  11 active torsions:
  status: ('A' for Active; 'I' for Inactive)
    1  A    between atoms: C_1  and  C_34
    2  A    between atoms: C_1  and  C_35
    3  A    between atoms: C_2  and  S_6
    4  A    between atoms: O_3  and  C_4
    5  A    between atoms: O_3  and  C_12
    6  A    between atoms: C_4  and  C_15
    7  A    between atoms: C_4  and  C_22
    8  A    between atoms: S_6  and  C_12
    9  A    between atoms: C_15  and  C_42
   10  A    between atoms: C_31  and  C_40
   11  A    between atoms: N_32  and  C_35
                            x       y       z     vdW  Elec       q    Type
                         _______ _______ _______ _____ _____    ______ ____

>  <TORSDO>
F 11

$$$$
=
 OpenBabel11052420483D

 43 48  0  0  1  0  0  0  0  0999 V2000
  190.4890  174.4420  142.0810 C   0  0  1  0  0  3  0  0  0  0  0  0
  196.0690  173.7270  145.4220 C   0  0  1  0  0  3  0  0  0  0  0  0
  188.0270  174.9700  142.2140 C   0  0  0  0  0  1  0  0  0  0  0  0
  191.5600  176.0400  144.4460 C   0  0  0  0  0  0  0  0  0  0  0  0
  189.2200  174.3850  142.9550 C   0  0  2  0  0  3  0  0  0  0  0  0
  193.9500  175.0980  145.7460 C   0  0  1  0  0  3  0  0  0  0  0  0
  196.0180  173.9000  143.8980 C   0  0  0  0  0  2  0  0  0  0  0  0
  197.5060  173.5730  145.8700 C   0  0  0  0  0  1  0  0  0  0  0  0
  193.5890  174.4070  144.4100 C   0  0  2  0  0  3  0  0  0  0  0  0
  195.4250  174.9140  146.1360 C   0  0  0  0  0  2  0  0  0  0  0  0
  194.7260  174.5610  143.3980 C   0  0  0  0  0  2  0  0  0  0  0  0
  191.7610  174.1500  142.8290 C   0  0  0  0  0  3  0  0  0  0  0  0
  192.2660  174.8660  143.8430 C   0  0  0  0  0  0  0  0  0  0  0  0
  192.2100  176.8140  145.3280 C   0  0  0  0  0  3  0  0  0  0  0  0
  190.0990  176.2930  144.1370 C   0  0  1  0  0  3  0  0  0  0  0  0
  189.3630  175.0370  144.2610 N   0  0  0  0  0  2  0  0  0  0  0  0
  193.6490  176.5910  145.6760 C   0  0  0  0  0  2  0  0  0  0  0  0
  189.4490  177.3580  145.0170 C   0  0  0  0  0  2  0  0  0  0  0  0
  188.2180  176.7930  145.7030 C   0  0  0  0  0  2  0  0  0  0  0  0
  186.8150  178.2210  144.4800 C   0  0  0  0  0  2  0  0  0  0  0  0
  185.3060  178.3450  144.4400 C   0  0  1  0  0  0  0  0  0  0  0  0
  184.8990  179.7930  144.2610 C   0  0  0  0  0  1  0  0  0  0  0  0
  186.0280  177.1960  146.4090 C   0  0  0  0  0  2  0  0  0  0  0  0
  187.2040  177.8250  145.8300 N   0  0  0  0  0  0  0  0  0  0  0  0
  184.7930  177.5720  143.4010 O   0  0  0  0  0  1  0  0  0  0  0  0
  184.8140  177.8250  145.7660 C   0  0  0  0  0  2  0  0  0  0  0  0
  190.3460  173.3370  140.6290 S   0  0  0  0  0  0  0  0  0  0  0  0
  191.1250  171.8960  141.4360 C   0  0  1  0  0  3  0  0  0  0  0  0
  190.0630  170.8730  141.7790 C   0  0  0  0  0  1  0  0  0  0  0  0
  192.0690  171.3190  140.5800 O   0  0  0  0  0  0  0  0  0  0  0  0
  193.2950  171.4490  141.2410 C   0  0  2  0  0  3  0  0  0  0  0  0
  195.0630  172.9330  140.0430 C   0  0  2  0  0  0  0  0  0  0  0  0
  195.6350  171.8410  140.7720 O   0  0  0  0  0  0  0  0  0  0  0  0
  194.4120  171.5790  140.2130 C   0  0  1  0  0  0  0  0  0  0  0  0
  195.3180  172.9450  138.6410 O   0  0  0  0  0  0  0  0  0  0  0  0
  196.3290  173.4470  139.4250 C   0  0  1  0  0  3  0  0  0  0  0  0
  194.5070  170.6260  139.1890 O   0  0  0  0  0  1  0  0  0  0  0  0
  197.4480  175.5260  140.1880 C   0  0  0  0  0  1  0  0  0  0  0  0
  196.4060  175.3940  138.0580 O   0  0  0  0  0  1  0  0  0  0  0  0
  196.2970  174.9630  139.3800 C   0  0  1  0  0  3  0  0  0  0  0  0
  193.5160  170.2580  142.1640 C   0  0  0  0  0  2  0  0  0  0  0  0
  192.8760  171.3200  144.2000 F   0  0  0  0  0  0  0  0  0  0  0  0
  193.9370  170.7200  143.5480 C   0  0  0  0  0  2  0  0  0  0  0  0
  1 27  1  6  0  0  0
  1 12  1  0  0  0  0
  1  5  1  0  0  0  0
  2  8  1  1  0  0  0
  2 10  1  0  0  0  0
  4 14  2  0  0  0  0
  5  3  1  6  0  0  0
  5 16  1  0  0  0  0
  6 17  1  6  0  0  0
  6 10  1  0  0  0  0
  7  2  1  0  0  0  0
  9 11  1  6  0  0  0
  9  6  1  0  0  0  0
 11  7  1  0  0  0  0
 12 13  2  0  0  0  0
 13  9  1  0  0  0  0
 13  4  1  0  0  0  0
 14 17  1  0  0  0  0
 15 16  1  0  0  0  0
 15  4  1  0  0  0  0
 15 18  1  1  0  0  0
 18 19  1  0  0  0  0
 19 24  1  0  0  0  0
 20 24  1  0  0  0  0
 21 22  1  6  0  0  0
 21 20  1  0  0  0  0
 21 26  1  0  0  0  0
 24 23  1  0  0  0  0
 25 21  1  0  0  0  0
 26 23  1  0  0  0  0
 27 28  1  0  0  0  0
 28 29  1  6  0  0  0
 30 31  1  0  0  0  0
 30 28  1  0  0  0  0
 31 41  1  6  0  0  0
 32 35  1  6  0  0  0
 32 34  1  0  0  0  0
 32 33  1  0  0  0  0
 34 37  1  6  0  0  0
 34 33  1  0  0  0  0
 34 31  1  0  0  0  0
 35 36  1  0  0  0  0
 36 40  1  6  0  0  0
 36 32  1  0  0  0  0
 39 40  1  0  0  0  0
 40 38  1  1  0  0  0
 41 43  1  0  0  0  0
 43 42  1  0  0  0  0
M  END
>  <MODEL>
7

>  <REMARK>
 VINA RESULT:      -6.5      3.556      7.915
  Name = 
  11 active torsions:
  status: ('A' for Active; 'I' for Inactive)
    1  A    between atoms: C_1  and  C_34
    2  A    between atoms: C_1  and  C_35
    3  A    between atoms: C_2  and  S_6
    4  A    between atoms: O_3  and  C_4
    5  A    between atoms: O_3  and  C_12
    6  A    between atoms: C_4  and  C_15
    7  A    between atoms: C_4  and  C_22
    8  A    between atoms: S_6  and  C_12
    9  A    between atoms: C_15  and  C_42
   10  A    between atoms: C_31  and  C_40
   11  A    between atoms: N_32  and  C_35
                            x       y       z     vdW  Elec       q    Type
                         _______ _______ _______ _____ _____    ______ ____

>  <TORSDO>
F 11

$$$$
=
 OpenBabel11052420483D

 43 48  0  0  1  0  0  0  0  0999 V2000
  191.2200  174.3740  144.5480 C   0  0  1  0  0  3  0  0  0  0  0  0
  185.8180  177.4440  146.5960 C   0  0  1  0  0  3  0  0  0  0  0  0
  192.1740  172.6500  142.9740 C   0  0  0  0  0  1  0  0  0  0  0  0
  188.8180  175.3590  142.9510 C   0  0  0  0  0  0  0  0  0  0  0  0
  190.9470  173.0710  143.7690 C   0  0  2  0  0  3  0  0  0  0  0  0
  186.5510  176.3800  144.4050 C   0  0  1  0  0  3  0  0  0  0  0  0
  187.2360  177.9500  146.8930 C   0  0  0  0  0  2  0  0  0  0  0  0
  184.8030  178.3740  147.2240 C   0  0  0  0  0  1  0  0  0  0  0  0
  187.8320  176.1290  145.2360 C   0  0  2  0  0  3  0  0  0  0  0  0
  185.5700  177.3420  145.0920 C   0  0  0  0  0  2  0  0  0  0  0  0
  188.2950  177.4180  145.9180 C   0  0  0  0  0  2  0  0  0  0  0  0
  189.9870  175.0100  145.1280 C   0  0  0  0  0  3  0  0  0  0  0  0
  188.9410  175.4850  144.4370 C   0  0  0  0  0  0  0  0  0  0  0  0
  187.8390  176.0200  142.3160 C   0  0  0  0  0  3  0  0  0  0  0  0
  189.7280  174.4210  142.1860 C   0  0  1  0  0  3  0  0  0  0  0  0
  189.7790  173.1380  142.8830 N   0  0  0  0  0  2  0  0  0  0  0  0
  186.9060  176.9450  143.0330 C   0  0  0  0  0  2  0  0  0  0  0  0
  189.3190  174.2000  140.7320 C   0  0  0  0  0  2  0  0  0  0  0  0
  188.5990  172.8700  140.5860 C   0  0  0  0  0  2  0  0  0  0  0  0
  188.5540  172.8270  138.2410 C   0  0  0  0  0  2  0  0  0  0  0  0
  189.6630  172.9620  137.2190 C   0  0  1  0  0  0  0  0  0  0  0  0
  189.3880  172.0760  136.0200 C   0  0  0  0  0  1  0  0  0  0  0  0
  190.5350  172.3910  139.3700 C   0  0  0  0  0  2  0  0  0  0  0  0
  189.1000  172.1630  139.4200 N   0  0  0  0  0  0  0  0  0  0  0  0
  189.7790  174.2900  136.8140 O   0  0  0  0  0  1  0  0  0  0  0  0
  190.9240  172.5200  137.9160 C   0  0  0  0  0  2  0  0  0  0  0  0
  192.4690  174.1140  145.8600 S   0  0  0  0  0  0  0  0  0  0  0  0
  193.3070  175.7180  145.6170 C   0  0  1  0  0  3  0  0  0  0  0  0
  193.0590  176.6060  146.8180 C   0  0  0  0  0  1  0  0  0  0  0  0
  194.6830  175.5220  145.4580 O   0  0  0  0  0  0  0  0  0  0  0  0
  194.8300  174.9600  144.1850 C   0  0  2  0  0  3  0  0  0  0  0  0
  196.1400  172.7210  144.3680 C   0  0  2  0  0  0  0  0  0  0  0  0
  196.2210  173.3240  143.0730 O   0  0  0  0  0  0  0  0  0  0  0  0
  196.1550  174.2110  144.1140 C   0  0  1  0  0  0  0  0  0  0  0  0
  197.3790  172.5420  145.0480 O   0  0  0  0  0  0  0  0  0  0  0  0
  197.0770  171.5780  144.1170 C   0  0  1  0  0  3  0  0  0  0  0  0
  197.3500  174.9300  144.2550 O   0  0  0  0  0  1  0  0  0  0  0  0
  196.2980  169.2420  143.8100 C   0  0  0  0  0  1  0  0  0  0  0  0
  197.5260  169.8920  145.7360 O   0  0  0  0  0  1  0  0  0  0  0  0
  196.5690  170.3350  144.8230 C   0  0  1  0  0  3  0  0  0  0  0  0
  194.7430  176.0500  143.1240 C   0  0  0  0  0  2  0  0  0  0  0  0
  192.5340  176.2490  142.2500 F   0  0  0  0  0  0  0  0  0  0  0  0
  193.7650  175.6590  142.0300 C   0  0  0  0  0  2  0  0  0  0  0  0
  1 12  1  0  0  0  0
  1 27  1  1  0  0  0
  2  7  1  0  0  0  0
  2  8  1  6  0  0  0
  4 13  1  0  0  0  0
  5  3  1  6  0  0  0
  5  1  1  0  0  0  0
  6 17  1  6  0  0  0
  6 10  1  0  0  0  0
  6  9  1  0  0  0  0
  9 11  1  6  0  0  0
 10  2  1  0  0  0  0
 11  7  1  0  0  0  0
 13 12  2  0  0  0  0
 13  9  1  0  0  0  0
 14  4  2  0  0  0  0
 14 17  1  0  0  0  0
 15 18  1  6  0  0  0
 15 16  1  0  0  0  0
 15  4  1  0  0  0  0
 16  5  1  0  0  0  0
 19 18  1  0  0  0  0
 20 24  1  0  0  0  0
 21 22  1  6  0  0  0
 21 26  1  0  0  0  0
 21 20  1  0  0  0  0
 23 24  1  0  0  0  0
 24 19  1  0  0  0  0
 25 21  1  0  0  0  0
 26 23  1  0  0  0  0
 28 27  1  0  0  0  0
 28 29  1  1  0  0  0
 30 28  1  0  0  0  0
 31 41  1  6  0  0  0
 31 30  1  0  0  0  0
 32 33  1  6  0  0  0
 32 35  1  0  0  0  0
 33 34  1  0  0  0  0
 34 31  1  0  0  0  0
 34 37  1  1  0  0  0
 34 32  1  0  0  0  0
 36 32  1  0  0  0  0
 36 40  1  1  0  0  0
 36 35  1  0  0  0  0
 40 38  1  6  0  0  0
 40 39  1  0  0  0  0
 43 42  1  0  0  0  0
 43 41  1  0  0  0  0
M  END
>  <MODEL>
8

>  <REMARK>
 VINA RESULT:      -6.4      1.856      2.602
  Name = 
  11 active torsions:
  status: ('A' for Active; 'I' for Inactive)
    1  A    between atoms: C_1  and  C_34
    2  A    between atoms: C_1  and  C_35
    3  A    between atoms: C_2  and  S_6
    4  A    between atoms: O_3  and  C_4
    5  A    between atoms: O_3  and  C_12
    6  A    between atoms: C_4  and  C_15
    7  A    between atoms: C_4  and  C_22
    8  A    between atoms: S_6  and  C_12
    9  A    between atoms: C_15  and  C_42
   10  A    between atoms: C_31  and  C_40
   11  A    between atoms: N_32  and  C_35
                            x       y       z     vdW  Elec       q    Type
                         _______ _______ _______ _____ _____    ______ ____

>  <TORSDO>
F 11

$$$$
=
 OpenBabel11052420483D

 43 48  0  0  1  0  0  0  0  0999 V2000
  191.3800  175.7550  143.5170 C   0  0  1  0  0  3  0  0  0  0  0  0
  190.8950  171.7330  138.3800 C   0  0  1  0  0  3  0  0  0  0  0  0
  190.3910  177.7400  144.7180 C   0  0  0  0  0  1  0  0  0  0  0  0
  188.8990  174.5700  142.2010 C   0  0  0  0  0  0  0  0  0  0  0  0
  190.5850  177.0680  143.3670 C   0  0  2  0  0  3  0  0  0  0  0  0
  189.2400  173.0910  139.7530 C   0  0  1  0  0  3  0  0  0  0  0  0
  191.7530  171.4210  139.6140 C   0  0  0  0  0  2  0  0  0  0  0  0
  191.0180  170.6070  137.3760 C   0  0  0  0  0  1  0  0  0  0  0  0
  190.5390  173.4550  140.5120 C   0  0  2  0  0  3  0  0  0  0  0  0
  189.4290  171.9340  138.7610 C   0  0  0  0  0  2  0  0  0  0  0  0
  191.3260  172.1930  140.8690 C   0  0  0  0  0  2  0  0  0  0  0  0
  191.3730  174.8900  142.2870 C   0  0  0  0  0  3  0  0  0  0  0  0
  190.2960  174.3290  141.7200 C   0  0  0  0  0  0  0  0  0  0  0  0
  187.8970  173.8310  141.7030 C   0  0  0  0  0  3  0  0  0  0  0  0
  188.6090  175.7010  143.1660 C   0  0  1  0  0  3  0  0  0  0  0  0
  189.2880  176.9080  142.7000 N   0  0  0  0  0  2  0  0  0  0  0  0
  188.1350  172.7140  140.7350 C   0  0  0  0  0  2  0  0  0  0  0  0
  187.1220  175.9910  143.3610 C   0  0  0  0  0  2  0  0  0  0  0  0
  186.6990  177.1640  142.4970 C   0  0  0  0  0  2  0  0  0  0  0  0
  185.5650  177.4410  144.5310 C   0  0  0  0  0  2  0  0  0  0  0  0
  185.3860  178.6560  145.4170 C   0  0  1  0  0  0  0  0  0  0  0  0
  184.0140  178.6450  146.0600 C   0  0  0  0  0  1  0  0  0  0  0  0
  186.0290  179.2880  143.2030 C   0  0  0  0  0  2  0  0  0  0  0  0
  185.6220  177.8930  143.1450 N   0  0  0  0  0  0  0  0  0  0  0  0
  186.3740  178.6780  146.4000 O   0  0  0  0  0  1  0  0  0  0  0  0
  185.5290  179.8530  144.5120 C   0  0  0  0  0  2  0  0  0  0  0  0
  193.1020  176.0790  144.0470 S   0  0  0  0  0  0  0  0  0  0  0  0
  193.1490  174.7460  145.2940 C   0  0  1  0  0  3  0  0  0  0  0  0
  191.7900  174.6190  145.9500 C   0  0  0  0  0  1  0  0  0  0  0  0
  193.4880  173.5320  144.6860 O   0  0  0  0  0  0  0  0  0  0  0  0
  194.8220  173.6780  144.2920 C   0  0  2  0  0  3  0  0  0  0  0  0
  195.4080  173.9960  141.7780 C   0  0  2  0  0  0  0  0  0  0  0  0
  196.3040  173.1160  142.4650 O   0  0  0  0  0  0  0  0  0  0  0  0
  195.0090  173.0720  142.9060 C   0  0  1  0  0  0  0  0  0  0  0  0
  194.6940  173.4260  140.6850 O   0  0  0  0  0  0  0  0  0  0  0  0
  195.9780  173.8280  140.4010 C   0  0  1  0  0  3  0  0  0  0  0  0
  194.4070  171.8390  142.6170 O   0  0  0  0  0  1  0  0  0  0  0  0
  197.0420  175.1990  138.6280 C   0  0  0  0  0  1  0  0  0  0  0  0
  194.7050  175.3060  139.0370 O   0  0  0  0  0  1  0  0  0  0  0  0
  195.9400  175.1550  139.6670 C   0  0  1  0  0  3  0  0  0  0  0  0
  195.7410  173.0250  145.3180 C   0  0  0  0  0  2  0  0  0  0  0  0
  196.7220  175.1830  145.0650 F   0  0  0  0  0  0  0  0  0  0  0  0
  196.8630  173.9690  145.7110 C   0  0  0  0  0  2  0  0  0  0  0  0
  1 27  1  6  0  0  0
  2  8  1  6  0  0  0
  2 10  1  0  0  0  0
  2  7  1  0  0  0  0
  4 15  1  0  0  0  0
  5  1  1  0  0  0  0
  5  3  1  1  0  0  0
  6 10  1  6  0  0  0
  6  9  1  0  0  0  0
  6 17  1  0  0  0  0
  7 11  1  0  0  0  0
  9 11  1  1  0  0  0
  9 13  1  0  0  0  0
 12  1  1  0  0  0  0
 13  4  1  0  0  0  0
 13 12  2  0  0  0  0
 14  4  2  0  0  0  0
 15 18  1  6  0  0  0
 16 15  1  0  0  0  0
 16  5  1  0  0  0  0
 17 14  1  0  0  0  0
 19 24  1  0  0  0  0
 19 18  1  0  0  0  0
 20 21  1  0  0  0  0
 21 22  1  1  0  0  0
 21 25  1  0  0  0  0
 23 26  1  0  0  0  0
 24 23  1  0  0  0  0
 24 20  1  0  0  0  0
 26 21  1  0  0  0  0
 27 28  1  0  0  0  0
 28 29  1  6  0  0  0
 30 28  1  0  0  0  0
 31 30  1  0  0  0  0
 31 41  1  1  0  0  0
 32 35  1  6  0  0  0
 32 33  1  0  0  0  0
 32 34  1  0  0  0  0
 33 34  1  0  0  0  0
 34 37  1  6  0  0  0
 34 31  1  0  0  0  0
 36 40  1  6  0  0  0
 36 35  1  0  0  0  0
 36 32  1  0  0  0  0
 39 40  1  0  0  0  0
 40 38  1  6  0  0  0
 41 43  1  0  0  0  0
 42 43  1  0  0  0  0
M  END
>  <MODEL>
9

>  <REMARK>
 VINA RESULT:      -6.4      2.807      7.016
  Name = 
  11 active torsions:
  status: ('A' for Active; 'I' for Inactive)
    1  A    between atoms: C_1  and  C_34
    2  A    between atoms: C_1  and  C_35
    3  A    between atoms: C_2  and  S_6
    4  A    between atoms: O_3  and  C_4
    5  A    between atoms: O_3  and  C_12
    6  A    between atoms: C_4  and  C_15
    7  A    between atoms: C_4  and  C_22
    8  A    between atoms: S_6  and  C_12
    9  A    between atoms: C_15  and  C_42
   10  A    between atoms: C_31  and  C_40
   11  A    between atoms: N_32  and  C_35
                            x       y       z     vdW  Elec       q    Type
                         _______ _______ _______ _____ _____    ______ ____

>  <TORSDO>
F 11

$$$$
