=
 OpenBabel11052417423D

 31 35  0  0  1  0  0  0  0  0999 V2000
  186.3000  178.0580  147.3240 C   0  0  0  0  0  0  0  0  0  0  0  0
  188.8590  177.2250  144.6840 C   0  0  0  0  0  0  0  0  0  0  0  0
  189.9910  176.6640  145.3260 C   0  0  0  0  0  0  0  0  0  0  0  0
  190.6080  176.5110  147.7150 C   0  0  0  0  0  3  0  0  0  0  0  0
  187.4720  177.1940  145.3100 C   0  0  1  0  0  3  0  0  0  0  0  0
  185.0230  178.2610  146.5360 C   0  0  0  0  0  2  0  0  0  0  0  0
  189.8370  175.8910  146.5990 C   0  0  0  0  0  2  0  0  0  0  0  0
  187.8080  178.2380  142.5950 C   0  0  1  0  0  3  0  0  0  0  0  0
  186.3150  178.3880  148.6720 O   0  0  0  0  0  1  0  0  0  0  0  0
  191.3360  177.2530  143.4070 C   0  0  0  0  0  3  0  0  0  0  0  0
  191.9350  176.5980  147.7140 C   0  0  0  0  0  3  0  0  0  0  0  0
  186.5530  177.6860  143.1090 N   0  0  0  0  0  2  0  0  0  0  0  0
  189.0020  177.6930  143.3550 C   0  0  0  0  0  0  0  0  0  0  0  0
  187.4320  177.6270  146.7500 C   0  0  0  0  0  3  0  0  0  0  0  0
  192.8070  176.1830  146.6000 C   0  0  0  0  0  3  0  0  0  0  0  0
  186.4780  178.0390  144.5170 C   0  0  1  0  0  3  0  0  0  0  0  0
  185.0920  177.7740  145.0810 C   0  0  0  0  0  2  0  0  0  0  0  0
  190.2310  177.7170  142.7750 N   0  0  0  0  0  0  0  0  0  0  0  0
  191.2510  176.7210  144.6910 C   0  0  0  0  0  0  0  0  0  0  0  0
  192.5070  176.2300  145.2950 C   0  0  0  0  0  3  0  0  0  0  0  0
  187.9190  177.9420  141.1030 C   0  0  0  0  0  2  0  0  0  0  0  0
  185.7800  177.5920  139.9130 C   0  0  0  0  0  1  0  0  0  0  0  0
  186.8960  176.9030  140.6740 C   0  0  1  0  0  3  0  0  0  0  0  0
  189.2380  173.6710  142.1980 C   0  0  0  0  0  0  0  0  0  0  0  0
  187.5290  175.9060  139.8220 N   0  0  0  0  0  2  0  0  0  0  0  0
  189.6240  172.8420  139.9710 C   0  0  0  0  0  3  0  0  0  0  0  0
  189.4310  173.5650  143.6680 C   0  0  0  0  0  1  0  0  0  0  0  0
  188.5020  174.6920  141.6820 N   0  0  0  0  0  0  0  0  0  0  0  0
  188.8640  173.8960  139.4600 C   0  0  0  0  0  3  0  0  0  0  0  0
  188.3020  174.8240  140.3400 C   0  0  0  0  0  0  0  0  0  0  0  0
  189.8140  172.7250  141.3480 C   0  0  0  0  0  3  0  0  0  0  0  0
  1  9  1  0  0  0  0
  2  5  1  0  0  0  0
  2  3  1  0  0  0  0
  3  7  1  0  0  0  0
  5 14  1  1  0  0  0
  6  1  1  0  0  0  0
  7  4  1  0  0  0  0
  8 21  1  6  0  0  0
  8 12  1  0  0  0  0
  8 13  1  0  0  0  0
 10 19  1  0  0  0  0
 11  4  2  0  0  0  0
 12 16  1  0  0  0  0
 13  2  2  0  0  0  0
 14  1  2  0  0  0  0
 15 11  1  0  0  0  0
 16 17  1  1  0  0  0
 16  5  1  0  0  0  0
 17  6  1  0  0  0  0
 18 13  1  0  0  0  0
 18 10  2  0  0  0  0
 19 20  1  0  0  0  0
 19  3  2  0  0  0  0
 20 15  2  0  0  0  0
 23 22  1  6  0  0  0
 23 21  1  0  0  0  0
 24 27  1  0  0  0  0
 25 30  1  0  0  0  0
 25 23  1  0  0  0  0
 26 31  1  0  0  0  0
 28 24  1  0  0  0  0
 29 26  2  0  0  0  0
 29 30  1  0  0  0  0
 30 28  2  0  0  0  0
 31 24  2  0  0  0  0
M  END
>  <MODEL>
1

>  <REMARK>
 VINA RESULT:      -8.3      0.000      0.000
  Name = 
  3 active torsions:
  status: ('A' for Active; 'I' for Inactive)
    1  A    between atoms: N_3  and  C_9
    2  A    between atoms: C_9  and  C_23
    3  A    between atoms: C_15  and  C_23
                            x       y       z     vdW  Elec       q    Type
                         _______ _______ _______ _____ _____    ______ ____

>  <TORSDO>
F 3

$$$$
=
 OpenBabel11052417423D

 31 35  0  0  1  0  0  0  0  0999 V2000
  187.2270  176.3880  141.1810 C   0  0  0  0  0  0  0  0  0  0  0  0
  188.2060  176.3740  144.8210 C   0  0  0  0  0  0  0  0  0  0  0  0
  187.1600  176.9780  145.5630 C   0  0  0  0  0  0  0  0  0  0  0  0
  185.1590  178.2380  144.8420 C   0  0  0  0  0  3  0  0  0  0  0  0
  187.9710  175.7350  143.4600 C   0  0  1  0  0  3  0  0  0  0  0  0
  188.1810  175.3980  140.5470 C   0  0  0  0  0  2  0  0  0  0  0  0
  185.7420  176.8870  145.0890 C   0  0  0  0  0  2  0  0  0  0  0  0
  190.6080  175.5310  144.7160 C   0  0  1  0  0  3  0  0  0  0  0  0
  186.4240  177.1650  140.3570 O   0  0  0  0  0  1  0  0  0  0  0  0
  188.7250  177.4320  147.3460 C   0  0  0  0  0  3  0  0  0  0  0  0
  184.9710  179.1310  145.8100 C   0  0  0  0  0  3  0  0  0  0  0  0
  190.1020  174.5850  143.7190 N   0  0  0  0  0  2  0  0  0  0  0  0
  189.4730  176.2320  145.4370 C   0  0  0  0  0  0  0  0  0  0  0  0
  187.1750  176.5830  142.5050 C   0  0  0  0  0  3  0  0  0  0  0  0
  185.3820  178.9510  147.2140 C   0  0  0  0  0  3  0  0  0  0  0  0
  189.2850  175.3450  142.7880 C   0  0  1  0  0  3  0  0  0  0  0  0
  188.9480  174.5260  141.5520 C   0  0  0  0  0  2  0  0  0  0  0  0
  189.6970  176.7860  146.6570 N   0  0  0  0  0  0  0  0  0  0  0  0
  187.4410  177.5500  146.8220 C   0  0  0  0  0  0  0  0  0  0  0  0
  186.4450  178.2630  147.6500 C   0  0  0  0  0  3  0  0  0  0  0  0
  191.5180  174.7980  145.6960 C   0  0  0  0  0  2  0  0  0  0  0  0
  193.1480  176.3850  146.6630 C   0  0  0  0  0  1  0  0  0  0  0  0
  192.9440  175.3150  145.6080 C   0  0  1  0  0  3  0  0  0  0  0  0
  196.8810  175.2450  143.9530 C   0  0  0  0  0  0  0  0  0  0  0  0
  193.8820  174.2230  145.8300 N   0  0  0  0  0  2  0  0  0  0  0  0
  197.3360  173.1280  145.0080 C   0  0  0  0  0  3  0  0  0  0  0  0
  197.3120  176.3810  143.0960 C   0  0  0  0  0  1  0  0  0  0  0  0
  195.6320  175.2360  144.4900 N   0  0  0  0  0  0  0  0  0  0  0  0
  196.0500  173.1380  145.5510 C   0  0  0  0  0  3  0  0  0  0  0  0
  195.2000  174.2130  145.2810 C   0  0  0  0  0  0  0  0  0  0  0  0
  197.7590  174.1870  144.2030 C   0  0  0  0  0  3  0  0  0  0  0  0
  1 14  2  0  0  0  0
  2 13  2  0  0  0  0
  2  3  1  0  0  0  0
  3 19  2  0  0  0  0
  4  7  1  0  0  0  0
  4 11  2  0  0  0  0
  5 14  1  6  0  0  0
  5  2  1  0  0  0  0
  6  1  1  0  0  0  0
  6 17  1  0  0  0  0
  7  3  1  0  0  0  0
  8 13  1  0  0  0  0
  8 21  1  1  0  0  0
  9  1  1  0  0  0  0
 11 15  1  0  0  0  0
 12  8  1  0  0  0  0
 13 18  1  0  0  0  0
 15 20  2  0  0  0  0
 16 17  1  6  0  0  0
 16  5  1  0  0  0  0
 16 12  1  0  0  0  0
 18 10  2  0  0  0  0
 19 10  1  0  0  0  0
 19 20  1  0  0  0  0
 23 21  1  0  0  0  0
 23 25  1  0  0  0  0
 23 22  1  1  0  0  0
 24 31  2  0  0  0  0
 24 28  1  0  0  0  0
 26 29  2  0  0  0  0
 27 24  1  0  0  0  0
 28 30  2  0  0  0  0
 30 29  1  0  0  0  0
 30 25  1  0  0  0  0
 31 26  1  0  0  0  0
M  END
>  <MODEL>
2

>  <REMARK>
 VINA RESULT:      -8.1      3.319      6.706
  Name = 
  3 active torsions:
  status: ('A' for Active; 'I' for Inactive)
    1  A    between atoms: N_3  and  C_9
    2  A    between atoms: C_9  and  C_23
    3  A    between atoms: C_15  and  C_23
                            x       y       z     vdW  Elec       q    Type
                         _______ _______ _______ _____ _____    ______ ____

>  <TORSDO>
F 3

$$$$
=
 OpenBabel11052417423D

 31 35  0  0  1  0  0  0  0  0999 V2000
  185.4090  177.8810  146.4990 C   0  0  0  0  0  0  0  0  0  0  0  0
  187.4810  176.8010  143.5420 C   0  0  0  0  0  0  0  0  0  0  0  0
  186.9250  177.3820  142.3750 C   0  0  0  0  0  0  0  0  0  0  0  0
  184.7950  178.5800  142.0010 C   0  0  0  0  0  3  0  0  0  0  0  0
  187.2710  177.3970  144.9260 C   0  0  1  0  0  3  0  0  0  0  0  0
  186.2850  177.5580  147.6910 C   0  0  0  0  0  2  0  0  0  0  0  0
  186.2130  178.6980  142.4480 C   0  0  0  0  0  2  0  0  0  0  0  0
  189.0620  175.1040  144.5990 C   0  0  1  0  0  3  0  0  0  0  0  0
  184.0940  178.2660  146.7210 O   0  0  0  0  0  1  0  0  0  0  0  0
  188.0070  175.6810  141.0450 C   0  0  0  0  0  3  0  0  0  0  0  0
  184.4560  178.2570  140.7560 C   0  0  0  0  0  3  0  0  0  0  0  0
  189.1530  176.0620  145.7030 N   0  0  0  0  0  2  0  0  0  0  0  0
  188.3830  175.7190  143.3900 C   0  0  0  0  0  0  0  0  0  0  0  0
  185.8410  177.7500  145.2380 C   0  0  0  0  0  3  0  0  0  0  0  0
  185.4060  177.8940  139.6890 C   0  0  0  0  0  3  0  0  0  0  0  0
  187.7970  176.4740  146.0220 C   0  0  1  0  0  3  0  0  0  0  0  0
  187.7450  177.2380  147.3350 C   0  0  0  0  0  2  0  0  0  0  0  0
  188.5930  175.1810  142.1600 N   0  0  0  0  0  0  0  0  0  0  0  0
  187.1600  176.7830  141.1190 C   0  0  0  0  0  0  0  0  0  0  0  0
  186.5770  177.2640  139.8490 C   0  0  0  0  0  3  0  0  0  0  0  0
  190.4560  174.5950  144.2520 C   0  0  0  0  0  2  0  0  0  0  0  0
  189.7860  172.2690  144.7520 C   0  0  0  0  0  1  0  0  0  0  0  0
  190.8010  173.3530  145.0570 C   0  0  1  0  0  3  0  0  0  0  0  0
  194.3560  175.5290  145.9920 C   0  0  0  0  0  0  0  0  0  0  0  0
  192.1360  172.8880  144.7050 N   0  0  0  0  0  2  0  0  0  0  0  0
  195.7210  173.8170  144.9890 C   0  0  0  0  0  3  0  0  0  0  0  0
  194.2280  176.8310  146.6970 C   0  0  0  0  0  1  0  0  0  0  0  0
  193.2430  174.8150  145.6760 N   0  0  0  0  0  0  0  0  0  0  0  0
  194.5660  173.0980  144.6750 C   0  0  0  0  0  3  0  0  0  0  0  0
  193.3190  173.6170  145.0300 C   0  0  0  0  0  0  0  0  0  0  0  0
  195.6200  175.0400  145.6530 C   0  0  0  0  0  3  0  0  0  0  0  0
  1  9  1  0  0  0  0
  1  6  1  0  0  0  0
  2  5  1  0  0  0  0
  3  7  1  0  0  0  0
  3  2  2  0  0  0  0
  4  7  1  0  0  0  0
  5 14  1  1  0  0  0
  5 16  1  0  0  0  0
  8 21  1  6  0  0  0
  8 12  1  0  0  0  0
 10 19  2  0  0  0  0
 10 18  1  0  0  0  0
 11  4  2  0  0  0  0
 12 16  1  0  0  0  0
 13  2  1  0  0  0  0
 13  8  1  0  0  0  0
 14  1  2  0  0  0  0
 15 20  2  0  0  0  0
 15 11  1  0  0  0  0
 16 17  1  1  0  0  0
 17  6  1  0  0  0  0
 18 13  2  0  0  0  0
 19  3  1  0  0  0  0
 20 19  1  0  0  0  0
 21 23  1  0  0  0  0
 23 22  1  6  0  0  0
 24 27  1  0  0  0  0
 25 30  1  0  0  0  0
 25 23  1  0  0  0  0
 26 31  1  0  0  0  0
 28 24  1  0  0  0  0
 29 26  2  0  0  0  0
 29 30  1  0  0  0  0
 30 28  2  0  0  0  0
 31 24  2  0  0  0  0
M  END
>  <MODEL>
3

>  <REMARK>
 VINA RESULT:      -8.0      2.318      5.937
  Name = 
  3 active torsions:
  status: ('A' for Active; 'I' for Inactive)
    1  A    between atoms: N_3  and  C_9
    2  A    between atoms: C_9  and  C_23
    3  A    between atoms: C_15  and  C_23
                            x       y       z     vdW  Elec       q    Type
                         _______ _______ _______ _____ _____    ______ ____

>  <TORSDO>
F 3

$$$$
=
 OpenBabel11052417423D

 31 35  0  0  1  0  0  0  0  0999 V2000
  185.5690  177.5580  144.0520 C   0  0  0  0  0  0  0  0  0  0  0  0
  188.8430  175.7140  144.3530 C   0  0  0  0  0  0  0  0  0  0  0  0
  189.2300  175.2850  143.0590 C   0  0  0  0  0  0  0  0  0  0  0  0
  188.0080  175.2590  140.9100 C   0  0  0  0  0  3  0  0  0  0  0  0
  187.9070  176.8940  144.5720 C   0  0  1  0  0  3  0  0  0  0  0  0
  185.4500  178.2980  145.3680 C   0  0  0  0  0  2  0  0  0  0  0  0
  188.8350  176.0730  141.8480 C   0  0  0  0  0  2  0  0  0  0  0  0
  189.1430  175.5850  146.8800 C   0  0  1  0  0  3  0  0  0  0  0  0
  184.4790  177.5410  143.1930 O   0  0  0  0  0  1  0  0  0  0  0  0
  190.6370  173.6000  144.0680 C   0  0  0  0  0  3  0  0  0  0  0  0
  188.4760  174.1830  140.2840 C   0  0  0  0  0  3  0  0  0  0  0  0
  188.6680  176.9700  146.8830 N   0  0  0  0  0  2  0  0  0  0  0  0
  189.4680  175.1170  145.4750 C   0  0  0  0  0  0  0  0  0  0  0  0
  186.6680  176.8690  143.7170 C   0  0  0  0  0  3  0  0  0  0  0  0
  189.8160  173.6050  140.4870 C   0  0  0  0  0  3  0  0  0  0  0  0
  187.4890  177.0170  146.0340 C   0  0  1  0  0  3  0  0  0  0  0  0
  186.7440  178.3320  146.1940 C   0  0  0  0  0  2  0  0  0  0  0  0
  190.3160  174.0700  145.2990 N   0  0  0  0  0  0  0  0  0  0  0  0
  190.1050  174.1860  142.9220 C   0  0  0  0  0  0  0  0  0  0  0  0
  190.5210  173.6130  141.6250 C   0  0  0  0  0  3  0  0  0  0  0  0
  190.3550  175.4620  147.7980 C   0  0  0  0  0  2  0  0  0  0  0  0
  191.1940  177.5370  148.8480 C   0  0  0  0  0  1  0  0  0  0  0  0
  191.2930  176.6450  147.6260 C   0  0  1  0  0  3  0  0  0  0  0  0
  193.2740  176.4160  143.8480 C   0  0  0  0  0  0  0  0  0  0  0  0
  192.6630  176.1750  147.4720 N   0  0  0  0  0  2  0  0  0  0  0  0
  195.2800  175.5970  144.8990 C   0  0  0  0  0  3  0  0  0  0  0  0
  192.5270  176.8210  142.6280 C   0  0  0  0  0  1  0  0  0  0  0  0
  192.6690  176.4730  145.0650 N   0  0  0  0  0  0  0  0  0  0  0  0
  194.6420  175.6640  146.1400 C   0  0  0  0  0  3  0  0  0  0  0  0
  193.3200  176.1110  146.2060 C   0  0  0  0  0  0  0  0  0  0  0  0
  194.5950  175.9750  143.7440 C   0  0  0  0  0  3  0  0  0  0  0  0
  1  6  1  0  0  0  0
  2  5  1  0  0  0  0
  2 13  1  0  0  0  0
  3  2  2  0  0  0  0
  4  7  1  0  0  0  0
  5 14  1  6  0  0  0
  5 16  1  0  0  0  0
  6 17  1  0  0  0  0
  7  3  1  0  0  0  0
  8 12  1  0  0  0  0
  8 21  1  1  0  0  0
  9  1  1  0  0  0  0
 10 18  1  0  0  0  0
 11 15  1  0  0  0  0
 11  4  2  0  0  0  0
 13  8  1  0  0  0  0
 14  1  2  0  0  0  0
 15 20  2  0  0  0  0
 16 17  1  6  0  0  0
 16 12  1  0  0  0  0
 18 13  2  0  0  0  0
 19  3  1  0  0  0  0
 19 10  2  0  0  0  0
 20 19  1  0  0  0  0
 23 21  1  0  0  0  0
 23 22  1  1  0  0  0
 24 28  1  0  0  0  0
 25 23  1  0  0  0  0
 26 29  2  0  0  0  0
 27 24  1  0  0  0  0
 28 30  2  0  0  0  0
 29 30  1  0  0  0  0
 30 25  1  0  0  0  0
 31 24  2  0  0  0  0
 31 26  1  0  0  0  0
M  END
>  <MODEL>
4

>  <REMARK>
 VINA RESULT:      -7.9      2.404      5.825
  Name = 
  3 active torsions:
  status: ('A' for Active; 'I' for Inactive)
    1  A    between atoms: N_3  and  C_9
    2  A    between atoms: C_9  and  C_23
    3  A    between atoms: C_15  and  C_23
                            x       y       z     vdW  Elec       q    Type
                         _______ _______ _______ _____ _____    ______ ____

>  <TORSDO>
F 3

$$$$
=
 OpenBabel11052417423D

 31 35  0  0  1  0  0  0  0  0999 V2000
  184.6410  178.6650  146.2230 C   0  0  0  0  0  0  0  0  0  0  0  0
  187.3760  177.1150  144.1430 C   0  0  0  0  0  0  0  0  0  0  0  0
  187.1410  177.4460  142.7850 C   0  0  0  0  0  0  0  0  0  0  0  0
  185.1940  178.4800  141.6670 C   0  0  0  0  0  3  0  0  0  0  0  0
  186.8320  177.9550  145.2900 C   0  0  1  0  0  3  0  0  0  0  0  0
  185.1820  178.6030  147.6350 C   0  0  0  0  0  2  0  0  0  0  0  0
  186.4550  178.7270  142.4240 C   0  0  0  0  0  2  0  0  0  0  0  0
  188.6110  175.7030  145.8680 C   0  0  1  0  0  3  0  0  0  0  0  0
  183.3180  179.0410  146.0290 O   0  0  0  0  0  1  0  0  0  0  0  0
  188.4980  175.5610  142.1200 C   0  0  0  0  0  3  0  0  0  0  0  0
  185.1750  177.9160  140.4620 C   0  0  0  0  0  3  0  0  0  0  0  0
  188.4360  176.8540  146.7550 N   0  0  0  0  0  2  0  0  0  0  0  0
  188.2690  176.0550  144.4330 C   0  0  0  0  0  0  0  0  0  0  0  0
  185.3760  178.3130  145.1600 C   0  0  0  0  0  3  0  0  0  0  0  0
  186.3590  177.3900  139.7580 C   0  0  0  0  0  3  0  0  0  0  0  0
  187.0490  177.2740  146.6390 C   0  0  1  0  0  3  0  0  0  0  0  0
  186.6790  178.2700  147.7250 C   0  0  0  0  0  2  0  0  0  0  0  0
  188.7740  175.3010  143.4210 N   0  0  0  0  0  0  0  0  0  0  0  0
  187.6770  176.6290  141.7670 C   0  0  0  0  0  0  0  0  0  0  0  0
  187.4410  176.8410  140.3240 C   0  0  0  0  0  3  0  0  0  0  0  0
  190.0400  175.1840  145.9850 C   0  0  0  0  0  2  0  0  0  0  0  0
  191.4510  175.2910  148.0130 C   0  0  0  0  0  1  0  0  0  0  0  0
  190.8820  176.0970  146.8610 C   0  0  1  0  0  3  0  0  0  0  0  0
  194.1480  173.7890  145.3600 C   0  0  0  0  0  0  0  0  0  0  0  0
  191.9700  176.6700  146.0800 N   0  0  0  0  0  2  0  0  0  0  0  0
  195.1120  175.7410  144.3290 C   0  0  0  0  0  3  0  0  0  0  0  0
  194.1880  172.3340  145.6600 C   0  0  0  0  0  1  0  0  0  0  0  0
  193.1240  174.5520  145.8280 N   0  0  0  0  0  0  0  0  0  0  0  0
  194.0510  176.5070  144.8180 C   0  0  0  0  0  3  0  0  0  0  0  0
  193.0520  175.8890  145.5740 C   0  0  0  0  0  0  0  0  0  0  0  0
  195.1640  174.3730  144.5990 C   0  0  0  0  0  3  0  0  0  0  0  0
  1  6  1  0  0  0  0
  2 13  1  0  0  0  0
  2  5  1  0  0  0  0
  3  2  2  0  0  0  0
  4  7  1  0  0  0  0
  5 14  1  6  0  0  0
  5 16  1  0  0  0  0
  6 17  1  0  0  0  0
  7  3  1  0  0  0  0
  8 21  1  6  0  0  0
  8 12  1  0  0  0  0
  9  1  1  0  0  0  0
 10 18  1  0  0  0  0
 11  4  2  0  0  0  0
 13  8  1  0  0  0  0
 14  1  2  0  0  0  0
 15 20  2  0  0  0  0
 15 11  1  0  0  0  0
 16 12  1  0  0  0  0
 16 17  1  1  0  0  0
 18 13  2  0  0  0  0
 19 10  2  0  0  0  0
 19  3  1  0  0  0  0
 20 19  1  0  0  0  0
 21 23  1  0  0  0  0
 23 22  1  1  0  0  0
 24 27  1  0  0  0  0
 24 28  1  0  0  0  0
 25 23  1  0  0  0  0
 26 31  1  0  0  0  0
 26 29  2  0  0  0  0
 29 30  1  0  0  0  0
 30 28  2  0  0  0  0
 30 25  1  0  0  0  0
 31 24  2  0  0  0  0
M  END
>  <MODEL>
5

>  <REMARK>
 VINA RESULT:      -7.9      2.242      5.846
  Name = 
  3 active torsions:
  status: ('A' for Active; 'I' for Inactive)
    1  A    between atoms: N_3  and  C_9
    2  A    between atoms: C_9  and  C_23
    3  A    between atoms: C_15  and  C_23
                            x       y       z     vdW  Elec       q    Type
                         _______ _______ _______ _____ _____    ______ ____

>  <TORSDO>
F 3

$$$$
=
 OpenBabel11052417423D

 31 35  0  0  1  0  0  0  0  0999 V2000
  185.0740  178.1230  146.7760 C   0  0  0  0  0  0  0  0  0  0  0  0
  187.5990  177.6320  144.0210 C   0  0  0  0  0  0  0  0  0  0  0  0
  186.9780  177.9510  142.7880 C   0  0  0  0  0  0  0  0  0  0  0  0
  184.6120  178.3860  142.2130 C   0  0  0  0  0  3  0  0  0  0  0  0
  187.1060  178.1910  145.3480 C   0  0  1  0  0  3  0  0  0  0  0  0
  185.9140  178.1510  148.0350 C   0  0  0  0  0  2  0  0  0  0  0  0
  185.8820  178.9720  142.7320 C   0  0  0  0  0  2  0  0  0  0  0  0
  189.5510  176.5800  145.2790 C   0  0  1  0  0  3  0  0  0  0  0  0
  183.6910  178.0750  146.8950 O   0  0  0  0  0  1  0  0  0  0  0  0
  188.6400  176.6290  141.6390 C   0  0  0  0  0  3  0  0  0  0  0  0
  184.4880  177.9150  140.9750 C   0  0  0  0  0  3  0  0  0  0  0  0
  189.2500  177.5660  146.3190 N   0  0  0  0  0  2  0  0  0  0  0  0
  188.8050  176.8910  143.9940 C   0  0  0  0  0  0  0  0  0  0  0  0
  185.6190  178.0810  145.5530 C   0  0  0  0  0  3  0  0  0  0  0  0
  185.5830  177.8290  139.9910 C   0  0  0  0  0  3  0  0  0  0  0  0
  187.8130  177.5350  146.5320 C   0  0  1  0  0  3  0  0  0  0  0  0
  187.4220  178.3000  147.7860 C   0  0  0  0  0  2  0  0  0  0  0  0
  189.2680  176.3930  142.8170 N   0  0  0  0  0  0  0  0  0  0  0  0
  187.4850  177.4040  141.5900 C   0  0  0  0  0  0  0  0  0  0  0  0
  186.8770  177.6150  140.2600 C   0  0  0  0  0  3  0  0  0  0  0  0
  191.0560  176.5300  145.0460 C   0  0  0  0  0  2  0  0  0  0  0  0
  191.9800  175.2860  146.9730 C   0  0  0  0  0  1  0  0  0  0  0  0
  191.6350  175.2000  145.4980 C   0  0  1  0  0  3  0  0  0  0  0  0
  191.5220  172.8200  141.9530 C   0  0  0  0  0  0  0  0  0  0  0  0
  190.6640  174.1370  145.2840 N   0  0  0  0  0  2  0  0  0  0  0  0
  189.6620  171.5520  142.8100 C   0  0  0  0  0  3  0  0  0  0  0  0
  192.5110  173.0980  140.8780 C   0  0  0  0  0  1  0  0  0  0  0  0
  191.5290  173.5640  143.0910 N   0  0  0  0  0  0  0  0  0  0  0  0
  189.6870  172.3260  143.9720 C   0  0  0  0  0  3  0  0  0  0  0  0
  190.6390  173.3390  144.1000 C   0  0  0  0  0  0  0  0  0  0  0  0
  190.5850  171.7970  141.7920 C   0  0  0  0  0  3  0  0  0  0  0  0
  1  9  1  0  0  0  0
  1  6  1  0  0  0  0
  2  5  1  0  0  0  0
  3  2  2  0  0  0  0
  4  7  1  0  0  0  0
  5 14  1  1  0  0  0
  5 16  1  0  0  0  0
  7  3  1  0  0  0  0
  8 21  1  6  0  0  0
  8 12  1  0  0  0  0
 10 18  1  0  0  0  0
 11  4  2  0  0  0  0
 12 16  1  0  0  0  0
 13  2  1  0  0  0  0
 13  8  1  0  0  0  0
 14  1  2  0  0  0  0
 15 20  2  0  0  0  0
 15 11  1  0  0  0  0
 16 17  1  1  0  0  0
 17  6  1  0  0  0  0
 18 13  2  0  0  0  0
 19 10  2  0  0  0  0
 19  3  1  0  0  0  0
 20 19  1  0  0  0  0
 21 23  1  0  0  0  0
 23 22  1  1  0  0  0
 24 28  1  0  0  0  0
 25 23  1  0  0  0  0
 26 29  2  0  0  0  0
 27 24  1  0  0  0  0
 28 30  2  0  0  0  0
 29 30  1  0  0  0  0
 30 25  1  0  0  0  0
 31 24  2  0  0  0  0
 31 26  1  0  0  0  0
M  END
>  <MODEL>
6

>  <REMARK>
 VINA RESULT:      -7.8      1.848      5.092
  Name = 
  3 active torsions:
  status: ('A' for Active; 'I' for Inactive)
    1  A    between atoms: N_3  and  C_9
    2  A    between atoms: C_9  and  C_23
    3  A    between atoms: C_15  and  C_23
                            x       y       z     vdW  Elec       q    Type
                         _______ _______ _______ _____ _____    ______ ____

>  <TORSDO>
F 3

$$$$
=
 OpenBabel11052417423D

 31 35  0  0  1  0  0  0  0  0999 V2000
  185.8220  177.8210  140.9460 C   0  0  0  0  0  0  0  0  0  0  0  0
  187.5650  177.0480  144.1970 C   0  0  0  0  0  0  0  0  0  0  0  0
  186.6620  177.3110  145.2570 C   0  0  0  0  0  0  0  0  0  0  0  0
  184.4600  178.4360  145.2890 C   0  0  0  0  0  3  0  0  0  0  0  0
  187.0910  176.7340  142.7850 C   0  0  1  0  0  3  0  0  0  0  0  0
  186.6890  177.1480  139.9030 C   0  0  0  0  0  2  0  0  0  0  0  0
  185.1860  177.1550  145.0540 C   0  0  0  0  0  2  0  0  0  0  0  0
  189.9450  176.5770  143.4180 C   0  0  1  0  0  3  0  0  0  0  0  0
  184.8020  178.6630  140.5250 O   0  0  0  0  0  1  0  0  0  0  0  0
  188.5360  177.5180  146.7670 C   0  0  0  0  0  3  0  0  0  0  0  0
  184.4190  179.0350  146.4770 C   0  0  0  0  0  3  0  0  0  0  0  0
  189.3090  175.8440  142.3210 N   0  0  0  0  0  2  0  0  0  0  0  0
  188.9420  176.9260  144.5010 C   0  0  0  0  0  0  0  0  0  0  0  0
  186.0430  177.6780  142.2590 C   0  0  0  0  0  3  0  0  0  0  0  0
  185.1370  178.5730  147.6790 C   0  0  0  0  0  3  0  0  0  0  0  0
  188.2540  176.6950  141.7970 C   0  0  1  0  0  3  0  0  0  0  0  0
  187.7210  176.1650  140.4760 C   0  0  0  0  0  2  0  0  0  0  0  0
  189.3830  177.1910  145.7600 N   0  0  0  0  0  0  0  0  0  0  0  0
  187.1640  177.5910  146.5460 C   0  0  0  0  0  0  0  0  0  0  0  0
  186.3190  177.9440  147.7060 C   0  0  0  0  0  3  0  0  0  0  0  0
  191.0990  175.7520  143.9780 C   0  0  0  0  0  2  0  0  0  0  0  0
  193.3840  175.7350  143.0350 C   0  0  0  0  0  1  0  0  0  0  0  0
  191.9730  175.2070  142.8610 C   0  0  1  0  0  3  0  0  0  0  0  0
  190.4110  172.7610  139.7260 C   0  0  0  0  0  0  0  0  0  0  0  0
  191.9860  173.7510  142.9050 N   0  0  0  0  0  2  0  0  0  0  0  0
  191.0220  170.7610  140.9220 C   0  0  0  0  0  3  0  0  0  0  0  0
  189.8110  173.4240  138.5390 C   0  0  0  0  0  1  0  0  0  0  0  0
  190.9120  173.5120  140.7430 N   0  0  0  0  0  0  0  0  0  0  0  0
  191.5320  171.5500  141.9540 C   0  0  0  0  0  3  0  0  0  0  0  0
  191.4700  172.9420  141.8480 C   0  0  0  0  0  0  0  0  0  0  0  0
  190.4570  171.3670  139.7980 C   0  0  0  0  0  3  0  0  0  0  0  0
  1 14  2  0  0  0  0
  2 13  2  0  0  0  0
  2  3  1  0  0  0  0
  3 19  2  0  0  0  0
  4 11  2  0  0  0  0
  5 14  1  6  0  0  0
  5  2  1  0  0  0  0
  6 17  1  0  0  0  0
  6  1  1  0  0  0  0
  7  3  1  0  0  0  0
  7  4  1  0  0  0  0
  8 21  1  1  0  0  0
  8 13  1  0  0  0  0
  9  1  1  0  0  0  0
 11 15  1  0  0  0  0
 12  8  1  0  0  0  0
 13 18  1  0  0  0  0
 15 20  2  0  0  0  0
 16 17  1  6  0  0  0
 16 12  1  0  0  0  0
 16  5  1  0  0  0  0
 18 10  2  0  0  0  0
 19 10  1  0  0  0  0
 19 20  1  0  0  0  0
 23 25  1  0  0  0  0
 23 22  1  1  0  0  0
 23 21  1  0  0  0  0
 24 31  2  0  0  0  0
 24 28  1  0  0  0  0
 26 29  2  0  0  0  0
 27 24  1  0  0  0  0
 28 30  2  0  0  0  0
 30 29  1  0  0  0  0
 30 25  1  0  0  0  0
 31 26  1  0  0  0  0
M  END
>  <MODEL>
7

>  <REMARK>
 VINA RESULT:      -7.7      2.365      5.128
  Name = 
  3 active torsions:
  status: ('A' for Active; 'I' for Inactive)
    1  A    between atoms: N_3  and  C_9
    2  A    between atoms: C_9  and  C_23
    3  A    between atoms: C_15  and  C_23
                            x       y       z     vdW  Elec       q    Type
                         _______ _______ _______ _____ _____    ______ ____

>  <TORSDO>
F 3

$$$$
=
 OpenBabel11052417423D

 31 35  0  0  1  0  0  0  0  0999 V2000
  187.0900  176.5160  146.6730 C   0  0  0  0  0  0  0  0  0  0  0  0
  187.8140  176.5150  142.9730 C   0  0  0  0  0  0  0  0  0  0  0  0
  186.8470  177.3290  142.3330 C   0  0  0  0  0  0  0  0  0  0  0  0
  184.7540  178.3470  143.1670 C   0  0  0  0  0  3  0  0  0  0  0  0
  188.1740  176.6840  144.4430 C   0  0  1  0  0  3  0  0  0  0  0  0
  188.3630  175.9750  147.2890 C   0  0  0  0  0  2  0  0  0  0  0  0
  186.2350  178.4910  143.0540 C   0  0  0  0  0  2  0  0  0  0  0  0
  189.6680  174.7740  142.8010 C   0  0  1  0  0  3  0  0  0  0  0  0
  185.9730  176.6810  147.4800 O   0  0  0  0  0  1  0  0  0  0  0  0
  187.2990  176.1840  140.2550 C   0  0  0  0  0  3  0  0  0  0  0  0
  183.9470  178.3420  142.1090 C   0  0  0  0  0  3  0  0  0  0  0  0
  190.1970  175.3980  144.0150 N   0  0  0  0  0  2  0  0  0  0  0  0
  188.5720  175.6190  142.1800 C   0  0  0  0  0  0  0  0  0  0  0  0
  186.9870  176.7820  145.3640 C   0  0  0  0  0  3  0  0  0  0  0  0
  184.3960  178.3890  140.7060 C   0  0  0  0  0  3  0  0  0  0  0  0
  189.0810  175.5590  144.9330 C   0  0  1  0  0  3  0  0  0  0  0  0
  189.5600  175.9240  146.3280 C   0  0  0  0  0  2  0  0  0  0  0  0
  188.2730  175.4640  140.8630 N   0  0  0  0  0  0  0  0  0  0  0  0
  186.5610  177.1260  140.9660 C   0  0  0  0  0  0  0  0  0  0  0  0
  185.5280  177.8690  140.2150 C   0  0  0  0  0  3  0  0  0  0  0  0
  190.8060  174.5330  141.8160 C   0  0  0  0  0  2  0  0  0  0  0  0
  191.9190  172.3540  142.1720 C   0  0  0  0  0  1  0  0  0  0  0  0
  191.9750  173.8350  142.4920 C   0  0  1  0  0  3  0  0  0  0  0  0
  194.5510  176.2210  144.9250 C   0  0  0  0  0  0  0  0  0  0  0  0
  193.2320  174.3940  142.0130 N   0  0  0  0  0  2  0  0  0  0  0  0
  196.1260  176.4450  143.1170 C   0  0  0  0  0  3  0  0  0  0  0  0
  194.1410  176.5100  146.3240 C   0  0  0  0  0  1  0  0  0  0  0  0
  193.7500  175.4690  144.1240 N   0  0  0  0  0  0  0  0  0  0  0  0
  195.2900  175.6690  142.3110 C   0  0  0  0  0  3  0  0  0  0  0  0
  194.0910  175.1820  142.8360 C   0  0  0  0  0  0  0  0  0  0  0  0
  195.7580  176.7240  144.4330 C   0  0  0  0  0  3  0  0  0  0  0  0
  1  6  1  0  0  0  0
  1  9  1  0  0  0  0
  2  5  1  0  0  0  0
  3  2  1  0  0  0  0
  3  7  1  0  0  0  0
  5 16  1  0  0  0  0
  5 14  1  1  0  0  0
  7  4  1  0  0  0  0
  8 21  1  6  0  0  0
  8 12  1  0  0  0  0
 10 18  2  0  0  0  0
 10 19  1  0  0  0  0
 11  4  2  0  0  0  0
 12 16  1  0  0  0  0
 13  8  1  0  0  0  0
 13  2  2  0  0  0  0
 14  1  2  0  0  0  0
 15 11  1  0  0  0  0
 16 17  1  1  0  0  0
 17  6  1  0  0  0  0
 18 13  1  0  0  0  0
 19  3  2  0  0  0  0
 20 15  2  0  0  0  0
 20 19  1  0  0  0  0
 21 23  1  0  0  0  0
 23 22  1  6  0  0  0
 24 27  1  0  0  0  0
 25 23  1  0  0  0  0
 25 30  1  0  0  0  0
 26 31  1  0  0  0  0
 28 24  1  0  0  0  0
 29 30  1  0  0  0  0
 29 26  2  0  0  0  0
 30 28  2  0  0  0  0
 31 24  2  0  0  0  0
M  END
>  <MODEL>
8

>  <REMARK>
 VINA RESULT:      -7.6      2.333      5.918
  Name = 
  3 active torsions:
  status: ('A' for Active; 'I' for Inactive)
    1  A    between atoms: N_3  and  C_9
    2  A    between atoms: C_9  and  C_23
    3  A    between atoms: C_15  and  C_23
                            x       y       z     vdW  Elec       q    Type
                         _______ _______ _______ _____ _____    ______ ____

>  <TORSDO>
F 3

$$$$
=
 OpenBabel11052417423D

 31 35  0  0  1  0  0  0  0  0999 V2000
  187.3610  176.2280  141.2240 C   0  0  0  0  0  0  0  0  0  0  0  0
  188.4280  176.3660  144.8360 C   0  0  0  0  0  0  0  0  0  0  0  0
  187.3880  176.9720  145.5830 C   0  0  0  0  0  0  0  0  0  0  0  0
  185.3410  178.1610  144.8680 C   0  0  0  0  0  3  0  0  0  0  0  0
  188.1760  175.6730  143.5050 C   0  0  1  0  0  3  0  0  0  0  0  0
  188.3220  175.2380  140.6010 C   0  0  0  0  0  2  0  0  0  0  0  0
  185.9610  176.8340  145.1480 C   0  0  0  0  0  2  0  0  0  0  0  0
  190.8470  175.5720  144.7000 C   0  0  1  0  0  3  0  0  0  0  0  0
  186.5210  176.9580  140.3930 O   0  0  0  0  0  1  0  0  0  0  0  0
  188.9850  177.5240  147.3090 C   0  0  0  0  0  3  0  0  0  0  0  0
  185.1570  179.0840  145.8090 C   0  0  0  0  0  3  0  0  0  0  0  0
  190.3380  174.5810  143.7510 N   0  0  0  0  0  2  0  0  0  0  0  0
  189.7130  176.2730  145.4250 C   0  0  0  0  0  0  0  0  0  0  0  0
  187.3370  176.4690  142.5410 C   0  0  0  0  0  3  0  0  0  0  0  0
  185.6060  178.9630  147.2080 C   0  0  0  0  0  3  0  0  0  0  0  0
  189.4820  175.2880  142.8140 C   0  0  1  0  0  3  0  0  0  0  0  0
  189.1340  174.4190  141.6170 C   0  0  0  0  0  2  0  0  0  0  0  0
  189.9550  176.8750  146.6190 N   0  0  0  0  0  0  0  0  0  0  0  0
  187.6860  177.5950  146.8140 C   0  0  0  0  0  0  0  0  0  0  0  0
  186.6940  178.3140  147.6410 C   0  0  0  0  0  3  0  0  0  0  0  0
  191.7960  174.8950  145.6830 C   0  0  0  0  0  2  0  0  0  0  0  0
  193.9230  176.1480  145.5410 C   0  0  0  0  0  1  0  0  0  0  0  0
  193.2150  174.8680  145.1400 C   0  0  1  0  0  3  0  0  0  0  0  0
  192.6270  170.8740  143.7440 C   0  0  0  0  0  0  0  0  0  0  0  0
  193.9320  173.7210  145.6810 N   0  0  0  0  0  2  0  0  0  0  0  0
  194.2750  170.0430  145.2910 C   0  0  0  0  0  3  0  0  0  0  0  0
  191.6330  170.6370  142.6640 C   0  0  0  0  0  1  0  0  0  0  0  0
  192.8330  172.1340  144.2130 N   0  0  0  0  0  0  0  0  0  0  0  0
  194.4730  171.3440  145.7580 C   0  0  0  0  0  3  0  0  0  0  0  0
  193.7360  172.3910  145.2010 C   0  0  0  0  0  0  0  0  0  0  0  0
  193.3470  169.8020  144.2770 C   0  0  0  0  0  3  0  0  0  0  0  0
  1 14  2  0  0  0  0
  2 13  2  0  0  0  0
  2  3  1  0  0  0  0
  3 19  2  0  0  0  0
  4  7  1  0  0  0  0
  4 11  2  0  0  0  0
  5 14  1  6  0  0  0
  5  2  1  0  0  0  0
  6  1  1  0  0  0  0
  6 17  1  0  0  0  0
  7  3  1  0  0  0  0
  8 13  1  0  0  0  0
  8 21  1  1  0  0  0
  9  1  1  0  0  0  0
 11 15  1  0  0  0  0
 12  8  1  0  0  0  0
 13 18  1  0  0  0  0
 15 20  2  0  0  0  0
 16 17  1  6  0  0  0
 16  5  1  0  0  0  0
 16 12  1  0  0  0  0
 18 10  2  0  0  0  0
 19 10  1  0  0  0  0
 19 20  1  0  0  0  0
 23 22  1  1  0  0  0
 23 25  1  0  0  0  0
 23 21  1  0  0  0  0
 24 28  1  0  0  0  0
 24 31  2  0  0  0  0
 26 29  2  0  0  0  0
 27 24  1  0  0  0  0
 28 30  2  0  0  0  0
 30 25  1  0  0  0  0
 30 29  1  0  0  0  0
 31 26  1  0  0  0  0
M  END
>  <MODEL>
9

>  <REMARK>
 VINA RESULT:      -7.6      3.270      6.126
  Name = 
  3 active torsions:
  status: ('A' for Active; 'I' for Inactive)
    1  A    between atoms: N_3  and  C_9
    2  A    between atoms: C_9  and  C_23
    3  A    between atoms: C_15  and  C_23
                            x       y       z     vdW  Elec       q    Type
                         _______ _______ _______ _____ _____    ______ ____

>  <TORSDO>
F 3

$$$$
