=
 OpenBabel11052418213D

 27 31  0  0  1  0  0  0  0  0999 V2000
  189.5120  176.9200  143.6850 C   0  0  2  0  0  0  0  0  0  0  0  0
  187.6430  176.6780  141.9490 C   0  0  2  0  0  3  0  0  0  0  0  0
  187.2460  177.8810  144.1310 O   0  0  0  0  0  0  0  0  0  0  0  0
  184.1440  178.0310  140.4000 C   0  0  0  0  0  3  0  0  0  0  0  0
  181.7530  178.6110  140.7490 C   0  0  0  0  0  1  0  0  0  0  0  0
  187.5120  176.8700  140.5030 N   0  0  0  0  0  0  0  0  0  0  0  0
  184.5920  177.9000  143.1950 C   0  0  0  0  0  2  0  0  0  0  0  0
  187.8050  176.1070  146.8730 C   0  0  0  0  0  1  0  0  0  0  0  0
  183.2920  178.5670  142.7340 C   0  0  0  0  0  2  0  0  0  0  0  0
  190.0150  177.1880  146.4410 C   0  0  0  0  0  2  0  0  0  0  0  0
  187.1300  177.9230  142.7120 C   0  0  2  0  0  3  0  0  0  0  0  0
  189.0990  176.3430  142.3060 C   0  0  2  0  0  3  0  0  0  0  0  0
  183.0770  178.3840  141.2940 N   0  0  0  0  0  0  0  0  0  0  0  0
  185.3990  177.9500  140.8450 C   0  0  0  0  0  0  0  0  0  0  0  0
  190.0840  178.3180  143.4680 C   0  0  0  0  0  1  0  0  0  0  0  0
  185.7170  178.3470  142.2670 C   0  0  1  0  0  3  0  0  0  0  0  0
  188.5210  177.1830  146.0830 C   0  0  1  0  0  3  0  0  0  0  0  0
  186.4560  177.4140  139.9780 C   0  0  0  0  0  3  0  0  0  0  0  0
  190.7580  176.2210  145.6570 N   0  0  0  0  0  0  0  0  0  0  0  0
  190.5630  176.0940  144.3880 C   0  0  0  0  0  3  0  0  0  0  0  0
  188.2480  176.9830  144.5810 C   0  0  2  0  0  3  0  0  0  0  0  0
  189.7170  172.1460  141.8240 N   0  0  0  0  0  0  0  0  0  0  0  0
  189.3330  174.8660  142.1350 C   0  0  0  0  0  0  0  0  0  0  0  0
  190.5580  174.3750  141.6620 C   0  0  0  0  0  3  0  0  0  0  0  0
  190.7310  172.9980  141.5130 C   0  0  0  0  0  3  0  0  0  0  0  0
  188.5200  172.6010  142.2830 C   0  0  0  0  0  3  0  0  0  0  0  0
  188.3070  173.9710  142.4460 C   0  0  0  0  0  3  0  0  0  0  0  0
  1 15  1  6  0  0  0
  1 20  1  0  0  0  0
  1 21  1  0  0  0  0
  2  6  1  6  0  0  0
  2 12  1  0  0  0  0
  2 11  1  0  0  0  0
  4 14  2  0  0  0  0
  4 13  1  0  0  0  0
  5 13  1  0  0  0  0
  9  7  1  0  0  0  0
 11  3  1  1  0  0  0
 12 23  1  1  0  0  0
 12  1  1  0  0  0  0
 13  9  1  0  0  0  0
 14 16  1  0  0  0  0
 16 11  1  0  0  0  0
 16  7  1  1  0  0  0
 17 10  1  0  0  0  0
 17  8  1  1  0  0  0
 18  6  2  0  0  0  0
 18 14  1  0  0  0  0
 19 10  1  0  0  0  0
 20 19  2  0  0  0  0
 21  3  1  6  0  0  0
 21 17  1  0  0  0  0
 22 26  1  0  0  0  0
 23 27  1  0  0  0  0
 24 23  2  0  0  0  0
 25 24  1  0  0  0  0
 25 22  2  0  0  0  0
 26 27  2  0  0  0  0
M  END
>  <MODEL>
1

>  <REMARK>
 VINA RESULT:      -8.2      0.000      0.000
  Name = 
  1 active torsions:
  status: ('A' for Active; 'I' for Inactive)
    1  A    between atoms: C_9  and  C_15
                            x       y       z     vdW  Elec       q    Type
                         _______ _______ _______ _____ _____    ______ ____

>  <TORSDO>
F 1

$$$$
=
 OpenBabel11052418213D

 27 31  0  0  1  0  0  0  0  0999 V2000
  191.4170  176.0220  143.6260 C   0  0  2  0  0  0  0  0  0  0  0  0
  188.8620  176.0470  143.4270 C   0  0  2  0  0  3  0  0  0  0  0  0
  190.0330  177.2130  145.3350 O   0  0  0  0  0  0  0  0  0  0  0  0
  185.3270  177.8300  144.3150 C   0  0  0  0  0  3  0  0  0  0  0  0
  183.7430  178.6600  146.0410 C   0  0  0  0  0  1  0  0  0  0  0  0
  187.8870  176.2990  142.3650 N   0  0  0  0  0  0  0  0  0  0  0  0
  187.3900  177.5570  146.2380 C   0  0  0  0  0  2  0  0  0  0  0  0
  191.9720  175.2970  147.2190 C   0  0  0  0  0  1  0  0  0  0  0  0
  186.1640  178.3790  146.6510 C   0  0  0  0  0  2  0  0  0  0  0  0
  193.5420  176.1400  145.4680 C   0  0  0  0  0  2  0  0  0  0  0  0
  189.0700  177.3140  144.2900 C   0  0  2  0  0  3  0  0  0  0  0  0
  190.1810  175.5400  142.8230 C   0  0  2  0  0  3  0  0  0  0  0  0
  185.0870  178.2690  145.6600 N   0  0  0  0  0  0  0  0  0  0  0  0
  186.5700  177.5960  143.8920 C   0  0  0  0  0  0  0  0  0  0  0  0
  191.8790  177.3540  143.0420 C   0  0  0  0  0  1  0  0  0  0  0  0
  187.7390  177.9070  144.7950 C   0  0  1  0  0  3  0  0  0  0  0  0
  192.1570  176.3130  146.1090 C   0  0  1  0  0  3  0  0  0  0  0  0
  186.7990  176.9750  142.5820 C   0  0  0  0  0  3  0  0  0  0  0  0
  193.5310  175.1240  144.4340 N   0  0  0  0  0  0  0  0  0  0  0  0
  192.5820  175.0610  143.5640 C   0  0  0  0  0  3  0  0  0  0  0  0
  190.9940  176.1940  145.1080 C   0  0  2  0  0  3  0  0  0  0  0  0
  189.9200  171.3170  142.2480 N   0  0  0  0  0  0  0  0  0  0  0  0
  190.0980  174.0530  142.6060 C   0  0  0  0  0  0  0  0  0  0  0  0
  190.4890  173.4730  141.3920 C   0  0  0  0  0  3  0  0  0  0  0  0
  190.3900  172.0890  141.2320 C   0  0  0  0  0  3  0  0  0  0  0  0
  189.5350  171.8600  143.4350 C   0  0  0  0  0  3  0  0  0  0  0  0
  189.6170  173.2390  143.6350 C   0  0  0  0  0  3  0  0  0  0  0  0
  1 15  1  6  0  0  0
  1 21  1  0  0  0  0
  2  6  1  6  0  0  0
  2 11  1  0  0  0  0
  4 13  1  0  0  0  0
  6 18  2  0  0  0  0
  7  9  1  0  0  0  0
 10 17  1  0  0  0  0
 11 16  1  0  0  0  0
 11  3  1  1  0  0  0
 12 23  1  1  0  0  0
 12  2  1  0  0  0  0
 12  1  1  0  0  0  0
 13  5  1  0  0  0  0
 13  9  1  0  0  0  0
 14  4  2  0  0  0  0
 14 16  1  0  0  0  0
 16  7  1  1  0  0  0
 17  8  1  1  0  0  0
 18 14  1  0  0  0  0
 19 10  1  0  0  0  0
 20  1  1  0  0  0  0
 20 19  2  0  0  0  0
 21  3  1  6  0  0  0
 21 17  1  0  0  0  0
 22 26  1  0  0  0  0
 23 27  1  0  0  0  0
 24 23  2  0  0  0  0
 25 24  1  0  0  0  0
 25 22  2  0  0  0  0
 26 27  2  0  0  0  0
M  END
>  <MODEL>
2

>  <REMARK>
 VINA RESULT:      -7.8      2.257      3.094
  Name = 
  1 active torsions:
  status: ('A' for Active; 'I' for Inactive)
    1  A    between atoms: C_9  and  C_15
                            x       y       z     vdW  Elec       q    Type
                         _______ _______ _______ _____ _____    ______ ____

>  <TORSDO>
F 1

$$$$
=
 OpenBabel11052418213D

 27 31  0  0  1  0  0  0  0  0999 V2000
  190.7130  173.5050  144.3900 C   0  0  2  0  0  0  0  0  0  0  0  0
  189.7930  175.7870  145.1030 C   0  0  2  0  0  3  0  0  0  0  0  0
  188.8110  174.5420  143.1400 O   0  0  0  0  0  0  0  0  0  0  0  0
  186.7120  178.4280  145.1540 C   0  0  0  0  0  3  0  0  0  0  0  0
  185.0640  179.7910  143.8880 C   0  0  0  0  0  1  0  0  0  0  0  0
  189.3980  176.4210  146.3630 N   0  0  0  0  0  0  0  0  0  0  0  0
  187.3680  176.9390  142.8350 C   0  0  0  0  0  2  0  0  0  0  0  0
  190.9300  173.8030  140.7020 C   0  0  0  0  0  1  0  0  0  0  0  0
  186.0950  177.7900  142.7730 C   0  0  0  0  0  2  0  0  0  0  0  0
  191.0500  171.7940  142.1810 C   0  0  0  0  0  2  0  0  0  0  0  0
  188.5550  175.2270  144.3630 C   0  0  2  0  0  3  0  0  0  0  0  0
  190.8460  174.7000  145.3680 C   0  0  2  0  0  3  0  0  0  0  0  0
  185.9810  178.6690  143.9420 N   0  0  0  0  0  0  0  0  0  0  0  0
  187.4570  177.3300  145.2880 C   0  0  0  0  0  0  0  0  0  0  0  0
  189.7710  172.4780  145.0130 C   0  0  0  0  0  1  0  0  0  0  0  0
  187.4370  176.2760  144.2070 C   0  0  1  0  0  3  0  0  0  0  0  0
  190.2700  173.0760  141.8560 C   0  0  1  0  0  3  0  0  0  0  0  0
  188.3440  177.1760  146.4470 C   0  0  0  0  0  3  0  0  0  0  0  0
  192.1600  172.0530  143.0750 N   0  0  0  0  0  0  0  0  0  0  0  0
  192.0270  172.8140  144.1080 C   0  0  0  0  0  3  0  0  0  0  0  0
  190.1340  174.0350  143.0530 C   0  0  2  0  0  3  0  0  0  0  0  0
  194.7110  176.5100  145.5100 N   0  0  0  0  0  0  0  0  0  0  0  0
  192.2130  175.3280  145.4300 C   0  0  0  0  0  0  0  0  0  0  0  0
  193.0870  175.0590  146.4920 C   0  0  0  0  0  3  0  0  0  0  0  0
  194.3450  175.6670  146.5130 C   0  0  0  0  0  3  0  0  0  0  0  0
  193.8780  176.7840  144.4710 C   0  0  0  0  0  3  0  0  0  0  0  0
  192.6130  176.1980  144.4130 C   0  0  0  0  0  3  0  0  0  0  0  0
  1 15  1  1  0  0  0
  1 12  1  0  0  0  0
  2 12  1  0  0  0  0
  2  6  1  1  0  0  0
  4 14  2  0  0  0  0
  5 13  1  0  0  0  0
  6 18  2  0  0  0  0
  9  7  1  0  0  0  0
  9 13  1  0  0  0  0
 10 19  1  0  0  0  0
 11  3  1  6  0  0  0
 11  2  1  0  0  0  0
 12 23  1  6  0  0  0
 13  4  1  0  0  0  0
 14 18  1  0  0  0  0
 16  7  1  6  0  0  0
 16 11  1  0  0  0  0
 16 14  1  0  0  0  0
 17  8  1  6  0  0  0
 17 10  1  0  0  0  0
 17 21  1  0  0  0  0
 19 20  2  0  0  0  0
 20  1  1  0  0  0  0
 21  3  1  1  0  0  0
 21  1  1  0  0  0  0
 22 25  1  0  0  0  0
 23 24  1  0  0  0  0
 24 25  2  0  0  0  0
 26 22  2  0  0  0  0
 27 26  1  0  0  0  0
 27 23  2  0  0  0  0
M  END
>  <MODEL>
3

>  <REMARK>
 VINA RESULT:      -6.9      2.416      5.214
  Name = 
  1 active torsions:
  status: ('A' for Active; 'I' for Inactive)
    1  A    between atoms: C_9  and  C_15
                            x       y       z     vdW  Elec       q    Type
                         _______ _______ _______ _____ _____    ______ ____

>  <TORSDO>
F 1

$$$$
=
 OpenBabel11052418213D

 27 31  0  0  1  0  0  0  0  0999 V2000
  193.3400  174.3510  144.8010 C   0  0  2  0  0  0  0  0  0  0  0  0
  192.1580  176.2390  143.5350 C   0  0  2  0  0  3  0  0  0  0  0  0
  191.0560  173.9900  143.8480 O   0  0  0  0  0  0  0  0  0  0  0  0
  188.6980  177.9160  142.2360 C   0  0  0  0  0  3  0  0  0  0  0  0
  186.5910  177.6970  140.9370 C   0  0  0  0  0  1  0  0  0  0  0  0
  191.9150  177.6660  143.7510 N   0  0  0  0  0  0  0  0  0  0  0  0
  189.1410  175.1200  142.1220 C   0  0  0  0  0  2  0  0  0  0  0  0
  192.7300  171.3910  142.6560 C   0  0  0  0  0  1  0  0  0  0  0  0
  187.7410  175.6140  141.7420 C   0  0  0  0  0  2  0  0  0  0  0  0
  193.5420  171.5520  145.0130 C   0  0  0  0  0  2  0  0  0  0  0  0
  190.9290  175.4040  143.9660 C   0  0  2  0  0  3  0  0  0  0  0  0
  193.4350  175.8050  144.2710 C   0  0  2  0  0  3  0  0  0  0  0  0
  187.7000  177.0770  141.6350 N   0  0  0  0  0  0  0  0  0  0  0  0
  189.6550  177.3870  143.0010 C   0  0  0  0  0  0  0  0  0  0  0  0
  192.7660  174.3930  146.2150 C   0  0  0  0  0  1  0  0  0  0  0  0
  189.6190  175.9140  143.3330 C   0  0  1  0  0  3  0  0  0  0  0  0
  192.4770  172.0210  144.0110 C   0  0  1  0  0  3  0  0  0  0  0  0
  190.7740  178.2170  143.4620 C   0  0  0  0  0  3  0  0  0  0  0  0
  194.7410  172.3640  144.9410 N   0  0  0  0  0  0  0  0  0  0  0  0
  194.6770  173.6500  144.8670 C   0  0  0  0  0  3  0  0  0  0  0  0
  192.4060  173.5510  143.8580 C   0  0  2  0  0  3  0  0  0  0  0  0
  196.8140  176.6260  141.7920 N   0  0  0  0  0  0  0  0  0  0  0  0
  194.6360  176.0950  143.4100 C   0  0  0  0  0  0  0  0  0  0  0  0
  195.8440  176.5280  143.9730 C   0  0  0  0  0  3  0  0  0  0  0  0
  196.9320  176.7910  143.1370 C   0  0  0  0  0  3  0  0  0  0  0  0
  195.6500  176.2070  141.2260 C   0  0  0  0  0  3  0  0  0  0  0  0
  194.5400  175.9340  142.0260 C   0  0  0  0  0  3  0  0  0  0  0  0
  1 20  1  0  0  0  0
  1 15  1  1  0  0  0
  2  6  1  1  0  0  0
  2 11  1  0  0  0  0
  2 12  1  0  0  0  0
  4 14  2  0  0  0  0
  5 13  1  0  0  0  0
  9  7  1  0  0  0  0
 11  3  1  6  0  0  0
 12 23  1  6  0  0  0
 12  1  1  0  0  0  0
 13  9  1  0  0  0  0
 13  4  1  0  0  0  0
 14 16  1  0  0  0  0
 14 18  1  0  0  0  0
 16  7  1  6  0  0  0
 16 11  1  0  0  0  0
 17  8  1  6  0  0  0
 17 10  1  0  0  0  0
 18  6  2  0  0  0  0
 19 10  1  0  0  0  0
 20 19  2  0  0  0  0
 21  3  1  1  0  0  0
 21 17  1  0  0  0  0
 21  1  1  0  0  0  0
 22 25  1  0  0  0  0
 23 24  1  0  0  0  0
 25 24  2  0  0  0  0
 26 22  2  0  0  0  0
 26 27  1  0  0  0  0
 27 23  2  0  0  0  0
M  END
>  <MODEL>
4

>  <REMARK>
 VINA RESULT:      -6.7      3.708      5.878
  Name = 
  1 active torsions:
  status: ('A' for Active; 'I' for Inactive)
    1  A    between atoms: C_9  and  C_15
                            x       y       z     vdW  Elec       q    Type
                         _______ _______ _______ _____ _____    ______ ____

>  <TORSDO>
F 1

$$$$
=
 OpenBabel11052418213D

 27 31  0  0  1  0  0  0  0  0999 V2000
  194.5610  175.4640  144.0890 C   0  0  2  0  0  0  0  0  0  0  0  0
  192.1830  176.2540  143.5550 C   0  0  2  0  0  3  0  0  0  0  0  0
  192.7120  175.0930  145.7320 O   0  0  0  0  0  0  0  0  0  0  0  0
  188.5180  177.3850  144.8820 C   0  0  0  0  0  3  0  0  0  0  0  0
  186.4790  176.8490  146.1970 C   0  0  0  0  0  1  0  0  0  0  0  0
  191.5670  177.4770  143.0370 N   0  0  0  0  0  0  0  0  0  0  0  0
  189.9150  175.2010  146.0250 C   0  0  0  0  0  2  0  0  0  0  0  0
  194.0260  172.0630  145.4640 C   0  0  0  0  0  1  0  0  0  0  0  0
  188.6100  175.6220  146.7100 C   0  0  0  0  0  2  0  0  0  0  0  0
  196.0360  173.5460  145.5270 C   0  0  0  0  0  2  0  0  0  0  0  0
  192.1040  176.2150  145.1000 C   0  0  2  0  0  3  0  0  0  0  0  0
  193.6290  176.1380  143.0500 C   0  0  2  0  0  3  0  0  0  0  0  0
  187.8800  176.6120  145.9090 N   0  0  0  0  0  0  0  0  0  0  0  0
  189.8340  177.2930  144.6850 C   0  0  0  0  0  0  0  0  0  0  0  0
  195.1570  176.5540  144.9760 C   0  0  0  0  0  1  0  0  0  0  0  0
  190.6750  176.4610  145.6230 C   0  0  1  0  0  3  0  0  0  0  0  0
  194.5200  173.4640  145.7630 C   0  0  1  0  0  3  0  0  0  0  0  0
  190.4540  177.9400  143.5220 C   0  0  0  0  0  3  0  0  0  0  0  0
  196.3490  173.8120  144.1370 N   0  0  0  0  0  0  0  0  0  0  0  0
  195.7040  174.7020  143.4620 C   0  0  0  0  0  3  0  0  0  0  0  0
  193.7120  174.4790  144.9340 C   0  0  2  0  0  3  0  0  0  0  0  0
  193.6070  174.3360  139.1780 N   0  0  0  0  0  0  0  0  0  0  0  0
  193.6360  175.5090  141.6820 C   0  0  0  0  0  0  0  0  0  0  0  0
  194.5680  175.8960  140.7100 C   0  0  0  0  0  3  0  0  0  0  0  0
  194.5360  175.2910  139.4520 C   0  0  0  0  0  3  0  0  0  0  0  0
  192.6920  173.9460  140.1070 C   0  0  0  0  0  3  0  0  0  0  0  0
  192.6910  174.5270  141.3760 C   0  0  0  0  0  3  0  0  0  0  0  0
  1 21  1  0  0  0  0
  1 15  1  1  0  0  0
  2  6  1  1  0  0  0
  2 11  1  0  0  0  0
  4 13  1  0  0  0  0
  6 18  2  0  0  0  0
  7  9  1  0  0  0  0
 10 17  1  0  0  0  0
 11 16  1  0  0  0  0
 11  3  1  6  0  0  0
 12 23  1  6  0  0  0
 12  2  1  0  0  0  0
 12  1  1  0  0  0  0
 13  5  1  0  0  0  0
 13  9  1  0  0  0  0
 14  4  2  0  0  0  0
 14 16  1  0  0  0  0
 16  7  1  6  0  0  0
 17  8  1  6  0  0  0
 18 14  1  0  0  0  0
 19 10  1  0  0  0  0
 20  1  1  0  0  0  0
 20 19  2  0  0  0  0
 21  3  1  1  0  0  0
 21 17  1  0  0  0  0
 22 25  2  0  0  0  0
 22 26  1  0  0  0  0
 24 23  2  0  0  0  0
 25 24  1  0  0  0  0
 26 27  2  0  0  0  0
 27 23  1  0  0  0  0
M  END
>  <MODEL>
5

>  <REMARK>
 VINA RESULT:      -6.7      4.046      5.894
  Name = 
  1 active torsions:
  status: ('A' for Active; 'I' for Inactive)
    1  A    between atoms: C_9  and  C_15
                            x       y       z     vdW  Elec       q    Type
                         _______ _______ _______ _____ _____    ______ ____

>  <TORSDO>
F 1

$$$$
=
 OpenBabel11052418213D

 27 31  0  0  1  0  0  0  0  0999 V2000
  189.7980  175.3800  145.9280 C   0  0  2  0  0  0  0  0  0  0  0  0
  189.8540  173.9550  143.7980 C   0  0  2  0  0  3  0  0  0  0  0  0
  191.7500  173.8870  145.4610 O   0  0  0  0  0  0  0  0  0  0  0  0
  191.2660  170.6970  141.8350 C   0  0  0  0  0  3  0  0  0  0  0  0
  193.2170  169.4000  141.0040 C   0  0  0  0  0  1  0  0  0  0  0  0
  188.9240  173.0700  143.0940 N   0  0  0  0  0  0  0  0  0  0  0  0
  192.9390  172.3070  143.4580 C   0  0  0  0  0  2  0  0  0  0  0  0
  193.2220  176.7910  146.0830 C   0  0  0  0  0  1  0  0  0  0  0  0
  193.5540  171.0230  142.8910 C   0  0  0  0  0  2  0  0  0  0  0  0
  191.4250  176.6870  147.8150 C   0  0  0  0  0  2  0  0  0  0  0  0
  190.8220  173.1370  144.6850 C   0  0  2  0  0  3  0  0  0  0  0  0
  189.0730  175.0000  144.6110 C   0  0  2  0  0  3  0  0  0  0  0  0
  192.6670  170.3940  141.9060 N   0  0  0  0  0  0  0  0  0  0  0  0
  190.7010  171.5010  142.7370 C   0  0  0  0  0  0  0  0  0  0  0  0
  189.3160  174.4390  147.0290 C   0  0  0  0  0  1  0  0  0  0  0  0
  191.5140  172.0000  143.9080 C   0  0  1  0  0  3  0  0  0  0  0  0
  192.2140  175.8890  146.7660 C   0  0  1  0  0  3  0  0  0  0  0  0
  189.3160  171.9540  142.5580 C   0  0  0  0  0  3  0  0  0  0  0  0
  190.2960  177.3780  147.2260 N   0  0  0  0  0  0  0  0  0  0  0  0
  189.5210  176.7950  146.3760 C   0  0  0  0  0  3  0  0  0  0  0  0
  191.3240  175.2190  145.7040 C   0  0  2  0  0  3  0  0  0  0  0  0
  187.9990  178.2930  142.1130 N   0  0  0  0  0  0  0  0  0  0  0  0
  188.7090  176.1600  143.7230 C   0  0  0  0  0  0  0  0  0  0  0  0
  189.6840  176.8410  142.9820 C   0  0  0  0  0  3  0  0  0  0  0  0
  189.3040  177.9150  142.1750 C   0  0  0  0  0  3  0  0  0  0  0  0
  187.0360  177.6460  142.8250 C   0  0  0  0  0  3  0  0  0  0  0  0
  187.3750  176.5670  143.6430 C   0  0  0  0  0  3  0  0  0  0  0  0
  1 20  1  0  0  0  0
  1 15  1  1  0  0  0
  2  6  1  1  0  0  0
  2 12  1  0  0  0  0
  2 11  1  0  0  0  0
  4 13  1  0  0  0  0
  4 14  2  0  0  0  0
  5 13  1  0  0  0  0
  9  7  1  0  0  0  0
 11  3  1  6  0  0  0
 12 23  1  6  0  0  0
 12  1  1  0  0  0  0
 13  9  1  0  0  0  0
 14 16  1  0  0  0  0
 16  7  1  6  0  0  0
 16 11  1  0  0  0  0
 17  8  1  6  0  0  0
 17 10  1  0  0  0  0
 18 14  1  0  0  0  0
 18  6  2  0  0  0  0
 19 10  1  0  0  0  0
 20 19  2  0  0  0  0
 21  3  1  1  0  0  0
 21  1  1  0  0  0  0
 21 17  1  0  0  0  0
 22 25  2  0  0  0  0
 22 26  1  0  0  0  0
 24 23  2  0  0  0  0
 25 24  1  0  0  0  0
 26 27  2  0  0  0  0
 27 23  1  0  0  0  0
M  END
>  <MODEL>
6

>  <REMARK>
 VINA RESULT:      -6.7      2.691      6.908
  Name = 
  1 active torsions:
  status: ('A' for Active; 'I' for Inactive)
    1  A    between atoms: C_9  and  C_15
                            x       y       z     vdW  Elec       q    Type
                         _______ _______ _______ _____ _____    ______ ____

>  <TORSDO>
F 1

$$$$
=
 OpenBabel11052418213D

 27 31  0  0  1  0  0  0  0  0999 V2000
  189.6500  175.0490  144.6360 C   0  0  2  0  0  0  0  0  0  0  0  0
  191.4800  173.3490  144.0660 C   0  0  2  0  0  3  0  0  0  0  0  0
  192.0310  175.5090  145.2490 O   0  0  0  0  0  0  0  0  0  0  0  0
  195.1640  171.8250  144.8250 C   0  0  0  0  0  3  0  0  0  0  0  0
  197.6120  172.1980  145.0400 C   0  0  0  0  0  1  0  0  0  0  0  0
  191.6570  171.9010  144.1980 N   0  0  0  0  0  0  0  0  0  0  0  0
  194.6670  174.6150  144.8360 C   0  0  0  0  0  2  0  0  0  0  0  0
  191.1720  178.2820  143.6520 C   0  0  0  0  0  1  0  0  0  0  0  0
  196.0610  174.1590  145.2830 C   0  0  0  0  0  2  0  0  0  0  0  0
  189.1600  177.7890  145.0480 C   0  0  0  0  0  2  0  0  0  0  0  0
  192.1690  174.0910  145.2360 C   0  0  2  0  0  3  0  0  0  0  0  0
  189.9850  173.6900  143.9680 C   0  0  2  0  0  3  0  0  0  0  0  0
  196.2620  172.7270  145.0320 N   0  0  0  0  0  0  0  0  0  0  0  0
  193.9070  172.2510  144.9490 C   0  0  0  0  0  0  0  0  0  0  0  0
  189.3020  174.7900  146.1000 C   0  0  0  0  0  1  0  0  0  0  0  0
  193.6360  173.6580  145.4260 C   0  0  1  0  0  3  0  0  0  0  0  0
  190.6390  177.4560  144.8050 C   0  0  1  0  0  3  0  0  0  0  0  0
  192.7900  171.3810  144.5600 C   0  0  0  0  0  3  0  0  0  0  0  0
  188.2870  177.0160  144.1880 N   0  0  0  0  0  0  0  0  0  0  0  0
  188.4750  175.7540  144.0000 C   0  0  0  0  0  3  0  0  0  0  0  0
  190.8970  175.9630  144.5270 C   0  0  2  0  0  3  0  0  0  0  0  0
  188.6480  173.2770  139.9340 N   0  0  0  0  0  0  0  0  0  0  0  0
  189.5290  173.5490  142.5410 C   0  0  0  0  0  0  0  0  0  0  0  0
  190.2880  174.0640  141.4810 C   0  0  0  0  0  3  0  0  0  0  0  0
  189.8250  173.9150  140.1720 C   0  0  0  0  0  3  0  0  0  0  0  0
  187.8940  172.7710  140.9480 C   0  0  0  0  0  3  0  0  0  0  0  0
  188.3220  172.8980  142.2700 C   0  0  0  0  0  3  0  0  0  0  0  0
  1 15  1  1  0  0  0
  2  6  1  1  0  0  0
  2 11  1  0  0  0  0
  4 14  2  0  0  0  0
  4 13  1  0  0  0  0
  6 18  2  0  0  0  0
  7  9  1  0  0  0  0
 11  3  1  6  0  0  0
 11 16  1  0  0  0  0
 12 23  1  6  0  0  0
 12  2  1  0  0  0  0
 12  1  1  0  0  0  0
 13  5  1  0  0  0  0
 13  9  1  0  0  0  0
 14 16  1  0  0  0  0
 16  7  1  6  0  0  0
 17  8  1  6  0  0  0
 17 10  1  0  0  0  0
 18 14  1  0  0  0  0
 19 10  1  0  0  0  0
 20 19  2  0  0  0  0
 20  1  1  0  0  0  0
 21  1  1  0  0  0  0
 21 17  1  0  0  0  0
 21  3  1  1  0  0  0
 22 25  2  0  0  0  0
 22 26  1  0  0  0  0
 24 23  2  0  0  0  0
 25 24  1  0  0  0  0
 26 27  2  0  0  0  0
 27 23  1  0  0  0  0
M  END
>  <MODEL>
7

>  <REMARK>
 VINA RESULT:      -6.6      3.630      7.692
  Name = 
  1 active torsions:
  status: ('A' for Active; 'I' for Inactive)
    1  A    between atoms: C_9  and  C_15
                            x       y       z     vdW  Elec       q    Type
                         _______ _______ _______ _____ _____    ______ ____

>  <TORSDO>
F 1

$$$$
=
 OpenBabel11052418213D

 27 31  0  0  1  0  0  0  0  0999 V2000
  190.2840  173.0370  142.4740 C   0  0  2  0  0  0  0  0  0  0  0  0
  189.7830  175.2770  143.6130 C   0  0  2  0  0  3  0  0  0  0  0  0
  188.2920  174.3830  141.7840 O   0  0  0  0  0  0  0  0  0  0  0  0
  187.0860  178.1390  144.6130 C   0  0  0  0  0  3  0  0  0  0  0  0
  185.3740  179.7880  143.8880 C   0  0  0  0  0  1  0  0  0  0  0  0
  189.7250  175.7730  144.9890 N   0  0  0  0  0  0  0  0  0  0  0  0
  187.0880  176.9120  142.0590 C   0  0  0  0  0  2  0  0  0  0  0  0
  189.7750  173.7910  138.8810 C   0  0  0  0  0  1  0  0  0  0  0  0
  185.9300  177.8680  142.3660 C   0  0  0  0  0  2  0  0  0  0  0  0
  189.9730  171.6040  140.0720 C   0  0  0  0  0  2  0  0  0  0  0  0
  188.3670  174.9230  143.1000 C   0  0  2  0  0  3  0  0  0  0  0  0
  190.7430  174.0800  143.5250 C   0  0  2  0  0  3  0  0  0  0  0  0
  186.1540  178.5950  143.6210 N   0  0  0  0  0  0  0  0  0  0  0  0
  187.7170  176.9740  144.4630 C   0  0  0  0  0  0  0  0  0  0  0  0
  189.3820  172.0210  143.1700 C   0  0  0  0  0  1  0  0  0  0  0  0
  187.3620  176.0740  143.3040 C   0  0  1  0  0  3  0  0  0  0  0  0
  189.2890  172.9790  140.0640 C   0  0  1  0  0  3  0  0  0  0  0  0
  188.8000  176.5970  145.3800 C   0  0  0  0  0  3  0  0  0  0  0  0
  191.2640  171.6510  140.7290 N   0  0  0  0  0  0  0  0  0  0  0  0
  191.4280  172.2810  141.8420 C   0  0  0  0  0  3  0  0  0  0  0  0
  189.5050  173.7830  141.3600 C   0  0  2  0  0  3  0  0  0  0  0  0
  194.7300  175.5260  143.0280 N   0  0  0  0  0  0  0  0  0  0  0  0
  192.1550  174.5770  143.3580 C   0  0  0  0  0  0  0  0  0  0  0  0
  193.2020  174.0620  144.1340 C   0  0  0  0  0  3  0  0  0  0  0  0
  194.4950  174.5550  143.9500 C   0  0  0  0  0  3  0  0  0  0  0  0
  193.7280  176.0410  142.2650 C   0  0  0  0  0  3  0  0  0  0  0  0
  192.4210  175.5750  142.4170 C   0  0  0  0  0  3  0  0  0  0  0  0
  1 15  1  1  0  0  0
  1 12  1  0  0  0  0
  2  6  1  1  0  0  0
  6 18  2  0  0  0  0
  7  9  1  0  0  0  0
  9 13  1  0  0  0  0
 10 19  1  0  0  0  0
 11  3  1  6  0  0  0
 11 16  1  0  0  0  0
 11  2  1  0  0  0  0
 12 23  1  6  0  0  0
 12  2  1  0  0  0  0
 13  5  1  0  0  0  0
 13  4  1  0  0  0  0
 14  4  2  0  0  0  0
 14 18  1  0  0  0  0
 16  7  1  6  0  0  0
 16 14  1  0  0  0  0
 17  8  1  6  0  0  0
 17 10  1  0  0  0  0
 17 21  1  0  0  0  0
 19 20  2  0  0  0  0
 20  1  1  0  0  0  0
 21  3  1  1  0  0  0
 21  1  1  0  0  0  0
 22 25  1  0  0  0  0
 23 24  1  0  0  0  0
 25 24  2  0  0  0  0
 26 27  1  0  0  0  0
 26 22  2  0  0  0  0
 27 23  2  0  0  0  0
M  END
>  <MODEL>
8

>  <REMARK>
 VINA RESULT:      -6.5      2.408      5.120
  Name = 
  1 active torsions:
  status: ('A' for Active; 'I' for Inactive)
    1  A    between atoms: C_9  and  C_15
                            x       y       z     vdW  Elec       q    Type
                         _______ _______ _______ _____ _____    ______ ____

>  <TORSDO>
F 1

$$$$
=
 OpenBabel11052418213D

 27 31  0  0  1  0  0  0  0  0999 V2000
  189.6270  175.3660  144.9760 C   0  0  2  0  0  0  0  0  0  0  0  0
  188.9850  174.6170  142.6110 C   0  0  2  0  0  3  0  0  0  0  0  0
  191.3740  174.4890  143.4150 O   0  0  0  0  0  0  0  0  0  0  0  0
  189.8160  172.3770  139.3310 C   0  0  0  0  0  3  0  0  0  0  0  0
  191.4030  171.7820  137.5140 C   0  0  0  0  0  1  0  0  0  0  0  0
  187.9380  173.7860  142.0130 N   0  0  0  0  0  0  0  0  0  0  0  0
  191.8350  173.7910  140.7280 C   0  0  0  0  0  2  0  0  0  0  0  0
  192.7080  177.3510  144.4200 C   0  0  0  0  0  1  0  0  0  0  0  0
  192.2960  172.8640  139.5980 C   0  0  0  0  0  2  0  0  0  0  0  0
  191.7330  176.4140  146.5210 C   0  0  0  0  0  2  0  0  0  0  0  0
  190.2880  173.8040  142.7970 C   0  0  2  0  0  3  0  0  0  0  0  0
  188.4880  175.2190  143.9350 C   0  0  2  0  0  3  0  0  0  0  0  0
  191.1570  172.3590  138.8210 N   0  0  0  0  0  0  0  0  0  0  0  0
  189.5730  172.7710  140.5820 C   0  0  0  0  0  0  0  0  0  0  0  0
  189.6910  174.0830  145.8010 C   0  0  0  0  0  1  0  0  0  0  0  0
  190.7260  173.0890  141.5040 C   0  0  1  0  0  3  0  0  0  0  0  0
  192.1250  176.1110  145.0670 C   0  0  1  0  0  3  0  0  0  0  0  0
  188.1910  172.9630  141.0410 C   0  0  0  0  0  3  0  0  0  0  0  0
  190.4080  176.9940  146.6100 N   0  0  0  0  0  0  0  0  0  0  0  0
  189.4200  176.5180  145.9310 C   0  0  0  0  0  3  0  0  0  0  0  0
  190.9570  175.5880  144.2100 C   0  0  2  0  0  3  0  0  0  0  0  0
  186.3040  178.7930  143.1050 N   0  0  0  0  0  0  0  0  0  0  0  0
  187.7090  176.4770  143.6560 C   0  0  0  0  0  0  0  0  0  0  0  0
  186.5530  176.7910  144.3820 C   0  0  0  0  0  3  0  0  0  0  0  0
  185.8580  177.9660  144.0880 C   0  0  0  0  0  3  0  0  0  0  0  0
  187.4240  178.5070  142.3870 C   0  0  0  0  0  3  0  0  0  0  0  0
  188.1470  177.3420  142.6500 C   0  0  0  0  0  3  0  0  0  0  0  0
  1 15  1  1  0  0  0
  1 20  1  0  0  0  0
  2  6  1  1  0  0  0
  2 11  1  0  0  0  0
  2 12  1  0  0  0  0
  4 14  2  0  0  0  0
  5 13  1  0  0  0  0
  9  7  1  0  0  0  0
 10 19  1  0  0  0  0
 11  3  1  6  0  0  0
 12 23  1  6  0  0  0
 12  1  1  0  0  0  0
 13  4  1  0  0  0  0
 13  9  1  0  0  0  0
 14 18  1  0  0  0  0
 14 16  1  0  0  0  0
 16  7  1  6  0  0  0
 16 11  1  0  0  0  0
 17  8  1  6  0  0  0
 17 10  1  0  0  0  0
 18  6  2  0  0  0  0
 20 19  2  0  0  0  0
 21  3  1  1  0  0  0
 21  1  1  0  0  0  0
 21 17  1  0  0  0  0
 22 25  1  0  0  0  0
 23 24  1  0  0  0  0
 25 24  2  0  0  0  0
 26 27  1  0  0  0  0
 26 22  2  0  0  0  0
 27 23  2  0  0  0  0
M  END
>  <MODEL>
9

>  <REMARK>
 VINA RESULT:      -6.5      2.430      6.123
  Name = 
  1 active torsions:
  status: ('A' for Active; 'I' for Inactive)
    1  A    between atoms: C_9  and  C_15
                            x       y       z     vdW  Elec       q    Type
                         _______ _______ _______ _____ _____    ______ ____

>  <TORSDO>
F 1

$$$$
