=
 OpenBabel11052417143D

 30 32  0  0  1  0  0  0  0  0999 V2000
  189.2640  177.0120  143.1540 C   0  0  1  0  0  3  0  0  0  0  0  0
  190.4490  176.4230  142.4060 C   0  0  1  0  0  3  0  0  0  0  0  0
  191.6760  176.7320  143.2410 C   0  0  0  0  0  2  0  0  0  0  0  0
  189.8210  177.8260  144.3110 C   0  0  0  0  0  2  0  0  0  0  0  0
  191.3080  177.9480  144.0610 C   0  0  0  0  0  2  0  0  0  0  0  0
  188.9390  178.7400  141.5600 O   0  0  0  0  0  0  0  0  0  0  0  0
  188.4250  177.8630  142.2450 C   0  0  0  0  0  0  0  0  0  0  0  0
  186.9410  177.6540  142.2270 C   0  0  2  0  0  3  0  0  0  0  0  0
  187.0310  176.5670  140.0860 O   0  0  0  0  0  0  0  0  0  0  0  0
  186.4240  177.3670  140.8480 C   0  0  0  0  0  0  0  0  0  0  0  0
  185.2270  177.9950  140.4030 N   0  0  0  0  0  1  0  0  0  0  0  0
  186.2260  178.8380  142.8740 C   0  0  0  0  0  2  0  0  0  0  0  0
  184.0760  178.8980  143.8910 C   0  0  0  0  0  1  0  0  0  0  0  0
  185.4420  178.4100  144.0370 N   0  0  0  0  0  0  0  0  0  0  0  0
  186.0070  178.9020  145.2410 N   0  0  0  0  0  2  0  0  0  0  0  0
  187.2230  177.6750  146.9520 C   0  0  0  0  0  2  0  0  0  0  0  0
  186.6080  176.6730  146.0010 C   0  0  0  0  0  2  0  0  0  0  0  0
  185.8630  177.9450  146.3450 C   0  0  0  0  0  3  0  0  0  0  0  0
  190.2660  174.9190  142.2620 C   0  0  0  0  0  2  0  0  0  0  0  0
  189.1940  174.4530  143.1320 N   0  0  0  0  0  0  0  0  0  0  0  0
  188.2730  173.8670  142.3320 O   0  0  0  0  0  1  0  0  0  0  0  0
  189.7360  173.3970  143.9760 C   0  0  0  0  0  2  0  0  0  0  0  0
  191.1900  175.5870  147.7290 C   0  0  0  0  0  0  0  0  0  0  0  0
  192.2520  175.7800  146.6960 C   0  0  0  0  0  2  0  0  0  0  0  0
  191.4080  176.0590  148.9780 F   0  0  0  0  0  0  0  0  0  0  0  0
  190.3730  173.9690  145.2010 C   0  0  0  0  0  0  0  0  0  0  0  0
  192.6570  174.4870  146.0750 C   0  0  0  0  0  3  0  0  0  0  0  0
  189.9840  175.0960  147.4290 C   0  0  0  0  0  3  0  0  0  0  0  0
  191.8180  173.7180  145.3830 C   0  0  0  0  0  3  0  0  0  0  0  0
  189.5790  174.5350  146.1240 C   0  0  0  0  0  3  0  0  0  0  0  0
  1  7  1  6  0  0  0
  1  4  1  0  0  0  0
  2 19  1  1  0  0  0
  2  1  1  0  0  0  0
  2  3  1  0  0  0  0
  3  5  1  0  0  0  0
  5  4  1  0  0  0  0
  6  7  2  0  0  0  0
  8  7  1  0  0  0  0
  8 12  1  6  0  0  0
  9 10  2  0  0  0  0
 10  8  1  0  0  0  0
 11 10  1  0  0  0  0
 12 14  1  0  0  0  0
 13 14  1  0  0  0  0
 14 15  1  0  0  0  0
 15 18  1  0  0  0  0
 17 18  1  0  0  0  0
 17 16  1  0  0  0  0
 18 16  1  0  0  0  0
 19 20  1  0  0  0  0
 20 22  1  0  0  0  0
 21 20  1  0  0  0  0
 22 26  1  0  0  0  0
 23 25  1  0  0  0  0
 24 23  1  0  0  0  0
 26 29  1  0  0  0  0
 26 30  2  0  0  0  0
 27 24  1  0  0  0  0
 28 23  2  0  0  0  0
 29 27  2  0  0  0  0
 30 28  1  0  0  0  0
M  END
>  <MODEL>
1

>  <REMARK>
 VINA RESULT:      -6.4      0.000      0.000
  Name = 
  11 active torsions:
  status: ('A' for Active; 'I' for Inactive)
    1  A    between atoms: C_3  and  N_11
    2  A    between atoms: C_3  and  C_19
    3  A    between atoms: C_4  and  C_13
    4  A    between atoms: C_7  and  C_30
    5  A    between atoms: C_8  and  N_12
    6  A    between atoms: C_8  and  C_13
    7  A    between atoms: N_9  and  N_12
    8  A    between atoms: N_9  and  C_21
    9  A    between atoms: C_10  and  C_25
   10  A    between atoms: N_11  and  C_25
   11  A    between atoms: C_13  and  C_30
                            x       y       z     vdW  Elec       q    Type
                         _______ _______ _______ _____ _____    ______ ____

>  <TORSDO>
F 11

$$$$
=
 OpenBabel11052417143D

 30 32  0  0  1  0  0  0  0  0999 V2000
  189.9120  177.0090  144.6580 C   0  0  1  0  0  3  0  0  0  0  0  0
  189.6950  175.5050  144.6070 C   0  0  1  0  0  3  0  0  0  0  0  0
  189.0520  175.1230  145.9260 C   0  0  0  0  0  2  0  0  0  0  0  0
  189.5800  177.4650  146.0700 C   0  0  0  0  0  2  0  0  0  0  0  0
  189.4590  176.2050  146.9000 C   0  0  0  0  0  2  0  0  0  0  0  0
  191.5870  178.4420  143.7800 O   0  0  0  0  0  0  0  0  0  0  0  0
  191.3250  177.3600  144.2920 C   0  0  0  0  0  0  0  0  0  0  0  0
  192.4030  176.3440  144.5190 C   0  0  2  0  0  3  0  0  0  0  0  0
  192.8860  176.5050  146.8670 O   0  0  0  0  0  0  0  0  0  0  0  0
  193.2800  176.6960  145.6840 C   0  0  0  0  0  0  0  0  0  0  0  0
  194.5750  177.2370  145.4510 N   0  0  0  0  0  1  0  0  0  0  0  0
  193.2090  176.1230  143.2400 C   0  0  0  0  0  2  0  0  0  0  0  0
  192.0370  174.7290  141.7090 C   0  0  0  0  0  1  0  0  0  0  0  0
  193.0580  174.7500  142.7520 N   0  0  0  0  0  0  0  0  0  0  0  0
  192.6940  173.8720  143.8050 N   0  0  0  0  0  2  0  0  0  0  0  0
  191.0530  172.1630  144.3510 C   0  0  0  0  0  2  0  0  0  0  0  0
  192.3980  171.4910  144.1880 C   0  0  0  0  0  2  0  0  0  0  0  0
  192.0280  172.6630  143.3050 C   0  0  0  0  0  3  0  0  0  0  0  0
  188.7750  175.1600  143.4460 C   0  0  0  0  0  2  0  0  0  0  0  0
  188.1650  176.3690  142.9050 N   0  0  0  0  0  0  0  0  0  0  0  0
  188.4210  176.3700  141.5760 O   0  0  0  0  0  1  0  0  0  0  0  0
  186.7210  176.2360  143.0460 C   0  0  0  0  0  2  0  0  0  0  0  0
  184.7890  178.2470  146.6810 C   0  0  0  0  0  0  0  0  0  0  0  0
  184.4300  179.0880  145.5000 C   0  0  0  0  0  2  0  0  0  0  0  0
  184.4180  178.6690  147.9130 F   0  0  0  0  0  0  0  0  0  0  0  0
  186.2210  177.0590  144.1890 C   0  0  0  0  0  0  0  0  0  0  0  0
  185.6310  179.4370  144.6880 C   0  0  0  0  0  3  0  0  0  0  0  0
  185.3320  177.0330  146.5530 C   0  0  0  0  0  3  0  0  0  0  0  0
  186.3890  178.5230  144.0830 C   0  0  0  0  0  3  0  0  0  0  0  0
  185.7980  176.4220  145.2920 C   0  0  0  0  0  3  0  0  0  0  0  0
  1  7  1  1  0  0  0
  1  4  1  0  0  0  0
  2 19  1  6  0  0  0
  2  1  1  0  0  0  0
  2  3  1  0  0  0  0
  3  5  1  0  0  0  0
  4  5  1  0  0  0  0
  6  7  2  0  0  0  0
  7  8  1  0  0  0  0
  8 12  1  6  0  0  0
  8 10  1  0  0  0  0
 10  9  2  0  0  0  0
 11 10  1  0  0  0  0
 13 14  1  0  0  0  0
 14 12  1  0  0  0  0
 14 15  1  0  0  0  0
 17 16  1  0  0  0  0
 18 15  1  0  0  0  0
 18 17  1  0  0  0  0
 18 16  1  0  0  0  0
 20 22  1  0  0  0  0
 20 19  1  0  0  0  0
 21 20  1  0  0  0  0
 22 26  1  0  0  0  0
 23 25  1  0  0  0  0
 24 23  1  0  0  0  0
 26 30  2  0  0  0  0
 27 24  1  0  0  0  0
 28 23  2  0  0  0  0
 29 26  1  0  0  0  0
 29 27  2  0  0  0  0
 30 28  1  0  0  0  0
M  END
>  <MODEL>
2

>  <REMARK>
 VINA RESULT:      -6.1      2.918      6.487
  Name = 
  11 active torsions:
  status: ('A' for Active; 'I' for Inactive)
    1  A    between atoms: C_3  and  N_11
    2  A    between atoms: C_3  and  C_19
    3  A    between atoms: C_4  and  C_13
    4  A    between atoms: C_7  and  C_30
    5  A    between atoms: C_8  and  N_12
    6  A    between atoms: C_8  and  C_13
    7  A    between atoms: N_9  and  N_12
    8  A    between atoms: N_9  and  C_21
    9  A    between atoms: C_10  and  C_25
   10  A    between atoms: N_11  and  C_25
   11  A    between atoms: C_13  and  C_30
                            x       y       z     vdW  Elec       q    Type
                         _______ _______ _______ _____ _____    ______ ____

>  <TORSDO>
F 11

$$$$
=
 OpenBabel11052417143D

 30 32  0  0  1  0  0  0  0  0999 V2000
  189.8820  175.7320  143.9660 C   0  0  1  0  0  3  0  0  0  0  0  0
  190.7140  176.6630  144.8340 C   0  0  1  0  0  3  0  0  0  0  0  0
  190.5260  178.0560  144.2660 C   0  0  0  0  0  2  0  0  0  0  0  0
  189.3760  176.5470  142.7870 C   0  0  0  0  0  2  0  0  0  0  0  0
  190.1440  177.8510  142.8170 C   0  0  0  0  0  2  0  0  0  0  0  0
  190.1520  173.5120  143.1730 O   0  0  0  0  0  0  0  0  0  0  0  0
  190.6970  174.5580  143.5040 C   0  0  0  0  0  0  0  0  0  0  0  0
  192.1910  174.6740  143.5030 C   0  0  2  0  0  3  0  0  0  0  0  0
  193.3040  176.2400  142.0600 O   0  0  0  0  0  0  0  0  0  0  0  0
  192.7250  175.1260  142.1760 C   0  0  0  0  0  0  0  0  0  0  0  0
  192.5900  174.2800  141.0390 N   0  0  0  0  0  1  0  0  0  0  0  0
  192.8300  173.3640  143.9630 C   0  0  0  0  0  2  0  0  0  0  0  0
  194.2460  172.3570  145.5880 C   0  0  0  0  0  1  0  0  0  0  0  0
  193.9050  173.6120  144.9270 N   0  0  0  0  0  0  0  0  0  0  0  0
  193.5140  174.5770  145.8900 N   0  0  0  0  0  2  0  0  0  0  0  0
  194.0800  176.8070  146.6750 C   0  0  0  0  0  2  0  0  0  0  0  0
  194.6960  176.6180  145.3070 C   0  0  0  0  0  2  0  0  0  0  0  0
  194.6270  175.4540  146.2720 C   0  0  0  0  0  3  0  0  0  0  0  0
  190.2160  176.6010  146.2710 C   0  0  0  0  0  2  0  0  0  0  0  0
  188.8040  176.2440  146.3040 N   0  0  0  0  0  0  0  0  0  0  0  0
  188.6830  175.2230  147.1840 O   0  0  0  0  0  1  0  0  0  0  0  0
  188.0760  177.3680  146.8780 C   0  0  0  0  0  2  0  0  0  0  0  0
  184.4960  178.6030  144.2990 C   0  0  0  0  0  0  0  0  0  0  0  0
  184.0910  178.8440  145.7170 C   0  0  0  0  0  2  0  0  0  0  0  0
  183.5800  178.7990  143.3220 F   0  0  0  0  0  0  0  0  0  0  0  0
  186.8030  177.6110  146.1350 C   0  0  0  0  0  0  0  0  0  0  0  0
  184.3410  177.6480  146.5710 C   0  0  0  0  0  3  0  0  0  0  0  0
  185.7590  178.3410  143.9530 C   0  0  0  0  0  3  0  0  0  0  0  0
  185.5560  177.1410  146.7750 C   0  0  0  0  0  3  0  0  0  0  0  0
  186.8780  178.0930  144.8840 C   0  0  0  0  0  3  0  0  0  0  0  0
  1  7  1  6  0  0  0
  1  2  1  0  0  0  0
  2 19  1  1  0  0  0
  3  2  1  0  0  0  0
  4  5  1  0  0  0  0
  4  1  1  0  0  0  0
  5  3  1  0  0  0  0
  6  7  2  0  0  0  0
  8  7  1  0  0  0  0
  8 12  1  6  0  0  0
  9 10  2  0  0  0  0
 10  8  1  0  0  0  0
 11 10  1  0  0  0  0
 12 14  1  0  0  0  0
 14 13  1  0  0  0  0
 14 15  1  0  0  0  0
 15 18  1  0  0  0  0
 17 18  1  0  0  0  0
 17 16  1  0  0  0  0
 18 16  1  0  0  0  0
 19 20  1  0  0  0  0
 20 22  1  0  0  0  0
 20 21  1  0  0  0  0
 23 24  1  0  0  0  0
 24 27  1  0  0  0  0
 25 23  1  0  0  0  0
 26 29  1  0  0  0  0
 26 22  1  0  0  0  0
 27 29  2  0  0  0  0
 28 23  2  0  0  0  0
 28 30  1  0  0  0  0
 30 26  2  0  0  0  0
M  END
>  <MODEL>
3

>  <REMARK>
 VINA RESULT:      -6.0      3.281      6.846
  Name = 
  11 active torsions:
  status: ('A' for Active; 'I' for Inactive)
    1  A    between atoms: C_3  and  N_11
    2  A    between atoms: C_3  and  C_19
    3  A    between atoms: C_4  and  C_13
    4  A    between atoms: C_7  and  C_30
    5  A    between atoms: C_8  and  N_12
    6  A    between atoms: C_8  and  C_13
    7  A    between atoms: N_9  and  N_12
    8  A    between atoms: N_9  and  C_21
    9  A    between atoms: C_10  and  C_25
   10  A    between atoms: N_11  and  C_25
   11  A    between atoms: C_13  and  C_30
                            x       y       z     vdW  Elec       q    Type
                         _______ _______ _______ _____ _____    ______ ____

>  <TORSDO>
F 11

$$$$
=
 OpenBabel11052417143D

 30 32  0  0  1  0  0  0  0  0999 V2000
  189.8180  177.0350  144.6210 C   0  0  1  0  0  3  0  0  0  0  0  0
  189.6790  175.5250  144.5240 C   0  0  1  0  0  3  0  0  0  0  0  0
  189.1040  175.0640  145.8490 C   0  0  0  0  0  2  0  0  0  0  0  0
  189.5140  177.4250  146.0590 C   0  0  0  0  0  2  0  0  0  0  0  0
  189.4880  176.1330  146.8470 C   0  0  0  0  0  2  0  0  0  0  0  0
  191.4020  178.6200  143.8390 O   0  0  0  0  0  0  0  0  0  0  0  0
  191.1980  177.4740  144.2200 C   0  0  0  0  0  0  0  0  0  0  0  0
  192.3100  176.4700  144.2480 C   0  0  2  0  0  3  0  0  0  0  0  0
  194.2310  177.4620  145.2970 O   0  0  0  0  0  0  0  0  0  0  0  0
  193.2420  176.6870  145.4040 C   0  0  0  0  0  0  0  0  0  0  0  0
  192.9980  176.0210  146.6380 N   0  0  0  0  0  1  0  0  0  0  0  0
  193.0480  176.4510  142.9110 C   0  0  0  0  0  2  0  0  0  0  0  0
  192.8850  174.1480  143.4850 C   0  0  0  0  0  1  0  0  0  0  0  0
  193.5370  175.1050  142.5980 N   0  0  0  0  0  0  0  0  0  0  0  0
  194.9440  175.0260  142.7490 N   0  0  0  0  0  2  0  0  0  0  0  0
  197.0010  175.8550  141.7510 C   0  0  0  0  0  2  0  0  0  0  0  0
  196.8320  176.5150  143.1010 C   0  0  0  0  0  2  0  0  0  0  0  0
  195.6180  176.2280  142.2430 C   0  0  0  0  0  3  0  0  0  0  0  0
  188.7370  175.1710  143.3820 C   0  0  0  0  0  2  0  0  0  0  0  0
  188.1080  176.3750  142.8520 N   0  0  0  0  0  0  0  0  0  0  0  0
  188.3490  176.3820  141.5200 O   0  0  0  0  0  1  0  0  0  0  0  0
  186.6670  176.2260  143.0080 C   0  0  0  0  0  2  0  0  0  0  0  0
  184.7770  178.2480  146.6590 C   0  0  0  0  0  0  0  0  0  0  0  0
  184.3100  179.0190  145.4680 C   0  0  0  0  0  2  0  0  0  0  0  0
  184.4360  178.6920  147.8910 F   0  0  0  0  0  0  0  0  0  0  0  0
  186.1670  177.0580  144.1440 C   0  0  0  0  0  0  0  0  0  0  0  0
  185.4480  179.4120  144.5870 C   0  0  0  0  0  3  0  0  0  0  0  0
  185.3910  177.0670  146.5480 C   0  0  0  0  0  3  0  0  0  0  0  0
  186.2350  178.5250  143.9780 C   0  0  0  0  0  3  0  0  0  0  0  0
  185.8370  176.4390  145.2880 C   0  0  0  0  0  3  0  0  0  0  0  0
  1  7  1  1  0  0  0
  1  4  1  0  0  0  0
  2 19  1  6  0  0  0
  2  1  1  0  0  0  0
  2  3  1  0  0  0  0
  3  5  1  0  0  0  0
  4  5  1  0  0  0  0
  6  7  2  0  0  0  0
  7  8  1  0  0  0  0
  8 12  1  6  0  0  0
  8 10  1  0  0  0  0
  9 10  2  0  0  0  0
 10 11  1  0  0  0  0
 14 15  1  0  0  0  0
 14 12  1  0  0  0  0
 14 13  1  0  0  0  0
 16 18  1  0  0  0  0
 16 17  1  0  0  0  0
 18 15  1  0  0  0  0
 18 17  1  0  0  0  0
 20 22  1  0  0  0  0
 20 19  1  0  0  0  0
 21 20  1  0  0  0  0
 22 26  1  0  0  0  0
 23 25  1  0  0  0  0
 24 23  1  0  0  0  0
 26 30  2  0  0  0  0
 27 24  1  0  0  0  0
 28 23  2  0  0  0  0
 29 26  1  0  0  0  0
 29 27  2  0  0  0  0
 30 28  1  0  0  0  0
M  END
>  <MODEL>
4

>  <REMARK>
 VINA RESULT:      -6.0      3.264      6.973
  Name = 
  11 active torsions:
  status: ('A' for Active; 'I' for Inactive)
    1  A    between atoms: C_3  and  N_11
    2  A    between atoms: C_3  and  C_19
    3  A    between atoms: C_4  and  C_13
    4  A    between atoms: C_7  and  C_30
    5  A    between atoms: C_8  and  N_12
    6  A    between atoms: C_8  and  C_13
    7  A    between atoms: N_9  and  N_12
    8  A    between atoms: N_9  and  C_21
    9  A    between atoms: C_10  and  C_25
   10  A    between atoms: N_11  and  C_25
   11  A    between atoms: C_13  and  C_30
                            x       y       z     vdW  Elec       q    Type
                         _______ _______ _______ _____ _____    ______ ____

>  <TORSDO>
F 11

$$$$
=
 OpenBabel11052417143D

 30 32  0  0  1  0  0  0  0  0999 V2000
  190.0330  176.2630  143.8800 C   0  0  1  0  0  3  0  0  0  0  0  0
  189.1430  175.3150  144.6690 C   0  0  1  0  0  3  0  0  0  0  0  0
  189.7330  173.9300  144.4900 C   0  0  0  0  0  2  0  0  0  0  0  0
  191.0120  175.4100  143.0900 C   0  0  0  0  0  2  0  0  0  0  0  0
  190.5060  173.9880  143.1920 C   0  0  0  0  0  2  0  0  0  0  0  0
  189.6770  178.1770  142.5230 O   0  0  0  0  0  0  0  0  0  0  0  0
  189.2150  177.1340  142.9710 C   0  0  0  0  0  0  0  0  0  0  0  0
  187.8060  176.7300  142.6600 C   0  0  2  0  0  3  0  0  0  0  0  0
  186.9880  177.1420  140.4380 O   0  0  0  0  0  0  0  0  0  0  0  0
  187.6220  176.3760  141.2130 C   0  0  0  0  0  0  0  0  0  0  0  0
  188.1820  175.1690  140.7090 N   0  0  0  0  0  1  0  0  0  0  0  0
  186.8260  177.8090  143.1150 C   0  0  0  0  0  2  0  0  0  0  0  0
  184.4610  178.0710  143.1370 C   0  0  0  0  0  1  0  0  0  0  0  0
  185.5630  177.2180  143.5680 N   0  0  0  0  0  0  0  0  0  0  0  0
  185.5440  177.0770  144.9790 N   0  0  0  0  0  2  0  0  0  0  0  0
  186.3340  178.0470  147.0640 C   0  0  0  0  0  2  0  0  0  0  0  0
  184.9110  178.5060  146.8390 C   0  0  0  0  0  2  0  0  0  0  0  0
  185.8470  178.3410  145.6610 C   0  0  0  0  0  3  0  0  0  0  0  0
  189.1500  175.7120  146.1380 C   0  0  0  0  0  2  0  0  0  0  0  0
  190.3020  176.5560  146.4300 N   0  0  0  0  0  0  0  0  0  0  0  0
  189.8440  177.5940  147.1670 O   0  0  0  0  0  1  0  0  0  0  0  0
  191.1960  175.8000  147.2970 C   0  0  0  0  0  2  0  0  0  0  0  0
  195.1540  175.6260  144.9960 C   0  0  0  0  0  0  0  0  0  0  0  0
  194.2520  174.6280  144.3480 C   0  0  0  0  0  2  0  0  0  0  0  0
  196.4350  175.7160  144.5660 F   0  0  0  0  0  0  0  0  0  0  0  0
  192.5010  175.5400  146.6170 C   0  0  0  0  0  0  0  0  0  0  0  0
  193.6380  173.7100  145.3490 C   0  0  0  0  0  3  0  0  0  0  0  0
  194.7080  176.5240  145.8780 C   0  0  0  0  0  3  0  0  0  0  0  0
  192.8330  174.1300  146.3240 C   0  0  0  0  0  3  0  0  0  0  0  0
  193.3490  176.5690  146.4560 C   0  0  0  0  0  3  0  0  0  0  0  0
  1  7  1  6  0  0  0
  1  2  1  0  0  0  0
  2 19  1  1  0  0  0
  3  2  1  0  0  0  0
  4  5  1  0  0  0  0
  4  1  1  0  0  0  0
  5  3  1  0  0  0  0
  6  7  2  0  0  0  0
  8  7  1  0  0  0  0
  8 12  1  6  0  0  0
  9 10  2  0  0  0  0
 10  8  1  0  0  0  0
 11 10  1  0  0  0  0
 12 14  1  0  0  0  0
 13 14  1  0  0  0  0
 14 15  1  0  0  0  0
 15 18  1  0  0  0  0
 17 16  1  0  0  0  0
 18 17  1  0  0  0  0
 18 16  1  0  0  0  0
 19 20  1  0  0  0  0
 20 21  1  0  0  0  0
 20 22  1  0  0  0  0
 23 28  2  0  0  0  0
 24 23  1  0  0  0  0
 24 27  1  0  0  0  0
 25 23  1  0  0  0  0
 26 22  1  0  0  0  0
 27 29  2  0  0  0  0
 28 30  1  0  0  0  0
 29 26  1  0  0  0  0
 30 26  2  0  0  0  0
M  END
>  <MODEL>
5

>  <REMARK>
 VINA RESULT:      -5.9      2.267      3.265
  Name = 
  11 active torsions:
  status: ('A' for Active; 'I' for Inactive)
    1  A    between atoms: C_3  and  N_11
    2  A    between atoms: C_3  and  C_19
    3  A    between atoms: C_4  and  C_13
    4  A    between atoms: C_7  and  C_30
    5  A    between atoms: C_8  and  N_12
    6  A    between atoms: C_8  and  C_13
    7  A    between atoms: N_9  and  N_12
    8  A    between atoms: N_9  and  C_21
    9  A    between atoms: C_10  and  C_25
   10  A    between atoms: N_11  and  C_25
   11  A    between atoms: C_13  and  C_30
                            x       y       z     vdW  Elec       q    Type
                         _______ _______ _______ _____ _____    ______ ____

>  <TORSDO>
F 11

$$$$
=
 OpenBabel11052417143D

 30 32  0  0  1  0  0  0  0  0999 V2000
  185.6310  177.6410  145.6010 C   0  0  1  0  0  3  0  0  0  0  0  0
  186.6900  177.7150  146.6880 C   0  0  1  0  0  3  0  0  0  0  0  0
  185.9460  177.9240  147.9930 C   0  0  0  0  0  2  0  0  0  0  0  0
  184.3000  178.0010  146.2410 C   0  0  0  0  0  2  0  0  0  0  0  0
  184.6300  178.5610  147.6080 C   0  0  0  0  0  2  0  0  0  0  0  0
  185.9430  179.7860  144.6340 O   0  0  0  0  0  0  0  0  0  0  0  0
  185.9580  178.5720  144.4680 C   0  0  0  0  0  0  0  0  0  0  0  0
  186.2540  177.9890  143.1200 C   0  0  2  0  0  3  0  0  0  0  0  0
  183.9170  178.1750  142.5930 O   0  0  0  0  0  0  0  0  0  0  0  0
  185.1040  178.1430  142.1690 C   0  0  0  0  0  0  0  0  0  0  0  0
  185.3570  178.2680  140.7740 N   0  0  0  0  0  1  0  0  0  0  0  0
  186.7000  176.5340  143.2510 C   0  0  0  0  0  2  0  0  0  0  0  0
  187.8440  174.9190  141.9310 C   0  0  0  0  0  1  0  0  0  0  0  0
  187.9050  176.2780  142.4580 N   0  0  0  0  0  0  0  0  0  0  0  0
  189.0750  176.4430  143.2420 N   0  0  0  0  0  2  0  0  0  0  0  0
  191.3560  177.2770  143.1350 C   0  0  0  0  0  2  0  0  0  0  0  0
  190.5290  178.2660  143.9260 C   0  0  0  0  0  2  0  0  0  0  0  0
  189.9160  177.5400  142.7480 C   0  0  0  0  0  3  0  0  0  0  0  0
  187.4760  176.4130  146.7250 C   0  0  0  0  0  2  0  0  0  0  0  0
  188.9000  176.6760  146.5570 N   0  0  0  0  0  0  0  0  0  0  0  0
  189.1740  177.7940  147.2680 O   0  0  0  0  0  1  0  0  0  0  0  0
  189.6290  175.5900  147.2000 C   0  0  0  0  0  2  0  0  0  0  0  0
  192.6870  173.5130  144.4930 C   0  0  0  0  0  0  0  0  0  0  0  0
  193.4040  173.8330  145.7630 C   0  0  0  0  0  2  0  0  0  0  0  0
  193.3890  172.9710  143.4710 F   0  0  0  0  0  0  0  0  0  0  0  0
  190.7340  175.0990  146.3230 C   0  0  0  0  0  0  0  0  0  0  0  0
  193.2230  175.2610  146.1530 C   0  0  0  0  0  3  0  0  0  0  0  0
  191.3590  173.6080  144.3810 C   0  0  0  0  0  3  0  0  0  0  0  0
  192.0350  175.7920  146.4340 C   0  0  0  0  0  3  0  0  0  0  0  0
  190.4440  174.1780  145.3910 C   0  0  0  0  0  3  0  0  0  0  0  0
  1  7  1  6  0  0  0
  1  4  1  0  0  0  0
  1  2  1  0  0  0  0
  2 19  1  1  0  0  0
  2  3  1  0  0  0  0
  4  5  1  0  0  0  0
  5  3  1  0  0  0  0
  7  6  2  0  0  0  0
  8 12  1  1  0  0  0
  8  7  1  0  0  0  0
 10  9  2  0  0  0  0
 10  8  1  0  0  0  0
 11 10  1  0  0  0  0
 13 14  1  0  0  0  0
 14 15  1  0  0  0  0
 14 12  1  0  0  0  0
 16 17  1  0  0  0  0
 18 16  1  0  0  0  0
 18 15  1  0  0  0  0
 18 17  1  0  0  0  0
 20 19  1  0  0  0  0
 20 22  1  0  0  0  0
 20 21  1  0  0  0  0
 23 24  1  0  0  0  0
 24 27  1  0  0  0  0
 25 23  1  0  0  0  0
 26 29  1  0  0  0  0
 26 22  1  0  0  0  0
 27 29  2  0  0  0  0
 28 23  2  0  0  0  0
 28 30  1  0  0  0  0
 30 26  2  0  0  0  0
M  END
>  <MODEL>
6

>  <REMARK>
 VINA RESULT:      -5.8      2.480      4.496
  Name = 
  11 active torsions:
  status: ('A' for Active; 'I' for Inactive)
    1  A    between atoms: C_3  and  N_11
    2  A    between atoms: C_3  and  C_19
    3  A    between atoms: C_4  and  C_13
    4  A    between atoms: C_7  and  C_30
    5  A    between atoms: C_8  and  N_12
    6  A    between atoms: C_8  and  C_13
    7  A    between atoms: N_9  and  N_12
    8  A    between atoms: N_9  and  C_21
    9  A    between atoms: C_10  and  C_25
   10  A    between atoms: N_11  and  C_25
   11  A    between atoms: C_13  and  C_30
                            x       y       z     vdW  Elec       q    Type
                         _______ _______ _______ _____ _____    ______ ____

>  <TORSDO>
F 11

$$$$
=
 OpenBabel11052417143D

 30 32  0  0  1  0  0  0  0  0999 V2000
  186.2020  176.6240  145.7370 C   0  0  1  0  0  3  0  0  0  0  0  0
  187.3270  177.3480  146.4580 C   0  0  1  0  0  3  0  0  0  0  0  0
  186.6750  178.1460  147.5700 C   0  0  0  0  0  2  0  0  0  0  0  0
  184.8910  177.1520  146.2990 C   0  0  0  0  0  2  0  0  0  0  0  0
  185.2490  178.3720  147.1200 C   0  0  0  0  0  2  0  0  0  0  0  0
  185.8690  175.9990  143.4720 O   0  0  0  0  0  0  0  0  0  0  0  0
  186.2850  176.8450  144.2540 C   0  0  0  0  0  0  0  0  0  0  0  0
  186.9300  178.1000  143.7470 C   0  0  2  0  0  3  0  0  0  0  0  0
  185.4350  178.9600  142.0740 O   0  0  0  0  0  0  0  0  0  0  0  0
  185.9250  179.0860  143.2290 C   0  0  0  0  0  0  0  0  0  0  0  0
  185.5120  180.1680  144.0560 N   0  0  0  0  0  1  0  0  0  0  0  0
  187.9990  177.7700  142.7080 C   0  0  0  0  0  2  0  0  0  0  0  0
  190.2260  177.9660  143.5230 C   0  0  0  0  0  1  0  0  0  0  0  0
  189.1170  177.0410  143.3150 N   0  0  0  0  0  0  0  0  0  0  0  0
  189.5310  175.9640  142.4900 N   0  0  0  0  0  2  0  0  0  0  0  0
  189.6590  173.5550  142.1900 C   0  0  0  0  0  2  0  0  0  0  0  0
  188.2660  174.0040  141.8110 C   0  0  0  0  0  2  0  0  0  0  0  0
  188.9930  174.6800  142.9540 C   0  0  0  0  0  3  0  0  0  0  0  0
  188.3020  176.3310  147.0330 C   0  0  0  0  0  2  0  0  0  0  0  0
  189.6760  176.7400  146.7670 N   0  0  0  0  0  0  0  0  0  0  0  0
  189.9160  177.8190  147.5480 O   0  0  0  0  0  1  0  0  0  0  0  0
  190.5530  175.6810  147.2480 C   0  0  0  0  0  2  0  0  0  0  0  0
  194.0720  174.7560  144.4640 C   0  0  0  0  0  0  0  0  0  0  0  0
  194.6500  174.8950  145.8340 C   0  0  0  0  0  2  0  0  0  0  0  0
  194.9150  174.5710  143.4210 F   0  0  0  0  0  0  0  0  0  0  0  0
  191.7750  175.5750  146.3950 C   0  0  0  0  0  0  0  0  0  0  0  0
  194.2050  176.1550  146.4950 C   0  0  0  0  0  3  0  0  0  0  0  0
  192.7560  174.6670  144.2510 C   0  0  0  0  0  3  0  0  0  0  0  0
  192.9280  176.4190  146.7690 C   0  0  0  0  0  3  0  0  0  0  0  0
  191.7010  174.8490  145.2670 C   0  0  0  0  0  3  0  0  0  0  0  0
  1  7  1  6  0  0  0
  1  4  1  0  0  0  0
  1  2  1  0  0  0  0
  2 19  1  1  0  0  0
  2  3  1  0  0  0  0
  4  5  1  0  0  0  0
  5  3  1  0  0  0  0
  6  7  2  0  0  0  0
  8 12  1  6  0  0  0
  8  7  1  0  0  0  0
  9 10  2  0  0  0  0
 10  8  1  0  0  0  0
 10 11  1  0  0  0  0
 12 14  1  0  0  0  0
 14 13  1  0  0  0  0
 15 18  1  0  0  0  0
 15 14  1  0  0  0  0
 16 18  1  0  0  0  0
 17 16  1  0  0  0  0
 17 18  1  0  0  0  0
 20 19  1  0  0  0  0
 20 22  1  0  0  0  0
 20 21  1  0  0  0  0
 23 24  1  0  0  0  0
 24 27  1  0  0  0  0
 25 23  1  0  0  0  0
 26 29  1  0  0  0  0
 26 22  1  0  0  0  0
 27 29  2  0  0  0  0
 28 23  2  0  0  0  0
 28 30  1  0  0  0  0
 30 26  2  0  0  0  0
M  END
>  <MODEL>
7

>  <REMARK>
 VINA RESULT:      -5.7      2.453      4.674
  Name = 
  11 active torsions:
  status: ('A' for Active; 'I' for Inactive)
    1  A    between atoms: C_3  and  N_11
    2  A    between atoms: C_3  and  C_19
    3  A    between atoms: C_4  and  C_13
    4  A    between atoms: C_7  and  C_30
    5  A    between atoms: C_8  and  N_12
    6  A    between atoms: C_8  and  C_13
    7  A    between atoms: N_9  and  N_12
    8  A    between atoms: N_9  and  C_21
    9  A    between atoms: C_10  and  C_25
   10  A    between atoms: N_11  and  C_25
   11  A    between atoms: C_13  and  C_30
                            x       y       z     vdW  Elec       q    Type
                         _______ _______ _______ _____ _____    ______ ____

>  <TORSDO>
F 11

$$$$
=
 OpenBabel11052417143D

 30 32  0  0  1  0  0  0  0  0999 V2000
  190.1470  176.7160  144.5490 C   0  0  1  0  0  3  0  0  0  0  0  0
  189.9060  175.2670  144.9390 C   0  0  1  0  0  3  0  0  0  0  0  0
  188.9420  175.2960  146.1090 C   0  0  0  0  0  2  0  0  0  0  0  0
  189.4860  177.5850  145.6070 C   0  0  0  0  0  2  0  0  0  0  0  0
  189.1230  176.6550  146.7450 C   0  0  0  0  0  2  0  0  0  0  0  0
  192.0160  178.0230  143.8900 O   0  0  0  0  0  0  0  0  0  0  0  0
  191.6170  177.0080  144.4490 C   0  0  0  0  0  0  0  0  0  0  0  0
  192.5890  176.0090  145.0010 C   0  0  2  0  0  3  0  0  0  0  0  0
  192.3430  175.9310  147.3910 O   0  0  0  0  0  0  0  0  0  0  0  0
  193.0100  176.3420  146.4020 C   0  0  0  0  0  0  0  0  0  0  0  0
  194.1840  177.1180  146.6170 N   0  0  0  0  0  1  0  0  0  0  0  0
  193.7850  175.8520  144.0650 C   0  0  0  0  0  2  0  0  0  0  0  0
  193.0550  173.6130  144.4040 C   0  0  0  0  0  1  0  0  0  0  0  0
  193.8960  174.4730  143.5790 N   0  0  0  0  0  0  0  0  0  0  0  0
  195.2410  174.0240  143.6230 N   0  0  0  0  0  2  0  0  0  0  0  0
  197.5270  174.7610  143.9980 C   0  0  0  0  0  2  0  0  0  0  0  0
  197.0460  174.0590  145.2490 C   0  0  0  0  0  2  0  0  0  0  0  0
  196.0850  174.9040  144.4400 C   0  0  0  0  0  3  0  0  0  0  0  0
  189.2960  174.5170  143.7640 C   0  0  0  0  0  2  0  0  0  0  0  0
  188.8850  175.4510  142.7240 N   0  0  0  0  0  0  0  0  0  0  0  0
  189.4070  174.9920  141.5620 O   0  0  0  0  0  1  0  0  0  0  0  0
  187.4370  175.3540  142.5890 C   0  0  0  0  0  2  0  0  0  0  0  0
  185.8660  179.4150  144.0150 C   0  0  0  0  0  0  0  0  0  0  0  0
  186.2580  178.6650  145.2460 C   0  0  0  0  0  2  0  0  0  0  0  0
  185.2780  180.6260  144.1550 F   0  0  0  0  0  0  0  0  0  0  0  0
  186.7690  176.5660  143.1530 C   0  0  0  0  0  0  0  0  0  0  0  0
  185.6600  177.2990  145.2700 C   0  0  0  0  0  3  0  0  0  0  0  0
  186.2040  179.0020  142.7900 C   0  0  0  0  0  3  0  0  0  0  0  0
  185.9310  176.3700  144.3540 C   0  0  0  0  0  3  0  0  0  0  0  0
  186.8420  177.7130  142.4570 C   0  0  0  0  0  3  0  0  0  0  0  0
  1  7  1  1  0  0  0
  1  2  1  0  0  0  0
  1  4  1  0  0  0  0
  2 19  1  6  0  0  0
  2  3  1  0  0  0  0
  3  5  1  0  0  0  0
  4  5  1  0  0  0  0
  6  7  2  0  0  0  0
  7  8  1  0  0  0  0
  8 12  1  6  0  0  0
  8 10  1  0  0  0  0
 10 11  1  0  0  0  0
 10  9  2  0  0  0  0
 14 15  1  0  0  0  0
 14 12  1  0  0  0  0
 14 13  1  0  0  0  0
 15 18  1  0  0  0  0
 16 18  1  0  0  0  0
 16 17  1  0  0  0  0
 18 17  1  0  0  0  0
 20 19  1  0  0  0  0
 21 20  1  0  0  0  0
 22 20  1  0  0  0  0
 22 26  1  0  0  0  0
 23 25  1  0  0  0  0
 23 24  1  0  0  0  0
 24 27  1  0  0  0  0
 26 29  1  0  0  0  0
 28 23  2  0  0  0  0
 29 27  2  0  0  0  0
 30 28  1  0  0  0  0
 30 26  2  0  0  0  0
M  END
>  <MODEL>
8

>  <REMARK>
 VINA RESULT:      -5.6      3.442      7.157
  Name = 
  11 active torsions:
  status: ('A' for Active; 'I' for Inactive)
    1  A    between atoms: C_3  and  N_11
    2  A    between atoms: C_3  and  C_19
    3  A    between atoms: C_4  and  C_13
    4  A    between atoms: C_7  and  C_30
    5  A    between atoms: C_8  and  N_12
    6  A    between atoms: C_8  and  C_13
    7  A    between atoms: N_9  and  N_12
    8  A    between atoms: N_9  and  C_21
    9  A    between atoms: C_10  and  C_25
   10  A    between atoms: N_11  and  C_25
   11  A    between atoms: C_13  and  C_30
                            x       y       z     vdW  Elec       q    Type
                         _______ _______ _______ _____ _____    ______ ____

>  <TORSDO>
F 11

$$$$
=
 OpenBabel11052417143D

 30 32  0  0  1  0  0  0  0  0999 V2000
  192.4820  176.7720  144.4770 C   0  0  1  0  0  3  0  0  0  0  0  0
  191.4660  176.2960  145.5030 C   0  0  1  0  0  3  0  0  0  0  0  0
  192.2100  176.1870  146.8190 C   0  0  0  0  0  2  0  0  0  0  0  0
  193.8460  176.7480  145.1480 C   0  0  0  0  0  2  0  0  0  0  0  0
  193.6620  175.9910  146.4450 C   0  0  0  0  0  2  0  0  0  0  0  0
  193.1110  176.1980  142.2610 O   0  0  0  0  0  0  0  0  0  0  0  0
  192.4620  175.8970  143.2560 C   0  0  0  0  0  0  0  0  0  0  0  0
  191.5950  174.6740  143.2600 C   0  0  2  0  0  3  0  0  0  0  0  0
  192.8670  172.7920  142.4750 O   0  0  0  0  0  0  0  0  0  0  0  0
  192.3880  173.4160  143.4610 C   0  0  0  0  0  0  0  0  0  0  0  0
  192.6130  172.9310  144.7800 N   0  0  0  0  0  1  0  0  0  0  0  0
  190.7420  174.6190  141.9940 C   0  0  0  0  0  2  0  0  0  0  0  0
  188.8460  173.2080  142.2700 C   0  0  0  0  0  1  0  0  0  0  0  0
  189.3140  174.5890  142.3210 N   0  0  0  0  0  0  0  0  0  0  0  0
  188.5670  175.3880  141.4180 N   0  0  0  0  0  2  0  0  0  0  0  0
  187.5580  177.5740  141.0790 C   0  0  0  0  0  2  0  0  0  0  0  0
  188.7630  177.7450  141.9770 C   0  0  0  0  0  2  0  0  0  0  0  0
  187.9010  176.5060  142.0970 C   0  0  0  0  0  3  0  0  0  0  0  0
  190.3360  177.3100  145.6110 C   0  0  0  0  0  2  0  0  0  0  0  0
  189.0460  176.6490  145.4710 N   0  0  0  0  0  0  0  0  0  0  0  0
  189.2520  175.3370  145.7340 O   0  0  0  0  0  1  0  0  0  0  0  0
  188.1760  177.1480  146.5280 C   0  0  0  0  0  2  0  0  0  0  0  0
  184.3680  178.8840  144.6630 C   0  0  0  0  0  0  0  0  0  0  0  0
  184.0830  178.7260  146.1200 C   0  0  0  0  0  2  0  0  0  0  0  0
  183.3690  179.2980  143.8490 F   0  0  0  0  0  0  0  0  0  0  0  0
  186.8400  177.5300  145.9800 C   0  0  0  0  0  0  0  0  0  0  0  0
  184.4240  177.3560  146.6020 C   0  0  0  0  0  3  0  0  0  0  0  0
  185.6010  178.7720  144.1610 C   0  0  0  0  0  3  0  0  0  0  0  0
  185.6600  176.8600  146.5660 C   0  0  0  0  0  3  0  0  0  0  0  0
  186.8000  178.3290  144.9010 C   0  0  0  0  0  3  0  0  0  0  0  0
  1  7  1  6  0  0  0
  1  4  1  0  0  0  0
  1  2  1  0  0  0  0
  2 19  1  1  0  0  0
  2  3  1  0  0  0  0
  4  5  1  0  0  0  0
  5  3  1  0  0  0  0
  6  7  2  0  0  0  0
  7  8  1  0  0  0  0
  8 12  1  6  0  0  0
  8 10  1  0  0  0  0
  9 10  2  0  0  0  0
 10 11  1  0  0  0  0
 12 14  1  0  0  0  0
 13 14  1  0  0  0  0
 15 18  1  0  0  0  0
 15 14  1  0  0  0  0
 16 17  1  0  0  0  0
 16 18  1  0  0  0  0
 17 18  1  0  0  0  0
 20 19  1  0  0  0  0
 20 21  1  0  0  0  0
 20 22  1  0  0  0  0
 23 24  1  0  0  0  0
 24 27  1  0  0  0  0
 25 23  1  0  0  0  0
 26 22  1  0  0  0  0
 26 29  1  0  0  0  0
 28 23  2  0  0  0  0
 28 30  1  0  0  0  0
 29 27  2  0  0  0  0
 30 26  2  0  0  0  0
M  END
>  <MODEL>
9

>  <REMARK>
 VINA RESULT:      -5.6      3.086      6.134
  Name = 
  11 active torsions:
  status: ('A' for Active; 'I' for Inactive)
    1  A    between atoms: C_3  and  N_11
    2  A    between atoms: C_3  and  C_19
    3  A    between atoms: C_4  and  C_13
    4  A    between atoms: C_7  and  C_30
    5  A    between atoms: C_8  and  N_12
    6  A    between atoms: C_8  and  C_13
    7  A    between atoms: N_9  and  N_12
    8  A    between atoms: N_9  and  C_21
    9  A    between atoms: C_10  and  C_25
   10  A    between atoms: N_11  and  C_25
   11  A    between atoms: C_13  and  C_30
                            x       y       z     vdW  Elec       q    Type
                         _______ _______ _______ _____ _____    ______ ____

>  <TORSDO>
F 11

$$$$
