=
 OpenBabel11052418303D

 27 29  0  0  0  0  0  0  0  0999 V2000
  186.8490  176.2710  142.6310 N   0  0  0  0  0  2  0  0  0  0  0  0
  188.8420  177.3780  143.2110 N   0  0  0  0  0  0  0  0  0  0  0  0
  188.2550  176.2430  142.9240 C   0  0  0  0  0  0  0  0  0  0  0  0
  188.0890  173.8610  142.1950 C   0  0  0  0  0  1  0  0  0  0  0  0
  191.4320  173.3900  143.6380 C   0  0  0  0  0  2  0  0  0  0  0  0
  188.9730  174.8980  142.8840 C   0  0  0  0  0  0  0  0  0  0  0  0
  189.2460  174.4010  144.3200 C   0  0  0  0  0  2  0  0  0  0  0  0
  190.1110  173.1400  144.3520 C   0  0  0  0  0  2  0  0  0  0  0  0
  191.1680  173.7970  142.1950 C   0  0  0  0  0  2  0  0  0  0  0  0
  190.3170  175.0670  142.1560 C   0  0  0  0  0  2  0  0  0  0  0  0
  190.9760  178.2810  142.8060 O   0  0  0  0  0  0  0  0  0  0  0  0
  190.1940  177.6860  143.5960 C   0  0  0  0  0  0  0  0  0  0  0  0
  191.5940  176.4560  147.4650 C   0  0  0  0  0  3  0  0  0  0  0  0
  193.7690  175.6750  146.5430 C   0  0  0  0  0  1  0  0  0  0  0  0
  191.9850  176.6720  145.0790 C   0  0  0  0  0  0  0  0  0  0  0  0
  192.8030  176.4720  144.0140 F   0  0  0  0  0  0  0  0  0  0  0  0
  190.7050  177.2480  144.9160 C   0  0  0  0  0  0  0  0  0  0  0  0
  192.4230  176.2820  146.3550 C   0  0  0  0  0  0  0  0  0  0  0  0
  189.8870  177.4110  146.0470 C   0  0  0  0  0  3  0  0  0  0  0  0
  190.3270  177.0190  147.3110 C   0  0  0  0  0  3  0  0  0  0  0  0
  186.0290  177.4750  142.7170 C   0  0  0  0  0  2  0  0  0  0  0  0
  184.0280  178.7950  145.6510 C   0  0  0  0  0  3  0  0  0  0  0  0
  184.4050  177.9110  146.6640 C   0  0  0  0  0  3  0  0  0  0  0  0
  184.5530  178.6500  144.3640 C   0  0  0  0  0  3  0  0  0  0  0  0
  185.3100  176.8790  146.3910 C   0  0  0  0  0  3  0  0  0  0  0  0
  185.8360  176.7330  145.1040 C   0  0  0  0  0  3  0  0  0  0  0  0
  185.4580  177.6180  144.0880 C   0  0  0  0  0  0  0  0  0  0  0  0
  1 21  1  0  0  0  0
  1  3  1  0  0  0  0
  2 12  1  0  0  0  0
  3  2  2  0  0  0  0
  4  6  1  0  0  0  0
  5  8  1  0  0  0  0
  6  3  1  0  0  0  0
  6  7  1  0  0  0  0
  7  8  1  0  0  0  0
  9  5  1  0  0  0  0
 10  9  1  0  0  0  0
 10  6  1  0  0  0  0
 11 12  2  0  0  0  0
 12 17  1  0  0  0  0
 15 18  1  0  0  0  0
 16 15  1  0  0  0  0
 17 15  2  0  0  0  0
 17 19  1  0  0  0  0
 18 14  1  0  0  0  0
 18 13  2  0  0  0  0
 19 20  2  0  0  0  0
 20 13  1  0  0  0  0
 21 27  1  0  0  0  0
 22 23  1  0  0  0  0
 24 22  2  0  0  0  0
 25 23  2  0  0  0  0
 26 25  1  0  0  0  0
 27 24  1  0  0  0  0
 27 26  2  0  0  0  0
M  END
>  <MODEL>
1

>  <REMARK>
 VINA RESULT:      -7.6      0.000      0.000
  Name = 
  5 active torsions:
  status: ('A' for Active; 'I' for Inactive)
    1  A    between atoms: N_1  and  C_18
    2  A    between atoms: N_2  and  C_19
    3  A    between atoms: C_9  and  C_15
    4  A    between atoms: C_14  and  C_19
    5  A    between atoms: C_18  and  C_26
                            x       y       z     vdW  Elec       q    Type
                         _______ _______ _______ _____ _____    ______ ____

>  <TORSDO>
F 5

$$$$
=
 OpenBabel11052418303D

 27 29  0  0  0  0  0  0  0  0999 V2000
  193.4980  175.7950  146.4680 N   0  0  0  0  0  2  0  0  0  0  0  0
  192.3350  176.7130  144.6410 N   0  0  0  0  0  0  0  0  0  0  0  0
  192.2820  176.2780  145.8760 C   0  0  0  0  0  0  0  0  0  0  0  0
  191.3720  176.1650  148.1970 C   0  0  0  0  0  1  0  0  0  0  0  0
  188.0290  176.2610  146.6830 C   0  0  0  0  0  2  0  0  0  0  0  0
  191.0100  176.2510  146.7170 C   0  0  0  0  0  0  0  0  0  0  0  0
  190.1700  175.0040  146.3660 C   0  0  0  0  0  2  0  0  0  0  0  0
  188.8030  175.0030  147.0530 C   0  0  0  0  0  2  0  0  0  0  0  0
  188.8170  177.4930  147.1070 C   0  0  0  0  0  2  0  0  0  0  0  0
  190.1790  177.5090  146.4110 C   0  0  0  0  0  2  0  0  0  0  0  0
  191.2440  178.4230  143.4500 O   0  0  0  0  0  0  0  0  0  0  0  0
  191.3120  177.2010  143.7540 C   0  0  0  0  0  0  0  0  0  0  0  0
  188.3990  174.4510  142.2090 C   0  0  0  0  0  3  0  0  0  0  0  0
  186.5190  176.0070  142.6980 C   0  0  0  0  0  1  0  0  0  0  0  0
  188.9060  176.5960  143.2270 C   0  0  0  0  0  0  0  0  0  0  0  0
  188.4630  177.7770  143.7290 F   0  0  0  0  0  0  0  0  0  0  0  0
  190.2820  176.2730  143.2320 C   0  0  0  0  0  0  0  0  0  0  0  0
  187.9720  175.6820  142.7120 C   0  0  0  0  0  0  0  0  0  0  0  0
  190.6880  175.0280  142.7230 C   0  0  0  0  0  3  0  0  0  0  0  0
  189.7550  174.1240  142.2150 C   0  0  0  0  0  3  0  0  0  0  0  0
  194.7620  175.6880  145.7480 C   0  0  0  0  0  2  0  0  0  0  0  0
  194.7310  171.9110  145.4550 C   0  0  0  0  0  3  0  0  0  0  0  0
  196.0760  171.6040  145.6810 C   0  0  0  0  0  3  0  0  0  0  0  0
  194.3050  173.2410  145.4720 C   0  0  0  0  0  3  0  0  0  0  0  0
  196.9950  172.6300  145.9240 C   0  0  0  0  0  3  0  0  0  0  0  0
  196.5690  173.9610  145.9420 C   0  0  0  0  0  3  0  0  0  0  0  0
  195.2230  174.2690  145.7150 C   0  0  0  0  0  0  0  0  0  0  0  0
  2  3  2  0  0  0  0
  3  1  1  0  0  0  0
  3  6  1  0  0  0  0
  5  8  1  0  0  0  0
  5  9  1  0  0  0  0
  6  4  1  0  0  0  0
  7  6  1  0  0  0  0
  7  8  1  0  0  0  0
 10  6  1  0  0  0  0
 10  9  1  0  0  0  0
 11 12  2  0  0  0  0
 12  2  1  0  0  0  0
 13 20  2  0  0  0  0
 13 18  1  0  0  0  0
 14 18  1  0  0  0  0
 15 17  1  0  0  0  0
 15 16  1  0  0  0  0
 17 12  1  0  0  0  0
 18 15  2  0  0  0  0
 19 17  2  0  0  0  0
 20 19  1  0  0  0  0
 21  1  1  0  0  0  0
 22 24  2  0  0  0  0
 22 23  1  0  0  0  0
 23 25  2  0  0  0  0
 24 27  1  0  0  0  0
 25 26  1  0  0  0  0
 27 21  1  0  0  0  0
 27 26  2  0  0  0  0
M  END
>  <MODEL>
2

>  <REMARK>
 VINA RESULT:      -7.3      2.615      7.356
  Name = 
  5 active torsions:
  status: ('A' for Active; 'I' for Inactive)
    1  A    between atoms: N_1  and  C_18
    2  A    between atoms: N_2  and  C_19
    3  A    between atoms: C_9  and  C_15
    4  A    between atoms: C_14  and  C_19
    5  A    between atoms: C_18  and  C_26
                            x       y       z     vdW  Elec       q    Type
                         _______ _______ _______ _____ _____    ______ ____

>  <TORSDO>
F 5

$$$$
=
 OpenBabel11052418303D

 27 29  0  0  0  0  0  0  0  0999 V2000
  189.0270  176.1860  146.0050 N   0  0  0  0  0  2  0  0  0  0  0  0
  188.6700  177.4430  144.0500 N   0  0  0  0  0  0  0  0  0  0  0  0
  189.0290  176.2970  144.5740 C   0  0  0  0  0  0  0  0  0  0  0  0
  189.7760  173.9190  144.6900 C   0  0  0  0  0  1  0  0  0  0  0  0
  189.9450  173.9960  141.0240 C   0  0  0  0  0  2  0  0  0  0  0  0
  189.4480  175.0800  143.7560 C   0  0  0  0  0  0  0  0  0  0  0  0
  190.7210  175.4020  142.9430 C   0  0  0  0  0  2  0  0  0  0  0  0
  191.1000  174.2800  141.9740 C   0  0  0  0  0  2  0  0  0  0  0  0
  188.7110  173.5930  141.8190 C   0  0  0  0  0  2  0  0  0  0  0  0
  188.3170  174.7170  142.7780 C   0  0  0  0  0  2  0  0  0  0  0  0
  189.6410  178.3490  142.1090 O   0  0  0  0  0  0  0  0  0  0  0  0
  188.6150  177.8970  142.6850 C   0  0  0  0  0  0  0  0  0  0  0  0
  184.9260  177.8760  140.4870 C   0  0  0  0  0  3  0  0  0  0  0  0
  183.6040  178.5050  142.5000 C   0  0  0  0  0  1  0  0  0  0  0  0
  186.0980  178.1960  142.5890 C   0  0  0  0  0  0  0  0  0  0  0  0
  186.0470  178.4830  143.9160 F   0  0  0  0  0  0  0  0  0  0  0  0
  187.3250  177.8940  141.9570 C   0  0  0  0  0  0  0  0  0  0  0  0
  184.9050  178.1880  141.8480 C   0  0  0  0  0  0  0  0  0  0  0  0
  187.3220  177.5810  140.5870 C   0  0  0  0  0  3  0  0  0  0  0  0
  186.1330  177.5720  139.8580 C   0  0  0  0  0  3  0  0  0  0  0  0
  188.7300  177.2960  146.9030 C   0  0  0  0  0  2  0  0  0  0  0  0
  184.9890  176.8330  146.5220 C   0  0  0  0  0  3  0  0  0  0  0  0
  184.5110  178.0740  146.9510 C   0  0  0  0  0  3  0  0  0  0  0  0
  186.3640  176.5780  146.5120 C   0  0  0  0  0  3  0  0  0  0  0  0
  185.4080  179.0620  147.3690 C   0  0  0  0  0  3  0  0  0  0  0  0
  186.7830  178.8090  147.3580 C   0  0  0  0  0  3  0  0  0  0  0  0
  187.2630  177.5650  146.9300 C   0  0  0  0  0  0  0  0  0  0  0  0
  1 21  1  0  0  0  0
  2  3  2  0  0  0  0
  3  1  1  0  0  0  0
  5  9  1  0  0  0  0
  5  8  1  0  0  0  0
  6  3  1  0  0  0  0
  6  4  1  0  0  0  0
  7  6  1  0  0  0  0
  8  7  1  0  0  0  0
  9 10  1  0  0  0  0
 10  6  1  0  0  0  0
 11 12  2  0  0  0  0
 12  2  1  0  0  0  0
 13 18  1  0  0  0  0
 15 16  1  0  0  0  0
 17 15  1  0  0  0  0
 17 12  1  0  0  0  0
 18 14  1  0  0  0  0
 18 15  2  0  0  0  0
 19 17  2  0  0  0  0
 20 13  2  0  0  0  0
 20 19  1  0  0  0  0
 21 27  1  0  0  0  0
 22 23  1  0  0  0  0
 23 25  2  0  0  0  0
 24 22  2  0  0  0  0
 24 27  1  0  0  0  0
 26 25  1  0  0  0  0
 27 26  2  0  0  0  0
M  END
>  <MODEL>
3

>  <REMARK>
 VINA RESULT:      -7.2      2.343      4.966
  Name = 
  5 active torsions:
  status: ('A' for Active; 'I' for Inactive)
    1  A    between atoms: N_1  and  C_18
    2  A    between atoms: N_2  and  C_19
    3  A    between atoms: C_9  and  C_15
    4  A    between atoms: C_14  and  C_19
    5  A    between atoms: C_18  and  C_26
                            x       y       z     vdW  Elec       q    Type
                         _______ _______ _______ _____ _____    ______ ____

>  <TORSDO>
F 5

$$$$
=
 OpenBabel11052418303D

 27 29  0  0  0  0  0  0  0  0999 V2000
  187.4940  176.6060  142.8270 N   0  0  0  0  0  2  0  0  0  0  0  0
  189.7720  177.1000  143.1470 N   0  0  0  0  0  0  0  0  0  0  0  0
  188.8680  176.1900  142.8810 C   0  0  0  0  0  0  0  0  0  0  0  0
  187.9710  174.0250  142.0210 C   0  0  0  0  0  1  0  0  0  0  0  0
  191.2310  172.5630  142.8650 C   0  0  0  0  0  2  0  0  0  0  0  0
  189.1860  174.7200  142.6300 C   0  0  0  0  0  0  0  0  0  0  0  0
  189.5120  174.0130  143.9630 C   0  0  0  0  0  2  0  0  0  0  0  0
  190.0020  172.5780  143.7640 C   0  0  0  0  0  2  0  0  0  0  0  0
  190.8890  173.1820  141.5160 C   0  0  0  0  0  2  0  0  0  0  0  0
  190.4140  174.6230  141.7070 C   0  0  0  0  0  2  0  0  0  0  0  0
  191.9910  177.4290  142.4400 O   0  0  0  0  0  0  0  0  0  0  0  0
  191.1970  177.0100  143.3260 C   0  0  0  0  0  0  0  0  0  0  0  0
  192.8600  175.0720  146.7770 C   0  0  0  0  0  3  0  0  0  0  0  0
  191.2890  176.2360  148.3170 C   0  0  0  0  0  1  0  0  0  0  0  0
  191.2500  176.6220  145.8320 C   0  0  0  0  0  0  0  0  0  0  0  0
  190.2400  177.5100  146.0250 F   0  0  0  0  0  0  0  0  0  0  0  0
  191.7510  176.3620  144.5370 C   0  0  0  0  0  0  0  0  0  0  0  0
  191.8070  175.9730  146.9450 C   0  0  0  0  0  0  0  0  0  0  0  0
  192.8140  175.4530  144.3920 C   0  0  0  0  0  3  0  0  0  0  0  0
  193.3640  174.8130  145.5020 C   0  0  0  0  0  3  0  0  0  0  0  0
  187.0470  177.9610  143.1310 C   0  0  0  0  0  2  0  0  0  0  0  0
  184.3580  179.0170  145.5820 C   0  0  0  0  0  3  0  0  0  0  0  0
  184.3770  177.9540  146.4890 C   0  0  0  0  0  3  0  0  0  0  0  0
  185.2250  179.0160  144.4860 C   0  0  0  0  0  3  0  0  0  0  0  0
  185.2640  176.8890  146.3000 C   0  0  0  0  0  3  0  0  0  0  0  0
  186.1320  176.8880  145.2040 C   0  0  0  0  0  3  0  0  0  0  0  0
  186.1130  177.9520  144.2940 C   0  0  0  0  0  0  0  0  0  0  0  0
  1  3  1  0  0  0  0
  1 21  1  0  0  0  0
  2 12  1  0  0  0  0
  3  2  2  0  0  0  0
  4  6  1  0  0  0  0
  5  8  1  0  0  0  0
  6  3  1  0  0  0  0
  6  7  1  0  0  0  0
  8  7  1  0  0  0  0
  9 10  1  0  0  0  0
  9  5  1  0  0  0  0
 10  6  1  0  0  0  0
 11 12  2  0  0  0  0
 12 17  1  0  0  0  0
 13 18  1  0  0  0  0
 15 16  1  0  0  0  0
 15 18  2  0  0  0  0
 17 15  1  0  0  0  0
 18 14  1  0  0  0  0
 19 17  2  0  0  0  0
 19 20  1  0  0  0  0
 20 13  2  0  0  0  0
 21 27  1  0  0  0  0
 22 23  1  0  0  0  0
 24 22  2  0  0  0  0
 25 23  2  0  0  0  0
 26 25  1  0  0  0  0
 27 24  1  0  0  0  0
 27 26  2  0  0  0  0
M  END
>  <MODEL>
4

>  <REMARK>
 VINA RESULT:      -7.2      1.114      1.655
  Name = 
  5 active torsions:
  status: ('A' for Active; 'I' for Inactive)
    1  A    between atoms: N_1  and  C_18
    2  A    between atoms: N_2  and  C_19
    3  A    between atoms: C_9  and  C_15
    4  A    between atoms: C_14  and  C_19
    5  A    between atoms: C_18  and  C_26
                            x       y       z     vdW  Elec       q    Type
                         _______ _______ _______ _____ _____    ______ ____

>  <TORSDO>
F 5

$$$$
=
 OpenBabel11052418303D

 27 29  0  0  0  0  0  0  0  0999 V2000
  188.8070  176.6620  144.0320 N   0  0  0  0  0  2  0  0  0  0  0  0
  190.5220  176.2450  145.5870 N   0  0  0  0  0  0  0  0  0  0  0  0
  189.8330  175.8090  144.5610 C   0  0  0  0  0  0  0  0  0  0  0  0
  188.8920  174.1390  142.9630 C   0  0  0  0  0  1  0  0  0  0  0  0
  191.8390  172.0730  143.6890 C   0  0  0  0  0  2  0  0  0  0  0  0
  190.0550  174.4520  143.9000 C   0  0  0  0  0  0  0  0  0  0  0  0
  190.1060  173.3430  144.9720 C   0  0  0  0  0  2  0  0  0  0  0  0
  190.4920  171.9810  144.3930 C   0  0  0  0  0  2  0  0  0  0  0  0
  191.7670  173.1060  142.5730 C   0  0  0  0  0  2  0  0  0  0  0  0
  191.3970  174.4730  143.1480 C   0  0  0  0  0  2  0  0  0  0  0  0
  191.3170  175.1700  147.5220 O   0  0  0  0  0  0  0  0  0  0  0  0
  191.5590  175.6320  146.3740 C   0  0  0  0  0  0  0  0  0  0  0  0
  195.5790  175.6150  144.8650 C   0  0  0  0  0  3  0  0  0  0  0  0
  195.8360  173.1750  145.2830 C   0  0  0  0  0  1  0  0  0  0  0  0
  193.7100  174.4030  145.8290 C   0  0  0  0  0  0  0  0  0  0  0  0
  193.1990  173.2330  146.2910 F   0  0  0  0  0  0  0  0  0  0  0  0
  192.9490  175.5930  145.8640 C   0  0  0  0  0  0  0  0  0  0  0  0
  195.0210  174.4210  145.3270 C   0  0  0  0  0  0  0  0  0  0  0  0
  193.5320  176.7840  145.3970 C   0  0  0  0  0  3  0  0  0  0  0  0
  194.8360  176.7950  144.9010 C   0  0  0  0  0  3  0  0  0  0  0  0
  188.4370  177.9440  144.6220 C   0  0  0  0  0  2  0  0  0  0  0  0
  184.8280  178.8620  145.3210 C   0  0  0  0  0  3  0  0  0  0  0  0
  184.4320  177.8130  146.1540 C   0  0  0  0  0  3  0  0  0  0  0  0
  186.1320  178.9020  144.8180 C   0  0  0  0  0  3  0  0  0  0  0  0
  185.3400  176.8010  146.4860 C   0  0  0  0  0  3  0  0  0  0  0  0
  186.6440  176.8400  145.9830 C   0  0  0  0  0  3  0  0  0  0  0  0
  187.0420  177.8910  145.1480 C   0  0  0  0  0  0  0  0  0  0  0  0
  1  3  1  0  0  0  0
  1 21  1  0  0  0  0
  2 12  1  0  0  0  0
  3  2  2  0  0  0  0
  4  6  1  0  0  0  0
  5  8  1  0  0  0  0
  6  3  1  0  0  0  0
  6  7  1  0  0  0  0
  8  7  1  0  0  0  0
  9 10  1  0  0  0  0
  9  5  1  0  0  0  0
 10  6  1  0  0  0  0
 12 11  2  0  0  0  0
 13 20  2  0  0  0  0
 13 18  1  0  0  0  0
 14 18  1  0  0  0  0
 15 17  1  0  0  0  0
 15 16  1  0  0  0  0
 17 12  1  0  0  0  0
 18 15  2  0  0  0  0
 19 17  2  0  0  0  0
 20 19  1  0  0  0  0
 21 27  1  0  0  0  0
 22 23  1  0  0  0  0
 23 25  2  0  0  0  0
 24 27  1  0  0  0  0
 24 22  2  0  0  0  0
 26 25  1  0  0  0  0
 27 26  2  0  0  0  0
M  END
>  <MODEL>
5

>  <REMARK>
 VINA RESULT:      -7.1      2.069      2.845
  Name = 
  5 active torsions:
  status: ('A' for Active; 'I' for Inactive)
    1  A    between atoms: N_1  and  C_18
    2  A    between atoms: N_2  and  C_19
    3  A    between atoms: C_9  and  C_15
    4  A    between atoms: C_14  and  C_19
    5  A    between atoms: C_18  and  C_26
                            x       y       z     vdW  Elec       q    Type
                         _______ _______ _______ _____ _____    ______ ____

>  <TORSDO>
F 5

$$$$
=
 OpenBabel11052418303D

 27 29  0  0  0  0  0  0  0  0999 V2000
  193.5140  175.9420  146.3790 N   0  0  0  0  0  2  0  0  0  0  0  0
  192.3230  176.3530  144.3920 N   0  0  0  0  0  0  0  0  0  0  0  0
  192.2780  176.1900  145.6920 C   0  0  0  0  0  0  0  0  0  0  0  0
  191.3340  176.4550  147.9870 C   0  0  0  0  0  1  0  0  0  0  0  0
  188.0190  176.0770  146.4560 C   0  0  0  0  0  2  0  0  0  0  0  0
  190.9950  176.2450  146.5130 C   0  0  0  0  0  0  0  0  0  0  0  0
  190.2310  174.9090  146.3940 C   0  0  0  0  0  2  0  0  0  0  0  0
  188.8540  174.9560  147.0590 C   0  0  0  0  0  2  0  0  0  0  0  0
  188.7300  177.4100  146.6500 C   0  0  0  0  0  2  0  0  0  0  0  0
  190.1000  177.3750  145.9730 C   0  0  0  0  0  2  0  0  0  0  0  0
  191.0860  177.6950  142.9090 O   0  0  0  0  0  0  0  0  0  0  0  0
  191.2860  176.5580  143.4170 C   0  0  0  0  0  0  0  0  0  0  0  0
  188.6170  173.3720  142.3380 C   0  0  0  0  0  3  0  0  0  0  0  0
  190.4560  171.6950  142.3300 C   0  0  0  0  0  1  0  0  0  0  0  0
  190.8660  174.1180  142.8660 C   0  0  0  0  0  0  0  0  0  0  0  0
  192.1830  173.8220  143.0140 F   0  0  0  0  0  0  0  0  0  0  0  0
  190.3920  175.4380  143.0410 C   0  0  0  0  0  0  0  0  0  0  0  0
  189.9730  173.0910  142.5170 C   0  0  0  0  0  0  0  0  0  0  0  0
  189.0240  175.6970  142.8520 C   0  0  0  0  0  3  0  0  0  0  0  0
  188.1430  174.6730  142.5040 C   0  0  0  0  0  3  0  0  0  0  0  0
  194.7970  175.7810  145.7030 C   0  0  0  0  0  2  0  0  0  0  0  0
  196.9540  172.6740  145.9330 C   0  0  0  0  0  3  0  0  0  0  0  0
  196.0120  171.6660  145.7130 C   0  0  0  0  0  3  0  0  0  0  0  0
  196.5570  174.0150  145.9350 C   0  0  0  0  0  3  0  0  0  0  0  0
  194.6710  171.9980  145.4940 C   0  0  0  0  0  3  0  0  0  0  0  0
  194.2730  173.3380  145.4950 C   0  0  0  0  0  3  0  0  0  0  0  0
  195.2150  174.3490  145.7160 C   0  0  0  0  0  0  0  0  0  0  0  0
  2  3  2  0  0  0  0
  3  1  1  0  0  0  0
  3  6  1  0  0  0  0
  5  9  1  0  0  0  0
  5  8  1  0  0  0  0
  6  4  1  0  0  0  0
  7  6  1  0  0  0  0
  7  8  1  0  0  0  0
 10  6  1  0  0  0  0
 10  9  1  0  0  0  0
 11 12  2  0  0  0  0
 12  2  1  0  0  0  0
 13 20  2  0  0  0  0
 13 18  1  0  0  0  0
 14 18  1  0  0  0  0
 15 16  1  0  0  0  0
 15 17  1  0  0  0  0
 17 12  1  0  0  0  0
 18 15  2  0  0  0  0
 19 17  2  0  0  0  0
 20 19  1  0  0  0  0
 21 27  1  0  0  0  0
 21  1  1  0  0  0  0
 22 24  1  0  0  0  0
 23 22  2  0  0  0  0
 25 26  2  0  0  0  0
 25 23  1  0  0  0  0
 26 27  1  0  0  0  0
 27 24  2  0  0  0  0
M  END
>  <MODEL>
6

>  <REMARK>
 VINA RESULT:      -7.0      2.603      7.222
  Name = 
  5 active torsions:
  status: ('A' for Active; 'I' for Inactive)
    1  A    between atoms: N_1  and  C_18
    2  A    between atoms: N_2  and  C_19
    3  A    between atoms: C_9  and  C_15
    4  A    between atoms: C_14  and  C_19
    5  A    between atoms: C_18  and  C_26
                            x       y       z     vdW  Elec       q    Type
                         _______ _______ _______ _____ _____    ______ ____

>  <TORSDO>
F 5

$$$$
=
 OpenBabel11052418303D

 27 29  0  0  0  0  0  0  0  0999 V2000
  188.0820  177.6320  143.4770 N   0  0  0  0  0  2  0  0  0  0  0  0
  189.3830  175.7210  143.0430 N   0  0  0  0  0  0  0  0  0  0  0  0
  188.9330  176.5700  143.9340 C   0  0  0  0  0  0  0  0  0  0  0  0
  188.3230  177.4130  146.2020 C   0  0  0  0  0  1  0  0  0  0  0  0
  191.0370  175.3120  147.5020 C   0  0  0  0  0  2  0  0  0  0  0  0
  189.2610  176.4970  145.4220 C   0  0  0  0  0  0  0  0  0  0  0  0
  190.7050  176.9840  145.6700 C   0  0  0  0  0  2  0  0  0  0  0  0
  191.1540  176.7800  147.1180 C   0  0  0  0  0  2  0  0  0  0  0  0
  189.5950  174.8510  147.3410 C   0  0  0  0  0  2  0  0  0  0  0  0
  189.1450  175.0370  145.8920 C   0  0  0  0  0  2  0  0  0  0  0  0
  189.8480  173.4170  143.1340 O   0  0  0  0  0  0  0  0  0  0  0  0
  190.2800  174.6010  143.1540 C   0  0  0  0  0  0  0  0  0  0  0  0
  194.4800  175.3320  143.6680 C   0  0  0  0  0  3  0  0  0  0  0  0
  194.6640  173.6190  145.4640 C   0  0  0  0  0  1  0  0  0  0  0  0
  192.4820  174.1140  144.3150 C   0  0  0  0  0  0  0  0  0  0  0  0
  191.8960  173.1860  145.1140 F   0  0  0  0  0  0  0  0  0  0  0  0
  191.7290  174.8320  143.3590 C   0  0  0  0  0  0  0  0  0  0  0  0
  193.8560  174.3670  144.4620 C   0  0  0  0  0  0  0  0  0  0  0  0
  192.3780  175.8000  142.5740 C   0  0  0  0  0  3  0  0  0  0  0  0
  193.7420  176.0480  142.7260 C   0  0  0  0  0  3  0  0  0  0  0  0
  187.7600  177.8640  142.0740 C   0  0  0  0  0  2  0  0  0  0  0  0
  184.0740  178.2560  142.8560 C   0  0  0  0  0  3  0  0  0  0  0  0
  183.5230  178.3150  141.5740 C   0  0  0  0  0  3  0  0  0  0  0  0
  185.4560  178.1140  143.0190 C   0  0  0  0  0  3  0  0  0  0  0  0
  184.3540  178.2310  140.4510 C   0  0  0  0  0  3  0  0  0  0  0  0
  185.7360  178.0890  140.6130 C   0  0  0  0  0  3  0  0  0  0  0  0
  186.2890  178.0310  141.8970 C   0  0  0  0  0  0  0  0  0  0  0  0
  1  3  1  0  0  0  0
  2 12  1  0  0  0  0
  2  3  2  0  0  0  0
  3  6  1  0  0  0  0
  6  7  1  0  0  0  0
  6 10  1  0  0  0  0
  6  4  1  0  0  0  0
  7  8  1  0  0  0  0
  8  5  1  0  0  0  0
  9  5  1  0  0  0  0
 10  9  1  0  0  0  0
 11 12  2  0  0  0  0
 12 17  1  0  0  0  0
 13 18  1  0  0  0  0
 15 18  2  0  0  0  0
 15 16  1  0  0  0  0
 17 15  1  0  0  0  0
 18 14  1  0  0  0  0
 19 20  1  0  0  0  0
 19 17  2  0  0  0  0
 20 13  2  0  0  0  0
 21  1  1  0  0  0  0
 22 24  1  0  0  0  0
 23 22  2  0  0  0  0
 25 26  2  0  0  0  0
 25 23  1  0  0  0  0
 26 27  1  0  0  0  0
 27 21  1  0  0  0  0
 27 24  2  0  0  0  0
M  END
>  <MODEL>
7

>  <REMARK>
 VINA RESULT:      -6.9      2.182      3.891
  Name = 
  5 active torsions:
  status: ('A' for Active; 'I' for Inactive)
    1  A    between atoms: N_1  and  C_18
    2  A    between atoms: N_2  and  C_19
    3  A    between atoms: C_9  and  C_15
    4  A    between atoms: C_14  and  C_19
    5  A    between atoms: C_18  and  C_26
                            x       y       z     vdW  Elec       q    Type
                         _______ _______ _______ _____ _____    ______ ____

>  <TORSDO>
F 5

$$$$
=
 OpenBabel11052418303D

 27 29  0  0  0  0  0  0  0  0999 V2000
  188.2640  175.7610  145.3640 N   0  0  0  0  0  2  0  0  0  0  0  0
  190.2220  176.9700  144.8720 N   0  0  0  0  0  0  0  0  0  0  0  0
  189.4700  175.9310  144.6030 C   0  0  0  0  0  0  0  0  0  0  0  0
  190.2830  175.5930  142.2670 C   0  0  0  0  0  1  0  0  0  0  0  0
  189.8740  171.9920  142.8520 C   0  0  0  0  0  2  0  0  0  0  0  0
  189.8020  174.8930  143.5360 C   0  0  0  0  0  0  0  0  0  0  0  0
  188.5380  174.0840  143.1740 C   0  0  0  0  0  2  0  0  0  0  0  0
  188.8360  172.9160  142.2310 C   0  0  0  0  0  2  0  0  0  0  0  0
  191.1540  172.7690  143.1310 C   0  0  0  0  0  2  0  0  0  0  0  0
  190.8650  173.9280  144.0860 C   0  0  0  0  0  2  0  0  0  0  0  0
  191.5680  178.3380  143.5120 O   0  0  0  0  0  0  0  0  0  0  0  0
  191.4920  177.3950  144.3460 C   0  0  0  0  0  0  0  0  0  0  0  0
  195.0590  175.3410  145.5690 C   0  0  0  0  0  3  0  0  0  0  0  0
  195.8400  175.0830  143.2210 C   0  0  0  0  0  1  0  0  0  0  0  0
  193.6740  176.2290  143.7850 C   0  0  0  0  0  0  0  0  0  0  0  0
  193.4710  176.4140  142.4550 F   0  0  0  0  0  0  0  0  0  0  0  0
  192.7300  176.6800  144.7350 C   0  0  0  0  0  0  0  0  0  0  0  0
  194.8350  175.5640  144.2090 C   0  0  0  0  0  0  0  0  0  0  0  0
  192.9740  176.4430  146.0980 C   0  0  0  0  0  3  0  0  0  0  0  0
  194.1290  175.7790  146.5130 C   0  0  0  0  0  3  0  0  0  0  0  0
  187.8760  176.6320  146.4680 C   0  0  0  0  0  2  0  0  0  0  0  0
  185.6240  179.0650  144.6360 C   0  0  0  0  0  3  0  0  0  0  0  0
  184.4580  178.9970  145.4040 C   0  0  0  0  0  3  0  0  0  0  0  0
  186.7350  178.2910  144.9800 C   0  0  0  0  0  3  0  0  0  0  0  0
  184.4040  178.1530  146.5180 C   0  0  0  0  0  3  0  0  0  0  0  0
  185.5150  177.3780  146.8630 C   0  0  0  0  0  3  0  0  0  0  0  0
  186.6830  177.4450  146.0940 C   0  0  0  0  0  0  0  0  0  0  0  0
  1 21  1  0  0  0  0
  3  2  2  0  0  0  0
  3  1  1  0  0  0  0
  4  6  1  0  0  0  0
  5  9  1  0  0  0  0
  6 10  1  0  0  0  0
  6  3  1  0  0  0  0
  7  6  1  0  0  0  0
  8  5  1  0  0  0  0
  8  7  1  0  0  0  0
  9 10  1  0  0  0  0
 11 12  2  0  0  0  0
 12 17  1  0  0  0  0
 12  2  1  0  0  0  0
 13 20  1  0  0  0  0
 14 18  1  0  0  0  0
 15 18  1  0  0  0  0
 15 17  2  0  0  0  0
 16 15  1  0  0  0  0
 17 19  1  0  0  0  0
 18 13  2  0  0  0  0
 19 20  2  0  0  0  0
 22 24  2  0  0  0  0
 22 23  1  0  0  0  0
 23 25  2  0  0  0  0
 24 27  1  0  0  0  0
 25 26  1  0  0  0  0
 27 21  1  0  0  0  0
 27 26  2  0  0  0  0
M  END
>  <MODEL>
8

>  <REMARK>
 VINA RESULT:      -6.8      1.629      2.550
  Name = 
  5 active torsions:
  status: ('A' for Active; 'I' for Inactive)
    1  A    between atoms: N_1  and  C_18
    2  A    between atoms: N_2  and  C_19
    3  A    between atoms: C_9  and  C_15
    4  A    between atoms: C_14  and  C_19
    5  A    between atoms: C_18  and  C_26
                            x       y       z     vdW  Elec       q    Type
                         _______ _______ _______ _____ _____    ______ ____

>  <TORSDO>
F 5

$$$$
=
 OpenBabel11052418303D

 27 29  0  0  0  0  0  0  0  0999 V2000
  188.9420  173.9790  142.7070 N   0  0  0  0  0  2  0  0  0  0  0  0
  188.5710  176.1880  143.4270 N   0  0  0  0  0  0  0  0  0  0  0  0
  189.0820  175.0120  143.6950 C   0  0  0  0  0  0  0  0  0  0  0  0
  190.0590  173.1700  145.0690 C   0  0  0  0  0  1  0  0  0  0  0  0
  190.9640  175.7450  147.5240 C   0  0  0  0  0  2  0  0  0  0  0  0
  189.8130  174.6750  144.9910 C   0  0  0  0  0  0  0  0  0  0  0  0
  188.9460  175.0720  146.2050 C   0  0  0  0  0  2  0  0  0  0  0  0
  189.6880  174.9150  147.5350 C   0  0  0  0  0  2  0  0  0  0  0  0
  191.8610  175.2960  146.3780 C   0  0  0  0  0  2  0  0  0  0  0  0
  191.1310  175.4660  145.0450 C   0  0  0  0  0  2  0  0  0  0  0  0
  189.5320  177.9730  144.6190 O   0  0  0  0  0  0  0  0  0  0  0  0
  188.4900  177.3960  144.2040 C   0  0  0  0  0  0  0  0  0  0  0  0
  184.6410  179.0160  145.2010 C   0  0  0  0  0  3  0  0  0  0  0  0
  185.0100  178.6660  147.6380 C   0  0  0  0  0  1  0  0  0  0  0  0
  186.7380  178.0310  145.9250 C   0  0  0  0  0  0  0  0  0  0  0  0
  187.5220  177.5840  146.9390 F   0  0  0  0  0  0  0  0  0  0  0  0
  187.1670  177.9460  144.5810 C   0  0  0  0  0  0  0  0  0  0  0  0
  185.4760  178.5690  146.2270 C   0  0  0  0  0  0  0  0  0  0  0  0
  186.3090  178.3990  143.5660 C   0  0  0  0  0  3  0  0  0  0  0  0
  185.0560  178.9300  143.8720 C   0  0  0  0  0  3  0  0  0  0  0  0
  188.1950  174.1440  141.4650 C   0  0  0  0  0  2  0  0  0  0  0  0
  191.2480  173.3090  139.3840 C   0  0  0  0  0  3  0  0  0  0  0  0
  190.7380  173.4180  138.0870 C   0  0  0  0  0  3  0  0  0  0  0  0
  190.4170  173.5410  140.4840 C   0  0  0  0  0  3  0  0  0  0  0  0
  189.3960  173.7610  137.8900 C   0  0  0  0  0  3  0  0  0  0  0  0
  188.5650  173.9930  138.9900 C   0  0  0  0  0  3  0  0  0  0  0  0
  189.0740  173.8820  140.2900 C   0  0  0  0  0  0  0  0  0  0  0  0
  1  3  1  0  0  0  0
  2  3  2  0  0  0  0
  2 12  1  0  0  0  0
  3  6  1  0  0  0  0
  5  8  1  0  0  0  0
  6 10  1  0  0  0  0
  6  4  1  0  0  0  0
  6  7  1  0  0  0  0
  7  8  1  0  0  0  0
  9  5  1  0  0  0  0
 10  9  1  0  0  0  0
 12 17  1  0  0  0  0
 12 11  2  0  0  0  0
 13 18  1  0  0  0  0
 15 18  2  0  0  0  0
 15 16  1  0  0  0  0
 17 15  1  0  0  0  0
 18 14  1  0  0  0  0
 19 20  1  0  0  0  0
 19 17  2  0  0  0  0
 20 13  2  0  0  0  0
 21  1  1  0  0  0  0
 22 24  1  0  0  0  0
 23 22  2  0  0  0  0
 25 23  1  0  0  0  0
 25 26  2  0  0  0  0
 26 27  1  0  0  0  0
 27 24  2  0  0  0  0
 27 21  1  0  0  0  0
M  END
>  <MODEL>
9

>  <REMARK>
 VINA RESULT:      -6.8      2.361      6.066
  Name = 
  5 active torsions:
  status: ('A' for Active; 'I' for Inactive)
    1  A    between atoms: N_1  and  C_18
    2  A    between atoms: N_2  and  C_19
    3  A    between atoms: C_9  and  C_15
    4  A    between atoms: C_14  and  C_19
    5  A    between atoms: C_18  and  C_26
                            x       y       z     vdW  Elec       q    Type
                         _______ _______ _______ _____ _____    ______ ____

>  <TORSDO>
F 5

$$$$
