=
 OpenBabel11052417063D

 30 34  0  0  1  0  0  0  0  0999 V2000
  188.6670  175.9410  145.4460 C   0  0  2  0  0  3  0  0  0  0  0  0
  188.3520  176.8960  144.2510 C   0  0  1  0  0  0  0  0  0  0  0  0
  187.6180  175.9930  146.5620 C   0  0  0  0  0  2  0  0  0  0  0  0
  185.6840  178.9760  145.9210 C   0  0  0  0  0  2  0  0  0  0  0  0
  187.2580  178.2500  141.8630 C   0  0  1  0  0  3  0  0  0  0  0  0
  186.3690  177.7550  145.5220 N   0  0  2  0  0  0  0  0  0  0  0  0
  186.2480  177.6730  147.8750 C   0  0  0  0  0  2  0  0  0  0  0  0
  188.2600  177.1440  141.6580 C   0  0  2  0  0  3  0  0  0  0  0  0
  187.1470  177.4240  146.6950 C   0  0  1  0  0  3  0  0  0  0  0  0
  187.2530  177.9960  144.3730 C   0  0  2  0  0  3  0  0  0  0  0  0
  187.6550  176.2460  140.7950 O   0  0  0  0  0  0  0  0  0  0  0  0
  186.4490  178.2320  140.7260 O   0  0  0  0  0  0  0  0  0  0  0  0
  184.0580  178.5230  147.5930 F   0  0  0  0  0  0  0  0  0  0  0  0
  185.3920  178.8370  147.4100 C   0  0  2  0  0  3  0  0  0  0  0  0
  189.5220  177.4030  143.6530 O   0  0  0  0  0  0  0  0  0  0  0  0
  188.8210  176.4400  142.9030 C   0  0  1  0  0  3  0  0  0  0  0  0
  186.8110  177.0630  140.0230 C   0  0  0  0  0  2  0  0  0  0  0  0
  185.6110  176.8960  142.9900 O   0  0  0  0  0  1  0  0  0  0  0  0
  186.3950  178.0510  143.1060 C   0  0  2  0  0  3  0  0  0  0  0  0
  190.0880  176.0080  146.0510 C   0  0  2  0  0  3  0  0  0  0  0  0
  191.0600  174.9280  145.5520 C   0  0  2  0  0  3  0  0  0  0  0  0
  191.9930  175.4310  144.4590 C   0  0  0  0  0  2  0  0  0  0  0  0
  192.7170  174.3650  143.9240 O   0  0  0  0  0  1  0  0  0  0  0  0
  190.3080  173.7620  145.0790 C   0  0  0  0  0  0  0  0  0  0  0  0
  189.7160  172.8400  144.7050 N   0  0  0  0  0  0  0  0  0  0  0  0
  190.0670  176.1040  147.4490 O   0  0  0  0  0  0  0  0  0  0  0  0
  191.1880  176.8720  147.7760 C   0  0  0  0  0  2  0  0  0  0  0  0
  190.8300  177.9750  148.7270 C   0  0  0  0  0  0  0  0  0  0  0  0
  191.5610  178.1660  150.0160 C   0  0  0  0  0  1  0  0  0  0  0  0
  189.9200  178.7330  148.4420 O   0  0  0  0  0  0  0  0  0  0  0  0
  1 20  1  1  0  0  0
  1  3  1  0  0  0  0
  2 15  1  1  0  0  0
  2 10  1  0  0  0  0
  2  1  1  0  0  0  0
  4 14  1  0  0  0  0
  5 12  1  6  0  0  0
  5 19  1  0  0  0  0
  6  4  1  1  0  0  0
  6  9  1  0  0  0  0
  8 11  1  6  0  0  0
  8  5  1  0  0  0  0
  8 16  1  0  0  0  0
  9  3  1  6  0  0  0
  9  7  1  0  0  0  0
 10  6  1  0  0  0  0
 14 13  1  0  0  0  0
 14  7  1  0  0  0  0
 16 15  1  0  0  0  0
 16  2  1  0  0  0  0
 17 12  1  0  0  0  0
 17 11  1  0  0  0  0
 18 19  1  0  0  0  0
 19 10  1  0  0  0  0
 20 26  1  0  0  0  0
 21 20  1  0  0  0  0
 22 21  1  0  0  0  0
 23 22  1  0  0  0  0
 24 21  1  0  0  0  0
 25 24  3  0  0  0  0
 26 27  1  0  0  0  0
 27 28  1  0  0  0  0
 28 29  1  0  0  0  0
 30 28  2  0  0  0  0
M  END
>  <MODEL>
1

>  <REMARK>
 VINA RESULT:      -6.9      0.000      0.000
  Name = 
  7 active torsions:
  status: ('A' for Active; 'I' for Inactive)
    1  A    between atoms: C_1  and  C_22
    2  A    between atoms: C_2  and  C_14
    3  A    between atoms: C_3  and  C_19
    4  A    between atoms: C_14  and  C_20
    5  A    between atoms: C_14  and  C_22
    6  A    between atoms: C_19  and  O_29
    7  A    between atoms: C_22  and  O_29
                            x       y       z     vdW  Elec       q    Type
                         _______ _______ _______ _____ _____    ______ ____

>  <TORSDO>
F 7

$$$$
=
 OpenBabel11052417063D

 30 34  0  0  1  0  0  0  0  0999 V2000
  188.4690  177.1030  143.1490 C   0  0  2  0  0  3  0  0  0  0  0  0
  188.5840  175.6040  142.7240 C   0  0  1  0  0  0  0  0  0  0  0  0
  189.5480  177.5390  144.1450 C   0  0  0  0  0  2  0  0  0  0  0  0
  190.9870  174.4740  145.4030 C   0  0  0  0  0  2  0  0  0  0  0  0
  189.3540  172.9900  141.5810 C   0  0  1  0  0  3  0  0  0  0  0  0
  190.4730  175.3370  144.3500 N   0  0  2  0  0  0  0  0  0  0  0  0
  190.7120  176.7220  146.2430 C   0  0  0  0  0  2  0  0  0  0  0  0
  188.5200  173.9190  140.7370 C   0  0  2  0  0  3  0  0  0  0  0  0
  189.8080  176.3860  145.0890 C   0  0  1  0  0  3  0  0  0  0  0  0
  189.5120  174.6210  143.5010 C   0  0  2  0  0  3  0  0  0  0  0  0
  189.2110  174.0660  139.5460 O   0  0  0  0  0  0  0  0  0  0  0  0
  190.1050  172.2400  140.6740 O   0  0  0  0  0  0  0  0  0  0  0  0
  192.7360  175.5490  146.5980 F   0  0  0  0  0  0  0  0  0  0  0  0
  191.3640  175.3890  146.5620 C   0  0  2  0  0  3  0  0  0  0  0  0
  187.3260  175.0280  142.4650 O   0  0  0  0  0  0  0  0  0  0  0  0
  188.1270  175.2780  141.3350 C   0  0  1  0  0  3  0  0  0  0  0  0
  189.8880  172.8410  139.4160 C   0  0  0  0  0  2  0  0  0  0  0  0
  191.2340  174.4830  141.8170 O   0  0  0  0  0  1  0  0  0  0  0  0
  190.2930  173.7300  142.5300 C   0  0  2  0  0  3  0  0  0  0  0  0
  187.0830  177.6030  143.6170 C   0  0  2  0  0  3  0  0  0  0  0  0
  186.4950  178.7580  142.7920 C   0  0  2  0  0  3  0  0  0  0  0  0
  185.3840  179.5000  143.5220 C   0  0  0  0  0  2  0  0  0  0  0  0
  184.1920  178.7810  143.4320 O   0  0  0  0  0  1  0  0  0  0  0  0
  186.0070  178.2530  141.5050 C   0  0  0  0  0  0  0  0  0  0  0  0
  185.6220  177.8560  140.4890 N   0  0  0  0  0  0  0  0  0  0  0  0
  187.0460  177.8550  144.9940 O   0  0  0  0  0  0  0  0  0  0  0  0
  186.2470  176.8390  145.5280 C   0  0  0  0  0  2  0  0  0  0  0  0
  185.6220  177.2650  146.8220 C   0  0  0  0  0  0  0  0  0  0  0  0
  184.4640  178.2070  146.8610 C   0  0  0  0  0  1  0  0  0  0  0  0
  186.0720  176.8310  147.8690 O   0  0  0  0  0  0  0  0  0  0  0  0
  1 20  1  1  0  0  0
  1  3  1  0  0  0  0
  2 15  1  1  0  0  0
  2  1  1  0  0  0  0
  2 10  1  0  0  0  0
  4 14  1  0  0  0  0
  5 12  1  6  0  0  0
  5 19  1  0  0  0  0
  6  9  1  0  0  0  0
  6  4  1  1  0  0  0
  7 14  1  0  0  0  0
  8 11  1  6  0  0  0
  8 16  1  0  0  0  0
  8  5  1  0  0  0  0
  9  3  1  6  0  0  0
  9  7  1  0  0  0  0
 10  6  1  0  0  0  0
 14 13  1  0  0  0  0
 16 15  1  0  0  0  0
 16  2  1  0  0  0  0
 17 11  1  0  0  0  0
 17 12  1  0  0  0  0
 18 19  1  0  0  0  0
 19 10  1  0  0  0  0
 20 26  1  0  0  0  0
 21 22  1  0  0  0  0
 21 20  1  0  0  0  0
 23 22  1  0  0  0  0
 24 21  1  0  0  0  0
 25 24  3  0  0  0  0
 26 27  1  0  0  0  0
 27 28  1  0  0  0  0
 28 29  1  0  0  0  0
 28 30  2  0  0  0  0
M  END
>  <MODEL>
2

>  <REMARK>
 VINA RESULT:      -6.9      3.017      5.721
  Name = 
  7 active torsions:
  status: ('A' for Active; 'I' for Inactive)
    1  A    between atoms: C_1  and  C_22
    2  A    between atoms: C_2  and  C_14
    3  A    between atoms: C_3  and  C_19
    4  A    between atoms: C_14  and  C_20
    5  A    between atoms: C_14  and  C_22
    6  A    between atoms: C_19  and  O_29
    7  A    between atoms: C_22  and  O_29
                            x       y       z     vdW  Elec       q    Type
                         _______ _______ _______ _____ _____    ______ ____

>  <TORSDO>
F 7

$$$$
=
 OpenBabel11052417063D

 30 34  0  0  1  0  0  0  0  0999 V2000
  188.3970  177.2210  143.1080 C   0  0  2  0  0  3  0  0  0  0  0  0
  187.2920  177.1170  144.2070 C   0  0  1  0  0  0  0  0  0  0  0  0
  187.9130  177.8950  141.8190 C   0  0  0  0  0  2  0  0  0  0  0  0
  184.3080  177.9150  142.0420 C   0  0  0  0  0  2  0  0  0  0  0  0
  185.2940  177.5980  146.3310 C   0  0  1  0  0  3  0  0  0  0  0  0
  185.6490  178.0870  142.5820 N   0  0  2  0  0  0  0  0  0  0  0  0
  185.9250  177.9010  140.2470 C   0  0  0  0  0  2  0  0  0  0  0  0
  186.7350  177.4200  146.7350 C   0  0  2  0  0  3  0  0  0  0  0  0
  186.4830  177.4690  141.5760 C   0  0  1  0  0  3  0  0  0  0  0  0
  185.7950  177.3910  143.8660 C   0  0  2  0  0  3  0  0  0  0  0  0
  187.0530  178.5360  147.4910 O   0  0  0  0  0  0  0  0  0  0  0  0
  184.7380  178.4320  147.3030 O   0  0  0  0  0  0  0  0  0  0  0  0
  183.9960  179.2630  140.1110 F   0  0  0  0  0  0  0  0  0  0  0  0
  184.4380  178.0220  140.5270 C   0  0  2  0  0  3  0  0  0  0  0  0
  187.4360  175.9610  144.9980 O   0  0  0  0  0  0  0  0  0  0  0  0
  187.7700  177.1750  145.6260 C   0  0  1  0  0  3  0  0  0  0  0  0
  185.8250  178.8820  148.0820 C   0  0  0  0  0  2  0  0  0  0  0  0
  185.6570  179.5420  144.9490 O   0  0  0  0  0  1  0  0  0  0  0  0
  185.1360  178.2420  144.9560 C   0  0  2  0  0  3  0  0  0  0  0  0
  189.1830  175.9340  142.7690 C   0  0  2  0  0  3  0  0  0  0  0  0
  190.7110  176.0650  142.8510 C   0  0  2  0  0  3  0  0  0  0  0  0
  191.3500  175.0070  143.7400 C   0  0  0  0  0  2  0  0  0  0  0  0
  190.4140  174.5280  144.6580 O   0  0  0  0  0  1  0  0  0  0  0  0
  191.0720  177.4060  143.3210 C   0  0  0  0  0  0  0  0  0  0  0  0
  191.3580  178.4650  143.6900 N   0  0  0  0  0  0  0  0  0  0  0  0
  188.7590  175.3520  141.5680 O   0  0  0  0  0  0  0  0  0  0  0  0
  188.0670  174.1980  141.9480 C   0  0  0  0  0  2  0  0  0  0  0  0
  188.9170  172.9750  141.7730 C   0  0  0  0  0  0  0  0  0  0  0  0
  189.7450  172.7650  140.5470 C   0  0  0  0  0  1  0  0  0  0  0  0
  188.9300  172.1310  142.6520 O   0  0  0  0  0  0  0  0  0  0  0  0
  1 20  1  6  0  0  0
  1  2  1  0  0  0  0
  2 15  1  6  0  0  0
  2 16  1  0  0  0  0
  3  1  1  0  0  0  0
  5  8  1  0  0  0  0
  5 12  1  1  0  0  0
  6  4  1  6  0  0  0
  6 10  1  0  0  0  0
  7 14  1  0  0  0  0
  8 11  1  6  0  0  0
  9  7  1  6  0  0  0
  9  3  1  0  0  0  0
  9  6  1  0  0  0  0
 10  2  1  0  0  0  0
 10 19  1  0  0  0  0
 11 17  1  0  0  0  0
 12 17  1  0  0  0  0
 13 14  1  0  0  0  0
 14  4  1  0  0  0  0
 15 16  1  0  0  0  0
 16  8  1  0  0  0  0
 18 19  1  0  0  0  0
 19  5  1  0  0  0  0
 20 21  1  0  0  0  0
 21 24  1  0  0  0  0
 21 22  1  0  0  0  0
 22 23  1  0  0  0  0
 24 25  3  0  0  0  0
 26 27  1  0  0  0  0
 26 20  1  0  0  0  0
 28 27  1  0  0  0  0
 28 30  2  0  0  0  0
 29 28  1  0  0  0  0
M  END
>  <MODEL>
3

>  <REMARK>
 VINA RESULT:      -6.7      2.955      5.631
  Name = 
  7 active torsions:
  status: ('A' for Active; 'I' for Inactive)
    1  A    between atoms: C_1  and  C_22
    2  A    between atoms: C_2  and  C_14
    3  A    between atoms: C_3  and  C_19
    4  A    between atoms: C_14  and  C_20
    5  A    between atoms: C_14  and  C_22
    6  A    between atoms: C_19  and  O_29
    7  A    between atoms: C_22  and  O_29
                            x       y       z     vdW  Elec       q    Type
                         _______ _______ _______ _____ _____    ______ ____

>  <TORSDO>
F 7

$$$$
=
 OpenBabel11052417063D

 30 34  0  0  1  0  0  0  0  0999 V2000
  188.8150  176.9540  142.3690 C   0  0  2  0  0  3  0  0  0  0  0  0
  189.0000  175.4040  142.2990 C   0  0  1  0  0  0  0  0  0  0  0  0
  190.0800  177.6990  142.8090 C   0  0  0  0  0  2  0  0  0  0  0  0
  192.2520  175.1670  144.1960 C   0  0  0  0  0  2  0  0  0  0  0  0
  189.7310  172.6230  141.6180 C   0  0  1  0  0  3  0  0  0  0  0  0
  191.3190  175.6850  143.2060 N   0  0  2  0  0  0  0  0  0  0  0  0
  191.9430  177.5410  144.5210 C   0  0  0  0  0  2  0  0  0  0  0  0
  188.5540  173.2440  140.9110 C   0  0  2  0  0  3  0  0  0  0  0  0
  190.7790  176.8590  143.8540 C   0  0  1  0  0  3  0  0  0  0  0  0
  190.2520  174.7170  142.9260 C   0  0  2  0  0  3  0  0  0  0  0  0
  188.8120  173.1000  139.5580 O   0  0  0  0  0  0  0  0  0  0  0  0
  190.2580  171.6960  140.7160 O   0  0  0  0  0  0  0  0  0  0  0  0
  194.1190  176.6160  144.4390 F   0  0  0  0  0  0  0  0  0  0  0  0
  192.8400  176.3790  144.9080 C   0  0  2  0  0  3  0  0  0  0  0  0
  187.8170  174.7130  142.6240 O   0  0  0  0  0  0  0  0  0  0  0  0
  188.1820  174.6910  141.2650 C   0  0  1  0  0  3  0  0  0  0  0  0
  189.5780  171.9230  139.5010 C   0  0  0  0  0  2  0  0  0  0  0  0
  191.3640  174.2210  140.8440 O   0  0  0  0  0  1  0  0  0  0  0  0
  190.8070  173.6400  141.9900 C   0  0  2  0  0  3  0  0  0  0  0  0
  187.5900  177.4870  143.1450 C   0  0  2  0  0  3  0  0  0  0  0  0
  186.7360  178.5140  142.3860 C   0  0  2  0  0  3  0  0  0  0  0  0
  185.5020  178.9490  143.1640 C   0  0  0  0  0  2  0  0  0  0  0  0
  184.5650  177.9160  143.1880 O   0  0  0  0  0  1  0  0  0  0  0  0
  186.3450  177.9700  141.0810 C   0  0  0  0  0  0  0  0  0  0  0  0
  186.0360  177.5410  140.0520 N   0  0  0  0  0  0  0  0  0  0  0  0
  187.9230  177.9170  144.4350 O   0  0  0  0  0  0  0  0  0  0  0  0
  187.4200  176.9310  145.2880 C   0  0  0  0  0  2  0  0  0  0  0  0
  188.3780  176.6390  146.4040 C   0  0  0  0  0  0  0  0  0  0  0  0
  188.9410  175.2710  146.6170 C   0  0  0  0  0  1  0  0  0  0  0  0
  188.7040  177.5400  147.1580 O   0  0  0  0  0  0  0  0  0  0  0  0
  1  3  1  0  0  0  0
  1 20  1  1  0  0  0
  2  1  1  0  0  0  0
  2 15  1  1  0  0  0
  2 10  1  0  0  0  0
  4 14  1  0  0  0  0
  5 12  1  6  0  0  0
  5 19  1  0  0  0  0
  6  9  1  0  0  0  0
  6  4  1  1  0  0  0
  7 14  1  0  0  0  0
  8 11  1  6  0  0  0
  8 16  1  0  0  0  0
  8  5  1  0  0  0  0
  9  3  1  6  0  0  0
  9  7  1  0  0  0  0
 10  6  1  0  0  0  0
 13 14  1  0  0  0  0
 16  2  1  0  0  0  0
 16 15  1  0  0  0  0
 17 11  1  0  0  0  0
 17 12  1  0  0  0  0
 18 19  1  0  0  0  0
 19 10  1  0  0  0  0
 20 26  1  0  0  0  0
 21 20  1  0  0  0  0
 21 22  1  0  0  0  0
 22 23  1  0  0  0  0
 24 21  1  0  0  0  0
 25 24  3  0  0  0  0
 26 27  1  0  0  0  0
 27 28  1  0  0  0  0
 28 29  1  0  0  0  0
 28 30  2  0  0  0  0
M  END
>  <MODEL>
4

>  <REMARK>
 VINA RESULT:      -6.5      3.306      5.910
  Name = 
  7 active torsions:
  status: ('A' for Active; 'I' for Inactive)
    1  A    between atoms: C_1  and  C_22
    2  A    between atoms: C_2  and  C_14
    3  A    between atoms: C_3  and  C_19
    4  A    between atoms: C_14  and  C_20
    5  A    between atoms: C_14  and  C_22
    6  A    between atoms: C_19  and  O_29
    7  A    between atoms: C_22  and  O_29
                            x       y       z     vdW  Elec       q    Type
                         _______ _______ _______ _____ _____    ______ ____

>  <TORSDO>
F 7

$$$$
=
 OpenBabel11052417063D

 30 34  0  0  1  0  0  0  0  0999 V2000
  189.4210  174.4710  143.5140 C   0  0  2  0  0  3  0  0  0  0  0  0
  188.7760  175.8910  143.6110 C   0  0  1  0  0  0  0  0  0  0  0  0
  190.1020  174.0210  144.8110 C   0  0  0  0  0  2  0  0  0  0  0  0
  190.4330  177.0110  146.8100 C   0  0  0  0  0  2  0  0  0  0  0  0
  187.1040  178.2560  144.1960 C   0  0  1  0  0  3  0  0  0  0  0  0
  189.7120  176.1060  145.9260 N   0  0  2  0  0  0  0  0  0  0  0  0
  191.6230  174.9160  146.6300 C   0  0  0  0  0  2  0  0  0  0  0  0
  186.6850  177.3470  143.0690 C   0  0  2  0  0  3  0  0  0  0  0  0
  190.7550  175.2300  145.4420 C   0  0  1  0  0  3  0  0  0  0  0  0
  189.0970  176.8360  144.8100 C   0  0  2  0  0  3  0  0  0  0  0  0
  185.3740  176.9910  143.3420 O   0  0  0  0  0  0  0  0  0  0  0  0
  185.9190  178.8090  144.6850 O   0  0  0  0  0  0  0  0  0  0  0  0
  191.1910  175.8710  148.7510 F   0  0  0  0  0  0  0  0  0  0  0  0
  191.5430  176.1890  147.4530 C   0  0  2  0  0  3  0  0  0  0  0  0
  188.8260  176.5820  142.3850 O   0  0  0  0  0  0  0  0  0  0  0  0
  187.5550  176.1170  142.7730 C   0  0  1  0  0  3  0  0  0  0  0  0
  184.8790  178.1050  144.0410 C   0  0  0  0  0  2  0  0  0  0  0  0
  186.9750  176.5840  145.9300 O   0  0  0  0  0  1  0  0  0  0  0  0
  187.8240  177.5170  145.3200 C   0  0  2  0  0  3  0  0  0  0  0  0
  190.3450  174.1940  142.3070 C   0  0  2  0  0  3  0  0  0  0  0  0
  189.8660  173.0810  141.3630 C   0  0  2  0  0  3  0  0  0  0  0  0
  188.3780  173.1670  141.0510 C   0  0  0  0  0  2  0  0  0  0  0  0
  188.1910  173.5320  139.7180 O   0  0  0  0  0  1  0  0  0  0  0  0
  190.1880  171.7700  141.9350 C   0  0  0  0  0  0  0  0  0  0  0  0
  190.4420  170.7350  142.3880 N   0  0  0  0  0  0  0  0  0  0  0  0
  191.6840  174.0340  142.6870 O   0  0  0  0  0  0  0  0  0  0  0  0
  192.3880  174.9880  141.9470 C   0  0  0  0  0  2  0  0  0  0  0  0
  192.8170  176.1360  142.8100 C   0  0  0  0  0  0  0  0  0  0  0  0
  194.0080  176.0410  143.7070 C   0  0  0  0  0  1  0  0  0  0  0  0
  192.1760  177.1720  142.7800 O   0  0  0  0  0  0  0  0  0  0  0  0
  1 20  1  6  0  0  0
  1  2  1  0  0  0  0
  1  3  1  0  0  0  0
  2 15  1  6  0  0  0
  2 10  1  0  0  0  0
  4 14  1  0  0  0  0
  5 12  1  1  0  0  0
  5 19  1  0  0  0  0
  6  4  1  1  0  0  0
  7 14  1  0  0  0  0
  8 11  1  1  0  0  0
  8  5  1  0  0  0  0
  9  3  1  1  0  0  0
  9  6  1  0  0  0  0
  9  7  1  0  0  0  0
 10 19  1  0  0  0  0
 10  6  1  0  0  0  0
 11 17  1  0  0  0  0
 14 13  1  0  0  0  0
 15 16  1  0  0  0  0
 16  8  1  0  0  0  0
 16  2  1  0  0  0  0
 17 12  1  0  0  0  0
 19 18  1  0  0  0  0
 20 26  1  0  0  0  0
 21 24  1  0  0  0  0
 21 20  1  0  0  0  0
 22 21  1  0  0  0  0
 23 22  1  0  0  0  0
 24 25  3  0  0  0  0
 27 26  1  0  0  0  0
 27 28  1  0  0  0  0
 28 29  1  0  0  0  0
 30 28  2  0  0  0  0
M  END
>  <MODEL>
5

>  <REMARK>
 VINA RESULT:      -6.3      2.616      4.634
  Name = 
  7 active torsions:
  status: ('A' for Active; 'I' for Inactive)
    1  A    between atoms: C_1  and  C_22
    2  A    between atoms: C_2  and  C_14
    3  A    between atoms: C_3  and  C_19
    4  A    between atoms: C_14  and  C_20
    5  A    between atoms: C_14  and  C_22
    6  A    between atoms: C_19  and  O_29
    7  A    between atoms: C_22  and  O_29
                            x       y       z     vdW  Elec       q    Type
                         _______ _______ _______ _____ _____    ______ ____

>  <TORSDO>
F 7

$$$$
=
 OpenBabel11052417063D

 30 34  0  0  1  0  0  0  0  0999 V2000
  188.4100  175.3740  143.9990 C   0  0  2  0  0  3  0  0  0  0  0  0
  187.8520  176.6380  144.7290 C   0  0  1  0  0  0  0  0  0  0  0  0
  189.4040  174.5710  144.8450 C   0  0  0  0  0  2  0  0  0  0  0  0
  190.3370  176.7590  147.5640 C   0  0  0  0  0  2  0  0  0  0  0  0
  186.4590  178.5640  146.4830 C   0  0  1  0  0  3  0  0  0  0  0  0
  189.3820  176.1460  146.6520 N   0  0  2  0  0  0  0  0  0  0  0  0
  191.3810  174.9210  146.3920 C   0  0  0  0  0  2  0  0  0  0  0  0
  185.7290  178.0490  145.2700 C   0  0  2  0  0  3  0  0  0  0  0  0
  190.2330  175.5480  145.6480 C   0  0  1  0  0  3  0  0  0  0  0  0
  188.5070  177.1580  146.0450 C   0  0  2  0  0  3  0  0  0  0  0  0
  184.5320  177.5360  145.7430 O   0  0  0  0  0  0  0  0  0  0  0  0
  185.4640  178.8470  147.4220 O   0  0  0  0  0  0  0  0  0  0  0  0
  191.5610  175.1000  148.7450 F   0  0  0  0  0  0  0  0  0  0  0  0
  191.5580  175.8470  147.5820 C   0  0  2  0  0  3  0  0  0  0  0  0
  187.5870  177.6930  143.8350 O   0  0  0  0  0  0  0  0  0  0  0  0
  186.4560  177.0430  144.3650 C   0  0  1  0  0  3  0  0  0  0  0  0
  184.2720  178.3250  146.8770 C   0  0  0  0  0  2  0  0  0  0  0  0
  186.7600  176.4130  147.5320 O   0  0  0  0  0  1  0  0  0  0  0  0
  187.4360  177.5480  147.0680 C   0  0  2  0  0  3  0  0  0  0  0  0
  188.9680  175.5690  142.5710 C   0  0  2  0  0  3  0  0  0  0  0  0
  187.9940  175.2120  141.4380 C   0  0  2  0  0  3  0  0  0  0  0  0
  188.6210  174.3150  140.3790 C   0  0  0  0  0  2  0  0  0  0  0  0
  188.2370  172.9910  140.5890 O   0  0  0  0  0  1  0  0  0  0  0  0
  187.4770  176.4380  140.8210 C   0  0  0  0  0  0  0  0  0  0  0  0
  187.0700  177.4050  140.3330 N   0  0  0  0  0  0  0  0  0  0  0  0
  190.2250  174.9730  142.4050 O   0  0  0  0  0  0  0  0  0  0  0  0
  191.1310  176.0370  142.3840 C   0  0  0  0  0  2  0  0  0  0  0  0
  192.5190  175.5730  142.7130 C   0  0  0  0  0  0  0  0  0  0  0  0
  192.8210  174.1350  142.9820 C   0  0  0  0  0  1  0  0  0  0  0  0
  193.4210  176.3910  142.7640 O   0  0  0  0  0  0  0  0  0  0  0  0
  1 20  1  6  0  0  0
  1  2  1  0  0  0  0
  1  3  1  0  0  0  0
  2 15  1  6  0  0  0
  2 10  1  0  0  0  0
  4 14  1  0  0  0  0
  5 19  1  0  0  0  0
  5 12  1  1  0  0  0
  6  4  1  1  0  0  0
  7 14  1  0  0  0  0
  8 11  1  1  0  0  0
  8  5  1  0  0  0  0
  9  3  1  1  0  0  0
  9  7  1  0  0  0  0
  9  6  1  0  0  0  0
 10  6  1  0  0  0  0
 10 19  1  0  0  0  0
 11 17  1  0  0  0  0
 14 13  1  0  0  0  0
 15 16  1  0  0  0  0
 16  2  1  0  0  0  0
 16  8  1  0  0  0  0
 17 12  1  0  0  0  0
 19 18  1  0  0  0  0
 21 20  1  0  0  0  0
 22 23  1  0  0  0  0
 22 21  1  0  0  0  0
 24 21  1  0  0  0  0
 25 24  3  0  0  0  0
 26 20  1  0  0  0  0
 27 26  1  0  0  0  0
 27 28  1  0  0  0  0
 28 30  2  0  0  0  0
 28 29  1  0  0  0  0
M  END
>  <MODEL>
6

>  <REMARK>
 VINA RESULT:      -6.2      2.735      5.344
  Name = 
  7 active torsions:
  status: ('A' for Active; 'I' for Inactive)
    1  A    between atoms: C_1  and  C_22
    2  A    between atoms: C_2  and  C_14
    3  A    between atoms: C_3  and  C_19
    4  A    between atoms: C_14  and  C_20
    5  A    between atoms: C_14  and  C_22
    6  A    between atoms: C_19  and  O_29
    7  A    between atoms: C_22  and  O_29
                            x       y       z     vdW  Elec       q    Type
                         _______ _______ _______ _____ _____    ______ ____

>  <TORSDO>
F 7

$$$$
=
 OpenBabel11052417063D

 30 34  0  0  1  0  0  0  0  0999 V2000
  188.7350  177.2980  143.3570 C   0  0  2  0  0  3  0  0  0  0  0  0
  187.5720  177.1600  144.3910 C   0  0  1  0  0  0  0  0  0  0  0  0
  188.3030  177.9440  142.0360 C   0  0  0  0  0  2  0  0  0  0  0  0
  184.6930  177.8290  142.0470 C   0  0  0  0  0  2  0  0  0  0  0  0
  185.4360  177.5800  146.3890 C   0  0  1  0  0  3  0  0  0  0  0  0
  185.9920  178.0550  142.6630 N   0  0  2  0  0  0  0  0  0  0  0  0
  186.4130  177.8630  140.3500 C   0  0  0  0  0  2  0  0  0  0  0  0
  186.8560  177.4600  146.8790 C   0  0  2  0  0  3  0  0  0  0  0  0
  186.9070  177.4620  141.7130 C   0  0  1  0  0  3  0  0  0  0  0  0
  186.0890  177.3740  143.9600 C   0  0  2  0  0  3  0  0  0  0  0  0
  187.0870  178.5920  147.6420 O   0  0  0  0  0  0  0  0  0  0  0  0
  184.7920  178.3980  147.3190 O   0  0  0  0  0  0  0  0  0  0  0  0
  184.4450  179.1500  140.0880 F   0  0  0  0  0  0  0  0  0  0  0  0
  184.9080  177.9290  140.5420 C   0  0  2  0  0  3  0  0  0  0  0  0
  187.7130  176.0160  145.1990 O   0  0  0  0  0  0  0  0  0  0  0  0
  187.9630  177.2470  145.8350 C   0  0  1  0  0  3  0  0  0  0  0  0
  185.8140  178.8960  148.1560 C   0  0  0  0  0  2  0  0  0  0  0  0
  185.8060  179.5260  145.0130 O   0  0  0  0  0  1  0  0  0  0  0  0
  185.3350  178.2070  145.0010 C   0  0  2  0  0  3  0  0  0  0  0  0
  189.5880  176.0400  143.0770 C   0  0  2  0  0  3  0  0  0  0  0  0
  188.7870  174.7650  142.7740 C   0  0  2  0  0  3  0  0  0  0  0  0
  189.3790  173.5240  143.4270 C   0  0  0  0  0  2  0  0  0  0  0  0
  190.1000  172.7890  142.4860 O   0  0  0  0  0  1  0  0  0  0  0  0
  188.6860  174.5740  141.3230 C   0  0  0  0  0  0  0  0  0  0  0  0
  188.6050  174.4250  140.1780 N   0  0  0  0  0  0  0  0  0  0  0  0
  190.5710  175.8350  144.0540 O   0  0  0  0  0  0  0  0  0  0  0  0
  191.3120  177.0200  144.0780 C   0  0  0  0  0  2  0  0  0  0  0  0
  192.7840  176.7370  144.1090 C   0  0  0  0  0  0  0  0  0  0  0  0
  193.4740  176.0460  142.9780 C   0  0  0  0  0  1  0  0  0  0  0  0
  193.4340  177.0790  145.0830 O   0  0  0  0  0  0  0  0  0  0  0  0
  1 20  1  6  0  0  0
  1  2  1  0  0  0  0
  2 15  1  6  0  0  0
  2 16  1  0  0  0  0
  3  1  1  0  0  0  0
  5  8  1  0  0  0  0
  5 12  1  1  0  0  0
  6  4  1  6  0  0  0
  6 10  1  0  0  0  0
  7 14  1  0  0  0  0
  8 11  1  6  0  0  0
  9  7  1  6  0  0  0
  9  3  1  0  0  0  0
  9  6  1  0  0  0  0
 10  2  1  0  0  0  0
 10 19  1  0  0  0  0
 11 17  1  0  0  0  0
 12 17  1  0  0  0  0
 13 14  1  0  0  0  0
 14  4  1  0  0  0  0
 15 16  1  0  0  0  0
 16  8  1  0  0  0  0
 19 18  1  0  0  0  0
 19  5  1  0  0  0  0
 20 26  1  0  0  0  0
 21 20  1  0  0  0  0
 21 22  1  0  0  0  0
 23 22  1  0  0  0  0
 24 21  1  0  0  0  0
 25 24  3  0  0  0  0
 26 27  1  0  0  0  0
 27 28  1  0  0  0  0
 28 30  2  0  0  0  0
 29 28  1  0  0  0  0
M  END
>  <MODEL>
7

>  <REMARK>
 VINA RESULT:      -6.1      2.969      4.917
  Name = 
  7 active torsions:
  status: ('A' for Active; 'I' for Inactive)
    1  A    between atoms: C_1  and  C_22
    2  A    between atoms: C_2  and  C_14
    3  A    between atoms: C_3  and  C_19
    4  A    between atoms: C_14  and  C_20
    5  A    between atoms: C_14  and  C_22
    6  A    between atoms: C_19  and  O_29
    7  A    between atoms: C_22  and  O_29
                            x       y       z     vdW  Elec       q    Type
                         _______ _______ _______ _____ _____    ______ ____

>  <TORSDO>
F 7

$$$$
=
 OpenBabel11052417063D

 30 34  0  0  1  0  0  0  0  0999 V2000
  189.4650  175.6210  143.7400 C   0  0  2  0  0  3  0  0  0  0  0  0
  188.6240  176.8040  143.1620 C   0  0  1  0  0  0  0  0  0  0  0  0
  188.9560  175.1140  145.0930 C   0  0  0  0  0  2  0  0  0  0  0  0
  186.7150  177.6800  146.2960 C   0  0  0  0  0  2  0  0  0  0  0  0
  186.5630  178.5560  141.9740 C   0  0  1  0  0  3  0  0  0  0  0  0
  187.2680  176.8070  145.2700 N   0  0  2  0  0  0  0  0  0  0  0  0
  188.1140  175.9960  147.3160 C   0  0  0  0  0  2  0  0  0  0  0  0
  187.4750  177.7970  141.0450 C   0  0  2  0  0  3  0  0  0  0  0  0
  188.4750  176.3070  145.8890 C   0  0  1  0  0  3  0  0  0  0  0  0
  187.5910  177.5620  144.0520 C   0  0  2  0  0  3  0  0  0  0  0  0
  186.6400  177.0960  140.1910 O   0  0  0  0  0  0  0  0  0  0  0  0
  185.3670  178.7140  141.2710 O   0  0  0  0  0  0  0  0  0  0  0  0
  185.9420  176.4160  148.1530 F   0  0  0  0  0  0  0  0  0  0  0  0
  187.0610  177.0410  147.6350 C   0  0  2  0  0  3  0  0  0  0  0  0
  189.4120  177.7000  142.4140 O   0  0  0  0  0  0  0  0  0  0  0  0
  188.5410  176.8840  141.6690 C   0  0  1  0  0  3  0  0  0  0  0  0
  185.4990  177.9130  140.1160 C   0  0  0  0  0  2  0  0  0  0  0  0
  185.6160  176.6130  143.0440 O   0  0  0  0  0  1  0  0  0  0  0  0
  186.2930  177.8160  143.2810 C   0  0  2  0  0  3  0  0  0  0  0  0
  191.0000  175.7960  143.7840 C   0  0  2  0  0  3  0  0  0  0  0  0
  191.7750  175.0220  142.7070 C   0  0  2  0  0  3  0  0  0  0  0  0
  192.1810  173.6260  143.1580 C   0  0  0  0  0  2  0  0  0  0  0  0
  191.2100  172.7000  142.7750 O   0  0  0  0  0  1  0  0  0  0  0  0
  192.9570  175.7860  142.2980 C   0  0  0  0  0  0  0  0  0  0  0  0
  193.8910  176.3900  141.9770 N   0  0  0  0  0  0  0  0  0  0  0  0
  191.5220  175.5950  145.0680 O   0  0  0  0  0  0  0  0  0  0  0  0
  192.1550  176.7980  145.3950 C   0  0  0  0  0  2  0  0  0  0  0  0
  193.6010  176.5770  145.7240 C   0  0  0  0  0  0  0  0  0  0  0  0
  194.1160  175.2360  146.1350 C   0  0  0  0  0  1  0  0  0  0  0  0
  194.3750  177.5160  145.6550 O   0  0  0  0  0  0  0  0  0  0  0  0
  1 20  1  1  0  0  0
  1  3  1  0  0  0  0
  2 15  1  1  0  0  0
  2  1  1  0  0  0  0
  2 10  1  0  0  0  0
  4 14  1  0  0  0  0
  5 12  1  6  0  0  0
  5 19  1  0  0  0  0
  6  9  1  0  0  0  0
  6  4  1  1  0  0  0
  7 14  1  0  0  0  0
  8 11  1  6  0  0  0
  8 16  1  0  0  0  0
  8  5  1  0  0  0  0
  9  3  1  6  0  0  0
  9  7  1  0  0  0  0
 10  6  1  0  0  0  0
 14 13  1  0  0  0  0
 16 15  1  0  0  0  0
 16  2  1  0  0  0  0
 17 11  1  0  0  0  0
 17 12  1  0  0  0  0
 18 19  1  0  0  0  0
 19 10  1  0  0  0  0
 20 26  1  0  0  0  0
 21 22  1  0  0  0  0
 21 20  1  0  0  0  0
 23 22  1  0  0  0  0
 24 21  1  0  0  0  0
 25 24  3  0  0  0  0
 26 27  1  0  0  0  0
 27 28  1  0  0  0  0
 28 29  1  0  0  0  0
 30 28  2  0  0  0  0
M  END
>  <MODEL>
8

>  <REMARK>
 VINA RESULT:      -6.1      2.187      2.745
  Name = 
  7 active torsions:
  status: ('A' for Active; 'I' for Inactive)
    1  A    between atoms: C_1  and  C_22
    2  A    between atoms: C_2  and  C_14
    3  A    between atoms: C_3  and  C_19
    4  A    between atoms: C_14  and  C_20
    5  A    between atoms: C_14  and  C_22
    6  A    between atoms: C_19  and  O_29
    7  A    between atoms: C_22  and  O_29
                            x       y       z     vdW  Elec       q    Type
                         _______ _______ _______ _____ _____    ______ ____

>  <TORSDO>
F 7

$$$$
=
 OpenBabel11052417063D

 30 34  0  0  1  0  0  0  0  0999 V2000
  189.5300  175.8300  144.3890 C   0  0  2  0  0  3  0  0  0  0  0  0
  190.9970  176.0980  143.9230 C   0  0  1  0  0  0  0  0  0  0  0  0
  188.8940  174.6040  143.7250 C   0  0  0  0  0  2  0  0  0  0  0  0
  191.0270  173.8190  140.9170 C   0  0  0  0  0  2  0  0  0  0  0  0
  193.9060  176.0460  143.4110 C   0  0  1  0  0  3  0  0  0  0  0  0
  190.7790  174.2010  142.3000 N   0  0  2  0  0  0  0  0  0  0  0  0
  188.6930  173.4990  141.4520 C   0  0  0  0  0  2  0  0  0  0  0  0
  193.4170  176.7070  144.6740 C   0  0  2  0  0  3  0  0  0  0  0  0
  189.3750  174.5450  142.2920 C   0  0  1  0  0  3  0  0  0  0  0  0
  191.5890  175.3650  142.6810 C   0  0  2  0  0  3  0  0  0  0  0  0
  194.1060  176.0960  145.7080 O   0  0  0  0  0  0  0  0  0  0  0  0
  195.1800  175.5630  143.7160 O   0  0  0  0  0  0  0  0  0  0  0  0
  189.9260  171.7800  140.3930 F   0  0  0  0  0  0  0  0  0  0  0  0
  189.7510  173.1510  140.4210 C   0  0  2  0  0  3  0  0  0  0  0  0
  191.3040  177.4720  143.9040 O   0  0  0  0  0  0  0  0  0  0  0  0
  191.9030  176.7260  144.9370 C   0  0  1  0  0  3  0  0  0  0  0  0
  195.3250  175.7330  145.1100 C   0  0  0  0  0  2  0  0  0  0  0  0
  193.0180  173.8590  143.9090 O   0  0  0  0  0  1  0  0  0  0  0  0
  193.0180  174.8900  142.9610 C   0  0  2  0  0  3  0  0  0  0  0  0
  188.5460  177.0210  144.3540 C   0  0  2  0  0  3  0  0  0  0  0  0
  188.0250  177.4750  145.7260 C   0  0  2  0  0  3  0  0  0  0  0  0
  188.8320  176.9070  146.8850 C   0  0  0  0  0  2  0  0  0  0  0  0
  189.6890  177.8840  147.3920 O   0  0  0  0  0  1  0  0  0  0  0  0
  186.6110  177.1110  145.8680 C   0  0  0  0  0  0  0  0  0  0  0  0
  185.4960  176.8230  145.9810 N   0  0  0  0  0  0  0  0  0  0  0  0
  187.5140  176.8320  143.4250 O   0  0  0  0  0  0  0  0  0  0  0  0
  187.6260  177.9030  142.5350 C   0  0  0  0  0  2  0  0  0  0  0  0
  186.3050  178.5840  142.3370 C   0  0  0  0  0  0  0  0  0  0  0  0
  185.4400  178.2900  141.1550 C   0  0  0  0  0  1  0  0  0  0  0  0
  185.9290  179.4000  143.1620 O   0  0  0  0  0  0  0  0  0  0  0  0
  1 20  1  6  0  0  0
  2 15  1  6  0  0  0
  2  1  1  0  0  0  0
  2 16  1  0  0  0  0
  3  1  1  0  0  0  0
  5 12  1  1  0  0  0
  5  8  1  0  0  0  0
  6  4  1  6  0  0  0
  6 10  1  0  0  0  0
  8 16  1  0  0  0  0
  8 11  1  1  0  0  0
  9  7  1  6  0  0  0
  9  6  1  0  0  0  0
  9  3  1  0  0  0  0
 10 19  1  0  0  0  0
 10  2  1  0  0  0  0
 12 17  1  0  0  0  0
 13 14  1  0  0  0  0
 14  4  1  0  0  0  0
 14  7  1  0  0  0  0
 15 16  1  0  0  0  0
 17 11  1  0  0  0  0
 19  5  1  0  0  0  0
 19 18  1  0  0  0  0
 20 21  1  0  0  0  0
 21 24  1  0  0  0  0
 21 22  1  0  0  0  0
 22 23  1  0  0  0  0
 24 25  3  0  0  0  0
 26 20  1  0  0  0  0
 27 26  1  0  0  0  0
 28 27  1  0  0  0  0
 28 30  2  0  0  0  0
 29 28  1  0  0  0  0
M  END
>  <MODEL>
9

>  <REMARK>
 VINA RESULT:      -6.0      2.999      6.841
  Name = 
  7 active torsions:
  status: ('A' for Active; 'I' for Inactive)
    1  A    between atoms: C_1  and  C_22
    2  A    between atoms: C_2  and  C_14
    3  A    between atoms: C_3  and  C_19
    4  A    between atoms: C_14  and  C_20
    5  A    between atoms: C_14  and  C_22
    6  A    between atoms: C_19  and  O_29
    7  A    between atoms: C_22  and  O_29
                            x       y       z     vdW  Elec       q    Type
                         _______ _______ _______ _____ _____    ______ ____

>  <TORSDO>
F 7

$$$$
