=
 OpenBabel11052421403D

 32 39  0  0  1  0  0  0  0  0999 V2000
  190.5630  174.6260  143.4980 C   0  0  2  0  0  3  0  0  0  0  0  0
  189.4300  175.0280  147.1630 C   0  0  0  0  0  3  0  0  0  0  0  0
  190.6910  175.2960  147.7320 C   0  0  0  0  0  3  0  0  0  0  0  0
  192.8180  174.6040  142.1470 C   0  0  1  0  0  3  0  0  0  0  0  0
  194.1980  174.7940  142.2810 C   0  0  0  0  0  0  0  0  0  0  0  0
  196.1480  175.1030  143.3490 N   0  0  0  0  0  0  0  0  0  0  0  0
  189.3030  174.8080  145.7810 C   0  0  0  0  0  3  0  0  0  0  0  0
  190.4500  174.8730  144.9880 C   0  0  0  0  0  0  0  0  0  0  0  0
  192.6760  175.0830  144.5140 C   0  0  0  0  0  0  0  0  0  0  0  0
  196.5300  174.8850  142.0520 O   0  0  0  0  0  0  0  0  0  0  0  0
  195.3250  174.5760  141.3400 C   0  0  0  0  0  3  0  0  0  0  0  0
  191.8400  175.3460  146.9260 C   0  0  0  0  0  3  0  0  0  0  0  0
  191.6840  175.1330  145.5580 C   0  0  0  0  0  0  0  0  0  0  0  0
  194.0290  175.2240  144.6230 N   0  0  0  0  0  0  0  0  0  0  0  0
  192.2440  174.2460  140.9340 O   0  0  0  0  0  1  0  0  0  0  0  0
  197.1780  174.6480  144.6760 Cl  0  0  0  0  0  0  0  0  0  0  0  0
  192.0490  174.7820  143.3080 C   0  0  0  0  0  0  0  0  0  0  0  0
  194.7510  175.1000  143.4730 C   0  0  0  0  0  0  0  0  0  0  0  0
  187.8680  177.3230  143.1690 C   0  0  2  0  0  3  0  0  0  0  0  0
  188.6500  174.9530  141.8790 C   0  0  0  0  0  2  0  0  0  0  0  0
  187.8350  175.9910  141.1740 C   0  0  0  0  0  3  0  0  0  0  0  0
  189.7740  175.6410  142.6560 C   0  0  1  0  0  3  0  0  0  0  0  0
  187.4950  177.0740  141.7880 N   0  0  0  0  0  0  0  0  0  0  0  0
  189.3150  176.8840  143.4560 C   0  0  0  0  0  2  0  0  0  0  0  0
  185.7420  178.7050  147.7830 C   0  0  0  0  0  2  0  0  0  0  0  0
  185.6140  176.9170  143.7820 O   0  0  0  0  0  0  0  0  0  0  0  0
  184.9760  177.4090  145.8820 C   0  0  2  0  0  3  0  0  0  0  0  0
  186.8980  177.8860  147.2640 C   0  0  0  0  0  2  0  0  0  0  0  0
  186.1340  177.6340  144.8960 C   0  0  2  0  0  0  0  0  0  0  0  0
  184.7200  178.6790  146.6730 C   0  0  0  0  0  2  0  0  0  0  0  0
  186.9120  176.6140  144.1170 C   0  0  2  0  0  3  0  0  0  0  0  0
  186.3170  176.9190  146.2460 C   0  0  2  0  0  3  0  0  0  0  0  0
  1 17  1  6  0  0  0
  1  8  1  0  0  0  0
  2  3  1  0  0  0  0
  4 15  1  1  0  0  0
  4  5  1  0  0  0  0
  4 17  1  0  0  0  0
  5 18  1  0  0  0  0
  6 18  1  0  0  0  0
  6 16  1  0  0  0  0
  7  2  2  0  0  0  0
  8 13  2  0  0  0  0
  8  7  1  0  0  0  0
  9 14  1  0  0  0  0
  9 13  1  0  0  0  0
 10  6  1  0  0  0  0
 11 10  1  0  0  0  0
 11  5  2  0  0  0  0
 12  3  2  0  0  0  0
 13 12  1  0  0  0  0
 17  9  2  0  0  0  0
 18 14  2  0  0  0  0
 19 24  1  6  0  0  0
 19 31  1  0  0  0  0
 21 23  2  0  0  0  0
 21 20  1  0  0  0  0
 22 20  1  1  0  0  0
 22 24  1  0  0  0  0
 22  1  1  0  0  0  0
 23 19  1  0  0  0  0
 27 32  1  0  0  0  0
 27 30  1  1  0  0  0
 28 25  1  0  0  0  0
 29 26  1  1  0  0  0
 29 27  1  0  0  0  0
 29 32  1  0  0  0  0
 30 25  1  0  0  0  0
 31 26  1  6  0  0  0
 31 29  1  0  0  0  0
 32 28  1  1  0  0  0
M  END
>  <MODEL>
1

>  <REMARK>
 VINA RESULT:      -9.2      0.000      0.000
  Name = 
  2 active torsions:
  status: ('A' for Active; 'I' for Inactive)
    1  A    between atoms: C_3  and  C_14
    2  A    between atoms: C_8  and  C_23
                            x       y       z     vdW  Elec       q    Type
                         _______ _______ _______ _____ _____    ______ ____

>  <TORSDO>
F 2

$$$$
=
 OpenBabel11052421403D

 32 39  0  0  1  0  0  0  0  0999 V2000
  188.5590  175.4290  145.5220 C   0  0  2  0  0  3  0  0  0  0  0  0
  190.3360  173.9220  142.4500 C   0  0  0  0  0  3  0  0  0  0  0  0
  189.5700  174.5520  141.4480 C   0  0  0  0  0  3  0  0  0  0  0  0
  186.4940  176.9800  146.0120 C   0  0  0  0  0  0  0  0  0  0  0  0
  185.5110  177.7570  145.3860 C   0  0  0  0  0  0  0  0  0  0  0  0
  184.3000  178.5820  143.6870 N   0  0  0  0  0  0  0  0  0  0  0  0
  190.0750  174.1660  143.8080 C   0  0  0  0  0  3  0  0  0  0  0  0
  189.0480  175.0530  144.1400 C   0  0  0  0  0  0  0  0  0  0  0  0
  187.2910  176.4700  143.7860 C   0  0  0  0  0  0  0  0  0  0  0  0
  183.6430  179.0450  144.7950 O   0  0  0  0  0  0  0  0  0  0  0  0
  184.3160  178.4600  145.9170 C   0  0  0  0  0  3  0  0  0  0  0  0
  188.5330  175.4320  141.7940 C   0  0  0  0  0  3  0  0  0  0  0  0
  188.2990  175.6630  143.1480 C   0  0  0  0  0  0  0  0  0  0  0  0
  186.2990  177.2030  143.2030 N   0  0  0  0  0  0  0  0  0  0  0  0
  186.5420  176.8380  147.3930 O   0  0  0  0  0  1  0  0  0  0  0  0
  183.4430  178.2550  142.2070 Cl  0  0  0  0  0  0  0  0  0  0  0  0
  187.4160  176.3440  145.1660 C   0  0  0  0  0  0  0  0  0  0  0  0
  185.4460  177.8560  144.0420 C   0  0  2  0  0  3  0  0  0  0  0  0
  192.1170  176.7550  145.9950 C   0  0  2  0  0  3  0  0  0  0  0  0
  190.2380  175.2080  147.3980 C   0  0  0  0  0  2  0  0  0  0  0  0
  191.3510  175.9160  148.1070 C   0  0  0  0  0  3  0  0  0  0  0  0
  189.6220  176.1520  146.3640 C   0  0  1  0  0  3  0  0  0  0  0  0
  192.1960  176.6250  147.4390 N   0  0  0  0  0  0  0  0  0  0  0  0
  190.6640  176.9210  145.5150 C   0  0  0  0  0  2  0  0  0  0  0  0
  195.0690  176.2560  141.6630 C   0  0  0  0  0  2  0  0  0  0  0  0
  194.0160  175.3450  145.8200 O   0  0  0  0  0  0  0  0  0  0  0  0
  195.0040  175.1330  143.8120 C   0  0  2  0  0  3  0  0  0  0  0  0
  193.6260  176.1010  142.0800 C   0  0  0  0  0  2  0  0  0  0  0  0
  193.9710  175.9950  144.5550 C   0  0  2  0  0  0  0  0  0  0  0  0
  195.8640  176.0130  142.9220 C   0  0  0  0  0  2  0  0  0  0  0  0
  192.7540  175.5530  145.3150 C   0  0  2  0  0  3  0  0  0  0  0  0
  193.6260  175.1860  143.2930 C   0  0  2  0  0  3  0  0  0  0  0  0
  1  8  1  6  0  0  0
  1 22  1  0  0  0  0
  2  7  1  0  0  0  0
  3 12  1  0  0  0  0
  3  2  2  0  0  0  0
  4 15  1  0  0  0  0
  5 11  2  0  0  0  0
  5  4  1  0  0  0  0
  6 18  1  0  0  0  0
  6 10  1  0  0  0  0
  7  8  2  0  0  0  0
  9 17  1  0  0  0  0
 10 11  1  0  0  0  0
 12 13  2  0  0  0  0
 13  9  1  0  0  0  0
 13  8  1  0  0  0  0
 14  9  2  0  0  0  0
 16  6  1  0  0  0  0
 17  1  1  0  0  0  0
 17  4  2  0  0  0  0
 18 14  1  6  0  0  0
 18  5  1  0  0  0  0
 19 24  1  1  0  0  0
 19 23  1  0  0  0  0
 20 21  1  0  0  0  0
 22 24  1  6  0  0  0
 22 20  1  0  0  0  0
 23 21  2  0  0  0  0
 25 28  1  0  0  0  0
 25 30  1  0  0  0  0
 27 30  1  6  0  0  0
 27 29  1  0  0  0  0
 29 31  1  0  0  0  0
 29 26  1  1  0  0  0
 31 26  1  1  0  0  0
 31 19  1  0  0  0  0
 32 28  1  6  0  0  0
 32 27  1  0  0  0  0
 32 29  1  0  0  0  0
M  END
>  <MODEL>
2

>  <REMARK>
 VINA RESULT:      -9.0      3.328      8.288
  Name = 
  2 active torsions:
  status: ('A' for Active; 'I' for Inactive)
    1  A    between atoms: C_3  and  C_14
    2  A    between atoms: C_8  and  C_23
                            x       y       z     vdW  Elec       q    Type
                         _______ _______ _______ _____ _____    ______ ____

>  <TORSDO>
F 2

$$$$
=
 OpenBabel11052421403D

 32 39  0  0  1  0  0  0  0  0999 V2000
  190.9260  173.7820  143.9590 C   0  0  2  0  0  3  0  0  0  0  0  0
  189.5000  175.0020  147.3280 C   0  0  0  0  0  3  0  0  0  0  0  0
  190.7190  175.3350  147.9510 C   0  0  0  0  0  3  0  0  0  0  0  0
  193.2860  173.3820  142.8740 C   0  0  1  0  0  3  0  0  0  0  0  0
  194.6590  173.5400  143.1020 C   0  0  0  0  0  0  0  0  0  0  0  0
  196.5220  173.9900  144.2690 N   0  0  0  0  0  0  0  0  0  0  0  0
  189.4820  174.4980  146.0170 C   0  0  0  0  0  3  0  0  0  0  0  0
  190.6970  174.3460  145.3460 C   0  0  0  0  0  0  0  0  0  0  0  0
  192.9650  174.3600  145.0620 C   0  0  0  0  0  0  0  0  0  0  0  0
  197.0030  173.4860  143.0910 O   0  0  0  0  0  0  0  0  0  0  0  0
  195.8490  173.0810  142.3430 C   0  0  0  0  0  3  0  0  0  0  0  0
  191.9360  175.1650  147.2710 C   0  0  0  0  0  3  0  0  0  0  0  0
  191.8890  174.6710  145.9690 C   0  0  0  0  0  0  0  0  0  0  0  0
  194.3080  174.4660  145.2730 N   0  0  0  0  0  0  0  0  0  0  0  0
  192.8020  172.7960  141.7100 O   0  0  0  0  0  1  0  0  0  0  0  0
  197.4000  173.7880  145.7580 Cl  0  0  0  0  0  0  0  0  0  0  0  0
  192.4300  173.8340  143.8890 C   0  0  0  0  0  0  0  0  0  0  0  0
  195.1210  174.0710  144.2520 C   0  0  0  0  0  0  0  0  0  0  0  0
  188.4340  176.4470  142.8070 C   0  0  2  0  0  3  0  0  0  0  0  0
  189.1920  173.8310  142.1210 C   0  0  0  0  0  2  0  0  0  0  0  0
  188.5060  174.7260  141.1380 C   0  0  0  0  0  3  0  0  0  0  0  0
  190.2780  174.6250  142.8500 C   0  0  1  0  0  3  0  0  0  0  0  0
  188.1750  175.9260  141.4770 N   0  0  0  0  0  0  0  0  0  0  0  0
  189.8200  176.0250  143.3250 C   0  0  0  0  0  2  0  0  0  0  0  0
  186.0110  178.8360  146.8260 C   0  0  0  0  0  2  0  0  0  0  0  0
  186.1130  176.2790  143.2660 O   0  0  0  0  0  0  0  0  0  0  0  0
  185.3300  177.2170  145.1540 C   0  0  2  0  0  3  0  0  0  0  0  0
  187.1530  177.8750  146.5950 C   0  0  0  0  0  2  0  0  0  0  0  0
  186.5810  177.1830  144.2610 C   0  0  2  0  0  0  0  0  0  0  0  0
  185.0900  178.6330  145.6490 C   0  0  0  0  0  2  0  0  0  0  0  0
  187.3560  175.9910  143.7790 C   0  0  2  0  0  3  0  0  0  0  0  0
  186.6000  176.7500  145.7370 C   0  0  2  0  0  3  0  0  0  0  0  0
  1 17  1  6  0  0  0
  1  8  1  0  0  0  0
  2  3  1  0  0  0  0
  4 15  1  1  0  0  0
  4  5  1  0  0  0  0
  4 17  1  0  0  0  0
  5 18  1  0  0  0  0
  6 16  1  0  0  0  0
  7  2  2  0  0  0  0
  8 13  2  0  0  0  0
  8  7  1  0  0  0  0
  9 14  1  0  0  0  0
  9 13  1  0  0  0  0
 10  6  1  0  0  0  0
 11 10  1  0  0  0  0
 11  5  2  0  0  0  0
 12  3  2  0  0  0  0
 13 12  1  0  0  0  0
 17  9  2  0  0  0  0
 18  6  1  0  0  0  0
 18 14  2  0  0  0  0
 19 24  1  1  0  0  0
 19 31  1  0  0  0  0
 21 23  2  0  0  0  0
 21 20  1  0  0  0  0
 22 20  1  1  0  0  0
 22 24  1  0  0  0  0
 22  1  1  0  0  0  0
 23 19  1  0  0  0  0
 27 30  1  1  0  0  0
 27 32  1  0  0  0  0
 28 25  1  0  0  0  0
 29 26  1  1  0  0  0
 29 27  1  0  0  0  0
 29 32  1  0  0  0  0
 30 25  1  0  0  0  0
 31 26  1  6  0  0  0
 31 29  1  0  0  0  0
 32 28  1  1  0  0  0
M  END
>  <MODEL>
3

>  <REMARK>
 VINA RESULT:      -8.7      1.104      1.139
  Name = 
  2 active torsions:
  status: ('A' for Active; 'I' for Inactive)
    1  A    between atoms: C_3  and  C_14
    2  A    between atoms: C_8  and  C_23
                            x       y       z     vdW  Elec       q    Type
                         _______ _______ _______ _____ _____    ______ ____

>  <TORSDO>
F 2

$$$$
=
 OpenBabel11052421403D

 32 39  0  0  1  0  0  0  0  0999 V2000
  189.1670  175.0130  144.9950 C   0  0  2  0  0  3  0  0  0  0  0  0
  191.7260  172.5560  143.4830 C   0  0  0  0  0  3  0  0  0  0  0  0
  191.5800  172.9250  142.1310 C   0  0  0  0  0  3  0  0  0  0  0  0
  187.4270  176.7870  144.1370 C   0  0  0  0  0  0  0  0  0  0  0  0
  186.9620  177.4210  142.9780 C   0  0  0  0  0  0  0  0  0  0  0  0
  186.7460  177.8060  140.7780 N   0  0  0  0  0  0  0  0  0  0  0  0
  190.9790  173.2010  144.4840 C   0  0  0  0  0  3  0  0  0  0  0  0
  190.1000  174.2190  144.1070 C   0  0  0  0  0  0  0  0  0  0  0  0
  188.9570  175.5980  142.6890 C   0  0  0  0  0  0  0  0  0  0  0  0
  185.7930  178.6170  141.3350 O   0  0  0  0  0  0  0  0  0  0  0  0
  185.8150  178.3330  142.7390 C   0  0  0  0  0  3  0  0  0  0  0  0
  190.6840  173.9410  141.7630 C   0  0  0  0  0  3  0  0  0  0  0  0
  189.9620  174.5690  142.7750 C   0  0  0  0  0  0  0  0  0  0  0  0
  188.4570  176.2030  141.5730 N   0  0  0  0  0  0  0  0  0  0  0  0
  186.8720  177.0460  145.3840 O   0  0  0  0  0  1  0  0  0  0  0  0
  186.5320  177.1310  139.1890 Cl  0  0  0  0  0  0  0  0  0  0  0  0
  188.4740  175.8680  143.9660 C   0  0  0  0  0  0  0  0  0  0  0  0
  187.4790  177.1320  141.7660 C   0  0  2  0  0  3  0  0  0  0  0  0
  192.3380  176.7340  146.2690 C   0  0  2  0  0  3  0  0  0  0  0  0
  190.3330  175.0210  147.2380 C   0  0  0  0  0  2  0  0  0  0  0  0
  191.1530  175.8630  148.1640 C   0  0  0  0  0  3  0  0  0  0  0  0
  189.9050  175.8680  146.0370 C   0  0  1  0  0  3  0  0  0  0  0  0
  192.0630  176.6460  147.6920 N   0  0  0  0  0  0  0  0  0  0  0  0
  191.0440  176.7270  145.4370 C   0  0  0  0  0  2  0  0  0  0  0  0
  195.6350  176.1630  142.2030 C   0  0  0  0  0  2  0  0  0  0  0  0
  194.4830  175.7300  146.4110 O   0  0  0  0  0  0  0  0  0  0  0  0
  195.6350  175.4070  144.5070 C   0  0  2  0  0  3  0  0  0  0  0  0
  194.2240  175.7860  142.5840 C   0  0  0  0  0  2  0  0  0  0  0  0
  194.4030  176.1480  145.0530 C   0  0  2  0  0  0  0  0  0  0  0  0
  196.3690  176.2910  143.5150 C   0  0  0  0  0  2  0  0  0  0  0  0
  193.2450  175.5940  145.8290 C   0  0  2  0  0  3  0  0  0  0  0  0
  194.3140  175.0950  143.9350 C   0  0  2  0  0  3  0  0  0  0  0  0
  1 17  1  6  0  0  0
  1 22  1  0  0  0  0
  2  7  1  0  0  0  0
  3  2  2  0  0  0  0
  4 15  1  0  0  0  0
  5  4  1  0  0  0  0
  6 10  1  0  0  0  0
  6 18  1  0  0  0  0
  8  7  2  0  0  0  0
  8  1  1  0  0  0  0
  9 13  1  0  0  0  0
  9 17  1  0  0  0  0
 10 11  1  0  0  0  0
 11  5  2  0  0  0  0
 12  3  1  0  0  0  0
 12 13  2  0  0  0  0
 13  8  1  0  0  0  0
 14  9  2  0  0  0  0
 16  6  1  0  0  0  0
 17  4  2  0  0  0  0
 18 14  1  6  0  0  0
 18  5  1  0  0  0  0
 19 24  1  6  0  0  0
 19 23  1  0  0  0  0
 20 21  1  0  0  0  0
 22 24  1  6  0  0  0
 22 20  1  0  0  0  0
 23 21  2  0  0  0  0
 25 28  1  0  0  0  0
 25 30  1  0  0  0  0
 27 30  1  6  0  0  0
 27 29  1  0  0  0  0
 29 31  1  0  0  0  0
 29 26  1  1  0  0  0
 31 19  1  0  0  0  0
 31 26  1  1  0  0  0
 32 28  1  6  0  0  0
 32 27  1  0  0  0  0
 32 29  1  0  0  0  0
M  END
>  <MODEL>
4

>  <REMARK>
 VINA RESULT:      -8.7      3.387      7.599
  Name = 
  2 active torsions:
  status: ('A' for Active; 'I' for Inactive)
    1  A    between atoms: C_3  and  C_14
    2  A    between atoms: C_8  and  C_23
                            x       y       z     vdW  Elec       q    Type
                         _______ _______ _______ _____ _____    ______ ____

>  <TORSDO>
F 2

$$$$
=
 OpenBabel11052421403D

 32 39  0  0  1  0  0  0  0  0999 V2000
  190.4580  175.7550  143.0150 C   0  0  2  0  0  3  0  0  0  0  0  0
  187.6290  178.2900  142.3500 C   0  0  0  0  0  3  0  0  0  0  0  0
  186.9660  177.5840  141.3260 C   0  0  0  0  0  3  0  0  0  0  0  0
  191.3110  173.4800  142.0110 C   0  0  0  0  0  0  0  0  0  0  0  0
  191.0060  172.4980  141.0610 C   0  0  0  0  0  0  0  0  0  0  0  0
  189.9220  171.5560  139.3360 N   0  0  0  0  0  0  0  0  0  0  0  0
  188.7740  177.7530  142.9620 C   0  0  0  0  0  3  0  0  0  0  0  0
  189.2300  176.5030  142.5390 C   0  0  0  0  0  0  0  0  0  0  0  0
  189.2970  174.6010  141.2750 C   0  0  0  0  0  0  0  0  0  0  0  0
  190.9770  170.7090  139.5460 O   0  0  0  0  0  0  0  0  0  0  0  0
  191.7660  171.3200  140.5730 C   0  0  0  0  0  3  0  0  0  0  0  0
  187.4420  176.3330  140.9020 C   0  0  0  0  0  3  0  0  0  0  0  0
  188.5740  175.8200  141.5300 C   0  0  0  0  0  0  0  0  0  0  0  0
  189.0470  173.6480  140.3310 N   0  0  0  0  0  0  0  0  0  0  0  0
  192.4580  173.4090  142.7920 O   0  0  0  0  0  1  0  0  0  0  0  0
  189.2370  171.7630  137.7500 Cl  0  0  0  0  0  0  0  0  0  0  0  0
  190.4020  174.5440  142.1210 C   0  0  0  0  0  0  0  0  0  0  0  0
  189.9120  172.5960  140.2780 C   0  0  2  0  0  3  0  0  0  0  0  0
  188.7370  175.8770  146.4300 C   0  0  2  0  0  3  0  0  0  0  0  0
  191.2990  176.2640  145.3430 C   0  0  0  0  0  2  0  0  0  0  0  0
  191.1080  175.9330  146.7910 C   0  0  0  0  0  3  0  0  0  0  0  0
  190.3910  175.3660  144.5000 C   0  0  1  0  0  3  0  0  0  0  0  0
  189.9210  175.7540  147.2620 N   0  0  0  0  0  0  0  0  0  0  0  0
  188.9470  175.2450  145.0430 C   0  0  0  0  0  2  0  0  0  0  0  0
  184.0660  178.2900  146.1380 C   0  0  0  0  0  2  0  0  0  0  0  0
  188.2100  177.9160  147.5210 O   0  0  0  0  0  0  0  0  0  0  0  0
  186.2200  178.8710  147.0910 C   0  0  2  0  0  3  0  0  0  0  0  0
  185.1500  177.7950  145.2110 C   0  0  0  0  0  2  0  0  0  0  0  0
  186.9860  177.5520  146.8920 C   0  0  2  0  0  0  0  0  0  0  0  0
  184.7720  178.5770  147.4400 C   0  0  0  0  0  2  0  0  0  0  0  0
  188.3390  177.3380  146.2810 C   0  0  2  0  0  3  0  0  0  0  0  0
  186.4540  178.3900  145.7170 C   0  0  2  0  0  3  0  0  0  0  0  0
  1 17  1  6  0  0  0
  1 22  1  0  0  0  0
  2  7  1  0  0  0  0
  3  2  2  0  0  0  0
  4 17  2  0  0  0  0
  4 15  1  0  0  0  0
  5  4  1  0  0  0  0
  6 10  1  0  0  0  0
  6 18  1  0  0  0  0
  8  7  2  0  0  0  0
  8  1  1  0  0  0  0
  9 13  1  0  0  0  0
  9 17  1  0  0  0  0
 10 11  1  0  0  0  0
 11  5  2  0  0  0  0
 12  3  1  0  0  0  0
 12 13  2  0  0  0  0
 13  8  1  0  0  0  0
 14  9  2  0  0  0  0
 16  6  1  0  0  0  0
 18 14  1  6  0  0  0
 18  5  1  0  0  0  0
 19 24  1  6  0  0  0
 19 23  1  0  0  0  0
 20 21  1  0  0  0  0
 21 23  2  0  0  0  0
 22 24  1  1  0  0  0
 22 20  1  0  0  0  0
 25 30  1  0  0  0  0
 27 30  1  1  0  0  0
 28 25  1  0  0  0  0
 29 27  1  0  0  0  0
 29 26  1  6  0  0  0
 31 19  1  0  0  0  0
 31 29  1  0  0  0  0
 31 26  1  1  0  0  0
 32 28  1  1  0  0  0
 32 29  1  0  0  0  0
 32 27  1  0  0  0  0
M  END
>  <MODEL>
5

>  <REMARK>
 VINA RESULT:      -8.6      3.248      4.965
  Name = 
  2 active torsions:
  status: ('A' for Active; 'I' for Inactive)
    1  A    between atoms: C_3  and  C_14
    2  A    between atoms: C_8  and  C_23
                            x       y       z     vdW  Elec       q    Type
                         _______ _______ _______ _____ _____    ______ ____

>  <TORSDO>
F 2

$$$$
=
 OpenBabel11052421403D

 32 39  0  0  1  0  0  0  0  0999 V2000
  188.8820  176.2080  142.9330 C   0  0  2  0  0  3  0  0  0  0  0  0
  192.6940  176.4860  143.4420 C   0  0  0  0  0  3  0  0  0  0  0  0
  192.6830  176.9640  144.7670 C   0  0  0  0  0  3  0  0  0  0  0  0
  186.6910  176.7780  144.2690 C   0  0  1  0  0  3  0  0  0  0  0  0
  186.2310  177.2430  145.5070 C   0  0  0  0  0  0  0  0  0  0  0  0
  186.3710  178.1290  147.5640 N   0  0  0  0  0  0  0  0  0  0  0  0
  191.4910  176.2030  142.7740 C   0  0  0  0  0  3  0  0  0  0  0  0
  190.2890  176.3970  143.4590 C   0  0  0  0  0  0  0  0  0  0  0  0
  188.9200  177.0210  145.1790 C   0  0  0  0  0  0  0  0  0  0  0  0
  185.0220  178.0870  147.3300 O   0  0  0  0  0  0  0  0  0  0  0  0
  184.8770  177.6240  145.9820 C   0  0  0  0  0  3  0  0  0  0  0  0
  191.4680  177.1660  145.4410 C   0  0  0  0  0  3  0  0  0  0  0  0
  190.2900  176.8710  144.7590 C   0  0  0  0  0  0  0  0  0  0  0  0
  188.4440  177.5080  146.3610 N   0  0  0  0  0  0  0  0  0  0  0  0
  185.8180  176.4760  143.2320 O   0  0  0  0  0  1  0  0  0  0  0  0
  187.0670  179.3540  148.5850 Cl  0  0  0  0  0  0  0  0  0  0  0  0
  188.0820  176.6490  144.1310 C   0  0  0  0  0  0  0  0  0  0  0  0
  187.0890  177.5750  146.4940 C   0  0  0  0  0  0  0  0  0  0  0  0
  189.8310  172.5030  142.8180 C   0  0  2  0  0  3  0  0  0  0  0  0
  188.8910  174.4940  141.0750 C   0  0  0  0  0  2  0  0  0  0  0  0
  188.6920  173.0410  140.7770 C   0  0  0  0  0  3  0  0  0  0  0  0
  188.5710  174.7530  142.5480 C   0  0  1  0  0  3  0  0  0  0  0  0
  189.1280  172.1470  141.5980 N   0  0  0  0  0  0  0  0  0  0  0  0
  189.1860  173.7130  143.5160 C   0  0  0  0  0  2  0  0  0  0  0  0
  194.1870  172.1760  145.7580 C   0  0  0  0  0  2  0  0  0  0  0  0
  191.9090  171.6580  142.0480 O   0  0  0  0  0  0  0  0  0  0  0  0
  193.6900  171.8030  143.4140 C   0  0  2  0  0  3  0  0  0  0  0  0
  193.1970  173.2210  145.3050 C   0  0  0  0  0  2  0  0  0  0  0  0
  192.1590  171.9490  143.4190 C   0  0  2  0  0  0  0  0  0  0  0  0
  194.1440  171.1130  144.6880 C   0  0  0  0  0  2  0  0  0  0  0  0
  191.2960  172.7920  142.5260 C   0  0  2  0  0  3  0  0  0  0  0  0
  193.1060  173.1020  143.7930 C   0  0  2  0  0  3  0  0  0  0  0  0
  1  8  1  1  0  0  0
  1 17  1  0  0  0  0
  2  3  1  0  0  0  0
  3 12  2  0  0  0  0
  4 15  1  6  0  0  0
  4  5  1  0  0  0  0
  5 11  2  0  0  0  0
  5 18  1  0  0  0  0
  6 16  1  0  0  0  0
  7  2  2  0  0  0  0
  7  8  1  0  0  0  0
  8 13  2  0  0  0  0
  9 14  1  0  0  0  0
 10  6  1  0  0  0  0
 11 10  1  0  0  0  0
 13  9  1  0  0  0  0
 13 12  1  0  0  0  0
 14 18  2  0  0  0  0
 17  4  1  0  0  0  0
 17  9  2  0  0  0  0
 18  6  1  0  0  0  0
 19 24  1  6  0  0  0
 21 20  1  0  0  0  0
 21 23  2  0  0  0  0
 22 20  1  6  0  0  0
 22  1  1  0  0  0  0
 22 24  1  0  0  0  0
 23 19  1  0  0  0  0
 27 29  1  0  0  0  0
 27 32  1  0  0  0  0
 27 30  1  1  0  0  0
 28 25  1  0  0  0  0
 29 26  1  6  0  0  0
 29 32  1  0  0  0  0
 30 25  1  0  0  0  0
 31 26  1  6  0  0  0
 31 19  1  0  0  0  0
 31 29  1  0  0  0  0
 32 28  1  1  0  0  0
M  END
>  <MODEL>
6

>  <REMARK>
 VINA RESULT:      -8.5      3.509      7.395
  Name = 
  2 active torsions:
  status: ('A' for Active; 'I' for Inactive)
    1  A    between atoms: C_3  and  C_14
    2  A    between atoms: C_8  and  C_23
                            x       y       z     vdW  Elec       q    Type
                         _______ _______ _______ _____ _____    ______ ____

>  <TORSDO>
F 2

$$$$
=
 OpenBabel11052421403D

 32 39  0  0  1  0  0  0  0  0999 V2000
  189.3530  175.5720  145.6660 C   0  0  2  0  0  3  0  0  0  0  0  0
  190.5170  172.9690  143.0690 C   0  0  0  0  0  3  0  0  0  0  0  0
  189.7230  173.4000  141.9880 C   0  0  0  0  0  3  0  0  0  0  0  0
  187.5900  177.5160  145.8210 C   0  0  0  0  0  0  0  0  0  0  0  0
  186.6500  178.2290  145.0690 C   0  0  0  0  0  0  0  0  0  0  0  0
  185.3570  178.7140  143.3000 N   0  0  0  0  0  0  0  0  0  0  0  0
  190.4610  173.6350  144.3050 C   0  0  0  0  0  3  0  0  0  0  0  0
  189.6120  174.7370  144.4310 C   0  0  0  0  0  0  0  0  0  0  0  0
  188.0280  176.2590  143.8010 C   0  0  0  0  0  0  0  0  0  0  0  0
  184.9110  179.5800  144.2620 O   0  0  0  0  0  0  0  0  0  0  0  0
  185.6350  179.2420  145.4520 C   0  0  0  0  0  3  0  0  0  0  0  0
  188.8630  174.5010  142.1300 C   0  0  0  0  0  3  0  0  0  0  0  0
  188.8330  175.1480  143.3630 C   0  0  0  0  0  0  0  0  0  0  0  0
  187.0780  176.9450  143.1030 N   0  0  0  0  0  0  0  0  0  0  0  0
  187.7910  177.7730  147.1720 O   0  0  0  0  0  1  0  0  0  0  0  0
  184.2870  178.1200  142.0620 Cl  0  0  0  0  0  0  0  0  0  0  0  0
  188.3070  176.5200  145.1400 C   0  0  0  0  0  0  0  0  0  0  0  0
  186.4320  177.9450  143.7680 C   0  0  2  0  0  3  0  0  0  0  0  0
  193.0130  176.6100  145.2570 C   0  0  2  0  0  3  0  0  0  0  0  0
  191.3390  175.5130  147.2290 C   0  0  0  0  0  2  0  0  0  0  0  0
  192.6080  176.2210  147.5890 C   0  0  0  0  0  3  0  0  0  0  0  0
  190.6000  176.3220  146.1610 C   0  0  1  0  0  3  0  0  0  0  0  0
  193.3540  176.7220  146.6640 N   0  0  0  0  0  0  0  0  0  0  0  0
  191.5100  176.8300  145.0160 C   0  0  0  0  0  2  0  0  0  0  0  0
  194.6210  175.0210  140.5020 C   0  0  0  0  0  2  0  0  0  0  0  0
  194.7860  175.0800  144.8830 O   0  0  0  0  0  0  0  0  0  0  0  0
  195.1670  174.3860  142.7780 C   0  0  2  0  0  3  0  0  0  0  0  0
  193.3550  175.0470  141.3240 C   0  0  0  0  0  2  0  0  0  0  0  0
  194.3850  175.4490  143.5680 C   0  0  2  0  0  0  0  0  0  0  0  0
  195.7400  175.0020  141.5140 C   0  0  0  0  0  2  0  0  0  0  0  0
  193.4330  175.2540  144.7110 C   0  0  2  0  0  3  0  0  0  0  0  0
  193.6980  174.4130  142.6620 C   0  0  2  0  0  3  0  0  0  0  0  0
  1  8  1  6  0  0  0
  1 22  1  0  0  0  0
  2  7  1  0  0  0  0
  3 12  1  0  0  0  0
  3  2  2  0  0  0  0
  4 15  1  0  0  0  0
  5 11  2  0  0  0  0
  5  4  1  0  0  0  0
  6 18  1  0  0  0  0
  6 10  1  0  0  0  0
  7  8  2  0  0  0  0
  9 17  1  0  0  0  0
 10 11  1  0  0  0  0
 12 13  2  0  0  0  0
 13  9  1  0  0  0  0
 13  8  1  0  0  0  0
 14  9  2  0  0  0  0
 16  6  1  0  0  0  0
 17  1  1  0  0  0  0
 17  4  2  0  0  0  0
 18 14  1  1  0  0  0
 18  5  1  0  0  0  0
 19 24  1  1  0  0  0
 19 23  1  0  0  0  0
 20 21  1  0  0  0  0
 22 24  1  6  0  0  0
 22 20  1  0  0  0  0
 23 21  2  0  0  0  0
 25 28  1  0  0  0  0
 25 30  1  0  0  0  0
 27 30  1  6  0  0  0
 27 29  1  0  0  0  0
 29 31  1  0  0  0  0
 29 26  1  1  0  0  0
 31 26  1  1  0  0  0
 31 19  1  0  0  0  0
 32 28  1  6  0  0  0
 32 27  1  0  0  0  0
 32 29  1  0  0  0  0
M  END
>  <MODEL>
7

>  <REMARK>
 VINA RESULT:      -8.5      3.073      8.112
  Name = 
  2 active torsions:
  status: ('A' for Active; 'I' for Inactive)
    1  A    between atoms: C_3  and  C_14
    2  A    between atoms: C_8  and  C_23
                            x       y       z     vdW  Elec       q    Type
                         _______ _______ _______ _____ _____    ______ ____

>  <TORSDO>
F 2

$$$$
=
 OpenBabel11052421403D

 32 39  0  0  1  0  0  0  0  0999 V2000
  188.8260  175.1660  144.1880 C   0  0  2  0  0  3  0  0  0  0  0  0
  190.1920  177.1700  147.1870 C   0  0  0  0  0  3  0  0  0  0  0  0
  191.3490  176.4020  147.4280 C   0  0  0  0  0  3  0  0  0  0  0  0
  189.4370  172.9770  142.8670 C   0  0  1  0  0  3  0  0  0  0  0  0
  190.4020  171.9680  142.7700 C   0  0  0  0  0  0  0  0  0  0  0  0
  192.2070  170.7700  143.3570 N   0  0  0  0  0  0  0  0  0  0  0  0
  189.3200  176.8360  146.1370 C   0  0  0  0  0  3  0  0  0  0  0  0
  189.6330  175.7360  145.3350 C   0  0  0  0  0  0  0  0  0  0  0  0
  190.7990  173.8980  144.6420 C   0  0  0  0  0  0  0  0  0  0  0  0
  191.6610  170.0380  142.3370 O   0  0  0  0  0  0  0  0  0  0  0  0
  190.4410  170.7050  141.9900 C   0  0  0  0  0  3  0  0  0  0  0  0
  191.6460  175.2910  146.6230 C   0  0  0  0  0  3  0  0  0  0  0  0
  190.7700  174.9870  145.5840 C   0  0  0  0  0  0  0  0  0  0  0  0
  191.7030  172.8800  144.5500 N   0  0  0  0  0  0  0  0  0  0  0  0
  188.3000  172.9800  142.0690 O   0  0  0  0  0  1  0  0  0  0  0  0
  193.0980  170.0000  144.6380 Cl  0  0  0  0  0  0  0  0  0  0  0  0
  189.6750  173.9760  143.8240 C   0  0  0  0  0  0  0  0  0  0  0  0
  191.4820  171.9500  143.5790 C   0  0  0  0  0  0  0  0  0  0  0  0
  187.3880  178.3590  142.6460 C   0  0  2  0  0  3  0  0  0  0  0  0
  187.6410  175.6350  142.0060 C   0  0  0  0  0  2  0  0  0  0  0  0
  187.4410  176.6700  140.9430 C   0  0  0  0  0  3  0  0  0  0  0  0
  188.6800  176.1400  143.0090 C   0  0  1  0  0  3  0  0  0  0  0  0
  187.3350  177.9150  141.2640 N   0  0  0  0  0  0  0  0  0  0  0  0
  188.4700  177.6110  143.4440 C   0  0  0  0  0  2  0  0  0  0  0  0
  185.9540  177.6440  147.6620 C   0  0  0  0  0  2  0  0  0  0  0  0
  185.5260  179.4100  143.6720 O   0  0  0  0  0  0  0  0  0  0  0  0
  184.9790  178.8000  145.7660 C   0  0  2  0  0  3  0  0  0  0  0  0
  186.1980  176.8200  146.4200 C   0  0  0  0  0  2  0  0  0  0  0  0
  186.1110  178.6650  144.7340 C   0  0  2  0  0  0  0  0  0  0  0  0
  185.5660  179.0090  147.1500 C   0  0  0  0  0  2  0  0  0  0  0  0
  186.0340  178.1830  143.3160 C   0  0  2  0  0  3  0  0  0  0  0  0
  185.3670  177.4510  145.3160 C   0  0  2  0  0  3  0  0  0  0  0  0
  1 17  1  6  0  0  0
  1  8  1  0  0  0  0
  2  3  1  0  0  0  0
  4 15  1  1  0  0  0
  4 17  1  0  0  0  0
  5  4  1  0  0  0  0
  5 18  1  0  0  0  0
  6 18  1  0  0  0  0
  6 16  1  0  0  0  0
  7  2  2  0  0  0  0
  8 13  2  0  0  0  0
  8  7  1  0  0  0  0
  9 13  1  0  0  0  0
 10  6  1  0  0  0  0
 11 10  1  0  0  0  0
 11  5  2  0  0  0  0
 12  3  2  0  0  0  0
 13 12  1  0  0  0  0
 14  9  1  0  0  0  0
 17  9  2  0  0  0  0
 18 14  2  0  0  0  0
 19 31  1  0  0  0  0
 19 24  1  1  0  0  0
 21 23  2  0  0  0  0
 21 20  1  0  0  0  0
 22 20  1  1  0  0  0
 22 24  1  0  0  0  0
 22  1  1  0  0  0  0
 23 19  1  0  0  0  0
 27 30  1  1  0  0  0
 28 25  1  0  0  0  0
 29 26  1  6  0  0  0
 29 32  1  0  0  0  0
 29 27  1  0  0  0  0
 30 25  1  0  0  0  0
 31 26  1  6  0  0  0
 31 29  1  0  0  0  0
 32 27  1  0  0  0  0
 32 28  1  1  0  0  0
M  END
>  <MODEL>
8

>  <REMARK>
 VINA RESULT:      -8.3      2.812      3.075
  Name = 
  2 active torsions:
  status: ('A' for Active; 'I' for Inactive)
    1  A    between atoms: C_3  and  C_14
    2  A    between atoms: C_8  and  C_23
                            x       y       z     vdW  Elec       q    Type
                         _______ _______ _______ _____ _____    ______ ____

>  <TORSDO>
F 2

$$$$
=
 OpenBabel11052421403D

 32 39  0  0  1  0  0  0  0  0999 V2000
  186.5180  176.6160  144.0500 C   0  0  2  0  0  3  0  0  0  0  0  0
  184.2810  178.6210  146.4680 C   0  0  0  0  0  3  0  0  0  0  0  0
  185.1950  178.7380  147.5340 C   0  0  0  0  0  3  0  0  0  0  0  0
  188.9010  175.5060  144.0690 C   0  0  1  0  0  3  0  0  0  0  0  0
  190.0560  175.3610  144.8460 C   0  0  0  0  0  0  0  0  0  0  0  0
  191.3520  175.5160  146.6720 N   0  0  0  0  0  0  0  0  0  0  0  0
  184.6420  177.9500  145.2880 C   0  0  0  0  0  3  0  0  0  0  0  0
  185.9280  177.4140  145.1940 C   0  0  0  0  0  0  0  0  0  0  0  0
  188.0290  176.8420  145.8870 C   0  0  0  0  0  0  0  0  0  0  0  0
  192.0970  174.7440  145.8210 O   0  0  0  0  0  0  0  0  0  0  0  0
  191.2700  174.5240  144.6720 C   0  0  0  0  0  3  0  0  0  0  0  0
  186.4810  178.1840  147.4320 C   0  0  0  0  0  3  0  0  0  0  0  0
  186.8160  177.5310  146.2480 C   0  0  0  0  0  0  0  0  0  0  0  0
  189.1510  176.6510  146.6390 N   0  0  0  0  0  0  0  0  0  0  0  0
  188.7730  174.8900  142.8300 O   0  0  0  0  0  1  0  0  0  0  0  0
  191.4770  175.3280  148.3980 Cl  0  0  0  0  0  0  0  0  0  0  0  0
  187.8770  176.2940  144.6160 C   0  0  0  0  0  0  0  0  0  0  0  0
  190.1550  175.9280  146.0670 C   0  0  0  0  0  0  0  0  0  0  0  0
  184.9180  178.6800  141.2540 C   0  0  2  0  0  3  0  0  0  0  0  0
  186.6540  176.4890  141.5300 C   0  0  0  0  0  2  0  0  0  0  0  0
  186.6310  177.3130  140.2800 C   0  0  0  0  0  3  0  0  0  0  0  0
  186.6240  177.4190  142.7440 C   0  0  1  0  0  3  0  0  0  0  0  0
  185.8290  178.3180  140.1830 N   0  0  0  0  0  0  0  0  0  0  0  0
  185.5860  178.5610  142.6350 C   0  0  0  0  0  2  0  0  0  0  0  0
  179.7910  179.7960  141.7020 C   0  0  0  0  0  2  0  0  0  0  0  0
  183.2130  177.7220  139.9120 O   0  0  0  0  0  0  0  0  0  0  0  0
  181.0720  178.1890  140.4150 C   0  0  2  0  0  3  0  0  0  0  0  0
  180.9230  179.2870  142.5610 C   0  0  0  0  0  2  0  0  0  0  0  0
  182.5060  178.6430  140.7350 C   0  0  2  0  0  0  0  0  0  0  0  0
  180.1640  179.4010  140.2950 C   0  0  0  0  0  2  0  0  0  0  0  0
  183.6660  177.8160  141.2060 C   0  0  2  0  0  3  0  0  0  0  0  0
  181.5400  178.1180  141.8100 C   0  0  2  0  0  3  0  0  0  0  0  0
  1 17  1  1  0  0  0
  1  8  1  0  0  0  0
  2  3  1  0  0  0  0
  4 15  1  1  0  0  0
  4 17  1  0  0  0  0
  4  5  1  0  0  0  0
  5 18  1  0  0  0  0
  6 16  1  0  0  0  0
  7  2  2  0  0  0  0
  8  7  1  0  0  0  0
  8 13  2  0  0  0  0
  9 13  1  0  0  0  0
  9 14  1  0  0  0  0
 10  6  1  0  0  0  0
 11  5  2  0  0  0  0
 11 10  1  0  0  0  0
 12  3  2  0  0  0  0
 13 12  1  0  0  0  0
 17  9  2  0  0  0  0
 18 14  2  0  0  0  0
 18  6  1  0  0  0  0
 19 24  1  1  0  0  0
 21 20  1  0  0  0  0
 22 20  1  6  0  0  0
 22  1  1  0  0  0  0
 23 21  2  0  0  0  0
 23 19  1  0  0  0  0
 24 22  1  0  0  0  0
 25 28  1  0  0  0  0
 27 30  1  1  0  0  0
 27 29  1  0  0  0  0
 27 32  1  0  0  0  0
 29 26  1  6  0  0  0
 29 31  1  0  0  0  0
 29 32  1  0  0  0  0
 30 25  1  0  0  0  0
 31 26  1  6  0  0  0
 31 19  1  0  0  0  0
 32 28  1  1  0  0  0
M  END
>  <MODEL>
9

>  <REMARK>
 VINA RESULT:      -8.2      3.784      5.470
  Name = 
  2 active torsions:
  status: ('A' for Active; 'I' for Inactive)
    1  A    between atoms: C_3  and  C_14
    2  A    between atoms: C_8  and  C_23
                            x       y       z     vdW  Elec       q    Type
                         _______ _______ _______ _____ _____    ______ ____

>  <TORSDO>
F 2

$$$$
