=
 OpenBabel11052420543D

 43 46  0  0  1  0  0  0  0  0999 V2000
  194.0340  172.9960  141.5020 C   0  0  0  0  0  0  0  0  0  0  0  0
  194.9830  173.7820  142.2480 N   0  0  0  0  0  0  0  0  0  0  0  0
  194.4710  172.1400  140.6760 O   0  0  0  0  0  0  0  0  0  0  0  0
  192.6110  173.1410  141.7010 N   0  0  0  0  0  0  0  0  0  0  0  0
  190.5210  173.5430  144.8570 C   0  0  0  0  0  2  0  0  0  0  0  0
  190.0580  174.9520  144.6360 C   0  0  0  0  0  0  0  0  0  0  0  0
  190.0880  177.0950  143.4590 C   0  0  0  0  0  3  0  0  0  0  0  0
  190.9930  172.8650  143.5790 C   0  0  2  0  0  3  0  0  0  0  0  0
  189.2010  175.5560  145.7140 C   0  0  0  0  0  2  0  0  0  0  0  0
  191.4350  175.1430  142.5550 C   0  0  0  0  0  2  0  0  0  0  0  0
  191.6120  171.5330  143.9530 C   0  0  0  0  0  1  0  0  0  0  0  0
  188.6050  176.8280  145.3090 N   0  0  0  0  0  0  0  0  0  0  0  0
  192.0170  173.7650  142.8880 C   0  0  2  0  0  3  0  0  0  0  0  0
  189.1620  177.6140  144.2580 C   0  0  0  0  0  3  0  0  0  0  0  0
  190.5420  175.7060  143.6270 C   0  0  0  0  0  0  0  0  0  0  0  0
  187.5470  177.3930  146.1330 C   0  0  0  0  0  2  0  0  0  0  0  0
  186.2130  176.7680  145.7660 C   0  0  0  0  0  2  0  0  0  0  0  0
  185.2920  177.7930  145.3250 N   0  0  0  0  0  2  0  0  0  0  0  0
  185.2470  177.7240  143.8730 C   0  0  0  0  0  2  0  0  0  0  0  0
  185.4510  180.1310  144.0840 N   0  0  0  0  0  1  0  0  0  0  0  0
  185.8130  178.9920  143.2690 C   0  0  0  0  0  2  0  0  0  0  0  0
  196.1700  171.0780  145.5830 C   0  0  0  0  0  0  0  0  0  0  0  0
  197.8130  172.1040  144.0350 C   0  0  0  0  0  3  0  0  0  0  0  0
  195.4160  172.3490  145.7440 C   0  0  0  0  0  2  0  0  0  0  0  0
  195.6730  169.6740  146.4950 Cl  0  0  0  0  0  0  0  0  0  0  0  0
  195.6190  173.1880  143.4000 C   0  0  0  0  0  0  0  0  0  0  0  0
  197.2820  171.0100  144.8610 C   0  0  0  0  0  3  0  0  0  0  0  0
  194.8670  172.8440  144.4480 C   0  0  0  0  0  3  0  0  0  0  0  0
  197.0950  173.0470  143.4080 C   0  0  0  0  0  3  0  0  0  0  0  0
  191.6900  172.4210  140.8360 C   0  0  0  0  0  2  0  0  0  0  0  0
  191.0850  173.9590  137.4340 C   0  0  0  0  0  2  0  0  0  0  0  0
  189.4930  173.3410  137.8290 S   0  0  0  0  0  0  0  0  0  0  0  0
  188.4470  174.4170  137.6730 O   0  0  0  0  0  0  0  0  0  0  0  0
  188.7490  173.5680  140.3130 C   0  0  0  0  0  1  0  0  0  0  0  0
  191.9310  173.4870  138.6010 C   0  0  0  0  0  2  0  0  0  0  0  0
  191.0440  173.3640  139.8360 C   0  0  1  0  0  3  0  0  0  0  0  0
  189.1600  172.1430  136.9780 O   0  0  0  0  0  0  0  0  0  0  0  0
  189.7180  172.8650  139.4810 N   0  0  0  0  0  0  0  0  0  0  0  0
  195.1430  175.2240  141.9690 C   0  0  2  0  0  3  0  0  0  0  0  0
  196.3060  175.5260  141.2200 O   0  0  0  0  0  0  0  0  0  0  0  0
  195.9920  175.5040  139.8490 C   0  0  0  0  0  1  0  0  0  0  0  0
  195.0100  176.0910  143.2250 C   0  0  0  0  0  2  0  0  0  0  0  0
  196.3350  176.7630  143.5380 C   0  0  0  0  0  1  0  0  0  0  0  0
  1  4  1  0  0  0  0
  1  2  1  0  0  0  0
  2 26  1  0  0  0  0
  3  1  2  0  0  0  0
  6  5  1  0  0  0  0
  6  9  1  0  0  0  0
  7 15  1  0  0  0  0
  7 14  2  0  0  0  0
  8 11  1  1  0  0  0
  8  5  1  0  0  0  0
 10 13  1  0  0  0  0
 10 15  1  0  0  0  0
 12  9  1  0  0  0  0
 12 16  1  0  0  0  0
 13  4  1  6  0  0  0
 13  8  1  0  0  0  0
 14 12  1  0  0  0  0
 15  6  2  0  0  0  0
 17 16  1  0  0  0  0
 18 17  1  0  0  0  0
 19 18  1  0  0  0  0
 21 19  1  0  0  0  0
 21 20  1  0  0  0  0
 22 24  1  0  0  0  0
 22 25  1  0  0  0  0
 23 27  1  0  0  0  0
 26 29  1  0  0  0  0
 26 28  2  0  0  0  0
 27 22  2  0  0  0  0
 28 24  1  0  0  0  0
 29 23  2  0  0  0  0
 30  4  1  0  0  0  0
 31 32  1  0  0  0  0
 31 35  1  0  0  0  0
 32 38  1  0  0  0  0
 33 32  2  0  0  0  0
 35 36  1  0  0  0  0
 36 30  1  1  0  0  0
 37 32  2  0  0  0  0
 38 36  1  0  0  0  0
 38 34  1  0  0  0  0
 39  2  1  0  0  0  0
 39 42  1  1  0  0  0
 40 39  1  0  0  0  0
 41 40  1  0  0  0  0
 42 43  1  0  0  0  0
M  END
>  <MODEL>
1

>  <REMARK>
 VINA RESULT:      -6.0      0.000      0.000
  Name = 
  12 active torsions:
  status: ('A' for Active; 'I' for Inactive)
    1  A    between atoms: C_1  and  N_34
    2  A    between atoms: C_1  and  C_35
    3  A    between atoms: O_2  and  C_27
    4  A    between atoms: C_6  and  C_27
    5  A    between atoms: C_11  and  N_22
    6  A    between atoms: C_11  and  C_36
    7  A    between atoms: C_21  and  N_30
    8  A    between atoms: C_27  and  N_30
    9  A    between atoms: N_29  and  C_31
   10  A    between atoms: N_29  and  C_36
   11  A    between atoms: C_31  and  C_40
   12  A    between atoms: N_34  and  C_38
                            x       y       z     vdW  Elec       q    Type
                         _______ _______ _______ _____ _____    ______ ____

>  <TORSDO>
F 12

$$$$
=
 OpenBabel11052420543D

 43 46  0  0  1  0  0  0  0  0999 V2000
  190.7510  176.3710  145.7800 C   0  0  0  0  0  0  0  0  0  0  0  0
  189.7340  177.0990  145.0650 N   0  0  0  0  0  0  0  0  0  0  0  0
  191.0890  176.7740  146.9340 O   0  0  0  0  0  0  0  0  0  0  0  0
  191.3620  175.1850  145.2270 N   0  0  0  0  0  0  0  0  0  0  0  0
  189.7120  172.2850  143.3930 C   0  0  0  0  0  2  0  0  0  0  0  0
  190.4660  172.3850  142.1010 C   0  0  0  0  0  0  0  0  0  0  0  0
  191.9990  173.4970  140.5540 C   0  0  0  0  0  3  0  0  0  0  0  0
  190.4200  172.9770  144.5490 C   0  0  2  0  0  3  0  0  0  0  0  0
  190.0850  171.4100  141.0220 C   0  0  0  0  0  2  0  0  0  0  0  0
  191.6690  174.4330  142.8900 C   0  0  0  0  0  2  0  0  0  0  0  0
  189.4830  172.9790  145.7410 C   0  0  0  0  0  1  0  0  0  0  0  0
  191.0220  171.4210  139.8990 N   0  0  0  0  0  0  0  0  0  0  0  0
  190.7730  174.4040  144.1330 C   0  0  2  0  0  3  0  0  0  0  0  0
  191.8660  172.5410  139.6410 C   0  0  0  0  0  3  0  0  0  0  0  0
  191.2990  173.4150  141.8450 C   0  0  0  0  0  0  0  0  0  0  0  0
  190.9400  170.3530  138.9140 C   0  0  0  0  0  2  0  0  0  0  0  0
  189.7740  170.6020  137.9740 C   0  0  0  0  0  2  0  0  0  0  0  0
  190.2600  171.0850  136.7010 N   0  0  0  0  0  2  0  0  0  0  0  0
  189.5800  172.3440  136.4410 C   0  0  0  0  0  2  0  0  0  0  0  0
  188.4930  174.1880  137.5800 N   0  0  0  0  0  1  0  0  0  0  0  0
  188.7830  172.7730  137.6540 C   0  0  0  0  0  2  0  0  0  0  0  0
  185.5230  177.5310  146.4490 C   0  0  0  0  0  0  0  0  0  0  0  0
  186.1230  176.5300  144.2600 C   0  0  0  0  0  3  0  0  0  0  0  0
  186.5830  176.7770  147.1680 C   0  0  0  0  0  2  0  0  0  0  0  0
  184.4440  178.5580  147.3600 Cl  0  0  0  0  0  0  0  0  0  0  0  0
  188.3510  176.8700  145.4070 C   0  0  0  0  0  0  0  0  0  0  0  0
  185.2930  177.3530  145.1540 C   0  0  0  0  0  3  0  0  0  0  0  0
  187.9460  177.1000  146.6580 C   0  0  0  0  0  3  0  0  0  0  0  0
  187.4420  176.3180  144.3730 C   0  0  0  0  0  3  0  0  0  0  0  0
  192.4720  174.5580  145.9260 C   0  0  0  0  0  2  0  0  0  0  0  0
  195.9390  175.5960  144.8260 C   0  0  0  0  0  2  0  0  0  0  0  0
  196.1630  173.8840  145.1300 S   0  0  0  0  0  0  0  0  0  0  0  0
  196.8020  173.2080  143.9430 O   0  0  0  0  0  0  0  0  0  0  0  0
  194.2040  172.3190  144.4340 C   0  0  0  0  0  1  0  0  0  0  0  0
  194.4990  175.8290  145.2460 C   0  0  0  0  0  2  0  0  0  0  0  0
  193.7130  174.5360  145.0510 C   0  0  1  0  0  3  0  0  0  0  0  0
  196.9850  173.6680  146.3750 O   0  0  0  0  0  0  0  0  0  0  0  0
  194.5280  173.3710  145.3900 N   0  0  0  0  0  0  0  0  0  0  0  0
  190.0860  177.8980  143.8730 C   0  0  2  0  0  3  0  0  0  0  0  0
  189.7080  177.2840  142.6540 O   0  0  0  0  0  0  0  0  0  0  0  0
  188.9030  178.1730  141.9200 C   0  0  0  0  0  1  0  0  0  0  0  0
  191.5490  178.3530  143.8730 C   0  0  0  0  0  2  0  0  0  0  0  0
  192.3180  177.6400  142.7750 C   0  0  0  0  0  1  0  0  0  0  0  0
  1  3  2  0  0  0  0
  2 26  1  0  0  0  0
  2  1  1  0  0  0  0
  4  1  1  0  0  0  0
  4 30  1  0  0  0  0
  5  8  1  0  0  0  0
  6  5  1  0  0  0  0
  7 15  1  0  0  0  0
  8 11  1  1  0  0  0
  9  6  1  0  0  0  0
 10 13  1  0  0  0  0
 12  9  1  0  0  0  0
 13  8  1  0  0  0  0
 13  4  1  1  0  0  0
 14 12  1  0  0  0  0
 14  7  2  0  0  0  0
 15  6  2  0  0  0  0
 15 10  1  0  0  0  0
 16 12  1  0  0  0  0
 17 16  1  0  0  0  0
 18 17  1  0  0  0  0
 19 18  1  0  0  0  0
 19 21  1  0  0  0  0
 20 21  1  0  0  0  0
 22 24  1  0  0  0  0
 22 25  1  0  0  0  0
 23 29  2  0  0  0  0
 23 27  1  0  0  0  0
 26 28  2  0  0  0  0
 27 22  2  0  0  0  0
 28 24  1  0  0  0  0
 29 26  1  0  0  0  0
 31 32  1  0  0  0  0
 31 35  1  0  0  0  0
 32 38  1  0  0  0  0
 32 37  2  0  0  0  0
 33 32  2  0  0  0  0
 34 38  1  0  0  0  0
 36 35  1  0  0  0  0
 36 38  1  0  0  0  0
 36 30  1  1  0  0  0
 39 42  1  6  0  0  0
 39  2  1  0  0  0  0
 40 39  1  0  0  0  0
 41 40  1  0  0  0  0
 43 42  1  0  0  0  0
M  END
>  <MODEL>
2

>  <REMARK>
 VINA RESULT:      -6.0      3.838      8.270
  Name = 
  12 active torsions:
  status: ('A' for Active; 'I' for Inactive)
    1  A    between atoms: C_1  and  N_34
    2  A    between atoms: C_1  and  C_35
    3  A    between atoms: O_2  and  C_27
    4  A    between atoms: C_6  and  C_27
    5  A    between atoms: C_11  and  N_22
    6  A    between atoms: C_11  and  C_36
    7  A    between atoms: C_21  and  N_30
    8  A    between atoms: C_27  and  N_30
    9  A    between atoms: N_29  and  C_31
   10  A    between atoms: N_29  and  C_36
   11  A    between atoms: C_31  and  C_40
   12  A    between atoms: N_34  and  C_38
                            x       y       z     vdW  Elec       q    Type
                         _______ _______ _______ _____ _____    ______ ____

>  <TORSDO>
F 12

$$$$
=
 OpenBabel11052420543D

 43 46  0  0  1  0  0  0  0  0999 V2000
  190.5580  176.3750  145.0370 C   0  0  0  0  0  0  0  0  0  0  0  0
  191.0710  175.2490  145.7750 N   0  0  0  0  0  0  0  0  0  0  0  0
  190.5400  177.5110  145.5970 O   0  0  0  0  0  0  0  0  0  0  0  0
  190.1010  176.2390  143.6730 N   0  0  0  0  0  0  0  0  0  0  0  0
  191.9820  174.1840  141.0780 C   0  0  0  0  0  2  0  0  0  0  0  0
  190.8040  173.5180  140.4300 C   0  0  0  0  0  0  0  0  0  0  0  0
  188.4320  172.9420  140.2910 C   0  0  0  0  0  3  0  0  0  0  0  0
  191.6030  175.4400  141.8490 C   0  0  2  0  0  3  0  0  0  0  0  0
  191.1060  172.5410  139.3280 C   0  0  0  0  0  2  0  0  0  0  0  0
  189.2300  174.5720  142.0650 C   0  0  0  0  0  2  0  0  0  0  0  0
  192.8260  175.9100  142.6120 C   0  0  0  0  0  1  0  0  0  0  0  0
  189.9060  172.1270  138.6010 N   0  0  0  0  0  0  0  0  0  0  0  0
  190.4590  175.1110  142.8060 C   0  0  2  0  0  3  0  0  0  0  0  0
  188.6080  172.2360  139.1790 C   0  0  0  0  0  3  0  0  0  0  0  0
  189.5580  173.6340  140.9350 C   0  0  0  0  0  0  0  0  0  0  0  0
  190.0670  171.4040  137.3490 C   0  0  0  0  0  2  0  0  0  0  0  0
  190.7020  172.3050  136.3060 C   0  0  0  0  0  2  0  0  0  0  0  0
  189.7340  173.2680  135.8300 N   0  0  0  0  0  2  0  0  0  0  0  0
  190.3400  174.5820  135.9720 C   0  0  0  0  0  2  0  0  0  0  0  0
  192.5060  175.5030  136.5590 N   0  0  0  0  0  1  0  0  0  0  0  0
  191.8380  174.4960  135.7630 C   0  0  0  0  0  2  0  0  0  0  0  0
  195.3800  174.5360  144.9060 C   0  0  0  0  0  0  0  0  0  0  0  0
  194.5790  176.4760  146.2270 C   0  0  0  0  0  3  0  0  0  0  0  0
  194.4870  173.5860  145.6190 C   0  0  0  0  0  2  0  0  0  0  0  0
  196.4860  173.9210  143.7010 Cl  0  0  0  0  0  0  0  0  0  0  0  0
  192.5010  175.0800  145.8720 C   0  0  0  0  0  0  0  0  0  0  0  0
  195.4520  175.8180  145.2420 C   0  0  0  0  0  3  0  0  0  0  0  0
  193.0470  173.9370  145.4510 C   0  0  0  0  0  3  0  0  0  0  0  0
  193.3070  176.1530  146.5020 C   0  0  0  0  0  3  0  0  0  0  0  0
  189.4730  177.3710  143.0110 C   0  0  0  0  0  2  0  0  0  0  0  0
  185.9060  177.3310  144.2700 C   0  0  0  0  0  2  0  0  0  0  0  0
  185.8040  178.4870  142.9560 S   0  0  0  0  0  0  0  0  0  0  0  0
  184.6840  178.1280  142.0120 O   0  0  0  0  0  0  0  0  0  0  0  0
  187.2040  177.9500  140.8300 C   0  0  0  0  0  1  0  0  0  0  0  0
  187.3860  176.9960  144.3120 C   0  0  0  0  0  2  0  0  0  0  0  0
  187.9710  177.1700  142.9140 C   0  0  1  0  0  3  0  0  0  0  0  0
  185.6250  179.8850  143.4910 O   0  0  0  0  0  0  0  0  0  0  0  0
  187.3690  178.3140  142.2320 N   0  0  0  0  0  0  0  0  0  0  0  0
  190.1600  174.1830  146.2410 C   0  0  2  0  0  3  0  0  0  0  0  0
  189.3270  173.6700  145.2170 O   0  0  0  0  0  0  0  0  0  0  0  0
  189.6670  172.3280  144.9730 C   0  0  0  0  0  1  0  0  0  0  0  0
  189.3760  174.5770  147.4960 C   0  0  0  0  0  2  0  0  0  0  0  0
  188.2150  175.4820  147.1240 C   0  0  0  0  0  1  0  0  0  0  0  0
  1  3  2  0  0  0  0
  1  2  1  0  0  0  0
  2 26  1  0  0  0  0
  2 39  1  0  0  0  0
  4  1  1  0  0  0  0
  5  8  1  0  0  0  0
  6 15  2  0  0  0  0
  6  5  1  0  0  0  0
  7 15  1  0  0  0  0
  8 11  1  1  0  0  0
  8 13  1  0  0  0  0
  9  6  1  0  0  0  0
 10 13  1  0  0  0  0
 12 14  1  0  0  0  0
 12  9  1  0  0  0  0
 13  4  1  6  0  0  0
 14  7  2  0  0  0  0
 15 10  1  0  0  0  0
 16 12  1  0  0  0  0
 17 16  1  0  0  0  0
 18 19  1  0  0  0  0
 18 17  1  0  0  0  0
 21 19  1  0  0  0  0
 21 20  1  0  0  0  0
 22 27  2  0  0  0  0
 22 24  1  0  0  0  0
 23 29  2  0  0  0  0
 25 22  1  0  0  0  0
 26 29  1  0  0  0  0
 27 23  1  0  0  0  0
 28 24  1  0  0  0  0
 28 26  2  0  0  0  0
 30  4  1  0  0  0  0
 31 35  1  0  0  0  0
 32 37  2  0  0  0  0
 32 31  1  0  0  0  0
 33 32  2  0  0  0  0
 34 38  1  0  0  0  0
 36 30  1  1  0  0  0
 36 35  1  0  0  0  0
 38 36  1  0  0  0  0
 38 32  1  0  0  0  0
 39 42  1  1  0  0  0
 40 39  1  0  0  0  0
 41 40  1  0  0  0  0
 43 42  1  0  0  0  0
M  END
>  <MODEL>
3

>  <REMARK>
 VINA RESULT:      -5.9      3.510      7.096
  Name = 
  12 active torsions:
  status: ('A' for Active; 'I' for Inactive)
    1  A    between atoms: C_1  and  N_34
    2  A    between atoms: C_1  and  C_35
    3  A    between atoms: O_2  and  C_27
    4  A    between atoms: C_6  and  C_27
    5  A    between atoms: C_11  and  N_22
    6  A    between atoms: C_11  and  C_36
    7  A    between atoms: C_21  and  N_30
    8  A    between atoms: C_27  and  N_30
    9  A    between atoms: N_29  and  C_31
   10  A    between atoms: N_29  and  C_36
   11  A    between atoms: C_31  and  C_40
   12  A    between atoms: N_34  and  C_38
                            x       y       z     vdW  Elec       q    Type
                         _______ _______ _______ _____ _____    ______ ____

>  <TORSDO>
F 12

$$$$
=
 OpenBabel11052420543D

 43 46  0  0  1  0  0  0  0  0999 V2000
  190.5000  176.4520  145.0700 C   0  0  0  0  0  0  0  0  0  0  0  0
  191.0470  175.3480  145.8160 N   0  0  0  0  0  0  0  0  0  0  0  0
  190.4670  177.5960  145.6140 O   0  0  0  0  0  0  0  0  0  0  0  0
  190.0240  176.2870  143.7160 N   0  0  0  0  0  0  0  0  0  0  0  0
  191.9290  174.2190  141.1500 C   0  0  0  0  0  2  0  0  0  0  0  0
  190.7580  173.5470  140.4970 C   0  0  0  0  0  0  0  0  0  0  0  0
  188.3890  172.9640  140.3430 C   0  0  0  0  0  3  0  0  0  0  0  0
  191.5420  175.4800  141.9090 C   0  0  2  0  0  3  0  0  0  0  0  0
  191.0710  172.5630  139.4040 C   0  0  0  0  0  2  0  0  0  0  0  0
  189.1690  174.6080  142.1120 C   0  0  0  0  0  2  0  0  0  0  0  0
  192.7580  175.9570  142.6780 C   0  0  0  0  0  1  0  0  0  0  0  0
  189.8780  172.1410  138.6700 N   0  0  0  0  0  0  0  0  0  0  0  0
  190.3910  175.1540  142.8590 C   0  0  2  0  0  3  0  0  0  0  0  0
  188.5740  172.2510  139.2380 C   0  0  0  0  0  3  0  0  0  0  0  0
  189.5080  173.6630  140.9910 C   0  0  0  0  0  0  0  0  0  0  0  0
  190.0500  171.4100  137.4240 C   0  0  0  0  0  2  0  0  0  0  0  0
  189.9530  169.9170  137.6810 C   0  0  0  0  0  2  0  0  0  0  0  0
  191.2410  169.2950  137.4680 N   0  0  0  0  0  2  0  0  0  0  0  0
  191.7300  168.8800  138.7740 C   0  0  0  0  0  2  0  0  0  0  0  0
  190.9070  169.0460  141.0490 N   0  0  0  0  0  1  0  0  0  0  0  0
  190.5710  168.6140  139.7100 C   0  0  0  0  0  2  0  0  0  0  0  0
  195.3530  174.6830  144.8930 C   0  0  0  0  0  0  0  0  0  0  0  0
  194.5390  176.6550  146.1580 C   0  0  0  0  0  3  0  0  0  0  0  0
  194.4910  173.7440  145.6570 C   0  0  0  0  0  2  0  0  0  0  0  0
  196.4480  174.0450  143.6910 Cl  0  0  0  0  0  0  0  0  0  0  0  0
  192.4820  175.2090  145.8920 C   0  0  0  0  0  0  0  0  0  0  0  0
  195.4060  175.9780  145.1810 C   0  0  0  0  0  3  0  0  0  0  0  0
  193.0420  174.0610  145.5030 C   0  0  0  0  0  3  0  0  0  0  0  0
  193.2780  176.3190  146.4670 C   0  0  0  0  0  3  0  0  0  0  0  0
  189.3630  177.3970  143.0480 C   0  0  0  0  0  2  0  0  0  0  0  0
  185.8100  177.3200  144.3410 C   0  0  0  0  0  2  0  0  0  0  0  0
  185.6700  178.4330  142.9940 S   0  0  0  0  0  0  0  0  0  0  0  0
  184.5500  178.0200  142.0720 O   0  0  0  0  0  0  0  0  0  0  0  0
  187.0640  177.8600  140.8720 C   0  0  0  0  0  1  0  0  0  0  0  0
  187.2960  177.0190  144.3790 C   0  0  0  0  0  2  0  0  0  0  0  0
  187.8650  177.1610  142.9720 C   0  0  1  0  0  3  0  0  0  0  0  0
  185.4660  179.8430  143.4860 O   0  0  0  0  0  0  0  0  0  0  0  0
  187.2330  178.2700  142.2600 N   0  0  0  0  0  0  0  0  0  0  0  0
  190.1650  174.2700  146.3110 C   0  0  2  0  0  3  0  0  0  0  0  0
  189.3000  173.7520  145.3170 O   0  0  0  0  0  0  0  0  0  0  0  0
  189.6880  172.4370  145.0070 C   0  0  0  0  0  1  0  0  0  0  0  0
  189.4240  174.6520  147.5960 C   0  0  0  0  0  2  0  0  0  0  0  0
  188.1860  175.4650  147.2630 C   0  0  0  0  0  1  0  0  0  0  0  0
  1  3  2  0  0  0  0
  1  2  1  0  0  0  0
  2 26  1  0  0  0  0
  2 39  1  0  0  0  0
  4  1  1  0  0  0  0
  5  8  1  0  0  0  0
  6 15  2  0  0  0  0
  6  5  1  0  0  0  0
  7 15  1  0  0  0  0
  8 11  1  1  0  0  0
  8 13  1  0  0  0  0
  9  6  1  0  0  0  0
 10 13  1  0  0  0  0
 12 14  1  0  0  0  0
 12  9  1  0  0  0  0
 13  4  1  6  0  0  0
 14  7  2  0  0  0  0
 15 10  1  0  0  0  0
 16 17  1  0  0  0  0
 16 12  1  0  0  0  0
 18 17  1  0  0  0  0
 18 19  1  0  0  0  0
 19 21  1  0  0  0  0
 21 20  1  0  0  0  0
 22 27  2  0  0  0  0
 22 24  1  0  0  0  0
 23 29  2  0  0  0  0
 25 22  1  0  0  0  0
 26 29  1  0  0  0  0
 27 23  1  0  0  0  0
 28 24  1  0  0  0  0
 28 26  2  0  0  0  0
 30  4  1  0  0  0  0
 31 35  1  0  0  0  0
 32 37  2  0  0  0  0
 32 31  1  0  0  0  0
 33 32  2  0  0  0  0
 34 38  1  0  0  0  0
 36 30  1  1  0  0  0
 36 35  1  0  0  0  0
 38 36  1  0  0  0  0
 38 32  1  0  0  0  0
 39 42  1  1  0  0  0
 40 39  1  0  0  0  0
 41 40  1  0  0  0  0
 43 42  1  0  0  0  0
M  END
>  <MODEL>
4

>  <REMARK>
 VINA RESULT:      -5.9      3.554      7.360
  Name = 
  12 active torsions:
  status: ('A' for Active; 'I' for Inactive)
    1  A    between atoms: C_1  and  N_34
    2  A    between atoms: C_1  and  C_35
    3  A    between atoms: O_2  and  C_27
    4  A    between atoms: C_6  and  C_27
    5  A    between atoms: C_11  and  N_22
    6  A    between atoms: C_11  and  C_36
    7  A    between atoms: C_21  and  N_30
    8  A    between atoms: C_27  and  N_30
    9  A    between atoms: N_29  and  C_31
   10  A    between atoms: N_29  and  C_36
   11  A    between atoms: C_31  and  C_40
   12  A    between atoms: N_34  and  C_38
                            x       y       z     vdW  Elec       q    Type
                         _______ _______ _______ _____ _____    ______ ____

>  <TORSDO>
F 12

$$$$
=
 OpenBabel11052420543D

 43 46  0  0  1  0  0  0  0  0999 V2000
  190.0610  174.1430  145.0070 C   0  0  0  0  0  0  0  0  0  0  0  0
  189.8890  175.5610  144.8210 N   0  0  0  0  0  0  0  0  0  0  0  0
  189.8060  173.6440  146.1440 O   0  0  0  0  0  0  0  0  0  0  0  0
  190.4820  173.2840  143.9240 N   0  0  0  0  0  0  0  0  0  0  0  0
  189.3710  173.2610  140.2830 C   0  0  0  0  0  2  0  0  0  0  0  0
  190.7000  173.5430  139.6470 C   0  0  0  0  0  0  0  0  0  0  0  0
  193.0630  174.1670  139.7230 C   0  0  0  0  0  3  0  0  0  0  0  0
  189.4950  172.7260  141.7030 C   0  0  2  0  0  3  0  0  0  0  0  0
  190.7160  173.6680  138.1490 C   0  0  0  0  0  2  0  0  0  0  0  0
  191.7890  173.7930  141.8860 C   0  0  0  0  0  2  0  0  0  0  0  0
  188.1050  172.6640  142.3050 C   0  0  0  0  0  1  0  0  0  0  0  0
  192.0720  173.7030  137.6030 N   0  0  0  0  0  0  0  0  0  0  0  0
  190.3950  173.6610  142.5090 C   0  0  2  0  0  3  0  0  0  0  0  0
  193.1900  174.0800  138.4030 C   0  0  0  0  0  3  0  0  0  0  0  0
  191.7840  173.8660  140.3830 C   0  0  0  0  0  0  0  0  0  0  0  0
  192.2480  173.5500  136.1660 C   0  0  0  0  0  2  0  0  0  0  0  0
  190.9600  173.0520  135.5360 C   0  0  0  0  0  2  0  0  0  0  0  0
  191.1070  171.6700  135.1380 N   0  0  0  0  0  2  0  0  0  0  0  0
  190.0940  170.9130  135.8570 C   0  0  0  0  0  2  0  0  0  0  0  0
  189.6910  169.6530  137.8890 N   0  0  0  0  0  1  0  0  0  0  0  0
  190.7220  170.1550  137.0070 C   0  0  0  0  0  2  0  0  0  0  0  0
  186.2170  178.0790  144.7220 C   0  0  0  0  0  0  0  0  0  0  0  0
  187.1270  176.9510  142.7100 C   0  0  0  0  0  3  0  0  0  0  0  0
  186.4000  176.8740  145.5720 C   0  0  0  0  0  2  0  0  0  0  0  0
  185.4700  179.5000  145.4120 Cl  0  0  0  0  0  0  0  0  0  0  0  0
  188.5570  176.0730  144.6020 C   0  0  0  0  0  0  0  0  0  0  0  0
  186.4890  178.0680  143.4230 C   0  0  0  0  0  3  0  0  0  0  0  0
  187.8300  176.4570  145.6530 C   0  0  0  0  0  3  0  0  0  0  0  0
  188.0160  176.0870  143.2210 C   0  0  0  0  0  3  0  0  0  0  0  0
  190.7660  171.8830  144.1900 C   0  0  0  0  0  2  0  0  0  0  0  0
  194.4230  171.4730  145.0630 C   0  0  0  0  0  2  0  0  0  0  0  0
  194.0130  169.8640  144.5000 S   0  0  0  0  0  0  0  0  0  0  0  0
  194.9840  169.4030  143.4420 O   0  0  0  0  0  0  0  0  0  0  0  0
  192.3910  169.7290  142.4690 C   0  0  0  0  0  1  0  0  0  0  0  0
  193.0920  172.1990  145.0130 C   0  0  0  0  0  2  0  0  0  0  0  0
  192.2290  171.5730  143.9230 C   0  0  1  0  0  3  0  0  0  0  0  0
  193.9720  168.8910  145.6500 O   0  0  0  0  0  0  0  0  0  0  0  0
  192.4180  170.1250  143.8720 N   0  0  0  0  0  0  0  0  0  0  0  0
  191.0640  176.4400  144.6490 C   0  0  2  0  0  3  0  0  0  0  0  0
  191.1780  176.9750  143.3430 O   0  0  0  0  0  0  0  0  0  0  0  0
  191.1920  178.3790  143.4180 C   0  0  0  0  0  1  0  0  0  0  0  0
  192.3650  175.7950  145.1360 C   0  0  0  0  0  2  0  0  0  0  0  0
  192.7130  176.3050  146.5230 C   0  0  0  0  0  1  0  0  0  0  0  0
  1  3  2  0  0  0  0
  2  1  1  0  0  0  0
  4 30  1  0  0  0  0
  4  1  1  0  0  0  0
  5  8  1  0  0  0  0
  6  5  1  0  0  0  0
  6 15  2  0  0  0  0
  7 15  1  0  0  0  0
  8 11  1  1  0  0  0
  8 13  1  0  0  0  0
  9  6  1  0  0  0  0
 10 13  1  0  0  0  0
 12  9  1  0  0  0  0
 12 14  1  0  0  0  0
 13  4  1  1  0  0  0
 14  7  2  0  0  0  0
 15 10  1  0  0  0  0
 16 12  1  0  0  0  0
 17 16  1  0  0  0  0
 18 17  1  0  0  0  0
 18 19  1  0  0  0  0
 19 21  1  0  0  0  0
 21 20  1  0  0  0  0
 22 25  1  0  0  0  0
 22 24  1  0  0  0  0
 23 29  2  0  0  0  0
 23 27  1  0  0  0  0
 24 28  1  0  0  0  0
 26  2  1  0  0  0  0
 26 28  2  0  0  0  0
 27 22  2  0  0  0  0
 29 26  1  0  0  0  0
 32 31  1  0  0  0  0
 32 37  2  0  0  0  0
 33 32  2  0  0  0  0
 34 38  1  0  0  0  0
 35 31  1  0  0  0  0
 36 30  1  1  0  0  0
 36 35  1  0  0  0  0
 38 36  1  0  0  0  0
 38 32  1  0  0  0  0
 39  2  1  0  0  0  0
 39 42  1  6  0  0  0
 40 41  1  0  0  0  0
 40 39  1  0  0  0  0
 42 43  1  0  0  0  0
M  END
>  <MODEL>
5

>  <REMARK>
 VINA RESULT:      -5.8      3.992      8.313
  Name = 
  12 active torsions:
  status: ('A' for Active; 'I' for Inactive)
    1  A    between atoms: C_1  and  N_34
    2  A    between atoms: C_1  and  C_35
    3  A    between atoms: O_2  and  C_27
    4  A    between atoms: C_6  and  C_27
    5  A    between atoms: C_11  and  N_22
    6  A    between atoms: C_11  and  C_36
    7  A    between atoms: C_21  and  N_30
    8  A    between atoms: C_27  and  N_30
    9  A    between atoms: N_29  and  C_31
   10  A    between atoms: N_29  and  C_36
   11  A    between atoms: C_31  and  C_40
   12  A    between atoms: N_34  and  C_38
                            x       y       z     vdW  Elec       q    Type
                         _______ _______ _______ _____ _____    ______ ____

>  <TORSDO>
F 12

$$$$
=
 OpenBabel11052420543D

 43 46  0  0  1  0  0  0  0  0999 V2000
  193.4410  173.8040  142.4830 C   0  0  0  0  0  0  0  0  0  0  0  0
  194.3510  174.2780  143.4940 N   0  0  0  0  0  0  0  0  0  0  0  0
  193.9020  173.1080  141.5290 O   0  0  0  0  0  0  0  0  0  0  0  0
  192.0240  174.0760  142.5540 N   0  0  0  0  0  0  0  0  0  0  0  0
  189.7720  173.8930  145.6180 C   0  0  0  0  0  2  0  0  0  0  0  0
  189.2270  175.2900  145.5730 C   0  0  0  0  0  0  0  0  0  0  0  0
  189.1680  177.5780  144.7150 C   0  0  0  0  0  3  0  0  0  0  0  0
  190.3450  173.4370  144.2840 C   0  0  2  0  0  3  0  0  0  0  0  0
  188.2850  175.6810  146.6780 C   0  0  0  0  0  2  0  0  0  0  0  0
  190.6810  175.8610  143.6180 C   0  0  0  0  0  2  0  0  0  0  0  0
  191.0330  172.1030  144.5000 C   0  0  0  0  0  1  0  0  0  0  0  0
  187.6250  176.9610  146.4260 N   0  0  0  0  0  0  0  0  0  0  0  0
  191.3370  174.4850  143.7840 C   0  0  2  0  0  3  0  0  0  0  0  0
  188.1760  177.9220  145.5280 C   0  0  0  0  0  3  0  0  0  0  0  0
  189.7050  176.2100  144.7090 C   0  0  0  0  0  0  0  0  0  0  0  0
  186.4950  177.3380  147.2630 C   0  0  0  0  0  2  0  0  0  0  0  0
  185.1960  177.1270  146.5070 C   0  0  0  0  0  2  0  0  0  0  0  0
  184.3980  178.3320  146.5510 N   0  0  0  0  0  2  0  0  0  0  0  0
  184.6140  179.0270  145.2910 C   0  0  0  0  0  2  0  0  0  0  0  0
  183.9840  178.3790  143.0410 N   0  0  0  0  0  1  0  0  0  0  0  0
  184.8190  178.0300  144.1690 C   0  0  0  0  0  2  0  0  0  0  0  0
  195.7830  170.7340  145.7790 C   0  0  0  0  0  0  0  0  0  0  0  0
  196.7120  173.0100  146.1080 C   0  0  0  0  0  3  0  0  0  0  0  0
  194.3810  171.2280  145.7630 C   0  0  0  0  0  2  0  0  0  0  0  0
  196.0810  169.0160  145.6640 Cl  0  0  0  0  0  0  0  0  0  0  0  0
  194.7660  173.3670  144.5330 C   0  0  0  0  0  0  0  0  0  0  0  0
  196.8090  171.5460  146.0010 C   0  0  0  0  0  3  0  0  0  0  0  0
  194.1390  172.1940  144.6540 C   0  0  0  0  0  3  0  0  0  0  0  0
  195.8260  173.7940  145.4770 C   0  0  0  0  0  3  0  0  0  0  0  0
  191.1630  173.6880  141.4470 C   0  0  0  0  0  2  0  0  0  0  0  0
  191.0590  170.0100  140.5750 C   0  0  0  0  0  2  0  0  0  0  0  0
  191.0410  170.7490  138.9860 S   0  0  0  0  0  0  0  0  0  0  0  0
  192.1160  170.1610  138.1080 O   0  0  0  0  0  0  0  0  0  0  0  0
  192.5300  172.8600  138.6750 C   0  0  0  0  0  1  0  0  0  0  0  0
  191.0100  171.2060  141.5060 C   0  0  0  0  0  2  0  0  0  0  0  0
  191.6550  172.4000  140.8110 C   0  0  1  0  0  3  0  0  0  0  0  0
  189.6850  170.5990  138.3450 O   0  0  0  0  0  0  0  0  0  0  0  0
  191.3390  172.4100  139.3840 N   0  0  0  0  0  0  0  0  0  0  0  0
  194.6830  175.7150  143.5850 C   0  0  2  0  0  3  0  0  0  0  0  0
  193.8470  176.4290  144.4780 O   0  0  0  0  0  0  0  0  0  0  0  0
  194.6440  177.1960  145.3460 C   0  0  0  0  0  1  0  0  0  0  0  0
  194.7900  176.3890  142.2140 C   0  0  0  0  0  2  0  0  0  0  0  0
  196.2250  176.3430  141.7210 C   0  0  0  0  0  1  0  0  0  0  0  0
  1  4  1  0  0  0  0
  1  2  1  0  0  0  0
  2 39  1  0  0  0  0
  2 26  1  0  0  0  0
  3  1  2  0  0  0  0
  6  5  1  0  0  0  0
  6  9  1  0  0  0  0
  7 14  2  0  0  0  0
  8 11  1  1  0  0  0
  8  5  1  0  0  0  0
 10 13  1  0  0  0  0
 10 15  1  0  0  0  0
 12  9  1  0  0  0  0
 12 16  1  0  0  0  0
 13  4  1  6  0  0  0
 13  8  1  0  0  0  0
 14 12  1  0  0  0  0
 15  7  1  0  0  0  0
 15  6  2  0  0  0  0
 17 18  1  0  0  0  0
 17 16  1  0  0  0  0
 19 18  1  0  0  0  0
 20 21  1  0  0  0  0
 21 19  1  0  0  0  0
 22 27  2  0  0  0  0
 24 22  1  0  0  0  0
 25 22  1  0  0  0  0
 26 28  2  0  0  0  0
 26 29  1  0  0  0  0
 27 23  1  0  0  0  0
 28 24  1  0  0  0  0
 29 23  2  0  0  0  0
 30  4  1  0  0  0  0
 31 35  1  0  0  0  0
 32 38  1  0  0  0  0
 32 31  1  0  0  0  0
 33 32  2  0  0  0  0
 34 38  1  0  0  0  0
 36 30  1  1  0  0  0
 36 35  1  0  0  0  0
 37 32  2  0  0  0  0
 38 36  1  0  0  0  0
 39 42  1  6  0  0  0
 39 40  1  0  0  0  0
 40 41  1  0  0  0  0
 43 42  1  0  0  0  0
M  END
>  <MODEL>
6

>  <REMARK>
 VINA RESULT:      -5.7      1.710      2.371
  Name = 
  12 active torsions:
  status: ('A' for Active; 'I' for Inactive)
    1  A    between atoms: C_1  and  N_34
    2  A    between atoms: C_1  and  C_35
    3  A    between atoms: O_2  and  C_27
    4  A    between atoms: C_6  and  C_27
    5  A    between atoms: C_11  and  N_22
    6  A    between atoms: C_11  and  C_36
    7  A    between atoms: C_21  and  N_30
    8  A    between atoms: C_27  and  N_30
    9  A    between atoms: N_29  and  C_31
   10  A    between atoms: N_29  and  C_36
   11  A    between atoms: C_31  and  C_40
   12  A    between atoms: N_34  and  C_38
                            x       y       z     vdW  Elec       q    Type
                         _______ _______ _______ _____ _____    ______ ____

>  <TORSDO>
F 12

$$$$
=
 OpenBabel11052420543D

 43 46  0  0  1  0  0  0  0  0999 V2000
  192.6500  172.7850  142.4820 C   0  0  0  0  0  0  0  0  0  0  0  0
  193.5820  173.8180  142.1050 N   0  0  0  0  0  0  0  0  0  0  0  0
  193.0940  171.6210  142.7100 O   0  0  0  0  0  0  0  0  0  0  0  0
  191.2400  173.0600  142.6350 N   0  0  0  0  0  0  0  0  0  0  0  0
  189.7730  176.1210  144.3570 C   0  0  0  0  0  2  0  0  0  0  0  0
  188.7930  176.5220  143.2940 C   0  0  0  0  0  0  0  0  0  0  0  0
  187.8180  176.3600  141.0580 C   0  0  0  0  0  3  0  0  0  0  0  0
  190.2140  174.6690  144.2400 C   0  0  2  0  0  3  0  0  0  0  0  0
  187.9910  177.7670  143.5540 C   0  0  0  0  0  2  0  0  0  0  0  0
  189.5930  174.6970  141.7810 C   0  0  0  0  0  2  0  0  0  0  0  0
  191.3360  174.4370  145.2330 C   0  0  0  0  0  1  0  0  0  0  0  0
  186.9060  177.9460  142.5900 N   0  0  0  0  0  0  0  0  0  0  0  0
  190.6900  174.4080  142.8120 C   0  0  2  0  0  3  0  0  0  0  0  0
  186.9320  177.3180  141.3100 C   0  0  0  0  0  3  0  0  0  0  0  0
  188.7710  175.9200  142.0870 C   0  0  0  0  0  0  0  0  0  0  0  0
  185.8870  178.9470  142.8680 C   0  0  0  0  0  2  0  0  0  0  0  0
  185.6650  179.0610  144.3650 C   0  0  0  0  0  2  0  0  0  0  0  0
  184.4530  178.3680  144.7390 N   0  0  0  0  0  2  0  0  0  0  0  0
  184.4390  178.2940  146.1910 C   0  0  0  0  0  2  0  0  0  0  0  0
  186.0260  177.1640  147.6350 N   0  0  0  0  0  1  0  0  0  0  0  0
  185.8540  178.2800  146.7310 C   0  0  0  0  0  2  0  0  0  0  0  0
  194.9050  176.1200  145.6810 C   0  0  0  0  0  0  0  0  0  0  0  0
  195.7320  173.8380  145.1700 C   0  0  0  0  0  3  0  0  0  0  0  0
  195.0580  176.5710  144.2730 C   0  0  0  0  0  2  0  0  0  0  0  0
  194.3740  177.2660  146.8870 Cl  0  0  0  0  0  0  0  0  0  0  0  0
  194.3590  174.4580  143.1400 C   0  0  0  0  0  0  0  0  0  0  0  0
  195.2770  174.9080  146.0730 C   0  0  0  0  0  3  0  0  0  0  0  0
  194.2200  175.7720  143.3340 C   0  0  0  0  0  3  0  0  0  0  0  0
  195.3380  173.6480  143.9030 C   0  0  0  0  0  3  0  0  0  0  0  0
  190.3210  171.9620  142.8890 C   0  0  0  0  0  2  0  0  0  0  0  0
  189.9550  171.5280  139.1500 C   0  0  0  0  0  2  0  0  0  0  0  0
  191.1540  170.3080  139.5310 S   0  0  0  0  0  0  0  0  0  0  0  0
  190.7500  168.9660  138.9720 O   0  0  0  0  0  0  0  0  0  0  0  0
  190.8150  169.0090  141.7600 C   0  0  0  0  0  1  0  0  0  0  0  0
  189.7330  172.2130  140.4860 C   0  0  0  0  0  2  0  0  0  0  0  0
  190.0090  171.2150  141.6050 C   0  0  1  0  0  3  0  0  0  0  0  0
  192.5100  170.7150  139.0150 O   0  0  0  0  0  0  0  0  0  0  0  0
  191.1310  170.3430  141.2640 N   0  0  0  0  0  0  0  0  0  0  0  0
  193.5880  174.3530  140.7280 C   0  0  2  0  0  3  0  0  0  0  0  0
  192.4910  173.9110  139.9490 O   0  0  0  0  0  0  0  0  0  0  0  0
  192.7560  174.1660  138.5920 C   0  0  0  0  0  1  0  0  0  0  0  0
  194.9310  174.1530  140.0190 C   0  0  0  0  0  2  0  0  0  0  0  0
  195.7210  175.4500  140.0210 C   0  0  0  0  0  1  0  0  0  0  0  0
  1  4  1  0  0  0  0
  1  3  2  0  0  0  0
  2  1  1  0  0  0  0
  2 26  1  0  0  0  0
  4 30  1  0  0  0  0
  6  9  1  0  0  0  0
  6  5  1  0  0  0  0
  7 14  2  0  0  0  0
  7 15  1  0  0  0  0
  8  5  1  0  0  0  0
  8 11  1  1  0  0  0
 10 15  1  0  0  0  0
 10 13  1  0  0  0  0
 12 16  1  0  0  0  0
 12  9  1  0  0  0  0
 13  4  1  1  0  0  0
 13  8  1  0  0  0  0
 14 12  1  0  0  0  0
 15  6  2  0  0  0  0
 16 17  1  0  0  0  0
 17 18  1  0  0  0  0
 18 19  1  0  0  0  0
 19 21  1  0  0  0  0
 21 20  1  0  0  0  0
 22 27  2  0  0  0  0
 22 25  1  0  0  0  0
 23 27  1  0  0  0  0
 24 22  1  0  0  0  0
 26 28  2  0  0  0  0
 26 29  1  0  0  0  0
 28 24  1  0  0  0  0
 29 23  2  0  0  0  0
 31 32  1  0  0  0  0
 31 35  1  0  0  0  0
 32 38  1  0  0  0  0
 33 32  2  0  0  0  0
 35 36  1  0  0  0  0
 36 30  1  1  0  0  0
 37 32  2  0  0  0  0
 38 36  1  0  0  0  0
 38 34  1  0  0  0  0
 39 42  1  6  0  0  0
 39  2  1  0  0  0  0
 40 39  1  0  0  0  0
 41 40  1  0  0  0  0
 42 43  1  0  0  0  0
M  END
>  <MODEL>
7

>  <REMARK>
 VINA RESULT:      -5.7      2.438      3.506
  Name = 
  12 active torsions:
  status: ('A' for Active; 'I' for Inactive)
    1  A    between atoms: C_1  and  N_34
    2  A    between atoms: C_1  and  C_35
    3  A    between atoms: O_2  and  C_27
    4  A    between atoms: C_6  and  C_27
    5  A    between atoms: C_11  and  N_22
    6  A    between atoms: C_11  and  C_36
    7  A    between atoms: C_21  and  N_30
    8  A    between atoms: C_27  and  N_30
    9  A    between atoms: N_29  and  C_31
   10  A    between atoms: N_29  and  C_36
   11  A    between atoms: C_31  and  C_40
   12  A    between atoms: N_34  and  C_38
                            x       y       z     vdW  Elec       q    Type
                         _______ _______ _______ _____ _____    ______ ____

>  <TORSDO>
F 12

$$$$
=
 OpenBabel11052420543D

 43 46  0  0  1  0  0  0  0  0999 V2000
  193.9510  172.7030  141.6160 C   0  0  0  0  0  0  0  0  0  0  0  0
  194.7870  173.4220  142.5420 N   0  0  0  0  0  0  0  0  0  0  0  0
  194.4720  171.7870  140.9120 O   0  0  0  0  0  0  0  0  0  0  0  0
  192.5370  172.9790  141.5020 N   0  0  0  0  0  0  0  0  0  0  0  0
  189.8220  173.6860  144.0740 C   0  0  0  0  0  2  0  0  0  0  0  0
  189.6190  175.1440  143.7840 C   0  0  0  0  0  0  0  0  0  0  0  0
  190.2190  177.2540  142.7040 C   0  0  0  0  0  3  0  0  0  0  0  0
  190.4920  172.9410  142.9290 C   0  0  2  0  0  3  0  0  0  0  0  0
  188.6170  175.8680  144.6400 C   0  0  0  0  0  2  0  0  0  0  0  0
  191.4700  175.1300  142.1000 C   0  0  0  0  0  2  0  0  0  0  0  0
  190.8180  171.5400  143.4080 C   0  0  0  0  0  1  0  0  0  0  0  0
  188.3120  177.2070  144.1370 N   0  0  0  0  0  0  0  0  0  0  0  0
  191.7640  173.6870  142.5280 C   0  0  2  0  0  3  0  0  0  0  0  0
  189.2070  177.9010  143.2710 C   0  0  0  0  0  3  0  0  0  0  0  0
  190.4290  175.8180  142.9410 C   0  0  0  0  0  0  0  0  0  0  0  0
  187.1720  177.9170  144.6970 C   0  0  0  0  0  2  0  0  0  0  0  0
  185.9340  177.0420  144.6350 C   0  0  0  0  0  2  0  0  0  0  0  0
  185.0090  177.4200  145.6810 N   0  0  0  0  0  2  0  0  0  0  0  0
  185.3880  178.7550  146.1170 C   0  0  0  0  0  2  0  0  0  0  0  0
  186.6910  178.7560  148.1620 N   0  0  0  0  0  1  0  0  0  0  0  0
  185.3500  178.8460  147.6280 C   0  0  0  0  0  2  0  0  0  0  0  0
  195.4790  170.5370  145.8640 C   0  0  0  0  0  0  0  0  0  0  0  0
  197.1240  172.2830  145.2350 C   0  0  0  0  0  3  0  0  0  0  0  0
  194.3340  171.4810  145.7800 C   0  0  0  0  0  2  0  0  0  0  0  0
  195.1890  168.8930  146.3770 Cl  0  0  0  0  0  0  0  0  0  0  0  0
  195.1040  172.8080  143.8100 C   0  0  0  0  0  0  0  0  0  0  0  0
  196.7310  170.9370  145.6790 C   0  0  0  0  0  3  0  0  0  0  0  0
  194.1800  172.0570  144.4130 C   0  0  0  0  0  3  0  0  0  0  0  0
  196.4190  173.0920  144.4320 C   0  0  0  0  0  3  0  0  0  0  0  0
  191.7600  172.3190  140.4660 C   0  0  0  0  0  2  0  0  0  0  0  0
  191.5780  174.0290  137.0970 C   0  0  0  0  0  2  0  0  0  0  0  0
  189.9350  173.4480  137.2870 S   0  0  0  0  0  0  0  0  0  0  0  0
  188.9440  174.5640  137.0700 O   0  0  0  0  0  0  0  0  0  0  0  0
  188.9280  173.5870  139.6820 C   0  0  0  0  0  1  0  0  0  0  0  0
  192.2770  173.4760  138.3250 C   0  0  0  0  0  2  0  0  0  0  0  0
  191.2560  173.3280  139.4490 C   0  0  1  0  0  3  0  0  0  0  0  0
  189.6640  172.3010  136.3470 O   0  0  0  0  0  0  0  0  0  0  0  0
  189.9630  172.8900  138.9280 N   0  0  0  0  0  0  0  0  0  0  0  0
  195.1360  174.8360  142.2910 C   0  0  2  0  0  3  0  0  0  0  0  0
  194.5160  175.7370  143.1910 O   0  0  0  0  0  0  0  0  0  0  0  0
  195.5070  176.4590  143.8790 C   0  0  0  0  0  1  0  0  0  0  0  0
  194.9450  175.2430  140.8260 C   0  0  0  0  0  2  0  0  0  0  0  0
  196.2840  175.5980  140.2040 C   0  0  0  0  0  1  0  0  0  0  0  0
  1  2  1  0  0  0  0
  2 26  1  0  0  0  0
  3  1  2  0  0  0  0
  4  1  1  0  0  0  0
  6  5  1  0  0  0  0
  6  9  1  0  0  0  0
  7 15  1  0  0  0  0
  7 14  2  0  0  0  0
  8 11  1  1  0  0  0
  8  5  1  0  0  0  0
 10 13  1  0  0  0  0
 10 15  1  0  0  0  0
 12  9  1  0  0  0  0
 12 16  1  0  0  0  0
 13  4  1  6  0  0  0
 13  8  1  0  0  0  0
 14 12  1  0  0  0  0
 15  6  2  0  0  0  0
 17 16  1  0  0  0  0
 17 18  1  0  0  0  0
 18 19  1  0  0  0  0
 19 21  1  0  0  0  0
 21 20  1  0  0  0  0
 22 25  1  0  0  0  0
 23 27  1  0  0  0  0
 24 22  1  0  0  0  0
 26 28  2  0  0  0  0
 26 29  1  0  0  0  0
 27 22  2  0  0  0  0
 28 24  1  0  0  0  0
 29 23  2  0  0  0  0
 30  4  1  0  0  0  0
 31 32  1  0  0  0  0
 31 35  1  0  0  0  0
 32 38  1  0  0  0  0
 33 32  2  0  0  0  0
 35 36  1  0  0  0  0
 36 30  1  1  0  0  0
 37 32  2  0  0  0  0
 38 36  1  0  0  0  0
 38 34  1  0  0  0  0
 39 42  1  6  0  0  0
 39  2  1  0  0  0  0
 39 40  1  0  0  0  0
 40 41  1  0  0  0  0
 43 42  1  0  0  0  0
M  END
>  <MODEL>
8

>  <REMARK>
 VINA RESULT:      -5.6      1.187      1.647
  Name = 
  12 active torsions:
  status: ('A' for Active; 'I' for Inactive)
    1  A    between atoms: C_1  and  N_34
    2  A    between atoms: C_1  and  C_35
    3  A    between atoms: O_2  and  C_27
    4  A    between atoms: C_6  and  C_27
    5  A    between atoms: C_11  and  N_22
    6  A    between atoms: C_11  and  C_36
    7  A    between atoms: C_21  and  N_30
    8  A    between atoms: C_27  and  N_30
    9  A    between atoms: N_29  and  C_31
   10  A    between atoms: N_29  and  C_36
   11  A    between atoms: C_31  and  C_40
   12  A    between atoms: N_34  and  C_38
                            x       y       z     vdW  Elec       q    Type
                         _______ _______ _______ _____ _____    ______ ____

>  <TORSDO>
F 12

$$$$
=
 OpenBabel11052420543D

 43 46  0  0  1  0  0  0  0  0999 V2000
  190.4780  174.2200  145.1250 C   0  0  0  0  0  0  0  0  0  0  0  0
  190.2360  175.6170  144.8660 N   0  0  0  0  0  0  0  0  0  0  0  0
  190.2730  173.7750  146.2930 O   0  0  0  0  0  0  0  0  0  0  0  0
  190.9110  173.3220  144.0790 N   0  0  0  0  0  0  0  0  0  0  0  0
  189.7720  173.0020  140.4610 C   0  0  0  0  0  2  0  0  0  0  0  0
  191.0600  173.3820  139.7910 C   0  0  0  0  0  0  0  0  0  0  0  0
  193.3480  174.2410  139.8000 C   0  0  0  0  0  3  0  0  0  0  0  0
  189.9630  172.5560  141.9030 C   0  0  2  0  0  3  0  0  0  0  0  0
  191.0480  173.4300  138.2880 C   0  0  0  0  0  2  0  0  0  0  0  0
  192.1410  173.8530  141.9980 C   0  0  0  0  0  2  0  0  0  0  0  0
  188.5920  172.3870  142.5280 C   0  0  0  0  0  1  0  0  0  0  0  0
  192.3880  173.5730  137.7210 N   0  0  0  0  0  0  0  0  0  0  0  0
  190.7730  173.6160  142.6480 C   0  0  2  0  0  3  0  0  0  0  0  0
  193.4710  174.0990  138.4850 C   0  0  0  0  0  3  0  0  0  0  0  0
  192.1130  173.8480  140.4940 C   0  0  0  0  0  0  0  0  0  0  0  0
  192.5640  173.3640  136.2920 C   0  0  0  0  0  2  0  0  0  0  0  0
  192.7470  174.6970  135.5910 C   0  0  0  0  0  2  0  0  0  0  0  0
  191.4620  175.3260  135.3810 N   0  0  0  0  0  2  0  0  0  0  0  0
  191.7200  176.7240  135.0770 C   0  0  0  0  0  2  0  0  0  0  0  0
  193.5140  178.3520  134.9640 N   0  0  0  0  0  1  0  0  0  0  0  0
  193.0720  177.1390  135.6180 C   0  0  0  0  0  2  0  0  0  0  0  0
  186.4640  177.9780  144.6820 C   0  0  0  0  0  0  0  0  0  0  0  0
  187.3430  176.6960  142.7500 C   0  0  0  0  0  3  0  0  0  0  0  0
  186.7280  176.8670  145.6340 C   0  0  0  0  0  2  0  0  0  0  0  0
  185.6880  179.4300  145.2650 Cl  0  0  0  0  0  0  0  0  0  0  0  0
  188.8780  176.0560  144.6540 C   0  0  0  0  0  0  0  0  0  0  0  0
  186.6880  177.8520  143.3800 C   0  0  0  0  0  3  0  0  0  0  0  0
  188.1760  176.5120  145.6940 C   0  0  0  0  0  3  0  0  0  0  0  0
  188.2850  175.9180  143.3030 C   0  0  0  0  0  3  0  0  0  0  0  0
  191.2660  171.9520  144.4130 C   0  0  0  0  0  2  0  0  0  0  0  0
  194.8950  171.5590  145.4020 C   0  0  0  0  0  2  0  0  0  0  0  0
  194.5590  170.0030  144.6670 S   0  0  0  0  0  0  0  0  0  0  0  0
  195.5870  169.6740  143.6140 O   0  0  0  0  0  0  0  0  0  0  0  0
  193.0260  170.0230  142.5640 C   0  0  0  0  0  1  0  0  0  0  0  0
  193.5450  172.2500  145.3640 C   0  0  0  0  0  2  0  0  0  0  0  0
  192.7470  171.7100  144.1820 C   0  0  1  0  0  3  0  0  0  0  0  0
  194.5020  168.9210  145.7150 O   0  0  0  0  0  0  0  0  0  0  0  0
  192.9840  170.2800  143.9990 N   0  0  0  0  0  0  0  0  0  0  0  0
  191.3660  176.5360  144.6140 C   0  0  2  0  0  3  0  0  0  0  0  0
  191.3540  177.0970  143.3140 O   0  0  0  0  0  0  0  0  0  0  0  0
  191.1860  178.4900  143.4130 C   0  0  0  0  0  1  0  0  0  0  0  0
  192.7220  175.9260  144.9800 C   0  0  0  0  0  2  0  0  0  0  0  0
  193.0800  176.2700  146.4150 C   0  0  0  0  0  1  0  0  0  0  0  0
  1  3  2  0  0  0  0
  2  1  1  0  0  0  0
  4 30  1  0  0  0  0
  4  1  1  0  0  0  0
  5  8  1  0  0  0  0
  6  5  1  0  0  0  0
  6 15  2  0  0  0  0
  7 15  1  0  0  0  0
  8 11  1  1  0  0  0
  8 13  1  0  0  0  0
  9  6  1  0  0  0  0
 10 13  1  0  0  0  0
 12  9  1  0  0  0  0
 12 14  1  0  0  0  0
 13  4  1  1  0  0  0
 14  7  2  0  0  0  0
 15 10  1  0  0  0  0
 16 12  1  0  0  0  0
 17 16  1  0  0  0  0
 18 17  1  0  0  0  0
 19 18  1  0  0  0  0
 19 21  1  0  0  0  0
 20 21  1  0  0  0  0
 22 25  1  0  0  0  0
 22 24  1  0  0  0  0
 23 29  2  0  0  0  0
 23 27  1  0  0  0  0
 24 28  1  0  0  0  0
 26  2  1  0  0  0  0
 26 28  2  0  0  0  0
 27 22  2  0  0  0  0
 29 26  1  0  0  0  0
 32 31  1  0  0  0  0
 32 37  2  0  0  0  0
 33 32  2  0  0  0  0
 34 38  1  0  0  0  0
 35 31  1  0  0  0  0
 36 30  1  1  0  0  0
 36 35  1  0  0  0  0
 38 36  1  0  0  0  0
 38 32  1  0  0  0  0
 39  2  1  0  0  0  0
 39 42  1  6  0  0  0
 40 41  1  0  0  0  0
 40 39  1  0  0  0  0
 42 43  1  0  0  0  0
M  END
>  <MODEL>
9

>  <REMARK>
 VINA RESULT:      -5.6      3.962      8.172
  Name = 
  12 active torsions:
  status: ('A' for Active; 'I' for Inactive)
    1  A    between atoms: C_1  and  N_34
    2  A    between atoms: C_1  and  C_35
    3  A    between atoms: O_2  and  C_27
    4  A    between atoms: C_6  and  C_27
    5  A    between atoms: C_11  and  N_22
    6  A    between atoms: C_11  and  C_36
    7  A    between atoms: C_21  and  N_30
    8  A    between atoms: C_27  and  N_30
    9  A    between atoms: N_29  and  C_31
   10  A    between atoms: N_29  and  C_36
   11  A    between atoms: C_31  and  C_40
   12  A    between atoms: N_34  and  C_38
                            x       y       z     vdW  Elec       q    Type
                         _______ _______ _______ _____ _____    ______ ____

>  <TORSDO>
F 12

$$$$
