=
 OpenBabel11052421043D

 43 47  0  0  1  0  0  0  0  0999 V2000
  187.5760  176.8490  146.6380 C   0  0  0  0  0  0  0  0  0  0  0  0
  192.1760  175.6950  145.0340 N   0  0  0  0  0  0  0  0  0  0  0  0
  189.7930  175.8480  146.3810 C   0  0  0  0  0  0  0  0  0  0  0  0
  187.7210  177.6510  145.5760 C   0  0  0  0  0  3  0  0  0  0  0  0
  186.3130  176.8940  147.4180 C   0  0  0  0  0  1  0  0  0  0  0  0
  190.0210  176.7130  145.1960 C   0  0  0  0  0  0  0  0  0  0  0  0
  188.6420  175.9200  147.0500 C   0  0  0  0  0  3  0  0  0  0  0  0
  188.9630  177.6780  144.7240 C   0  0  0  0  0  2  0  0  0  0  0  0
  191.6470  177.3460  143.3880 C   0  0  0  0  0  2  0  0  0  0  0  0
  191.1960  176.5990  144.5740 C   0  0  0  0  0  0  0  0  0  0  0  0
  191.9530  174.8560  146.1740 C   0  0  0  0  0  3  0  0  0  0  0  0
  193.3690  175.7520  144.2180 C   0  0  1  0  0  3  0  0  0  0  0  0
  193.0420  176.7620  143.1010 C   0  0  1  0  0  3  0  0  0  0  0  0
  190.8180  174.9330  146.8100 N   0  0  0  0  0  0  0  0  0  0  0  0
  194.5330  176.2680  145.0460 C   0  0  0  0  0  2  0  0  0  0  0  0
  195.7890  175.8510  144.4450 N   0  0  0  0  0  2  0  0  0  0  0  0
  197.3430  172.5160  143.7600 C   0  0  0  0  0  3  0  0  0  0  0  0
  196.9120  172.7290  146.1320 C   0  0  0  0  0  3  0  0  0  0  0  0
  197.3860  171.9820  145.0500 C   0  0  0  0  0  0  0  0  0  0  0  0
  196.8230  173.7960  143.5510 C   0  0  0  0  0  3  0  0  0  0  0  0
  196.3450  174.5490  144.6350 C   0  0  0  0  0  0  0  0  0  0  0  0
  197.8860  170.7400  145.2510 F   0  0  0  0  0  0  0  0  0  0  0  0
  196.3910  174.0070  145.9240 C   0  0  0  0  0  3  0  0  0  0  0  0
  193.0240  176.1030  141.8500 O   0  0  0  0  0  0  0  0  0  0  0  0
  194.1690  175.3610  141.6810 N   0  0  0  0  0  0  0  0  0  0  0  0
  195.2170  176.1310  141.0140 C   0  0  0  0  0  1  0  0  0  0  0  0
  193.9150  174.1230  140.9410 C   0  0  0  0  0  2  0  0  0  0  0  0
  192.4580  173.8090  140.9510 C   0  0  0  0  0  0  0  0  0  0  0  0
  191.8200  173.8970  139.9190 O   0  0  0  0  0  0  0  0  0  0  0  0
  191.7700  173.4080  142.2180 C   0  0  0  0  0  2  0  0  0  0  0  0
  190.3050  173.0110  142.0090 C   0  0  2  0  0  3  0  0  0  0  0  0
  188.5660  174.7020  141.3050 C   0  0  0  0  0  0  0  0  0  0  0  0
  189.4240  174.1330  142.2940 N   0  0  0  0  0  2  0  0  0  0  0  0
  188.5950  174.2720  140.1200 O   0  0  0  0  0  0  0  0  0  0  0  0
  187.6650  175.8060  141.6690 C   0  0  0  0  0  0  0  0  0  0  0  0
  185.8670  176.7120  142.9730 C   0  0  0  0  0  3  0  0  0  0  0  0
  186.9290  178.0320  141.3310 C   0  0  0  0  0  3  0  0  0  0  0  0
  185.9900  177.8830  142.3000 N   0  0  0  0  0  0  0  0  0  0  0  0
  187.7550  176.9990  141.0210 N   0  0  0  0  0  0  0  0  0  0  0  0
  186.7070  175.6430  142.6710 C   0  0  0  0  0  3  0  0  0  0  0  0
  189.9070  171.8110  142.8580 C   0  0  0  0  0  2  0  0  0  0  0  0
  189.5430  172.1820  145.1920 O   0  0  0  0  0  1  0  0  0  0  0  0
  190.5260  171.8850  144.2440 C   0  0  0  0  0  2  0  0  0  0  0  0
  1  7  1  0  0  0  0
  1  5  1  0  0  0  0
  2 11  1  0  0  0  0
  3 14  1  0  0  0  0
  3  7  2  0  0  0  0
  4  1  2  0  0  0  0
  6  3  1  0  0  0  0
  8  6  1  0  0  0  0
  8  4  1  0  0  0  0
  9 10  1  0  0  0  0
 10  2  1  0  0  0  0
 10  6  2  0  0  0  0
 11 14  2  0  0  0  0
 12  2  1  0  0  0  0
 12 15  1  1  0  0  0
 13 24  1  6  0  0  0
 13  9  1  0  0  0  0
 13 12  1  0  0  0  0
 16 21  1  0  0  0  0
 16 15  1  0  0  0  0
 17 19  1  0  0  0  0
 19 22  1  0  0  0  0
 19 18  2  0  0  0  0
 20 17  2  0  0  0  0
 20 21  1  0  0  0  0
 21 23  2  0  0  0  0
 23 18  1  0  0  0  0
 25 24  1  0  0  0  0
 26 25  1  0  0  0  0
 27 28  1  0  0  0  0
 27 25  1  0  0  0  0
 28 30  1  0  0  0  0
 29 28  2  0  0  0  0
 31 30  1  1  0  0  0
 31 33  1  0  0  0  0
 31 41  1  0  0  0  0
 32 35  1  0  0  0  0
 32 33  1  0  0  0  0
 34 32  2  0  0  0  0
 35 40  1  0  0  0  0
 37 38  2  0  0  0  0
 38 36  1  0  0  0  0
 39 37  1  0  0  0  0
 39 35  2  0  0  0  0
 40 36  2  0  0  0  0
 41 43  1  0  0  0  0
 43 42  1  0  0  0  0
M  END
>  <MODEL>
1

>  <REMARK>
 VINA RESULT:      -7.0      0.000      0.000
  Name = 
  13 active torsions:
  status: ('A' for Active; 'I' for Inactive)
    1  A    between atoms: C_1  and  N_28
    2  A    between atoms: C_1  and  C_34
    3  A    between atoms: N_2  and  C_6
    4  A    between atoms: N_2  and  O_13
    5  A    between atoms: C_3  and  C_4
    6  A    between atoms: C_3  and  C_12
    7  A    between atoms: C_4  and  C_15
    8  A    between atoms: C_4  and  N_22
    9  A    between atoms: C_6  and  C_12
   10  A    between atoms: C_11  and  C_14
   11  A    between atoms: O_13  and  C_38
   12  A    between atoms: C_15  and  C_42
   13  A    between atoms: N_28  and  C_35
                            x       y       z     vdW  Elec       q    Type
                         _______ _______ _______ _____ _____    ______ ____

>  <TORSDO>
F 13

$$$$
=
 OpenBabel11052421043D

 43 47  0  0  1  0  0  0  0  0999 V2000
  196.0910  169.5860  146.3090 C   0  0  0  0  0  0  0  0  0  0  0  0
  195.2190  174.2640  144.7550 N   0  0  0  0  0  0  0  0  0  0  0  0
  196.2810  171.9770  145.8330 C   0  0  0  0  0  0  0  0  0  0  0  0
  194.8990  169.4730  145.7120 C   0  0  0  0  0  3  0  0  0  0  0  0
  196.7140  168.3860  146.9250 C   0  0  0  0  0  1  0  0  0  0  0  0
  194.9590  171.9250  145.1590 C   0  0  0  0  0  0  0  0  0  0  0  0
  196.8020  170.8750  146.3690 C   0  0  0  0  0  3  0  0  0  0  0  0
  194.1880  170.6320  145.0610 C   0  0  0  0  0  2  0  0  0  0  0  0
  193.2090  173.2560  143.9410 C   0  0  0  0  0  2  0  0  0  0  0  0
  194.4870  173.0640  144.6480 C   0  0  0  0  0  0  0  0  0  0  0  0
  196.4980  174.3130  145.4000 C   0  0  0  0  0  3  0  0  0  0  0  0
  194.5110  175.3680  144.1440 C   0  0  1  0  0  3  0  0  0  0  0  0
  193.2350  174.7440  143.5480 C   0  0  1  0  0  3  0  0  0  0  0  0
  196.9970  173.2230  145.9100 N   0  0  0  0  0  0  0  0  0  0  0  0
  194.1310  176.3840  145.2080 C   0  0  0  0  0  2  0  0  0  0  0  0
  192.7270  176.7370  145.0750 N   0  0  0  0  0  2  0  0  0  0  0  0
  190.8820  175.2360  147.9660 C   0  0  0  0  0  3  0  0  0  0  0  0
  189.4680  175.1970  146.0020 C   0  0  0  0  0  3  0  0  0  0  0  0
  189.6680  174.9110  147.3550 C   0  0  0  0  0  0  0  0  0  0  0  0
  191.8960  175.8460  147.2220 C   0  0  0  0  0  3  0  0  0  0  0  0
  191.6990  176.1330  145.8630 C   0  0  0  0  0  0  0  0  0  0  0  0
  188.6880  174.3170  148.0750 F   0  0  0  0  0  0  0  0  0  0  0  0
  190.4810  175.8040  145.2580 C   0  0  0  0  0  3  0  0  0  0  0  0
  193.2610  174.8540  142.1390 O   0  0  0  0  0  0  0  0  0  0  0  0
  192.2590  174.0970  141.5790 N   0  0  0  0  0  0  0  0  0  0  0  0
  192.4880  173.8680  140.1530 C   0  0  0  0  0  1  0  0  0  0  0  0
  190.9400  174.7010  141.7790 C   0  0  0  0  0  2  0  0  0  0  0  0
  189.9280  173.6450  142.0620 C   0  0  0  0  0  0  0  0  0  0  0  0
  190.2540  172.4750  142.0120 O   0  0  0  0  0  0  0  0  0  0  0  0
  188.5120  174.0080  142.3850 C   0  0  0  0  0  2  0  0  0  0  0  0
  188.1930  175.4830  142.1220 C   0  0  2  0  0  3  0  0  0  0  0  0
  187.3510  177.2140  143.7580 C   0  0  0  0  0  0  0  0  0  0  0  0
  187.2030  175.9710  143.0700 N   0  0  0  0  0  2  0  0  0  0  0  0
  188.3950  177.9040  143.6000 O   0  0  0  0  0  0  0  0  0  0  0  0
  186.2920  177.6720  144.6690 C   0  0  0  0  0  0  0  0  0  0  0  0
  184.8260  177.3240  146.5370 C   0  0  0  0  0  3  0  0  0  0  0  0
  184.7470  179.3450  145.3210 C   0  0  0  0  0  3  0  0  0  0  0  0
  184.2970  178.5570  146.3300 N   0  0  0  0  0  0  0  0  0  0  0  0
  185.7340  178.9010  144.5010 N   0  0  0  0  0  0  0  0  0  0  0  0
  185.8410  176.8540  145.7060 C   0  0  0  0  0  3  0  0  0  0  0  0
  187.7090  175.7220  140.6970 C   0  0  0  0  0  2  0  0  0  0  0  0
  186.0480  177.4160  140.4020 O   0  0  0  0  0  1  0  0  0  0  0  0
  187.4270  177.1940  140.4490 C   0  0  0  0  0  2  0  0  0  0  0  0
  1  7  1  0  0  0  0
  1  5  1  0  0  0  0
  2 11  1  0  0  0  0
  3 14  1  0  0  0  0
  3  7  2  0  0  0  0
  4  1  2  0  0  0  0
  6  3  1  0  0  0  0
  8  6  1  0  0  0  0
  8  4  1  0  0  0  0
  9 10  1  0  0  0  0
 10  2  1  0  0  0  0
 10  6  2  0  0  0  0
 11 14  2  0  0  0  0
 12  2  1  0  0  0  0
 12 15  1  1  0  0  0
 13 24  1  6  0  0  0
 13  9  1  0  0  0  0
 13 12  1  0  0  0  0
 16 15  1  0  0  0  0
 16 21  1  0  0  0  0
 18 19  2  0  0  0  0
 19 17  1  0  0  0  0
 19 22  1  0  0  0  0
 20 17  2  0  0  0  0
 21 20  1  0  0  0  0
 23 21  2  0  0  0  0
 23 18  1  0  0  0  0
 25 27  1  0  0  0  0
 25 24  1  0  0  0  0
 26 25  1  0  0  0  0
 27 28  1  0  0  0  0
 28 30  1  0  0  0  0
 29 28  2  0  0  0  0
 31 41  1  6  0  0  0
 31 30  1  0  0  0  0
 31 33  1  0  0  0  0
 32 35  1  0  0  0  0
 33 32  1  0  0  0  0
 34 32  2  0  0  0  0
 35 40  1  0  0  0  0
 37 38  2  0  0  0  0
 38 36  1  0  0  0  0
 39 35  2  0  0  0  0
 39 37  1  0  0  0  0
 40 36  2  0  0  0  0
 42 43  1  0  0  0  0
 43 41  1  0  0  0  0
M  END
>  <MODEL>
2

>  <REMARK>
 VINA RESULT:      -6.8      2.762      6.107
  Name = 
  13 active torsions:
  status: ('A' for Active; 'I' for Inactive)
    1  A    between atoms: C_1  and  N_28
    2  A    between atoms: C_1  and  C_34
    3  A    between atoms: N_2  and  C_6
    4  A    between atoms: N_2  and  O_13
    5  A    between atoms: C_3  and  C_4
    6  A    between atoms: C_3  and  C_12
    7  A    between atoms: C_4  and  C_15
    8  A    between atoms: C_4  and  N_22
    9  A    between atoms: C_6  and  C_12
   10  A    between atoms: C_11  and  C_14
   11  A    between atoms: O_13  and  C_38
   12  A    between atoms: C_15  and  C_42
   13  A    between atoms: N_28  and  C_35
                            x       y       z     vdW  Elec       q    Type
                         _______ _______ _______ _____ _____    ______ ____

>  <TORSDO>
F 13

$$$$
=
 OpenBabel11052421043D

 43 47  0  0  1  0  0  0  0  0999 V2000
  185.5740  177.6840  146.4420 C   0  0  0  0  0  0  0  0  0  0  0  0
  188.5830  175.5110  143.0830 N   0  0  0  0  0  0  0  0  0  0  0  0
  186.5020  176.7230  144.3940 C   0  0  2  0  0  3  0  0  0  0  0  0
  186.6880  177.4660  147.1520 C   0  0  0  0  0  3  0  0  0  0  0  0
  184.4050  178.3240  147.0990 C   0  0  0  0  0  1  0  0  0  0  0  0
  187.7670  176.4490  145.1220 C   0  0  0  0  0  0  0  0  0  0  0  0
  185.4810  177.3030  145.0220 C   0  0  0  0  0  3  0  0  0  0  0  0
  187.9230  176.8230  146.5750 C   0  0  0  0  0  3  0  0  0  0  0  0
  190.0830  175.4910  144.9450 C   0  0  0  0  0  2  0  0  0  0  0  0
  188.7500  175.8600  144.4390 C   0  0  0  0  0  0  0  0  0  0  0  0
  187.3650  175.7820  142.3790 C   0  0  0  0  0  3  0  0  0  0  0  0
  189.7700  174.8760  142.5540 C   0  0  1  0  0  3  0  0  0  0  0  0
  190.7880  174.9030  143.7100 C   0  0  1  0  0  3  0  0  0  0  0  0
  186.3800  176.3580  143.0070 N   0  0  0  0  0  0  0  0  0  0  0  0
  189.4590  173.4350  142.1840 C   0  0  0  0  0  2  0  0  0  0  0  0
  190.2590  173.0350  141.0380 N   0  0  0  0  0  2  0  0  0  0  0  0
  188.2760  173.9670  138.0030 C   0  0  0  0  0  3  0  0  0  0  0  0
  190.6090  173.7390  137.4000 C   0  0  0  0  0  3  0  0  0  0  0  0
  189.2860  174.0090  137.0390 C   0  0  0  0  0  0  0  0  0  0  0  0
  188.5890  173.6530  139.3290 C   0  0  0  0  0  3  0  0  0  0  0  0
  189.9160  173.3800  139.6950 C   0  0  0  0  0  0  0  0  0  0  0  0
  188.9810  174.3080  135.7540 F   0  0  0  0  0  0  0  0  0  0  0  0
  190.9220  173.4230  138.7230 C   0  0  0  0  0  3  0  0  0  0  0  0
  191.8850  175.7250  143.3630 O   0  0  0  0  0  0  0  0  0  0  0  0
  192.0310  176.7420  144.2770 N   0  0  0  0  0  0  0  0  0  0  0  0
  191.4780  177.9990  143.7780 C   0  0  0  0  0  1  0  0  0  0  0  0
  193.4310  176.9340  144.6630 C   0  0  0  0  0  2  0  0  0  0  0  0
  193.7100  176.2330  145.9480 C   0  0  0  0  0  0  0  0  0  0  0  0
  192.8770  176.2520  146.8330 O   0  0  0  0  0  0  0  0  0  0  0  0
  195.0120  175.5270  146.1670 C   0  0  0  0  0  2  0  0  0  0  0  0
  195.3380  174.5090  145.0700 C   0  0  2  0  0  3  0  0  0  0  0  0
  194.9770  172.0160  145.2640 C   0  0  0  0  0  0  0  0  0  0  0  0
  195.6540  173.2130  145.6500 N   0  0  0  0  0  2  0  0  0  0  0  0
  194.0290  172.0670  144.4330 O   0  0  0  0  0  0  0  0  0  0  0  0
  195.3750  170.7310  145.8550 C   0  0  0  0  0  0  0  0  0  0  0  0
  197.0270  169.2720  146.8030 C   0  0  0  0  0  3  0  0  0  0  0  0
  194.8000  168.5360  146.5390 C   0  0  0  0  0  3  0  0  0  0  0  0
  196.0790  168.3090  146.9310 N   0  0  0  0  0  0  0  0  0  0  0  0
  194.4570  169.7370  146.0050 N   0  0  0  0  0  0  0  0  0  0  0  0
  196.6920  170.5100  146.2600 C   0  0  0  0  0  3  0  0  0  0  0  0
  196.4840  174.9700  144.1780 C   0  0  0  0  0  2  0  0  0  0  0  0
  194.7960  174.4740  142.5600 O   0  0  0  0  0  1  0  0  0  0  0  0
  196.0460  175.0760  142.7270 C   0  0  0  0  0  2  0  0  0  0  0  0
  1  5  1  0  0  0  0
  1  4  1  0  0  0  0
  2 10  1  0  0  0  0
  3  7  1  1  0  0  0
  3  6  1  0  0  0  0
  6  8  1  0  0  0  0
  7  1  2  0  0  0  0
  8  4  2  0  0  0  0
 10  9  1  0  0  0  0
 10  6  2  0  0  0  0
 11 14  2  0  0  0  0
 11  2  1  0  0  0  0
 12 15  1  1  0  0  0
 12  2  1  0  0  0  0
 12 13  1  0  0  0  0
 13 24  1  6  0  0  0
 13  9  1  0  0  0  0
 14  3  1  0  0  0  0
 16 15  1  0  0  0  0
 17 20  1  0  0  0  0
 18 23  2  0  0  0  0
 19 18  1  0  0  0  0
 19 17  2  0  0  0  0
 20 21  2  0  0  0  0
 21 16  1  0  0  0  0
 22 19  1  0  0  0  0
 23 21  1  0  0  0  0
 24 25  1  0  0  0  0
 25 27  1  0  0  0  0
 26 25  1  0  0  0  0
 27 28  1  0  0  0  0
 28 30  1  0  0  0  0
 28 29  2  0  0  0  0
 31 41  1  1  0  0  0
 31 33  1  0  0  0  0
 31 30  1  0  0  0  0
 32 33  1  0  0  0  0
 32 35  1  0  0  0  0
 34 32  2  0  0  0  0
 35 39  2  0  0  0  0
 35 40  1  0  0  0  0
 36 38  1  0  0  0  0
 37 38  2  0  0  0  0
 39 37  1  0  0  0  0
 40 36  2  0  0  0  0
 42 43  1  0  0  0  0
 43 41  1  0  0  0  0
M  END
>  <MODEL>
3

>  <REMARK>
 VINA RESULT:      -6.4      3.456      7.686
  Name = 
  13 active torsions:
  status: ('A' for Active; 'I' for Inactive)
    1  A    between atoms: C_1  and  N_28
    2  A    between atoms: C_1  and  C_34
    3  A    between atoms: N_2  and  C_6
    4  A    between atoms: N_2  and  O_13
    5  A    between atoms: C_3  and  C_4
    6  A    between atoms: C_3  and  C_12
    7  A    between atoms: C_4  and  C_15
    8  A    between atoms: C_4  and  N_22
    9  A    between atoms: C_6  and  C_12
   10  A    between atoms: C_11  and  C_14
   11  A    between atoms: O_13  and  C_38
   12  A    between atoms: C_15  and  C_42
   13  A    between atoms: N_28  and  C_35
                            x       y       z     vdW  Elec       q    Type
                         _______ _______ _______ _____ _____    ______ ____

>  <TORSDO>
F 13

$$$$
=
 OpenBabel11052421043D

 43 47  0  0  1  0  0  0  0  0999 V2000
  191.0450  176.8990  147.8600 C   0  0  0  0  0  0  0  0  0  0  0  0
  189.4880  176.4210  143.1270 N   0  0  0  0  0  0  0  0  0  0  0  0
  190.3100  177.3500  145.5720 C   0  0  2  0  0  3  0  0  0  0  0  0
  190.9860  175.5700  147.7090 C   0  0  0  0  0  3  0  0  0  0  0  0
  191.4690  177.4650  149.1660 C   0  0  0  0  0  1  0  0  0  0  0  0
  190.2180  175.8860  145.3370 C   0  0  0  0  0  0  0  0  0  0  0  0
  190.6990  177.8130  146.7590 C   0  0  0  0  0  3  0  0  0  0  0  0
  190.5670  174.9020  146.4250 C   0  0  0  0  0  3  0  0  0  0  0  0
  189.6490  174.0970  143.6670 C   0  0  0  0  0  2  0  0  0  0  0  0
  189.8160  175.4850  144.1300 C   0  0  0  0  0  0  0  0  0  0  0  0
  189.5830  177.8330  143.3520 C   0  0  0  0  0  3  0  0  0  0  0  0
  189.0670  175.7610  141.9100 C   0  0  1  0  0  3  0  0  0  0  0  0
  189.2200  174.2550  142.1970 C   0  0  1  0  0  3  0  0  0  0  0  0
  189.9740  178.2680  144.5150 N   0  0  0  0  0  0  0  0  0  0  0  0
  187.6080  176.0810  141.6320 C   0  0  0  0  0  2  0  0  0  0  0  0
  186.7900  175.6780  142.7630 N   0  0  0  0  0  2  0  0  0  0  0  0
  184.4660  178.4620  143.6880 C   0  0  0  0  0  3  0  0  0  0  0  0
  185.3850  177.4820  145.7000 C   0  0  0  0  0  3  0  0  0  0  0  0
  184.5630  178.4270  145.0810 C   0  0  0  0  0  0  0  0  0  0  0  0
  185.1930  177.5530  142.9140 C   0  0  0  0  0  3  0  0  0  0  0  0
  186.0210  176.6040  143.5320 C   0  0  0  0  0  0  0  0  0  0  0  0
  183.8620  179.3100  145.8300 F   0  0  0  0  0  0  0  0  0  0  0  0
  186.1140  176.5750  144.9280 C   0  0  0  0  0  3  0  0  0  0  0  0
  190.2170  173.7060  141.3580 O   0  0  0  0  0  0  0  0  0  0  0  0
  189.7690  172.5430  140.7770 N   0  0  0  0  0  0  0  0  0  0  0  0
  188.3750  172.6560  140.3490 C   0  0  0  0  0  1  0  0  0  0  0  0
  189.9220  171.3920  141.6690 C   0  0  0  0  0  2  0  0  0  0  0  0
  191.0470  170.5310  141.2070 C   0  0  0  0  0  0  0  0  0  0  0  0
  190.8100  169.4310  140.7470 O   0  0  0  0  0  0  0  0  0  0  0  0
  192.4650  170.9970  141.3250 C   0  0  0  0  0  2  0  0  0  0  0  0
  192.9220  171.1770  142.7760 C   0  0  2  0  0  3  0  0  0  0  0  0
  193.4390  173.2330  144.1500 C   0  0  0  0  0  0  0  0  0  0  0  0
  193.5730  172.4670  142.9520 N   0  0  0  0  0  2  0  0  0  0  0  0
  192.6910  172.8270  145.0810 O   0  0  0  0  0  0  0  0  0  0  0  0
  194.1600  174.5080  144.2830 C   0  0  0  0  0  0  0  0  0  0  0  0
  195.9270  176.0020  143.6510 C   0  0  0  0  0  3  0  0  0  0  0  0
  194.4090  176.6070  145.3530 C   0  0  0  0  0  3  0  0  0  0  0  0
  195.4900  176.8870  144.5810 N   0  0  0  0  0  0  0  0  0  0  0  0
  193.7550  175.4260  145.2020 N   0  0  0  0  0  0  0  0  0  0  0  0
  195.2680  174.7870  143.4810 C   0  0  0  0  0  3  0  0  0  0  0  0
  193.8530  170.0600  143.2300 C   0  0  0  0  0  2  0  0  0  0  0  0
  194.3110  169.6910  145.5470 O   0  0  0  0  0  1  0  0  0  0  0  0
  193.3800  169.4420  144.5350 C   0  0  0  0  0  2  0  0  0  0  0  0
  1  5  1  0  0  0  0
  2 11  1  0  0  0  0
  2 10  1  0  0  0  0
  3  7  1  1  0  0  0
  4  1  1  0  0  0  0
  6  3  1  0  0  0  0
  6  8  1  0  0  0  0
  7  1  2  0  0  0  0
  8  4  2  0  0  0  0
  9 10  1  0  0  0  0
 10  6  2  0  0  0  0
 11 14  2  0  0  0  0
 12 15  1  1  0  0  0
 12 13  1  0  0  0  0
 12  2  1  0  0  0  0
 13 24  1  6  0  0  0
 13  9  1  0  0  0  0
 14  3  1  0  0  0  0
 15 16  1  0  0  0  0
 16 21  1  0  0  0  0
 17 19  1  0  0  0  0
 19 18  2  0  0  0  0
 19 22  1  0  0  0  0
 20 21  1  0  0  0  0
 20 17  2  0  0  0  0
 21 23  2  0  0  0  0
 23 18  1  0  0  0  0
 25 24  1  0  0  0  0
 25 27  1  0  0  0  0
 26 25  1  0  0  0  0
 28 30  1  0  0  0  0
 28 27  1  0  0  0  0
 29 28  2  0  0  0  0
 31 30  1  6  0  0  0
 31 33  1  0  0  0  0
 31 41  1  0  0  0  0
 32 35  1  0  0  0  0
 32 34  2  0  0  0  0
 33 32  1  0  0  0  0
 35 39  1  0  0  0  0
 36 38  2  0  0  0  0
 38 37  1  0  0  0  0
 39 37  2  0  0  0  0
 40 36  1  0  0  0  0
 40 35  2  0  0  0  0
 41 43  1  0  0  0  0
 43 42  1  0  0  0  0
M  END
>  <MODEL>
4

>  <REMARK>
 VINA RESULT:      -6.3      3.457      7.386
  Name = 
  13 active torsions:
  status: ('A' for Active; 'I' for Inactive)
    1  A    between atoms: C_1  and  N_28
    2  A    between atoms: C_1  and  C_34
    3  A    between atoms: N_2  and  C_6
    4  A    between atoms: N_2  and  O_13
    5  A    between atoms: C_3  and  C_4
    6  A    between atoms: C_3  and  C_12
    7  A    between atoms: C_4  and  C_15
    8  A    between atoms: C_4  and  N_22
    9  A    between atoms: C_6  and  C_12
   10  A    between atoms: C_11  and  C_14
   11  A    between atoms: O_13  and  C_38
   12  A    between atoms: C_15  and  C_42
   13  A    between atoms: N_28  and  C_35
                            x       y       z     vdW  Elec       q    Type
                         _______ _______ _______ _____ _____    ______ ____

>  <TORSDO>
F 13

$$$$
=
 OpenBabel11052421043D

 43 47  0  0  1  0  0  0  0  0999 V2000
  185.4220  178.3780  144.0710 C   0  0  0  0  0  0  0  0  0  0  0  0
  188.0980  175.4870  140.9810 N   0  0  0  0  0  0  0  0  0  0  0  0
  186.4210  177.3530  142.0870 C   0  0  2  0  0  3  0  0  0  0  0  0
  186.0890  177.5870  144.9210 C   0  0  0  0  0  3  0  0  0  0  0  0
  184.4870  179.3990  144.6070 C   0  0  0  0  0  1  0  0  0  0  0  0
  187.1890  176.4410  142.9730 C   0  0  0  0  0  0  0  0  0  0  0  0
  185.5960  178.2570  142.6130 C   0  0  0  0  0  3  0  0  0  0  0  0
  187.0570  176.5220  144.4730 C   0  0  0  0  0  3  0  0  0  0  0  0
  188.8450  174.5530  143.0510 C   0  0  0  0  0  2  0  0  0  0  0  0
  187.9930  175.5530  142.3860 C   0  0  0  0  0  0  0  0  0  0  0  0
  187.3620  176.3720  140.1270 C   0  0  0  0  0  3  0  0  0  0  0  0
  189.0150  174.4460  140.5700 C   0  0  1  0  0  3  0  0  0  0  0  0
  189.5690  173.8600  141.8830 C   0  0  1  0  0  3  0  0  0  0  0  0
  186.5680  177.2560  140.6590 N   0  0  0  0  0  0  0  0  0  0  0  0
  188.2580  173.3680  139.8120 C   0  0  0  0  0  2  0  0  0  0  0  0
  188.7740  173.2630  138.4580 N   0  0  0  0  0  2  0  0  0  0  0  0
  190.3530  169.8750  138.2550 C   0  0  0  0  0  3  0  0  0  0  0  0
  190.0770  170.7680  136.0230 C   0  0  0  0  0  3  0  0  0  0  0  0
  190.5040  169.7440  136.8720 C   0  0  0  0  0  0  0  0  0  0  0  0
  189.7760  171.0310  138.7880 C   0  0  0  0  0  3  0  0  0  0  0  0
  189.3470  172.0620  137.9370 C   0  0  0  0  0  0  0  0  0  0  0  0
  191.0670  168.6260  136.3580 F   0  0  0  0  0  0  0  0  0  0  0  0
  189.5030  171.9240  136.5530 C   0  0  0  0  0  3  0  0  0  0  0  0
  190.9560  174.1190  141.9740 O   0  0  0  0  0  0  0  0  0  0  0  0
  191.6780  173.0320  141.5410 N   0  0  0  0  0  0  0  0  0  0  0  0
  191.3870  171.8400  142.3360 C   0  0  0  0  0  1  0  0  0  0  0  0
  193.1180  173.2930  141.5460 C   0  0  0  0  0  2  0  0  0  0  0  0
  193.4240  174.5050  140.7360 C   0  0  0  0  0  0  0  0  0  0  0  0
  193.1140  174.5340  139.5610 O   0  0  0  0  0  0  0  0  0  0  0  0
  194.1280  175.6770  141.3470 C   0  0  0  0  0  2  0  0  0  0  0  0
  194.4210  175.4920  142.8390 C   0  0  2  0  0  3  0  0  0  0  0  0
  192.7200  175.1840  144.6820 C   0  0  0  0  0  0  0  0  0  0  0  0
  193.3070  175.9710  143.6430 N   0  0  0  0  0  2  0  0  0  0  0  0
  193.1260  174.0090  144.8900 O   0  0  0  0  0  0  0  0  0  0  0  0
  191.6260  175.7440  145.4890 C   0  0  0  0  0  0  0  0  0  0  0  0
  189.9840  177.4390  145.9220 C   0  0  0  0  0  3  0  0  0  0  0  0
  190.2110  175.6000  147.3840 C   0  0  0  0  0  3  0  0  0  0  0  0
  189.6060  176.7640  147.0370 N   0  0  0  0  0  0  0  0  0  0  0  0
  191.2130  175.1000  146.6140 N   0  0  0  0  0  0  0  0  0  0  0  0
  191.0070  176.9390  145.1200 C   0  0  0  0  0  3  0  0  0  0  0  0
  195.7050  176.1930  143.2650 C   0  0  0  0  0  2  0  0  0  0  0  0
  196.3130  174.8290  145.1320 O   0  0  0  0  0  1  0  0  0  0  0  0
  196.7060  175.2070  143.8450 C   0  0  0  0  0  2  0  0  0  0  0  0
  1  5  1  0  0  0  0
  1  4  1  0  0  0  0
  2 10  1  0  0  0  0
  3  7  1  6  0  0  0
  3  6  1  0  0  0  0
  6  8  1  0  0  0  0
  7  1  2  0  0  0  0
  8  4  2  0  0  0  0
 10  6  2  0  0  0  0
 10  9  1  0  0  0  0
 11 14  2  0  0  0  0
 11  2  1  0  0  0  0
 12 15  1  1  0  0  0
 12  2  1  0  0  0  0
 12 13  1  0  0  0  0
 13 24  1  1  0  0  0
 13  9  1  0  0  0  0
 14  3  1  0  0  0  0
 16 15  1  0  0  0  0
 17 20  1  0  0  0  0
 18 23  2  0  0  0  0
 18 19  1  0  0  0  0
 19 17  2  0  0  0  0
 21 16  1  0  0  0  0
 21 20  2  0  0  0  0
 22 19  1  0  0  0  0
 23 21  1  0  0  0  0
 25 27  1  0  0  0  0
 25 24  1  0  0  0  0
 25 26  1  0  0  0  0
 28 30  1  0  0  0  0
 28 27  1  0  0  0  0
 29 28  2  0  0  0  0
 31 30  1  6  0  0  0
 31 41  1  0  0  0  0
 31 33  1  0  0  0  0
 32 34  2  0  0  0  0
 32 35  1  0  0  0  0
 33 32  1  0  0  0  0
 35 39  1  0  0  0  0
 36 38  2  0  0  0  0
 38 37  1  0  0  0  0
 39 37  2  0  0  0  0
 40 35  2  0  0  0  0
 40 36  1  0  0  0  0
 41 43  1  0  0  0  0
 43 42  1  0  0  0  0
M  END
>  <MODEL>
5

>  <REMARK>
 VINA RESULT:      -6.3      3.172      6.644
  Name = 
  13 active torsions:
  status: ('A' for Active; 'I' for Inactive)
    1  A    between atoms: C_1  and  N_28
    2  A    between atoms: C_1  and  C_34
    3  A    between atoms: N_2  and  C_6
    4  A    between atoms: N_2  and  O_13
    5  A    between atoms: C_3  and  C_4
    6  A    between atoms: C_3  and  C_12
    7  A    between atoms: C_4  and  C_15
    8  A    between atoms: C_4  and  N_22
    9  A    between atoms: C_6  and  C_12
   10  A    between atoms: C_11  and  C_14
   11  A    between atoms: O_13  and  C_38
   12  A    between atoms: C_15  and  C_42
   13  A    between atoms: N_28  and  C_35
                            x       y       z     vdW  Elec       q    Type
                         _______ _______ _______ _____ _____    ______ ____

>  <TORSDO>
F 13

$$$$
=
 OpenBabel11052421043D

 43 47  0  0  1  0  0  0  0  0999 V2000
  185.1450  177.9270  145.9920 C   0  0  0  0  0  0  0  0  0  0  0  0
  189.5810  175.8280  145.0030 N   0  0  0  0  0  0  0  0  0  0  0  0
  187.2590  176.7100  146.1650 C   0  0  0  0  0  0  0  0  0  0  0  0
  185.3280  178.2340  144.7020 C   0  0  0  0  0  3  0  0  0  0  0  0
  183.9130  178.3880  146.6830 C   0  0  0  0  0  1  0  0  0  0  0  0
  187.5270  177.0180  144.7370 C   0  0  0  0  0  0  0  0  0  0  0  0
  186.1390  177.1410  146.7430 C   0  0  0  0  0  3  0  0  0  0  0  0
  186.5430  177.8130  143.9160 C   0  0  0  0  0  2  0  0  0  0  0  0
  189.1490  176.7450  142.8370 C   0  0  0  0  0  2  0  0  0  0  0  0
  188.6700  176.5650  144.2180 C   0  0  0  0  0  0  0  0  0  0  0  0
  189.3180  175.5250  146.3790 C   0  0  0  0  0  3  0  0  0  0  0  0
  190.7500  175.4520  144.2380 C   0  0  1  0  0  3  0  0  0  0  0  0
  190.4800  175.9710  142.8130 C   0  0  1  0  0  3  0  0  0  0  0  0
  188.2140  175.9460  146.9250 N   0  0  0  0  0  0  0  0  0  0  0  0
  191.9780  176.1440  144.8070 C   0  0  0  0  0  2  0  0  0  0  0  0
  192.5110  175.3700  145.9150 N   0  0  0  0  0  2  0  0  0  0  0  0
  196.1020  174.3120  145.9280 C   0  0  0  0  0  3  0  0  0  0  0  0
  194.7140  172.4370  145.2860 C   0  0  0  0  0  3  0  0  0  0  0  0
  195.9780  172.9760  145.5390 C   0  0  0  0  0  0  0  0  0  0  0  0
  194.9610  175.1090  146.0610 C   0  0  0  0  0  3  0  0  0  0  0  0
  193.6910  174.5710  145.8070 C   0  0  0  0  0  0  0  0  0  0  0  0
  197.0830  172.2060  145.4060 F   0  0  0  0  0  0  0  0  0  0  0  0
  193.5740  173.2320  145.4170 C   0  0  0  0  0  3  0  0  0  0  0  0
  190.3690  174.8810  141.9200 O   0  0  0  0  0  0  0  0  0  0  0  0
  189.0550  174.4970  141.7910 N   0  0  0  0  0  0  0  0  0  0  0  0
  188.8430  173.1300  142.2650 C   0  0  0  0  0  1  0  0  0  0  0  0
  188.5800  174.6230  140.4110 C   0  0  0  0  0  2  0  0  0  0  0  0
  189.0010  173.4380  139.6130 C   0  0  0  0  0  0  0  0  0  0  0  0
  188.2520  172.4850  139.5150 O   0  0  0  0  0  0  0  0  0  0  0  0
  190.3420  173.3990  138.9490 C   0  0  0  0  0  2  0  0  0  0  0  0
  191.3240  172.4380  139.6300 C   0  0  2  0  0  3  0  0  0  0  0  0
  193.0580  173.0030  141.3770 C   0  0  0  0  0  0  0  0  0  0  0  0
  192.5180  173.1480  140.0630 N   0  0  0  0  0  2  0  0  0  0  0  0
  192.4650  172.2870  142.2290 O   0  0  0  0  0  0  0  0  0  0  0  0
  194.2940  173.7130  141.7390 C   0  0  0  0  0  0  0  0  0  0  0  0
  196.6760  173.7820  142.0160 C   0  0  0  0  0  3  0  0  0  0  0  0
  195.3630  175.6760  142.5230 C   0  0  0  0  0  3  0  0  0  0  0  0
  196.5720  175.0650  142.4460 N   0  0  0  0  0  0  0  0  0  0  0  0
  194.2370  175.0010  142.1740 N   0  0  0  0  0  0  0  0  0  0  0  0
  195.5330  173.0760  141.6510 C   0  0  0  0  0  3  0  0  0  0  0  0
  191.7110  171.2750  138.7250 C   0  0  0  0  0  2  0  0  0  0  0  0
  190.6210  170.0590  140.4710 O   0  0  0  0  0  1  0  0  0  0  0  0
  191.5600  169.9440  139.4430 C   0  0  0  0  0  2  0  0  0  0  0  0
  1  5  1  0  0  0  0
  1  7  1  0  0  0  0
  2 11  1  0  0  0  0
  3  7  2  0  0  0  0
  3 14  1  0  0  0  0
  4  1  2  0  0  0  0
  6  3  1  0  0  0  0
  8  4  1  0  0  0  0
  8  6  1  0  0  0  0
  9 10  1  0  0  0  0
 10  6  2  0  0  0  0
 10  2  1  0  0  0  0
 11 14  2  0  0  0  0
 12 15  1  1  0  0  0
 12  2  1  0  0  0  0
 13 24  1  6  0  0  0
 13  9  1  0  0  0  0
 13 12  1  0  0  0  0
 15 16  1  0  0  0  0
 17 20  1  0  0  0  0
 18 23  2  0  0  0  0
 18 19  1  0  0  0  0
 19 17  2  0  0  0  0
 21 16  1  0  0  0  0
 21 20  2  0  0  0  0
 22 19  1  0  0  0  0
 23 21  1  0  0  0  0
 25 24  1  0  0  0  0
 25 26  1  0  0  0  0
 27 25  1  0  0  0  0
 28 27  1  0  0  0  0
 29 28  2  0  0  0  0
 30 28  1  0  0  0  0
 30 31  1  0  0  0  0
 31 41  1  6  0  0  0
 31 33  1  0  0  0  0
 32 35  1  0  0  0  0
 32 34  2  0  0  0  0
 33 32  1  0  0  0  0
 35 39  1  0  0  0  0
 36 38  2  0  0  0  0
 38 37  1  0  0  0  0
 39 37  2  0  0  0  0
 40 35  2  0  0  0  0
 40 36  1  0  0  0  0
 41 43  1  0  0  0  0
 43 42  1  0  0  0  0
M  END
>  <MODEL>
6

>  <REMARK>
 VINA RESULT:      -6.3      2.075      4.770
  Name = 
  13 active torsions:
  status: ('A' for Active; 'I' for Inactive)
    1  A    between atoms: C_1  and  N_28
    2  A    between atoms: C_1  and  C_34
    3  A    between atoms: N_2  and  C_6
    4  A    between atoms: N_2  and  O_13
    5  A    between atoms: C_3  and  C_4
    6  A    between atoms: C_3  and  C_12
    7  A    between atoms: C_4  and  C_15
    8  A    between atoms: C_4  and  N_22
    9  A    between atoms: C_6  and  C_12
   10  A    between atoms: C_11  and  C_14
   11  A    between atoms: O_13  and  C_38
   12  A    between atoms: C_15  and  C_42
   13  A    between atoms: N_28  and  C_35
                            x       y       z     vdW  Elec       q    Type
                         _______ _______ _______ _____ _____    ______ ____

>  <TORSDO>
F 13

$$$$
=
 OpenBabel11052421043D

 43 47  0  0  1  0  0  0  0  0999 V2000
  185.2740  177.6830  145.9990 C   0  0  0  0  0  0  0  0  0  0  0  0
  188.5030  175.6720  142.7440 N   0  0  0  0  0  0  0  0  0  0  0  0
  186.3470  176.8440  143.9680 C   0  0  2  0  0  3  0  0  0  0  0  0
  186.3220  177.3860  146.7790 C   0  0  0  0  0  3  0  0  0  0  0  0
  184.0700  178.3070  146.6050 C   0  0  0  0  0  1  0  0  0  0  0  0
  187.5420  176.4850  144.7740 C   0  0  0  0  0  0  0  0  0  0  0  0
  185.2900  177.4050  144.5530 C   0  0  0  0  0  3  0  0  0  0  0  0
  187.5860  176.7520  146.2580 C   0  0  0  0  0  3  0  0  0  0  0  0
  189.8440  175.4800  144.7150 C   0  0  0  0  0  2  0  0  0  0  0  0
  188.5650  175.9190  144.1310 C   0  0  0  0  0  0  0  0  0  0  0  0
  187.3530  176.0250  141.9660 C   0  0  0  0  0  3  0  0  0  0  0  0
  189.7150  175.0440  142.2670 C   0  0  1  0  0  3  0  0  0  0  0  0
  190.6350  174.9610  143.5000 C   0  0  1  0  0  3  0  0  0  0  0  0
  186.3320  176.5810  142.5530 N   0  0  0  0  0  0  0  0  0  0  0  0
  189.4050  173.6420  141.7700 C   0  0  0  0  0  2  0  0  0  0  0  0
  190.6100  173.0280  141.2390 N   0  0  0  0  0  2  0  0  0  0  0  0
  191.8980  172.5180  137.7610 C   0  0  0  0  0  3  0  0  0  0  0  0
  189.7830  171.3680  138.0110 C   0  0  0  0  0  3  0  0  0  0  0  0
  190.8780  171.7300  137.2220 C   0  0  0  0  0  0  0  0  0  0  0  0
  191.8210  172.9460  139.0900 C   0  0  0  0  0  3  0  0  0  0  0  0
  190.7220  172.5860  139.8850 C   0  0  0  0  0  0  0  0  0  0  0  0
  190.9510  171.3190  135.9340 F   0  0  0  0  0  0  0  0  0  0  0  0
  189.7040  171.7970  139.3370 C   0  0  0  0  0  3  0  0  0  0  0  0
  191.7740  175.7760  143.3030 O   0  0  0  0  0  0  0  0  0  0  0  0
  191.7830  176.8150  144.2040 N   0  0  0  0  0  0  0  0  0  0  0  0
  191.4030  178.0780  143.5740 C   0  0  0  0  0  1  0  0  0  0  0  0
  193.0840  176.9590  144.8600 C   0  0  0  0  0  2  0  0  0  0  0  0
  193.2160  175.9680  145.9650 C   0  0  0  0  0  0  0  0  0  0  0  0
  192.7230  176.2120  147.0500 O   0  0  0  0  0  0  0  0  0  0  0  0
  193.9640  174.6880  145.7600 C   0  0  0  0  0  2  0  0  0  0  0  0
  195.4000  174.9010  145.2700 C   0  0  2  0  0  3  0  0  0  0  0  0
  196.0730  175.7210  142.9770 C   0  0  0  0  0  0  0  0  0  0  0  0
  195.4790  174.7380  143.8260 N   0  0  0  0  0  2  0  0  0  0  0  0
  196.5000  176.8030  143.4640 O   0  0  0  0  0  0  0  0  0  0  0  0
  196.1620  175.4750  141.5300 C   0  0  0  0  0  0  0  0  0  0  0  0
  195.2650  174.5970  139.4850 C   0  0  0  0  0  3  0  0  0  0  0  0
  197.3750  175.6540  139.5030 C   0  0  0  0  0  3  0  0  0  0  0  0
  196.3810  175.0140  138.8360 N   0  0  0  0  0  0  0  0  0  0  0  0
  197.2620  175.8780  140.8380 N   0  0  0  0  0  0  0  0  0  0  0  0
  195.1320  174.8200  140.8530 C   0  0  0  0  0  3  0  0  0  0  0  0
  196.3870  173.9630  145.9520 C   0  0  0  0  0  2  0  0  0  0  0  0
  197.1360  171.6930  145.9170 O   0  0  0  0  0  1  0  0  0  0  0  0
  196.6410  172.7230  145.1120 C   0  0  0  0  0  2  0  0  0  0  0  0
  1  5  1  0  0  0  0
  1  4  1  0  0  0  0
  2 10  1  0  0  0  0
  3  7  1  1  0  0  0
  3  6  1  0  0  0  0
  6  8  1  0  0  0  0
  7  1  2  0  0  0  0
  8  4  2  0  0  0  0
 10  9  1  0  0  0  0
 10  6  2  0  0  0  0
 11 14  2  0  0  0  0
 11  2  1  0  0  0  0
 12 15  1  1  0  0  0
 12  2  1  0  0  0  0
 12 13  1  0  0  0  0
 13 24  1  6  0  0  0
 13  9  1  0  0  0  0
 14  3  1  0  0  0  0
 16 15  1  0  0  0  0
 17 20  1  0  0  0  0
 18 23  2  0  0  0  0
 19 17  2  0  0  0  0
 19 18  1  0  0  0  0
 20 21  2  0  0  0  0
 21 16  1  0  0  0  0
 22 19  1  0  0  0  0
 23 21  1  0  0  0  0
 24 25  1  0  0  0  0
 25 27  1  0  0  0  0
 26 25  1  0  0  0  0
 27 28  1  0  0  0  0
 28 29  2  0  0  0  0
 30 28  1  0  0  0  0
 31 30  1  1  0  0  0
 31 41  1  0  0  0  0
 32 34  2  0  0  0  0
 32 33  1  0  0  0  0
 33 31  1  0  0  0  0
 35 32  1  0  0  0  0
 36 40  2  0  0  0  0
 37 39  1  0  0  0  0
 38 36  1  0  0  0  0
 38 37  2  0  0  0  0
 39 35  2  0  0  0  0
 40 35  1  0  0  0  0
 43 42  1  0  0  0  0
 43 41  1  0  0  0  0
M  END
>  <MODEL>
7

>  <REMARK>
 VINA RESULT:      -6.2      3.062      6.915
  Name = 
  13 active torsions:
  status: ('A' for Active; 'I' for Inactive)
    1  A    between atoms: C_1  and  N_28
    2  A    between atoms: C_1  and  C_34
    3  A    between atoms: N_2  and  C_6
    4  A    between atoms: N_2  and  O_13
    5  A    between atoms: C_3  and  C_4
    6  A    between atoms: C_3  and  C_12
    7  A    between atoms: C_4  and  C_15
    8  A    between atoms: C_4  and  N_22
    9  A    between atoms: C_6  and  C_12
   10  A    between atoms: C_11  and  C_14
   11  A    between atoms: O_13  and  C_38
   12  A    between atoms: C_15  and  C_42
   13  A    between atoms: N_28  and  C_35
                            x       y       z     vdW  Elec       q    Type
                         _______ _______ _______ _____ _____    ______ ____

>  <TORSDO>
F 13

$$$$
=
 OpenBabel11052421043D

 43 47  0  0  1  0  0  0  0  0999 V2000
  185.4100  178.3350  144.2170 C   0  0  0  0  0  0  0  0  0  0  0  0
  189.7680  175.8990  143.8480 N   0  0  0  0  0  0  0  0  0  0  0  0
  187.6860  177.5210  144.5900 C   0  0  0  0  0  0  0  0  0  0  0  0
  185.2090  177.5430  143.1560 C   0  0  0  0  0  3  0  0  0  0  0  0
  184.3260  179.2480  144.6600 C   0  0  0  0  0  1  0  0  0  0  0  0
  187.5320  176.6190  143.4210 C   0  0  0  0  0  0  0  0  0  0  0  0
  186.6850  178.3210  144.9550 C   0  0  0  0  0  3  0  0  0  0  0  0
  186.2480  176.5850  142.6310 C   0  0  0  0  0  2  0  0  0  0  0  0
  188.6540  174.8830  141.9930 C   0  0  0  0  0  2  0  0  0  0  0  0
  188.5730  175.8480  143.1020 C   0  0  0  0  0  0  0  0  0  0  0  0
  189.9150  176.7650  144.9810 C   0  0  0  0  0  3  0  0  0  0  0  0
  190.7600  174.9900  143.3160 C   0  0  1  0  0  3  0  0  0  0  0  0
  190.0550  174.2650  142.1530 C   0  0  1  0  0  3  0  0  0  0  0  0
  188.9220  177.5320  145.3280 N   0  0  0  0  0  0  0  0  0  0  0  0
  191.9430  175.7780  142.7810 C   0  0  0  0  0  2  0  0  0  0  0  0
  192.5510  175.0650  141.6700 N   0  0  0  0  0  2  0  0  0  0  0  0
  195.9810  176.5300  141.3600 C   0  0  0  0  0  3  0  0  0  0  0  0
  195.7480  174.6940  139.8010 C   0  0  0  0  0  3  0  0  0  0  0  0
  196.5180  175.7190  140.3570 C   0  0  0  0  0  0  0  0  0  0  0  0
  194.6730  176.3170  141.8050 C   0  0  0  0  0  3  0  0  0  0  0  0
  193.8970  175.2900  141.2480 C   0  0  0  0  0  0  0  0  0  0  0  0
  197.7830  175.9290  139.9230 F   0  0  0  0  0  0  0  0  0  0  0  0
  194.4410  174.4810  140.2430 C   0  0  0  0  0  3  0  0  0  0  0  0
  189.9270  172.8900  142.4530 O   0  0  0  0  0  0  0  0  0  0  0  0
  190.7430  172.1420  141.6380 N   0  0  0  0  0  0  0  0  0  0  0  0
  190.1310  171.9070  140.3310 C   0  0  0  0  0  1  0  0  0  0  0  0
  191.1080  170.8640  142.2520 C   0  0  0  0  0  2  0  0  0  0  0  0
  192.3560  170.3330  141.6340 C   0  0  0  0  0  0  0  0  0  0  0  0
  192.3580  169.2170  141.1520 O   0  0  0  0  0  0  0  0  0  0  0  0
  193.6100  171.1510  141.6190 C   0  0  0  0  0  2  0  0  0  0  0  0
  194.2910  171.2340  142.9890 C   0  0  2  0  0  3  0  0  0  0  0  0
  194.1270  172.7910  144.9720 C   0  0  0  0  0  0  0  0  0  0  0  0
  194.1300  172.5620  143.5620 N   0  0  0  0  0  2  0  0  0  0  0  0
  194.2080  171.8190  145.7710 O   0  0  0  0  0  0  0  0  0  0  0  0
  194.0050  174.1630  145.4860 C   0  0  0  0  0  0  0  0  0  0  0  0
  194.8410  176.3980  145.7370 C   0  0  0  0  0  3  0  0  0  0  0  0
  192.7970  175.7730  146.7360 C   0  0  0  0  0  3  0  0  0  0  0  0
  193.7520  176.7040  146.4860 N   0  0  0  0  0  0  0  0  0  0  0  0
  192.9290  174.5150  146.2400 N   0  0  0  0  0  0  0  0  0  0  0  0
  194.9910  175.1150  145.2180 C   0  0  0  0  0  3  0  0  0  0  0  0
  195.7700  170.8760  142.9200 C   0  0  0  0  0  2  0  0  0  0  0  0
  197.0870  171.6170  141.0680 O   0  0  0  0  0  1  0  0  0  0  0  0
  196.5840  172.0060  142.3120 C   0  0  0  0  0  2  0  0  0  0  0  0
  1  5  1  0  0  0  0
  1  7  1  0  0  0  0
  2 11  1  0  0  0  0
  3  7  2  0  0  0  0
  3 14  1  0  0  0  0
  4  1  2  0  0  0  0
  6  3  1  0  0  0  0
  8  4  1  0  0  0  0
  8  6  1  0  0  0  0
  9 13  1  0  0  0  0
  9 10  1  0  0  0  0
 10  6  2  0  0  0  0
 10  2  1  0  0  0  0
 11 14  2  0  0  0  0
 12 15  1  6  0  0  0
 12  2  1  0  0  0  0
 13 24  1  1  0  0  0
 13 12  1  0  0  0  0
 16 15  1  0  0  0  0
 17 20  1  0  0  0  0
 18 23  2  0  0  0  0
 18 19  1  0  0  0  0
 19 17  2  0  0  0  0
 21 16  1  0  0  0  0
 21 20  2  0  0  0  0
 22 19  1  0  0  0  0
 23 21  1  0  0  0  0
 25 27  1  0  0  0  0
 25 24  1  0  0  0  0
 26 25  1  0  0  0  0
 28 27  1  0  0  0  0
 29 28  2  0  0  0  0
 30 28  1  0  0  0  0
 31 30  1  6  0  0  0
 31 33  1  0  0  0  0
 32 35  1  0  0  0  0
 32 34  2  0  0  0  0
 33 32  1  0  0  0  0
 35 39  1  0  0  0  0
 36 38  2  0  0  0  0
 38 37  1  0  0  0  0
 39 37  2  0  0  0  0
 40 35  2  0  0  0  0
 40 36  1  0  0  0  0
 41 31  1  0  0  0  0
 42 43  1  0  0  0  0
 43 41  1  0  0  0  0
M  END
>  <MODEL>
8

>  <REMARK>
 VINA RESULT:      -6.2      2.630      5.548
  Name = 
  13 active torsions:
  status: ('A' for Active; 'I' for Inactive)
    1  A    between atoms: C_1  and  N_28
    2  A    between atoms: C_1  and  C_34
    3  A    between atoms: N_2  and  C_6
    4  A    between atoms: N_2  and  O_13
    5  A    between atoms: C_3  and  C_4
    6  A    between atoms: C_3  and  C_12
    7  A    between atoms: C_4  and  C_15
    8  A    between atoms: C_4  and  N_22
    9  A    between atoms: C_6  and  C_12
   10  A    between atoms: C_11  and  C_14
   11  A    between atoms: O_13  and  C_38
   12  A    between atoms: C_15  and  C_42
   13  A    between atoms: N_28  and  C_35
                            x       y       z     vdW  Elec       q    Type
                         _______ _______ _______ _____ _____    ______ ____

>  <TORSDO>
F 13

$$$$
=
 OpenBabel11052421043D

 43 47  0  0  1  0  0  0  0  0999 V2000
  185.4240  178.0000  146.1410 C   0  0  0  0  0  0  0  0  0  0  0  0
  188.8370  175.3250  143.6390 N   0  0  0  0  0  0  0  0  0  0  0  0
  187.3120  176.5600  145.5540 C   0  0  0  0  0  0  0  0  0  0  0  0
  185.0570  178.1840  144.8670 C   0  0  0  0  0  3  0  0  0  0  0  0
  184.6470  178.6540  147.2240 C   0  0  0  0  0  1  0  0  0  0  0  0
  186.9620  176.7240  144.1200 C   0  0  0  0  0  0  0  0  0  0  0  0
  186.5830  177.1620  146.4930 C   0  0  0  0  0  3  0  0  0  0  0  0
  185.7830  177.5650  143.7000 C   0  0  0  0  0  2  0  0  0  0  0  0
  187.5860  176.1180  141.7620 C   0  0  0  0  0  2  0  0  0  0  0  0
  187.7340  176.1020  143.2270 C   0  0  0  0  0  0  0  0  0  0  0  0
  189.1700  175.1620  145.0230 C   0  0  0  0  0  3  0  0  0  0  0  0
  189.5330  174.7580  142.5050 C   0  0  1  0  0  3  0  0  0  0  0  0
  188.7160  175.1940  141.2740 C   0  0  1  0  0  3  0  0  0  0  0  0
  188.4410  175.7500  145.9280 N   0  0  0  0  0  0  0  0  0  0  0  0
  190.9330  175.3410  142.4180 C   0  0  0  0  0  2  0  0  0  0  0  0
  191.8030  174.6840  143.3790 N   0  0  0  0  0  2  0  0  0  0  0  0
  193.6910  177.4030  145.1260 C   0  0  0  0  0  3  0  0  0  0  0  0
  193.6690  175.4210  146.5140 C   0  0  0  0  0  3  0  0  0  0  0  0
  194.0560  176.7470  146.3040 C   0  0  0  0  0  0  0  0  0  0  0  0
  192.9410  176.7310  144.1570 C   0  0  0  0  0  3  0  0  0  0  0  0
  192.5520  175.3990  144.3630 C   0  0  0  0  0  0  0  0  0  0  0  0
  194.7870  177.3960  147.2410 F   0  0  0  0  0  0  0  0  0  0  0  0
  192.9220  174.7480  145.5460 C   0  0  0  0  0  3  0  0  0  0  0  0
  188.1520  174.0590  140.6470 O   0  0  0  0  0  0  0  0  0  0  0  0
  188.8820  173.7130  139.5340 N   0  0  0  0  0  0  0  0  0  0  0  0
  188.2000  174.1020  138.3000 C   0  0  0  0  0  1  0  0  0  0  0  0
  189.1870  172.2810  139.5030 C   0  0  0  0  0  2  0  0  0  0  0  0
  190.6520  172.0650  139.6740 C   0  0  0  0  0  0  0  0  0  0  0  0
  191.0650  170.9530  139.9410 O   0  0  0  0  0  0  0  0  0  0  0  0
  191.6150  173.2030  139.5430 C   0  0  0  0  0  2  0  0  0  0  0  0
  193.0710  172.7920  139.7830 C   0  0  2  0  0  3  0  0  0  0  0  0
  194.8630  173.4780  141.4250 C   0  0  0  0  0  0  0  0  0  0  0  0
  193.7640  173.7990  140.5720 N   0  0  0  0  0  2  0  0  0  0  0  0
  195.2290  172.2790  141.5620 O   0  0  0  0  0  0  0  0  0  0  0  0
  195.5510  174.5500  142.1610 C   0  0  0  0  0  0  0  0  0  0  0  0
  196.6720  175.3770  144.1140 C   0  0  0  0  0  3  0  0  0  0  0  0
  196.3310  176.7850  142.2510 C   0  0  0  0  0  3  0  0  0  0  0  0
  196.8060  176.5830  143.5070 N   0  0  0  0  0  0  0  0  0  0  0  0
  195.7090  175.7750  141.5900 N   0  0  0  0  0  0  0  0  0  0  0  0
  196.0390  174.3290  143.4500 C   0  0  0  0  0  3  0  0  0  0  0  0
  193.8220  172.5460  138.4810 C   0  0  0  0  0  2  0  0  0  0  0  0
  194.8320  174.4250  137.4010 O   0  0  0  0  0  1  0  0  0  0  0  0
  193.6400  173.7020  137.5120 C   0  0  0  0  0  2  0  0  0  0  0  0
  1  7  1  0  0  0  0
  1  5  1  0  0  0  0
  2 11  1  0  0  0  0
  3 14  1  0  0  0  0
  3  7  2  0  0  0  0
  4  1  2  0  0  0  0
  6  3  1  0  0  0  0
  8  6  1  0  0  0  0
  8  4  1  0  0  0  0
  9 10  1  0  0  0  0
 10  2  1  0  0  0  0
 10  6  2  0  0  0  0
 11 14  2  0  0  0  0
 12 15  1  6  0  0  0
 12  2  1  0  0  0  0
 13 24  1  1  0  0  0
 13  9  1  0  0  0  0
 13 12  1  0  0  0  0
 15 16  1  0  0  0  0
 16 21  1  0  0  0  0
 17 19  1  0  0  0  0
 19 18  2  0  0  0  0
 19 22  1  0  0  0  0
 20 21  1  0  0  0  0
 20 17  2  0  0  0  0
 21 23  2  0  0  0  0
 23 18  1  0  0  0  0
 25 24  1  0  0  0  0
 26 25  1  0  0  0  0
 27 25  1  0  0  0  0
 27 28  1  0  0  0  0
 28 29  2  0  0  0  0
 30 28  1  0  0  0  0
 30 31  1  0  0  0  0
 31 41  1  6  0  0  0
 31 33  1  0  0  0  0
 32 34  2  0  0  0  0
 32 35  1  0  0  0  0
 33 32  1  0  0  0  0
 35 40  1  0  0  0  0
 37 38  2  0  0  0  0
 38 36  1  0  0  0  0
 39 35  2  0  0  0  0
 39 37  1  0  0  0  0
 40 36  2  0  0  0  0
 42 43  1  0  0  0  0
 43 41  1  0  0  0  0
M  END
>  <MODEL>
9

>  <REMARK>
 VINA RESULT:      -6.2      2.492      5.794
  Name = 
  13 active torsions:
  status: ('A' for Active; 'I' for Inactive)
    1  A    between atoms: C_1  and  N_28
    2  A    between atoms: C_1  and  C_34
    3  A    between atoms: N_2  and  C_6
    4  A    between atoms: N_2  and  O_13
    5  A    between atoms: C_3  and  C_4
    6  A    between atoms: C_3  and  C_12
    7  A    between atoms: C_4  and  C_15
    8  A    between atoms: C_4  and  N_22
    9  A    between atoms: C_6  and  C_12
   10  A    between atoms: C_11  and  C_14
   11  A    between atoms: O_13  and  C_38
   12  A    between atoms: C_15  and  C_42
   13  A    between atoms: N_28  and  C_35
                            x       y       z     vdW  Elec       q    Type
                         _______ _______ _______ _____ _____    ______ ____

>  <TORSDO>
F 13

$$$$
