=
 OpenBabel11052417383D

 25 25  0  0  1  0  0  0  0  0999 V2000
  188.3130  175.8560  143.5330 C   0  0  0  0  0  0  0  0  0  0  0  0
  187.1480  176.4490  143.8440 C   0  0  0  0  0  3  0  0  0  0  0  0
  189.5300  174.7890  145.4710 C   0  0  0  0  0  2  0  0  0  0  0  0
  189.3370  177.2800  145.2560 C   0  0  0  0  0  3  0  0  0  0  0  0
  191.2060  176.5240  148.3380 O   0  0  0  0  0  1  0  0  0  0  0  0
  190.4780  176.2990  147.1770 C   0  0  0  0  0  0  0  0  0  0  0  0
  189.8230  177.4270  146.4930 C   0  0  0  0  0  3  0  0  0  0  0  0
  189.5000  175.9860  144.4880 C   0  0  2  0  0  0  0  0  0  0  0  0
  190.3830  175.0630  146.6820 C   0  0  0  0  0  3  0  0  0  0  0  0
  190.8580  176.0570  143.7550 C   0  0  0  0  0  2  0  0  0  0  0  0
  191.0990  177.3940  143.0640 C   0  0  0  0  0  1  0  0  0  0  0  0
  188.6080  175.4410  141.1930 O   0  0  0  0  0  0  0  0  0  0  0  0
  188.4150  174.9620  142.3450 C   0  0  0  0  0  0  0  0  0  0  0  0
  188.3020  173.5790  142.5090 O   0  0  0  0  0  0  0  0  0  0  0  0
  189.4100  172.7080  142.3370 C   0  0  0  0  0  1  0  0  0  0  0  0
  185.9970  176.3180  143.0720 O   0  0  0  0  0  0  0  0  0  0  0  0
  185.4090  177.4510  142.4530 C   0  0  0  0  0  2  0  0  0  0  0  0
  185.3280  179.3990  144.0060 C   0  0  0  0  0  3  0  0  0  0  0  0
  185.9600  178.7110  143.0470 C   0  0  0  0  0  3  0  0  0  0  0  0
  184.0040  178.9920  144.5770 C   0  0  0  0  0  2  0  0  0  0  0  0
  184.1220  178.7680  146.0730 C   0  0  0  0  0  2  0  0  0  0  0  0
  184.7140  177.4000  146.3320 C   0  0  0  0  0  2  0  0  0  0  0  0
  185.8820  177.5310  147.2870 C   0  0  0  0  0  2  0  0  0  0  0  0
  186.3770  178.8340  147.2410 O   0  0  0  0  0  0  0  0  0  0  0  0
  187.0450  178.9970  148.4540 C   0  0  0  0  0  1  0  0  0  0  0  0
  1  2  2  0  0  0  0
  1  8  1  0  0  0  0
  3  9  1  0  0  0  0
  4  7  2  0  0  0  0
  6  5  1  0  0  0  0
  7  6  1  0  0  0  0
  8 10  1  6  0  0  0
  8  4  1  0  0  0  0
  8  3  1  0  0  0  0
  9  6  2  0  0  0  0
 11 10  1  0  0  0  0
 12 13  2  0  0  0  0
 13 14  1  0  0  0  0
 13  1  1  0  0  0  0
 15 14  1  0  0  0  0
 16  2  1  0  0  0  0
 17 19  1  0  0  0  0
 17 16  1  0  0  0  0
 18 20  1  0  0  0  0
 19 18  2  0  0  0  0
 20 21  1  0  0  0  0
 21 22  1  0  0  0  0
 22 23  1  0  0  0  0
 24 23  1  0  0  0  0
 24 25  1  0  0  0  0
M  END
>  <MODEL>
1

>  <REMARK>
 VINA RESULT:      -5.6      0.000      0.000
  Name = 
  12 active torsions:
  status: ('A' for Active; 'I' for Inactive)
    1  A    between atoms: C_1  and  C_18
    2  A    between atoms: C_1  and  C_24
    3  A    between atoms: C_2  and  O_7
    4  A    between atoms: C_2  and  C_25
    5  A    between atoms: C_3  and  O_16
    6  A    between atoms: C_6  and  C_15
    7  A    between atoms: C_6  and  C_21
    8  A    between atoms: O_13  and  C_24
    9  A    between atoms: O_16  and  C_23
   10  A    between atoms: C_17  and  C_18
   11  A    between atoms: C_20  and  C_23
   12  A    between atoms: C_21  and  C_25
                            x       y       z     vdW  Elec       q    Type
                         _______ _______ _______ _____ _____    ______ ____

>  <TORSDO>
F 12

$$$$
=
 OpenBabel11052417383D

 25 25  0  0  1  0  0  0  0  0999 V2000
  188.7830  175.8880  145.8010 C   0  0  0  0  0  0  0  0  0  0  0  0
  187.7710  176.7560  145.9620 C   0  0  0  0  0  3  0  0  0  0  0  0
  188.3990  176.1890  143.3230 C   0  0  0  0  0  2  0  0  0  0  0  0
  189.6380  174.2050  144.2250 C   0  0  0  0  0  3  0  0  0  0  0  0
  189.4680  173.8970  140.5590 O   0  0  0  0  0  1  0  0  0  0  0  0
  189.2470  174.4200  141.8260 C   0  0  0  0  0  0  0  0  0  0  0  0
  189.6050  173.6320  143.0170 C   0  0  0  0  0  3  0  0  0  0  0  0
  189.3830  175.6850  144.4080 C   0  0  2  0  0  0  0  0  0  0  0  0
  188.7200  175.6400  141.9580 C   0  0  0  0  0  3  0  0  0  0  0  0
  190.7340  176.4090  144.2240 C   0  0  0  0  0  2  0  0  0  0  0  0
  190.6000  177.9270  144.1720 C   0  0  0  0  0  1  0  0  0  0  0  0
  188.7830  174.3720  147.6540 O   0  0  0  0  0  0  0  0  0  0  0  0
  189.4150  175.2320  146.9800 C   0  0  0  0  0  0  0  0  0  0  0  0
  190.7220  175.5680  147.3400 O   0  0  0  0  0  0  0  0  0  0  0  0
  191.0560  176.8500  147.8530 C   0  0  0  0  0  1  0  0  0  0  0  0
  187.2180  177.0590  147.2040 O   0  0  0  0  0  0  0  0  0  0  0  0
  186.2240  178.0640  147.3270 C   0  0  0  0  0  2  0  0  0  0  0  0
  184.5120  178.2620  145.5270 C   0  0  0  0  0  3  0  0  0  0  0  0
  184.9710  177.6430  146.6210 C   0  0  0  0  0  3  0  0  0  0  0  0
  185.1890  179.4420  144.9010 C   0  0  0  0  0  2  0  0  0  0  0  0
  185.9960  179.0070  143.6920 C   0  0  0  0  0  2  0  0  0  0  0  0
  185.1700  178.0610  142.8490 C   0  0  0  0  0  2  0  0  0  0  0  0
  185.5120  178.2610  141.3870 C   0  0  0  0  0  2  0  0  0  0  0  0
  184.3400  178.4720  140.6600 O   0  0  0  0  0  0  0  0  0  0  0  0
  183.3150  178.1700  141.5550 C   0  0  0  0  0  1  0  0  0  0  0  0
  1  2  2  0  0  0  0
  1 13  1  0  0  0  0
  2 16  1  0  0  0  0
  3  8  1  0  0  0  0
  4  8  1  0  0  0  0
  5  6  1  0  0  0  0
  6  9  2  0  0  0  0
  6  7  1  0  0  0  0
  7  4  2  0  0  0  0
  8 10  1  6  0  0  0
  8  1  1  0  0  0  0
  9  3  1  0  0  0  0
 11 10  1  0  0  0  0
 13 14  1  0  0  0  0
 13 12  2  0  0  0  0
 14 15  1  0  0  0  0
 16 17  1  0  0  0  0
 18 19  2  0  0  0  0
 19 17  1  0  0  0  0
 20 18  1  0  0  0  0
 21 20  1  0  0  0  0
 22 21  1  0  0  0  0
 23 22  1  0  0  0  0
 24 23  1  0  0  0  0
 24 25  1  0  0  0  0
M  END
>  <MODEL>
2

>  <REMARK>
 VINA RESULT:      -5.5      1.540      4.767
  Name = 
  12 active torsions:
  status: ('A' for Active; 'I' for Inactive)
    1  A    between atoms: C_1  and  C_18
    2  A    between atoms: C_1  and  C_24
    3  A    between atoms: C_2  and  O_7
    4  A    between atoms: C_2  and  C_25
    5  A    between atoms: C_3  and  O_16
    6  A    between atoms: C_6  and  C_15
    7  A    between atoms: C_6  and  C_21
    8  A    between atoms: O_13  and  C_24
    9  A    between atoms: O_16  and  C_23
   10  A    between atoms: C_17  and  C_18
   11  A    between atoms: C_20  and  C_23
   12  A    between atoms: C_21  and  C_25
                            x       y       z     vdW  Elec       q    Type
                         _______ _______ _______ _____ _____    ______ ____

>  <TORSDO>
F 12

$$$$
=
 OpenBabel11052417383D

 25 25  0  0  1  0  0  0  0  0999 V2000
  189.8000  176.5920  144.7280 C   0  0  0  0  0  0  0  0  0  0  0  0
  189.1360  177.0550  145.8000 C   0  0  0  0  0  3  0  0  0  0  0  0
  191.3830  175.6260  146.4410 C   0  0  0  0  0  2  0  0  0  0  0  0
  192.2200  176.6090  144.2930 C   0  0  0  0  0  3  0  0  0  0  0  0
  195.1210  175.4590  146.2480 O   0  0  0  0  0  1  0  0  0  0  0  0
  193.7970  175.7370  145.9380 C   0  0  0  0  0  0  0  0  0  0  0  0
  193.4760  176.5420  144.7470 C   0  0  0  0  0  3  0  0  0  0  0  0
  191.1020  175.8140  144.9300 C   0  0  2  0  0  0  0  0  0  0  0  0
  192.8200  175.2650  146.7160 C   0  0  0  0  0  3  0  0  0  0  0  0
  191.0830  174.4250  144.2540 C   0  0  0  0  0  2  0  0  0  0  0  0
  190.1760  173.4250  144.9620 C   0  0  0  0  0  1  0  0  0  0  0  0
  189.4180  177.7290  142.6560 O   0  0  0  0  0  0  0  0  0  0  0  0
  189.2110  176.7050  143.3640 C   0  0  0  0  0  0  0  0  0  0  0  0
  188.4260  175.6640  142.8620 O   0  0  0  0  0  0  0  0  0  0  0  0
  188.5950  175.1620  141.5440 C   0  0  0  0  0  1  0  0  0  0  0  0
  187.9080  177.7050  145.7130 O   0  0  0  0  0  0  0  0  0  0  0  0
  187.0490  177.7820  146.8390 C   0  0  0  0  0  2  0  0  0  0  0  0
  184.6600  177.2190  146.4070 C   0  0  0  0  0  3  0  0  0  0  0  0
  185.9070  176.8240  146.6880 C   0  0  0  0  0  3  0  0  0  0  0  0
  184.2700  178.6540  146.2260 C   0  0  0  0  0  2  0  0  0  0  0  0
  184.1750  178.9920  144.7500 C   0  0  0  0  0  2  0  0  0  0  0  0
  185.4020  179.7720  144.3310 C   0  0  0  0  0  2  0  0  0  0  0  0
  185.9560  179.1860  143.0480 C   0  0  0  0  0  2  0  0  0  0  0  0
  185.6640  177.8230  142.9950 O   0  0  0  0  0  0  0  0  0  0  0  0
  185.7260  177.5060  141.6390 C   0  0  0  0  0  1  0  0  0  0  0  0
  1  8  1  0  0  0  0
  1  2  2  0  0  0  0
  3  9  1  0  0  0  0
  4  7  2  0  0  0  0
  4  8  1  0  0  0  0
  6  5  1  0  0  0  0
  6  9  2  0  0  0  0
  7  6  1  0  0  0  0
  8 10  1  6  0  0  0
  8  3  1  0  0  0  0
 10 11  1  0  0  0  0
 12 13  2  0  0  0  0
 13  1  1  0  0  0  0
 14 13  1  0  0  0  0
 15 14  1  0  0  0  0
 16  2  1  0  0  0  0
 16 17  1  0  0  0  0
 18 19  2  0  0  0  0
 19 17  1  0  0  0  0
 20 18  1  0  0  0  0
 21 20  1  0  0  0  0
 22 21  1  0  0  0  0
 23 22  1  0  0  0  0
 24 23  1  0  0  0  0
 25 24  1  0  0  0  0
M  END
>  <MODEL>
3

>  <REMARK>
 VINA RESULT:      -5.5      1.840      3.477
  Name = 
  12 active torsions:
  status: ('A' for Active; 'I' for Inactive)
    1  A    between atoms: C_1  and  C_18
    2  A    between atoms: C_1  and  C_24
    3  A    between atoms: C_2  and  O_7
    4  A    between atoms: C_2  and  C_25
    5  A    between atoms: C_3  and  O_16
    6  A    between atoms: C_6  and  C_15
    7  A    between atoms: C_6  and  C_21
    8  A    between atoms: O_13  and  C_24
    9  A    between atoms: O_16  and  C_23
   10  A    between atoms: C_17  and  C_18
   11  A    between atoms: C_20  and  C_23
   12  A    between atoms: C_21  and  C_25
                            x       y       z     vdW  Elec       q    Type
                         _______ _______ _______ _____ _____    ______ ____

>  <TORSDO>
F 12

$$$$
=
 OpenBabel11052417383D

 25 25  0  0  1  0  0  0  0  0999 V2000
  190.7950  176.0180  144.7210 C   0  0  0  0  0  0  0  0  0  0  0  0
  189.9470  177.0330  144.9590 C   0  0  0  0  0  3  0  0  0  0  0  0
  193.2180  176.6960  144.9320 C   0  0  0  0  0  2  0  0  0  0  0  0
  192.4300  174.4180  145.6220 C   0  0  0  0  0  3  0  0  0  0  0  0
  196.0620  174.6140  146.2020 O   0  0  0  0  0  1  0  0  0  0  0  0
  194.7930  175.0050  145.7980 C   0  0  0  0  0  0  0  0  0  0  0  0
  193.6990  174.0190  145.7620 C   0  0  0  0  0  3  0  0  0  0  0  0
  192.0620  175.8850  145.5680 C   0  0  2  0  0  0  0  0  0  0  0  0
  194.5670  176.2740  145.4510 C   0  0  0  0  0  3  0  0  0  0  0  0
  191.8650  176.3620  147.0240 C   0  0  0  0  0  2  0  0  0  0  0  0
  191.0910  175.3700  147.8830 C   0  0  0  0  0  1  0  0  0  0  0  0
  190.9470  174.9460  142.5860 O   0  0  0  0  0  0  0  0  0  0  0  0
  190.4440  174.9490  143.7440 C   0  0  0  0  0  0  0  0  0  0  0  0
  189.5540  173.9390  144.1140 O   0  0  0  0  0  0  0  0  0  0  0  0
  189.7170  172.5960  143.6830 C   0  0  0  0  0  1  0  0  0  0  0  0
  188.7350  177.1850  144.2900 O   0  0  0  0  0  0  0  0  0  0  0  0
  187.5300  176.6960  144.8560 C   0  0  0  0  0  2  0  0  0  0  0  0
  186.4970  176.8830  147.1160 C   0  0  0  0  0  3  0  0  0  0  0  0
  187.5890  176.7760  146.3510 C   0  0  0  0  0  3  0  0  0  0  0  0
  185.1050  176.9470  146.5640 C   0  0  0  0  0  2  0  0  0  0  0  0
  184.5580  178.3570  146.6760 C   0  0  0  0  0  2  0  0  0  0  0  0
  184.1550  178.8520  145.3030 C   0  0  0  0  0  2  0  0  0  0  0  0
  185.3440  179.5160  144.6400 C   0  0  0  0  0  2  0  0  0  0  0  0
  185.2660  179.3350  143.2590 O   0  0  0  0  0  0  0  0  0  0  0  0
  184.5320  178.1610  143.1010 C   0  0  0  0  0  1  0  0  0  0  0  0
  1  2  2  0  0  0  0
  1  8  1  0  0  0  0
  3  9  1  0  0  0  0
  3  8  1  0  0  0  0
  4  7  2  0  0  0  0
  6  5  1  0  0  0  0
  7  6  1  0  0  0  0
  8  4  1  0  0  0  0
  8 10  1  1  0  0  0
  9  6  2  0  0  0  0
 10 11  1  0  0  0  0
 12 13  2  0  0  0  0
 13 14  1  0  0  0  0
 13  1  1  0  0  0  0
 15 14  1  0  0  0  0
 16 17  1  0  0  0  0
 16  2  1  0  0  0  0
 17 19  1  0  0  0  0
 19 18  2  0  0  0  0
 20 21  1  0  0  0  0
 20 18  1  0  0  0  0
 22 21  1  0  0  0  0
 23 22  1  0  0  0  0
 24 23  1  0  0  0  0
 25 24  1  0  0  0  0
M  END
>  <MODEL>
4

>  <REMARK>
 VINA RESULT:      -5.4      2.445      3.762
  Name = 
  12 active torsions:
  status: ('A' for Active; 'I' for Inactive)
    1  A    between atoms: C_1  and  C_18
    2  A    between atoms: C_1  and  C_24
    3  A    between atoms: C_2  and  O_7
    4  A    between atoms: C_2  and  C_25
    5  A    between atoms: C_3  and  O_16
    6  A    between atoms: C_6  and  C_15
    7  A    between atoms: C_6  and  C_21
    8  A    between atoms: O_13  and  C_24
    9  A    between atoms: O_16  and  C_23
   10  A    between atoms: C_17  and  C_18
   11  A    between atoms: C_20  and  C_23
   12  A    between atoms: C_21  and  C_25
                            x       y       z     vdW  Elec       q    Type
                         _______ _______ _______ _____ _____    ______ ____

>  <TORSDO>
F 12

$$$$
=
 OpenBabel11052417383D

 25 25  0  0  1  0  0  0  0  0999 V2000
  187.3020  176.8980  142.8240 C   0  0  0  0  0  0  0  0  0  0  0  0
  187.2900  175.5580  142.7360 C   0  0  0  0  0  3  0  0  0  0  0  0
  188.0170  177.5780  145.1490 C   0  0  0  0  0  2  0  0  0  0  0  0
  185.6890  176.7760  144.6760 C   0  0  0  0  0  3  0  0  0  0  0  0
  185.9470  177.5310  148.2710 O   0  0  0  0  0  1  0  0  0  0  0  0
  186.3430  177.3710  146.9510 C   0  0  0  0  0  0  0  0  0  0  0  0
  185.4400  176.7170  145.9890 C   0  0  0  0  0  3  0  0  0  0  0  0
  186.8540  177.5680  144.1250 C   0  0  2  0  0  0  0  0  0  0  0  0
  187.5380  177.8170  146.5570 C   0  0  0  0  0  3  0  0  0  0  0  0
  186.3660  179.0190  143.9170 C   0  0  0  0  0  2  0  0  0  0  0  0
  184.8590  179.1230  143.7170 C   0  0  0  0  0  1  0  0  0  0  0  0
  188.9760  178.3260  141.8810 O   0  0  0  0  0  0  0  0  0  0  0  0
  187.8760  177.7260  141.7260 C   0  0  0  0  0  0  0  0  0  0  0  0
  187.1940  177.8340  140.5130 O   0  0  0  0  0  0  0  0  0  0  0  0
  185.7770  177.9050  140.4490 C   0  0  0  0  0  1  0  0  0  0  0  0
  187.7520  174.8640  141.6200 O   0  0  0  0  0  0  0  0  0  0  0  0
  188.9200  174.0630  141.7000 C   0  0  0  0  0  2  0  0  0  0  0  0
  189.1800  172.0620  143.1630 C   0  0  0  0  0  3  0  0  0  0  0  0
  188.5680  172.6750  142.1430 C   0  0  0  0  0  3  0  0  0  0  0  0
  190.2840  172.6880  143.9600 C   0  0  0  0  0  2  0  0  0  0  0  0
  189.7510  173.2000  145.2850 C   0  0  0  0  0  2  0  0  0  0  0  0
  190.0380  174.6810  145.4050 C   0  0  0  0  0  2  0  0  0  0  0  0
  191.1860  175.0460  144.4870 C   0  0  0  0  0  2  0  0  0  0  0  0
  190.8420  176.1700  143.7360 O   0  0  0  0  0  0  0  0  0  0  0  0
  191.8770  177.0750  143.9680 C   0  0  0  0  0  1  0  0  0  0  0  0
  1  8  1  0  0  0  0
  2  1  2  0  0  0  0
  3  9  1  0  0  0  0
  4  7  2  0  0  0  0
  6  5  1  0  0  0  0
  7  6  1  0  0  0  0
  8 10  1  6  0  0  0
  8  4  1  0  0  0  0
  8  3  1  0  0  0  0
  9  6  2  0  0  0  0
 11 10  1  0  0  0  0
 13 12  2  0  0  0  0
 13  1  1  0  0  0  0
 14 13  1  0  0  0  0
 15 14  1  0  0  0  0
 16 17  1  0  0  0  0
 16  2  1  0  0  0  0
 17 19  1  0  0  0  0
 18 20  1  0  0  0  0
 19 18  2  0  0  0  0
 20 21  1  0  0  0  0
 21 22  1  0  0  0  0
 23 22  1  0  0  0  0
 24 25  1  0  0  0  0
 24 23  1  0  0  0  0
M  END
>  <MODEL>
5

>  <REMARK>
 VINA RESULT:      -5.4      1.806      5.403
  Name = 
  12 active torsions:
  status: ('A' for Active; 'I' for Inactive)
    1  A    between atoms: C_1  and  C_18
    2  A    between atoms: C_1  and  C_24
    3  A    between atoms: C_2  and  O_7
    4  A    between atoms: C_2  and  C_25
    5  A    between atoms: C_3  and  O_16
    6  A    between atoms: C_6  and  C_15
    7  A    between atoms: C_6  and  C_21
    8  A    between atoms: O_13  and  C_24
    9  A    between atoms: O_16  and  C_23
   10  A    between atoms: C_17  and  C_18
   11  A    between atoms: C_20  and  C_23
   12  A    between atoms: C_21  and  C_25
                            x       y       z     vdW  Elec       q    Type
                         _______ _______ _______ _____ _____    ______ ____

>  <TORSDO>
F 12

$$$$
=
 OpenBabel11052417383D

 25 25  0  0  1  0  0  0  0  0999 V2000
  187.4150  176.8280  142.9000 C   0  0  0  0  0  0  0  0  0  0  0  0
  187.4370  175.5240  142.5770 C   0  0  0  0  0  3  0  0  0  0  0  0
  186.6190  178.7760  144.2960 C   0  0  0  0  0  2  0  0  0  0  0  0
  186.0390  176.4110  144.8940 C   0  0  0  0  0  3  0  0  0  0  0  0
  184.5480  178.6430  147.4160 O   0  0  0  0  0  1  0  0  0  0  0  0
  185.2880  178.2530  146.3080 C   0  0  0  0  0  0  0  0  0  0  0  0
  185.5540  176.8240  146.0700 C   0  0  0  0  0  3  0  0  0  0  0  0
  186.2630  177.3710  143.7470 C   0  0  2  0  0  0  0  0  0  0  0  0
  185.7460  179.1750  145.4570 C   0  0  0  0  0  3  0  0  0  0  0  0
  184.9350  177.4700  142.9640 C   0  0  0  0  0  2  0  0  0  0  0  0
  185.0490  178.2950  141.6880 C   0  0  0  0  0  1  0  0  0  0  0  0
  188.5520  178.4140  141.5130 O   0  0  0  0  0  0  0  0  0  0  0  0
  188.5650  177.7130  142.5630 C   0  0  0  0  0  0  0  0  0  0  0  0
  189.6660  177.7710  143.4200 O   0  0  0  0  0  0  0  0  0  0  0  0
  190.9990  177.6630  142.9420 C   0  0  0  0  0  1  0  0  0  0  0  0
  188.4850  174.9310  141.8770 O   0  0  0  0  0  0  0  0  0  0  0  0
  189.0780  173.7300  142.3440 C   0  0  0  0  0  2  0  0  0  0  0  0
  190.7360  173.9610  144.1900 C   0  0  0  0  0  3  0  0  0  0  0  0
  190.4490  174.0030  142.8830 C   0  0  0  0  0  3  0  0  0  0  0  0
  189.7230  173.6480  145.2480 C   0  0  0  0  0  2  0  0  0  0  0  0
  189.3080  174.9150  145.9720 C   0  0  0  0  0  2  0  0  0  0  0  0
  190.4950  175.8480  146.0750 C   0  0  0  0  0  2  0  0  0  0  0  0
  190.3800  176.6700  147.3420 C   0  0  0  0  0  2  0  0  0  0  0  0
  191.6060  176.6730  148.0070 O   0  0  0  0  0  0  0  0  0  0  0  0
  192.5370  176.3360  147.0250 C   0  0  0  0  0  1  0  0  0  0  0  0
  1  8  1  0  0  0  0
  2  1  2  0  0  0  0
  3  9  1  0  0  0  0
  4  7  2  0  0  0  0
  6  5  1  0  0  0  0
  7  6  1  0  0  0  0
  8 10  1  6  0  0  0
  8  3  1  0  0  0  0
  8  4  1  0  0  0  0
  9  6  2  0  0  0  0
 11 10  1  0  0  0  0
 12 13  2  0  0  0  0
 13  1  1  0  0  0  0
 13 14  1  0  0  0  0
 15 14  1  0  0  0  0
 16 17  1  0  0  0  0
 16  2  1  0  0  0  0
 17 19  1  0  0  0  0
 18 20  1  0  0  0  0
 19 18  2  0  0  0  0
 20 21  1  0  0  0  0
 21 22  1  0  0  0  0
 22 23  1  0  0  0  0
 23 24  1  0  0  0  0
 25 24  1  0  0  0  0
M  END
>  <MODEL>
6

>  <REMARK>
 VINA RESULT:      -5.3      1.541      5.316
  Name = 
  12 active torsions:
  status: ('A' for Active; 'I' for Inactive)
    1  A    between atoms: C_1  and  C_18
    2  A    between atoms: C_1  and  C_24
    3  A    between atoms: C_2  and  O_7
    4  A    between atoms: C_2  and  C_25
    5  A    between atoms: C_3  and  O_16
    6  A    between atoms: C_6  and  C_15
    7  A    between atoms: C_6  and  C_21
    8  A    between atoms: O_13  and  C_24
    9  A    between atoms: O_16  and  C_23
   10  A    between atoms: C_17  and  C_18
   11  A    between atoms: C_20  and  C_23
   12  A    between atoms: C_21  and  C_25
                            x       y       z     vdW  Elec       q    Type
                         _______ _______ _______ _____ _____    ______ ____

>  <TORSDO>
F 12

$$$$
=
 OpenBabel11052417383D

 25 25  0  0  1  0  0  0  0  0999 V2000
  189.8530  175.4250  143.4530 C   0  0  0  0  0  0  0  0  0  0  0  0
  189.5540  174.6620  144.5180 C   0  0  0  0  0  3  0  0  0  0  0  0
  188.8490  177.2990  142.0910 C   0  0  0  0  0  2  0  0  0  0  0  0
  187.4180  175.5220  143.1300 C   0  0  0  0  0  3  0  0  0  0  0  0
  185.2230  177.8870  141.3550 O   0  0  0  0  0  1  0  0  0  0  0  0
  186.3920  177.3410  141.8670 C   0  0  0  0  0  0  0  0  0  0  0  0
  186.3210  176.2210  142.8220 C   0  0  0  0  0  3  0  0  0  0  0  0
  188.7480  175.7990  142.4640 C   0  0  2  0  0  0  0  0  0  0  0  0
  187.5750  177.8260  141.4840 C   0  0  0  0  0  3  0  0  0  0  0  0
  188.7950  174.9640  141.1660 C   0  0  0  0  0  2  0  0  0  0  0  0
  188.1960  173.5710  141.3250 C   0  0  0  0  0  1  0  0  0  0  0  0
  191.9840  175.6450  142.3830 O   0  0  0  0  0  0  0  0  0  0  0  0
  191.2100  176.0240  143.3060 C   0  0  0  0  0  0  0  0  0  0  0  0
  191.6270  177.0170  144.1950 O   0  0  0  0  0  0  0  0  0  0  0  0
  192.8880  176.9640  144.8450 C   0  0  0  0  0  1  0  0  0  0  0  0
  190.4800  174.3390  145.5070 O   0  0  0  0  0  0  0  0  0  0  0  0
  190.3710  174.8940  146.8080 C   0  0  0  0  0  2  0  0  0  0  0  0
  188.1640  175.9820  147.2070 C   0  0  0  0  0  3  0  0  0  0  0  0
  188.9400  174.8930  147.2550 C   0  0  0  0  0  3  0  0  0  0  0  0
  188.6410  177.3150  146.7160 C   0  0  0  0  0  2  0  0  0  0  0  0
  187.6010  177.9440  145.8090 C   0  0  0  0  0  2  0  0  0  0  0  0
  186.2260  177.4490  146.1980 C   0  0  0  0  0  2  0  0  0  0  0  0
  185.3680  178.6240  146.6180 C   0  0  0  0  0  2  0  0  0  0  0  0
  184.0760  178.4600  146.1170 O   0  0  0  0  0  0  0  0  0  0  0  0
  184.1820  178.7850  144.7650 C   0  0  0  0  0  1  0  0  0  0  0  0
  1  2  2  0  0  0  0
  2 16  1  0  0  0  0
  3  8  1  0  0  0  0
  5  6  1  0  0  0  0
  6  7  1  0  0  0  0
  7  4  2  0  0  0  0
  8 10  1  6  0  0  0
  8  4  1  0  0  0  0
  8  1  1  0  0  0  0
  9  6  2  0  0  0  0
  9  3  1  0  0  0  0
 10 11  1  0  0  0  0
 12 13  2  0  0  0  0
 13  1  1  0  0  0  0
 13 14  1  0  0  0  0
 14 15  1  0  0  0  0
 16 17  1  0  0  0  0
 17 19  1  0  0  0  0
 18 19  2  0  0  0  0
 20 18  1  0  0  0  0
 21 22  1  0  0  0  0
 21 20  1  0  0  0  0
 22 23  1  0  0  0  0
 24 23  1  0  0  0  0
 25 24  1  0  0  0  0
M  END
>  <MODEL>
7

>  <REMARK>
 VINA RESULT:      -5.2      2.015      4.887
  Name = 
  12 active torsions:
  status: ('A' for Active; 'I' for Inactive)
    1  A    between atoms: C_1  and  C_18
    2  A    between atoms: C_1  and  C_24
    3  A    between atoms: C_2  and  O_7
    4  A    between atoms: C_2  and  C_25
    5  A    between atoms: C_3  and  O_16
    6  A    between atoms: C_6  and  C_15
    7  A    between atoms: C_6  and  C_21
    8  A    between atoms: O_13  and  C_24
    9  A    between atoms: O_16  and  C_23
   10  A    between atoms: C_17  and  C_18
   11  A    between atoms: C_20  and  C_23
   12  A    between atoms: C_21  and  C_25
                            x       y       z     vdW  Elec       q    Type
                         _______ _______ _______ _____ _____    ______ ____

>  <TORSDO>
F 12

$$$$
=
 OpenBabel11052417383D

 25 25  0  0  1  0  0  0  0  0999 V2000
  187.8520  177.2640  143.3630 C   0  0  0  0  0  0  0  0  0  0  0  0
  189.0330  177.5840  143.9180 C   0  0  0  0  0  3  0  0  0  0  0  0
  186.3370  178.9800  144.4300 C   0  0  0  0  0  2  0  0  0  0  0  0
  186.7160  176.7350  145.4780 C   0  0  0  0  0  3  0  0  0  0  0  0
  184.4340  178.6540  147.6400 O   0  0  0  0  0  1  0  0  0  0  0  0
  185.2840  178.3770  146.5780 C   0  0  0  0  0  0  0  0  0  0  0  0
  186.0910  177.1440  146.5870 C   0  0  0  0  0  3  0  0  0  0  0  0
  186.5660  177.4710  144.1650 C   0  0  2  0  0  0  0  0  0  0  0  0
  185.3600  179.2240  145.5500 C   0  0  0  0  0  3  0  0  0  0  0  0
  185.3170  176.8990  143.4590 C   0  0  0  0  0  2  0  0  0  0  0  0
  184.4880  177.9630  142.7490 C   0  0  0  0  0  1  0  0  0  0  0  0
  187.9230  175.6380  141.6070 O   0  0  0  0  0  0  0  0  0  0  0  0
  187.7720  176.8480  141.9340 C   0  0  0  0  0  0  0  0  0  0  0  0
  187.5220  177.8050  140.9480 O   0  0  0  0  0  0  0  0  0  0  0  0
  186.6830  177.5380  139.8350 C   0  0  0  0  0  1  0  0  0  0  0  0
  190.2430  177.5000  143.2330 O   0  0  0  0  0  0  0  0  0  0  0  0
  191.4660  177.7940  143.8880 C   0  0  0  0  0  2  0  0  0  0  0  0
  193.0930  176.0720  144.6620 C   0  0  0  0  0  3  0  0  0  0  0  0
  192.4540  176.6910  143.6620 C   0  0  0  0  0  3  0  0  0  0  0  0
  192.8990  176.4210  146.1060 C   0  0  0  0  0  2  0  0  0  0  0  0
  192.1590  175.3070  146.8220 C   0  0  0  0  0  2  0  0  0  0  0  0
  190.7590  175.7690  147.1600 C   0  0  0  0  0  2  0  0  0  0  0  0
  189.7550  174.7860  146.5950 C   0  0  0  0  0  2  0  0  0  0  0  0
  190.0240  174.5710  145.2430 O   0  0  0  0  0  0  0  0  0  0  0  0
  189.6920  173.2340  145.0290 C   0  0  0  0  0  1  0  0  0  0  0  0
  1  2  2  0  0  0  0
  1  8  1  0  0  0  0
  3  9  1  0  0  0  0
  4  7  2  0  0  0  0
  6  7  1  0  0  0  0
  6  5  1  0  0  0  0
  8 10  1  6  0  0  0
  8  3  1  0  0  0  0
  8  4  1  0  0  0  0
  9  6  2  0  0  0  0
 11 10  1  0  0  0  0
 12 13  2  0  0  0  0
 13  1  1  0  0  0  0
 14 13  1  0  0  0  0
 15 14  1  0  0  0  0
 16 17  1  0  0  0  0
 16  2  1  0  0  0  0
 18 20  1  0  0  0  0
 19 17  1  0  0  0  0
 19 18  2  0  0  0  0
 20 21  1  0  0  0  0
 21 22  1  0  0  0  0
 23 22  1  0  0  0  0
 24 23  1  0  0  0  0
 25 24  1  0  0  0  0
M  END
>  <MODEL>
8

>  <REMARK>
 VINA RESULT:      -5.2      1.846      5.745
  Name = 
  12 active torsions:
  status: ('A' for Active; 'I' for Inactive)
    1  A    between atoms: C_1  and  C_18
    2  A    between atoms: C_1  and  C_24
    3  A    between atoms: C_2  and  O_7
    4  A    between atoms: C_2  and  C_25
    5  A    between atoms: C_3  and  O_16
    6  A    between atoms: C_6  and  C_15
    7  A    between atoms: C_6  and  C_21
    8  A    between atoms: O_13  and  C_24
    9  A    between atoms: O_16  and  C_23
   10  A    between atoms: C_17  and  C_18
   11  A    between atoms: C_20  and  C_23
   12  A    between atoms: C_21  and  C_25
                            x       y       z     vdW  Elec       q    Type
                         _______ _______ _______ _____ _____    ______ ____

>  <TORSDO>
F 12

$$$$
=
 OpenBabel11052417383D

 25 25  0  0  1  0  0  0  0  0999 V2000
  189.5260  175.6810  144.0850 C   0  0  0  0  0  0  0  0  0  0  0  0
  188.2980  176.2160  143.9810 C   0  0  0  0  0  3  0  0  0  0  0  0
  190.8990  175.1110  146.1260 C   0  0  0  0  0  2  0  0  0  0  0  0
  189.7960  177.3480  145.8710 C   0  0  0  0  0  3  0  0  0  0  0  0
  191.5640  177.2890  149.1020 O   0  0  0  0  0  1  0  0  0  0  0  0
  191.0690  176.8310  147.8890 C   0  0  0  0  0  0  0  0  0  0  0  0
  190.0920  177.6420  147.1420 C   0  0  0  0  0  3  0  0  0  0  0  0
  190.4970  176.2300  145.1320 C   0  0  2  0  0  0  0  0  0  0  0  0
  191.4870  175.6610  147.4000 C   0  0  0  0  0  3  0  0  0  0  0  0
  191.7800  176.8230  144.5110 C   0  0  0  0  0  2  0  0  0  0  0  0
  191.5130  178.0270  143.6150 C   0  0  0  0  0  1  0  0  0  0  0  0
  189.5750  173.3200  143.6890 O   0  0  0  0  0  0  0  0  0  0  0  0
  189.8980  174.4750  143.2930 C   0  0  0  0  0  0  0  0  0  0  0  0
  190.6050  174.6230  142.0980 O   0  0  0  0  0  0  0  0  0  0  0  0
  190.2670  173.8950  140.9280 C   0  0  0  0  0  1  0  0  0  0  0  0
  187.3260  175.7280  143.1110 O   0  0  0  0  0  0  0  0  0  0  0  0
  186.0220  176.2860  143.0970 C   0  0  0  0  0  2  0  0  0  0  0  0
  185.9900  178.6710  142.3750 C   0  0  0  0  0  3  0  0  0  0  0  0
  185.9330  177.3700  142.0660 C   0  0  0  0  0  3  0  0  0  0  0  0
  186.1380  179.1820  143.7750 C   0  0  0  0  0  2  0  0  0  0  0  0
  184.7990  179.6620  144.3050 C   0  0  0  0  0  2  0  0  0  0  0  0
  184.3820  178.7990  145.4760 C   0  0  0  0  0  2  0  0  0  0  0  0
  185.3690  178.9790  146.6100 C   0  0  0  0  0  2  0  0  0  0  0  0
  185.2510  177.9150  147.5040 O   0  0  0  0  0  0  0  0  0  0  0  0
  186.2940  177.0550  147.1630 C   0  0  0  0  0  1  0  0  0  0  0  0
  1  8  1  0  0  0  0
  2  1  2  0  0  0  0
  3  9  1  0  0  0  0
  4  7  2  0  0  0  0
  6  5  1  0  0  0  0
  7  6  1  0  0  0  0
  8 10  1  6  0  0  0
  8  4  1  0  0  0  0
  8  3  1  0  0  0  0
  9  6  2  0  0  0  0
 11 10  1  0  0  0  0
 13 12  2  0  0  0  0
 13  1  1  0  0  0  0
 14 13  1  0  0  0  0
 15 14  1  0  0  0  0
 16  2  1  0  0  0  0
 17 16  1  0  0  0  0
 18 20  1  0  0  0  0
 19 18  2  0  0  0  0
 19 17  1  0  0  0  0
 20 21  1  0  0  0  0
 21 22  1  0  0  0  0
 22 23  1  0  0  0  0
 23 24  1  0  0  0  0
 25 24  1  0  0  0  0
M  END
>  <MODEL>
9

>  <REMARK>
 VINA RESULT:      -5.2      1.319      1.736
  Name = 
  12 active torsions:
  status: ('A' for Active; 'I' for Inactive)
    1  A    between atoms: C_1  and  C_18
    2  A    between atoms: C_1  and  C_24
    3  A    between atoms: C_2  and  O_7
    4  A    between atoms: C_2  and  C_25
    5  A    between atoms: C_3  and  O_16
    6  A    between atoms: C_6  and  C_15
    7  A    between atoms: C_6  and  C_21
    8  A    between atoms: O_13  and  C_24
    9  A    between atoms: O_16  and  C_23
   10  A    between atoms: C_17  and  C_18
   11  A    between atoms: C_20  and  C_23
   12  A    between atoms: C_21  and  C_25
                            x       y       z     vdW  Elec       q    Type
                         _______ _______ _______ _____ _____    ______ ____

>  <TORSDO>
F 12

$$$$
