=
 OpenBabel11052419113D

 32 37  0  0  1  0  0  0  0  0999 V2000
  186.6010  177.9530  146.1670 C   0  0  0  0  0  0  0  0  0  0  0  0
  186.8900  177.7830  143.6360 C   0  0  0  0  0  0  0  0  0  0  0  0
  185.8120  178.2080  147.2820 C   0  0  0  0  0  3  0  0  0  0  0  0
  186.0830  178.0590  144.8230 C   0  0  0  0  0  0  0  0  0  0  0  0
  186.3140  177.9800  142.2550 C   0  0  1  0  0  3  0  0  0  0  0  0
  190.2590  173.4940  140.9680 C   0  0  0  0  0  1  0  0  0  0  0  0
  188.2520  177.3310  143.7040 C   0  0  0  0  0  0  0  0  0  0  0  0
  188.5050  175.1630  140.9570 N   0  0  0  0  0  0  0  0  0  0  0  0
  188.0630  176.3660  141.5070 N   0  0  0  0  0  0  0  0  0  0  0  0
  184.7400  178.4130  144.6610 C   0  0  0  0  0  0  0  0  0  0  0  0
  189.2400  177.1500  146.2790 C   0  0  1  0  0  3  0  0  0  0  0  0
  186.6600  176.7780  141.3580 C   0  0  0  0  0  2  0  0  0  0  0  0
  184.1670  178.5010  143.3500 N   0  0  0  0  0  0  0  0  0  0  0  0
  183.9450  178.6700  145.7870 C   0  0  0  0  0  3  0  0  0  0  0  0
  188.6970  177.2590  144.9910 C   0  0  0  0  0  0  0  0  0  0  0  0
  187.9020  177.5580  146.1770 C   0  0  0  0  0  0  0  0  0  0  0  0
  188.9970  176.9740  142.4550 C   0  0  2  0  0  3  0  0  0  0  0  0
  184.8280  178.3140  142.2430 C   0  0  0  0  0  0  0  0  0  0  0  0
  184.4750  178.5710  147.0840 C   0  0  0  0  0  3  0  0  0  0  0  0
  189.6230  174.7510  141.4410 C   0  0  0  0  0  0  0  0  0  0  0  0
  190.3330  175.7520  142.7410 S   0  0  0  0  0  0  0  0  0  0  0  0
  184.1390  178.4900  141.0380 O   0  0  0  0  0  0  0  0  0  0  0  0
  182.7540  178.2120  140.8830 C   0  0  0  0  0  1  0  0  0  0  0  0
  189.2960  175.6900  146.6920 C   0  0  0  0  0  2  0  0  0  0  0  0
  191.7920  175.3330  146.9340 C   0  0  0  0  0  0  0  0  0  0  0  0
  191.8320  176.0730  147.9520 O   0  0  0  0  0  0  0  0  0  0  0  0
  192.9980  174.7330  146.4590 N   0  0  0  0  0  2  0  0  0  0  0  0
  190.5510  175.0910  146.2630 N   0  0  0  0  0  2  0  0  0  0  0  0
  193.8280  172.6000  145.5540 C   0  0  0  0  0  1  0  0  0  0  0  0
  193.0370  173.8730  145.2800 C   0  0  2  0  0  3  0  0  0  0  0  0
  193.4890  174.5580  144.1300 O   0  0  0  0  0  0  0  0  0  0  0  0
  194.5910  175.3600  144.4750 C   0  0  0  0  0  1  0  0  0  0  0  0
  1 16  1  0  0  0  0
  1  3  1  0  0  0  0
  2  7  2  0  0  0  0
  2  4  1  0  0  0  0
  4  1  2  0  0  0  0
  5 12  1  6  0  0  0
  5  2  1  0  0  0  0
  6 20  1  0  0  0  0
  7 15  1  0  0  0  0
  8 20  2  0  0  0  0
  8  9  1  0  0  0  0
  9 17  1  0  0  0  0
 10  4  1  0  0  0  0
 10 14  2  0  0  0  0
 11 24  1  1  0  0  0
 12  9  1  0  0  0  0
 13 10  1  0  0  0  0
 14 19  1  0  0  0  0
 15 16  2  0  0  0  0
 15 11  1  0  0  0  0
 16 11  1  0  0  0  0
 17 21  1  1  0  0  0
 17  7  1  0  0  0  0
 18  5  1  0  0  0  0
 18 13  2  0  0  0  0
 19  3  2  0  0  0  0
 20 21  1  0  0  0  0
 22 18  1  0  0  0  0
 23 22  1  0  0  0  0
 25 26  2  0  0  0  0
 27 25  1  0  0  0  0
 28 24  1  0  0  0  0
 28 25  1  0  0  0  0
 30 29  1  1  0  0  0
 30 27  1  0  0  0  0
 31 32  1  0  0  0  0
 31 30  1  0  0  0  0
M  END
>  <MODEL>
1

>  <REMARK>
 VINA RESULT:      -8.9      0.000      0.000
  Name = 
  5 active torsions:
  status: ('A' for Active; 'I' for Inactive)
    1  A    between atoms: O_13  and  C_29
    2  A    between atoms: O_15  and  C_26
    3  A    between atoms: C_16  and  C_23
    4  A    between atoms: N_19  and  C_26
    5  A    between atoms: N_22  and  C_23
                            x       y       z     vdW  Elec       q    Type
                         _______ _______ _______ _____ _____    ______ ____

>  <TORSDO>
F 5

$$$$
=
 OpenBabel11052419113D

 32 37  0  0  1  0  0  0  0  0999 V2000
  188.9120  175.4190  144.3610 C   0  0  0  0  0  0  0  0  0  0  0  0
  187.2320  177.3390  144.4390 C   0  0  0  0  0  0  0  0  0  0  0  0
  189.6900  174.4620  145.0030 C   0  0  0  0  0  3  0  0  0  0  0  0
  188.0690  176.3340  145.0930 C   0  0  0  0  0  0  0  0  0  0  0  0
  186.4250  178.3160  145.2590 C   0  0  1  0  0  3  0  0  0  0  0  0
  182.7930  178.0230  140.3530 C   0  0  0  0  0  1  0  0  0  0  0  0
  187.1360  177.4680  143.0110 C   0  0  0  0  0  0  0  0  0  0  0  0
  183.7920  178.4120  142.5240 N   0  0  0  0  0  0  0  0  0  0  0  0
  184.9880  178.5320  143.2310 N   0  0  0  0  0  0  0  0  0  0  0  0
  188.0320  176.2270  146.4870 C   0  0  0  0  0  0  0  0  0  0  0  0
  188.7710  175.7260  141.6210 C   0  0  1  0  0  3  0  0  0  0  0  0
  184.9960  178.4280  144.6970 C   0  0  0  0  0  2  0  0  0  0  0  0
  187.1870  177.0890  147.2580 N   0  0  0  0  0  0  0  0  0  0  0  0
  188.8180  175.2610  147.1330 C   0  0  0  0  0  3  0  0  0  0  0  0
  187.9600  176.5920  142.3680 C   0  0  0  0  0  0  0  0  0  0  0  0
  188.8150  175.6050  143.0180 C   0  0  0  0  0  0  0  0  0  0  0  0
  186.1900  178.4540  142.3990 C   0  0  2  0  0  3  0  0  0  0  0  0
  186.4470  178.0370  146.7570 C   0  0  0  0  0  0  0  0  0  0  0  0
  189.6400  174.3900  146.3990 C   0  0  0  0  0  3  0  0  0  0  0  0
  183.9520  178.1700  141.2710 C   0  0  0  0  0  0  0  0  0  0  0  0
  185.6420  177.9750  140.7180 S   0  0  0  0  0  0  0  0  0  0  0  0
  185.7180  178.8320  147.6490 O   0  0  0  0  0  0  0  0  0  0  0  0
  186.2770  179.9340  148.3480 C   0  0  0  0  0  1  0  0  0  0  0  0
  187.9270  174.6040  141.0410 C   0  0  0  0  0  2  0  0  0  0  0  0
  189.3180  172.4870  140.9830 C   0  0  0  0  0  0  0  0  0  0  0  0
  189.0600  172.2470  142.1920 O   0  0  0  0  0  0  0  0  0  0  0  0
  190.1560  171.5890  140.2550 N   0  0  0  0  0  2  0  0  0  0  0  0
  188.7720  173.6450  140.3440 N   0  0  0  0  0  2  0  0  0  0  0  0
  189.9920  170.6710  137.9780 C   0  0  0  0  0  1  0  0  0  0  0  0
  190.5100  171.8040  138.8550 C   0  0  2  0  0  3  0  0  0  0  0  0
  191.8930  172.0390  138.6810 O   0  0  0  0  0  0  0  0  0  0  0  0
  192.1220  173.4250  138.6400 C   0  0  0  0  0  1  0  0  0  0  0  0
  1  3  2  0  0  0  0
  1  4  1  0  0  0  0
  2  4  1  0  0  0  0
  2  5  1  0  0  0  0
  3 19  1  0  0  0  0
  4 10  2  0  0  0  0
  5 12  1  6  0  0  0
  5 18  1  0  0  0  0
  6 20  1  0  0  0  0
  7  2  2  0  0  0  0
  8  9  1  0  0  0  0
  9 12  1  0  0  0  0
 10 14  1  0  0  0  0
 10 13  1  0  0  0  0
 11 24  1  6  0  0  0
 11 15  1  0  0  0  0
 11 16  1  0  0  0  0
 15  7  1  0  0  0  0
 15 16  2  0  0  0  0
 16  1  1  0  0  0  0
 17 21  1  6  0  0  0
 17  7  1  0  0  0  0
 17  9  1  0  0  0  0
 18 13  2  0  0  0  0
 18 22  1  0  0  0  0
 19 14  2  0  0  0  0
 20  8  2  0  0  0  0
 21 20  1  0  0  0  0
 22 23  1  0  0  0  0
 25 26  2  0  0  0  0
 27 25  1  0  0  0  0
 28 25  1  0  0  0  0
 28 24  1  0  0  0  0
 30 29  1  6  0  0  0
 30 27  1  0  0  0  0
 31 30  1  0  0  0  0
 32 31  1  0  0  0  0
M  END
>  <MODEL>
2

>  <REMARK>
 VINA RESULT:      -8.0      3.112      5.755
  Name = 
  5 active torsions:
  status: ('A' for Active; 'I' for Inactive)
    1  A    between atoms: O_13  and  C_29
    2  A    between atoms: O_15  and  C_26
    3  A    between atoms: C_16  and  C_23
    4  A    between atoms: N_19  and  C_26
    5  A    between atoms: N_22  and  C_23
                            x       y       z     vdW  Elec       q    Type
                         _______ _______ _______ _____ _____    ______ ____

>  <TORSDO>
F 5

$$$$
=
 OpenBabel11052419113D

 32 37  0  0  1  0  0  0  0  0999 V2000
  187.5430  177.5280  146.6410 C   0  0  0  0  0  0  0  0  0  0  0  0
  188.3530  177.4860  144.2200 C   0  0  0  0  0  0  0  0  0  0  0  0
  186.5160  177.4830  147.5760 C   0  0  0  0  0  3  0  0  0  0  0  0
  187.2880  177.4550  145.2220 C   0  0  0  0  0  0  0  0  0  0  0  0
  188.0210  177.4790  142.7480 C   0  0  1  0  0  3  0  0  0  0  0  0
  193.4400  174.6670  142.4780 C   0  0  0  0  0  1  0  0  0  0  0  0
  189.7470  177.5400  144.5630 C   0  0  0  0  0  0  0  0  0  0  0  0
  191.2550  175.6150  142.0460 N   0  0  0  0  0  0  0  0  0  0  0  0
  190.3290  176.5840  142.4320 N   0  0  0  0  0  0  0  0  0  0  0  0
  185.9630  177.3170  144.7950 C   0  0  0  0  0  0  0  0  0  0  0  0
  190.2230  177.6990  147.2810 C   0  0  1  0  0  3  0  0  0  0  0  0
  188.9260  176.4790  142.0050 C   0  0  0  0  0  2  0  0  0  0  0  0
  185.6590  177.2070  143.4000 N   0  0  0  0  0  0  0  0  0  0  0  0
  184.9280  177.2720  145.7400 C   0  0  0  0  0  3  0  0  0  0  0  0
  189.9330  177.6200  145.9120 C   0  0  0  0  0  0  0  0  0  0  0  0
  188.8730  177.6130  146.9120 C   0  0  0  0  0  0  0  0  0  0  0  0
  190.7950  177.4740  143.4950 C   0  0  2  0  0  3  0  0  0  0  0  0
  186.5430  177.2710  142.4450 C   0  0  0  0  0  0  0  0  0  0  0  0
  185.2000  177.3570  147.1150 C   0  0  0  0  0  3  0  0  0  0  0  0
  192.3310  175.6180  142.7500 C   0  0  0  0  0  0  0  0  0  0  0  0
  192.3890  176.7960  144.0940 S   0  0  0  0  0  0  0  0  0  0  0  0
  186.0800  177.2030  141.1260 O   0  0  0  0  0  0  0  0  0  0  0  0
  185.2580  178.1990  140.5350 C   0  0  0  0  0  1  0  0  0  0  0  0
  190.6980  176.3490  147.7860 C   0  0  0  0  0  2  0  0  0  0  0  0
  189.5630  174.3000  146.8190 C   0  0  0  0  0  0  0  0  0  0  0  0
  188.7690  174.2400  147.7950 O   0  0  0  0  0  0  0  0  0  0  0  0
  189.4690  173.3240  145.7800 N   0  0  0  0  0  2  0  0  0  0  0  0
  190.5450  175.3390  146.7480 N   0  0  0  0  0  2  0  0  0  0  0  0
  189.6540  172.7680  143.3910 C   0  0  0  0  0  1  0  0  0  0  0  0
  190.3590  173.3200  144.6230 C   0  0  2  0  0  3  0  0  0  0  0  0
  191.5820  172.6640  144.8900 O   0  0  0  0  0  0  0  0  0  0  0  0
  191.6970  171.5430  144.0500 C   0  0  0  0  0  1  0  0  0  0  0  0
  1 16  1  0  0  0  0
  1  3  1  0  0  0  0
  2  7  2  0  0  0  0
  2  4  1  0  0  0  0
  4  1  2  0  0  0  0
  5 12  1  6  0  0  0
  5  2  1  0  0  0  0
  6 20  1  0  0  0  0
  7 15  1  0  0  0  0
  8  9  1  0  0  0  0
  8 20  2  0  0  0  0
  9 17  1  0  0  0  0
 10  4  1  0  0  0  0
 10 14  2  0  0  0  0
 11 24  1  1  0  0  0
 12  9  1  0  0  0  0
 13 10  1  0  0  0  0
 14 19  1  0  0  0  0
 15 16  2  0  0  0  0
 15 11  1  0  0  0  0
 16 11  1  0  0  0  0
 17 21  1  1  0  0  0
 17  7  1  0  0  0  0
 18  5  1  0  0  0  0
 18 13  2  0  0  0  0
 19  3  2  0  0  0  0
 20 21  1  0  0  0  0
 22 18  1  0  0  0  0
 23 22  1  0  0  0  0
 25 26  2  0  0  0  0
 27 25  1  0  0  0  0
 28 25  1  0  0  0  0
 28 24  1  0  0  0  0
 30 29  1  6  0  0  0
 30 31  1  0  0  0  0
 30 27  1  0  0  0  0
 32 31  1  0  0  0  0
M  END
>  <MODEL>
3

>  <REMARK>
 VINA RESULT:      -7.9      1.943      2.510
  Name = 
  5 active torsions:
  status: ('A' for Active; 'I' for Inactive)
    1  A    between atoms: O_13  and  C_29
    2  A    between atoms: O_15  and  C_26
    3  A    between atoms: C_16  and  C_23
    4  A    between atoms: N_19  and  C_26
    5  A    between atoms: N_22  and  C_23
                            x       y       z     vdW  Elec       q    Type
                         _______ _______ _______ _____ _____    ______ ____

>  <TORSDO>
F 5

$$$$
=
 OpenBabel11052419113D

 32 37  0  0  1  0  0  0  0  0999 V2000
  187.8870  176.0190  144.8690 C   0  0  0  0  0  0  0  0  0  0  0  0
  190.3540  175.8660  145.5070 C   0  0  0  0  0  0  0  0  0  0  0  0
  186.5980  176.4770  145.1140 C   0  0  0  0  0  3  0  0  0  0  0  0
  188.9880  176.3250  145.7510 C   0  0  0  0  0  0  0  0  0  0  0  0
  191.4500  176.1570  146.5020 C   0  0  1  0  0  3  0  0  0  0  0  0
  194.8440  176.0010  141.4230 C   0  0  0  0  0  1  0  0  0  0  0  0
  190.7290  175.1150  144.3410 C   0  0  0  0  0  0  0  0  0  0  0  0
  193.9720  176.2710  143.6650 N   0  0  0  0  0  0  0  0  0  0  0  0
  193.0110  175.8440  144.5800 N   0  0  0  0  0  0  0  0  0  0  0  0
  188.7330  177.1240  146.8710 C   0  0  0  0  0  0  0  0  0  0  0  0
  188.6110  174.5160  142.6690 C   0  0  1  0  0  3  0  0  0  0  0  0
  192.7120  176.6510  145.7720 C   0  0  0  0  0  2  0  0  0  0  0  0
  189.7960  177.4840  147.7610 N   0  0  0  0  0  0  0  0  0  0  0  0
  187.4320  177.5850  147.1170 C   0  0  0  0  0  3  0  0  0  0  0  0
  189.6540  174.8410  143.5480 C   0  0  0  0  0  0  0  0  0  0  0  0
  188.2850  175.2770  143.8010 C   0  0  0  0  0  0  0  0  0  0  0  0
  192.1620  174.7540  144.0980 C   0  0  2  0  0  3  0  0  0  0  0  0
  191.0300  177.0800  147.6380 C   0  0  0  0  0  0  0  0  0  0  0  0
  186.3750  177.2630  146.2500 C   0  0  0  0  0  3  0  0  0  0  0  0
  193.8950  175.6880  142.5210 C   0  0  0  0  0  0  0  0  0  0  0  0
  192.5540  174.5210  142.3240 S   0  0  0  0  0  0  0  0  0  0  0  0
  191.9430  177.4750  148.6220 O   0  0  0  0  0  0  0  0  0  0  0  0
  191.5640  178.1520  149.8120 C   0  0  0  0  0  1  0  0  0  0  0  0
  188.6650  175.4190  141.4500 C   0  0  0  0  0  2  0  0  0  0  0  0
  187.5330  177.6860  141.4610 C   0  0  0  0  0  0  0  0  0  0  0  0
  188.6410  178.2750  141.5610 O   0  0  0  0  0  0  0  0  0  0  0  0
  186.3320  178.4580  141.4130 N   0  0  0  0  0  2  0  0  0  0  0  0
  187.4760  176.2570  141.3880 N   0  0  0  0  0  2  0  0  0  0  0  0
  184.1330  178.6090  140.3210 C   0  0  0  0  0  1  0  0  0  0  0  0
  185.0090  177.8500  141.3080 C   0  0  2  0  0  3  0  0  0  0  0  0
  184.3930  177.6850  142.5690 O   0  0  0  0  0  0  0  0  0  0  0  0
  184.5450  178.8680  143.3140 C   0  0  0  0  0  1  0  0  0  0  0  0
  1  3  2  0  0  0  0
  1  4  1  0  0  0  0
  2  4  1  0  0  0  0
  2  5  1  0  0  0  0
  3 19  1  0  0  0  0
  4 10  2  0  0  0  0
  5 12  1  6  0  0  0
  5 18  1  0  0  0  0
  6 20  1  0  0  0  0
  7  2  2  0  0  0  0
  8  9  1  0  0  0  0
  9 12  1  0  0  0  0
 10 14  1  0  0  0  0
 10 13  1  0  0  0  0
 11 24  1  6  0  0  0
 11 15  1  0  0  0  0
 11 16  1  0  0  0  0
 15 16  2  0  0  0  0
 15  7  1  0  0  0  0
 16  1  1  0  0  0  0
 17 21  1  6  0  0  0
 17  7  1  0  0  0  0
 17  9  1  0  0  0  0
 18 13  2  0  0  0  0
 18 22  1  0  0  0  0
 19 14  2  0  0  0  0
 20  8  2  0  0  0  0
 21 20  1  0  0  0  0
 22 23  1  0  0  0  0
 25 26  2  0  0  0  0
 27 25  1  0  0  0  0
 28 24  1  0  0  0  0
 28 25  1  0  0  0  0
 30 29  1  6  0  0  0
 30 27  1  0  0  0  0
 30 31  1  0  0  0  0
 31 32  1  0  0  0  0
M  END
>  <MODEL>
4

>  <REMARK>
 VINA RESULT:      -7.5      2.130      6.864
  Name = 
  5 active torsions:
  status: ('A' for Active; 'I' for Inactive)
    1  A    between atoms: O_13  and  C_29
    2  A    between atoms: O_15  and  C_26
    3  A    between atoms: C_16  and  C_23
    4  A    between atoms: N_19  and  C_26
    5  A    between atoms: N_22  and  C_23
                            x       y       z     vdW  Elec       q    Type
                         _______ _______ _______ _____ _____    ______ ____

>  <TORSDO>
F 5

$$$$
=
 OpenBabel11052419113D

 32 37  0  0  1  0  0  0  0  0999 V2000
  189.2610  173.3350  142.1380 C   0  0  0  0  0  0  0  0  0  0  0  0
  188.5100  175.3040  143.5780 C   0  0  0  0  0  0  0  0  0  0  0  0
  189.4080  172.7270  140.8960 C   0  0  0  0  0  3  0  0  0  0  0  0
  188.6620  174.6400  142.2840 C   0  0  0  0  0  0  0  0  0  0  0  0
  187.8100  176.6380  143.6770 C   0  0  1  0  0  3  0  0  0  0  0  0
  191.6240  177.2520  148.4110 C   0  0  0  0  0  1  0  0  0  0  0  0
  188.9900  174.7390  144.8080 C   0  0  0  0  0  0  0  0  0  0  0  0
  190.0200  177.5590  146.6240 N   0  0  0  0  0  0  0  0  0  0  0  0
  189.0880  176.9310  145.7990 N   0  0  0  0  0  0  0  0  0  0  0  0
  188.2390  175.3040  141.1290 C   0  0  0  0  0  0  0  0  0  0  0  0
  190.1180  172.2320  144.5190 C   0  0  1  0  0  3  0  0  0  0  0  0
  188.6140  177.5940  144.5760 C   0  0  0  0  0  2  0  0  0  0  0  0
  187.6670  176.6150  141.2150 N   0  0  0  0  0  0  0  0  0  0  0  0
  188.3880  174.6900  139.8770 C   0  0  0  0  0  3  0  0  0  0  0  0
  189.5350  173.5040  144.6180 C   0  0  0  0  0  0  0  0  0  0  0  0
  189.6670  172.8270  143.3330 C   0  0  0  0  0  0  0  0  0  0  0  0
  188.8900  175.5100  146.0880 C   0  0  2  0  0  3  0  0  0  0  0  0
  187.4560  177.2560  142.3300 C   0  0  0  0  0  0  0  0  0  0  0  0
  188.9630  173.4140  139.7610 C   0  0  0  0  0  3  0  0  0  0  0  0
  190.6090  176.7620  147.4440 C   0  0  0  0  0  0  0  0  0  0  0  0
  190.1650  175.0350  147.3140 S   0  0  0  0  0  0  0  0  0  0  0  0
  186.8370  178.5080  142.2520 O   0  0  0  0  0  0  0  0  0  0  0  0
  185.5860  178.8000  142.8570 C   0  0  0  0  0  1  0  0  0  0  0  0
  191.6290  172.3510  144.6040 C   0  0  0  0  0  2  0  0  0  0  0  0
  193.1690  174.1640  143.7340 C   0  0  0  0  0  0  0  0  0  0  0  0
  193.8570  173.3210  143.1000 O   0  0  0  0  0  0  0  0  0  0  0  0
  193.5310  175.5450  143.6770 N   0  0  0  0  0  2  0  0  0  0  0  0
  192.0330  173.7450  144.4960 N   0  0  0  0  0  2  0  0  0  0  0  0
  191.8760  177.3510  143.4490 C   0  0  0  0  0  1  0  0  0  0  0  0
  192.7920  176.5810  144.3920 C   0  0  2  0  0  3  0  0  0  0  0  0
  193.6420  177.4290  145.1390 O   0  0  0  0  0  0  0  0  0  0  0  0
  194.3640  176.6570  146.0650 C   0  0  0  0  0  1  0  0  0  0  0  0
  1  4  1  0  0  0  0
  1 16  2  0  0  0  0
  2  5  1  0  0  0  0
  2  7  1  0  0  0  0
  3  1  1  0  0  0  0
  4  2  2  0  0  0  0
  5 12  1  6  0  0  0
  8 20  2  0  0  0  0
  9 17  1  0  0  0  0
  9  8  1  0  0  0  0
 10 13  1  0  0  0  0
 10  4  1  0  0  0  0
 11 24  1  6  0  0  0
 11 15  1  0  0  0  0
 12  9  1  0  0  0  0
 13 18  2  0  0  0  0
 14 10  2  0  0  0  0
 15  7  2  0  0  0  0
 16 11  1  0  0  0  0
 16 15  1  0  0  0  0
 17  7  1  6  0  0  0
 17 21  1  0  0  0  0
 18  5  1  0  0  0  0
 19 14  1  0  0  0  0
 19  3  2  0  0  0  0
 20  6  1  0  0  0  0
 21 20  1  0  0  0  0
 22 18  1  0  0  0  0
 22 23  1  0  0  0  0
 25 28  1  0  0  0  0
 26 25  2  0  0  0  0
 27 25  1  0  0  0  0
 27 30  1  0  0  0  0
 28 24  1  0  0  0  0
 30 29  1  6  0  0  0
 30 31  1  0  0  0  0
 31 32  1  0  0  0  0
M  END
>  <MODEL>
5

>  <REMARK>
 VINA RESULT:      -7.4      2.439      5.213
  Name = 
  5 active torsions:
  status: ('A' for Active; 'I' for Inactive)
    1  A    between atoms: O_13  and  C_29
    2  A    between atoms: O_15  and  C_26
    3  A    between atoms: C_16  and  C_23
    4  A    between atoms: N_19  and  C_26
    5  A    between atoms: N_22  and  C_23
                            x       y       z     vdW  Elec       q    Type
                         _______ _______ _______ _____ _____    ______ ____

>  <TORSDO>
F 5

$$$$
=
 OpenBabel11052419113D

 32 37  0  0  1  0  0  0  0  0999 V2000
  187.7590  176.4070  141.7360 C   0  0  0  0  0  0  0  0  0  0  0  0
  187.3280  176.7320  144.2310 C   0  0  0  0  0  0  0  0  0  0  0  0
  187.4480  176.6740  140.4070 C   0  0  0  0  0  3  0  0  0  0  0  0
  187.0110  176.9860  142.8260 C   0  0  0  0  0  0  0  0  0  0  0  0
  186.4660  177.3070  145.3280 C   0  0  1  0  0  3  0  0  0  0  0  0
  191.7830  177.1420  148.3350 C   0  0  0  0  0  1  0  0  0  0  0  0
  188.4430  175.9270  144.6470 C   0  0  0  0  0  0  0  0  0  0  0  0
  189.5100  177.5140  147.5890 N   0  0  0  0  0  0  0  0  0  0  0  0
  188.4770  177.0410  146.7810 N   0  0  0  0  0  0  0  0  0  0  0  0
  185.9570  177.8520  142.5170 C   0  0  0  0  0  0  0  0  0  0  0  0
  189.8560  174.8080  142.5520 C   0  0  1  0  0  3  0  0  0  0  0  0
  187.3480  177.9170  146.4320 C   0  0  0  0  0  2  0  0  0  0  0  0
  185.2030  178.4780  143.5620 N   0  0  0  0  0  0  0  0  0  0  0  0
  185.6450  178.1200  141.1770 C   0  0  0  0  0  3  0  0  0  0  0  0
  189.1080  175.3950  143.5820 C   0  0  0  0  0  0  0  0  0  0  0  0
  188.7800  175.6260  142.1800 C   0  0  0  0  0  0  0  0  0  0  0  0
  188.7730  175.7800  146.1000 C   0  0  2  0  0  3  0  0  0  0  0  0
  185.3930  178.2700  144.8350 C   0  0  0  0  0  0  0  0  0  0  0  0
  186.3800  177.5350  140.1330 C   0  0  0  0  0  3  0  0  0  0  0  0
  190.5800  176.8030  147.5330 C   0  0  0  0  0  0  0  0  0  0  0  0
  190.5440  175.4180  146.4010 S   0  0  0  0  0  0  0  0  0  0  0  0
  184.5370  178.9160  145.7330 O   0  0  0  0  0  0  0  0  0  0  0  0
  184.0080  178.2910  146.8940 C   0  0  0  0  0  1  0  0  0  0  0  0
  191.1580  175.5660  142.3650 C   0  0  0  0  0  2  0  0  0  0  0  0
  193.1740  175.5600  143.8990 C   0  0  0  0  0  0  0  0  0  0  0  0
  193.0630  176.7980  144.1020 O   0  0  0  0  0  0  0  0  0  0  0  0
  194.2330  174.8400  144.5320 N   0  0  0  0  0  2  0  0  0  0  0  0
  192.2450  174.8800  143.0500 N   0  0  0  0  0  2  0  0  0  0  0  0
  193.6620  172.6000  145.3750 C   0  0  0  0  0  1  0  0  0  0  0  0
  194.4340  173.4070  144.3390 C   0  0  2  0  0  3  0  0  0  0  0  0
  195.8030  173.0590  144.2880 O   0  0  0  0  0  0  0  0  0  0  0  0
  196.5790  174.2060  144.5310 C   0  0  0  0  0  1  0  0  0  0  0  0
  1 16  2  0  0  0  0
  1  4  1  0  0  0  0
  2  7  1  0  0  0  0
  2  5  1  0  0  0  0
  3  1  1  0  0  0  0
  4  2  2  0  0  0  0
  5 12  1  1  0  0  0
  9  8  1  0  0  0  0
 10  4  1  0  0  0  0
 10 13  1  0  0  0  0
 11 24  1  6  0  0  0
 11 15  1  0  0  0  0
 12  9  1  0  0  0  0
 13 18  2  0  0  0  0
 14 10  2  0  0  0  0
 15  7  2  0  0  0  0
 16 11  1  0  0  0  0
 16 15  1  0  0  0  0
 17  7  1  6  0  0  0
 17 21  1  0  0  0  0
 17  9  1  0  0  0  0
 18  5  1  0  0  0  0
 18 22  1  0  0  0  0
 19  3  2  0  0  0  0
 19 14  1  0  0  0  0
 20  8  2  0  0  0  0
 20  6  1  0  0  0  0
 21 20  1  0  0  0  0
 22 23  1  0  0  0  0
 24 28  1  0  0  0  0
 25 26  2  0  0  0  0
 25 27  1  0  0  0  0
 28 25  1  0  0  0  0
 30 27  1  0  0  0  0
 30 29  1  1  0  0  0
 31 30  1  0  0  0  0
 31 32  1  0  0  0  0
M  END
>  <MODEL>
6

>  <REMARK>
 VINA RESULT:      -7.1      2.168      4.422
  Name = 
  5 active torsions:
  status: ('A' for Active; 'I' for Inactive)
    1  A    between atoms: O_13  and  C_29
    2  A    between atoms: O_15  and  C_26
    3  A    between atoms: C_16  and  C_23
    4  A    between atoms: N_19  and  C_26
    5  A    between atoms: N_22  and  C_23
                            x       y       z     vdW  Elec       q    Type
                         _______ _______ _______ _____ _____    ______ ____

>  <TORSDO>
F 5

$$$$
=
 OpenBabel11052419113D

 32 37  0  0  1  0  0  0  0  0999 V2000
  188.0890  175.7230  141.7160 C   0  0  0  0  0  0  0  0  0  0  0  0
  188.7970  175.4100  144.1490 C   0  0  0  0  0  0  0  0  0  0  0  0
  187.4410  176.4530  140.7260 C   0  0  0  0  0  3  0  0  0  0  0  0
  188.1100  176.1540  143.0930 C   0  0  0  0  0  0  0  0  0  0  0  0
  188.7240  175.8710  145.5840 C   0  0  1  0  0  3  0  0  0  0  0  0
  194.2140  173.1940  145.7630 C   0  0  0  0  0  1  0  0  0  0  0  0
  189.5550  174.2160  143.8970 C   0  0  0  0  0  0  0  0  0  0  0  0
  192.1920  174.4510  146.1990 N   0  0  0  0  0  0  0  0  0  0  0  0
  190.8350  174.5810  145.9020 N   0  0  0  0  0  0  0  0  0  0  0  0
  187.4680  177.3530  143.4200 C   0  0  0  0  0  0  0  0  0  0  0  0
  189.4920  173.3900  141.2600 C   0  0  1  0  0  3  0  0  0  0  0  0
  190.1200  175.8230  146.2290 C   0  0  0  0  0  2  0  0  0  0  0  0
  187.4860  177.8420  144.7660 N   0  0  0  0  0  0  0  0  0  0  0  0
  186.8140  178.0880  142.4200 C   0  0  0  0  0  3  0  0  0  0  0  0
  189.4930  173.8460  142.5850 C   0  0  0  0  0  0  0  0  0  0  0  0
  188.7890  174.5710  141.5350 C   0  0  0  0  0  0  0  0  0  0  0  0
  190.3150  173.5510  145.0020 C   0  0  2  0  0  3  0  0  0  0  0  0
  188.0370  177.2180  145.7700 C   0  0  0  0  0  0  0  0  0  0  0  0
  186.7980  177.6420  141.0890 C   0  0  0  0  0  3  0  0  0  0  0  0
  192.7730  173.4950  145.5650 C   0  0  0  0  0  0  0  0  0  0  0  0
  191.7560  172.5890  144.4060 S   0  0  0  0  0  0  0  0  0  0  0  0
  187.9220  177.8000  147.0370 O   0  0  0  0  0  0  0  0  0  0  0  0
  186.6970  178.2900  147.5630 C   0  0  0  0  0  1  0  0  0  0  0  0
  190.8150  173.7300  140.5970 C   0  0  0  0  0  2  0  0  0  0  0  0
  192.9770  174.9190  141.1750 C   0  0  0  0  0  0  0  0  0  0  0  0
  193.4990  174.5660  140.0850 O   0  0  0  0  0  0  0  0  0  0  0  0
  193.7380  175.7030  142.0940 N   0  0  0  0  0  2  0  0  0  0  0  0
  191.6320  174.5430  141.4870 N   0  0  0  0  0  2  0  0  0  0  0  0
  192.1050  177.1760  143.1970 C   0  0  0  0  0  1  0  0  0  0  0  0
  193.2080  176.1420  143.3810 C   0  0  2  0  0  3  0  0  0  0  0  0
  194.2250  176.5800  144.2600 O   0  0  0  0  0  0  0  0  0  0  0  0
  195.4660  176.1030  143.8020 C   0  0  0  0  0  1  0  0  0  0  0  0
  1  4  1  0  0  0  0
  2  5  1  0  0  0  0
  3 19  2  0  0  0  0
  3  1  1  0  0  0  0
  4 10  1  0  0  0  0
  4  2  2  0  0  0  0
  5 18  1  0  0  0  0
  5 12  1  6  0  0  0
  7  2  1  0  0  0  0
  9  8  1  0  0  0  0
  9 12  1  0  0  0  0
 10 13  1  0  0  0  0
 11 24  1  6  0  0  0
 11 16  1  0  0  0  0
 11 15  1  0  0  0  0
 13 18  2  0  0  0  0
 14 10  2  0  0  0  0
 15  7  2  0  0  0  0
 16  1  2  0  0  0  0
 16 15  1  0  0  0  0
 17  7  1  6  0  0  0
 17  9  1  0  0  0  0
 18 22  1  0  0  0  0
 19 14  1  0  0  0  0
 20  6  1  0  0  0  0
 20  8  2  0  0  0  0
 21 17  1  0  0  0  0
 21 20  1  0  0  0  0
 22 23  1  0  0  0  0
 24 28  1  0  0  0  0
 25 28  1  0  0  0  0
 25 27  1  0  0  0  0
 26 25  2  0  0  0  0
 27 30  1  0  0  0  0
 30 29  1  6  0  0  0
 30 31  1  0  0  0  0
 32 31  1  0  0  0  0
M  END
>  <MODEL>
7

>  <REMARK>
 VINA RESULT:      -7.0      2.480      5.252
  Name = 
  5 active torsions:
  status: ('A' for Active; 'I' for Inactive)
    1  A    between atoms: O_13  and  C_29
    2  A    between atoms: O_15  and  C_26
    3  A    between atoms: C_16  and  C_23
    4  A    between atoms: N_19  and  C_26
    5  A    between atoms: N_22  and  C_23
                            x       y       z     vdW  Elec       q    Type
                         _______ _______ _______ _____ _____    ______ ____

>  <TORSDO>
F 5

$$$$
=
 OpenBabel11052419113D

 32 37  0  0  1  0  0  0  0  0999 V2000
  192.0470  175.5020  145.5940 C   0  0  0  0  0  0  0  0  0  0  0  0
  191.6590  173.2780  144.4020 C   0  0  0  0  0  0  0  0  0  0  0  0
  192.8760  176.3790  146.2830 C   0  0  0  0  0  3  0  0  0  0  0  0
  192.5080  174.2110  145.1410 C   0  0  0  0  0  0  0  0  0  0  0  0
  192.1750  171.9120  144.0170 C   0  0  1  0  0  3  0  0  0  0  0  0
  188.2640  172.7510  139.3970 C   0  0  0  0  0  1  0  0  0  0  0  0
  190.3090  173.5850  144.0180 C   0  0  0  0  0  0  0  0  0  0  0  0
  189.9860  171.9800  140.9150 N   0  0  0  0  0  0  0  0  0  0  0  0
  190.4270  171.9690  142.2370 N   0  0  0  0  0  0  0  0  0  0  0  0
  193.8370  173.8580  145.3970 C   0  0  0  0  0  0  0  0  0  0  0  0
  189.4300  176.0500  144.9080 C   0  0  1  0  0  3  0  0  0  0  0  0
  191.8150  171.6030  142.5520 C   0  0  0  0  0  2  0  0  0  0  0  0
  194.3550  172.6030  144.9410 N   0  0  0  0  0  0  0  0  0  0  0  0
  194.6720  174.7440  146.0930 C   0  0  0  0  0  3  0  0  0  0  0  0
  189.9190  174.8080  144.4790 C   0  0  0  0  0  0  0  0  0  0  0  0
  190.7550  175.7310  145.2380 C   0  0  0  0  0  0  0  0  0  0  0  0
  189.5210  172.6270  143.1800 C   0  0  2  0  0  3  0  0  0  0  0  0
  193.6530  171.6990  144.3160 C   0  0  0  0  0  0  0  0  0  0  0  0
  194.1970  175.9900  146.5340 C   0  0  0  0  0  3  0  0  0  0  0  0
  188.8960  172.6390  140.7370 C   0  0  0  0  0  0  0  0  0  0  0  0
  188.2210  173.4460  142.1830 S   0  0  0  0  0  0  0  0  0  0  0  0
  194.2900  170.4980  143.9840 O   0  0  0  0  0  0  0  0  0  0  0  0
  194.0380  169.2700  144.6520 C   0  0  0  0  0  1  0  0  0  0  0  0
  189.4180  177.0260  143.7450 C   0  0  0  0  0  2  0  0  0  0  0  0
  187.6670  178.1460  142.2950 C   0  0  0  0  0  0  0  0  0  0  0  0
  188.4790  178.2480  141.3380 O   0  0  0  0  0  0  0  0  0  0  0  0
  186.3370  178.6410  142.1390 N   0  0  0  0  0  2  0  0  0  0  0  0
  188.0710  177.5320  143.5240 N   0  0  0  0  0  2  0  0  0  0  0  0
  183.9620  178.2460  142.6450 C   0  0  0  0  0  1  0  0  0  0  0  0
  185.3410  178.5690  143.2050 C   0  0  2  0  0  3  0  0  0  0  0  0
  185.3420  179.7240  144.0190 O   0  0  0  0  0  0  0  0  0  0  0  0
  185.5250  179.3440  145.3590 C   0  0  0  0  0  1  0  0  0  0  0  0
  1  3  1  0  0  0  0
  2  4  1  0  0  0  0
  3 19  2  0  0  0  0
  4 10  1  0  0  0  0
  4  1  2  0  0  0  0
  5 12  1  6  0  0  0
  5 18  1  0  0  0  0
  5  2  1  0  0  0  0
  6 20  1  0  0  0  0
  7  2  2  0  0  0  0
  7 15  1  0  0  0  0
  8  9  1  0  0  0  0
  9 12  1  0  0  0  0
  9 17  1  0  0  0  0
 10 14  2  0  0  0  0
 11 24  1  6  0  0  0
 11 16  1  0  0  0  0
 13 10  1  0  0  0  0
 14 19  1  0  0  0  0
 15 11  1  0  0  0  0
 15 16  2  0  0  0  0
 16  1  1  0  0  0  0
 17 21  1  6  0  0  0
 17  7  1  0  0  0  0
 18 13  2  0  0  0  0
 20  8  2  0  0  0  0
 20 21  1  0  0  0  0
 22 18  1  0  0  0  0
 22 23  1  0  0  0  0
 25 28  1  0  0  0  0
 26 25  2  0  0  0  0
 27 25  1  0  0  0  0
 27 30  1  0  0  0  0
 28 24  1  0  0  0  0
 30 29  1  6  0  0  0
 30 31  1  0  0  0  0
 31 32  1  0  0  0  0
M  END
>  <MODEL>
8

>  <REMARK>
 VINA RESULT:      -7.0      2.572      8.044
  Name = 
  5 active torsions:
  status: ('A' for Active; 'I' for Inactive)
    1  A    between atoms: O_13  and  C_29
    2  A    between atoms: O_15  and  C_26
    3  A    between atoms: C_16  and  C_23
    4  A    between atoms: N_19  and  C_26
    5  A    between atoms: N_22  and  C_23
                            x       y       z     vdW  Elec       q    Type
                         _______ _______ _______ _____ _____    ______ ____

>  <TORSDO>
F 5

$$$$
=
 OpenBabel11052419113D

 32 37  0  0  1  0  0  0  0  0999 V2000
  188.5480  175.8890  144.4980 C   0  0  0  0  0  0  0  0  0  0  0  0
  190.9800  175.1410  144.2800 C   0  0  0  0  0  0  0  0  0  0  0  0
  187.5510  176.5910  145.1650 C   0  0  0  0  0  3  0  0  0  0  0  0
  189.9110  175.8600  144.9730 C   0  0  0  0  0  0  0  0  0  0  0  0
  192.3710  175.0870  144.8630 C   0  0  1  0  0  3  0  0  0  0  0  0
  193.8430  174.7000  138.9450 C   0  0  0  0  0  1  0  0  0  0  0  0
  190.7770  174.4450  143.0400 C   0  0  0  0  0  0  0  0  0  0  0  0
  193.8160  174.9300  141.3550 N   0  0  0  0  0  0  0  0  0  0  0  0
  193.1210  174.6340  142.5270 N   0  0  0  0  0  0  0  0  0  0  0  0
  190.2210  176.5800  146.1310 C   0  0  0  0  0  0  0  0  0  0  0  0
  188.1600  174.4900  142.1500 C   0  0  1  0  0  3  0  0  0  0  0  0
  193.4160  175.3650  143.7680 C   0  0  0  0  0  2  0  0  0  0  0  0
  191.5650  176.6110  146.6270 N   0  0  0  0  0  0  0  0  0  0  0  0
  189.2140  177.2870  146.8040 C   0  0  0  0  0  3  0  0  0  0  0  0
  189.4730  174.4920  142.6410 C   0  0  0  0  0  0  0  0  0  0  0  0
  188.4000  175.1880  143.3420 C   0  0  0  0  0  0  0  0  0  0  0  0
  191.9300  173.8070  142.3290 C   0  0  2  0  0  3  0  0  0  0  0  0
  192.5630  175.9630  146.0950 C   0  0  0  0  0  0  0  0  0  0  0  0
  187.8930  177.2900  146.3280 C   0  0  0  0  0  3  0  0  0  0  0  0
  193.2440  174.4940  140.2890 C   0  0  0  0  0  0  0  0  0  0  0  0
  191.6730  173.6720  140.5200 S   0  0  0  0  0  0  0  0  0  0  0  0
  193.8070  176.0510  146.7300 O   0  0  0  0  0  0  0  0  0  0  0  0
  194.6100  177.2220  146.7140 C   0  0  0  0  0  1  0  0  0  0  0  0
  188.0390  175.4760  141.0010 C   0  0  0  0  0  2  0  0  0  0  0  0
  187.4590  177.8600  141.6300 C   0  0  0  0  0  0  0  0  0  0  0  0
  188.6720  178.1970  141.6010 O   0  0  0  0  0  0  0  0  0  0  0  0
  186.4700  178.8370  141.9600 N   0  0  0  0  0  2  0  0  0  0  0  0
  187.0740  176.5160  141.3270 N   0  0  0  0  0  2  0  0  0  0  0  0
  184.7170  177.7180  143.2760 C   0  0  0  0  0  1  0  0  0  0  0  0
  185.0460  178.5230  142.0250 C   0  0  2  0  0  3  0  0  0  0  0  0
  184.5780  177.9060  140.8420 O   0  0  0  0  0  0  0  0  0  0  0  0
  183.2390  178.2750  140.6280 C   0  0  0  0  0  1  0  0  0  0  0  0
  1  4  2  0  0  0  0
  1  3  1  0  0  0  0
  2  5  1  0  0  0  0
  2  4  1  0  0  0  0
  3 19  2  0  0  0  0
  4 10  1  0  0  0  0
  5 12  1  6  0  0  0
  5 18  1  0  0  0  0
  6 20  1  0  0  0  0
  7  2  2  0  0  0  0
  8  9  1  0  0  0  0
  9 12  1  0  0  0  0
 10 13  1  0  0  0  0
 10 14  2  0  0  0  0
 11 24  1  6  0  0  0
 11 15  1  0  0  0  0
 11 16  1  0  0  0  0
 15  7  1  0  0  0  0
 15 16  2  0  0  0  0
 16  1  1  0  0  0  0
 17 21  1  6  0  0  0
 17  9  1  0  0  0  0
 17  7  1  0  0  0  0
 18 13  2  0  0  0  0
 18 22  1  0  0  0  0
 19 14  1  0  0  0  0
 20 21  1  0  0  0  0
 20  8  2  0  0  0  0
 23 22  1  0  0  0  0
 24 28  1  0  0  0  0
 25 27  1  0  0  0  0
 26 25  2  0  0  0  0
 27 30  1  0  0  0  0
 28 25  1  0  0  0  0
 30 29  1  1  0  0  0
 31 30  1  0  0  0  0
 32 31  1  0  0  0  0
M  END
>  <MODEL>
9

>  <REMARK>
 VINA RESULT:      -7.0      2.338      7.115
  Name = 
  5 active torsions:
  status: ('A' for Active; 'I' for Inactive)
    1  A    between atoms: O_13  and  C_29
    2  A    between atoms: O_15  and  C_26
    3  A    between atoms: C_16  and  C_23
    4  A    between atoms: N_19  and  C_26
    5  A    between atoms: N_22  and  C_23
                            x       y       z     vdW  Elec       q    Type
                         _______ _______ _______ _____ _____    ______ ____

>  <TORSDO>
F 5

$$$$
