=
 OpenBabel11052419033D

 34 38  0  0  1  0  0  0  0  0999 V2000
  194.4940  173.7050  145.3410 C   0  0  0  0  0  0  0  0  0  0  0  0
  193.6680  175.7770  146.5500 C   0  0  2  0  0  3  0  0  0  0  0  0
  192.1020  174.2270  145.2550 C   0  0  0  0  0  0  0  0  0  0  0  0
  190.0040  175.4510  144.5700 C   0  0  0  0  0  2  0  0  0  0  0  0
  194.7850  176.4880  146.1070 O   0  0  0  0  0  1  0  0  0  0  0  0
  191.1760  175.9960  146.7500 C   0  0  2  0  0  3  0  0  0  0  0  0
  193.4190  174.5610  145.6700 C   0  0  0  0  0  0  0  0  0  0  0  0
  190.0350  177.0030  146.8780 C   0  0  0  0  0  2  0  0  0  0  0  0
  188.6290  175.6110  145.2210 C   0  0  0  0  0  2  0  0  0  0  0  0
  191.8770  173.0160  144.5470 C   0  0  0  0  0  0  0  0  0  0  0  0
  194.2590  172.5660  144.5640 C   0  0  0  0  0  3  0  0  0  0  0  0
  192.4890  176.7450  146.6320 C   0  0  0  0  0  2  0  0  0  0  0  0
  188.6950  176.3160  146.5890 C   0  0  2  0  0  3  0  0  0  0  0  0
  191.0220  175.1300  145.5740 N   0  0  0  0  0  0  0  0  0  0  0  0
  192.9710  172.2320  144.1680 C   0  0  0  0  0  3  0  0  0  0  0  0
  190.6480  173.3830  140.2600 C   0  0  0  0  0  0  0  0  0  0  0  0
  189.3400  173.2880  139.9930 C   0  0  0  0  0  3  0  0  0  0  0  0
  190.1620  172.7970  142.6650 C   0  0  2  0  0  0  0  0  0  0  0  0
  188.3380  173.0880  141.0570 C   0  0  0  0  0  3  0  0  0  0  0  0
  191.1750  173.3830  141.6710 C   0  0  0  0  0  2  0  0  0  0  0  0
  190.5680  171.4180  143.1150 C   0  0  0  0  0  2  0  0  0  0  0  0
  188.7080  172.8710  142.3190 C   0  0  0  0  0  3  0  0  0  0  0  0
  190.4980  172.5510  144.1400 C   0  0  1  0  0  3  0  0  0  0  0  0
  191.5970  173.6100  139.1390 C   0  0  0  0  0  1  0  0  0  0  0  0
  195.7860  173.9990  145.7950 O   0  0  0  0  0  0  0  0  0  0  0  0
  196.7440  172.9960  146.1040 C   0  0  0  0  0  1  0  0  0  0  0  0
  187.5790  177.1410  146.8440 O   0  0  0  0  0  0  0  0  0  0  0  0
  186.5290  176.7590  145.9890 C   0  0  0  0  0  2  0  0  0  0  0  0
  185.8090  178.9550  146.6330 O   0  0  0  0  0  1  0  0  0  0  0  0
  185.6140  177.9460  145.6840 C   0  0  1  0  0  3  0  0  0  0  0  0
  184.7750  177.8240  143.3200 C   0  0  0  0  0  1  0  0  0  0  0  0
  185.7670  178.4920  144.2550 C   0  0  0  0  0  0  0  0  0  0  0  0
  187.0630  178.2730  143.7840 O   0  0  0  0  0  1  0  0  0  0  0  0
  185.4860  179.9830  144.2470 C   0  0  0  0  0  1  0  0  0  0  0  0
  1  7  1  0  0  0  0
  1 25  1  0  0  0  0
  2  5  1  6  0  0  0
  2 12  1  0  0  0  0
  3 14  1  0  0  0  0
  3  7  2  0  0  0  0
  4  9  1  0  0  0  0
  4 14  1  0  0  0  0
  6 12  1  6  0  0  0
  6  8  1  0  0  0  0
  7  2  1  0  0  0  0
  9 13  1  0  0  0  0
 10  3  1  0  0  0  0
 11  1  2  0  0  0  0
 13 27  1  6  0  0  0
 13  8  1  0  0  0  0
 14  6  1  0  0  0  0
 15 10  2  0  0  0  0
 15 11  1  0  0  0  0
 16 20  1  0  0  0  0
 17 16  2  0  0  0  0
 17 19  1  0  0  0  0
 18 20  1  6  0  0  0
 18 21  1  0  0  0  0
 18 23  1  0  0  0  0
 19 22  2  0  0  0  0
 21 23  1  0  0  0  0
 22 18  1  0  0  0  0
 23 10  1  6  0  0  0
 24 16  1  0  0  0  0
 25 26  1  0  0  0  0
 28 27  1  0  0  0  0
 30 28  1  0  0  0  0
 30 29  1  1  0  0  0
 31 32  1  0  0  0  0
 32 30  1  0  0  0  0
 33 32  1  0  0  0  0
 34 32  1  0  0  0  0
M  END
>  <MODEL>
1

>  <REMARK>
 VINA RESULT:      -7.4      0.000      0.000
  Name = 
  6 active torsions:
  status: ('A' for Active; 'I' for Inactive)
    1  A    between atoms: C_1  and  O_6
    2  A    between atoms: O_3  and  C_13
    3  A    between atoms: O_3  and  C_29
    4  A    between atoms: C_13  and  C_33
    5  A    between atoms: C_20  and  C_33
    6  A    between atoms: C_21  and  C_28
                            x       y       z     vdW  Elec       q    Type
                         _______ _______ _______ _____ _____    ______ ____

>  <TORSDO>
F 6

$$$$
=
 OpenBabel11052419033D

 34 38  0  0  1  0  0  0  0  0999 V2000
  186.7010  177.9420  145.8980 C   0  0  0  0  0  0  0  0  0  0  0  0
  186.1900  178.2240  143.4290 C   0  0  2  0  0  3  0  0  0  0  0  0
  187.8090  176.4500  144.3030 C   0  0  0  0  0  0  0  0  0  0  0  0
  189.4260  175.7520  142.4950 C   0  0  0  0  0  2  0  0  0  0  0  0
  186.2270  179.6110  143.5730 O   0  0  0  0  0  1  0  0  0  0  0  0
  187.0420  176.4000  141.9300 C   0  0  2  0  0  3  0  0  0  0  0  0
  186.9410  177.5430  144.5650 C   0  0  0  0  0  0  0  0  0  0  0  0
  187.5090  176.0920  140.5090 C   0  0  0  0  0  2  0  0  0  0  0  0
  189.4110  174.6280  141.4580 C   0  0  0  0  0  2  0  0  0  0  0  0
  188.3950  175.7450  145.3890 C   0  0  0  0  0  0  0  0  0  0  0  0
  187.3630  177.2910  146.9450 C   0  0  0  0  0  3  0  0  0  0  0  0
  186.7090  177.8750  142.0350 C   0  0  0  0  0  2  0  0  0  0  0  0
  188.2290  174.7390  140.4750 C   0  0  2  0  0  3  0  0  0  0  0  0
  188.0650  176.0760  142.9320 N   0  0  0  0  0  0  0  0  0  0  0  0
  188.2020  176.2150  146.6920 C   0  0  0  0  0  3  0  0  0  0  0  0
  192.7700  176.0440  146.2830 C   0  0  0  0  0  0  0  0  0  0  0  0
  193.5570  175.0800  145.7920 C   0  0  0  0  0  3  0  0  0  0  0  0
  190.7550  174.7670  145.4600 C   0  0  2  0  0  0  0  0  0  0  0  0
  193.0200  173.9710  144.9800 C   0  0  0  0  0  3  0  0  0  0  0  0
  191.2990  176.1130  145.9610 C   0  0  0  0  0  2  0  0  0  0  0  0
  189.9160  174.0890  146.5120 C   0  0  0  0  0  2  0  0  0  0  0  0
  191.7070  173.8200  144.8030 C   0  0  0  0  0  3  0  0  0  0  0  0
  189.2650  174.5250  145.1980 C   0  0  1  0  0  3  0  0  0  0  0  0
  193.3840  177.1440  147.0710 C   0  0  0  0  0  1  0  0  0  0  0  0
  185.8030  178.9830  146.1650 O   0  0  0  0  0  0  0  0  0  0  0  0
  184.4790  178.7620  146.6330 C   0  0  0  0  0  1  0  0  0  0  0  0
  188.5490  174.3090  139.1700 O   0  0  0  0  0  0  0  0  0  0  0  0
  188.4390  172.9070  139.1150 C   0  0  0  0  0  2  0  0  0  0  0  0
  189.9920  173.3690  137.3450 O   0  0  0  0  0  1  0  0  0  0  0  0
  189.2990  172.3370  137.9870 C   0  0  1  0  0  3  0  0  0  0  0  0
  190.4140  171.2450  139.9550 C   0  0  0  0  0  1  0  0  0  0  0  0
  190.2600  171.2270  138.4440 C   0  0  0  0  0  0  0  0  0  0  0  0
  191.5140  171.3900  137.8520 O   0  0  0  0  0  1  0  0  0  0  0  0
  189.7020  169.8740  138.0480 C   0  0  0  0  0  1  0  0  0  0  0  0
  1 25  1  0  0  0  0
  1 11  1  0  0  0  0
  2  5  1  1  0  0  0
  2  7  1  0  0  0  0
  3  7  1  0  0  0  0
  3 10  2  0  0  0  0
  4 14  1  0  0  0  0
  6  8  1  6  0  0  0
  6 12  1  0  0  0  0
  6 14  1  0  0  0  0
  7  1  2  0  0  0  0
  9  4  1  0  0  0  0
 10 15  1  0  0  0  0
 12  2  1  0  0  0  0
 13 27  1  6  0  0  0
 13  8  1  0  0  0  0
 13  9  1  0  0  0  0
 14  3  1  0  0  0  0
 15 11  2  0  0  0  0
 16 24  1  0  0  0  0
 17 16  2  0  0  0  0
 18 22  1  6  0  0  0
 18 20  1  0  0  0  0
 18 21  1  0  0  0  0
 19 17  1  0  0  0  0
 20 16  1  0  0  0  0
 22 19  2  0  0  0  0
 23 10  1  1  0  0  0
 23 18  1  0  0  0  0
 23 21  1  0  0  0  0
 25 26  1  0  0  0  0
 28 27  1  0  0  0  0
 30 29  1  1  0  0  0
 30 32  1  0  0  0  0
 30 28  1  0  0  0  0
 32 31  1  0  0  0  0
 33 32  1  0  0  0  0
 34 32  1  0  0  0  0
M  END
>  <MODEL>
2

>  <REMARK>
 VINA RESULT:      -7.3      3.049      7.883
  Name = 
  6 active torsions:
  status: ('A' for Active; 'I' for Inactive)
    1  A    between atoms: C_1  and  O_6
    2  A    between atoms: O_3  and  C_13
    3  A    between atoms: O_3  and  C_29
    4  A    between atoms: C_13  and  C_33
    5  A    between atoms: C_20  and  C_33
    6  A    between atoms: C_21  and  C_28
                            x       y       z     vdW  Elec       q    Type
                         _______ _______ _______ _____ _____    ______ ____

>  <TORSDO>
F 6

$$$$
=
 OpenBabel11052419033D

 34 38  0  0  1  0  0  0  0  0999 V2000
  187.7510  177.6780  145.0800 C   0  0  0  0  0  0  0  0  0  0  0  0
  187.2620  176.8080  142.7470 C   0  0  2  0  0  3  0  0  0  0  0  0
  188.9790  175.7110  144.2900 C   0  0  0  0  0  0  0  0  0  0  0  0
  190.6660  174.3960  142.9520 C   0  0  0  0  0  2  0  0  0  0  0  0
  187.2060  178.1160  142.2640 O   0  0  0  0  0  1  0  0  0  0  0  0
  188.2550  174.5700  142.1940 C   0  0  2  0  0  3  0  0  0  0  0  0
  188.0380  176.7490  144.0550 C   0  0  0  0  0  0  0  0  0  0  0  0
  188.7630  173.6980  141.0480 C   0  0  0  0  0  2  0  0  0  0  0  0
  190.7410  172.9310  142.5170 C   0  0  0  0  0  2  0  0  0  0  0  0
  189.5920  175.5980  145.5670 C   0  0  0  0  0  0  0  0  0  0  0  0
  188.4370  177.6010  146.2970 C   0  0  0  0  0  3  0  0  0  0  0  0
  187.8250  175.9150  141.6420 C   0  0  0  0  0  2  0  0  0  0  0  0
  189.5700  172.5200  141.6040 C   0  0  2  0  0  3  0  0  0  0  0  0
  189.2810  174.7900  143.2210 N   0  0  0  0  0  0  0  0  0  0  0  0
  189.3490  176.5800  146.5320 C   0  0  0  0  0  3  0  0  0  0  0  0
  193.9820  176.4550  145.7290 C   0  0  0  0  0  0  0  0  0  0  0  0
  194.8070  175.4010  145.7070 C   0  0  0  0  0  3  0  0  0  0  0  0
  192.0230  174.8700  145.8700 C   0  0  2  0  0  0  0  0  0  0  0  0
  194.3040  174.0170  145.6180 C   0  0  0  0  0  3  0  0  0  0  0  0
  192.4910  176.3020  145.5720 C   0  0  0  0  0  2  0  0  0  0  0  0
  191.3220  174.7880  147.2000 C   0  0  0  0  0  2  0  0  0  0  0  0
  192.9990  173.7530  145.6780 C   0  0  0  0  0  3  0  0  0  0  0  0
  190.5430  174.4780  145.9210 C   0  0  1  0  0  3  0  0  0  0  0  0
  194.5600  177.8220  145.7950 C   0  0  0  0  0  1  0  0  0  0  0  0
  186.7830  178.6690  144.8730 O   0  0  0  0  0  0  0  0  0  0  0  0
  185.5520  178.7070  145.5820 C   0  0  0  0  0  1  0  0  0  0  0  0
  189.9380  171.5800  140.6170 O   0  0  0  0  0  0  0  0  0  0  0  0
  190.6280  172.2500  139.5890 C   0  0  0  0  0  2  0  0  0  0  0  0
  189.5440  170.4720  138.3970 O   0  0  0  0  0  1  0  0  0  0  0  0
  190.3240  171.6220  138.2290 C   0  0  1  0  0  3  0  0  0  0  0  0
  190.5570  173.8050  137.0080 C   0  0  0  0  0  1  0  0  0  0  0  0
  189.6680  172.5940  137.2330 C   0  0  0  0  0  0  0  0  0  0  0  0
  188.4260  173.0170  137.7090 O   0  0  0  0  0  1  0  0  0  0  0  0
  189.4740  171.9010  135.8980 C   0  0  0  0  0  1  0  0  0  0  0  0
  1 11  1  0  0  0  0
  2  5  1  6  0  0  0
  2  7  1  0  0  0  0
  3 10  2  0  0  0  0
  4 14  1  0  0  0  0
  6  8  1  6  0  0  0
  6 14  1  0  0  0  0
  7  3  1  0  0  0  0
  7  1  2  0  0  0  0
  8 13  1  0  0  0  0
  9  4  1  0  0  0  0
 10 15  1  0  0  0  0
 11 15  2  0  0  0  0
 12  6  1  0  0  0  0
 12  2  1  0  0  0  0
 13 27  1  6  0  0  0
 13  9  1  0  0  0  0
 14  3  1  0  0  0  0
 16 24  1  0  0  0  0
 17 16  2  0  0  0  0
 18 20  1  6  0  0  0
 18 23  1  0  0  0  0
 18 21  1  0  0  0  0
 19 22  2  0  0  0  0
 19 17  1  0  0  0  0
 20 16  1  0  0  0  0
 22 18  1  0  0  0  0
 23 10  1  6  0  0  0
 23 21  1  0  0  0  0
 25  1  1  0  0  0  0
 25 26  1  0  0  0  0
 28 27  1  0  0  0  0
 30 29  1  1  0  0  0
 30 28  1  0  0  0  0
 31 32  1  0  0  0  0
 32 33  1  0  0  0  0
 32 30  1  0  0  0  0
 34 32  1  0  0  0  0
M  END
>  <MODEL>
3

>  <REMARK>
 VINA RESULT:      -7.1      3.115      7.669
  Name = 
  6 active torsions:
  status: ('A' for Active; 'I' for Inactive)
    1  A    between atoms: C_1  and  O_6
    2  A    between atoms: O_3  and  C_13
    3  A    between atoms: O_3  and  C_29
    4  A    between atoms: C_13  and  C_33
    5  A    between atoms: C_20  and  C_33
    6  A    between atoms: C_21  and  C_28
                            x       y       z     vdW  Elec       q    Type
                         _______ _______ _______ _____ _____    ______ ____

>  <TORSDO>
F 6

$$$$
=
 OpenBabel11052419033D

 34 38  0  0  1  0  0  0  0  0999 V2000
  191.6600  172.9150  139.9620 C   0  0  0  0  0  0  0  0  0  0  0  0
  189.2920  173.3560  140.7590 C   0  0  2  0  0  3  0  0  0  0  0  0
  191.3110  174.6220  141.6840 C   0  0  0  0  0  0  0  0  0  0  0  0
  190.8010  175.5600  143.9700 C   0  0  0  0  0  2  0  0  0  0  0  0
  189.0270  171.9860  140.7510 O   0  0  0  0  0  1  0  0  0  0  0  0
  188.9940  175.3870  142.2020 C   0  0  2  0  0  3  0  0  0  0  0  0
  190.7900  173.6160  140.8270 C   0  0  0  0  0  0  0  0  0  0  0  0
  188.1350  175.9960  143.3090 C   0  0  0  0  0  2  0  0  0  0  0  0
  190.2630  176.9100  144.4490 C   0  0  0  0  0  2  0  0  0  0  0  0
  192.6950  174.9380  141.6330 C   0  0  0  0  0  0  0  0  0  0  0  0
  193.0340  173.1800  139.9980 C   0  0  0  0  0  3  0  0  0  0  0  0
  188.4920  173.9890  141.8960 C   0  0  0  0  0  2  0  0  0  0  0  0
  188.8470  177.2090  143.9180 C   0  0  2  0  0  3  0  0  0  0  0  0
  190.4100  175.3060  142.5810 N   0  0  0  0  0  0  0  0  0  0  0  0
  193.5420  174.1720  140.8260 C   0  0  0  0  0  3  0  0  0  0  0  0
  195.0850  173.8720  145.2630 C   0  0  0  0  0  0  0  0  0  0  0  0
  195.3240  174.8530  146.1420 C   0  0  0  0  0  3  0  0  0  0  0  0
  194.0400  175.5670  143.7130 C   0  0  2  0  0  0  0  0  0  0  0  0
  194.8160  176.2240  145.9410 C   0  0  0  0  0  3  0  0  0  0  0  0
  194.2040  174.0800  144.0590 C   0  0  0  0  0  2  0  0  0  0  0  0
  194.8360  175.9370  142.4890 C   0  0  0  0  0  2  0  0  0  0  0  0
  194.1970  176.5690  144.8120 C   0  0  0  0  0  3  0  0  0  0  0  0
  193.3120  176.0470  142.4530 C   0  0  1  0  0  3  0  0  0  0  0  0
  195.6080  172.5100  145.5440 C   0  0  0  0  0  1  0  0  0  0  0  0
  191.1460  171.9610  139.0760 O   0  0  0  0  0  0  0  0  0  0  0  0
  191.7740  170.7090  138.8370 C   0  0  0  0  0  1  0  0  0  0  0  0
  188.0480  177.9220  144.8370 O   0  0  0  0  0  0  0  0  0  0  0  0
  186.7300  177.9720  144.3470 C   0  0  0  0  0  2  0  0  0  0  0  0
  185.0770  179.7100  144.2780 O   0  0  0  0  0  1  0  0  0  0  0  0
  185.8890  178.9700  145.1440 C   0  0  1  0  0  3  0  0  0  0  0  0
  185.1920  176.8090  146.2180 C   0  0  0  0  0  1  0  0  0  0  0  0
  185.0570  178.3210  146.2630 C   0  0  0  0  0  0  0  0  0  0  0  0
  183.7110  178.6680  146.1350 O   0  0  0  0  0  1  0  0  0  0  0  0
  185.5610  178.7960  147.6120 C   0  0  0  0  0  1  0  0  0  0  0  0
  1 11  2  0  0  0  0
  1  7  1  0  0  0  0
  2  5  1  1  0  0  0
  2  7  1  0  0  0  0
  2 12  1  0  0  0  0
  3 14  1  0  0  0  0
  4  9  1  0  0  0  0
  6 12  1  1  0  0  0
  6 14  1  0  0  0  0
  6  8  1  0  0  0  0
  7  3  2  0  0  0  0
  8 13  1  0  0  0  0
 10  3  1  0  0  0  0
 11 15  1  0  0  0  0
 13  9  1  0  0  0  0
 13 27  1  1  0  0  0
 14  4  1  0  0  0  0
 15 10  2  0  0  0  0
 16 24  1  0  0  0  0
 16 17  2  0  0  0  0
 18 21  1  6  0  0  0
 18 20  1  0  0  0  0
 18 22  1  0  0  0  0
 19 17  1  0  0  0  0
 20 16  1  0  0  0  0
 22 19  2  0  0  0  0
 23 10  1  6  0  0  0
 23 21  1  0  0  0  0
 23 18  1  0  0  0  0
 25  1  1  0  0  0  0
 26 25  1  0  0  0  0
 28 27  1  0  0  0  0
 28 30  1  0  0  0  0
 30 29  1  6  0  0  0
 30 32  1  0  0  0  0
 31 32  1  0  0  0  0
 32 34  1  0  0  0  0
 33 32  1  0  0  0  0
M  END
>  <MODEL>
4

>  <REMARK>
 VINA RESULT:      -7.1      2.684      5.442
  Name = 
  6 active torsions:
  status: ('A' for Active; 'I' for Inactive)
    1  A    between atoms: C_1  and  O_6
    2  A    between atoms: O_3  and  C_13
    3  A    between atoms: O_3  and  C_29
    4  A    between atoms: C_13  and  C_33
    5  A    between atoms: C_20  and  C_33
    6  A    between atoms: C_21  and  C_28
                            x       y       z     vdW  Elec       q    Type
                         _______ _______ _______ _____ _____    ______ ____

>  <TORSDO>
F 6

$$$$
=
 OpenBabel11052419033D

 34 38  0  0  1  0  0  0  0  0999 V2000
  187.3890  177.8290  145.0010 C   0  0  0  0  0  0  0  0  0  0  0  0
  187.0370  177.2960  142.5450 C   0  0  2  0  0  3  0  0  0  0  0  0
  188.5950  175.9270  144.0390 C   0  0  0  0  0  0  0  0  0  0  0  0
  190.3230  174.7190  142.6520 C   0  0  0  0  0  2  0  0  0  0  0  0
  187.0660  178.6580  142.2390 O   0  0  0  0  0  1  0  0  0  0  0  0
  187.9810  175.1060  141.7650 C   0  0  2  0  0  3  0  0  0  0  0  0
  187.7130  177.0300  143.8830 C   0  0  0  0  0  0  0  0  0  0  0  0
  188.5370  174.3680  140.5490 C   0  0  0  0  0  2  0  0  0  0  0  0
  190.3730  173.3220  142.0310 C   0  0  0  0  0  2  0  0  0  0  0  0
  189.1090  175.6190  145.3270 C   0  0  0  0  0  0  0  0  0  0  0  0
  187.9820  177.5620  146.2390 C   0  0  0  0  0  3  0  0  0  0  0  0
  187.6430  176.5300  141.3710 C   0  0  0  0  0  2  0  0  0  0  0  0
  189.2560  173.0900  140.9950 C   0  0  2  0  0  3  0  0  0  0  0  0
  188.9380  175.1400  142.8780 N   0  0  0  0  0  0  0  0  0  0  0  0
  188.8350  176.4770  146.3960 C   0  0  0  0  0  3  0  0  0  0  0  0
  193.5160  176.2290  145.8170 C   0  0  0  0  0  0  0  0  0  0  0  0
  194.2950  175.1460  145.7090 C   0  0  0  0  0  3  0  0  0  0  0  0
  191.4850  174.7390  145.6640 C   0  0  2  0  0  0  0  0  0  0  0  0
  193.7380  173.8080  145.4270 C   0  0  0  0  0  3  0  0  0  0  0  0
  192.0310  176.1710  145.5660 C   0  0  0  0  0  2  0  0  0  0  0  0
  190.7070  174.5340  146.9360 C   0  0  0  0  0  2  0  0  0  0  0  0
  192.4210  173.6060  145.3870 C   0  0  0  0  0  3  0  0  0  0  0  0
  189.9890  174.4190  145.5910 C   0  0  1  0  0  3  0  0  0  0  0  0
  194.1490  177.5480  146.0770 C   0  0  0  0  0  1  0  0  0  0  0  0
  186.4770  178.8840  144.8650 O   0  0  0  0  0  0  0  0  0  0  0  0
  185.2880  178.9810  145.6360 C   0  0  0  0  0  1  0  0  0  0  0  0
  189.6590  172.2710  139.9180 O   0  0  0  0  0  0  0  0  0  0  0  0
  190.9010  171.6890  140.2310 C   0  0  0  0  0  2  0  0  0  0  0  0
  190.6430  169.6720  138.9570 O   0  0  0  0  0  1  0  0  0  0  0  0
  190.7970  170.1640  140.2580 C   0  0  1  0  0  3  0  0  0  0  0  0
  191.4650  168.4660  141.9850 C   0  0  0  0  0  1  0  0  0  0  0  0
  191.9740  169.4780  140.9730 C   0  0  0  0  0  0  0  0  0  0  0  0
  192.7680  170.4230  141.6250 O   0  0  0  0  0  1  0  0  0  0  0  0
  192.8240  168.7370  139.9580 C   0  0  0  0  0  1  0  0  0  0  0  0
  1 11  1  0  0  0  0
  2  5  1  6  0  0  0
  2  7  1  0  0  0  0
  3 10  2  0  0  0  0
  4 14  1  0  0  0  0
  6  8  1  6  0  0  0
  6 14  1  0  0  0  0
  7  3  1  0  0  0  0
  7  1  2  0  0  0  0
  8 13  1  0  0  0  0
  9  4  1  0  0  0  0
 10 15  1  0  0  0  0
 11 15  2  0  0  0  0
 12  6  1  0  0  0  0
 12  2  1  0  0  0  0
 13 27  1  6  0  0  0
 13  9  1  0  0  0  0
 14  3  1  0  0  0  0
 16 24  1  0  0  0  0
 17 16  2  0  0  0  0
 18 22  1  6  0  0  0
 18 21  1  0  0  0  0
 19 17  1  0  0  0  0
 20 18  1  0  0  0  0
 20 16  1  0  0  0  0
 22 19  2  0  0  0  0
 23 10  1  1  0  0  0
 23 18  1  0  0  0  0
 23 21  1  0  0  0  0
 25  1  1  0  0  0  0
 25 26  1  0  0  0  0
 27 28  1  0  0  0  0
 28 30  1  0  0  0  0
 30 29  1  6  0  0  0
 30 32  1  0  0  0  0
 32 33  1  0  0  0  0
 32 31  1  0  0  0  0
 34 32  1  0  0  0  0
M  END
>  <MODEL>
5

>  <REMARK>
 VINA RESULT:      -6.7      3.055      8.047
  Name = 
  6 active torsions:
  status: ('A' for Active; 'I' for Inactive)
    1  A    between atoms: C_1  and  O_6
    2  A    between atoms: O_3  and  C_13
    3  A    between atoms: O_3  and  C_29
    4  A    between atoms: C_13  and  C_33
    5  A    between atoms: C_20  and  C_33
    6  A    between atoms: C_21  and  C_28
                            x       y       z     vdW  Elec       q    Type
                         _______ _______ _______ _____ _____    ______ ____

>  <TORSDO>
F 6

$$$$
=
 OpenBabel11052419033D

 34 38  0  0  1  0  0  0  0  0999 V2000
  192.7780  175.2450  145.1520 C   0  0  0  0  0  0  0  0  0  0  0  0
  192.7040  173.0910  143.8140 C   0  0  2  0  0  3  0  0  0  0  0  0
  191.0130  174.9780  143.4750 C   0  0  0  0  0  0  0  0  0  0  0  0
  188.8850  174.0920  142.4470 C   0  0  0  0  0  2  0  0  0  0  0  0
  193.0020  172.3590  144.9640 O   0  0  0  0  0  1  0  0  0  0  0  0
  191.1340  173.0840  141.8560 C   0  0  2  0  0  3  0  0  0  0  0  0
  192.1330  174.4550  144.1760 C   0  0  0  0  0  0  0  0  0  0  0  0
  190.2720  172.1840  140.9720 C   0  0  0  0  0  2  0  0  0  0  0  0
  188.3990  173.9600  141.0020 C   0  0  0  0  0  2  0  0  0  0  0  0
  190.5810  176.3050  143.7370 C   0  0  0  0  0  0  0  0  0  0  0  0
  192.2760  176.5150  145.4580 C   0  0  0  0  0  3  0  0  0  0  0  0
  191.7900  172.2410  142.9320 C   0  0  0  0  0  2  0  0  0  0  0  0
  189.2930  173.0350  140.1550 C   0  0  2  0  0  3  0  0  0  0  0  0
  190.3490  174.1430  142.5020 N   0  0  0  0  0  0  0  0  0  0  0  0
  191.1890  177.0320  144.7650 C   0  0  0  0  0  3  0  0  0  0  0  0
  186.6470  176.8830  145.7920 C   0  0  0  0  0  0  0  0  0  0  0  0
  185.5890  177.1440  145.0150 C   0  0  0  0  0  3  0  0  0  0  0  0
  188.1320  177.0360  143.7570 C   0  0  2  0  0  0  0  0  0  0  0  0
  185.7000  177.2250  143.5460 C   0  0  0  0  0  3  0  0  0  0  0  0
  188.0010  176.5640  145.2120 C   0  0  0  0  0  2  0  0  0  0  0  0
  189.0030  178.2600  143.6530 C   0  0  0  0  0  2  0  0  0  0  0  0
  186.8850  177.1600  142.9400 C   0  0  0  0  0  3  0  0  0  0  0  0
  189.4500  176.9620  142.9800 C   0  0  1  0  0  3  0  0  0  0  0  0
  186.4560  176.7910  147.2630 C   0  0  0  0  0  1  0  0  0  0  0  0
  193.9160  174.7570  145.8060 O   0  0  0  0  0  0  0  0  0  0  0  0
  195.2140  175.2990  145.6090 C   0  0  0  0  0  1  0  0  0  0  0  0
  188.5730  172.2910  139.1960 O   0  0  0  0  0  0  0  0  0  0  0  0
  188.8530  172.8080  137.9180 C   0  0  0  0  0  2  0  0  0  0  0  0
  189.3150  171.4120  136.0220 O   0  0  0  0  0  1  0  0  0  0  0  0
  189.8780  171.9370  137.1900 C   0  0  1  0  0  3  0  0  0  0  0  0
  191.0420  174.1600  137.0800 C   0  0  0  0  0  1  0  0  0  0  0  0
  191.2000  172.6620  136.8900 C   0  0  0  0  0  0  0  0  0  0  0  0
  191.6130  172.4040  135.5810 O   0  0  0  0  0  1  0  0  0  0  0  0
  192.2740  172.1800  137.8470 C   0  0  0  0  0  1  0  0  0  0  0  0
  1 11  1  0  0  0  0
  1 25  1  0  0  0  0
  2  7  1  0  0  0  0
  2  5  1  1  0  0  0
  3 10  2  0  0  0  0
  3  7  1  0  0  0  0
  4 14  1  0  0  0  0
  6  8  1  1  0  0  0
  6 14  1  0  0  0  0
  6 12  1  0  0  0  0
  7  1  2  0  0  0  0
  9  4  1  0  0  0  0
 10 15  1  0  0  0  0
 12  2  1  0  0  0  0
 13 27  1  1  0  0  0
 13  8  1  0  0  0  0
 13  9  1  0  0  0  0
 14  3  1  0  0  0  0
 15 11  2  0  0  0  0
 16 24  1  0  0  0  0
 17 16  2  0  0  0  0
 18 22  1  6  0  0  0
 18 20  1  0  0  0  0
 19 17  1  0  0  0  0
 20 16  1  0  0  0  0
 21 18  1  0  0  0  0
 22 19  2  0  0  0  0
 23 21  1  0  0  0  0
 23 10  1  1  0  0  0
 23 18  1  0  0  0  0
 26 25  1  0  0  0  0
 28 27  1  0  0  0  0
 30 29  1  6  0  0  0
 30 28  1  0  0  0  0
 32 31  1  0  0  0  0
 32 30  1  0  0  0  0
 32 34  1  0  0  0  0
 33 32  1  0  0  0  0
M  END
>  <MODEL>
6

>  <REMARK>
 VINA RESULT:      -6.6      3.436      7.055
  Name = 
  6 active torsions:
  status: ('A' for Active; 'I' for Inactive)
    1  A    between atoms: C_1  and  O_6
    2  A    between atoms: O_3  and  C_13
    3  A    between atoms: O_3  and  C_29
    4  A    between atoms: C_13  and  C_33
    5  A    between atoms: C_20  and  C_33
    6  A    between atoms: C_21  and  C_28
                            x       y       z     vdW  Elec       q    Type
                         _______ _______ _______ _____ _____    ______ ____

>  <TORSDO>
F 6

$$$$
=
 OpenBabel11052419033D

 34 38  0  0  1  0  0  0  0  0999 V2000
  186.8330  176.7990  143.7720 C   0  0  0  0  0  0  0  0  0  0  0  0
  188.3610  177.7000  145.5860 C   0  0  2  0  0  3  0  0  0  0  0  0
  188.9620  175.6570  144.1720 C   0  0  0  0  0  0  0  0  0  0  0  0
  190.6430  174.2080  145.3730 C   0  0  0  0  0  2  0  0  0  0  0  0
  187.2590  177.9150  146.4160 O   0  0  0  0  0  1  0  0  0  0  0  0
  190.6740  176.7280  145.6370 C   0  0  2  0  0  3  0  0  0  0  0  0
  188.0320  176.6770  144.5080 C   0  0  0  0  0  0  0  0  0  0  0  0
  191.8580  176.4150  146.5500 C   0  0  0  0  0  2  0  0  0  0  0  0
  192.1720  174.1490  145.3560 C   0  0  0  0  0  2  0  0  0  0  0  0
  188.6930  174.7980  143.0740 C   0  0  0  0  0  0  0  0  0  0  0  0
  186.5480  175.8820  142.7550 C   0  0  0  0  0  3  0  0  0  0  0  0
  189.5530  177.3250  146.4650 C   0  0  0  0  0  2  0  0  0  0  0  0
  192.8240  175.4560  145.8450 C   0  0  2  0  0  3  0  0  0  0  0  0
  190.1680  175.5300  144.9560 N   0  0  0  0  0  0  0  0  0  0  0  0
  187.4620  174.8920  142.4170 C   0  0  0  0  0  3  0  0  0  0  0  0
  188.7850  173.7140  138.7320 C   0  0  0  0  0  0  0  0  0  0  0  0
  189.3920  172.5670  138.4050 C   0  0  0  0  0  3  0  0  0  0  0  0
  189.5530  173.3990  141.1150 C   0  0  2  0  0  0  0  0  0  0  0  0
  189.9940  171.6850  139.4230 C   0  0  0  0  0  3  0  0  0  0  0  0
  188.5950  174.1340  140.1670 C   0  0  0  0  0  2  0  0  0  0  0  0
  190.6590  174.3050  141.5880 C   0  0  0  0  0  2  0  0  0  0  0  0
  190.0620  172.0550  140.7020 C   0  0  0  0  0  3  0  0  0  0  0  0
  189.6650  173.7410  142.6040 C   0  0  1  0  0  3  0  0  0  0  0  0
  188.1790  174.5410  137.6560 C   0  0  0  0  0  1  0  0  0  0  0  0
  185.9380  177.8370  144.0610 O   0  0  0  0  0  0  0  0  0  0  0  0
  185.8120  178.9980  143.2520 C   0  0  0  0  0  1  0  0  0  0  0  0
  194.0230  175.2460  146.5600 O   0  0  0  0  0  0  0  0  0  0  0  0
  195.1000  175.2660  145.6540 C   0  0  0  0  0  2  0  0  0  0  0  0
  195.4850  177.5470  145.0150 O   0  0  0  0  0  1  0  0  0  0  0  0
  194.8990  176.3480  144.5930 C   0  0  1  0  0  3  0  0  0  0  0  0
  195.9050  174.5110  143.2060 C   0  0  0  0  0  1  0  0  0  0  0  0
  195.4070  175.9460  143.1980 C   0  0  0  0  0  0  0  0  0  0  0  0
  196.4420  176.7910  142.7910 O   0  0  0  0  0  1  0  0  0  0  0  0
  194.2720  176.0410  142.1960 C   0  0  0  0  0  1  0  0  0  0  0  0
  1 25  1  0  0  0  0
  1  7  1  0  0  0  0
  2  5  1  1  0  0  0
  2 12  1  0  0  0  0
  3  7  2  0  0  0  0
  3 14  1  0  0  0  0
  6 12  1  1  0  0  0
  6  8  1  0  0  0  0
  7  2  1  0  0  0  0
  9  4  1  0  0  0  0
  9 13  1  0  0  0  0
 10  3  1  0  0  0  0
 11  1  2  0  0  0  0
 13  8  1  0  0  0  0
 13 27  1  1  0  0  0
 14  4  1  0  0  0  0
 14  6  1  0  0  0  0
 15 11  1  0  0  0  0
 15 10  2  0  0  0  0
 16 20  1  0  0  0  0
 17 16  2  0  0  0  0
 17 19  1  0  0  0  0
 18 20  1  6  0  0  0
 18 21  1  0  0  0  0
 18 23  1  0  0  0  0
 19 22  2  0  0  0  0
 21 23  1  0  0  0  0
 22 18  1  0  0  0  0
 23 10  1  6  0  0  0
 24 16  1  0  0  0  0
 26 25  1  0  0  0  0
 28 27  1  0  0  0  0
 30 29  1  1  0  0  0
 30 28  1  0  0  0  0
 32 31  1  0  0  0  0
 32 30  1  0  0  0  0
 33 32  1  0  0  0  0
 34 32  1  0  0  0  0
M  END
>  <MODEL>
7

>  <REMARK>
 VINA RESULT:      -6.4      1.903      6.568
  Name = 
  6 active torsions:
  status: ('A' for Active; 'I' for Inactive)
    1  A    between atoms: C_1  and  O_6
    2  A    between atoms: O_3  and  C_13
    3  A    between atoms: O_3  and  C_29
    4  A    between atoms: C_13  and  C_33
    5  A    between atoms: C_20  and  C_33
    6  A    between atoms: C_21  and  C_28
                            x       y       z     vdW  Elec       q    Type
                         _______ _______ _______ _____ _____    ______ ____

>  <TORSDO>
F 6

$$$$
=
 OpenBabel11052419033D

 34 38  0  0  1  0  0  0  0  0999 V2000
  191.3770  176.3260  144.8720 C   0  0  0  0  0  0  0  0  0  0  0  0
  191.8690  174.0160  143.9450 C   0  0  2  0  0  3  0  0  0  0  0  0
  190.0410  175.5220  142.9830 C   0  0  0  0  0  0  0  0  0  0  0  0
  188.3070  174.1500  141.7680 C   0  0  0  0  0  2  0  0  0  0  0  0
  192.0260  173.5220  145.2410 O   0  0  0  0  0  1  0  0  0  0  0  0
  190.7440  173.4570  141.7730 C   0  0  2  0  0  3  0  0  0  0  0  0
  191.0560  175.3030  143.9530 C   0  0  0  0  0  0  0  0  0  0  0  0
  190.2090  172.3060  140.9240 C   0  0  0  0  0  2  0  0  0  0  0  0
  188.1460  173.7270  140.3070 C   0  0  0  0  0  2  0  0  0  0  0  0
  189.3880  176.7820  142.9260 C   0  0  0  0  0  0  0  0  0  0  0  0
  190.6550  177.5240  144.8550 C   0  0  0  0  0  3  0  0  0  0  0  0
  191.2780  172.9040  143.0800 C   0  0  0  0  0  2  0  0  0  0  0  0
  189.3100  172.8500  139.8080 C   0  0  2  0  0  3  0  0  0  0  0  0
  189.7080  174.4530  142.0720 N   0  0  0  0  0  0  0  0  0  0  0  0
  189.6710  177.7440  143.9000 C   0  0  0  0  0  3  0  0  0  0  0  0
  185.4850  178.5490  144.2200 C   0  0  0  0  0  0  0  0  0  0  0  0
  184.4820  178.5210  143.3340 C   0  0  0  0  0  3  0  0  0  0  0  0
  187.0320  177.6460  142.4430 C   0  0  2  0  0  0  0  0  0  0  0  0
  184.6410  177.9230  141.9940 C   0  0  0  0  0  3  0  0  0  0  0  0
  186.8120  177.8910  143.9420 C   0  0  0  0  0  2  0  0  0  0  0  0
  188.0320  178.6150  141.8690 C   0  0  0  0  0  2  0  0  0  0  0  0
  185.8280  177.4940  141.5680 C   0  0  0  0  0  3  0  0  0  0  0  0
  188.3550  177.1210  141.8770 C   0  0  1  0  0  3  0  0  0  0  0  0
  185.2460  179.1440  145.5610 C   0  0  0  0  0  1  0  0  0  0  0  0
  192.4150  176.1370  145.7940 O   0  0  0  0  0  0  0  0  0  0  0  0
  192.2750  176.4110  147.1820 C   0  0  0  0  0  1  0  0  0  0  0  0
  188.9070  171.8630  138.8840 O   0  0  0  0  0  0  0  0  0  0  0  0
  189.9570  170.9410  138.7200 C   0  0  0  0  0  2  0  0  0  0  0  0
  189.6450  171.6500  136.4490 O   0  0  0  0  0  1  0  0  0  0  0  0
  190.5580  171.0430  137.3180 C   0  0  1  0  0  3  0  0  0  0  0  0
  192.7740  171.3400  138.4630 C   0  0  0  0  0  1  0  0  0  0  0  0
  191.9180  171.7590  137.2800 C   0  0  0  0  0  0  0  0  0  0  0  0
  191.7420  173.1440  137.3070 O   0  0  0  0  0  1  0  0  0  0  0  0
  192.6580  171.3820  136.0110 C   0  0  0  0  0  1  0  0  0  0  0  0
  1 25  1  0  0  0  0
  2  7  1  0  0  0  0
  2  5  1  1  0  0  0
  3  7  1  0  0  0  0
  4 14  1  0  0  0  0
  6  8  1  6  0  0  0
  6 14  1  0  0  0  0
  6 12  1  0  0  0  0
  7  1  2  0  0  0  0
  9  4  1  0  0  0  0
 10  3  2  0  0  0  0
 10 15  1  0  0  0  0
 11  1  1  0  0  0  0
 12  2  1  0  0  0  0
 13 27  1  1  0  0  0
 13  9  1  0  0  0  0
 13  8  1  0  0  0  0
 14  3  1  0  0  0  0
 15 11  2  0  0  0  0
 16 24  1  0  0  0  0
 17 16  2  0  0  0  0
 18 22  1  6  0  0  0
 18 20  1  0  0  0  0
 19 17  1  0  0  0  0
 20 16  1  0  0  0  0
 21 23  1  0  0  0  0
 21 18  1  0  0  0  0
 22 19  2  0  0  0  0
 23 18  1  0  0  0  0
 23 10  1  1  0  0  0
 25 26  1  0  0  0  0
 28 27  1  0  0  0  0
 30 29  1  6  0  0  0
 30 28  1  0  0  0  0
 32 33  1  0  0  0  0
 32 30  1  0  0  0  0
 32 31  1  0  0  0  0
 34 32  1  0  0  0  0
M  END
>  <MODEL>
8

>  <REMARK>
 VINA RESULT:      -6.2      3.492      7.629
  Name = 
  6 active torsions:
  status: ('A' for Active; 'I' for Inactive)
    1  A    between atoms: C_1  and  O_6
    2  A    between atoms: O_3  and  C_13
    3  A    between atoms: O_3  and  C_29
    4  A    between atoms: C_13  and  C_33
    5  A    between atoms: C_20  and  C_33
    6  A    between atoms: C_21  and  C_28
                            x       y       z     vdW  Elec       q    Type
                         _______ _______ _______ _____ _____    ______ ____

>  <TORSDO>
F 6

$$$$
=
 OpenBabel11052419033D

 34 38  0  0  1  0  0  0  0  0999 V2000
  187.1150  175.8900  138.3510 C   0  0  0  0  0  0  0  0  0  0  0  0
  188.3610  173.6970  138.6290 C   0  0  2  0  0  3  0  0  0  0  0  0
  188.0260  175.3410  140.5580 C   0  0  0  0  0  0  0  0  0  0  0  0
  189.7810  174.9940  142.3370 C   0  0  0  0  0  2  0  0  0  0  0  0
  188.9840  173.8880  137.3940 O   0  0  0  0  0  1  0  0  0  0  0  0
  188.8870  173.0410  140.9930 C   0  0  2  0  0  3  0  0  0  0  0  0
  187.8500  175.0190  139.1850 C   0  0  0  0  0  0  0  0  0  0  0  0
  189.8650  172.2550  141.8640 C   0  0  0  0  0  2  0  0  0  0  0  0
  189.8220  174.1520  143.6140 C   0  0  0  0  0  2  0  0  0  0  0  0
  187.4250  176.5160  141.0840 C   0  0  0  0  0  0  0  0  0  0  0  0
  186.6120  177.0870  138.8720 C   0  0  0  0  0  3  0  0  0  0  0  0
  189.3380  172.9640  139.5470 C   0  0  0  0  0  2  0  0  0  0  0  0
  189.6850  172.6420  143.3360 C   0  0  2  0  0  3  0  0  0  0  0  0
  188.8060  174.4530  141.3860 N   0  0  0  0  0  0  0  0  0  0  0  0
  186.7730  177.3970  140.2160 C   0  0  0  0  0  3  0  0  0  0  0  0
  183.9030  178.5130  142.9900 C   0  0  0  0  0  0  0  0  0  0  0  0
  184.1120  179.1260  144.1610 C   0  0  0  0  0  3  0  0  0  0  0  0
  186.2660  177.6340  143.0690 C   0  0  2  0  0  0  0  0  0  0  0  0
  185.4440  179.1610  144.7970 C   0  0  0  0  0  3  0  0  0  0  0  0
  185.0290  177.8980  142.2000 C   0  0  0  0  0  2  0  0  0  0  0  0
  186.4260  176.1650  143.3630 C   0  0  0  0  0  2  0  0  0  0  0  0
  186.4680  178.4780  144.2860 C   0  0  0  0  0  3  0  0  0  0  0  0
  187.4980  176.8870  142.5460 C   0  0  1  0  0  3  0  0  0  0  0  0
  182.5400  178.5400  142.3970 C   0  0  0  0  0  1  0  0  0  0  0  0
  186.8910  175.5510  137.0110 O   0  0  0  0  0  0  0  0  0  0  0  0
  187.1070  176.4580  135.9380 C   0  0  0  0  0  1  0  0  0  0  0  0
  190.4400  171.8430  144.2200 O   0  0  0  0  0  0  0  0  0  0  0  0
  191.6520  171.4960  143.5940 C   0  0  0  0  0  2  0  0  0  0  0  0
  193.7580  170.5850  144.2950 O   0  0  0  0  0  1  0  0  0  0  0  0
  192.8190  171.5830  144.5780 C   0  0  1  0  0  3  0  0  0  0  0  0
  194.9290  172.8510  145.0770 C   0  0  0  0  0  1  0  0  0  0  0  0
  193.4830  172.9690  144.6280 C   0  0  0  0  0  0  0  0  0  0  0  0
  192.7940  173.8090  145.5060 O   0  0  0  0  0  1  0  0  0  0  0  0
  193.4720  173.5890  143.2440 C   0  0  0  0  0  1  0  0  0  0  0  0
  1 11  2  0  0  0  0
  1  7  1  0  0  0  0
  2  5  1  6  0  0  0
  2  7  1  0  0  0  0
  2 12  1  0  0  0  0
  3 10  1  0  0  0  0
  3 14  1  0  0  0  0
  4  9  1  0  0  0  0
  6 12  1  6  0  0  0
  6 14  1  0  0  0  0
  6  8  1  0  0  0  0
  7  3  2  0  0  0  0
  8 13  1  0  0  0  0
 11 15  1  0  0  0  0
 13  9  1  0  0  0  0
 13 27  1  1  0  0  0
 14  4  1  0  0  0  0
 15 10  2  0  0  0  0
 16 17  2  0  0  0  0
 17 19  1  0  0  0  0
 18 20  1  6  0  0  0
 18 21  1  0  0  0  0
 18 22  1  0  0  0  0
 20 16  1  0  0  0  0
 22 19  2  0  0  0  0
 23 10  1  6  0  0  0
 23 18  1  0  0  0  0
 23 21  1  0  0  0  0
 24 16  1  0  0  0  0
 25  1  1  0  0  0  0
 26 25  1  0  0  0  0
 28 27  1  0  0  0  0
 28 30  1  0  0  0  0
 30 29  1  6  0  0  0
 30 32  1  0  0  0  0
 32 31  1  0  0  0  0
 32 33  1  0  0  0  0
 34 32  1  0  0  0  0
M  END
>  <MODEL>
9

>  <REMARK>
 VINA RESULT:      -6.1      3.246      8.616
  Name = 
  6 active torsions:
  status: ('A' for Active; 'I' for Inactive)
    1  A    between atoms: C_1  and  O_6
    2  A    between atoms: O_3  and  C_13
    3  A    between atoms: O_3  and  C_29
    4  A    between atoms: C_13  and  C_33
    5  A    between atoms: C_20  and  C_33
    6  A    between atoms: C_21  and  C_28
                            x       y       z     vdW  Elec       q    Type
                         _______ _______ _______ _____ _____    ______ ____

>  <TORSDO>
F 6

$$$$
