=
 OpenBabel11052419433D

 55 60  0  0  1  0  0  0  0  0999 V2000
  191.5600  173.7930  141.0500 O   0  0  0  0  0  0  0  0  0  0  0  0
  189.0330  173.0170  139.0440 C   0  0  0  0  0  2  0  0  0  0  0  0
  190.2230  173.4900  135.4550 C   0  0  0  0  0  1  0  0  0  0  0  0
  193.3020  173.0380  135.4650 C   0  0  0  0  0  2  0  0  0  0  0  0
  195.8380  173.0930  134.9670 C   0  0  0  0  0  2  0  0  0  0  0  0
  194.9470  173.7280  137.2000 C   0  0  0  0  0  0  0  0  0  0  0  0
  195.8130  174.1700  136.0590 C   0  0  0  0  0  2  0  0  0  0  0  0
  191.5120  174.0600  137.5100 C   0  0  0  0  0  2  0  0  0  0  0  0
  194.4360  172.6280  134.5130 C   0  0  0  0  0  2  0  0  0  0  0  0
  190.8290  173.0890  143.2360 C   0  0  0  0  0  2  0  0  0  0  0  0
  193.7250  172.8840  136.9290 C   0  0  1  0  0  3  0  0  0  0  0  0
  188.8460  174.9310  142.3760 C   0  0  2  0  0  3  0  0  0  0  0  0
  192.1710  172.7840  140.3100 C   0  0  0  0  0  2  0  0  0  0  0  0
  189.1510  173.7510  141.4420 C   0  0  1  0  0  3  0  0  0  0  0  0
  194.3100  173.8660  139.5180 C   0  0  2  0  0  3  0  0  0  0  0  0
  189.0340  174.2090  139.9850 C   0  0  0  0  0  2  0  0  0  0  0  0
  195.1640  174.1790  138.3970 N   0  0  0  0  0  0  0  0  0  0  0  0
  189.0460  173.5100  137.6120 C   0  0  0  0  0  2  0  0  0  0  0  0
  190.3720  173.2110  136.9350 C   0  0  1  0  0  3  0  0  0  0  0  0
  190.6730  174.3660  143.7940 O   0  0  0  0  0  0  0  0  0  0  0  0
  190.5350  173.1260  141.7310 C   0  0  1  0  0  3  0  0  0  0  0  0
  192.6650  173.2310  137.8910 N   0  0  1  0  0  0  0  0  0  0  0  0
  193.0810  173.3370  139.2620 C   0  0  1  0  0  3  0  0  0  0  0  0
  189.2960  174.6080  143.8000 C   0  0  0  0  0  2  0  0  0  0  0  0
  194.7710  175.5370  141.2890 C   0  0  0  0  0  3  0  0  0  0  0  0
  195.5100  174.8830  143.6150 C   0  0  1  0  0  3  0  0  0  0  0  0
  195.2420  173.1630  141.8070 C   0  0  0  0  0  2  0  0  0  0  0  0
  196.1260  173.6530  142.9540 C   0  0  0  0  0  2  0  0  0  0  0  0
  195.3770  176.0010  142.5830 C   0  0  0  0  0  2  0  0  0  0  0  0
  194.7990  174.2650  140.8700 C   0  0  0  0  0  0  0  0  0  0  0  0
  194.2590  174.5800  144.1620 O   0  0  0  0  0  0  0  0  0  0  0  0
  193.8130  175.7760  144.7270 C   0  0  0  0  0  2  0  0  0  0  0  0
  194.2140  175.8220  146.1860 C   0  0  0  0  0  1  0  0  0  0  0  0
  187.3560  175.2330  142.3640 C   0  0  0  0  0  2  0  0  0  0  0  0
  186.6990  177.1080  138.2940 O   0  0  0  0  0  0  0  0  0  0  0  0
  186.6190  177.0660  139.5260 C   0  0  0  0  0  0  0  0  0  0  0  0
  185.7300  176.9990  142.1260 C   0  0  1  0  0  3  0  0  0  0  0  0
  186.5340  176.9990  140.8260 C   0  0  0  0  0  0  0  0  0  0  0  0
  187.1300  176.7250  142.2110 C   0  0  2  0  0  3  0  0  0  0  0  0
  185.3510  178.4200  142.5780 C   0  0  2  0  0  3  0  0  0  0  0  0
  186.4250  179.3190  142.5020 O   0  0  0  0  0  1  0  0  0  0  0  0
  184.7650  178.4220  143.9910 C   0  0  2  0  0  3  0  0  0  0  0  0
  183.5720  179.1540  144.0410 O   0  0  0  0  0  1  0  0  0  0  0  0
  185.8100  178.9100  145.0100 C   0  0  0  0  0  2  0  0  0  0  0  0
  185.1930  176.8760  146.1850 C   0  0  0  0  0  1  0  0  0  0  0  0
  185.9000  178.7930  147.5270 C   0  0  0  0  0  1  0  0  0  0  0  0
  186.1720  178.0320  146.2300 C   0  0  0  0  0  0  0  0  0  0  0  0
  187.6170  177.4430  146.1710 C   0  0  2  0  0  3  0  0  0  0  0  0
  188.4160  177.9010  144.9310 C   0  0  0  0  0  2  0  0  0  0  0  0
  189.9220  177.7770  145.1430 C   0  0  0  0  0  2  0  0  0  0  0  0
  190.5960  177.8770  143.9210 O   0  0  0  0  0  1  0  0  0  0  0  0
  187.6230  176.0410  146.2810 O   0  0  0  0  0  0  0  0  0  0  0  0
  188.2320  175.7180  147.5080 C   0  0  0  0  0  2  0  0  0  0  0  0
  190.6900  175.2370  147.6310 C   0  0  0  0  0  1  0  0  0  0  0  0
  189.3190  174.6630  147.3390 C   0  0  0  0  0  2  0  0  0  0  0  0
  1 21  1  0  0  0  0
  2 16  1  0  0  0  0
  5  7  1  0  0  0  0
  6 17  2  0  0  0  0
  7  6  1  0  0  0  0
  9  5  1  0  0  0  0
  9  4  1  0  0  0  0
 10 20  1  0  0  0  0
 11  4  1  6  0  0  0
 11  6  1  0  0  0  0
 11 22  1  0  0  0  0
 12 34  1  1  0  0  0
 12 24  1  0  0  0  0
 13  1  1  0  0  0  0
 14 16  1  6  0  0  0
 14 21  1  0  0  0  0
 14 12  1  0  0  0  0
 15 30  1  6  0  0  0
 17 15  1  0  0  0  0
 18  2  1  0  0  0  0
 19  3  1  6  0  0  0
 19  8  1  0  0  0  0
 19 18  1  0  0  0  0
 20 24  1  0  0  0  0
 21 10  1  1  0  0  0
 22  8  1  6  0  0  0
 22 23  1  0  0  0  0
 23 15  1  0  0  0  0
 23 13  1  6  0  0  0
 25 29  1  0  0  0  0
 26 31  1  6  0  0  0
 27 28  1  0  0  0  0
 28 26  1  0  0  0  0
 29 26  1  0  0  0  0
 30 25  2  0  0  0  0
 30 27  1  0  0  0  0
 31 32  1  0  0  0  0
 32 33  1  0  0  0  0
 35 36  2  0  0  0  0
 36 38  2  0  0  0  0
 37 39  1  0  0  0  0
 37 40  1  1  0  0  0
 38 37  1  0  0  0  0
 38 39  1  0  0  0  0
 39 34  1  6  0  0  0
 40 41  1  1  0  0  0
 40 42  1  0  0  0  0
 42 43  1  6  0  0  0
 42 44  1  0  0  0  0
 44 47  1  0  0  0  0
 45 47  1  0  0  0  0
 47 46  1  0  0  0  0
 48 49  1  6  0  0  0
 48 47  1  0  0  0  0
 48 52  1  0  0  0  0
 49 50  1  0  0  0  0
 51 50  1  0  0  0  0
 52 53  1  0  0  0  0
 55 53  1  0  0  0  0
 55 54  1  0  0  0  0
M  END
>  <MODEL>
1

>  <REMARK>
 VINA RESULT:      -7.3      0.000      0.000
  Name = 
  15 active torsions:
  status: ('A' for Active; 'I' for Inactive)
    1  A    between atoms: C_3  and  C_14
    2  A    between atoms: C_3  and  O_38
    3  A    between atoms: C_6  and  C_20
    4  A    between atoms: C_6  and  C_53
    5  A    between atoms: O_10  and  C_18
    6  A    between atoms: O_10  and  C_32
    7  A    between atoms: C_11  and  C_29
    8  A    between atoms: C_20  and  C_22
    9  A    between atoms: C_27  and  C_54
   10  A    between atoms: C_29  and  C_50
   11  A    between atoms: C_30  and  C_50
   12  A    between atoms: C_30  and  C_53
   13  A    between atoms: C_33  and  C_52
   14  A    between atoms: O_38  and  C_50
   15  A    between atoms: C_51  and  C_54
                            x       y       z     vdW  Elec       q    Type
                         _______ _______ _______ _____ _____    ______ ____

>  <TORSDO>
F 15

$$$$
=
 OpenBabel11052419433D

 55 60  0  0  1  0  0  0  0  0999 V2000
  190.1610  172.8700  142.5050 O   0  0  0  0  0  0  0  0  0  0  0  0
  189.7960  173.4820  145.7460 C   0  0  0  0  0  2  0  0  0  0  0  0
  188.0840  176.8690  146.0930 C   0  0  0  0  0  1  0  0  0  0  0  0
  186.3740  177.2770  143.5250 C   0  0  0  0  0  2  0  0  0  0  0  0
  185.0830  178.2570  141.5110 C   0  0  0  0  0  2  0  0  0  0  0  0
  186.9440  176.6400  141.1870 C   0  0  0  0  0  0  0  0  0  0  0  0
  186.4130  177.9870  140.7990 C   0  0  0  0  0  2  0  0  0  0  0  0
  188.8550  175.8320  143.9630 C   0  0  0  0  0  2  0  0  0  0  0  0
  185.1390  178.0510  143.0420 C   0  0  0  0  0  2  0  0  0  0  0  0
  190.8790  170.5710  142.4060 C   0  0  0  0  0  2  0  0  0  0  0  0
  186.7030  176.1150  142.5830 C   0  0  1  0  0  3  0  0  0  0  0  0
  192.8280  171.8630  144.0190 C   0  0  2  0  0  3  0  0  0  0  0  0
  188.7780  173.0240  142.5430 C   0  0  0  0  0  2  0  0  0  0  0  0
  191.3610  172.0090  144.4490 C   0  0  1  0  0  3  0  0  0  0  0  0
  188.3400  174.7310  140.7350 C   0  0  0  0  0  0  0  0  0  0  0  0
  191.1400  173.4030  145.0440 C   0  0  0  0  0  2  0  0  0  0  0  0
  187.7220  175.9870  140.3810 N   0  0  0  0  0  0  0  0  0  0  0  0
  189.5550  174.9040  146.2080 C   0  0  0  0  0  2  0  0  0  0  0  0
  188.4410  175.5650  145.4150 C   0  0  1  0  0  3  0  0  0  0  0  0
  192.1940  170.8120  141.9790 O   0  0  0  0  0  0  0  0  0  0  0  0
  190.3840  171.7280  143.2840 C   0  0  1  0  0  3  0  0  0  0  0  0
  187.8600  175.3130  143.0120 N   0  0  0  0  0  0  0  0  0  0  0  0
  188.3550  174.3700  142.0490 C   0  0  0  0  0  0  0  0  0  0  0  0
  192.9940  170.6430  143.1140 C   0  0  0  0  0  2  0  0  0  0  0  0
  190.3590  173.8880  139.5700 C   0  0  0  0  0  3  0  0  0  0  0  0
  190.2340  172.2740  137.6310 C   0  0  1  0  0  3  0  0  0  0  0  0
  188.1550  173.2420  138.6490 C   0  0  0  0  0  2  0  0  0  0  0  0
  188.8710  172.8960  137.3430 C   0  0  0  0  0  2  0  0  0  0  0  0
  191.0910  173.2660  138.4150 C   0  0  0  0  0  2  0  0  0  0  0  0
  189.0250  173.9840  139.6390 C   0  0  0  0  0  0  0  0  0  0  0  0
  190.0950  171.0820  138.3500 O   0  0  0  0  0  0  0  0  0  0  0  0
  189.7790  170.1170  137.3910 C   0  0  0  0  0  2  0  0  0  0  0  0
  190.9410  169.9650  136.4320 C   0  0  0  0  0  1  0  0  0  0  0  0
  193.7170  171.7180  145.2440 C   0  0  0  0  0  2  0  0  0  0  0  0
  197.3080  169.4410  146.8050 O   0  0  0  0  0  0  0  0  0  0  0  0
  196.7250  170.2020  146.0250 C   0  0  0  0  0  0  0  0  0  0  0  0
  195.6280  171.3970  143.8060 C   0  0  1  0  0  3  0  0  0  0  0  0
  196.0920  170.9960  145.2070 C   0  0  0  0  0  0  0  0  0  0  0  0
  195.1310  172.1540  144.9120 C   0  0  2  0  0  3  0  0  0  0  0  0
  196.7300  172.1170  143.0110 C   0  0  2  0  0  3  0  0  0  0  0  0
  197.5430  172.9260  143.8180 O   0  0  0  0  0  1  0  0  0  0  0  0
  196.1450  172.9420  141.8620 C   0  0  2  0  0  3  0  0  0  0  0  0
  196.9220  172.8160  140.7040 O   0  0  0  0  0  1  0  0  0  0  0  0
  195.9460  174.4050  142.2930 C   0  0  0  0  0  2  0  0  0  0  0  0
  193.7540  174.0920  141.2950 C   0  0  0  0  0  1  0  0  0  0  0  0
  194.8480  176.2540  140.9770 C   0  0  0  0  0  1  0  0  0  0  0  0
  194.6160  175.1310  141.9850 C   0  0  0  0  0  0  0  0  0  0  0  0
  193.8570  175.6160  143.2600 C   0  0  2  0  0  3  0  0  0  0  0  0
  192.3680  175.9380  143.0030 C   0  0  0  0  0  2  0  0  0  0  0  0
  192.0910  177.4370  143.0370 C   0  0  0  0  0  2  0  0  0  0  0  0
  191.4100  177.7810  144.2090 O   0  0  0  0  0  1  0  0  0  0  0  0
  194.5030  176.7010  143.8810 O   0  0  0  0  0  0  0  0  0  0  0  0
  195.0350  176.2330  145.0970 C   0  0  0  0  0  2  0  0  0  0  0  0
  193.1770  176.2900  146.7810 C   0  0  0  0  0  1  0  0  0  0  0  0
  194.0180  175.4100  145.8800 C   0  0  0  0  0  2  0  0  0  0  0  0
  1 13  1  0  0  0  0
  1 21  1  0  0  0  0
  2 18  1  0  0  0  0
  5  9  1  0  0  0  0
  6 11  1  0  0  0  0
  7  6  1  0  0  0  0
  7  5  1  0  0  0  0
  8 19  1  0  0  0  0
  9  4  1  0  0  0  0
 11 22  1  0  0  0  0
 11  4  1  1  0  0  0
 12 14  1  0  0  0  0
 12 34  1  1  0  0  0
 14 16  1  6  0  0  0
 15 23  2  0  0  0  0
 16  2  1  0  0  0  0
 17 15  1  0  0  0  0
 17  6  2  0  0  0  0
 19  3  1  1  0  0  0
 19 18  1  0  0  0  0
 20 10  1  0  0  0  0
 20 24  1  0  0  0  0
 21 10  1  6  0  0  0
 21 14  1  0  0  0  0
 22  8  1  0  0  0  0
 23 13  1  0  0  0  0
 23 22  1  0  0  0  0
 24 12  1  0  0  0  0
 25 30  2  0  0  0  0
 26 31  1  1  0  0  0
 26 29  1  0  0  0  0
 27 30  1  0  0  0  0
 28 26  1  0  0  0  0
 28 27  1  0  0  0  0
 29 25  1  0  0  0  0
 30 15  1  0  0  0  0
 32 31  1  0  0  0  0
 33 32  1  0  0  0  0
 36 35  2  0  0  0  0
 37 40  1  6  0  0  0
 37 39  1  0  0  0  0
 37 38  1  0  0  0  0
 38 36  2  0  0  0  0
 39 38  1  0  0  0  0
 39 34  1  1  0  0  0
 40 41  1  1  0  0  0
 42 43  1  6  0  0  0
 42 44  1  0  0  0  0
 42 40  1  0  0  0  0
 45 47  1  0  0  0  0
 46 47  1  0  0  0  0
 47 44  1  0  0  0  0
 47 48  1  0  0  0  0
 48 49  1  6  0  0  0
 48 52  1  0  0  0  0
 49 50  1  0  0  0  0
 50 51  1  0  0  0  0
 52 53  1  0  0  0  0
 53 55  1  0  0  0  0
 55 54  1  0  0  0  0
M  END
>  <MODEL>
2

>  <REMARK>
 VINA RESULT:      -7.2      3.015      8.987
  Name = 
  15 active torsions:
  status: ('A' for Active; 'I' for Inactive)
    1  A    between atoms: C_3  and  C_14
    2  A    between atoms: C_3  and  O_38
    3  A    between atoms: C_6  and  C_20
    4  A    between atoms: C_6  and  C_53
    5  A    between atoms: O_10  and  C_18
    6  A    between atoms: O_10  and  C_32
    7  A    between atoms: C_11  and  C_29
    8  A    between atoms: C_20  and  C_22
    9  A    between atoms: C_27  and  C_54
   10  A    between atoms: C_29  and  C_50
   11  A    between atoms: C_30  and  C_50
   12  A    between atoms: C_30  and  C_53
   13  A    between atoms: C_33  and  C_52
   14  A    between atoms: O_38  and  C_50
   15  A    between atoms: C_51  and  C_54
                            x       y       z     vdW  Elec       q    Type
                         _______ _______ _______ _____ _____    ______ ____

>  <TORSDO>
F 15

$$$$
=
 OpenBabel11052419433D

 55 60  0  0  1  0  0  0  0  0999 V2000
  192.6450  173.8340  142.7410 O   0  0  0  0  0  0  0  0  0  0  0  0
  189.6370  172.4580  143.0010 C   0  0  0  0  0  2  0  0  0  0  0  0
  187.9300  172.7690  139.6090 C   0  0  0  0  0  1  0  0  0  0  0  0
  190.1900  172.8370  137.4700 C   0  0  0  0  0  2  0  0  0  0  0  0
  191.6260  173.2630  135.3630 C   0  0  0  0  0  2  0  0  0  0  0  0
  192.4080  173.9570  137.6200 C   0  0  0  0  0  0  0  0  0  0  0  0
  192.1540  174.4220  136.2170 C   0  0  0  0  0  2  0  0  0  0  0  0
  190.1380  173.7430  140.2280 C   0  0  0  0  0  2  0  0  0  0  0  0
  190.4150  172.5300  135.9820 C   0  0  0  0  0  2  0  0  0  0  0  0
  193.7590  173.2350  144.7930 C   0  0  0  0  0  2  0  0  0  0  0  0
  191.5190  172.8990  138.2300 C   0  0  1  0  0  3  0  0  0  0  0  0
  191.4290  174.6300  145.6220 C   0  0  2  0  0  3  0  0  0  0  0  0
  192.7590  172.8730  141.7390 C   0  0  0  0  0  2  0  0  0  0  0  0
  191.2250  173.4310  144.6850 C   0  0  1  0  0  3  0  0  0  0  0  0
  193.5200  174.2120  139.7400 C   0  0  2  0  0  3  0  0  0  0  0  0
  190.0590  173.7190  143.7340 C   0  0  0  0  0  2  0  0  0  0  0  0
  193.2960  174.5510  138.3540 N   0  0  0  0  0  0  0  0  0  0  0  0
  188.5740  172.8040  141.9790 C   0  0  0  0  0  2  0  0  0  0  0  0
  189.1010  172.6640  140.5620 C   0  0  1  0  0  3  0  0  0  0  0  0
  193.7920  174.5170  145.3600 O   0  0  0  0  0  0  0  0  0  0  0  0
  192.5150  173.0760  143.9100 C   0  0  1  0  0  3  0  0  0  0  0  0
  191.3660  173.1580  139.6710 N   0  0  1  0  0  0  0  0  0  0  0  0
  192.5780  173.4640  140.3790 C   0  0  1  0  0  3  0  0  0  0  0  0
  192.7810  174.5260  146.3260 C   0  0  0  0  0  2  0  0  0  0  0  0
  194.6070  175.7550  141.3470 C   0  0  0  0  0  3  0  0  0  0  0  0
  197.0920  175.7150  141.8010 C   0  0  1  0  0  3  0  0  0  0  0  0
  196.0730  174.2630  140.0250 C   0  0  0  0  0  2  0  0  0  0  0  0
  197.2330  175.1980  140.3720 C   0  0  0  0  0  2  0  0  0  0  0  0
  195.7800  176.4860  141.9350 C   0  0  0  0  0  2  0  0  0  0  0  0
  194.7160  174.8170  140.3970 C   0  0  0  0  0  0  0  0  0  0  0  0
  197.1270  174.6590  142.7180 O   0  0  0  0  0  0  0  0  0  0  0  0
  197.0880  175.2700  143.9730 C   0  0  0  0  0  2  0  0  0  0  0  0
  197.3990  174.2420  145.0410 C   0  0  0  0  0  1  0  0  0  0  0  0
  190.3140  174.6780  146.6560 C   0  0  0  0  0  2  0  0  0  0  0  0
  190.6380  178.4860  149.0850 O   0  0  0  0  0  0  0  0  0  0  0  0
  190.3240  177.8240  148.0910 C   0  0  0  0  0  0  0  0  0  0  0  0
  190.0770  176.8080  145.5480 C   0  0  1  0  0  3  0  0  0  0  0  0
  190.0080  177.1100  147.0460 C   0  0  0  0  0  0  0  0  0  0  0  0
  189.4070  175.8630  146.3860 C   0  0  2  0  0  3  0  0  0  0  0  0
  189.1210  177.6930  144.7300 C   0  0  2  0  0  3  0  0  0  0  0  0
  187.8590  177.8280  145.3280 O   0  0  0  0  0  1  0  0  0  0  0  0
  188.9700  177.1820  143.2970 C   0  0  2  0  0  3  0  0  0  0  0  0
  190.2190  177.0010  142.6910 O   0  0  0  0  0  1  0  0  0  0  0  0
  188.0400  178.1030  142.4880 C   0  0  0  0  0  2  0  0  0  0  0  0
  186.4580  176.2670  142.6420 C   0  0  0  0  0  1  0  0  0  0  0  0
  186.9690  177.1430  140.4180 C   0  0  0  0  0  1  0  0  0  0  0  0
  186.7360  177.5430  141.8730 C   0  0  0  0  0  0  0  0  0  0  0  0
  185.5060  178.4880  142.0460 C   0  0  2  0  0  3  0  0  0  0  0  0
  185.4720  179.2080  143.4130 C   0  0  0  0  0  2  0  0  0  0  0  0
  184.1760  178.9380  144.1700 C   0  0  0  0  0  2  0  0  0  0  0  0
  184.4400  178.2530  145.3610 O   0  0  0  0  0  1  0  0  0  0  0  0
  184.2890  177.8260  141.8000 O   0  0  0  0  0  0  0  0  0  0  0  0
  183.6770  178.4660  140.7060 C   0  0  0  0  0  2  0  0  0  0  0  0
  181.2000  178.7910  140.9260 C   0  0  0  0  0  1  0  0  0  0  0  0
  182.2990  177.8860  140.4100 C   0  0  0  0  0  2  0  0  0  0  0  0
  1 21  1  0  0  0  0
  2 16  1  0  0  0  0
  5  9  1  0  0  0  0
  5  7  1  0  0  0  0
  6 11  1  0  0  0  0
  6 17  2  0  0  0  0
  7  6  1  0  0  0  0
  8 19  1  0  0  0  0
  9  4  1  0  0  0  0
 10 20  1  0  0  0  0
 11  4  1  6  0  0  0
 11 22  1  0  0  0  0
 12 24  1  0  0  0  0
 12 34  1  1  0  0  0
 13  1  1  0  0  0  0
 14 16  1  6  0  0  0
 14 12  1  0  0  0  0
 15 23  1  0  0  0  0
 15 30  1  1  0  0  0
 17 15  1  0  0  0  0
 18  2  1  0  0  0  0
 19  3  1  6  0  0  0
 19 18  1  0  0  0  0
 20 24  1  0  0  0  0
 21 14  1  0  0  0  0
 21 10  1  1  0  0  0
 22  8  1  6  0  0  0
 22 23  1  0  0  0  0
 23 13  1  6  0  0  0
 25 29  1  0  0  0  0
 26 29  1  0  0  0  0
 26 31  1  1  0  0  0
 27 28  1  0  0  0  0
 27 30  1  0  0  0  0
 28 26  1  0  0  0  0
 30 25  2  0  0  0  0
 31 32  1  0  0  0  0
 32 33  1  0  0  0  0
 36 35  2  0  0  0  0
 37 40  1  6  0  0  0
 37 39  1  0  0  0  0
 37 38  1  0  0  0  0
 38 36  2  0  0  0  0
 39 34  1  1  0  0  0
 39 38  1  0  0  0  0
 40 41  1  1  0  0  0
 42 43  1  6  0  0  0
 42 40  1  0  0  0  0
 44 42  1  0  0  0  0
 46 47  1  0  0  0  0
 47 48  1  0  0  0  0
 47 44  1  0  0  0  0
 47 45  1  0  0  0  0
 48 49  1  1  0  0  0
 49 50  1  0  0  0  0
 50 51  1  0  0  0  0
 52 48  1  0  0  0  0
 53 52  1  0  0  0  0
 55 53  1  0  0  0  0
 55 54  1  0  0  0  0
M  END
>  <MODEL>
3

>  <REMARK>
 VINA RESULT:      -7.1      1.919      4.983
  Name = 
  15 active torsions:
  status: ('A' for Active; 'I' for Inactive)
    1  A    between atoms: C_3  and  C_14
    2  A    between atoms: C_3  and  O_38
    3  A    between atoms: C_6  and  C_20
    4  A    between atoms: C_6  and  C_53
    5  A    between atoms: O_10  and  C_18
    6  A    between atoms: O_10  and  C_32
    7  A    between atoms: C_11  and  C_29
    8  A    between atoms: C_20  and  C_22
    9  A    between atoms: C_27  and  C_54
   10  A    between atoms: C_29  and  C_50
   11  A    between atoms: C_30  and  C_50
   12  A    between atoms: C_30  and  C_53
   13  A    between atoms: C_33  and  C_52
   14  A    between atoms: O_38  and  C_50
   15  A    between atoms: C_51  and  C_54
                            x       y       z     vdW  Elec       q    Type
                         _______ _______ _______ _____ _____    ______ ____

>  <TORSDO>
F 15

$$$$
=
 OpenBabel11052419433D

 55 60  0  0  1  0  0  0  0  0999 V2000
  192.2250  173.2540  142.5920 O   0  0  0  0  0  0  0  0  0  0  0  0
  189.0620  174.1780  142.1990 C   0  0  0  0  0  2  0  0  0  0  0  0
  188.2030  173.8070  138.5050 C   0  0  0  0  0  1  0  0  0  0  0  0
  190.0430  171.5650  137.3780 C   0  0  0  0  0  2  0  0  0  0  0  0
  191.5120  170.0540  135.8800 C   0  0  0  0  0  2  0  0  0  0  0  0
  192.4260  171.1120  137.9370 C   0  0  0  0  0  0  0  0  0  0  0  0
  192.6310  170.9260  136.4630 C   0  0  0  0  0  2  0  0  0  0  0  0
  190.4530  173.4780  139.5230 C   0  0  0  0  0  2  0  0  0  0  0  0
  190.0890  170.5430  136.2320 C   0  0  0  0  0  2  0  0  0  0  0  0
  192.5290  173.1540  144.9810 C   0  0  0  0  0  2  0  0  0  0  0  0
  191.0240  171.1920  138.4930 C   0  0  1  0  0  3  0  0  0  0  0  0
  191.6930  175.8210  144.4750 C   0  0  2  0  0  3  0  0  0  0  0  0
  191.7220  172.0790  142.0400 C   0  0  0  0  0  2  0  0  0  0  0  0
  190.7920  174.6960  143.9430 C   0  0  1  0  0  3  0  0  0  0  0  0
  193.2980  171.6220  140.1220 C   0  0  0  0  0  0  0  0  0  0  0  0
  190.1780  175.1240  142.6070 C   0  0  0  0  0  2  0  0  0  0  0  0
  193.4390  171.3410  138.7130 N   0  0  0  0  0  0  0  0  0  0  0  0
  188.5660  174.5530  140.8180 C   0  0  0  0  0  2  0  0  0  0  0  0
  188.9440  173.5010  139.7890 C   0  0  1  0  0  3  0  0  0  0  0  0
  193.3800  174.2630  145.1000 O   0  0  0  0  0  0  0  0  0  0  0  0
  191.5520  173.3560  143.8150 C   0  0  1  0  0  3  0  0  0  0  0  0
  191.0020  172.1190  139.6370 N   0  0  0  0  0  0  0  0  0  0  0  0
  192.0630  171.9540  140.5910 C   0  0  0  0  0  0  0  0  0  0  0  0
  192.5830  175.2970  145.6010 C   0  0  0  0  0  2  0  0  0  0  0  0
  195.4180  172.6630  140.8740 C   0  0  0  0  0  3  0  0  0  0  0  0
  196.8030  171.7140  142.7620 C   0  0  1  0  0  3  0  0  0  0  0  0
  194.7680  170.5140  141.9160 C   0  0  0  0  0  2  0  0  0  0  0  0
  196.2230  170.3610  142.3610 C   0  0  0  0  0  2  0  0  0  0  0  0
  196.7510  172.6640  141.5670 C   0  0  0  0  0  2  0  0  0  0  0  0
  194.5500  171.6440  140.9340 C   0  0  0  0  0  0  0  0  0  0  0  0
  196.0990  172.2570  143.8420 O   0  0  0  0  0  0  0  0  0  0  0  0
  197.0600  172.4560  144.8350 C   0  0  0  0  0  2  0  0  0  0  0  0
  196.5720  173.5170  145.7990 C   0  0  0  0  0  1  0  0  0  0  0  0
  190.8410  176.9710  144.9870 C   0  0  0  0  0  2  0  0  0  0  0  0
  191.6270  177.8590  149.3580 O   0  0  0  0  0  0  0  0  0  0  0  0
  190.9150  177.5640  148.3930 C   0  0  0  0  0  0  0  0  0  0  0  0
  188.9880  177.5150  146.4340 C   0  0  1  0  0  3  0  0  0  0  0  0
  190.1770  177.2620  147.3620 C   0  0  0  0  0  0  0  0  0  0  0  0
  189.9030  176.4780  146.0730 C   0  0  2  0  0  3  0  0  0  0  0  0
  187.6660  176.9940  147.0240 C   0  0  2  0  0  3  0  0  0  0  0  0
  187.6830  175.6110  147.2590 O   0  0  0  0  0  1  0  0  0  0  0  0
  186.4730  177.3600  146.1390 C   0  0  2  0  0  3  0  0  0  0  0  0
  185.2860  176.8160  146.6420 O   0  0  0  0  0  1  0  0  0  0  0  0
  186.7420  176.9640  144.6760 C   0  0  0  0  0  2  0  0  0  0  0  0
  188.0090  178.2550  143.0560 C   0  0  0  0  0  1  0  0  0  0  0  0
  186.0930  179.3360  144.1210 C   0  0  0  0  0  1  0  0  0  0  0  0
  186.5960  178.0120  143.5490 C   0  0  0  0  0  0  0  0  0  0  0  0
  185.7420  177.5170  142.3400 C   0  0  2  0  0  3  0  0  0  0  0  0
  186.5930  176.9920  141.1620 C   0  0  0  0  0  2  0  0  0  0  0  0
  186.2810  177.7220  139.8600 C   0  0  0  0  0  2  0  0  0  0  0  0
  186.4880  176.8770  138.7650 O   0  0  0  0  0  1  0  0  0  0  0  0
  184.8280  178.4930  141.9010 O   0  0  0  0  0  0  0  0  0  0  0  0
  183.5730  178.1690  142.4490 C   0  0  0  0  0  2  0  0  0  0  0  0
  182.6940  177.7210  140.1440 C   0  0  0  0  0  1  0  0  0  0  0  0
  182.4410  178.4250  141.4610 C   0  0  0  0  0  2  0  0  0  0  0  0
  1 21  1  0  0  0  0
  2 16  1  0  0  0  0
  5  9  1  0  0  0  0
  5  7  1  0  0  0  0
  6 11  1  0  0  0  0
  6 17  2  0  0  0  0
  7  6  1  0  0  0  0
  8 22  1  0  0  0  0
  8 19  1  0  0  0  0
  9  4  1  0  0  0  0
 10 20  1  0  0  0  0
 11  4  1  6  0  0  0
 11 22  1  0  0  0  0
 12 34  1  1  0  0  0
 12 24  1  0  0  0  0
 13  1  1  0  0  0  0
 14 16  1  6  0  0  0
 14 12  1  0  0  0  0
 15 23  2  0  0  0  0
 15 30  1  0  0  0  0
 17 15  1  0  0  0  0
 18  2  1  0  0  0  0
 19  3  1  6  0  0  0
 19 18  1  0  0  0  0
 20 24  1  0  0  0  0
 21 14  1  0  0  0  0
 21 10  1  1  0  0  0
 22 23  1  0  0  0  0
 23 13  1  0  0  0  0
 25 30  2  0  0  0  0
 25 29  1  0  0  0  0
 26 31  1  1  0  0  0
 27 28  1  0  0  0  0
 28 26  1  0  0  0  0
 29 26  1  0  0  0  0
 30 27  1  0  0  0  0
 31 32  1  0  0  0  0
 32 33  1  0  0  0  0
 36 35  2  0  0  0  0
 37 40  1  1  0  0  0
 37 38  1  0  0  0  0
 38 36  2  0  0  0  0
 39 34  1  6  0  0  0
 39 37  1  0  0  0  0
 39 38  1  0  0  0  0
 40 41  1  6  0  0  0
 42 43  1  1  0  0  0
 42 40  1  0  0  0  0
 44 42  1  0  0  0  0
 45 47  1  0  0  0  0
 47 46  1  0  0  0  0
 47 44  1  0  0  0  0
 48 49  1  6  0  0  0
 48 47  1  0  0  0  0
 50 49  1  0  0  0  0
 51 50  1  0  0  0  0
 52 48  1  0  0  0  0
 52 53  1  0  0  0  0
 54 55  1  0  0  0  0
 55 53  1  0  0  0  0
M  END
>  <MODEL>
4

>  <REMARK>
 VINA RESULT:      -7.0      2.118      4.888
  Name = 
  15 active torsions:
  status: ('A' for Active; 'I' for Inactive)
    1  A    between atoms: C_3  and  C_14
    2  A    between atoms: C_3  and  O_38
    3  A    between atoms: C_6  and  C_20
    4  A    between atoms: C_6  and  C_53
    5  A    between atoms: O_10  and  C_18
    6  A    between atoms: O_10  and  C_32
    7  A    between atoms: C_11  and  C_29
    8  A    between atoms: C_20  and  C_22
    9  A    between atoms: C_27  and  C_54
   10  A    between atoms: C_29  and  C_50
   11  A    between atoms: C_30  and  C_50
   12  A    between atoms: C_30  and  C_53
   13  A    between atoms: C_33  and  C_52
   14  A    between atoms: O_38  and  C_50
   15  A    between atoms: C_51  and  C_54
                            x       y       z     vdW  Elec       q    Type
                         _______ _______ _______ _____ _____    ______ ____

>  <TORSDO>
F 15

$$$$
=
 OpenBabel11052419433D

 55 60  0  0  1  0  0  0  0  0999 V2000
  190.1600  172.5290  142.1730 O   0  0  0  0  0  0  0  0  0  0  0  0
  189.8460  173.0510  145.4350 C   0  0  0  0  0  2  0  0  0  0  0  0
  188.3410  176.5200  145.9070 C   0  0  0  0  0  1  0  0  0  0  0  0
  186.6470  177.1160  143.3660 C   0  0  0  0  0  2  0  0  0  0  0  0
  185.4070  178.2400  141.3950 C   0  0  0  0  0  2  0  0  0  0  0  0
  187.1680  176.5270  141.0040 C   0  0  0  0  0  0  0  0  0  0  0  0
  186.7160  177.9160  140.6650 C   0  0  0  0  0  2  0  0  0  0  0  0
  189.0390  175.5130  143.7380 C   0  0  0  0  0  2  0  0  0  0  0  0
  185.4580  177.9790  142.9170 C   0  0  0  0  0  2  0  0  0  0  0  0
  190.7390  170.1970  141.9910 C   0  0  0  0  0  2  0  0  0  0  0  0
  186.9020  175.9700  142.3820 C   0  0  1  0  0  3  0  0  0  0  0  0
  192.7680  171.3140  143.6340 C   0  0  2  0  0  3  0  0  0  0  0  0
  188.7880  172.7650  142.2240 C   0  0  0  0  0  2  0  0  0  0  0  0
  191.3150  171.5320  144.0780 C   0  0  1  0  0  3  0  0  0  0  0  0
  188.4450  174.5550  140.4780 C   0  0  0  0  0  0  0  0  0  0  0  0
  191.1800  172.9160  144.7210 C   0  0  0  0  0  2  0  0  0  0  0  0
  187.9010  175.8570  140.1710 N   0  0  0  0  0  0  0  0  0  0  0  0
  189.6930  174.4690  145.9460 C   0  0  0  0  0  2  0  0  0  0  0  0
  188.6170  175.2200  145.1830 C   0  0  1  0  0  3  0  0  0  0  0  0
  192.0640  170.3730  141.5640 O   0  0  0  0  0  0  0  0  0  0  0  0
  190.3180  171.3510  142.9100 C   0  0  1  0  0  3  0  0  0  0  0  0
  188.0110  175.0860  142.7770 N   0  0  0  0  0  0  0  0  0  0  0  0
  188.4440  174.1490  141.7790 C   0  0  0  0  0  0  0  0  0  0  0  0
  192.8570  170.1190  142.6860 C   0  0  0  0  0  2  0  0  0  0  0  0
  188.3550  173.2370  138.3800 C   0  0  0  0  0  3  0  0  0  0  0  0
  190.4260  172.6220  137.0720 C   0  0  1  0  0  3  0  0  0  0  0  0
  190.5900  173.7920  139.2870 C   0  0  0  0  0  2  0  0  0  0  0  0
  191.1540  172.6710  138.4130 C   0  0  0  0  0  2  0  0  0  0  0  0
  188.9400  172.3620  137.3090 C   0  0  0  0  0  2  0  0  0  0  0  0
  189.0790  173.8070  139.3530 C   0  0  0  0  0  0  0  0  0  0  0  0
  190.6010  173.8180  136.3680 O   0  0  0  0  0  0  0  0  0  0  0  0
  190.3560  173.4900  135.0340 C   0  0  0  0  0  2  0  0  0  0  0  0
  191.4580  172.5820  134.5300 C   0  0  0  0  0  1  0  0  0  0  0  0
  193.6530  171.0740  144.8470 C   0  0  0  0  0  2  0  0  0  0  0  0
  197.2690  169.4820  147.0600 O   0  0  0  0  0  0  0  0  0  0  0  0
  196.7000  170.0570  146.1270 C   0  0  0  0  0  0  0  0  0  0  0  0
  195.7380  170.8070  143.6640 C   0  0  1  0  0  3  0  0  0  0  0  0
  196.0810  170.6530  145.1460 C   0  0  0  0  0  0  0  0  0  0  0  0
  195.0400  171.6350  144.5960 C   0  0  2  0  0  3  0  0  0  0  0  0
  196.8380  171.5480  142.8850 C   0  0  2  0  0  3  0  0  0  0  0  0
  197.8940  171.9720  143.7050 O   0  0  0  0  0  1  0  0  0  0  0  0
  196.2720  172.7350  142.1040 C   0  0  2  0  0  3  0  0  0  0  0  0
  196.4470  172.5630  140.7260 O   0  0  0  0  0  1  0  0  0  0  0  0
  196.8650  174.0570  142.6230 C   0  0  0  0  0  2  0  0  0  0  0  0
  196.4750  176.4240  143.0040 C   0  0  0  0  0  1  0  0  0  0  0  0
  196.2340  174.9120  144.9090 C   0  0  0  0  0  1  0  0  0  0  0  0
  195.9790  175.0500  143.4090 C   0  0  0  0  0  0  0  0  0  0  0  0
  194.4630  174.9590  143.0480 C   0  0  2  0  0  3  0  0  0  0  0  0
  194.0380  175.9390  141.9320 C   0  0  0  0  0  2  0  0  0  0  0  0
  193.9060  175.2460  140.5800 C   0  0  0  0  0  2  0  0  0  0  0  0
  195.0370  175.4900  139.7940 O   0  0  0  0  0  1  0  0  0  0  0  0
  193.6380  175.1010  144.1790 O   0  0  0  0  0  0  0  0  0  0  0  0
  192.9100  176.2950  144.0210 C   0  0  0  0  0  2  0  0  0  0  0  0
  193.0030  176.0970  146.5190 C   0  0  0  0  0  1  0  0  0  0  0  0
  192.3440  176.7920  145.3460 C   0  0  0  0  0  2  0  0  0  0  0  0
  1 13  1  0  0  0  0
  1 21  1  0  0  0  0
  2 18  1  0  0  0  0
  5  9  1  0  0  0  0
  6 11  1  0  0  0  0
  7  6  1  0  0  0  0
  7  5  1  0  0  0  0
  8 19  1  0  0  0  0
  9  4  1  0  0  0  0
 11 22  1  0  0  0  0
 11  4  1  1  0  0  0
 12 14  1  0  0  0  0
 12 34  1  1  0  0  0
 14 16  1  6  0  0  0
 15 23  2  0  0  0  0
 16  2  1  0  0  0  0
 17 15  1  0  0  0  0
 17  6  2  0  0  0  0
 19  3  1  1  0  0  0
 19 18  1  0  0  0  0
 20 10  1  0  0  0  0
 20 24  1  0  0  0  0
 21 10  1  6  0  0  0
 21 14  1  0  0  0  0
 22  8  1  0  0  0  0
 23 13  1  0  0  0  0
 23 22  1  0  0  0  0
 24 12  1  0  0  0  0
 25 30  2  0  0  0  0
 26 31  1  1  0  0  0
 26 29  1  0  0  0  0
 26 28  1  0  0  0  0
 27 30  1  0  0  0  0
 28 27  1  0  0  0  0
 29 25  1  0  0  0  0
 30 15  1  0  0  0  0
 32 31  1  0  0  0  0
 33 32  1  0  0  0  0
 36 35  2  0  0  0  0
 37 40  1  6  0  0  0
 37 39  1  0  0  0  0
 37 38  1  0  0  0  0
 38 36  2  0  0  0  0
 39 34  1  1  0  0  0
 39 38  1  0  0  0  0
 40 41  1  1  0  0  0
 42 43  1  6  0  0  0
 42 44  1  0  0  0  0
 42 40  1  0  0  0  0
 44 47  1  0  0  0  0
 45 47  1  0  0  0  0
 47 46  1  0  0  0  0
 48 49  1  6  0  0  0
 48 47  1  0  0  0  0
 48 52  1  0  0  0  0
 50 49  1  0  0  0  0
 51 50  1  0  0  0  0
 53 52  1  0  0  0  0
 53 55  1  0  0  0  0
 55 54  1  0  0  0  0
M  END
>  <MODEL>
5

>  <REMARK>
 VINA RESULT:      -6.9      3.073      9.136
  Name = 
  15 active torsions:
  status: ('A' for Active; 'I' for Inactive)
    1  A    between atoms: C_3  and  C_14
    2  A    between atoms: C_3  and  O_38
    3  A    between atoms: C_6  and  C_20
    4  A    between atoms: C_6  and  C_53
    5  A    between atoms: O_10  and  C_18
    6  A    between atoms: O_10  and  C_32
    7  A    between atoms: C_11  and  C_29
    8  A    between atoms: C_20  and  C_22
    9  A    between atoms: C_27  and  C_54
   10  A    between atoms: C_29  and  C_50
   11  A    between atoms: C_30  and  C_50
   12  A    between atoms: C_30  and  C_53
   13  A    between atoms: C_33  and  C_52
   14  A    between atoms: O_38  and  C_50
   15  A    between atoms: C_51  and  C_54
                            x       y       z     vdW  Elec       q    Type
                         _______ _______ _______ _____ _____    ______ ____

>  <TORSDO>
F 15

$$$$
=
 OpenBabel11052419433D

 55 60  0  0  1  0  0  0  0  0999 V2000
  190.5210  172.2970  142.5060 O   0  0  0  0  0  0  0  0  0  0  0  0
  188.1980  174.0470  140.9070 C   0  0  0  0  0  2  0  0  0  0  0  0
  188.9970  173.8900  137.1840 C   0  0  0  0  0  1  0  0  0  0  0  0
  190.5220  171.2200  136.7060 C   0  0  0  0  0  2  0  0  0  0  0  0
  192.0730  169.3520  135.8190 C   0  0  0  0  0  2  0  0  0  0  0  0
  192.2160  170.1390  138.1740 C   0  0  0  0  0  0  0  0  0  0  0  0
  192.9970  169.8900  136.9180 C   0  0  0  0  0  2  0  0  0  0  0  0
  190.4050  172.9680  139.0210 C   0  0  0  0  0  2  0  0  0  0  0  0
  190.8120  170.2140  135.5830 C   0  0  0  0  0  2  0  0  0  0  0  0
  189.7030  172.1400  144.7680 C   0  0  0  0  0  2  0  0  0  0  0  0
  190.7820  170.6030  138.0830 C   0  0  1  0  0  3  0  0  0  0  0  0
  189.8700  174.9290  144.2570 C   0  0  2  0  0  3  0  0  0  0  0  0
  190.0380  171.2990  141.6640 C   0  0  0  0  0  2  0  0  0  0  0  0
  189.0490  174.0890  143.2680 C   0  0  1  0  0  3  0  0  0  0  0  0
  192.1300  170.4110  140.5650 C   0  0  0  0  0  0  0  0  0  0  0  0
  189.2160  174.6550  141.8550 C   0  0  0  0  0  2  0  0  0  0  0  0
  192.8030  170.0890  139.3290 N   0  0  0  0  0  0  0  0  0  0  0  0
  188.4740  174.5300  139.4980 C   0  0  0  0  0  2  0  0  0  0  0  0
  188.9920  173.4060  138.6170 C   0  0  1  0  0  3  0  0  0  0  0  0
  190.6600  172.9750  145.3630 O   0  0  0  0  0  0  0  0  0  0  0  0
  189.4270  172.5910  143.3270 C   0  0  1  0  0  3  0  0  0  0  0  0
  190.4890  171.5120  139.2040 N   0  0  0  0  0  0  0  0  0  0  0  0
  190.9410  171.0730  140.4950 C   0  0  0  0  0  0  0  0  0  0  0  0
  190.0100  174.1920  145.5880 C   0  0  0  0  0  2  0  0  0  0  0  0
  192.7360  168.9130  142.4440 C   0  0  0  0  0  3  0  0  0  0  0  0
  194.5290  169.5000  144.1250 C   0  0  1  0  0  3  0  0  0  0  0  0
  193.8230  171.1350  142.3560 C   0  0  0  0  0  2  0  0  0  0  0  0
  194.1710  170.9540  143.8340 C   0  0  0  0  0  2  0  0  0  0  0  0
  193.3380  168.6060  143.7860 C   0  0  0  0  0  2  0  0  0  0  0  0
  192.8560  170.0980  141.8300 C   0  0  0  0  0  0  0  0  0  0  0  0
  195.6520  169.1080  143.3890 O   0  0  0  0  0  0  0  0  0  0  0  0
  196.7420  169.4030  144.2100 C   0  0  0  0  0  2  0  0  0  0  0  0
  197.6210  170.4290  143.5260 C   0  0  0  0  0  1  0  0  0  0  0  0
  189.1960  176.2730  144.4830 C   0  0  0  0  0  2  0  0  0  0  0  0
  191.4420  177.2500  148.2920 O   0  0  0  0  0  0  0  0  0  0  0  0
  190.4290  177.1440  147.5940 C   0  0  0  0  0  0  0  0  0  0  0  0
  188.1240  177.6190  146.1740 C   0  0  1  0  0  3  0  0  0  0  0  0
  189.3720  177.0360  146.8380 C   0  0  0  0  0  0  0  0  0  0  0  0
  188.4980  176.2830  145.8290 C   0  0  2  0  0  3  0  0  0  0  0  0
  186.9300  177.6950  147.1400 C   0  0  2  0  0  3  0  0  0  0  0  0
  186.5090  176.4340  147.5860 O   0  0  0  0  0  1  0  0  0  0  0  0
  185.7530  178.4520  146.5210 C   0  0  2  0  0  3  0  0  0  0  0  0
  184.7440  178.6750  147.4640 O   0  0  0  0  0  1  0  0  0  0  0  0
  185.2460  177.7260  145.2620 C   0  0  0  0  0  2  0  0  0  0  0  0
  185.6230  179.7660  143.9990 C   0  0  0  0  0  1  0  0  0  0  0  0
  183.3120  179.0330  144.3100 C   0  0  0  0  0  1  0  0  0  0  0  0
  184.7340  178.5390  144.0510 C   0  0  0  0  0  0  0  0  0  0  0  0
  184.8690  177.7890  142.6890 C   0  0  2  0  0  3  0  0  0  0  0  0
  186.2680  177.1720  142.4650 C   0  0  0  0  0  2  0  0  0  0  0  0
  186.7840  177.4220  141.0510 C   0  0  0  0  0  2  0  0  0  0  0  0
  188.1050  177.8820  141.0890 O   0  0  0  0  0  1  0  0  0  0  0  0
  184.4980  178.5970  141.5980 O   0  0  0  0  0  0  0  0  0  0  0  0
  183.5210  177.8940  140.8690 C   0  0  0  0  0  2  0  0  0  0  0  0
  181.1160  178.2970  141.4510 C   0  0  0  0  0  1  0  0  0  0  0  0
  182.2880  178.7490  140.6060 C   0  0  0  0  0  2  0  0  0  0  0  0
  1 21  1  0  0  0  0
  2 16  1  0  0  0  0
  5  7  1  0  0  0  0
  6 17  2  0  0  0  0
  7  6  1  0  0  0  0
  8 22  1  0  0  0  0
  9  5  1  0  0  0  0
  9  4  1  0  0  0  0
 10 20  1  0  0  0  0
 11  4  1  6  0  0  0
 11  6  1  0  0  0  0
 11 22  1  0  0  0  0
 12 34  1  1  0  0  0
 12 24  1  0  0  0  0
 13  1  1  0  0  0  0
 14 16  1  6  0  0  0
 14 21  1  0  0  0  0
 14 12  1  0  0  0  0
 15 30  1  0  0  0  0
 17 15  1  0  0  0  0
 18  2  1  0  0  0  0
 19  3  1  6  0  0  0
 19  8  1  0  0  0  0
 19 18  1  0  0  0  0
 20 24  1  0  0  0  0
 21 10  1  1  0  0  0
 22 23  1  0  0  0  0
 23 15  2  0  0  0  0
 23 13  1  0  0  0  0
 25 29  1  0  0  0  0
 26 31  1  6  0  0  0
 27 28  1  0  0  0  0
 28 26  1  0  0  0  0
 29 26  1  0  0  0  0
 30 27  1  0  0  0  0
 30 25  2  0  0  0  0
 31 32  1  0  0  0  0
 33 32  1  0  0  0  0
 36 35  2  0  0  0  0
 37 38  1  0  0  0  0
 37 40  1  1  0  0  0
 38 36  2  0  0  0  0
 39 34  1  6  0  0  0
 39 37  1  0  0  0  0
 39 38  1  0  0  0  0
 40 41  1  6  0  0  0
 42 40  1  0  0  0  0
 42 43  1  1  0  0  0
 44 42  1  0  0  0  0
 45 47  1  0  0  0  0
 47 46  1  0  0  0  0
 47 44  1  0  0  0  0
 48 49  1  6  0  0  0
 48 47  1  0  0  0  0
 50 51  1  0  0  0  0
 50 49  1  0  0  0  0
 52 48  1  0  0  0  0
 53 52  1  0  0  0  0
 55 53  1  0  0  0  0
 55 54  1  0  0  0  0
M  END
>  <MODEL>
6

>  <REMARK>
 VINA RESULT:      -6.7      2.740      5.057
  Name = 
  15 active torsions:
  status: ('A' for Active; 'I' for Inactive)
    1  A    between atoms: C_3  and  C_14
    2  A    between atoms: C_3  and  O_38
    3  A    between atoms: C_6  and  C_20
    4  A    between atoms: C_6  and  C_53
    5  A    between atoms: O_10  and  C_18
    6  A    between atoms: O_10  and  C_32
    7  A    between atoms: C_11  and  C_29
    8  A    between atoms: C_20  and  C_22
    9  A    between atoms: C_27  and  C_54
   10  A    between atoms: C_29  and  C_50
   11  A    between atoms: C_30  and  C_50
   12  A    between atoms: C_30  and  C_53
   13  A    between atoms: C_33  and  C_52
   14  A    between atoms: O_38  and  C_50
   15  A    between atoms: C_51  and  C_54
                            x       y       z     vdW  Elec       q    Type
                         _______ _______ _______ _____ _____    ______ ____

>  <TORSDO>
F 15

$$$$
=
 OpenBabel11052419433D

 55 60  0  0  1  0  0  0  0  0999 V2000
  190.2610  172.8480  142.6160 O   0  0  0  0  0  0  0  0  0  0  0  0
  189.9090  173.5890  145.8320 C   0  0  0  0  0  2  0  0  0  0  0  0
  188.2220  176.9980  146.0520 C   0  0  0  0  0  1  0  0  0  0  0  0
  186.5080  177.3180  143.4740 C   0  0  0  0  0  2  0  0  0  0  0  0
  185.2170  178.2290  141.4270 C   0  0  0  0  0  2  0  0  0  0  0  0
  187.0670  176.5870  141.1610 C   0  0  0  0  0  0  0  0  0  0  0  0
  186.5440  177.9220  140.7220 C   0  0  0  0  0  2  0  0  0  0  0  0
  188.9790  175.8740  143.9610 C   0  0  0  0  0  2  0  0  0  0  0  0
  185.2770  178.0820  142.9640 C   0  0  0  0  0  2  0  0  0  0  0  0
  190.9630  170.5420  142.6040 C   0  0  0  0  0  2  0  0  0  0  0  0
  186.8260  176.1180  142.5760 C   0  0  1  0  0  3  0  0  0  0  0  0
  192.9240  171.8820  144.1610 C   0  0  2  0  0  3  0  0  0  0  0  0
  188.8790  173.0140  142.6510 C   0  0  0  0  0  2  0  0  0  0  0  0
  191.4600  172.0550  144.5880 C   0  0  1  0  0  3  0  0  0  0  0  0
  188.4480  174.6520  140.7790 C   0  0  0  0  0  0  0  0  0  0  0  0
  191.2510  173.4720  145.1300 C   0  0  0  0  0  2  0  0  0  0  0  0
  187.8370  175.8980  140.3790 N   0  0  0  0  0  0  0  0  0  0  0  0
  189.6800  175.0290  146.2390 C   0  0  0  0  0  2  0  0  0  0  0  0
  188.5680  175.6660  145.4230 C   0  0  1  0  0  3  0  0  0  0  0  0
  192.2780  170.7570  142.1650 O   0  0  0  0  0  0  0  0  0  0  0  0
  190.4780  171.7360  143.4370 C   0  0  1  0  0  3  0  0  0  0  0  0
  187.9790  175.3250  143.0340 N   0  0  0  0  0  0  0  0  0  0  0  0
  188.4640  174.3420  142.1060 C   0  0  0  0  0  0  0  0  0  0  0  0
  193.0790  170.6270  143.3030 C   0  0  0  0  0  2  0  0  0  0  0  0
  190.4580  173.7910  139.6140 C   0  0  0  0  0  3  0  0  0  0  0  0
  190.3270  172.0620  137.7760 C   0  0  1  0  0  3  0  0  0  0  0  0
  188.2490  173.0390  138.7890 C   0  0  0  0  0  2  0  0  0  0  0  0
  188.9420  172.6340  137.4880 C   0  0  0  0  0  2  0  0  0  0  0  0
  191.1770  173.1190  138.4790 C   0  0  0  0  0  2  0  0  0  0  0  0
  189.1240  173.8580  139.7120 C   0  0  0  0  0  0  0  0  0  0  0  0
  190.2350  170.9120  138.5660 O   0  0  0  0  0  0  0  0  0  0  0  0
  189.6940  169.9380  137.7250 C   0  0  0  0  0  2  0  0  0  0  0  0
  190.8160  169.1460  137.0880 C   0  0  0  0  0  1  0  0  0  0  0  0
  193.8160  171.7780  145.3880 C   0  0  0  0  0  2  0  0  0  0  0  0
  197.3620  169.4110  146.9160 O   0  0  0  0  0  0  0  0  0  0  0  0
  196.7910  170.1820  146.1390 C   0  0  0  0  0  0  0  0  0  0  0  0
  195.6950  171.3870  143.9250 C   0  0  1  0  0  3  0  0  0  0  0  0
  196.1680  170.9860  145.3220 C   0  0  0  0  0  0  0  0  0  0  0  0
  195.2380  172.1690  145.0310 C   0  0  2  0  0  3  0  0  0  0  0  0
  196.8050  172.0670  143.1050 C   0  0  2  0  0  3  0  0  0  0  0  0
  197.7980  172.6460  143.9100 O   0  0  0  0  0  1  0  0  0  0  0  0
  196.2340  173.1120  142.1450 C   0  0  2  0  0  3  0  0  0  0  0  0
  196.3370  172.6850  140.8160 O   0  0  0  0  0  1  0  0  0  0  0  0
  196.8890  174.4840  142.3850 C   0  0  0  0  0  2  0  0  0  0  0  0
  197.0420  176.7910  143.1270 C   0  0  0  0  0  1  0  0  0  0  0  0
  195.5870  175.2870  144.3900 C   0  0  0  0  0  1  0  0  0  0  0  0
  196.0610  175.6450  142.9820 C   0  0  0  0  0  0  0  0  0  0  0  0
  194.8950  176.1220  142.0600 C   0  0  2  0  0  3  0  0  0  0  0  0
  193.5490  175.4240  142.3610 C   0  0  0  0  0  2  0  0  0  0  0  0
  192.4660  176.4200  142.7620 C   0  0  0  0  0  2  0  0  0  0  0  0
  192.4770  176.6210  144.1460 O   0  0  0  0  0  1  0  0  0  0  0  0
  195.2200  176.0140  140.6950 O   0  0  0  0  0  0  0  0  0  0  0  0
  194.1850  175.2900  140.0730 C   0  0  0  0  0  2  0  0  0  0  0  0
  196.0230  175.1230  138.3740 C   0  0  0  0  0  1  0  0  0  0  0  0
  194.5510  174.8920  138.6480 C   0  0  0  0  0  2  0  0  0  0  0  0
  1 13  1  0  0  0  0
  1 21  1  0  0  0  0
  2 18  1  0  0  0  0
  5  9  1  0  0  0  0
  6 11  1  0  0  0  0
  7  6  1  0  0  0  0
  7  5  1  0  0  0  0
  8 19  1  0  0  0  0
  9  4  1  0  0  0  0
 11 22  1  0  0  0  0
 11  4  1  1  0  0  0
 12 14  1  0  0  0  0
 12 34  1  1  0  0  0
 14 16  1  6  0  0  0
 15 23  2  0  0  0  0
 16  2  1  0  0  0  0
 17 15  1  0  0  0  0
 17  6  2  0  0  0  0
 19  3  1  1  0  0  0
 19 18  1  0  0  0  0
 20 10  1  0  0  0  0
 20 24  1  0  0  0  0
 21 10  1  6  0  0  0
 21 14  1  0  0  0  0
 22  8  1  0  0  0  0
 23 13  1  0  0  0  0
 23 22  1  0  0  0  0
 24 12  1  0  0  0  0
 25 30  2  0  0  0  0
 26 29  1  0  0  0  0
 26 31  1  1  0  0  0
 27 30  1  0  0  0  0
 28 26  1  0  0  0  0
 28 27  1  0  0  0  0
 29 25  1  0  0  0  0
 30 15  1  0  0  0  0
 32 31  1  0  0  0  0
 33 32  1  0  0  0  0
 36 35  2  0  0  0  0
 37 40  1  6  0  0  0
 37 39  1  0  0  0  0
 37 38  1  0  0  0  0
 38 36  2  0  0  0  0
 39 38  1  0  0  0  0
 39 34  1  1  0  0  0
 40 41  1  1  0  0  0
 42 43  1  6  0  0  0
 42 44  1  0  0  0  0
 42 40  1  0  0  0  0
 44 47  1  0  0  0  0
 47 45  1  0  0  0  0
 47 46  1  0  0  0  0
 48 49  1  6  0  0  0
 48 47  1  0  0  0  0
 49 50  1  0  0  0  0
 50 51  1  0  0  0  0
 52 48  1  0  0  0  0
 53 52  1  0  0  0  0
 54 55  1  0  0  0  0
 55 53  1  0  0  0  0
M  END
>  <MODEL>
7

>  <REMARK>
 VINA RESULT:      -6.5      3.012      9.336
  Name = 
  15 active torsions:
  status: ('A' for Active; 'I' for Inactive)
    1  A    between atoms: C_3  and  C_14
    2  A    between atoms: C_3  and  O_38
    3  A    between atoms: C_6  and  C_20
    4  A    between atoms: C_6  and  C_53
    5  A    between atoms: O_10  and  C_18
    6  A    between atoms: O_10  and  C_32
    7  A    between atoms: C_11  and  C_29
    8  A    between atoms: C_20  and  C_22
    9  A    between atoms: C_27  and  C_54
   10  A    between atoms: C_29  and  C_50
   11  A    between atoms: C_30  and  C_50
   12  A    between atoms: C_30  and  C_53
   13  A    between atoms: C_33  and  C_52
   14  A    between atoms: O_38  and  C_50
   15  A    between atoms: C_51  and  C_54
                            x       y       z     vdW  Elec       q    Type
                         _______ _______ _______ _____ _____    ______ ____

>  <TORSDO>
F 15

$$$$
=
 OpenBabel11052419433D

 55 60  0  0  1  0  0  0  0  0999 V2000
  192.0440  171.9070  140.7480 O   0  0  0  0  0  0  0  0  0  0  0  0
  190.3240  173.1610  138.2020 C   0  0  0  0  0  2  0  0  0  0  0  0
  192.8280  174.6170  135.7260 C   0  0  0  0  0  1  0  0  0  0  0  0
  195.4710  173.0120  136.0750 C   0  0  0  0  0  2  0  0  0  0  0  0
  197.9410  172.2540  136.1760 C   0  0  0  0  0  2  0  0  0  0  0  0
  196.4790  172.1600  138.1850 C   0  0  0  0  0  0  0  0  0  0  0  0
  197.7840  172.6620  137.6450 C   0  0  0  0  0  2  0  0  0  0  0  0
  193.3700  173.6720  137.9670 C   0  0  0  0  0  2  0  0  0  0  0  0
  196.7360  172.6370  135.2880 C   0  0  0  0  0  2  0  0  0  0  0  0
  190.4110  170.6860  142.0330 C   0  0  0  0  0  2  0  0  0  0  0  0
  195.2740  172.0850  137.2790 C   0  0  1  0  0  3  0  0  0  0  0  0
  189.4080  173.3410  141.9340 C   0  0  2  0  0  3  0  0  0  0  0  0
  192.6140  171.1660  139.7150 C   0  0  0  0  0  2  0  0  0  0  0  0
  189.7310  172.6690  140.5920 C   0  0  1  0  0  3  0  0  0  0  0  0
  195.0900  171.5250  140.0470 C   0  0  0  0  0  0  0  0  0  0  0  0
  190.2750  173.7160  139.6150 C   0  0  0  0  0  2  0  0  0  0  0  0
  196.3460  171.9190  139.4530 N   0  0  0  0  0  0  0  0  0  0  0  0
  190.9860  174.1730  137.2890 C   0  0  0  0  0  2  0  0  0  0  0  0
  192.3490  173.6920  136.8230 C   0  0  1  0  0  3  0  0  0  0  0  0
  190.3830  171.5400  143.1460 O   0  0  0  0  0  0  0  0  0  0  0  0
  190.7100  171.4850  140.7570 C   0  0  1  0  0  3  0  0  0  0  0  0
  194.0570  172.3750  138.0560 N   0  0  0  0  0  0  0  0  0  0  0  0
  193.9520  171.7010  139.3200 C   0  0  0  0  0  0  0  0  0  0  0  0
  189.2070  172.2840  143.0190 C   0  0  0  0  0  2  0  0  0  0  0  0
  195.2320  169.7710  141.7930 C   0  0  0  0  0  3  0  0  0  0  0  0
  195.4840  170.3140  144.2470 C   0  0  1  0  0  3  0  0  0  0  0  0
  195.1540  172.1280  142.5440 C   0  0  0  0  0  2  0  0  0  0  0  0
  194.7460  171.6100  143.9230 C   0  0  0  0  0  2  0  0  0  0  0  0
  195.1380  169.2560  143.2010 C   0  0  0  0  0  2  0  0  0  0  0  0
  195.1310  171.0660  141.4660 C   0  0  0  0  0  0  0  0  0  0  0  0
  196.8670  170.5250  144.2810 O   0  0  0  0  0  0  0  0  0  0  0  0
  197.1700  170.7130  145.6310 C   0  0  0  0  0  2  0  0  0  0  0  0
  197.3320  169.3640  146.3000 C   0  0  0  0  0  1  0  0  0  0  0  0
  188.1510  174.1880  141.8030 C   0  0  0  0  0  2  0  0  0  0  0  0
  186.2000  177.7470  139.7940 O   0  0  0  0  0  0  0  0  0  0  0  0
  186.7620  177.1660  140.7280 C   0  0  0  0  0  0  0  0  0  0  0  0
  187.3980  176.0400  143.1540 C   0  0  1  0  0  3  0  0  0  0  0  0
  187.3470  176.5340  141.7080 C   0  0  0  0  0  0  0  0  0  0  0  0
  188.4310  175.6050  142.2660 C   0  0  2  0  0  3  0  0  0  0  0  0
  187.8470  177.1400  144.1310 C   0  0  2  0  0  3  0  0  0  0  0  0
  188.9260  177.8920  143.6450 O   0  0  0  0  0  1  0  0  0  0  0  0
  188.1860  176.5640  145.5070 C   0  0  2  0  0  3  0  0  0  0  0  0
  187.2450  176.9580  146.4650 O   0  0  0  0  0  1  0  0  0  0  0  0
  189.6300  176.9230  145.9020 C   0  0  0  0  0  2  0  0  0  0  0  0
  189.9770  174.5260  145.7160 C   0  0  0  0  0  1  0  0  0  0  0  0
  190.9390  175.6660  147.6530 C   0  0  0  0  0  1  0  0  0  0  0  0
  190.6660  175.8030  146.1560 C   0  0  0  0  0  0  0  0  0  0  0  0
  191.9740  175.9590  145.3180 C   0  0  2  0  0  3  0  0  0  0  0  0
  191.9600  175.1490  144.0030 C   0  0  0  0  0  2  0  0  0  0  0  0
  191.9010  176.0520  142.7750 C   0  0  0  0  0  2  0  0  0  0  0  0
  193.1910  176.3570  142.3310 O   0  0  0  0  0  1  0  0  0  0  0  0
  193.1250  175.6670  146.0730 O   0  0  0  0  0  0  0  0  0  0  0  0
  194.1150  176.5980  145.7060 C   0  0  0  0  0  2  0  0  0  0  0  0
  195.5660  174.5540  145.7810 C   0  0  0  0  0  1  0  0  0  0  0  0
  195.3550  175.9130  145.1460 C   0  0  0  0  0  2  0  0  0  0  0  0
  1 21  1  0  0  0  0
  2 16  1  0  0  0  0
  5  7  1  0  0  0  0
  6 17  2  0  0  0  0
  7  6  1  0  0  0  0
  8 22  1  0  0  0  0
  9  4  1  0  0  0  0
  9  5  1  0  0  0  0
 10 20  1  0  0  0  0
 11  4  1  6  0  0  0
 11 22  1  0  0  0  0
 11  6  1  0  0  0  0
 12 34  1  6  0  0  0
 12 24  1  0  0  0  0
 13  1  1  0  0  0  0
 14 16  1  6  0  0  0
 14 21  1  0  0  0  0
 14 12  1  0  0  0  0
 15 30  1  0  0  0  0
 17 15  1  0  0  0  0
 18  2  1  0  0  0  0
 19  3  1  6  0  0  0
 19 18  1  0  0  0  0
 19  8  1  0  0  0  0
 21 10  1  1  0  0  0
 22 23  1  0  0  0  0
 23 13  1  0  0  0  0
 23 15  2  0  0  0  0
 24 20  1  0  0  0  0
 25 29  1  0  0  0  0
 26 31  1  6  0  0  0
 27 28  1  0  0  0  0
 28 26  1  0  0  0  0
 29 26  1  0  0  0  0
 30 25  2  0  0  0  0
 30 27  1  0  0  0  0
 31 32  1  0  0  0  0
 32 33  1  0  0  0  0
 35 36  2  0  0  0  0
 36 38  2  0  0  0  0
 37 40  1  1  0  0  0
 38 39  1  0  0  0  0
 38 37  1  0  0  0  0
 39 34  1  6  0  0  0
 39 37  1  0  0  0  0
 40 41  1  6  0  0  0
 40 42  1  0  0  0  0
 42 44  1  0  0  0  0
 42 43  1  1  0  0  0
 44 47  1  0  0  0  0
 45 47  1  0  0  0  0
 47 46  1  0  0  0  0
 48 49  1  6  0  0  0
 48 52  1  0  0  0  0
 48 47  1  0  0  0  0
 50 49  1  0  0  0  0
 51 50  1  0  0  0  0
 53 52  1  0  0  0  0
 55 53  1  0  0  0  0
 55 54  1  0  0  0  0
M  END
>  <MODEL>
8

>  <REMARK>
 VINA RESULT:      -6.5      2.217      3.675
  Name = 
  15 active torsions:
  status: ('A' for Active; 'I' for Inactive)
    1  A    between atoms: C_3  and  C_14
    2  A    between atoms: C_3  and  O_38
    3  A    between atoms: C_6  and  C_20
    4  A    between atoms: C_6  and  C_53
    5  A    between atoms: O_10  and  C_18
    6  A    between atoms: O_10  and  C_32
    7  A    between atoms: C_11  and  C_29
    8  A    between atoms: C_20  and  C_22
    9  A    between atoms: C_27  and  C_54
   10  A    between atoms: C_29  and  C_50
   11  A    between atoms: C_30  and  C_50
   12  A    between atoms: C_30  and  C_53
   13  A    between atoms: C_33  and  C_52
   14  A    between atoms: O_38  and  C_50
   15  A    between atoms: C_51  and  C_54
                            x       y       z     vdW  Elec       q    Type
                         _______ _______ _______ _____ _____    ______ ____

>  <TORSDO>
F 15

$$$$
=
 OpenBabel11052419433D

 55 60  0  0  1  0  0  0  0  0999 V2000
  192.0810  173.1470  141.1630 O   0  0  0  0  0  0  0  0  0  0  0  0
  189.7470  172.8480  138.8230 C   0  0  0  0  0  2  0  0  0  0  0  0
  191.2740  173.9790  135.5210 C   0  0  0  0  0  1  0  0  0  0  0  0
  194.3340  173.4480  135.7190 C   0  0  0  0  0  2  0  0  0  0  0  0
  196.9070  173.5290  135.4740 C   0  0  0  0  0  2  0  0  0  0  0  0
  195.8150  173.7410  137.6990 C   0  0  0  0  0  0  0  0  0  0  0  0
  196.7880  174.3730  136.7490 C   0  0  0  0  0  2  0  0  0  0  0  0
  192.3690  174.1010  137.7550 C   0  0  0  0  0  2  0  0  0  0  0  0
  195.5490  173.2010  134.8130 C   0  0  0  0  0  2  0  0  0  0  0  0
  191.1410  172.0500  143.0930 C   0  0  0  0  0  2  0  0  0  0  0  0
  194.6150  173.0000  137.1570 C   0  0  1  0  0  3  0  0  0  0  0  0
  189.2650  174.0800  142.4360 C   0  0  2  0  0  3  0  0  0  0  0  0
  192.7500  172.2860  140.2980 C   0  0  0  0  0  2  0  0  0  0  0  0
  189.6450  173.0960  141.3200 C   0  0  1  0  0  3  0  0  0  0  0  0
  194.9640  173.4420  139.9310 C   0  0  0  0  0  0  0  0  0  0  0  0
  189.6700  173.8320  139.9770 C   0  0  0  0  0  2  0  0  0  0  0  0
  195.9220  173.9430  138.9750 N   0  0  0  0  0  0  0  0  0  0  0  0
  189.9000  173.6100  137.5230 C   0  0  0  0  0  2  0  0  0  0  0  0
  191.2810  173.4120  136.9230 C   0  0  1  0  0  3  0  0  0  0  0  0
  190.9450  173.1990  143.8740 O   0  0  0  0  0  0  0  0  0  0  0  0
  190.9910  172.3890  141.6040 C   0  0  1  0  0  3  0  0  0  0  0  0
  193.4730  173.1820  138.0680 N   0  0  0  0  0  0  0  0  0  0  0  0
  193.7590  173.0070  139.4650 C   0  0  0  0  0  0  0  0  0  0  0  0
  189.5750  173.4720  143.8030 C   0  0  0  0  0  2  0  0  0  0  0  0
  194.9920  174.6240  142.1090 C   0  0  0  0  0  3  0  0  0  0  0  0
  195.8360  173.5440  144.2310 C   0  0  1  0  0  3  0  0  0  0  0  0
  196.0070  172.3690  142.0190 C   0  0  0  0  0  2  0  0  0  0  0  0
  196.7350  172.7130  143.3190 C   0  0  0  0  0  2  0  0  0  0  0  0
  195.4540  174.8410  143.5220 C   0  0  0  0  0  2  0  0  0  0  0  0
  195.3270  173.5550  141.3740 C   0  0  0  0  0  0  0  0  0  0  0  0
  194.6870  172.8280  144.5820 O   0  0  0  0  0  0  0  0  0  0  0  0
  195.1440  171.7810  145.3840 C   0  0  0  0  0  2  0  0  0  0  0  0
  194.2590  170.5700  145.1790 C   0  0  0  0  0  1  0  0  0  0  0  0
  187.7850  174.4190  142.3490 C   0  0  0  0  0  2  0  0  0  0  0  0
  186.6810  177.4440  139.1640 O   0  0  0  0  0  0  0  0  0  0  0  0
  186.7460  177.0220  140.3230 C   0  0  0  0  0  0  0  0  0  0  0  0
  186.1720  176.1380  142.8620 C   0  0  1  0  0  3  0  0  0  0  0  0
  186.8160  176.5560  141.5390 C   0  0  0  0  0  0  0  0  0  0  0  0
  187.5670  175.8800  142.6920 C   0  0  2  0  0  3  0  0  0  0  0  0
  185.8730  177.3410  143.7710 C   0  0  2  0  0  3  0  0  0  0  0  0
  186.4550  178.5310  143.3090 O   0  0  0  0  0  1  0  0  0  0  0  0
  186.3020  177.0740  145.2150 C   0  0  2  0  0  3  0  0  0  0  0  0
  185.2380  177.2720  146.1030 O   0  0  0  0  0  1  0  0  0  0  0  0
  187.5440  177.9090  145.5740 C   0  0  0  0  0  2  0  0  0  0  0  0
  188.2610  175.8460  146.6360 C   0  0  0  0  0  1  0  0  0  0  0  0
  188.9050  177.9520  147.6960 C   0  0  0  0  0  1  0  0  0  0  0  0
  188.7170  177.2620  146.3460 C   0  0  0  0  0  0  0  0  0  0  0  0
  190.0410  177.1840  145.5230 C   0  0  2  0  0  3  0  0  0  0  0  0
  189.8660  177.5790  144.0400 C   0  0  0  0  0  2  0  0  0  0  0  0
  190.9930  178.4840  143.5520 C   0  0  0  0  0  2  0  0  0  0  0  0
  191.8880  177.7630  142.7550 O   0  0  0  0  0  1  0  0  0  0  0  0
  190.6620  175.9260  145.6350 O   0  0  0  0  0  0  0  0  0  0  0  0
  192.0430  176.1510  145.7880 C   0  0  0  0  0  2  0  0  0  0  0  0
  191.5740  175.3620  148.1220 C   0  0  0  0  0  1  0  0  0  0  0  0
  192.4400  176.2530  147.2560 C   0  0  0  0  0  2  0  0  0  0  0  0
  1 21  1  0  0  0  0
  2 16  1  0  0  0  0
  5  7  1  0  0  0  0
  6 17  2  0  0  0  0
  7  6  1  0  0  0  0
  8 22  1  0  0  0  0
  9  5  1  0  0  0  0
  9  4  1  0  0  0  0
 10 20  1  0  0  0  0
 11  4  1  6  0  0  0
 11  6  1  0  0  0  0
 11 22  1  0  0  0  0
 12 34  1  1  0  0  0
 12 24  1  0  0  0  0
 13  1  1  0  0  0  0
 14 16  1  6  0  0  0
 14 21  1  0  0  0  0
 14 12  1  0  0  0  0
 15 30  1  0  0  0  0
 17 15  1  0  0  0  0
 18  2  1  0  0  0  0
 19  3  1  6  0  0  0
 19 18  1  0  0  0  0
 19  8  1  0  0  0  0
 21 10  1  1  0  0  0
 22 23  1  0  0  0  0
 23 15  2  0  0  0  0
 23 13  1  0  0  0  0
 24 20  1  0  0  0  0
 25 29  1  0  0  0  0
 26 31  1  6  0  0  0
 27 28  1  0  0  0  0
 28 26  1  0  0  0  0
 29 26  1  0  0  0  0
 30 27  1  0  0  0  0
 30 25  2  0  0  0  0
 31 32  1  0  0  0  0
 33 32  1  0  0  0  0
 35 36  2  0  0  0  0
 36 38  2  0  0  0  0
 37 40  1  1  0  0  0
 38 39  1  0  0  0  0
 38 37  1  0  0  0  0
 39 34  1  6  0  0  0
 39 37  1  0  0  0  0
 40 41  1  6  0  0  0
 40 42  1  0  0  0  0
 42 44  1  0  0  0  0
 42 43  1  1  0  0  0
 44 47  1  0  0  0  0
 47 45  1  0  0  0  0
 47 46  1  0  0  0  0
 48 49  1  6  0  0  0
 48 52  1  0  0  0  0
 48 47  1  0  0  0  0
 50 49  1  0  0  0  0
 51 50  1  0  0  0  0
 52 53  1  0  0  0  0
 53 55  1  0  0  0  0
 55 54  1  0  0  0  0
M  END
>  <MODEL>
9

>  <REMARK>
 VINA RESULT:      -6.3      1.405      1.900
  Name = 
  15 active torsions:
  status: ('A' for Active; 'I' for Inactive)
    1  A    between atoms: C_3  and  C_14
    2  A    between atoms: C_3  and  O_38
    3  A    between atoms: C_6  and  C_20
    4  A    between atoms: C_6  and  C_53
    5  A    between atoms: O_10  and  C_18
    6  A    between atoms: O_10  and  C_32
    7  A    between atoms: C_11  and  C_29
    8  A    between atoms: C_20  and  C_22
    9  A    between atoms: C_27  and  C_54
   10  A    between atoms: C_29  and  C_50
   11  A    between atoms: C_30  and  C_50
   12  A    between atoms: C_30  and  C_53
   13  A    between atoms: C_33  and  C_52
   14  A    between atoms: O_38  and  C_50
   15  A    between atoms: C_51  and  C_54
                            x       y       z     vdW  Elec       q    Type
                         _______ _______ _______ _____ _____    ______ ____

>  <TORSDO>
F 15

$$$$
