=
 OpenBabel11052419203D

 32 34  0  0  1  0  0  0  0  0999 V2000
  186.9730  176.7770  145.9320 C   0  0  1  0  0  3  0  0  0  0  0  0
  185.5920  178.8210  146.6890 C   0  0  1  0  0  3  0  0  0  0  0  0
  186.1550  178.1100  147.9030 C   0  0  0  0  0  2  0  0  0  0  0  0
  186.9720  178.1460  146.6240 C   0  0  1  0  0  3  0  0  0  0  0  0
  184.5310  178.0070  146.1130 N   0  0  0  0  0  2  0  0  0  0  0  0
  184.7650  179.6610  144.3620 C   0  0  0  0  0  1  0  0  0  0  0  0
  183.7930  178.8610  145.2020 C   0  0  0  0  0  2  0  0  0  0  0  0
  187.5020  176.8870  144.5020 C   0  0  2  0  0  3  0  0  0  0  0  0
  187.9610  178.1800  144.2470 O   0  0  0  0  0  1  0  0  0  0  0  0
  186.4090  176.5430  143.4990 C   0  0  0  0  0  2  0  0  0  0  0  0
  187.0040  176.0130  142.2700 N   0  0  0  0  0  0  0  0  0  0  0  0
  188.1280  175.1100  142.5860 C   0  0  1  0  0  3  0  0  0  0  0  0
  187.8400  173.6690  142.1690 C   0  0  0  0  0  1  0  0  0  0  0  0
  189.4310  175.5820  141.9290 C   0  0  0  0  0  2  0  0  0  0  0  0
  190.6530  175.2660  142.7790 C   0  0  0  0  0  1  0  0  0  0  0  0
  187.4500  177.1470  141.4400 C   0  0  0  0  0  2  0  0  0  0  0  0
  185.5660  178.3710  140.6090 O   0  0  0  0  0  0  0  0  0  0  0  0
  186.5650  176.9520  139.0680 N   0  0  0  0  0  1  0  0  0  0  0  0
  186.4720  177.5340  140.3640 C   0  0  0  0  0  0  0  0  0  0  0  0
  187.8240  175.8040  146.7340 C   0  0  0  0  0  2  0  0  0  0  0  0
  189.6890  174.2240  146.3220 C   0  0  0  0  0  2  0  0  0  0  0  0
  190.2360  175.4270  147.0550 C   0  0  2  0  0  3  0  0  0  0  0  0
  189.1440  175.6030  146.0180 C   0  0  2  0  0  3  0  0  0  0  0  0
  191.5490  175.8510  146.4340 C   0  0  0  0  0  2  0  0  0  0  0  0
  192.6160  174.9990  146.9310 N   0  0  0  0  0  2  0  0  0  0  0  0
  193.7860  175.3640  146.2440 N   0  0  0  0  0  0  0  0  0  0  0  0
  196.1000  174.1630  146.0170 O   0  0  0  0  0  1  0  0  0  0  0  0
  194.0650  173.0560  145.4980 C   0  0  0  0  0  2  0  0  0  0  0  0
  193.8860  174.4990  145.0690 C   0  0  2  0  0  3  0  0  0  0  0  0
  195.2540  173.8190  144.9580 C   0  0  1  0  0  3  0  0  0  0  0  0
  193.6200  176.7450  145.7910 C   0  0  0  0  0  2  0  0  0  0  0  0
  194.8120  177.2740  145.3190 F   0  0  0  0  0  0  0  0  0  0  0  0
  1 20  1  1  0  0  0
  2  5  1  6  0  0  0
  2  3  1  0  0  0  0
  4  1  1  6  0  0  0
  4  2  1  0  0  0  0
  4  3  1  0  0  0  0
  6  7  1  0  0  0  0
  7  5  1  0  0  0  0
  8  9  1  6  0  0  0
  8  1  1  0  0  0  0
 10  8  1  0  0  0  0
 11 12  1  0  0  0  0
 11 10  1  0  0  0  0
 12 13  1  6  0  0  0
 14 12  1  0  0  0  0
 14 15  1  0  0  0  0
 16 11  1  0  0  0  0
 18 19  1  0  0  0  0
 19 17  2  0  0  0  0
 19 16  1  0  0  0  0
 21 22  1  0  0  0  0
 22 24  1  6  0  0  0
 23 21  1  0  0  0  0
 23 20  1  1  0  0  0
 23 22  1  0  0  0  0
 24 25  1  0  0  0  0
 26 25  1  0  0  0  0
 29 28  1  0  0  0  0
 29 26  1  1  0  0  0
 30 29  1  0  0  0  0
 30 28  1  0  0  0  0
 30 27  1  1  0  0  0
 31 26  1  0  0  0  0
 32 31  1  0  0  0  0
M  END
>  <MODEL>
1

>  <REMARK>
 VINA RESULT:      -5.6      0.000      0.000
  Name = 
  17 active torsions:
  status: ('A' for Active; 'I' for Inactive)
    1  A    between atoms: C_2  and  C_6
    2  A    between atoms: C_3  and  N_20
    3  A    between atoms: C_3  and  C_22
    4  A    between atoms: C_4  and  C_14
    5  A    between atoms: C_4  and  C_24
    6  A    between atoms: C_4  and  C_30
    7  A    between atoms: C_5  and  C_14
    8  A    between atoms: C_6  and  N_17
    9  A    between atoms: C_11  and  N_12
   10  A    between atoms: N_12  and  N_17
   11  A    between atoms: N_12  and  C_28
   12  A    between atoms: N_13  and  C_18
   13  A    between atoms: N_13  and  C_29
   14  A    between atoms: C_15  and  N_20
   15  A    between atoms: C_15  and  C_26
   16  A    between atoms: C_16  and  N_20
   17  A    between atoms: C_16  and  C_24
                            x       y       z     vdW  Elec       q    Type
                         _______ _______ _______ _____ _____    ______ ____

>  <TORSDO>
F 17

$$$$
=
 OpenBabel11052419203D

 32 34  0  0  1  0  0  0  0  0999 V2000
  191.2860  174.6380  144.2450 C   0  0  1  0  0  3  0  0  0  0  0  0
  193.7820  174.5650  144.8960 C   0  0  1  0  0  3  0  0  0  0  0  0
  192.9290  174.5610  146.1490 C   0  0  0  0  0  2  0  0  0  0  0  0
  192.4220  173.8480  144.9080 C   0  0  1  0  0  3  0  0  0  0  0  0
  193.7250  175.8870  144.2890 N   0  0  0  0  0  2  0  0  0  0  0  0
  195.0770  175.1440  142.4240 C   0  0  0  0  0  1  0  0  0  0  0  0
  194.9870  176.0900  143.6020 C   0  0  0  0  0  2  0  0  0  0  0  0
  190.9420  174.0550  142.8740 C   0  0  2  0  0  3  0  0  0  0  0  0
  191.5300  174.8100  141.8580 O   0  0  0  0  0  1  0  0  0  0  0  0
  189.4340  174.0330  142.6650 C   0  0  0  0  0  2  0  0  0  0  0  0
  189.0920  174.7020  141.4070 N   0  0  0  0  0  0  0  0  0  0  0  0
  188.1290  175.7940  141.6470 C   0  0  1  0  0  3  0  0  0  0  0  0
  187.0460  175.3950  142.6490 C   0  0  0  0  0  1  0  0  0  0  0  0
  188.8310  177.0680  142.1330 C   0  0  0  0  0  2  0  0  0  0  0  0
  187.8880  178.2610  142.1910 C   0  0  0  0  0  1  0  0  0  0  0  0
  188.5370  173.6990  140.4810 C   0  0  0  0  0  2  0  0  0  0  0  0
  190.2960  173.6660  138.8540 O   0  0  0  0  0  0  0  0  0  0  0  0
  188.1800  174.0840  137.9970 N   0  0  0  0  0  1  0  0  0  0  0  0
  189.0660  173.8100  139.0770 C   0  0  0  0  0  0  0  0  0  0  0  0
  190.0620  174.6200  145.1470 C   0  0  0  0  0  2  0  0  0  0  0  0
  189.5870  176.2150  146.9830 C   0  0  0  0  0  2  0  0  0  0  0  0
  188.3270  176.0370  146.1680 C   0  0  2  0  0  3  0  0  0  0  0  0
  189.6790  176.0460  145.4810 C   0  0  2  0  0  3  0  0  0  0  0  0
  187.6710  177.3800  145.9380 C   0  0  0  0  0  2  0  0  0  0  0  0
  186.2270  177.2300  145.9940 N   0  0  0  0  0  2  0  0  0  0  0  0
  185.6830  178.5220  146.0860 N   0  0  0  0  0  0  0  0  0  0  0  0
  185.5720  180.2060  144.0860 O   0  0  0  0  0  1  0  0  0  0  0  0
  184.6110  178.0400  143.9460 C   0  0  0  0  0  2  0  0  0  0  0  0
  184.4050  178.5060  145.3750 C   0  0  2  0  0  3  0  0  0  0  0  0
  184.3680  179.5080  144.2170 C   0  0  1  0  0  3  0  0  0  0  0  0
  185.4240  178.7930  147.5000 C   0  0  0  0  0  2  0  0  0  0  0  0
  186.3750  179.6470  148.0380 F   0  0  0  0  0  0  0  0  0  0  0  0
  1 20  1  1  0  0  0
  2  5  1  6  0  0  0
  2  4  1  0  0  0  0
  2  3  1  0  0  0  0
  4  1  1  6  0  0  0
  4  3  1  0  0  0  0
  6  7  1  0  0  0  0
  7  5  1  0  0  0  0
  8  9  1  6  0  0  0
  8  1  1  0  0  0  0
 10  8  1  0  0  0  0
 11 12  1  0  0  0  0
 11 10  1  0  0  0  0
 12 14  1  0  0  0  0
 12 13  1  1  0  0  0
 14 15  1  0  0  0  0
 16 11  1  0  0  0  0
 17 19  2  0  0  0  0
 18 19  1  0  0  0  0
 19 16  1  0  0  0  0
 22 24  1  6  0  0  0
 22 21  1  0  0  0  0
 23 20  1  1  0  0  0
 23 22  1  0  0  0  0
 23 21  1  0  0  0  0
 24 25  1  0  0  0  0
 25 26  1  0  0  0  0
 26 31  1  0  0  0  0
 28 30  1  0  0  0  0
 28 29  1  0  0  0  0
 29 26  1  1  0  0  0
 30 27  1  1  0  0  0
 30 29  1  0  0  0  0
 31 32  1  0  0  0  0
M  END
>  <MODEL>
2

>  <REMARK>
 VINA RESULT:      -5.6      2.830      7.123
  Name = 
  17 active torsions:
  status: ('A' for Active; 'I' for Inactive)
    1  A    between atoms: C_2  and  C_6
    2  A    between atoms: C_3  and  N_20
    3  A    between atoms: C_3  and  C_22
    4  A    between atoms: C_4  and  C_14
    5  A    between atoms: C_4  and  C_24
    6  A    between atoms: C_4  and  C_30
    7  A    between atoms: C_5  and  C_14
    8  A    between atoms: C_6  and  N_17
    9  A    between atoms: C_11  and  N_12
   10  A    between atoms: N_12  and  N_17
   11  A    between atoms: N_12  and  C_28
   12  A    between atoms: N_13  and  C_18
   13  A    between atoms: N_13  and  C_29
   14  A    between atoms: C_15  and  N_20
   15  A    between atoms: C_15  and  C_26
   16  A    between atoms: C_16  and  N_20
   17  A    between atoms: C_16  and  C_24
                            x       y       z     vdW  Elec       q    Type
                         _______ _______ _______ _____ _____    ______ ____

>  <TORSDO>
F 17

$$$$
=
 OpenBabel11052419203D

 32 34  0  0  1  0  0  0  0  0999 V2000
  190.9160  175.8360  143.6030 C   0  0  1  0  0  3  0  0  0  0  0  0
  190.7700  174.2210  145.6090 C   0  0  1  0  0  3  0  0  0  0  0  0
  189.7290  173.8420  144.5750 C   0  0  0  0  0  2  0  0  0  0  0  0
  191.0640  174.3960  144.1110 C   0  0  1  0  0  3  0  0  0  0  0  0
  190.3630  175.4580  146.2600 N   0  0  0  0  0  2  0  0  0  0  0  0
  191.3780  176.6620  148.0980 C   0  0  0  0  0  1  0  0  0  0  0  0
  190.7640  175.3540  147.6510 C   0  0  0  0  0  2  0  0  0  0  0  0
  192.2460  176.3680  143.0690 C   0  0  2  0  0  3  0  0  0  0  0  0
  192.7630  175.5090  142.0980 O   0  0  0  0  0  1  0  0  0  0  0  0
  193.2600  176.5060  144.1980 C   0  0  0  0  0  2  0  0  0  0  0  0
  194.4350  175.6760  143.9210 N   0  0  0  0  0  0  0  0  0  0  0  0
  194.5370  174.5790  144.9030 C   0  0  1  0  0  3  0  0  0  0  0  0
  194.7600  173.2250  144.2300 C   0  0  0  0  0  1  0  0  0  0  0  0
  195.6570  174.8350  145.9200 C   0  0  0  0  0  2  0  0  0  0  0  0
  196.6530  173.6860  145.9820 C   0  0  0  0  0  1  0  0  0  0  0  0
  195.6330  176.5350  143.9580 C   0  0  0  0  0  2  0  0  0  0  0  0
  197.6470  175.8210  142.8750 O   0  0  0  0  0  0  0  0  0  0  0  0
  196.1130  176.8760  141.4890 N   0  0  0  0  0  1  0  0  0  0  0  0
  196.5270  176.3820  142.7580 C   0  0  0  0  0  0  0  0  0  0  0  0
  189.8560  175.8840  142.5140 C   0  0  0  0  0  2  0  0  0  0  0  0
  188.6450  177.5950  143.8350 C   0  0  0  0  0  2  0  0  0  0  0  0
  187.7500  177.1440  142.7040 C   0  0  2  0  0  3  0  0  0  0  0  0
  189.2450  177.2690  142.4850 C   0  0  2  0  0  3  0  0  0  0  0  0
  187.0790  178.3440  142.0730 C   0  0  0  0  0  2  0  0  0  0  0  0
  186.2210  178.9890  143.0530 N   0  0  0  0  0  2  0  0  0  0  0  0
  185.1620  178.1050  143.3170 N   0  0  0  0  0  0  0  0  0  0  0  0
  185.5770  176.7570  145.5210 O   0  0  0  0  0  1  0  0  0  0  0  0
  185.4140  179.1250  145.5210 C   0  0  0  0  0  2  0  0  0  0  0  0
  184.4360  178.6310  144.4720 C   0  0  2  0  0  3  0  0  0  0  0  0
  184.6910  177.8150  145.7440 C   0  0  1  0  0  3  0  0  0  0  0  0
  184.2690  178.1270  142.1580 C   0  0  0  0  0  2  0  0  0  0  0  0
  182.9440  178.2760  142.5380 F   0  0  0  0  0  0  0  0  0  0  0  0
  1 20  1  6  0  0  0
  2  5  1  1  0  0  0
  3  2  1  0  0  0  0
  4  1  1  1  0  0  0
  4  3  1  0  0  0  0
  4  2  1  0  0  0  0
  5  7  1  0  0  0  0
  7  6  1  0  0  0  0
  8  9  1  6  0  0  0
  8  1  1  0  0  0  0
  8 10  1  0  0  0  0
 11 16  1  0  0  0  0
 11 10  1  0  0  0  0
 11 12  1  0  0  0  0
 12 13  1  6  0  0  0
 12 14  1  0  0  0  0
 14 15  1  0  0  0  0
 18 19  1  0  0  0  0
 19 17  2  0  0  0  0
 19 16  1  0  0  0  0
 22 24  1  6  0  0  0
 22 21  1  0  0  0  0
 23 20  1  1  0  0  0
 23 22  1  0  0  0  0
 23 21  1  0  0  0  0
 24 25  1  0  0  0  0
 25 26  1  0  0  0  0
 28 30  1  0  0  0  0
 29 26  1  6  0  0  0
 29 28  1  0  0  0  0
 29 30  1  0  0  0  0
 30 27  1  6  0  0  0
 31 32  1  0  0  0  0
 31 26  1  0  0  0  0
M  END
>  <MODEL>
3

>  <REMARK>
 VINA RESULT:      -5.6      3.216      8.171
  Name = 
  17 active torsions:
  status: ('A' for Active; 'I' for Inactive)
    1  A    between atoms: C_2  and  C_6
    2  A    between atoms: C_3  and  N_20
    3  A    between atoms: C_3  and  C_22
    4  A    between atoms: C_4  and  C_14
    5  A    between atoms: C_4  and  C_24
    6  A    between atoms: C_4  and  C_30
    7  A    between atoms: C_5  and  C_14
    8  A    between atoms: C_6  and  N_17
    9  A    between atoms: C_11  and  N_12
   10  A    between atoms: N_12  and  N_17
   11  A    between atoms: N_12  and  C_28
   12  A    between atoms: N_13  and  C_18
   13  A    between atoms: N_13  and  C_29
   14  A    between atoms: C_15  and  N_20
   15  A    between atoms: C_15  and  C_26
   16  A    between atoms: C_16  and  N_20
   17  A    between atoms: C_16  and  C_24
                            x       y       z     vdW  Elec       q    Type
                         _______ _______ _______ _____ _____    ______ ____

>  <TORSDO>
F 17

$$$$
=
 OpenBabel11052419203D

 32 34  0  0  1  0  0  0  0  0999 V2000
  192.7620  174.8310  145.3010 C   0  0  1  0  0  3  0  0  0  0  0  0
  195.2810  175.1230  144.8290 C   0  0  1  0  0  3  0  0  0  0  0  0
  194.9940  175.4520  146.2810 C   0  0  0  0  0  2  0  0  0  0  0  0
  194.1910  174.3590  145.5980 C   0  0  1  0  0  3  0  0  0  0  0  0
  194.7490  176.1860  143.9880 N   0  0  0  0  0  2  0  0  0  0  0  0
  196.9840  176.7000  143.2160 C   0  0  0  0  0  1  0  0  0  0  0  0
  195.5950  176.2560  142.8120 C   0  0  0  0  0  2  0  0  0  0  0  0
  192.0120  173.8040  144.4510 C   0  0  2  0  0  3  0  0  0  0  0  0
  192.6930  172.5860  144.4410 O   0  0  0  0  0  1  0  0  0  0  0  0
  191.8640  174.3010  143.0190 C   0  0  0  0  0  2  0  0  0  0  0  0
  190.4540  174.5600  142.7210 N   0  0  0  0  0  0  0  0  0  0  0  0
  190.1000  175.9530  143.0600 C   0  0  1  0  0  3  0  0  0  0  0  0
  191.2660  176.9130  142.8280 C   0  0  0  0  0  1  0  0  0  0  0  0
  188.8770  176.4320  142.2700 C   0  0  0  0  0  2  0  0  0  0  0  0
  188.7310  177.9470  142.2950 C   0  0  0  0  0  1  0  0  0  0  0  0
  189.6310  173.6030  143.4820 C   0  0  0  0  0  2  0  0  0  0  0  0
  187.9300  172.5670  142.1490 O   0  0  0  0  0  0  0  0  0  0  0  0
  189.8580  171.3050  142.4260 N   0  0  0  0  0  1  0  0  0  0  0  0
  189.0810  172.4770  142.6480 C   0  0  0  0  0  0  0  0  0  0  0  0
  192.0240  175.0680  146.6090 C   0  0  0  0  0  2  0  0  0  0  0  0
  190.8430  176.8600  147.8500 C   0  0  0  0  0  2  0  0  0  0  0  0
  189.8190  176.0560  147.0830 C   0  0  2  0  0  3  0  0  0  0  0  0
  191.1830  176.3210  146.4770 C   0  0  2  0  0  3  0  0  0  0  0  0
  188.8230  176.9870  146.4290 C   0  0  0  0  0  2  0  0  0  0  0  0
  187.4830  176.6600  146.8850 N   0  0  0  0  0  2  0  0  0  0  0  0
  186.6750  177.7780  146.6220 N   0  0  0  0  0  0  0  0  0  0  0  0
  186.0960  179.1580  144.4750 O   0  0  0  0  0  1  0  0  0  0  0  0
  185.8660  176.7970  144.5380 C   0  0  0  0  0  2  0  0  0  0  0  0
  185.4860  177.2980  145.9180 C   0  0  2  0  0  3  0  0  0  0  0  0
  185.1680  178.1320  144.6720 C   0  0  1  0  0  3  0  0  0  0  0  0
  186.2580  178.3350  147.9090 C   0  0  0  0  0  2  0  0  0  0  0  0
  187.2780  179.0610  148.5050 F   0  0  0  0  0  0  0  0  0  0  0  0
  1 20  1  1  0  0  0
  2  5  1  6  0  0  0
  2  4  1  0  0  0  0
  2  3  1  0  0  0  0
  4  1  1  6  0  0  0
  4  3  1  0  0  0  0
  7  6  1  0  0  0  0
  7  5  1  0  0  0  0
  8  9  1  6  0  0  0
  8  1  1  0  0  0  0
 10  8  1  0  0  0  0
 11 10  1  0  0  0  0
 11 12  1  0  0  0  0
 11 16  1  0  0  0  0
 12 13  1  6  0  0  0
 14 15  1  0  0  0  0
 14 12  1  0  0  0  0
 17 19  2  0  0  0  0
 18 19  1  0  0  0  0
 19 16  1  0  0  0  0
 22 24  1  6  0  0  0
 22 21  1  0  0  0  0
 23 20  1  1  0  0  0
 23 22  1  0  0  0  0
 23 21  1  0  0  0  0
 24 25  1  0  0  0  0
 26 25  1  0  0  0  0
 26 31  1  0  0  0  0
 28 30  1  0  0  0  0
 28 29  1  0  0  0  0
 29 26  1  1  0  0  0
 30 27  1  1  0  0  0
 30 29  1  0  0  0  0
 31 32  1  0  0  0  0
M  END
>  <MODEL>
4

>  <REMARK>
 VINA RESULT:      -5.5      2.864      7.339
  Name = 
  17 active torsions:
  status: ('A' for Active; 'I' for Inactive)
    1  A    between atoms: C_2  and  C_6
    2  A    between atoms: C_3  and  N_20
    3  A    between atoms: C_3  and  C_22
    4  A    between atoms: C_4  and  C_14
    5  A    between atoms: C_4  and  C_24
    6  A    between atoms: C_4  and  C_30
    7  A    between atoms: C_5  and  C_14
    8  A    between atoms: C_6  and  N_17
    9  A    between atoms: C_11  and  N_12
   10  A    between atoms: N_12  and  N_17
   11  A    between atoms: N_12  and  C_28
   12  A    between atoms: N_13  and  C_18
   13  A    between atoms: N_13  and  C_29
   14  A    between atoms: C_15  and  N_20
   15  A    between atoms: C_15  and  C_26
   16  A    between atoms: C_16  and  N_20
   17  A    between atoms: C_16  and  C_24
                            x       y       z     vdW  Elec       q    Type
                         _______ _______ _______ _____ _____    ______ ____

>  <TORSDO>
F 17

$$$$
=
 OpenBabel11052419203D

 32 34  0  0  1  0  0  0  0  0999 V2000
  190.1550  174.8920  143.3810 C   0  0  1  0  0  3  0  0  0  0  0  0
  188.6820  175.2110  141.2870 C   0  0  1  0  0  3  0  0  0  0  0  0
  187.8040  174.9070  142.4840 C   0  0  0  0  0  2  0  0  0  0  0  0
  189.0700  175.7220  142.6840 C   0  0  1  0  0  3  0  0  0  0  0  0
  189.3970  174.0010  140.9040 N   0  0  0  0  0  2  0  0  0  0  0  0
  188.3500  173.8710  138.7260 C   0  0  0  0  0  1  0  0  0  0  0  0
  188.4900  173.2190  140.0840 C   0  0  0  0  0  2  0  0  0  0  0  0
  191.4320  175.7110  143.5720 C   0  0  2  0  0  3  0  0  0  0  0  0
  191.2690  176.9990  143.0590 O   0  0  0  0  0  1  0  0  0  0  0  0
  192.6070  175.0430  142.8710 C   0  0  0  0  0  2  0  0  0  0  0  0
  193.7250  174.8840  143.8030 N   0  0  0  0  0  0  0  0  0  0  0  0
  193.2280  174.6650  145.1760 C   0  0  1  0  0  3  0  0  0  0  0  0
  193.4180  173.2180  145.6300 C   0  0  0  0  0  1  0  0  0  0  0  0
  193.9030  175.6090  146.1780 C   0  0  0  0  0  2  0  0  0  0  0  0
  192.8950  176.4300  146.9680 C   0  0  0  0  0  1  0  0  0  0  0  0
  194.5680  176.0910  143.7310 C   0  0  0  0  0  2  0  0  0  0  0  0
  196.3790  174.6440  143.1270 O   0  0  0  0  0  0  0  0  0  0  0  0
  196.8340  176.9110  142.9300 N   0  0  0  0  0  1  0  0  0  0  0  0
  195.9680  175.8260  143.2470 C   0  0  0  0  0  0  0  0  0  0  0  0
  189.6360  174.4060  144.7260 C   0  0  0  0  0  2  0  0  0  0  0  0
  189.2530  175.0910  147.0770 C   0  0  0  0  0  2  0  0  0  0  0  0
  188.1620  175.6910  146.2210 C   0  0  2  0  0  3  0  0  0  0  0  0
  189.5740  175.5800  145.6810 C   0  0  2  0  0  3  0  0  0  0  0  0
  187.9250  177.1280  146.6290 C   0  0  0  0  0  2  0  0  0  0  0  0
  187.3870  177.8690  145.5000 N   0  0  0  0  0  2  0  0  0  0  0  0
  186.2220  178.5120  145.9490 N   0  0  0  0  0  0  0  0  0  0  0  0
  184.8960  179.9140  144.1810 O   0  0  0  0  0  1  0  0  0  0  0  0
  185.3020  177.5940  143.8820 C   0  0  0  0  0  2  0  0  0  0  0  0
  185.0830  177.8000  145.3680 C   0  0  2  0  0  3  0  0  0  0  0  0
  184.3230  178.6500  144.3460 C   0  0  1  0  0  3  0  0  0  0  0  0
  186.1680  178.3650  147.4030 C   0  0  0  0  0  2  0  0  0  0  0  0
  184.8670  178.4470  147.8770 F   0  0  0  0  0  0  0  0  0  0  0  0
  1  8  1  0  0  0  0
  1 20  1  1  0  0  0
  2  5  1  1  0  0  0
  2  3  1  0  0  0  0
  2  4  1  0  0  0  0
  3  4  1  0  0  0  0
  4  1  1  1  0  0  0
  6  7  1  0  0  0  0
  7  5  1  0  0  0  0
  8  9  1  6  0  0  0
 10  8  1  0  0  0  0
 10 11  1  0  0  0  0
 11 12  1  0  0  0  0
 12 13  1  1  0  0  0
 12 14  1  0  0  0  0
 14 15  1  0  0  0  0
 16 11  1  0  0  0  0
 17 19  2  0  0  0  0
 18 19  1  0  0  0  0
 19 16  1  0  0  0  0
 22 24  1  1  0  0  0
 22 21  1  0  0  0  0
 23 20  1  6  0  0  0
 23 22  1  0  0  0  0
 23 21  1  0  0  0  0
 25 26  1  0  0  0  0
 25 24  1  0  0  0  0
 26 31  1  0  0  0  0
 28 30  1  0  0  0  0
 28 29  1  0  0  0  0
 29 26  1  1  0  0  0
 30 27  1  1  0  0  0
 30 29  1  0  0  0  0
 31 32  1  0  0  0  0
M  END
>  <MODEL>
5

>  <REMARK>
 VINA RESULT:      -5.4      2.785      7.578
  Name = 
  17 active torsions:
  status: ('A' for Active; 'I' for Inactive)
    1  A    between atoms: C_2  and  C_6
    2  A    between atoms: C_3  and  N_20
    3  A    between atoms: C_3  and  C_22
    4  A    between atoms: C_4  and  C_14
    5  A    between atoms: C_4  and  C_24
    6  A    between atoms: C_4  and  C_30
    7  A    between atoms: C_5  and  C_14
    8  A    between atoms: C_6  and  N_17
    9  A    between atoms: C_11  and  N_12
   10  A    between atoms: N_12  and  N_17
   11  A    between atoms: N_12  and  C_28
   12  A    between atoms: N_13  and  C_18
   13  A    between atoms: N_13  and  C_29
   14  A    between atoms: C_15  and  N_20
   15  A    between atoms: C_15  and  C_26
   16  A    between atoms: C_16  and  N_20
   17  A    between atoms: C_16  and  C_24
                            x       y       z     vdW  Elec       q    Type
                         _______ _______ _______ _____ _____    ______ ____

>  <TORSDO>
F 17

$$$$
=
 OpenBabel11052419203D

 32 34  0  0  1  0  0  0  0  0999 V2000
  190.6510  175.0560  143.2490 C   0  0  1  0  0  3  0  0  0  0  0  0
  189.9230  173.4360  141.3770 C   0  0  1  0  0  3  0  0  0  0  0  0
  188.7130  173.8500  142.1910 C   0  0  0  0  0  2  0  0  0  0  0  0
  189.8310  174.8530  141.9690 C   0  0  1  0  0  3  0  0  0  0  0  0
  190.7460  172.5370  142.1740 N   0  0  0  0  0  2  0  0  0  0  0  0
  190.6680  170.7700  140.5230 C   0  0  0  0  0  1  0  0  0  0  0  0
  190.2660  171.1920  141.9190 C   0  0  0  0  0  2  0  0  0  0  0  0
  191.8080  176.0270  143.0100 C   0  0  2  0  0  3  0  0  0  0  0  0
  192.7380  175.4730  142.1290 O   0  0  0  0  0  1  0  0  0  0  0  0
  192.5060  176.3620  144.3210 C   0  0  0  0  0  2  0  0  0  0  0  0
  193.6970  175.5260  144.4840 N   0  0  0  0  0  0  0  0  0  0  0  0
  193.5830  174.6900  145.6950 C   0  0  1  0  0  3  0  0  0  0  0  0
  192.6000  175.2780  146.7060 C   0  0  0  0  0  1  0  0  0  0  0  0
  193.1670  173.2550  145.3530 C   0  0  0  0  0  2  0  0  0  0  0  0
  193.7170  172.7990  144.0090 C   0  0  0  0  0  1  0  0  0  0  0  0
  194.8790  176.4040  144.5540 C   0  0  0  0  0  2  0  0  0  0  0  0
  195.9340  174.9430  142.9760 O   0  0  0  0  0  0  0  0  0  0  0  0
  197.0080  176.9750  143.2940 N   0  0  0  0  0  1  0  0  0  0  0  0
  195.9570  176.0540  143.5640 C   0  0  0  0  0  0  0  0  0  0  0  0
  189.7460  175.5790  144.3530 C   0  0  0  0  0  2  0  0  0  0  0  0
  188.6710  177.6720  145.1310 C   0  0  0  0  0  2  0  0  0  0  0  0
  187.6860  176.9240  144.2630 C   0  0  2  0  0  3  0  0  0  0  0  0
  189.1630  176.9080  143.9210 C   0  0  2  0  0  3  0  0  0  0  0  0
  186.9950  177.8880  143.3250 C   0  0  0  0  0  2  0  0  0  0  0  0
  186.2250  178.8480  144.0990 N   0  0  0  0  0  2  0  0  0  0  0  0
  184.9730  178.2620  144.3510 N   0  0  0  0  0  0  0  0  0  0  0  0
  184.9190  176.6920  146.4440 O   0  0  0  0  0  1  0  0  0  0  0  0
  185.4980  178.9870  146.6220 C   0  0  0  0  0  2  0  0  0  0  0  0
  184.4300  178.9000  145.5490 C   0  0  2  0  0  3  0  0  0  0  0  0
  184.4020  177.9530  146.7530 C   0  0  1  0  0  3  0  0  0  0  0  0
  184.1010  178.5800  143.2200 C   0  0  0  0  0  2  0  0  0  0  0  0
  184.0300  177.5280  142.3190 F   0  0  0  0  0  0  0  0  0  0  0  0
  1 20  1  1  0  0  0
  2  4  1  0  0  0  0
  2  5  1  1  0  0  0
  2  3  1  0  0  0  0
  4  3  1  0  0  0  0
  4  1  1  1  0  0  0
  6  7  1  0  0  0  0
  7  5  1  0  0  0  0
  8  9  1  6  0  0  0
  8  1  1  0  0  0  0
  8 10  1  0  0  0  0
 10 11  1  0  0  0  0
 11 16  1  0  0  0  0
 11 12  1  0  0  0  0
 12 13  1  1  0  0  0
 14 12  1  0  0  0  0
 15 14  1  0  0  0  0
 17 19  2  0  0  0  0
 18 19  1  0  0  0  0
 19 16  1  0  0  0  0
 22 24  1  6  0  0  0
 22 21  1  0  0  0  0
 23 22  1  0  0  0  0
 23 20  1  1  0  0  0
 23 21  1  0  0  0  0
 24 25  1  0  0  0  0
 25 26  1  0  0  0  0
 28 30  1  0  0  0  0
 29 26  1  6  0  0  0
 29 28  1  0  0  0  0
 29 30  1  0  0  0  0
 30 27  1  6  0  0  0
 31 26  1  0  0  0  0
 32 31  1  0  0  0  0
M  END
>  <MODEL>
6

>  <REMARK>
 VINA RESULT:      -5.4      3.150      8.230
  Name = 
  17 active torsions:
  status: ('A' for Active; 'I' for Inactive)
    1  A    between atoms: C_2  and  C_6
    2  A    between atoms: C_3  and  N_20
    3  A    between atoms: C_3  and  C_22
    4  A    between atoms: C_4  and  C_14
    5  A    between atoms: C_4  and  C_24
    6  A    between atoms: C_4  and  C_30
    7  A    between atoms: C_5  and  C_14
    8  A    between atoms: C_6  and  N_17
    9  A    between atoms: C_11  and  N_12
   10  A    between atoms: N_12  and  N_17
   11  A    between atoms: N_12  and  C_28
   12  A    between atoms: N_13  and  C_18
   13  A    between atoms: N_13  and  C_29
   14  A    between atoms: C_15  and  N_20
   15  A    between atoms: C_15  and  C_26
   16  A    between atoms: C_16  and  N_20
   17  A    between atoms: C_16  and  C_24
                            x       y       z     vdW  Elec       q    Type
                         _______ _______ _______ _____ _____    ______ ____

>  <TORSDO>
F 17

$$$$
=
 OpenBabel11052419203D

 32 34  0  0  1  0  0  0  0  0999 V2000
  188.7970  175.4190  142.7860 C   0  0  1  0  0  3  0  0  0  0  0  0
  188.6750  173.6060  140.9540 C   0  0  1  0  0  3  0  0  0  0  0  0
  188.5530  172.9590  142.3200 C   0  0  0  0  0  2  0  0  0  0  0  0
  187.9540  174.3370  142.1000 C   0  0  1  0  0  3  0  0  0  0  0  0
  190.0460  174.0560  140.7640 N   0  0  0  0  0  2  0  0  0  0  0  0
  192.1380  173.0010  141.3710 C   0  0  0  0  0  1  0  0  0  0  0  0
  190.8570  172.8670  140.5770 C   0  0  0  0  0  2  0  0  0  0  0  0
  188.0470  176.7500  142.8300 C   0  0  2  0  0  3  0  0  0  0  0  0
  188.6450  177.6780  141.9760 O   0  0  0  0  0  1  0  0  0  0  0  0
  188.0380  177.3130  144.2450 C   0  0  0  0  0  2  0  0  0  0  0  0
  186.6620  177.5680  144.6760 N   0  0  0  0  0  0  0  0  0  0  0  0
  186.3190  176.7270  145.8400 C   0  0  1  0  0  3  0  0  0  0  0  0
  187.4330  176.7170  146.8870 C   0  0  0  0  0  1  0  0  0  0  0  0
  185.0070  177.1770  146.4930 C   0  0  0  0  0  2  0  0  0  0  0  0
  185.0850  178.5990  147.0280 C   0  0  0  0  0  1  0  0  0  0  0  0
  185.7590  177.2970  143.5420 C   0  0  0  0  0  2  0  0  0  0  0  0
  185.2060  179.6280  143.5580 O   0  0  0  0  0  0  0  0  0  0  0  0
  183.7880  178.2960  142.2920 N   0  0  0  0  0  1  0  0  0  0  0  0
  184.9170  178.4770  143.1410 C   0  0  0  0  0  0  0  0  0  0  0  0
  189.1520  174.9680  144.1950 C   0  0  0  0  0  2  0  0  0  0  0  0
  191.2270  173.8320  144.9320 C   0  0  0  0  0  2  0  0  0  0  0  0
  190.9510  174.9810  145.8750 C   0  0  2  0  0  3  0  0  0  0  0  0
  190.6450  175.1220  144.3970 C   0  0  2  0  0  3  0  0  0  0  0  0
  192.2350  175.7250  146.1640 C   0  0  0  0  0  2  0  0  0  0  0  0
  193.3550  174.8010  146.1020 N   0  0  0  0  0  2  0  0  0  0  0  0
  194.5270  175.5710  146.1700 N   0  0  0  0  0  0  0  0  0  0  0  0
  196.7020  174.1380  145.9130 O   0  0  0  0  0  1  0  0  0  0  0  0
  195.0590  174.2270  144.2030 C   0  0  0  0  0  2  0  0  0  0  0  0
  195.1010  175.6090  144.8250 C   0  0  2  0  0  3  0  0  0  0  0  0
  196.3770  174.7690  144.7100 C   0  0  1  0  0  3  0  0  0  0  0  0
  194.1420  176.9300  146.5490 C   0  0  0  0  0  2  0  0  0  0  0  0
  195.1100  177.8550  146.1880 F   0  0  0  0  0  0  0  0  0  0  0  0
  1  8  1  0  0  0  0
  1 20  1  1  0  0  0
  2  5  1  1  0  0  0
  2  4  1  0  0  0  0
  2  3  1  0  0  0  0
  4  3  1  0  0  0  0
  4  1  1  1  0  0  0
  7  5  1  0  0  0  0
  7  6  1  0  0  0  0
  8  9  1  6  0  0  0
  8 10  1  0  0  0  0
 10 11  1  0  0  0  0
 11 12  1  0  0  0  0
 12 14  1  0  0  0  0
 12 13  1  1  0  0  0
 14 15  1  0  0  0  0
 16 11  1  0  0  0  0
 18 19  1  0  0  0  0
 19 16  1  0  0  0  0
 19 17  2  0  0  0  0
 21 22  1  0  0  0  0
 22 24  1  6  0  0  0
 23 20  1  1  0  0  0
 23 21  1  0  0  0  0
 23 22  1  0  0  0  0
 25 24  1  0  0  0  0
 25 26  1  0  0  0  0
 26 31  1  0  0  0  0
 28 30  1  0  0  0  0
 28 29  1  0  0  0  0
 29 26  1  1  0  0  0
 30 29  1  0  0  0  0
 30 27  1  1  0  0  0
 32 31  1  0  0  0  0
M  END
>  <MODEL>
7

>  <REMARK>
 VINA RESULT:      -5.3      1.867      4.773
  Name = 
  17 active torsions:
  status: ('A' for Active; 'I' for Inactive)
    1  A    between atoms: C_2  and  C_6
    2  A    between atoms: C_3  and  N_20
    3  A    between atoms: C_3  and  C_22
    4  A    between atoms: C_4  and  C_14
    5  A    between atoms: C_4  and  C_24
    6  A    between atoms: C_4  and  C_30
    7  A    between atoms: C_5  and  C_14
    8  A    between atoms: C_6  and  N_17
    9  A    between atoms: C_11  and  N_12
   10  A    between atoms: N_12  and  N_17
   11  A    between atoms: N_12  and  C_28
   12  A    between atoms: N_13  and  C_18
   13  A    between atoms: N_13  and  C_29
   14  A    between atoms: C_15  and  N_20
   15  A    between atoms: C_15  and  C_26
   16  A    between atoms: C_16  and  N_20
   17  A    between atoms: C_16  and  C_24
                            x       y       z     vdW  Elec       q    Type
                         _______ _______ _______ _____ _____    ______ ____

>  <TORSDO>
F 17

$$$$
=
 OpenBabel11052419203D

 32 34  0  0  1  0  0  0  0  0999 V2000
  190.9180  175.2560  145.4020 C   0  0  1  0  0  3  0  0  0  0  0  0
  193.3010  175.1030  146.3790 C   0  0  1  0  0  3  0  0  0  0  0  0
  192.6730  176.4240  146.7750 C   0  0  0  0  0  2  0  0  0  0  0  0
  191.7920  175.1930  146.6610 C   0  0  1  0  0  3  0  0  0  0  0  0
  193.6200  175.1350  144.9590 N   0  0  0  0  0  2  0  0  0  0  0  0
  195.2240  176.0410  143.3900 C   0  0  0  0  0  1  0  0  0  0  0  0
  194.9490  175.7030  144.8390 C   0  0  0  0  0  2  0  0  0  0  0  0
  189.7350  174.2940  145.5090 C   0  0  2  0  0  3  0  0  0  0  0  0
  189.3040  174.1920  146.8330 O   0  0  0  0  0  1  0  0  0  0  0  0
  190.1220  172.9100  145.0060 C   0  0  0  0  0  2  0  0  0  0  0  0
  191.0090  173.0270  143.8460 N   0  0  0  0  0  0  0  0  0  0  0  0
  190.2680  172.7590  142.5980 C   0  0  1  0  0  3  0  0  0  0  0  0
  188.9470  172.0350  142.8600 C   0  0  0  0  0  1  0  0  0  0  0  0
  189.9970  174.0500  141.8160 C   0  0  0  0  0  2  0  0  0  0  0  0
  188.5110  174.2860  141.5870 C   0  0  0  0  0  1  0  0  0  0  0  0
  192.1250  172.0790  144.0140 C   0  0  0  0  0  2  0  0  0  0  0  0
  193.6650  172.9410  142.3930 O   0  0  0  0  0  0  0  0  0  0  0  0
  193.0810  170.7140  142.0980 N   0  0  0  0  0  1  0  0  0  0  0  0
  193.0020  171.9520  142.7980 C   0  0  0  0  0  0  0  0  0  0  0  0
  190.4220  176.6790  145.2000 C   0  0  0  0  0  2  0  0  0  0  0  0
  189.5900  177.7760  143.1390 C   0  0  0  0  0  2  0  0  0  0  0  0
  188.5670  177.9780  144.2330 C   0  0  2  0  0  3  0  0  0  0  0  0
  189.3350  176.6740  144.1450 C   0  0  2  0  0  3  0  0  0  0  0  0
  187.1770  177.7460  143.6850 C   0  0  0  0  0  2  0  0  0  0  0  0
  186.3040  178.8290  144.1030 N   0  0  0  0  0  2  0  0  0  0  0  0
  185.0490  178.2630  144.3770 N   0  0  0  0  0  0  0  0  0  0  0  0
  184.9320  176.7610  146.5170 O   0  0  0  0  0  1  0  0  0  0  0  0
  185.5670  179.0450  146.6310 C   0  0  0  0  0  2  0  0  0  0  0  0
  184.5090  178.9510  145.5490 C   0  0  2  0  0  3  0  0  0  0  0  0
  184.4440  178.0440  146.7810 C   0  0  1  0  0  3  0  0  0  0  0  0
  184.1800  178.5410  143.2340 C   0  0  0  0  0  2  0  0  0  0  0  0
  184.2690  177.5470  142.2710 F   0  0  0  0  0  0  0  0  0  0  0  0
  1 20  1  1  0  0  0
  1  8  1  0  0  0  0
  2  5  1  6  0  0  0
  2  4  1  0  0  0  0
  2  3  1  0  0  0  0
  4  1  1  6  0  0  0
  4  3  1  0  0  0  0
  6  7  1  0  0  0  0
  7  5  1  0  0  0  0
  8  9  1  1  0  0  0
 10  8  1  0  0  0  0
 11 16  1  0  0  0  0
 11 10  1  0  0  0  0
 12 13  1  1  0  0  0
 12 11  1  0  0  0  0
 14 12  1  0  0  0  0
 15 14  1  0  0  0  0
 17 19  2  0  0  0  0
 18 19  1  0  0  0  0
 19 16  1  0  0  0  0
 21 23  1  0  0  0  0
 21 22  1  0  0  0  0
 22 24  1  6  0  0  0
 23 22  1  0  0  0  0
 23 20  1  1  0  0  0
 24 25  1  0  0  0  0
 25 26  1  0  0  0  0
 28 30  1  0  0  0  0
 29 26  1  6  0  0  0
 29 28  1  0  0  0  0
 29 30  1  0  0  0  0
 30 27  1  6  0  0  0
 31 26  1  0  0  0  0
 32 31  1  0  0  0  0
M  END
>  <MODEL>
8

>  <REMARK>
 VINA RESULT:      -5.3      3.184      7.711
  Name = 
  17 active torsions:
  status: ('A' for Active; 'I' for Inactive)
    1  A    between atoms: C_2  and  C_6
    2  A    between atoms: C_3  and  N_20
    3  A    between atoms: C_3  and  C_22
    4  A    between atoms: C_4  and  C_14
    5  A    between atoms: C_4  and  C_24
    6  A    between atoms: C_4  and  C_30
    7  A    between atoms: C_5  and  C_14
    8  A    between atoms: C_6  and  N_17
    9  A    between atoms: C_11  and  N_12
   10  A    between atoms: N_12  and  N_17
   11  A    between atoms: N_12  and  C_28
   12  A    between atoms: N_13  and  C_18
   13  A    between atoms: N_13  and  C_29
   14  A    between atoms: C_15  and  N_20
   15  A    between atoms: C_15  and  C_26
   16  A    between atoms: C_16  and  N_20
   17  A    between atoms: C_16  and  C_24
                            x       y       z     vdW  Elec       q    Type
                         _______ _______ _______ _____ _____    ______ ____

>  <TORSDO>
F 17

$$$$
=
 OpenBabel11052419203D

 32 34  0  0  1  0  0  0  0  0999 V2000
  190.6560  175.6530  143.8190 C   0  0  1  0  0  3  0  0  0  0  0  0
  190.1520  174.3880  141.6270 C   0  0  1  0  0  3  0  0  0  0  0  0
  188.8760  174.5410  142.4310 C   0  0  0  0  0  2  0  0  0  0  0  0
  189.9150  175.6480  142.4760 C   0  0  1  0  0  3  0  0  0  0  0  0
  191.0110  173.4120  142.2820 N   0  0  0  0  0  2  0  0  0  0  0  0
  190.6440  171.8510  140.4700 C   0  0  0  0  0  1  0  0  0  0  0  0
  190.4850  172.1010  141.9530 C   0  0  0  0  0  2  0  0  0  0  0  0
  191.3580  176.9910  144.0520 C   0  0  2  0  0  3  0  0  0  0  0  0
  191.8070  177.5250  142.8440 O   0  0  0  0  0  1  0  0  0  0  0  0
  192.5450  176.8170  144.9890 C   0  0  0  0  0  2  0  0  0  0  0  0
  193.3510  175.6680  144.5710 N   0  0  0  0  0  0  0  0  0  0  0  0
  193.4780  174.6950  145.6740 C   0  0  1  0  0  3  0  0  0  0  0  0
  192.6120  175.0740  146.8750 C   0  0  0  0  0  1  0  0  0  0  0  0
  193.1240  173.2750  145.2160 C   0  0  0  0  0  2  0  0  0  0  0  0
  194.2260  172.2740  145.5340 C   0  0  0  0  0  1  0  0  0  0  0  0
  194.6730  176.1560  144.1390 C   0  0  0  0  0  2  0  0  0  0  0  0
  196.1530  176.0870  142.2560 O   0  0  0  0  0  0  0  0  0  0  0  0
  194.0860  175.0900  141.9110 N   0  0  0  0  0  1  0  0  0  0  0  0
  195.0260  175.7830  142.7250 C   0  0  0  0  0  0  0  0  0  0  0  0
  189.6710  175.3720  144.9430 C   0  0  0  0  0  2  0  0  0  0  0  0
  188.8960  176.6690  146.9080 C   0  0  0  0  0  2  0  0  0  0  0  0
  187.7080  176.4030  146.0130 C   0  0  2  0  0  3  0  0  0  0  0  0
  189.0680  176.6820  145.4040 C   0  0  2  0  0  3  0  0  0  0  0  0
  186.8690  177.6550  145.8900 C   0  0  0  0  0  2  0  0  0  0  0  0
  185.5700  177.3140  145.3340 N   0  0  0  0  0  2  0  0  0  0  0  0
  185.2190  178.3470  144.4490 N   0  0  0  0  0  0  0  0  0  0  0  0
  186.7400  179.0220  142.4290 O   0  0  0  0  0  1  0  0  0  0  0  0
  185.9340  176.8050  142.6960 C   0  0  0  0  0  2  0  0  0  0  0  0
  184.8290  177.7220  143.1860 C   0  0  2  0  0  3  0  0  0  0  0  0
  185.7320  178.1450  142.0220 C   0  0  1  0  0  3  0  0  0  0  0  0
  184.0520  179.0300  145.0080 C   0  0  0  0  0  2  0  0  0  0  0  0
  183.6510  178.4570  146.2050 F   0  0  0  0  0  0  0  0  0  0  0  0
  1  8  1  0  0  0  0
  1 20  1  1  0  0  0
  2  5  1  1  0  0  0
  2  3  1  0  0  0  0
  2  4  1  0  0  0  0
  3  4  1  0  0  0  0
  4  1  1  1  0  0  0
  6  7  1  0  0  0  0
  7  5  1  0  0  0  0
  8  9  1  6  0  0  0
  8 10  1  0  0  0  0
 11 10  1  0  0  0  0
 11 12  1  0  0  0  0
 12 13  1  1  0  0  0
 14 15  1  0  0  0  0
 14 12  1  0  0  0  0
 16 11  1  0  0  0  0
 17 19  2  0  0  0  0
 18 19  1  0  0  0  0
 19 16  1  0  0  0  0
 22 24  1  6  0  0  0
 22 21  1  0  0  0  0
 23 20  1  1  0  0  0
 23 22  1  0  0  0  0
 23 21  1  0  0  0  0
 25 24  1  0  0  0  0
 26 31  1  0  0  0  0
 26 25  1  0  0  0  0
 28 29  1  0  0  0  0
 29 26  1  1  0  0  0
 30 27  1  1  0  0  0
 30 28  1  0  0  0  0
 30 29  1  0  0  0  0
 31 32  1  0  0  0  0
M  END
>  <MODEL>
9

>  <REMARK>
 VINA RESULT:      -5.3      2.981      7.689
  Name = 
  17 active torsions:
  status: ('A' for Active; 'I' for Inactive)
    1  A    between atoms: C_2  and  C_6
    2  A    between atoms: C_3  and  N_20
    3  A    between atoms: C_3  and  C_22
    4  A    between atoms: C_4  and  C_14
    5  A    between atoms: C_4  and  C_24
    6  A    between atoms: C_4  and  C_30
    7  A    between atoms: C_5  and  C_14
    8  A    between atoms: C_6  and  N_17
    9  A    between atoms: C_11  and  N_12
   10  A    between atoms: N_12  and  N_17
   11  A    between atoms: N_12  and  C_28
   12  A    between atoms: N_13  and  C_18
   13  A    between atoms: N_13  and  C_29
   14  A    between atoms: C_15  and  N_20
   15  A    between atoms: C_15  and  C_26
   16  A    between atoms: C_16  and  N_20
   17  A    between atoms: C_16  and  C_24
                            x       y       z     vdW  Elec       q    Type
                         _______ _______ _______ _____ _____    ______ ____

>  <TORSDO>
F 17

$$$$
