=
 OpenBabel11052417283D

 25 27  0  0  1  0  0  0  0  0999 V2000
  187.8940  177.9080  144.0810 C   0  0  0  0  0  0  0  0  0  0  0  0
  189.2200  177.8800  144.6510 N   0  0  0  0  0  0  0  0  0  0  0  0
  191.1040  175.6300  143.6020 C   0  0  2  0  0  3  0  0  0  0  0  0
  189.2810  175.1120  145.3410 C   0  0  0  0  0  2  0  0  0  0  0  0
  190.6350  176.9080  142.8840 C   0  0  0  0  0  2  0  0  0  0  0  0
  191.5150  176.1390  145.9620 C   0  0  0  0  0  0  0  0  0  0  0  0
  192.3590  176.3820  146.9530 C   0  0  0  0  0  2  0  0  0  0  0  0
  189.9880  174.6520  144.0530 C   0  0  1  0  0  0  0  0  0  0  0  0
  189.4450  177.5370  146.0540 C   0  0  0  0  0  2  0  0  0  0  0  0
  187.7630  177.9710  142.8270 O   0  0  0  0  0  0  0  0  0  0  0  0
  192.0000  175.9100  144.6750 O   0  0  0  0  0  0  0  0  0  0  0  0
  190.0350  176.1340  146.2130 C   0  0  1  0  0  3  0  0  0  0  0  0
  190.3900  178.1000  143.8080 C   0  0  0  0  0  2  0  0  0  0  0  0
  188.9290  174.4940  142.9710 C   0  0  0  0  0  1  0  0  0  0  0  0
  186.6730  177.8650  144.9200 C   0  0  0  0  0  0  0  0  0  0  0  0
  184.3960  177.7800  146.5660 C   0  0  0  0  0  3  0  0  0  0  0  0
  185.8360  178.9930  145.0400 C   0  0  0  0  0  0  0  0  0  0  0  0
  184.7030  178.9430  145.8570 C   0  0  0  0  0  3  0  0  0  0  0  0
  185.2240  176.6610  146.4620 C   0  0  0  0  0  3  0  0  0  0  0  0
  186.0980  180.1330  144.3540 F   0  0  0  0  0  0  0  0  0  0  0  0
  186.3570  176.7050  145.6450 C   0  0  0  0  0  3  0  0  0  0  0  0
  191.4160  172.6130  143.4180 C   0  0  0  0  0  0  0  0  0  0  0  0
  191.6900  173.0730  142.2780 O   0  0  0  0  0  0  0  0  0  0  0  0
  192.0760  171.0290  143.9120 S   0  0  0  0  0  1  0  0  0  0  0  0
  190.5840  173.3440  144.3260 N   0  0  0  0  0  2  0  0  0  0  0  0
  1  2  1  0  0  0  0
  1 15  1  0  0  0  0
  2  9  1  0  0  0  0
  3  5  1  1  0  0  0
  3  8  1  0  0  0  0
  3 11  1  0  0  0  0
  5 13  1  0  0  0  0
  6 12  1  0  0  0  0
  6  7  2  0  0  0  0
  8 14  1  6  0  0  0
  8 25  1  0  0  0  0
  8  4  1  0  0  0  0
  9 12  1  0  0  0  0
 10  1  2  0  0  0  0
 11  6  1  0  0  0  0
 12  4  1  6  0  0  0
 13  2  1  0  0  0  0
 15 17  2  0  0  0  0
 15 21  1  0  0  0  0
 17 18  1  0  0  0  0
 18 16  2  0  0  0  0
 19 16  1  0  0  0  0
 20 17  1  0  0  0  0
 21 19  2  0  0  0  0
 22 24  1  0  0  0  0
 22 25  1  0  0  0  0
 23 22  2  0  0  0  0
M  END
>  <MODEL>
1

>  <REMARK>
 VINA RESULT:      -7.9      0.000      0.000
  Name = 
  2 active torsions:
  status: ('A' for Active; 'I' for Inactive)
    1  A    between atoms: C_1  and  C_5
    2  A    between atoms: C_15  and  N_21
                            x       y       z     vdW  Elec       q    Type
                         _______ _______ _______ _____ _____    ______ ____

>  <TORSDO>
F 2

$$$$
=
 OpenBabel11052417283D

 25 27  0  0  1  0  0  0  0  0999 V2000
  189.2440  176.7970  146.6740 C   0  0  0  0  0  0  0  0  0  0  0  0
  189.8670  175.5040  146.5210 N   0  0  0  0  0  0  0  0  0  0  0  0
  192.5860  175.4760  144.9980 C   0  0  2  0  0  3  0  0  0  0  0  0
  190.3630  175.6490  143.7150 C   0  0  0  0  0  2  0  0  0  0  0  0
  192.2800  175.9870  146.4180 C   0  0  0  0  0  2  0  0  0  0  0  0
  191.2820  173.4470  144.5760 C   0  0  0  0  0  0  0  0  0  0  0  0
  191.2120  172.1290  144.4730 C   0  0  0  0  0  2  0  0  0  0  0  0
  191.8090  176.1620  143.8450 C   0  0  1  0  0  0  0  0  0  0  0  0
  189.2810  174.4650  145.6760 C   0  0  0  0  0  2  0  0  0  0  0  0
  189.8950  177.7360  147.2110 O   0  0  0  0  0  0  0  0  0  0  0  0
  192.4930  174.0570  144.9010 O   0  0  0  0  0  0  0  0  0  0  0  0
  190.0550  174.2870  144.3670 C   0  0  1  0  0  3  0  0  0  0  0  0
  191.1620  175.2320  147.1350 C   0  0  0  0  0  2  0  0  0  0  0  0
  191.7510  177.6700  144.0460 C   0  0  0  0  0  1  0  0  0  0  0  0
  187.8580  177.0640  146.2200 C   0  0  0  0  0  0  0  0  0  0  0  0
  185.2230  177.6130  145.4090 C   0  0  0  0  0  3  0  0  0  0  0  0
  187.6110  177.7720  145.0260 C   0  0  0  0  0  0  0  0  0  0  0  0
  186.2980  178.0390  144.6260 C   0  0  0  0  0  3  0  0  0  0  0  0
  185.4580  176.9200  146.5980 C   0  0  0  0  0  3  0  0  0  0  0  0
  188.6330  178.1870  144.2350 F   0  0  0  0  0  0  0  0  0  0  0  0
  186.7680  176.6500  147.0010 C   0  0  0  0  0  3  0  0  0  0  0  0
  193.9010  175.9720  142.3650 C   0  0  0  0  0  0  0  0  0  0  0  0
  194.6750  176.3240  143.2950 O   0  0  0  0  0  0  0  0  0  0  0  0
  194.5730  175.5790  140.7590 S   0  0  0  0  0  1  0  0  0  0  0  0
  192.4880  175.8800  142.5800 N   0  0  0  0  0  2  0  0  0  0  0  0
  1 10  2  0  0  0  0
  2  1  1  0  0  0  0
  2 13  1  0  0  0  0
  3  5  1  1  0  0  0
  4  8  1  0  0  0  0
  5 13  1  0  0  0  0
  6 11  1  0  0  0  0
  7  6  2  0  0  0  0
  8 14  1  1  0  0  0
  8  3  1  0  0  0  0
  9  2  1  0  0  0  0
 11  3  1  0  0  0  0
 12  4  1  1  0  0  0
 12  6  1  0  0  0  0
 12  9  1  0  0  0  0
 15  1  1  0  0  0  0
 15 21  1  0  0  0  0
 16 19  1  0  0  0  0
 17 15  2  0  0  0  0
 18 17  1  0  0  0  0
 18 16  2  0  0  0  0
 19 21  2  0  0  0  0
 20 17  1  0  0  0  0
 22 25  1  0  0  0  0
 22 23  2  0  0  0  0
 24 22  1  0  0  0  0
 25  8  1  0  0  0  0
M  END
>  <MODEL>
2

>  <REMARK>
 VINA RESULT:      -7.5      2.266      3.370
  Name = 
  2 active torsions:
  status: ('A' for Active; 'I' for Inactive)
    1  A    between atoms: C_1  and  C_5
    2  A    between atoms: C_15  and  N_21
                            x       y       z     vdW  Elec       q    Type
                         _______ _______ _______ _____ _____    ______ ____

>  <TORSDO>
F 2

$$$$
=
 OpenBabel11052417283D

 25 27  0  0  1  0  0  0  0  0999 V2000
  188.9770  176.9280  146.6000 C   0  0  0  0  0  0  0  0  0  0  0  0
  189.5650  175.6160  146.4640 N   0  0  0  0  0  0  0  0  0  0  0  0
  192.3720  175.5160  145.1130 C   0  0  2  0  0  3  0  0  0  0  0  0
  190.2410  175.7840  143.6970 C   0  0  0  0  0  2  0  0  0  0  0  0
  191.9950  176.0160  146.5200 C   0  0  0  0  0  2  0  0  0  0  0  0
  191.0290  173.5400  144.5770 C   0  0  0  0  0  0  0  0  0  0  0  0
  190.9210  172.2260  144.4490 C   0  0  0  0  0  2  0  0  0  0  0  0
  191.6920  176.2450  143.9250 C   0  0  1  0  0  0  0  0  0  0  0  0
  188.9980  174.6110  145.5670 C   0  0  0  0  0  2  0  0  0  0  0  0
  189.6250  177.8360  147.1910 O   0  0  0  0  0  0  0  0  0  0  0  0
  192.2370  174.1020  144.9870 O   0  0  0  0  0  0  0  0  0  0  0  0
  189.8470  174.4250  144.3070 C   0  0  1  0  0  3  0  0  0  0  0  0
  190.8090  175.2910  147.1540 C   0  0  0  0  0  2  0  0  0  0  0  0
  191.6730  177.7510  144.1470 C   0  0  0  0  0  1  0  0  0  0  0  0
  187.6330  177.2500  146.0640 C   0  0  0  0  0  0  0  0  0  0  0  0
  185.0930  177.8150  145.0010 C   0  0  0  0  0  3  0  0  0  0  0  0
  186.4670  176.8680  146.7580 C   0  0  0  0  0  0  0  0  0  0  0  0
  185.2060  177.1560  146.2260 C   0  0  0  0  0  3  0  0  0  0  0  0
  186.2420  178.1890  144.3010 C   0  0  0  0  0  3  0  0  0  0  0  0
  186.5420  176.2380  147.9580 F   0  0  0  0  0  0  0  0  0  0  0  0
  187.5040  177.9050  144.8300 C   0  0  0  0  0  3  0  0  0  0  0  0
  193.8640  176.0250  142.5700 C   0  0  0  0  0  0  0  0  0  0  0  0
  194.5880  176.3580  143.5460 O   0  0  0  0  0  0  0  0  0  0  0  0
  194.6220  175.6290  141.0030 S   0  0  0  0  0  1  0  0  0  0  0  0
  192.4390  175.9570  142.7010 N   0  0  0  0  0  2  0  0  0  0  0  0
  1 10  2  0  0  0  0
  2  1  1  0  0  0  0
  2 13  1  0  0  0  0
  3  5  1  1  0  0  0
  4  8  1  0  0  0  0
  5 13  1  0  0  0  0
  6 11  1  0  0  0  0
  7  6  2  0  0  0  0
  8 14  1  1  0  0  0
  8  3  1  0  0  0  0
  9  2  1  0  0  0  0
 11  3  1  0  0  0  0
 12  4  1  1  0  0  0
 12  6  1  0  0  0  0
 12  9  1  0  0  0  0
 15  1  1  0  0  0  0
 15 17  1  0  0  0  0
 16 18  1  0  0  0  0
 17 20  1  0  0  0  0
 18 17  2  0  0  0  0
 19 21  1  0  0  0  0
 19 16  2  0  0  0  0
 21 15  2  0  0  0  0
 22 25  1  0  0  0  0
 22 23  2  0  0  0  0
 24 22  1  0  0  0  0
 25  8  1  0  0  0  0
M  END
>  <MODEL>
3

>  <REMARK>
 VINA RESULT:      -7.4      2.385      3.499
  Name = 
  2 active torsions:
  status: ('A' for Active; 'I' for Inactive)
    1  A    between atoms: C_1  and  C_5
    2  A    between atoms: C_15  and  N_21
                            x       y       z     vdW  Elec       q    Type
                         _______ _______ _______ _____ _____    ______ ____

>  <TORSDO>
F 2

$$$$
=
 OpenBabel11052417283D

 25 27  0  0  1  0  0  0  0  0999 V2000
  188.0280  177.9340  144.2860 C   0  0  0  0  0  0  0  0  0  0  0  0
  189.3850  177.8840  144.7750 N   0  0  0  0  0  0  0  0  0  0  0  0
  191.1640  175.6000  143.6210 C   0  0  2  0  0  3  0  0  0  0  0  0
  189.4400  175.1170  145.4690 C   0  0  0  0  0  2  0  0  0  0  0  0
  190.6730  176.8850  142.9280 C   0  0  0  0  0  2  0  0  0  0  0  0
  191.7250  176.1070  145.9500 C   0  0  0  0  0  0  0  0  0  0  0  0
  192.6310  176.3370  146.8880 C   0  0  0  0  0  2  0  0  0  0  0  0
  190.0610  174.6430  144.1420 C   0  0  1  0  0  0  0  0  0  0  0  0
  189.6880  177.5410  146.1630 C   0  0  0  0  0  2  0  0  0  0  0  0
  187.8220  177.9970  143.0420 O   0  0  0  0  0  0  0  0  0  0  0  0
  192.1280  175.8670  144.6370 O   0  0  0  0  0  0  0  0  0  0  0  0
  190.2630  176.1280  146.2900 C   0  0  1  0  0  3  0  0  0  0  0  0
  190.5050  178.0830  143.8620 C   0  0  0  0  0  2  0  0  0  0  0  0
  188.9350  174.5010  143.1260 C   0  0  0  0  0  1  0  0  0  0  0  0
  186.8590  177.9140  145.1980 C   0  0  0  0  0  0  0  0  0  0  0  0
  184.6130  177.9200  146.8880 C   0  0  0  0  0  3  0  0  0  0  0  0
  186.0090  176.7910  145.2610 C   0  0  0  0  0  0  0  0  0  0  0  0
  184.8960  176.7980  146.1070 C   0  0  0  0  0  3  0  0  0  0  0  0
  185.4430  179.0410  146.8260 C   0  0  0  0  0  3  0  0  0  0  0  0
  186.2640  175.6800  144.5250 F   0  0  0  0  0  0  0  0  0  0  0  0
  186.5580  179.0370  145.9830 C   0  0  0  0  0  3  0  0  0  0  0  0
  191.4000  172.5710  143.4230 C   0  0  0  0  0  0  0  0  0  0  0  0
  191.6000  173.0180  142.2620 O   0  0  0  0  0  0  0  0  0  0  0  0
  192.0630  170.9780  143.8810 S   0  0  0  0  0  1  0  0  0  0  0  0
  190.6490  173.3250  144.3820 N   0  0  0  0  0  2  0  0  0  0  0  0
  1  2  1  0  0  0  0
  1 15  1  0  0  0  0
  2  9  1  0  0  0  0
  3  5  1  1  0  0  0
  3  8  1  0  0  0  0
  3 11  1  0  0  0  0
  5 13  1  0  0  0  0
  6 12  1  0  0  0  0
  6  7  2  0  0  0  0
  8 14  1  6  0  0  0
  8 25  1  0  0  0  0
  8  4  1  0  0  0  0
  9 12  1  0  0  0  0
 10  1  2  0  0  0  0
 11  6  1  0  0  0  0
 12  4  1  6  0  0  0
 13  2  1  0  0  0  0
 15 17  2  0  0  0  0
 15 21  1  0  0  0  0
 17 18  1  0  0  0  0
 18 16  2  0  0  0  0
 19 16  1  0  0  0  0
 20 17  1  0  0  0  0
 21 19  2  0  0  0  0
 22 24  1  0  0  0  0
 22 25  1  0  0  0  0
 23 22  2  0  0  0  0
M  END
>  <MODEL>
4

>  <REMARK>
 VINA RESULT:      -7.0      0.983      1.293
  Name = 
  2 active torsions:
  status: ('A' for Active; 'I' for Inactive)
    1  A    between atoms: C_1  and  C_5
    2  A    between atoms: C_15  and  N_21
                            x       y       z     vdW  Elec       q    Type
                         _______ _______ _______ _____ _____    ______ ____

>  <TORSDO>
F 2

$$$$
=
 OpenBabel11052417283D

 25 27  0  0  1  0  0  0  0  0999 V2000
  188.5310  177.6010  144.5470 C   0  0  0  0  0  0  0  0  0  0  0  0
  189.8630  177.1710  144.9000 N   0  0  0  0  0  0  0  0  0  0  0  0
  191.1220  174.9940  143.0590 C   0  0  2  0  0  3  0  0  0  0  0  0
  189.3840  174.3590  144.8480 C   0  0  0  0  0  2  0  0  0  0  0  0
  190.8790  176.4850  142.7630 C   0  0  0  0  0  2  0  0  0  0  0  0
  191.8320  174.7430  145.3890 C   0  0  0  0  0  0  0  0  0  0  0  0
  192.7900  174.5410  146.2820 C   0  0  0  0  0  2  0  0  0  0  0  0
  189.8640  174.1520  143.3990 C   0  0  1  0  0  0  0  0  0  0  0  0
  190.1270  176.4170  146.1230 C   0  0  0  0  0  2  0  0  0  0  0  0
  188.3100  178.0320  143.3820 O   0  0  0  0  0  0  0  0  0  0  0  0
  192.1450  174.7940  144.0320 O   0  0  0  0  0  0  0  0  0  0  0  0
  190.4130  174.9410  145.8360 C   0  0  1  0  0  3  0  0  0  0  0  0
  190.9770  177.3970  143.9850 C   0  0  0  0  0  2  0  0  0  0  0  0
  188.7070  174.4990  142.4720 C   0  0  0  0  0  1  0  0  0  0  0  0
  187.4050  177.5520  145.5100 C   0  0  0  0  0  0  0  0  0  0  0  0
  185.2570  177.5240  147.3230 C   0  0  0  0  0  3  0  0  0  0  0  0
  186.2430  176.8040  145.2300 C   0  0  0  0  0  0  0  0  0  0  0  0
  185.1800  176.7910  146.1380 C   0  0  0  0  0  3  0  0  0  0  0  0
  186.3990  178.2750  147.6060 C   0  0  0  0  0  3  0  0  0  0  0  0
  186.1430  176.0700  144.0940 F   0  0  0  0  0  0  0  0  0  0  0  0
  187.4650  178.2910  146.7030 C   0  0  0  0  0  3  0  0  0  0  0  0
  190.5560  172.1030  142.0120 C   0  0  0  0  0  0  0  0  0  0  0  0
  190.6240  172.7640  140.9420 O   0  0  0  0  0  0  0  0  0  0  0  0
  190.9290  170.3570  141.9960 S   0  0  0  0  0  1  0  0  0  0  0  0
  190.1850  172.7340  143.2430 N   0  0  0  0  0  2  0  0  0  0  0  0
  1  2  1  0  0  0  0
  1 15  1  0  0  0  0
  2  9  1  0  0  0  0
  3  5  1  1  0  0  0
  3  8  1  0  0  0  0
  3 11  1  0  0  0  0
  5 13  1  0  0  0  0
  6 12  1  0  0  0  0
  6  7  2  0  0  0  0
  8 14  1  6  0  0  0
  8  4  1  0  0  0  0
 10  1  2  0  0  0  0
 11  6  1  0  0  0  0
 12  4  1  6  0  0  0
 12  9  1  0  0  0  0
 13  2  1  0  0  0  0
 15 21  1  0  0  0  0
 16 19  1  0  0  0  0
 17 15  2  0  0  0  0
 17 18  1  0  0  0  0
 18 16  2  0  0  0  0
 20 17  1  0  0  0  0
 21 19  2  0  0  0  0
 22 25  1  0  0  0  0
 23 22  2  0  0  0  0
 24 22  1  0  0  0  0
 25  8  1  0  0  0  0
M  END
>  <MODEL>
5

>  <REMARK>
 VINA RESULT:      -6.8      1.515      1.669
  Name = 
  2 active torsions:
  status: ('A' for Active; 'I' for Inactive)
    1  A    between atoms: C_1  and  C_5
    2  A    between atoms: C_15  and  N_21
                            x       y       z     vdW  Elec       q    Type
                         _______ _______ _______ _____ _____    ______ ____

>  <TORSDO>
F 2

$$$$
=
 OpenBabel11052417283D

 25 27  0  0  1  0  0  0  0  0999 V2000
  188.5920  176.6820  145.0440 C   0  0  0  0  0  0  0  0  0  0  0  0
  189.1580  175.3620  145.1890 N   0  0  0  0  0  0  0  0  0  0  0  0
  192.2410  175.2450  145.6300 C   0  0  2  0  0  3  0  0  0  0  0  0
  191.2630  175.6370  143.2830 C   0  0  0  0  0  2  0  0  0  0  0  0
  191.1420  175.6910  146.6120 C   0  0  0  0  0  2  0  0  0  0  0  0
  191.4310  173.3340  144.3310 C   0  0  0  0  0  0  0  0  0  0  0  0
  191.4160  172.0310  144.0940 C   0  0  0  0  0  2  0  0  0  0  0  0
  192.3390  176.0460  144.3060 C   0  0  1  0  0  0  0  0  0  0  0  0
  189.1910  174.4150  144.0760 C   0  0  0  0  0  2  0  0  0  0  0  0
  188.7970  177.5440  145.9430 O   0  0  0  0  0  0  0  0  0  0  0  0
  192.2030  173.8430  145.3750 O   0  0  0  0  0  0  0  0  0  0  0  0
  190.5990  174.2630  143.4960 C   0  0  1  0  0  3  0  0  0  0  0  0
  189.8060  174.9710  146.4360 C   0  0  0  0  0  2  0  0  0  0  0  0
  192.1950  177.5410  144.5590 C   0  0  0  0  0  1  0  0  0  0  0  0
  187.7750  177.0650  143.8680 C   0  0  0  0  0  0  0  0  0  0  0  0
  186.2520  177.7410  141.6040 C   0  0  0  0  0  3  0  0  0  0  0  0
  186.3760  176.8840  143.8670 C   0  0  0  0  0  0  0  0  0  0  0  0
  185.6240  177.2260  142.7400 C   0  0  0  0  0  3  0  0  0  0  0  0
  187.6370  177.9150  141.5910 C   0  0  0  0  0  3  0  0  0  0  0  0
  185.7350  176.4000  144.9600 F   0  0  0  0  0  0  0  0  0  0  0  0
  188.3930  177.5770  142.7160 C   0  0  0  0  0  3  0  0  0  0  0  0
  194.9070  176.1220  144.2810 C   0  0  0  0  0  0  0  0  0  0  0  0
  194.9700  176.6780  145.4090 O   0  0  0  0  0  0  0  0  0  0  0  0
  196.4120  175.7340  143.4030 S   0  0  0  0  0  1  0  0  0  0  0  0
  193.6430  175.7940  143.6930 N   0  0  0  0  0  2  0  0  0  0  0  0
  1  2  1  0  0  0  0
  1 10  2  0  0  0  0
  2 13  1  0  0  0  0
  3  5  1  6  0  0  0
  4  8  1  0  0  0  0
  6 11  1  0  0  0  0
  7  6  2  0  0  0  0
  8 14  1  1  0  0  0
  8  3  1  0  0  0  0
  9  2  1  0  0  0  0
 11  3  1  0  0  0  0
 12  4  1  1  0  0  0
 12  9  1  0  0  0  0
 12  6  1  0  0  0  0
 13  5  1  0  0  0  0
 15  1  1  0  0  0  0
 16 18  1  0  0  0  0
 17 15  1  0  0  0  0
 17 20  1  0  0  0  0
 18 17  2  0  0  0  0
 19 16  2  0  0  0  0
 19 21  1  0  0  0  0
 21 15  2  0  0  0  0
 22 23  2  0  0  0  0
 24 22  1  0  0  0  0
 25 22  1  0  0  0  0
 25  8  1  0  0  0  0
M  END
>  <MODEL>
6

>  <REMARK>
 VINA RESULT:      -6.8      2.532      3.954
  Name = 
  2 active torsions:
  status: ('A' for Active; 'I' for Inactive)
    1  A    between atoms: C_1  and  C_5
    2  A    between atoms: C_15  and  N_21
                            x       y       z     vdW  Elec       q    Type
                         _______ _______ _______ _____ _____    ______ ____

>  <TORSDO>
F 2

$$$$
=
 OpenBabel11052417283D

 25 27  0  0  1  0  0  0  0  0999 V2000
  188.9380  176.5190  143.9120 C   0  0  0  0  0  0  0  0  0  0  0  0
  190.3250  176.9190  143.9450 N   0  0  0  0  0  0  0  0  0  0  0  0
  192.4090  174.6380  143.5340 C   0  0  2  0  0  3  0  0  0  0  0  0
  191.2440  174.9610  145.8060 C   0  0  0  0  0  2  0  0  0  0  0  0
  191.4750  175.2900  142.4980 C   0  0  0  0  0  2  0  0  0  0  0  0
  193.2290  176.3590  145.0720 C   0  0  0  0  0  0  0  0  0  0  0  0
  194.1950  177.1680  145.4790 C   0  0  0  0  0  2  0  0  0  0  0  0
  191.7170  173.9530  144.7410 C   0  0  1  0  0  0  0  0  0  0  0  0
  190.9570  177.3970  145.1730 C   0  0  0  0  0  2  0  0  0  0  0  0
  188.5000  175.8930  142.9070 O   0  0  0  0  0  0  0  0  0  0  0  0
  193.4350  175.5260  143.9730 O   0  0  0  0  0  0  0  0  0  0  0  0
  191.9020  176.3540  145.7740 C   0  0  1  0  0  3  0  0  0  0  0  0
  191.1650  176.7630  142.7630 C   0  0  0  0  0  2  0  0  0  0  0  0
  190.5050  173.1490  144.2920 C   0  0  0  0  0  1  0  0  0  0  0  0
  188.0040  176.8170  145.0240 C   0  0  0  0  0  0  0  0  0  0  0  0
  186.2860  177.4030  147.1700 C   0  0  0  0  0  3  0  0  0  0  0  0
  187.1040  177.8990  144.9430 C   0  0  0  0  0  0  0  0  0  0  0  0
  186.2480  178.1830  146.0120 C   0  0  0  0  0  3  0  0  0  0  0  0
  187.1800  176.3350  147.2630 C   0  0  0  0  0  3  0  0  0  0  0  0
  187.0330  178.6670  143.8270 F   0  0  0  0  0  0  0  0  0  0  0  0
  188.0360  176.0470  146.1970 C   0  0  0  0  0  3  0  0  0  0  0  0
  193.4330  172.0410  144.7170 C   0  0  0  0  0  0  0  0  0  0  0  0
  193.3150  171.8600  143.4750 O   0  0  0  0  0  0  0  0  0  0  0  0
  194.5660  171.0290  145.6530 S   0  0  0  0  0  1  0  0  0  0  0  0
  192.6700  173.0510  145.3870 N   0  0  0  0  0  2  0  0  0  0  0  0
  1  2  1  0  0  0  0
  1 15  1  0  0  0  0
  2  9  1  0  0  0  0
  3  5  1  1  0  0  0
  3 11  1  0  0  0  0
  3  8  1  0  0  0  0
  5 13  1  0  0  0  0
  6  7  2  0  0  0  0
  6 12  1  0  0  0  0
  8 14  1  6  0  0  0
  8 25  1  0  0  0  0
  8  4  1  0  0  0  0
 10  1  2  0  0  0  0
 11  6  1  0  0  0  0
 12  9  1  6  0  0  0
 12  4  1  0  0  0  0
 13  2  1  0  0  0  0
 15 21  1  0  0  0  0
 16 19  1  0  0  0  0
 17 15  2  0  0  0  0
 17 18  1  0  0  0  0
 18 16  2  0  0  0  0
 20 17  1  0  0  0  0
 21 19  2  0  0  0  0
 22 25  1  0  0  0  0
 22 24  1  0  0  0  0
 23 22  2  0  0  0  0
M  END
>  <MODEL>
7

>  <REMARK>
 VINA RESULT:      -6.6      1.785      2.043
  Name = 
  2 active torsions:
  status: ('A' for Active; 'I' for Inactive)
    1  A    between atoms: C_1  and  C_5
    2  A    between atoms: C_15  and  N_21
                            x       y       z     vdW  Elec       q    Type
                         _______ _______ _______ _____ _____    ______ ____

>  <TORSDO>
F 2

$$$$
=
 OpenBabel11052417283D

 25 27  0  0  1  0  0  0  0  0999 V2000
  188.8290  178.0220  143.2590 C   0  0  0  0  0  0  0  0  0  0  0  0
  189.6830  177.7470  144.3900 N   0  0  0  0  0  0  0  0  0  0  0  0
  191.7680  175.4630  143.9980 C   0  0  2  0  0  3  0  0  0  0  0  0
  189.3000  174.9220  144.4820 C   0  0  0  0  0  2  0  0  0  0  0  0
  191.7660  176.8820  143.3990 C   0  0  0  0  0  2  0  0  0  0  0  0
  190.9450  175.5630  146.3020 C   0  0  0  0  0  0  0  0  0  0  0  0
  191.1790  175.5520  147.6060 C   0  0  0  0  0  2  0  0  0  0  0  0
  190.5470  174.5740  143.6480 C   0  0  1  0  0  0  0  0  0  0  0  0
  189.1570  177.1760  145.6280 C   0  0  0  0  0  2  0  0  0  0  0  0
  189.3520  178.2850  142.1410 O   0  0  0  0  0  0  0  0  0  0  0  0
  192.0070  175.4690  145.4030 O   0  0  0  0  0  0  0  0  0  0  0  0
  189.5420  175.7030  145.7880 C   0  0  1  0  0  3  0  0  0  0  0  0
  191.1250  177.9450  144.2900 C   0  0  0  0  0  2  0  0  0  0  0  0
  190.1750  174.7090  142.1780 C   0  0  0  0  0  1  0  0  0  0  0  0
  187.3510  178.0050  143.3650 C   0  0  0  0  0  0  0  0  0  0  0  0
  184.5450  178.0330  143.5370 C   0  0  0  0  0  3  0  0  0  0  0  0
  186.5770  177.1480  142.5560 C   0  0  0  0  0  0  0  0  0  0  0  0
  185.1820  177.1630  142.6490 C   0  0  0  0  0  3  0  0  0  0  0  0
  185.3030  178.8920  144.3350 C   0  0  0  0  0  3  0  0  0  0  0  0
  187.1650  176.2810  141.6940 F   0  0  0  0  0  0  0  0  0  0  0  0
  186.6970  178.8790  144.2470 C   0  0  0  0  0  3  0  0  0  0  0  0
  192.0500  172.5000  143.4480 C   0  0  0  0  0  0  0  0  0  0  0  0
  192.8920  173.0950  142.7240 O   0  0  0  0  0  0  0  0  0  0  0  0
  192.3160  170.7910  143.8880 S   0  0  0  0  0  1  0  0  0  0  0  0
  190.8810  173.1770  143.9240 N   0  0  0  0  0  2  0  0  0  0  0  0
  1 15  1  0  0  0  0
  1  2  1  0  0  0  0
  2  9  1  0  0  0  0
  3  5  1  1  0  0  0
  3 11  1  0  0  0  0
  5 13  1  0  0  0  0
  6  7  2  0  0  0  0
  8 14  1  6  0  0  0
  8 25  1  0  0  0  0
  8  3  1  0  0  0  0
  8  4  1  0  0  0  0
  9 12  1  0  0  0  0
 10  1  2  0  0  0  0
 11  6  1  0  0  0  0
 12  4  1  6  0  0  0
 12  6  1  0  0  0  0
 13  2  1  0  0  0  0
 15 21  1  0  0  0  0
 16 19  1  0  0  0  0
 17 18  1  0  0  0  0
 17 15  2  0  0  0  0
 18 16  2  0  0  0  0
 20 17  1  0  0  0  0
 21 19  2  0  0  0  0
 22 24  1  0  0  0  0
 22 25  1  0  0  0  0
 23 22  2  0  0  0  0
M  END
>  <MODEL>
8

>  <REMARK>
 VINA RESULT:      -6.6      1.665      1.941
  Name = 
  2 active torsions:
  status: ('A' for Active; 'I' for Inactive)
    1  A    between atoms: C_1  and  C_5
    2  A    between atoms: C_15  and  N_21
                            x       y       z     vdW  Elec       q    Type
                         _______ _______ _______ _____ _____    ______ ____

>  <TORSDO>
F 2

$$$$
=
 OpenBabel11052417283D

 25 27  0  0  1  0  0  0  0  0999 V2000
  187.1960  177.5840  144.1910 C   0  0  0  0  0  0  0  0  0  0  0  0
  187.7000  176.2920  144.5920 N   0  0  0  0  0  0  0  0  0  0  0  0
  190.7490  176.1550  145.2210 C   0  0  2  0  0  3  0  0  0  0  0  0
  189.9080  176.1660  142.7900 C   0  0  0  0  0  2  0  0  0  0  0  0
  189.6210  176.7990  146.0480 C   0  0  0  0  0  2  0  0  0  0  0  0
  189.9280  174.0750  144.2250 C   0  0  0  0  0  0  0  0  0  0  0  0
  189.8720  172.7510  144.2140 C   0  0  0  0  0  2  0  0  0  0  0  0
  190.9470  176.7120  143.7870 C   0  0  1  0  0  0  0  0  0  0  0  0
  187.7500  175.1660  143.6620 C   0  0  0  0  0  2  0  0  0  0  0  0
  187.3900  178.5810  144.9400 O   0  0  0  0  0  0  0  0  0  0  0  0
  190.6660  174.7320  145.2080 O   0  0  0  0  0  0  0  0  0  0  0  0
  189.1780  174.8710  143.1960 C   0  0  1  0  0  3  0  0  0  0  0  0
  188.2670  176.1020  145.9220 C   0  0  0  0  0  2  0  0  0  0  0  0
  190.8520  178.2310  143.7720 C   0  0  0  0  0  1  0  0  0  0  0  0
  186.4560  177.7830  142.9220 C   0  0  0  0  0  0  0  0  0  0  0  0
  185.0670  178.0990  140.4990 C   0  0  0  0  0  3  0  0  0  0  0  0
  185.0500  177.8880  142.9130 C   0  0  0  0  0  0  0  0  0  0  0  0
  184.3650  178.0490  141.7040 C   0  0  0  0  0  3  0  0  0  0  0  0
  186.4590  177.9860  140.4970 C   0  0  0  0  0  3  0  0  0  0  0  0
  184.3400  177.8580  144.0680 F   0  0  0  0  0  0  0  0  0  0  0  0
  187.1470  177.8270  141.7010 C   0  0  0  0  0  3  0  0  0  0  0  0
  193.4940  176.4760  144.0250 C   0  0  0  0  0  0  0  0  0  0  0  0
  193.5040  176.9980  145.1720 O   0  0  0  0  0  0  0  0  0  0  0  0
  195.0260  175.9270  143.2920 S   0  0  0  0  0  1  0  0  0  0  0  0
  192.2680  176.3160  143.3010 N   0  0  0  0  0  2  0  0  0  0  0  0
  1  2  1  0  0  0  0
  1 10  2  0  0  0  0
  2 13  1  0  0  0  0
  3  5  1  6  0  0  0
  4  8  1  0  0  0  0
  6 11  1  0  0  0  0
  7  6  2  0  0  0  0
  8 14  1  1  0  0  0
  8  3  1  0  0  0  0
  9  2  1  0  0  0  0
 11  3  1  0  0  0  0
 12  4  1  1  0  0  0
 12  9  1  0  0  0  0
 12  6  1  0  0  0  0
 13  5  1  0  0  0  0
 15  1  1  0  0  0  0
 16 18  1  0  0  0  0
 17 15  1  0  0  0  0
 17 20  1  0  0  0  0
 18 17  2  0  0  0  0
 19 16  2  0  0  0  0
 19 21  1  0  0  0  0
 21 15  2  0  0  0  0
 22 23  2  0  0  0  0
 24 22  1  0  0  0  0
 25  8  1  0  0  0  0
 25 22  1  0  0  0  0
M  END
>  <MODEL>
9

>  <REMARK>
 VINA RESULT:      -6.6      2.503      3.783
  Name = 
  2 active torsions:
  status: ('A' for Active; 'I' for Inactive)
    1  A    between atoms: C_1  and  C_5
    2  A    between atoms: C_15  and  N_21
                            x       y       z     vdW  Elec       q    Type
                         _______ _______ _______ _____ _____    ______ ____

>  <TORSDO>
F 2

$$$$
