=
 OpenBabel11052419003D

 34 39  0  0  1  0  0  0  0  0999 V2000
  191.1450  172.9740  143.8930 C   0  0  1  0  0  0  0  0  0  0  0  0
  186.2670  176.6310  143.3650 O   0  0  0  0  0  0  0  0  0  0  0  0
  190.3450  175.2240  144.1960 C   0  0  1  0  0  0  0  0  0  0  0  0
  190.0810  176.5990  143.4690 C   0  0  2  0  0  3  0  0  0  0  0  0
  191.1800  171.4810  143.5810 C   0  0  2  0  0  3  0  0  0  0  0  0
  189.8550  177.6200  147.5540 O   0  0  0  0  0  1  0  0  0  0  0  0
  190.3990  171.1890  142.4630 O   0  0  0  0  0  1  0  0  0  0  0  0
  186.4770  179.4640  143.3480 O   0  0  0  0  0  1  0  0  0  0  0  0
  187.5050  177.3200  144.9380 C   0  0  2  0  0  3  0  0  0  0  0  0
  186.0380  177.3900  144.5300 C   0  0  1  0  0  0  0  0  0  0  0  0
  185.5620  178.8110  144.1760 C   0  0  1  0  0  3  0  0  0  0  0  0
  190.2930  174.0240  143.1980 C   0  0  1  0  0  3  0  0  0  0  0  0
  187.2670  176.9840  147.5380 C   0  0  0  0  0  1  0  0  0  0  0  0
  187.5840  176.3670  143.7830 C   0  0  2  0  0  3  0  0  0  0  0  0
  188.6810  176.8000  142.8250 C   0  0  2  0  0  3  0  0  0  0  0  0
  190.2880  172.0090  144.6880 C   0  0  0  0  0  2  0  0  0  0  0  0
  184.4190  178.9010  146.3890 C   0  0  0  0  0  3  0  0  0  0  0  0
  191.7930  175.0930  144.8010 C   0  0  2  0  0  3  0  0  0  0  0  0
  184.3040  177.5640  146.4080 C   0  0  0  0  0  3  0  0  0  0  0  0
  189.4660  177.1820  146.2850 C   0  0  1  0  0  3  0  0  0  0  0  0
  192.1270  173.6390  144.7730 C   0  0  0  0  0  0  0  0  0  0  0  0
  189.2020  175.6920  146.3330 C   0  0  1  0  0  3  0  0  0  0  0  0
  188.0180  176.6870  146.2440 C   0  0  2  0  0  0  0  0  0  0  0  0
  189.2990  174.9320  145.1310 O   0  0  0  0  0  0  0  0  0  0  0  0
  188.5630  176.1030  141.6230 O   0  0  0  0  0  1  0  0  0  0  0  0
  193.3910  173.2190  144.8570 C   0  0  0  0  0  2  0  0  0  0  0  0
  185.0430  176.6560  145.4520 C   0  0  0  0  0  2  0  0  0  0  0  0
  185.3560  179.6140  145.4550 C   0  0  0  0  0  2  0  0  0  0  0  0
  190.9030  174.3380  141.9740 O   0  0  0  0  0  0  0  0  0  0  0  0
  190.1120  173.7330  140.9940 C   0  0  0  0  0  1  0  0  0  0  0  0
  192.0810  175.6940  146.1700 C   0  0  0  0  0  2  0  0  0  0  0  0
  193.0150  176.7230  146.0510 O   0  0  0  0  0  1  0  0  0  0  0  0
  191.8260  178.1940  143.0750 O   0  0  0  0  0  1  0  0  0  0  0  0
  191.1890  177.0770  142.5350 C   0  0  0  0  0  2  0  0  0  0  0  0
  1 16  1  1  0  0  0
  1 21  1  0  0  0  0
  2 14  1  0  0  0  0
  2 10  1  0  0  0  0
  3 18  1  0  0  0  0
  3 24  1  1  0  0  0
  4 34  1  6  0  0  0
  4  3  1  0  0  0  0
  5  7  1  6  0  0  0
  5  1  1  0  0  0  0
  5 16  1  0  0  0  0
  8 11  1  0  0  0  0
  9 23  1  0  0  0  0
 10  9  1  0  0  0  0
 10 27  1  0  0  0  0
 11 10  1  0  0  0  0
 11 28  1  0  0  0  0
 12  1  1  0  0  0  0
 12  3  1  0  0  0  0
 14  9  1  0  0  0  0
 15  4  1  0  0  0  0
 15 14  1  0  0  0  0
 17 19  2  0  0  0  0
 18 31  1  0  0  0  0
 20 22  1  0  0  0  0
 20  6  1  0  0  0  0
 21 18  1  0  0  0  0
 21 26  2  0  0  0  0
 23 20  1  0  0  0  0
 23 22  1  0  0  0  0
 23 13  1  0  0  0  0
 24 22  1  0  0  0  0
 25 15  1  0  0  0  0
 27 19  1  0  0  0  0
 28 17  1  0  0  0  0
 29 12  1  0  0  0  0
 30 29  1  0  0  0  0
 32 31  1  0  0  0  0
 34 33  1  0  0  0  0
M  END
>  <MODEL>
1

>  <REMARK>
 VINA RESULT:      -7.8      0.000      0.000
  Name = 
  3 active torsions:
  status: ('A' for Active; 'I' for Inactive)
    1  A    between atoms: O_2  and  C_15
    2  A    between atoms: C_5  and  C_31
    3  A    between atoms: C_7  and  C_21
                            x       y       z     vdW  Elec       q    Type
                         _______ _______ _______ _____ _____    ______ ____

>  <TORSDO>
F 3

$$$$
=
 OpenBabel11052419003D

 34 39  0  0  1  0  0  0  0  0999 V2000
  188.0620  176.7740  142.7770 C   0  0  1  0  0  0  0  0  0  0  0  0
  193.6710  174.6500  141.5700 O   0  0  0  0  0  0  0  0  0  0  0  0
  189.8760  175.4430  143.6330 C   0  0  1  0  0  0  0  0  0  0  0  0
  190.5230  174.0050  143.6260 C   0  0  2  0  0  3  0  0  0  0  0  0
  187.2360  177.6820  141.8720 C   0  0  2  0  0  3  0  0  0  0  0  0
  192.4170  175.8890  146.8880 O   0  0  0  0  0  1  0  0  0  0  0  0
  187.4110  177.3400  140.5320 O   0  0  0  0  0  1  0  0  0  0  0  0
  194.8260  172.4840  143.0010 O   0  0  0  0  0  1  0  0  0  0  0  0
  193.4410  174.8990  143.6590 C   0  0  2  0  0  3  0  0  0  0  0  0
  194.5690  174.8700  142.6340 C   0  0  1  0  0  0  0  0  0  0  0  0
  195.5260  173.6760  142.8020 C   0  0  1  0  0  3  0  0  0  0  0  0
  189.0540  175.7120  142.3330 C   0  0  1  0  0  3  0  0  0  0  0  0
  194.2600  176.8530  145.2210 C   0  0  0  0  0  1  0  0  0  0  0  0
  192.5800  174.8590  142.4320 C   0  0  2  0  0  3  0  0  0  0  0  0
  191.5870  173.7140  142.5300 C   0  0  2  0  0  3  0  0  0  0  0  0
  188.5570  178.1670  142.4390 C   0  0  0  0  0  2  0  0  0  0  0  0
  197.1810  175.2400  143.8170 C   0  0  0  0  0  3  0  0  0  0  0  0
  188.7940  175.6470  144.7590 C   0  0  2  0  0  3  0  0  0  0  0  0
  196.6520  176.2710  143.1410 C   0  0  0  0  0  3  0  0  0  0  0  0
  192.1530  175.4820  145.5780 C   0  0  1  0  0  3  0  0  0  0  0  0
  187.8230  176.6500  144.2290 C   0  0  0  0  0  0  0  0  0  0  0  0
  191.6850  176.6760  144.7720 C   0  0  1  0  0  3  0  0  0  0  0  0
  193.1090  176.1050  144.5570 C   0  0  2  0  0  0  0  0  0  0  0  0
  190.8870  176.4580  143.6120 O   0  0  0  0  0  0  0  0  0  0  0  0
  190.9950  173.4920  141.2870 O   0  0  0  0  0  1  0  0  0  0  0  0
  186.6030  176.7730  144.7540 C   0  0  0  0  0  2  0  0  0  0  0  0
  195.3250  176.1970  142.4210 C   0  0  0  0  0  2  0  0  0  0  0  0
  196.4590  173.9320  143.9800 C   0  0  0  0  0  2  0  0  0  0  0  0
  188.3280  174.5810  141.9310 O   0  0  0  0  0  0  0  0  0  0  0  0
  188.4320  174.5430  140.5380 C   0  0  0  0  0  1  0  0  0  0  0  0
  189.2480  176.0150  146.1650 C   0  0  0  0  0  2  0  0  0  0  0  0
  188.9620  174.9730  147.0460 O   0  0  0  0  0  1  0  0  0  0  0  0
  189.6840  172.2480  145.0240 O   0  0  0  0  0  1  0  0  0  0  0  0
  189.5490  172.8390  143.7690 C   0  0  0  0  0  2  0  0  0  0  0  0
  1 16  1  1  0  0  0
  1 21  1  0  0  0  0
  2 14  1  0  0  0  0
  2 10  1  0  0  0  0
  3 24  1  1  0  0  0
  3 18  1  0  0  0  0
  4  3  1  0  0  0  0
  4 34  1  6  0  0  0
  5  7  1  6  0  0  0
  5 16  1  0  0  0  0
  5  1  1  0  0  0  0
  9 23  1  0  0  0  0
 10 11  1  0  0  0  0
 10  9  1  0  0  0  0
 11  8  1  0  0  0  0
 11 28  1  0  0  0  0
 12  1  1  0  0  0  0
 12  3  1  0  0  0  0
 14 15  1  0  0  0  0
 14  9  1  0  0  0  0
 15  4  1  0  0  0  0
 17 28  1  0  0  0  0
 18 31  1  0  0  0  0
 19 17  2  0  0  0  0
 20  6  1  0  0  0  0
 21 26  2  0  0  0  0
 21 18  1  0  0  0  0
 22 20  1  0  0  0  0
 23 22  1  0  0  0  0
 23 13  1  0  0  0  0
 23 20  1  0  0  0  0
 24 22  1  0  0  0  0
 25 15  1  0  0  0  0
 27 10  1  0  0  0  0
 27 19  1  0  0  0  0
 29 12  1  0  0  0  0
 30 29  1  0  0  0  0
 31 32  1  0  0  0  0
 34 33  1  0  0  0  0
M  END
>  <MODEL>
2

>  <REMARK>
 VINA RESULT:      -7.6      2.334      6.917
  Name = 
  3 active torsions:
  status: ('A' for Active; 'I' for Inactive)
    1  A    between atoms: O_2  and  C_15
    2  A    between atoms: C_5  and  C_31
    3  A    between atoms: C_7  and  C_21
                            x       y       z     vdW  Elec       q    Type
                         _______ _______ _______ _____ _____    ______ ____

>  <TORSDO>
F 3

$$$$
=
 OpenBabel11052419003D

 34 39  0  0  1  0  0  0  0  0999 V2000
  193.7460  175.0740  144.6130 C   0  0  1  0  0  0  0  0  0  0  0  0
  188.5670  178.3050  144.1820 O   0  0  0  0  0  0  0  0  0  0  0  0
  191.3430  174.9370  144.6790 C   0  0  1  0  0  0  0  0  0  0  0  0
  190.0760  175.1020  145.6030 C   0  0  2  0  0  3  0  0  0  0  0  0
  195.1600  175.6290  144.4670 C   0  0  2  0  0  3  0  0  0  0  0  0
  188.5530  173.0440  142.2540 O   0  0  0  0  0  1  0  0  0  0  0  0
  195.2590  176.8940  145.0440 O   0  0  0  0  0  1  0  0  0  0  0  0
  186.0670  177.3130  145.0990 O   0  0  0  0  0  1  0  0  0  0  0  0
  188.2290  176.3270  143.5060 C   0  0  2  0  0  3  0  0  0  0  0  0
  187.6410  177.7180  143.2960 C   0  0  1  0  0  0  0  0  0  0  0  0
  186.2040  177.8670  143.8240 C   0  0  1  0  0  3  0  0  0  0  0  0
  192.5400  175.8060  145.1800 C   0  0  1  0  0  3  0  0  0  0  0  0
  188.1230  175.3830  141.0510 C   0  0  0  0  0  1  0  0  0  0  0  0
  189.2720  177.0900  144.2670 C   0  0  2  0  0  3  0  0  0  0  0  0
  189.4240  176.5110  145.6640 C   0  0  2  0  0  3  0  0  0  0  0  0
  194.1930  175.6870  143.3000 C   0  0  0  0  0  2  0  0  0  0  0  0
  185.4010  177.7340  141.4680 C   0  0  0  0  0  3  0  0  0  0  0  0
  191.9550  173.4870  144.6930 C   0  0  2  0  0  3  0  0  0  0  0  0
  186.5730  178.2090  141.0200 C   0  0  0  0  0  3  0  0  0  0  0  0
  188.9570  174.0990  143.0760 C   0  0  1  0  0  3  0  0  0  0  0  0
  193.4160  173.6460  144.4310 C   0  0  0  0  0  0  0  0  0  0  0  0
  190.2070  174.7290  142.4980 C   0  0  1  0  0  3  0  0  0  0  0  0
  188.8460  175.4640  142.3910 C   0  0  2  0  0  0  0  0  0  0  0  0
  191.0850  175.4440  143.3640 O   0  0  0  0  0  0  0  0  0  0  0  0
  190.1620  177.3850  146.4610 O   0  0  0  0  0  1  0  0  0  0  0  0
  194.2830  172.6810  144.7400 C   0  0  0  0  0  2  0  0  0  0  0  0
  187.8080  178.3180  141.8840 C   0  0  0  0  0  2  0  0  0  0  0  0
  185.2330  177.1950  142.8610 C   0  0  0  0  0  2  0  0  0  0  0  0
  192.6440  175.7920  146.5800 O   0  0  0  0  0  0  0  0  0  0  0  0
  193.2000  177.0260  146.9280 C   0  0  0  0  0  1  0  0  0  0  0  0
  191.3510  172.4190  143.7900 C   0  0  0  0  0  2  0  0  0  0  0  0
  190.5750  171.5400  144.5450 O   0  0  0  0  0  1  0  0  0  0  0  0
  188.9420  174.4740  147.6190 O   0  0  0  0  0  1  0  0  0  0  0  0
  190.1890  174.4890  146.9970 C   0  0  0  0  0  2  0  0  0  0  0  0
  1 16  1  6  0  0  0
  1 12  1  0  0  0  0
  2 14  1  0  0  0  0
  3 24  1  6  0  0  0
  3 18  1  0  0  0  0
  3 12  1  0  0  0  0
  3  4  1  0  0  0  0
  4 15  1  0  0  0  0
  4 34  1  1  0  0  0
  5  1  1  0  0  0  0
  5  7  1  1  0  0  0
  6 20  1  0  0  0  0
  9 14  1  0  0  0  0
 10  9  1  0  0  0  0
 10 11  1  0  0  0  0
 10  2  1  0  0  0  0
 11  8  1  0  0  0  0
 12 29  1  0  0  0  0
 13 23  1  0  0  0  0
 14 15  1  0  0  0  0
 15 25  1  0  0  0  0
 16  5  1  0  0  0  0
 17 28  1  0  0  0  0
 19 17  2  0  0  0  0
 19 27  1  0  0  0  0
 21  1  1  0  0  0  0
 21 18  1  0  0  0  0
 21 26  2  0  0  0  0
 22 20  1  0  0  0  0
 22 24  1  0  0  0  0
 23 22  1  0  0  0  0
 23 20  1  0  0  0  0
 23  9  1  0  0  0  0
 27 10  1  0  0  0  0
 28 11  1  0  0  0  0
 29 30  1  0  0  0  0
 31 32  1  0  0  0  0
 31 18  1  0  0  0  0
 34 33  1  0  0  0  0
M  END
>  <MODEL>
3

>  <REMARK>
 VINA RESULT:      -7.2      1.846      4.499
  Name = 
  3 active torsions:
  status: ('A' for Active; 'I' for Inactive)
    1  A    between atoms: O_2  and  C_15
    2  A    between atoms: C_5  and  C_31
    3  A    between atoms: C_7  and  C_21
                            x       y       z     vdW  Elec       q    Type
                         _______ _______ _______ _____ _____    ______ ____

>  <TORSDO>
F 3

$$$$
=
 OpenBabel11052419003D

 34 39  0  0  1  0  0  0  0  0999 V2000
  186.4920  177.6340  145.6480 C   0  0  1  0  0  0  0  0  0  0  0  0
  190.7950  173.4850  144.3390 O   0  0  0  0  0  0  0  0  0  0  0  0
  188.1400  176.9700  144.0230 C   0  0  1  0  0  0  0  0  0  0  0  0
  189.6660  177.0610  143.6370 C   0  0  2  0  0  3  0  0  0  0  0  0
  185.6040  177.6390  146.8880 C   0  0  2  0  0  3  0  0  0  0  0  0
  187.8650  175.6660  140.0890 O   0  0  0  0  0  1  0  0  0  0  0  0
  186.3160  177.2220  148.0110 O   0  0  0  0  0  1  0  0  0  0  0  0
  192.7930  173.9260  142.3670 O   0  0  0  0  0  1  0  0  0  0  0  0
  189.9540  174.2270  142.5430 C   0  0  2  0  0  3  0  0  0  0  0  0
  190.6640  172.9700  143.0330 C   0  0  1  0  0  0  0  0  0  0  0  0
  192.0430  172.7490  142.3880 C   0  0  1  0  0  3  0  0  0  0  0  0
  187.9240  177.1310  145.5610 C   0  0  1  0  0  3  0  0  0  0  0  0
  188.1210  173.1670  140.9800 C   0  0  0  0  0  1  0  0  0  0  0  0
  189.9800  174.5810  144.0000 C   0  0  2  0  0  3  0  0  0  0  0  0
  190.6030  175.9530  144.1920 C   0  0  2  0  0  3  0  0  0  0  0  0
  185.5230  176.4940  145.8960 C   0  0  0  0  0  2  0  0  0  0  0  0
  191.0110  170.9870  140.9580 C   0  0  0  0  0  3  0  0  0  0  0  0
  187.2660  178.1430  143.4400 C   0  0  2  0  0  3  0  0  0  0  0  0
  190.0660  170.7600  141.8840 C   0  0  0  0  0  3  0  0  0  0  0  0
  188.4630  175.6540  141.3530 C   0  0  1  0  0  3  0  0  0  0  0  0
  186.1440  178.3460  144.4020 C   0  0  0  0  0  0  0  0  0  0  0  0
  187.4280  175.2640  142.3880 C   0  0  1  0  0  3  0  0  0  0  0  0
  188.5260  174.2540  141.9690 C   0  0  2  0  0  0  0  0  0  0  0  0
  187.6190  175.6650  143.7420 O   0  0  0  0  0  0  0  0  0  0  0  0
  190.8970  176.1560  145.5400 O   0  0  0  0  0  1  0  0  0  0  0  0
  185.4420  179.4820  144.4160 C   0  0  0  0  0  2  0  0  0  0  0  0
  189.8180  171.6800  143.0570 C   0  0  0  0  0  2  0  0  0  0  0  0
  191.8650  172.2240  140.9690 C   0  0  0  0  0  2  0  0  0  0  0  0
  188.7630  178.1150  146.1060 O   0  0  0  0  0  0  0  0  0  0  0  0
  189.2690  177.5650  147.2870 C   0  0  0  0  0  1  0  0  0  0  0  0
  186.7500  178.0410  142.0100 C   0  0  0  0  0  2  0  0  0  0  0  0
  185.4140  177.6410  142.0140 O   0  0  0  0  0  1  0  0  0  0  0  0
  191.6170  178.4150  143.3110 O   0  0  0  0  0  1  0  0  0  0  0  0
  190.3040  178.4410  143.7780 C   0  0  0  0  0  2  0  0  0  0  0  0
  1 16  1  6  0  0  0
  1  5  1  0  0  0  0
  3 24  1  6  0  0  0
  3 12  1  0  0  0  0
  4 34  1  1  0  0  0
  4  3  1  0  0  0  0
  4 15  1  0  0  0  0
  5  7  1  1  0  0  0
  6 20  1  0  0  0  0
  8 11  1  0  0  0  0
  9 10  1  0  0  0  0
  9 14  1  0  0  0  0
 10 27  1  0  0  0  0
 10  2  1  0  0  0  0
 11 10  1  0  0  0  0
 12  1  1  0  0  0  0
 12 29  1  0  0  0  0
 13 23  1  0  0  0  0
 14 15  1  0  0  0  0
 14  2  1  0  0  0  0
 15 25  1  0  0  0  0
 16  5  1  0  0  0  0
 17 28  1  0  0  0  0
 17 19  2  0  0  0  0
 18  3  1  0  0  0  0
 18 21  1  0  0  0  0
 19 27  1  0  0  0  0
 20 23  1  0  0  0  0
 20 22  1  0  0  0  0
 21 26  2  0  0  0  0
 21  1  1  0  0  0  0
 22 24  1  0  0  0  0
 23 22  1  0  0  0  0
 23  9  1  0  0  0  0
 28 11  1  0  0  0  0
 29 30  1  0  0  0  0
 31 32  1  0  0  0  0
 31 18  1  0  0  0  0
 33 34  1  0  0  0  0
M  END
>  <MODEL>
4

>  <REMARK>
 VINA RESULT:      -7.2      1.710      6.832
  Name = 
  3 active torsions:
  status: ('A' for Active; 'I' for Inactive)
    1  A    between atoms: O_2  and  C_15
    2  A    between atoms: C_5  and  C_31
    3  A    between atoms: C_7  and  C_21
                            x       y       z     vdW  Elec       q    Type
                         _______ _______ _______ _____ _____    ______ ____

>  <TORSDO>
F 3

$$$$
=
 OpenBabel11052419003D

 34 39  0  0  1  0  0  0  0  0999 V2000
  194.5360  174.9540  143.5060 C   0  0  1  0  0  0  0  0  0  0  0  0
  189.3410  178.1790  143.7180 O   0  0  0  0  0  0  0  0  0  0  0  0
  192.1870  174.8460  144.0180 C   0  0  1  0  0  0  0  0  0  0  0  0
  191.1060  175.1080  145.1360 C   0  0  2  0  0  3  0  0  0  0  0  0
  195.8960  175.4780  143.0570 C   0  0  2  0  0  3  0  0  0  0  0  0
  189.0180  172.7620  142.3240 O   0  0  0  0  0  1  0  0  0  0  0  0
  196.0880  176.7920  143.4850 O   0  0  0  0  0  1  0  0  0  0  0  0
  187.0560  177.3010  145.1600 O   0  0  0  0  0  1  0  0  0  0  0  0
  188.9010  176.1510  143.3020 C   0  0  2  0  0  3  0  0  0  0  0  0
  188.2750  177.5220  143.0720 C   0  0  1  0  0  0  0  0  0  0  0  0
  186.9550  177.7330  143.8350 C   0  0  1  0  0  3  0  0  0  0  0  0
  193.4480  175.7460  144.2110 C   0  0  1  0  0  3  0  0  0  0  0  0
  188.3600  174.9830  141.0060 C   0  0  0  0  0  1  0  0  0  0  0  0
  190.0580  176.9710  143.7880 C   0  0  2  0  0  3  0  0  0  0  0  0
  190.4650  176.5240  145.1820 C   0  0  2  0  0  3  0  0  0  0  0  0
  194.7340  175.4370  142.0830 C   0  0  0  0  0  2  0  0  0  0  0  0
  185.7410  177.3880  141.6860 C   0  0  0  0  0  3  0  0  0  0  0  0
  192.8020  173.3980  144.0560 C   0  0  2  0  0  3  0  0  0  0  0  0
  186.8090  177.8090  140.9910 C   0  0  0  0  0  3  0  0  0  0  0  0
  189.5560  173.8850  142.9580 C   0  0  1  0  0  3  0  0  0  0  0  0
  194.1900  173.5180  143.5210 C   0  0  0  0  0  0  0  0  0  0  0  0
  190.6760  174.4470  142.1070 C   0  0  1  0  0  3  0  0  0  0  0  0
  189.3130  175.1810  142.1790 C   0  0  2  0  0  0  0  0  0  0  0  0
  191.6910  175.2310  142.7290 O   0  0  0  0  0  0  0  0  0  0  0  0
  191.3280  177.4610  145.7470 O   0  0  0  0  0  1  0  0  0  0  0  0
  195.1060  172.5770  143.7580 C   0  0  0  0  0  2  0  0  0  0  0  0
  188.1790  177.9850  141.6040 C   0  0  0  0  0  2  0  0  0  0  0  0
  185.8310  176.9830  143.1300 C   0  0  0  0  0  2  0  0  0  0  0  0
  193.8030  175.8620  145.5640 O   0  0  0  0  0  0  0  0  0  0  0  0
  194.2820  177.1660  145.7160 C   0  0  0  0  0  1  0  0  0  0  0  0
  192.0520  172.2560  143.3810 C   0  0  0  0  0  2  0  0  0  0  0  0
  191.5840  171.3600  144.3410 O   0  0  0  0  0  1  0  0  0  0  0  0
  190.4280  174.8830  147.4240 O   0  0  0  0  0  1  0  0  0  0  0  0
  191.4730  174.6270  146.5380 C   0  0  0  0  0  2  0  0  0  0  0  0
  1 16  1  6  0  0  0
  1 21  1  0  0  0  0
  1 12  1  0  0  0  0
  2 14  1  0  0  0  0
  3 24  1  6  0  0  0
  3 18  1  0  0  0  0
  3 12  1  0  0  0  0
  3  4  1  0  0  0  0
  4 15  1  0  0  0  0
  4 34  1  1  0  0  0
  5  7  1  1  0  0  0
  5  1  1  0  0  0  0
  6 20  1  0  0  0  0
  9 14  1  0  0  0  0
 10  9  1  0  0  0  0
 10  2  1  0  0  0  0
 10 11  1  0  0  0  0
 11  8  1  0  0  0  0
 12 29  1  0  0  0  0
 13 23  1  0  0  0  0
 14 15  1  0  0  0  0
 15 25  1  0  0  0  0
 16  5  1  0  0  0  0
 17 28  1  0  0  0  0
 19 27  1  0  0  0  0
 19 17  2  0  0  0  0
 21 26  2  0  0  0  0
 21 18  1  0  0  0  0
 22 23  1  0  0  0  0
 22 24  1  0  0  0  0
 22 20  1  0  0  0  0
 23 20  1  0  0  0  0
 23  9  1  0  0  0  0
 27 10  1  0  0  0  0
 28 11  1  0  0  0  0
 29 30  1  0  0  0  0
 31 18  1  0  0  0  0
 31 32  1  0  0  0  0
 34 33  1  0  0  0  0
M  END
>  <MODEL>
5

>  <REMARK>
 VINA RESULT:      -7.0      2.081      4.641
  Name = 
  3 active torsions:
  status: ('A' for Active; 'I' for Inactive)
    1  A    between atoms: O_2  and  C_15
    2  A    between atoms: C_5  and  C_31
    3  A    between atoms: C_7  and  C_21
                            x       y       z     vdW  Elec       q    Type
                         _______ _______ _______ _____ _____    ______ ____

>  <TORSDO>
F 3

$$$$
=
 OpenBabel11052419003D

 34 39  0  0  1  0  0  0  0  0999 V2000
  195.0010  174.6010  141.6890 C   0  0  1  0  0  0  0  0  0  0  0  0
  190.3950  178.0980  143.6860 O   0  0  0  0  0  0  0  0  0  0  0  0
  192.9500  174.6020  142.9490 C   0  0  1  0  0  0  0  0  0  0  0  0
  192.3190  174.8750  144.3680 C   0  0  2  0  0  3  0  0  0  0  0  0
  196.1690  175.0680  140.8260 C   0  0  2  0  0  3  0  0  0  0  0  0
  189.2680  172.7720  142.3560 O   0  0  0  0  0  1  0  0  0  0  0  0
  196.5780  176.3490  141.1950 O   0  0  0  0  0  1  0  0  0  0  0  0
  188.6590  177.2860  145.7850 O   0  0  0  0  0  1  0  0  0  0  0  0
  189.7080  176.1170  143.3940 C   0  0  2  0  0  3  0  0  0  0  0  0
  189.1330  177.5290  143.4160 C   0  0  1  0  0  0  0  0  0  0  0  0
  188.1570  177.7800  144.5790 C   0  0  1  0  0  3  0  0  0  0  0  0
  194.2620  175.4210  142.7330 C   0  0  1  0  0  3  0  0  0  0  0  0
  188.3620  175.0820  141.3820 C   0  0  0  0  0  1  0  0  0  0  0  0
  191.0120  176.8500  143.4870 C   0  0  2  0  0  3  0  0  0  0  0  0
  191.8250  176.3200  144.6560 C   0  0  2  0  0  3  0  0  0  0  0  0
  194.7500  175.1340  140.2920 C   0  0  0  0  0  2  0  0  0  0  0  0
  186.2810  177.5970  142.9470 C   0  0  0  0  0  3  0  0  0  0  0  0
  193.4450  173.1210  142.7480 C   0  0  2  0  0  3  0  0  0  0  0  0
  187.0860  177.9880  141.9470 C   0  0  0  0  0  3  0  0  0  0  0  0
  190.0590  173.8360  142.8010 C   0  0  1  0  0  3  0  0  0  0  0  0
  194.5830  173.1880  141.7850 C   0  0  0  0  0  0  0  0  0  0  0  0
  190.8710  174.3710  141.6400 C   0  0  1  0  0  3  0  0  0  0  0  0
  189.6600  175.1760  142.1770 C   0  0  2  0  0  0  0  0  0  0  0  0
  192.0840  175.0690  141.9070 O   0  0  0  0  0  0  0  0  0  0  0  0
  192.8870  177.1820  144.9240 O   0  0  0  0  0  1  0  0  0  0  0  0
  195.4610  172.1880  141.6830 C   0  0  0  0  0  2  0  0  0  0  0  0
  188.5910  178.0610  142.0740 C   0  0  0  0  0  2  0  0  0  0  0  0
  186.8160  177.1250  144.2700 C   0  0  0  0  0  2  0  0  0  0  0  0
  195.0500  175.4580  143.8940 O   0  0  0  0  0  0  0  0  0  0  0  0
  195.6480  176.7210  143.9020 C   0  0  0  0  0  1  0  0  0  0  0  0
  192.4400  172.0540  142.3340 C   0  0  0  0  0  2  0  0  0  0  0  0
  192.2490  171.1490  143.3780 O   0  0  0  0  0  1  0  0  0  0  0  0
  192.4570  174.6480  146.7500 O   0  0  0  0  0  1  0  0  0  0  0  0
  193.0950  174.3130  145.5570 C   0  0  0  0  0  2  0  0  0  0  0  0
  1 16  1  6  0  0  0
  1 21  1  0  0  0  0
  1 12  1  0  0  0  0
  3 24  1  6  0  0  0
  3  4  1  0  0  0  0
  4 15  1  0  0  0  0
  4 34  1  1  0  0  0
  5  7  1  1  0  0  0
  5  1  1  0  0  0  0
  6 20  1  0  0  0  0
  9 10  1  0  0  0  0
  9 14  1  0  0  0  0
 10  2  1  0  0  0  0
 10 11  1  0  0  0  0
 11  8  1  0  0  0  0
 12  3  1  0  0  0  0
 12 29  1  0  0  0  0
 13 23  1  0  0  0  0
 14  2  1  0  0  0  0
 14 15  1  0  0  0  0
 15 25  1  0  0  0  0
 16  5  1  0  0  0  0
 17 28  1  0  0  0  0
 18  3  1  0  0  0  0
 19 27  1  0  0  0  0
 19 17  2  0  0  0  0
 21 18  1  0  0  0  0
 22 24  1  0  0  0  0
 22 23  1  0  0  0  0
 22 20  1  0  0  0  0
 23 20  1  0  0  0  0
 23  9  1  0  0  0  0
 26 21  2  0  0  0  0
 27 10  1  0  0  0  0
 28 11  1  0  0  0  0
 29 30  1  0  0  0  0
 31 18  1  0  0  0  0
 31 32  1  0  0  0  0
 34 33  1  0  0  0  0
M  END
>  <MODEL>
6

>  <REMARK>
 VINA RESULT:      -6.9      2.551      4.930
  Name = 
  3 active torsions:
  status: ('A' for Active; 'I' for Inactive)
    1  A    between atoms: O_2  and  C_15
    2  A    between atoms: C_5  and  C_31
    3  A    between atoms: C_7  and  C_21
                            x       y       z     vdW  Elec       q    Type
                         _______ _______ _______ _____ _____    ______ ____

>  <TORSDO>
F 3

$$$$
=
 OpenBabel11052419003D

 34 39  0  0  1  0  0  0  0  0999 V2000
  195.4370  170.9860  144.7430 C   0  0  1  0  0  0  0  0  0  0  0  0
  189.8860  173.5350  144.3820 O   0  0  0  0  0  0  0  0  0  0  0  0
  194.2460  173.0180  144.2470 C   0  0  1  0  0  0  0  0  0  0  0  0
  193.4770  173.8090  143.1210 C   0  0  2  0  0  3  0  0  0  0  0  0
  195.7350  169.5480  145.1590 C   0  0  2  0  0  3  0  0  0  0  0  0
  194.1550  176.7540  146.0610 O   0  0  0  0  0  1  0  0  0  0  0  0
  194.7670  168.6770  144.6610 O   0  0  0  0  0  1  0  0  0  0  0  0
  189.4110  175.9710  142.9980 O   0  0  0  0  0  1  0  0  0  0  0  0
  191.3120  175.0090  144.9060 C   0  0  2  0  0  3  0  0  0  0  0  0
  189.8160  174.7660  145.0660 C   0  0  1  0  0  0  0  0  0  0  0  0
  188.9410  175.7730  144.2980 C   0  0  1  0  0  3  0  0  0  0  0  0
  194.2040  171.4770  144.0010 C   0  0  1  0  0  3  0  0  0  0  0  0
  191.8890  176.0310  147.2630 C   0  0  0  0  0  1  0  0  0  0  0  0
  191.2910  173.6080  144.3730 C   0  0  2  0  0  3  0  0  0  0  0  0
  191.9460  173.5620  143.0030 C   0  0  2  0  0  3  0  0  0  0  0  0
  195.0850  170.5070  146.1380 C   0  0  0  0  0  2  0  0  0  0  0  0
  188.4660  176.9050  146.4680 C   0  0  0  0  0  3  0  0  0  0  0  0
  195.7930  173.3080  144.2820 C   0  0  2  0  0  3  0  0  0  0  0  0
  188.6790  175.7600  147.1350 C   0  0  0  0  0  3  0  0  0  0  0  0
  193.5440  175.7060  145.3660 C   0  0  1  0  0  3  0  0  0  0  0  0
  196.4390  172.0680  144.8050 C   0  0  0  0  0  0  0  0  0  0  0  0
  193.6620  174.4350  146.1820 C   0  0  1  0  0  3  0  0  0  0  0  0
  192.3000  175.1660  146.0770 C   0  0  2  0  0  0  0  0  0  0  0  0
  193.5980  173.1770  145.5160 O   0  0  0  0  0  0  0  0  0  0  0  0
  191.6680  172.3430  142.3860 O   0  0  0  0  0  1  0  0  0  0  0  0
  197.7390  171.8330  144.6150 C   0  0  0  0  0  2  0  0  0  0  0  0
  189.3160  174.5410  146.5080 C   0  0  0  0  0  2  0  0  0  0  0  0
  188.9130  177.1000  145.0460 C   0  0  0  0  0  2  0  0  0  0  0  0
  194.3610  171.1610  142.6430 O   0  0  0  0  0  0  0  0  0  0  0  0
  193.4830  170.1010  142.4000 C   0  0  0  0  0  1  0  0  0  0  0  0
  196.2990  174.5410  145.0200 C   0  0  0  0  0  2  0  0  0  0  0  0
  196.8160  175.4620  144.1090 O   0  0  0  0  0  1  0  0  0  0  0  0
  194.6320  175.0860  141.4530 O   0  0  0  0  0  1  0  0  0  0  0  0
  194.1380  173.8150  141.7450 C   0  0  0  0  0  2  0  0  0  0  0  0
  1 21  1  0  0  0  0
  1  5  1  0  0  0  0
  1 16  1  1  0  0  0
  2 10  1  0  0  0  0
  3 18  1  0  0  0  0
  3 24  1  1  0  0  0
  4 34  1  6  0  0  0
  4  3  1  0  0  0  0
  5  7  1  6  0  0  0
  5 16  1  0  0  0  0
  8 11  1  0  0  0  0
  9 10  1  0  0  0  0
  9 23  1  0  0  0  0
 10 27  1  0  0  0  0
 11 28  1  0  0  0  0
 11 10  1  0  0  0  0
 12  3  1  0  0  0  0
 12  1  1  0  0  0  0
 14  2  1  0  0  0  0
 14  9  1  0  0  0  0
 15  4  1  0  0  0  0
 15 14  1  0  0  0  0
 17 19  2  0  0  0  0
 18 21  1  0  0  0  0
 18 31  1  0  0  0  0
 20  6  1  0  0  0  0
 20 23  1  0  0  0  0
 20 22  1  0  0  0  0
 23 22  1  0  0  0  0
 23 13  1  0  0  0  0
 24 22  1  0  0  0  0
 25 15  1  0  0  0  0
 26 21  2  0  0  0  0
 27 19  1  0  0  0  0
 28 17  1  0  0  0  0
 29 12  1  0  0  0  0
 30 29  1  0  0  0  0
 32 31  1  0  0  0  0
 33 34  1  0  0  0  0
M  END
>  <MODEL>
7

>  <REMARK>
 VINA RESULT:      -6.9      2.645      4.690
  Name = 
  3 active torsions:
  status: ('A' for Active; 'I' for Inactive)
    1  A    between atoms: O_2  and  C_15
    2  A    between atoms: C_5  and  C_31
    3  A    between atoms: C_7  and  C_21
                            x       y       z     vdW  Elec       q    Type
                         _______ _______ _______ _____ _____    ______ ____

>  <TORSDO>
F 3

$$$$
=
 OpenBabel11052419003D

 34 39  0  0  1  0  0  0  0  0999 V2000
  188.4910  176.8690  144.1010 C   0  0  1  0  0  0  0  0  0  0  0  0
  193.4940  174.8970  141.1830 O   0  0  0  0  0  0  0  0  0  0  0  0
  190.4550  175.4920  144.2980 C   0  0  1  0  0  0  0  0  0  0  0  0
  191.0540  174.0650  143.9960 C   0  0  2  0  0  3  0  0  0  0  0  0
  187.4540  177.8380  143.5420 C   0  0  2  0  0  3  0  0  0  0  0  0
  193.8250  175.7050  146.7170 O   0  0  0  0  0  1  0  0  0  0  0  0
  187.2350  177.6030  142.1850 O   0  0  0  0  0  1  0  0  0  0  0  0
  194.9790  172.6360  142.0540 O   0  0  0  0  0  1  0  0  0  0  0  0
  193.8720  174.9790  143.2640 C   0  0  2  0  0  3  0  0  0  0  0  0
  194.6610  175.0410  141.9600 C   0  0  1  0  0  0  0  0  0  0  0  0
  195.6090  173.8460  141.7560 C   0  0  1  0  0  3  0  0  0  0  0  0
  189.3010  175.8550  143.3110 C   0  0  1  0  0  3  0  0  0  0  0  0
  195.1290  176.8130  144.6740 C   0  0  0  0  0  1  0  0  0  0  0  0
  192.6960  175.0280  142.3340 C   0  0  2  0  0  3  0  0  0  0  0  0
  191.7570  173.8700  142.6230 C   0  0  2  0  0  3  0  0  0  0  0  0
  188.8880  178.2890  143.7440 C   0  0  0  0  0  2  0  0  0  0  0  0
  197.5060  175.3410  142.3740 C   0  0  0  0  0  3  0  0  0  0  0  0
  189.7420  175.5980  145.6980 C   0  0  2  0  0  3  0  0  0  0  0  0
  196.8210  176.4170  141.9590 C   0  0  0  0  0  3  0  0  0  0  0  0
  193.1930  175.4000  145.5090 C   0  0  1  0  0  3  0  0  0  0  0  0
  188.6750  176.6300  145.5460 C   0  0  0  0  0  0  0  0  0  0  0  0
  192.5310  176.6490  144.9650 C   0  0  1  0  0  3  0  0  0  0  0  0
  193.8270  176.1090  144.3090 C   0  0  2  0  0  0  0  0  0  0  0  0
  191.4320  176.5150  144.0680 O   0  0  0  0  0  0  0  0  0  0  0  0
  190.8330  173.7400  141.5870 O   0  0  0  0  0  1  0  0  0  0  0  0
  187.6560  176.7010  146.4050 C   0  0  0  0  0  2  0  0  0  0  0  0
  195.3430  176.3870  141.6440 C   0  0  0  0  0  2  0  0  0  0  0  0
  196.8420  174.0170  142.6350 C   0  0  0  0  0  2  0  0  0  0  0  0
  188.4750  174.7510  143.0470 O   0  0  0  0  0  0  0  0  0  0  0  0
  188.1910  174.8130  141.6800 C   0  0  0  0  0  1  0  0  0  0  0  0
  190.5840  175.8590  146.9400 C   0  0  0  0  0  2  0  0  0  0  0  0
  190.2810  174.9210  147.9260 O   0  0  0  0  0  1  0  0  0  0  0  0
  190.8800  171.6980  144.3310 O   0  0  0  0  0  1  0  0  0  0  0  0
  190.1450  172.8820  144.3200 C   0  0  0  0  0  2  0  0  0  0  0  0
  1 16  1  6  0  0  0
  1 21  1  0  0  0  0
  2 10  1  0  0  0  0
  2 14  1  0  0  0  0
  3 24  1  6  0  0  0
  3 18  1  0  0  0  0
  4  3  1  0  0  0  0
  4 34  1  6  0  0  0
  5  7  1  6  0  0  0
  5 16  1  0  0  0  0
  5  1  1  0  0  0  0
  9 23  1  0  0  0  0
 10  9  1  0  0  0  0
 11 10  1  0  0  0  0
 11  8  1  0  0  0  0
 11 28  1  0  0  0  0
 12  1  1  0  0  0  0
 12  3  1  0  0  0  0
 14 15  1  0  0  0  0
 14  9  1  0  0  0  0
 15  4  1  0  0  0  0
 17 28  1  0  0  0  0
 18 31  1  0  0  0  0
 19 17  2  0  0  0  0
 20  6  1  0  0  0  0
 21 18  1  0  0  0  0
 21 26  2  0  0  0  0
 22 20  1  0  0  0  0
 23 13  1  0  0  0  0
 23 22  1  0  0  0  0
 23 20  1  0  0  0  0
 24 22  1  0  0  0  0
 25 15  1  0  0  0  0
 27 19  1  0  0  0  0
 27 10  1  0  0  0  0
 29 12  1  0  0  0  0
 30 29  1  0  0  0  0
 31 32  1  0  0  0  0
 34 33  1  0  0  0  0
M  END
>  <MODEL>
8

>  <REMARK>
 VINA RESULT:      -6.9      2.609      7.063
  Name = 
  3 active torsions:
  status: ('A' for Active; 'I' for Inactive)
    1  A    between atoms: O_2  and  C_15
    2  A    between atoms: C_5  and  C_31
    3  A    between atoms: C_7  and  C_21
                            x       y       z     vdW  Elec       q    Type
                         _______ _______ _______ _____ _____    ______ ____

>  <TORSDO>
F 3

$$$$
=
 OpenBabel11052419003D

 34 39  0  0  1  0  0  0  0  0999 V2000
  190.4980  176.5300  144.7520 C   0  0  1  0  0  0  0  0  0  0  0  0
  193.7590  174.1560  140.1510 O   0  0  0  0  0  0  0  0  0  0  0  0
  192.2910  175.0210  144.2000 C   0  0  1  0  0  0  0  0  0  0  0  0
  192.6320  173.5500  143.7460 C   0  0  2  0  0  3  0  0  0  0  0  0
  189.3800  177.5590  144.6170 C   0  0  2  0  0  3  0  0  0  0  0  0
  196.3590  175.0400  145.0350 O   0  0  0  0  0  1  0  0  0  0  0  0
  188.6150  177.3150  143.4780 O   0  0  0  0  0  1  0  0  0  0  0  0
  195.3380  171.8130  140.4480 O   0  0  0  0  0  1  0  0  0  0  0  0
  194.9550  174.2500  141.8950 C   0  0  2  0  0  3  0  0  0  0  0  0
  195.1480  174.2320  140.3830 C   0  0  1  0  0  0  0  0  0  0  0  0
  195.8610  172.9700  139.8670 C   0  0  1  0  0  3  0  0  0  0  0  0
  190.8570  175.4470  143.7490 C   0  0  1  0  0  3  0  0  0  0  0  0
  196.7800  176.0150  142.5910 C   0  0  0  0  0  1  0  0  0  0  0  0
  193.5080  174.3640  141.5200 C   0  0  2  0  0  3  0  0  0  0  0  0
  192.7030  173.2810  142.2160 C   0  0  2  0  0  3  0  0  0  0  0  0
  190.7960  177.9110  144.2010 C   0  0  0  0  0  2  0  0  0  0  0  0
  197.9280  174.3370  139.5950 C   0  0  0  0  0  3  0  0  0  0  0  0
  192.2160  175.2030  145.7620 C   0  0  2  0  0  3  0  0  0  0  0  0
  197.1950  175.4510  139.4440 C   0  0  0  0  0  3  0  0  0  0  0  0
  195.2740  174.7580  144.2010 C   0  0  1  0  0  3  0  0  0  0  0  0
  191.2410  176.3050  146.0090 C   0  0  0  0  0  0  0  0  0  0  0  0
  194.5210  176.0410  143.9160 C   0  0  1  0  0  3  0  0  0  0  0  0
  195.4040  175.3990  142.8170 C   0  0  2  0  0  0  0  0  0  0  0  0
  193.1460  175.9690  143.5470 O   0  0  0  0  0  0  0  0  0  0  0  0
  191.4310  173.1980  141.6500 O   0  0  0  0  0  1  0  0  0  0  0  0
  190.6650  176.4630  147.2020 C   0  0  0  0  0  2  0  0  0  0  0  0
  195.7180  175.5210  139.7570 C   0  0  0  0  0  2  0  0  0  0  0  0
  197.3530  173.0690  140.1620 C   0  0  0  0  0  2  0  0  0  0  0  0
  189.9340  174.4000  143.8920 O   0  0  0  0  0  0  0  0  0  0  0  0
  189.0950  174.4840  142.7780 C   0  0  0  0  0  1  0  0  0  0  0  0
  193.5040  175.4270  146.5440 C   0  0  0  0  0  2  0  0  0  0  0  0
  193.6280  176.7740  146.8810 O   0  0  0  0  0  1  0  0  0  0  0  0
  192.4760  171.2090  144.2320 O   0  0  0  0  0  1  0  0  0  0  0  0
  191.8670  172.4410  144.4640 C   0  0  0  0  0  2  0  0  0  0  0  0
  1 16  1  6  0  0  0
  1 21  1  0  0  0  0
  2 10  1  0  0  0  0
  2 14  1  0  0  0  0
  3 24  1  6  0  0  0
  3 18  1  0  0  0  0
  4  3  1  0  0  0  0
  4 34  1  6  0  0  0
  5  7  1  6  0  0  0
  5  1  1  0  0  0  0
  9 23  1  0  0  0  0
 10  9  1  0  0  0  0
 11 28  1  0  0  0  0
 11 10  1  0  0  0  0
 11  8  1  0  0  0  0
 12 29  1  0  0  0  0
 12  3  1  0  0  0  0
 12  1  1  0  0  0  0
 13 23  1  0  0  0  0
 14  9  1  0  0  0  0
 14 15  1  0  0  0  0
 15  4  1  0  0  0  0
 16  5  1  0  0  0  0
 17 28  1  0  0  0  0
 18 21  1  0  0  0  0
 18 31  1  0  0  0  0
 19 17  2  0  0  0  0
 19 27  1  0  0  0  0
 20  6  1  0  0  0  0
 21 26  2  0  0  0  0
 22 20  1  0  0  0  0
 23 22  1  0  0  0  0
 23 20  1  0  0  0  0
 24 22  1  0  0  0  0
 25 15  1  0  0  0  0
 27 10  1  0  0  0  0
 30 29  1  0  0  0  0
 31 32  1  0  0  0  0
 33 34  1  0  0  0  0
M  END
>  <MODEL>
9

>  <REMARK>
 VINA RESULT:      -6.0      3.441      7.850
  Name = 
  3 active torsions:
  status: ('A' for Active; 'I' for Inactive)
    1  A    between atoms: O_2  and  C_15
    2  A    between atoms: C_5  and  C_31
    3  A    between atoms: C_7  and  C_21
                            x       y       z     vdW  Elec       q    Type
                         _______ _______ _______ _____ _____    ______ ____

>  <TORSDO>
F 3

$$$$
