=
 OpenBabel11052418343D

 27 30  0  0  1  0  0  0  0  0999 V2000
  189.2030  176.6710  145.6570 C   0  0  2  0  0  3  0  0  0  0  0  0
  189.8790  177.4160  146.6420 O   0  0  0  0  0  0  0  0  0  0  0  0
  191.4480  176.2460  145.6120 C   0  0  1  0  0  3  0  0  0  0  0  0
  191.1540  173.9750  143.8220 C   0  0  0  0  0  0  0  0  0  0  0  0
  191.1500  173.0710  142.7680 O   0  0  0  0  0  1  0  0  0  0  0  0
  190.2220  176.0060  144.9080 N   0  0  0  0  0  0  0  0  0  0  0  0
  191.0680  176.8330  146.8330 O   0  0  0  0  0  0  0  0  0  0  0  0
  192.1930  174.0220  144.6590 C   0  0  0  0  0  3  0  0  0  0  0  0
  188.9450  174.7440  143.4020 O   0  0  0  0  0  0  0  0  0  0  0  0
  190.0350  174.9050  144.0140 C   0  0  0  0  0  0  0  0  0  0  0  0
  192.1980  174.9250  145.8690 C   0  0  1  0  0  3  0  0  0  0  0  0
  193.6360  175.1860  146.2920 C   0  0  0  0  0  2  0  0  0  0  0  0
  197.1460  174.2050  145.3360 C   0  0  0  0  0  2  0  0  0  0  0  0
  197.1680  174.7050  143.9180 C   0  0  0  0  0  3  0  0  0  0  0  0
  196.2320  175.5670  143.5110 C   0  0  0  0  0  3  0  0  0  0  0  0
  194.6170  174.7680  145.2070 C   0  0  1  0  0  3  0  0  0  0  0  0
  195.1690  175.9990  144.4760 C   0  0  0  0  0  2  0  0  0  0  0  0
  195.7160  173.8690  145.8110 C   0  0  1  0  0  3  0  0  0  0  0  0
  196.5600  171.5210  145.8720 C   0  0  0  0  0  1  0  0  0  0  0  0
  195.3830  172.4130  145.5240 C   0  0  0  0  0  2  0  0  0  0  0  0
  188.3700  177.5950  144.7650 C   0  0  0  0  0  2  0  0  0  0  0  0
  184.3430  178.0770  146.1790 C   0  0  0  0  0  3  0  0  0  0  0  0
  186.9620  177.7560  145.2460 C   0  0  0  0  0  0  0  0  0  0  0  0
  186.3860  176.7810  146.0680 C   0  0  0  0  0  3  0  0  0  0  0  0
  185.0760  176.9410  146.5330 C   0  0  0  0  0  3  0  0  0  0  0  0
  184.9190  179.0530  145.3590 C   0  0  0  0  0  3  0  0  0  0  0  0
  186.2270  178.8930  144.8940 C   0  0  0  0  0  3  0  0  0  0  0  0
  1 21  1  6  0  0  0
  1  2  1  0  0  0  0
  2  7  1  0  0  0  0
  3 11  1  0  0  0  0
  3  7  1  1  0  0  0
  4 10  1  0  0  0  0
  4  8  2  0  0  0  0
  5  4  1  0  0  0  0
  6  3  1  0  0  0  0
  6  1  1  0  0  0  0
  8 11  1  0  0  0  0
  9 10  2  0  0  0  0
 10  6  1  0  0  0  0
 11 12  1  6  0  0  0
 13 18  1  0  0  0  0
 14 13  1  0  0  0  0
 15 14  2  0  0  0  0
 15 17  1  0  0  0  0
 16 18  1  0  0  0  0
 16 12  1  1  0  0  0
 17 16  1  0  0  0  0
 18 20  1  6  0  0  0
 20 19  1  0  0  0  0
 21 23  1  0  0  0  0
 22 25  1  0  0  0  0
 23 24  1  0  0  0  0
 24 25  2  0  0  0  0
 26 22  2  0  0  0  0
 27 23  2  0  0  0  0
 27 26  1  0  0  0  0
M  END
>  <MODEL>
1

>  <REMARK>
 VINA RESULT:      -7.5      0.000      0.000
  Name = 
  5 active torsions:
  status: ('A' for Active; 'I' for Inactive)
    1  A    between atoms: C_1  and  C_15
    2  A    between atoms: C_9  and  C_15
    3  A    between atoms: C_12  and  C_14
    4  A    between atoms: C_12  and  C_26
    5  A    between atoms: C_17  and  C_21
                            x       y       z     vdW  Elec       q    Type
                         _______ _______ _______ _____ _____    ______ ____

>  <TORSDO>
F 5

$$$$
=
 OpenBabel11052418343D

 27 30  0  0  1  0  0  0  0  0999 V2000
  188.6610  177.0810  144.1860 C   0  0  2  0  0  3  0  0  0  0  0  0
  189.6540  177.8210  144.8540 O   0  0  0  0  0  0  0  0  0  0  0  0
  190.7140  176.7410  143.2410 C   0  0  1  0  0  3  0  0  0  0  0  0
  189.7870  174.5150  141.6190 C   0  0  0  0  0  0  0  0  0  0  0  0
  189.3870  173.6420  140.6150 O   0  0  0  0  0  1  0  0  0  0  0  0
  189.3150  176.4760  143.0680 N   0  0  0  0  0  0  0  0  0  0  0  0
  190.8360  177.2770  144.5360 O   0  0  0  0  0  0  0  0  0  0  0  0
  191.0710  174.5760  141.9800 C   0  0  0  0  0  3  0  0  0  0  0  0
  187.5760  175.2140  142.1360 O   0  0  0  0  0  0  0  0  0  0  0  0
  188.8150  175.3970  142.2750 C   0  0  0  0  0  0  0  0  0  0  0  0
  191.5340  175.4410  143.1270 C   0  0  1  0  0  3  0  0  0  0  0  0
  193.0160  175.7430  142.9590 C   0  0  0  0  0  2  0  0  0  0  0  0
  194.9950  175.5270  146.1570 C   0  0  0  0  0  2  0  0  0  0  0  0
  195.9920  174.4720  145.7650 C   0  0  0  0  0  3  0  0  0  0  0  0
  196.1560  174.1730  144.4730 C   0  0  0  0  0  3  0  0  0  0  0  0
  193.8620  174.9070  143.9070 C   0  0  1  0  0  3  0  0  0  0  0  0
  195.3250  174.8840  143.4480 C   0  0  0  0  0  2  0  0  0  0  0  0
  193.6810  175.4130  145.3550 C   0  0  1  0  0  3  0  0  0  0  0  0
  191.9920  175.2800  147.1870 C   0  0  0  0  0  1  0  0  0  0  0  0
  192.6870  174.5160  146.0760 C   0  0  0  0  0  2  0  0  0  0  0  0
  187.5230  178.0010  143.7330 C   0  0  0  0  0  2  0  0  0  0  0  0
  184.2190  178.0220  146.4770 C   0  0  0  0  0  3  0  0  0  0  0  0
  186.3640  178.0010  144.6800 C   0  0  0  0  0  0  0  0  0  0  0  0
  186.1730  176.9270  145.5560 C   0  0  0  0  0  3  0  0  0  0  0  0
  185.1000  176.9360  146.4530 C   0  0  0  0  0  3  0  0  0  0  0  0
  184.4100  179.0960  145.6030 C   0  0  0  0  0  3  0  0  0  0  0  0
  185.4810  179.0860  144.7060 C   0  0  0  0  0  3  0  0  0  0  0  0
  1 21  1  6  0  0  0
  1  2  1  0  0  0  0
  3  7  1  1  0  0  0
  4  8  2  0  0  0  0
  4 10  1  0  0  0  0
  5  4  1  0  0  0  0
  6  3  1  0  0  0  0
  6  1  1  0  0  0  0
  7  2  1  0  0  0  0
  8 11  1  0  0  0  0
  9 10  2  0  0  0  0
 10  6  1  0  0  0  0
 11 12  1  6  0  0  0
 11  3  1  0  0  0  0
 14 13  1  0  0  0  0
 15 14  2  0  0  0  0
 16 12  1  6  0  0  0
 16 18  1  0  0  0  0
 17 16  1  0  0  0  0
 17 15  1  0  0  0  0
 18 20  1  1  0  0  0
 18 13  1  0  0  0  0
 20 19  1  0  0  0  0
 21 23  1  0  0  0  0
 23 27  2  0  0  0  0
 23 24  1  0  0  0  0
 24 25  2  0  0  0  0
 25 22  1  0  0  0  0
 26 22  2  0  0  0  0
 27 26  1  0  0  0  0
M  END
>  <MODEL>
2

>  <REMARK>
 VINA RESULT:      -7.5      1.592      2.385
  Name = 
  5 active torsions:
  status: ('A' for Active; 'I' for Inactive)
    1  A    between atoms: C_1  and  C_15
    2  A    between atoms: C_9  and  C_15
    3  A    between atoms: C_12  and  C_14
    4  A    between atoms: C_12  and  C_26
    5  A    between atoms: C_17  and  C_21
                            x       y       z     vdW  Elec       q    Type
                         _______ _______ _______ _____ _____    ______ ____

>  <TORSDO>
F 5

$$$$
=
 OpenBabel11052418343D

 27 30  0  0  1  0  0  0  0  0999 V2000
  188.6300  177.0210  144.0910 C   0  0  2  0  0  3  0  0  0  0  0  0
  189.7530  177.7540  144.5150 O   0  0  0  0  0  0  0  0  0  0  0  0
  190.5040  176.3820  142.9520 C   0  0  1  0  0  3  0  0  0  0  0  0
  189.2130  174.0490  141.7960 C   0  0  0  0  0  0  0  0  0  0  0  0
  188.6200  173.0880  140.9870 O   0  0  0  0  0  1  0  0  0  0  0  0
  189.0800  176.2190  142.9980 N   0  0  0  0  0  0  0  0  0  0  0  0
  190.8400  177.0720  144.1310 O   0  0  0  0  0  0  0  0  0  0  0  0
  190.5360  174.0450  141.9780 C   0  0  0  0  0  3  0  0  0  0  0  0
  187.1470  174.9990  142.4850 O   0  0  0  0  0  0  0  0  0  0  0  0
  188.4030  175.0900  142.4370 C   0  0  0  0  0  0  0  0  0  0  0  0
  191.2100  175.0120  142.9210 C   0  0  1  0  0  3  0  0  0  0  0  0
  192.6720  175.1590  142.5250 C   0  0  0  0  0  2  0  0  0  0  0  0
  193.0560  174.9920  146.2680 C   0  0  0  0  0  2  0  0  0  0  0  0
  194.4380  175.5690  146.4050 C   0  0  0  0  0  3  0  0  0  0  0  0
  194.9740  176.2400  145.3800 C   0  0  0  0  0  3  0  0  0  0  0  0
  193.5900  175.0210  143.7300 C   0  0  1  0  0  3  0  0  0  0  0  0
  194.1880  176.3810  144.1110 C   0  0  0  0  0  2  0  0  0  0  0  0
  192.8340  174.3370  144.8890 C   0  0  1  0  0  3  0  0  0  0  0  0
  194.5580  172.6410  144.2710 C   0  0  0  0  0  1  0  0  0  0  0  0
  193.2080  172.8630  144.9270 C   0  0  0  0  0  2  0  0  0  0  0  0
  187.5050  177.9670  143.6600 C   0  0  0  0  0  2  0  0  0  0  0  0
  184.2390  178.0380  146.4490 C   0  0  0  0  0  3  0  0  0  0  0  0
  186.3590  177.9840  144.6220 C   0  0  0  0  0  0  0  0  0  0  0  0
  186.1730  176.9210  145.5130 C   0  0  0  0  0  3  0  0  0  0  0  0
  185.1130  176.9480  146.4250 C   0  0  0  0  0  3  0  0  0  0  0  0
  184.4250  179.1030  145.5600 C   0  0  0  0  0  3  0  0  0  0  0  0
  185.4830  179.0760  144.6490 C   0  0  0  0  0  3  0  0  0  0  0  0
  1 21  1  6  0  0  0
  1  2  1  0  0  0  0
  3  6  1  0  0  0  0
  3  7  1  1  0  0  0
  4  8  2  0  0  0  0
  4 10  1  0  0  0  0
  5  4  1  0  0  0  0
  6  1  1  0  0  0  0
  7  2  1  0  0  0  0
  8 11  1  0  0  0  0
 10  9  2  0  0  0  0
 10  6  1  0  0  0  0
 11 12  1  6  0  0  0
 11  3  1  0  0  0  0
 13 14  1  0  0  0  0
 15 14  2  0  0  0  0
 16 12  1  6  0  0  0
 16 17  1  0  0  0  0
 16 18  1  0  0  0  0
 17 15  1  0  0  0  0
 18 20  1  1  0  0  0
 18 13  1  0  0  0  0
 19 20  1  0  0  0  0
 21 23  1  0  0  0  0
 23 27  2  0  0  0  0
 23 24  1  0  0  0  0
 24 25  2  0  0  0  0
 25 22  1  0  0  0  0
 26 22  2  0  0  0  0
 27 26  1  0  0  0  0
M  END
>  <MODEL>
3

>  <REMARK>
 VINA RESULT:      -7.5      1.816      2.426
  Name = 
  5 active torsions:
  status: ('A' for Active; 'I' for Inactive)
    1  A    between atoms: C_1  and  C_15
    2  A    between atoms: C_9  and  C_15
    3  A    between atoms: C_12  and  C_14
    4  A    between atoms: C_12  and  C_26
    5  A    between atoms: C_17  and  C_21
                            x       y       z     vdW  Elec       q    Type
                         _______ _______ _______ _____ _____    ______ ____

>  <TORSDO>
F 5

$$$$
=
 OpenBabel11052418343D

 27 30  0  0  1  0  0  0  0  0999 V2000
  188.9950  177.2710  144.0890 C   0  0  2  0  0  3  0  0  0  0  0  0
  189.8920  178.2990  144.4350 O   0  0  0  0  0  0  0  0  0  0  0  0
  190.9940  177.0160  143.0110 C   0  0  1  0  0  3  0  0  0  0  0  0
  190.3490  174.3340  142.0930 C   0  0  0  0  0  0  0  0  0  0  0  0
  190.0320  173.1830  141.3840 O   0  0  0  0  0  1  0  0  0  0  0  0
  189.6550  176.5060  143.0780 N   0  0  0  0  0  0  0  0  0  0  0  0
  191.1210  177.8770  144.1160 O   0  0  0  0  0  0  0  0  0  0  0  0
  191.6270  174.6790  142.2710 C   0  0  0  0  0  3  0  0  0  0  0  0
  188.0980  174.7990  142.6930 O   0  0  0  0  0  0  0  0  0  0  0  0
  189.2920  175.1970  142.6320 C   0  0  0  0  0  0  0  0  0  0  0  0
  192.0190  175.8690  143.1130 C   0  0  1  0  0  3  0  0  0  0  0  0
  193.4060  176.3390  142.6990 C   0  0  0  0  0  2  0  0  0  0  0  0
  195.5220  173.8680  144.5980 C   0  0  0  0  0  2  0  0  0  0  0  0
  195.6070  174.5750  145.9220 C   0  0  0  0  0  3  0  0  0  0  0  0
  194.7500  175.5650  146.1930 C   0  0  0  0  0  3  0  0  0  0  0  0
  194.4290  176.0780  143.7940 C   0  0  1  0  0  3  0  0  0  0  0  0
  193.7390  175.9580  145.1590 C   0  0  0  0  0  2  0  0  0  0  0  0
  195.2870  174.8480  143.4300 C   0  0  1  0  0  3  0  0  0  0  0  0
  196.8540  176.7750  143.1890 C   0  0  0  0  0  1  0  0  0  0  0  0
  196.6110  175.3170  142.8460 C   0  0  0  0  0  2  0  0  0  0  0  0
  187.6800  177.8600  143.5710 C   0  0  0  0  0  2  0  0  0  0  0  0
  184.5890  177.9770  146.5520 C   0  0  0  0  0  3  0  0  0  0  0  0
  186.6120  177.9080  144.6190 C   0  0  0  0  0  0  0  0  0  0  0  0
  185.7830  179.0300  144.7270 C   0  0  0  0  0  3  0  0  0  0  0  0
  184.7730  179.0650  145.6940 C   0  0  0  0  0  3  0  0  0  0  0  0
  185.4160  176.8540  146.4440 C   0  0  0  0  0  3  0  0  0  0  0  0
  186.4250  176.8190  145.4780 C   0  0  0  0  0  3  0  0  0  0  0  0
  1 21  1  6  0  0  0
  1  2  1  0  0  0  0
  3  6  1  0  0  0  0
  3 11  1  0  0  0  0
  3  7  1  1  0  0  0
  4  8  2  0  0  0  0
  4 10  1  0  0  0  0
  5  4  1  0  0  0  0
  6  1  1  0  0  0  0
  7  2  1  0  0  0  0
  8 11  1  0  0  0  0
 10  9  2  0  0  0  0
 10  6  1  0  0  0  0
 11 12  1  6  0  0  0
 13 14  1  0  0  0  0
 14 15  2  0  0  0  0
 16 12  1  6  0  0  0
 16 17  1  0  0  0  0
 17 15  1  0  0  0  0
 18 20  1  1  0  0  0
 18 16  1  0  0  0  0
 18 13  1  0  0  0  0
 20 19  1  0  0  0  0
 21 23  1  0  0  0  0
 23 24  2  0  0  0  0
 23 27  1  0  0  0  0
 24 25  1  0  0  0  0
 25 22  2  0  0  0  0
 26 22  1  0  0  0  0
 27 26  2  0  0  0  0
M  END
>  <MODEL>
4

>  <REMARK>
 VINA RESULT:      -7.4      1.608      2.574
  Name = 
  5 active torsions:
  status: ('A' for Active; 'I' for Inactive)
    1  A    between atoms: C_1  and  C_15
    2  A    between atoms: C_9  and  C_15
    3  A    between atoms: C_12  and  C_14
    4  A    between atoms: C_12  and  C_26
    5  A    between atoms: C_17  and  C_21
                            x       y       z     vdW  Elec       q    Type
                         _______ _______ _______ _____ _____    ______ ____

>  <TORSDO>
F 5

$$$$
=
 OpenBabel11052418343D

 27 30  0  0  1  0  0  0  0  0999 V2000
  188.4510  176.4030  145.1920 C   0  0  2  0  0  3  0  0  0  0  0  0
  188.6000  175.3610  144.2590 O   0  0  0  0  0  0  0  0  0  0  0  0
  190.1920  175.0360  145.7580 C   0  0  1  0  0  3  0  0  0  0  0  0
  191.1850  176.8590  147.7920 C   0  0  0  0  0  0  0  0  0  0  0  0
  191.5670  177.5160  148.9550 O   0  0  0  0  0  1  0  0  0  0  0  0
  189.3960  176.1320  146.2290 N   0  0  0  0  0  0  0  0  0  0  0  0
  189.8360  174.8680  144.4070 O   0  0  0  0  0  0  0  0  0  0  0  0
  192.0340  176.0250  147.1860 C   0  0  0  0  0  3  0  0  0  0  0  0
  189.1000  177.9870  147.6280 O   0  0  0  0  0  0  0  0  0  0  0  0
  189.8420  177.0490  147.2320 C   0  0  0  0  0  0  0  0  0  0  0  0
  191.6940  175.3620  145.8730 C   0  0  1  0  0  3  0  0  0  0  0  0
  192.5400  174.1080  145.7130 C   0  0  0  0  0  2  0  0  0  0  0  0
  195.7900  175.7530  144.7530 C   0  0  0  0  0  2  0  0  0  0  0  0
  195.6050  175.8230  143.2620 C   0  0  0  0  0  3  0  0  0  0  0  0
  194.3840  175.6570  142.7440 C   0  0  0  0  0  3  0  0  0  0  0  0
  193.6370  174.3080  144.6790 C   0  0  1  0  0  3  0  0  0  0  0  0
  193.2320  175.3840  143.6640 C   0  0  0  0  0  2  0  0  0  0  0  0
  194.9770  174.6040  145.3860 C   0  0  1  0  0  3  0  0  0  0  0  0
  197.1460  173.5950  146.0970 C   0  0  0  0  0  1  0  0  0  0  0  0
  195.8040  173.3280  145.4430 C   0  0  0  0  0  2  0  0  0  0  0  0
  187.0200  176.4320  145.7380 C   0  0  0  0  0  2  0  0  0  0  0  0
  184.7240  179.7480  144.2630 C   0  0  0  0  0  3  0  0  0  0  0  0
  186.2280  177.5960  145.2320 C   0  0  0  0  0  0  0  0  0  0  0  0
  186.6840  178.3310  144.1320 C   0  0  0  0  0  3  0  0  0  0  0  0
  185.9330  179.4070  143.6480 C   0  0  0  0  0  3  0  0  0  0  0  0
  184.2670  179.0130  145.3610 C   0  0  0  0  0  3  0  0  0  0  0  0
  185.0170  177.9380  145.8450 C   0  0  0  0  0  3  0  0  0  0  0  0
  1 21  1  1  0  0  0
  1  6  1  0  0  0  0
  2  7  1  0  0  0  0
  2  1  1  0  0  0  0
  3  7  1  6  0  0  0
  3 11  1  0  0  0  0
  3  6  1  0  0  0  0
  4  5  1  0  0  0  0
  6 10  1  0  0  0  0
  8  4  2  0  0  0  0
 10  9  2  0  0  0  0
 10  4  1  0  0  0  0
 11 12  1  1  0  0  0
 11  8  1  0  0  0  0
 13 18  1  0  0  0  0
 14 13  1  0  0  0  0
 15 14  2  0  0  0  0
 15 17  1  0  0  0  0
 16 18  1  0  0  0  0
 16 12  1  1  0  0  0
 17 16  1  0  0  0  0
 18 20  1  6  0  0  0
 20 19  1  0  0  0  0
 22 26  1  0  0  0  0
 23 21  1  0  0  0  0
 23 27  1  0  0  0  0
 24 23  2  0  0  0  0
 25 24  1  0  0  0  0
 25 22  2  0  0  0  0
 26 27  2  0  0  0  0
M  END
>  <MODEL>
5

>  <REMARK>
 VINA RESULT:      -7.4      1.374      2.923
  Name = 
  5 active torsions:
  status: ('A' for Active; 'I' for Inactive)
    1  A    between atoms: C_1  and  C_15
    2  A    between atoms: C_9  and  C_15
    3  A    between atoms: C_12  and  C_14
    4  A    between atoms: C_12  and  C_26
    5  A    between atoms: C_17  and  C_21
                            x       y       z     vdW  Elec       q    Type
                         _______ _______ _______ _____ _____    ______ ____

>  <TORSDO>
F 5

$$$$
=
 OpenBabel11052418343D

 27 30  0  0  1  0  0  0  0  0999 V2000
  188.1840  176.1700  146.3410 C   0  0  2  0  0  3  0  0  0  0  0  0
  188.4360  175.2400  147.3660 O   0  0  0  0  0  0  0  0  0  0  0  0
  190.4270  175.9330  146.7010 C   0  0  1  0  0  3  0  0  0  0  0  0
  191.1410  177.4020  144.2970 C   0  0  0  0  0  0  0  0  0  0  0  0
  191.5790  178.3120  143.3430 O   0  0  0  0  0  1  0  0  0  0  0  0
  189.4580  176.7130  145.9880 N   0  0  0  0  0  0  0  0  0  0  0  0
  189.7110  174.8510  147.2430 O   0  0  0  0  0  0  0  0  0  0  0  0
  191.9800  176.4820  144.7780 C   0  0  0  0  0  3  0  0  0  0  0  0
  188.8840  178.1430  144.2240 O   0  0  0  0  0  0  0  0  0  0  0  0
  189.7660  177.4560  144.8060 C   0  0  0  0  0  0  0  0  0  0  0  0
  191.5210  175.4180  145.7450 C   0  0  1  0  0  3  0  0  0  0  0  0
  192.7230  174.8960  146.5200 C   0  0  0  0  0  2  0  0  0  0  0  0
  195.3470  172.3360  145.6540 C   0  0  0  0  0  2  0  0  0  0  0  0
  196.3390  173.2220  144.9510 C   0  0  0  0  0  3  0  0  0  0  0  0
  196.2550  174.5470  145.0970 C   0  0  0  0  0  3  0  0  0  0  0  0
  193.8310  174.4400  145.5830 C   0  0  1  0  0  3  0  0  0  0  0  0
  195.1580  175.1190  145.9440 C   0  0  0  0  0  2  0  0  0  0  0  0
  193.9120  172.8980  145.5790 C   0  0  1  0  0  3  0  0  0  0  0  0
  193.2790  173.3560  143.2090 C   0  0  0  0  0  1  0  0  0  0  0  0
  193.1880  172.3640  144.3520 C   0  0  0  0  0  2  0  0  0  0  0  0
  187.2300  177.2630  146.8330 C   0  0  0  0  0  2  0  0  0  0  0  0
  184.4870  178.5520  143.7890 C   0  0  0  0  0  3  0  0  0  0  0  0
  186.2630  177.7080  145.7800 C   0  0  0  0  0  0  0  0  0  0  0  0
  185.6990  178.9870  145.8410 C   0  0  0  0  0  3  0  0  0  0  0  0
  184.8100  179.4080  144.8460 C   0  0  0  0  0  3  0  0  0  0  0  0
  185.0520  177.2740  143.7270 C   0  0  0  0  0  3  0  0  0  0  0  0
  185.9390  176.8530  144.7200 C   0  0  0  0  0  3  0  0  0  0  0  0
  1 21  1  1  0  0  0
  1  2  1  0  0  0  0
  3  7  1  6  0  0  0
  4  8  2  0  0  0  0
  4 10  1  0  0  0  0
  5  4  1  0  0  0  0
  6  1  1  0  0  0  0
  6  3  1  0  0  0  0
  7  2  1  0  0  0  0
  8 11  1  0  0  0  0
  9 10  2  0  0  0  0
 10  6  1  0  0  0  0
 11 12  1  1  0  0  0
 11  3  1  0  0  0  0
 14 15  2  0  0  0  0
 14 13  1  0  0  0  0
 15 17  1  0  0  0  0
 16 17  1  0  0  0  0
 16 12  1  1  0  0  0
 18 20  1  6  0  0  0
 18 16  1  0  0  0  0
 18 13  1  0  0  0  0
 19 20  1  0  0  0  0
 22 25  1  0  0  0  0
 23 24  1  0  0  0  0
 23 21  1  0  0  0  0
 25 24  2  0  0  0  0
 26 22  2  0  0  0  0
 26 27  1  0  0  0  0
 27 23  2  0  0  0  0
M  END
>  <MODEL>
6

>  <REMARK>
 VINA RESULT:      -7.4      1.883      2.535
  Name = 
  5 active torsions:
  status: ('A' for Active; 'I' for Inactive)
    1  A    between atoms: C_1  and  C_15
    2  A    between atoms: C_9  and  C_15
    3  A    between atoms: C_12  and  C_14
    4  A    between atoms: C_12  and  C_26
    5  A    between atoms: C_17  and  C_21
                            x       y       z     vdW  Elec       q    Type
                         _______ _______ _______ _____ _____    ______ ____

>  <TORSDO>
F 5

$$$$
=
 OpenBabel11052418343D

 27 30  0  0  1  0  0  0  0  0999 V2000
  193.5050  175.7670  144.9430 C   0  0  2  0  0  3  0  0  0  0  0  0
  193.4660  177.1730  144.9630 O   0  0  0  0  0  0  0  0  0  0  0  0
  191.3670  176.5250  145.2180 C   0  0  1  0  0  3  0  0  0  0  0  0
  190.1980  173.9030  144.7660 C   0  0  0  0  0  0  0  0  0  0  0  0
  189.5700  172.6660  144.8430 O   0  0  0  0  0  1  0  0  0  0  0  0
  192.1710  175.3380  145.2290 N   0  0  0  0  0  0  0  0  0  0  0  0
  192.2020  177.5390  144.7130 O   0  0  0  0  0  0  0  0  0  0  0  0
  189.4860  174.9970  144.4850 C   0  0  0  0  0  3  0  0  0  0  0  0
  192.3820  173.0120  145.0540 O   0  0  0  0  0  0  0  0  0  0  0  0
  191.6380  174.0280  145.0170 C   0  0  0  0  0  0  0  0  0  0  0  0
  190.1410  176.3450  144.3010 C   0  0  1  0  0  3  0  0  0  0  0  0
  189.1100  177.4380  144.5460 C   0  0  0  0  0  2  0  0  0  0  0  0
  185.4140  177.8280  145.1570 C   0  0  0  0  0  2  0  0  0  0  0  0
  185.2830  177.0270  146.4220 C   0  0  0  0  0  3  0  0  0  0  0  0
  186.3790  176.7240  147.1240 C   0  0  0  0  0  3  0  0  0  0  0  0
  187.8230  176.8670  145.1200 C   0  0  1  0  0  3  0  0  0  0  0  0
  187.7160  177.1750  146.6180 C   0  0  0  0  0  2  0  0  0  0  0  0
  186.6140  177.3720  144.3020 C   0  0  1  0  0  3  0  0  0  0  0  0
  186.6590  176.6440  141.9150 C   0  0  0  0  0  1  0  0  0  0  0  0
  186.1940  176.2930  143.3160 C   0  0  0  0  0  2  0  0  0  0  0  0
  194.4930  175.2440  145.9900 C   0  0  0  0  0  2  0  0  0  0  0  0
  197.9410  173.4020  144.2110 C   0  0  0  0  0  3  0  0  0  0  0  0
  195.7020  174.6070  145.3810 C   0  0  0  0  0  0  0  0  0  0  0  0
  196.1010  173.3280  145.7840 C   0  0  0  0  0  3  0  0  0  0  0  0
  197.2210  172.7260  145.2000 C   0  0  0  0  0  3  0  0  0  0  0  0
  197.5430  174.6800  143.8060 C   0  0  0  0  0  3  0  0  0  0  0  0
  196.4250  175.2810  144.3890 C   0  0  0  0  0  3  0  0  0  0  0  0
  1  2  1  0  0  0  0
  1  6  1  0  0  0  0
  1 21  1  1  0  0  0
  3  7  1  6  0  0  0
  3  6  1  0  0  0  0
  4  5  1  0  0  0  0
  4 10  1  0  0  0  0
  7  2  1  0  0  0  0
  8  4  2  0  0  0  0
 10  9  2  0  0  0  0
 10  6  1  0  0  0  0
 11  8  1  0  0  0  0
 11 12  1  1  0  0  0
 11  3  1  0  0  0  0
 13 14  1  0  0  0  0
 14 15  2  0  0  0  0
 16 12  1  6  0  0  0
 16 17  1  0  0  0  0
 17 15  1  0  0  0  0
 18 20  1  6  0  0  0
 18 16  1  0  0  0  0
 18 13  1  0  0  0  0
 19 20  1  0  0  0  0
 22 25  1  0  0  0  0
 23 24  1  0  0  0  0
 23 21  1  0  0  0  0
 25 24  2  0  0  0  0
 26 22  2  0  0  0  0
 26 27  1  0  0  0  0
 27 23  2  0  0  0  0
M  END
>  <MODEL>
7

>  <REMARK>
 VINA RESULT:      -7.4      1.663      8.399
  Name = 
  5 active torsions:
  status: ('A' for Active; 'I' for Inactive)
    1  A    between atoms: C_1  and  C_15
    2  A    between atoms: C_9  and  C_15
    3  A    between atoms: C_12  and  C_14
    4  A    between atoms: C_12  and  C_26
    5  A    between atoms: C_17  and  C_21
                            x       y       z     vdW  Elec       q    Type
                         _______ _______ _______ _____ _____    ______ ____

>  <TORSDO>
F 5

$$$$
=
 OpenBabel11052418343D

 27 30  0  0  1  0  0  0  0  0999 V2000
  191.6640  176.1940  146.0740 C   0  0  2  0  0  3  0  0  0  0  0  0
  191.0210  176.8100  147.1640 O   0  0  0  0  0  0  0  0  0  0  0  0
  189.4030  175.8760  145.9810 C   0  0  1  0  0  3  0  0  0  0  0  0
  189.4890  174.8410  143.2660 C   0  0  0  0  0  0  0  0  0  0  0  0
  189.4550  174.0860  142.1010 O   0  0  0  0  0  1  0  0  0  0  0  0
  190.6400  175.4860  145.3710 N   0  0  0  0  0  0  0  0  0  0  0  0
  189.7290  176.9420  146.8400 O   0  0  0  0  0  0  0  0  0  0  0  0
  188.3800  175.4410  143.7060 C   0  0  0  0  0  3  0  0  0  0  0  0
  191.8370  174.6190  143.5530 O   0  0  0  0  0  0  0  0  0  0  0  0
  190.7290  174.9660  144.0410 C   0  0  0  0  0  0  0  0  0  0  0  0
  188.3930  176.3450  144.9150 C   0  0  1  0  0  3  0  0  0  0  0  0
  186.9870  176.4270  145.4920 C   0  0  0  0  0  2  0  0  0  0  0  0
  184.0170  178.6660  144.8980 C   0  0  0  0  0  2  0  0  0  0  0  0
  184.7170  179.8600  144.3100 C   0  0  0  0  0  3  0  0  0  0  0  0
  185.9700  179.7330  143.8640 C   0  0  0  0  0  3  0  0  0  0  0  0
  186.4260  177.8360  145.3860 C   0  0  1  0  0  3  0  0  0  0  0  0
  186.6540  178.4030  143.9790 C   0  0  0  0  0  2  0  0  0  0  0  0
  184.9440  177.8450  145.8190 C   0  0  1  0  0  3  0  0  0  0  0  0
  186.0810  179.1330  147.6290 C   0  0  0  0  0  1  0  0  0  0  0  0
  184.8460  178.3340  147.2550 C   0  0  0  0  0  2  0  0  0  0  0  0
  192.7600  175.2440  146.5660 C   0  0  0  0  0  2  0  0  0  0  0  0
  196.3710  175.5670  144.2630 C   0  0  0  0  0  3  0  0  0  0  0  0
  194.0250  175.3580  145.7750 C   0  0  0  0  0  0  0  0  0  0  0  0
  194.7880  174.2170  145.5020 C   0  0  0  0  0  3  0  0  0  0  0  0
  195.9610  174.3220  144.7480 C   0  0  0  0  0  3  0  0  0  0  0  0
  195.6080  176.7080  144.5340 C   0  0  0  0  0  3  0  0  0  0  0  0
  194.4370  176.6040  145.2880 C   0  0  0  0  0  3  0  0  0  0  0  0
  1 21  1  1  0  0  0
  1  2  1  0  0  0  0
  3  7  1  1  0  0  0
  4  8  2  0  0  0  0
  4 10  1  0  0  0  0
  5  4  1  0  0  0  0
  6  3  1  0  0  0  0
  6  1  1  0  0  0  0
  7  2  1  0  0  0  0
  8 11  1  0  0  0  0
  9 10  2  0  0  0  0
 10  6  1  0  0  0  0
 11 12  1  1  0  0  0
 11  3  1  0  0  0  0
 13 18  1  0  0  0  0
 14 13  1  0  0  0  0
 15 17  1  0  0  0  0
 15 14  2  0  0  0  0
 16 12  1  6  0  0  0
 16 18  1  0  0  0  0
 17 16  1  0  0  0  0
 18 20  1  1  0  0  0
 20 19  1  0  0  0  0
 22 26  2  0  0  0  0
 22 25  1  0  0  0  0
 23 21  1  0  0  0  0
 24 23  1  0  0  0  0
 25 24  2  0  0  0  0
 26 27  1  0  0  0  0
 27 23  2  0  0  0  0
M  END
>  <MODEL>
8

>  <REMARK>
 VINA RESULT:      -7.4      1.226      8.290
  Name = 
  5 active torsions:
  status: ('A' for Active; 'I' for Inactive)
    1  A    between atoms: C_1  and  C_15
    2  A    between atoms: C_9  and  C_15
    3  A    between atoms: C_12  and  C_14
    4  A    between atoms: C_12  and  C_26
    5  A    between atoms: C_17  and  C_21
                            x       y       z     vdW  Elec       q    Type
                         _______ _______ _______ _____ _____    ______ ____

>  <TORSDO>
F 5

$$$$
=
 OpenBabel11052418343D

 27 30  0  0  1  0  0  0  0  0999 V2000
  191.9470  174.2600  144.8930 C   0  0  2  0  0  3  0  0  0  0  0  0
  190.9170  173.3220  145.0890 O   0  0  0  0  0  0  0  0  0  0  0  0
  189.9160  175.1420  144.3310 C   0  0  1  0  0  3  0  0  0  0  0  0
  190.9570  177.8480  144.1250 C   0  0  0  0  0  0  0  0  0  0  0  0
  191.4010  179.1030  143.7320 O   0  0  0  0  0  1  0  0  0  0  0  0
  191.3260  175.3970  144.2890 N   0  0  0  0  0  0  0  0  0  0  0  0
  189.7660  174.0030  145.1430 O   0  0  0  0  0  0  0  0  0  0  0  0
  189.6710  177.6600  144.4320 C   0  0  0  0  0  3  0  0  0  0  0  0
  193.1280  176.8840  144.1300 O   0  0  0  0  0  0  0  0  0  0  0  0
  191.8820  176.7100  144.1820 C   0  0  0  0  0  0  0  0  0  0  0  0
  189.1630  176.3360  144.9510 C   0  0  1  0  0  3  0  0  0  0  0  0
  187.6680  176.2360  144.6870 C   0  0  0  0  0  2  0  0  0  0  0  0
  184.4550  177.7520  145.9410 C   0  0  0  0  0  2  0  0  0  0  0  0
  184.6670  179.1780  145.5150 C   0  0  0  0  0  3  0  0  0  0  0  0
  185.6140  179.4600  144.6150 C   0  0  0  0  0  3  0  0  0  0  0  0
  186.9290  177.4540  145.2210 C   0  0  1  0  0  3  0  0  0  0  0  0
  186.4550  178.3460  144.0670 C   0  0  0  0  0  2  0  0  0  0  0  0
  185.7880  177.0060  146.1600 C   0  0  1  0  0  3  0  0  0  0  0  0
  187.2360  178.2820  147.7420 C   0  0  0  0  0  1  0  0  0  0  0  0
  186.2480  177.1390  147.6030 C   0  0  0  0  0  2  0  0  0  0  0  0
  193.0370  173.6770  143.9890 C   0  0  0  0  0  2  0  0  0  0  0  0
  196.6620  172.7250  146.0870 C   0  0  0  0  0  3  0  0  0  0  0  0
  194.2930  173.3450  144.7320 C   0  0  0  0  0  0  0  0  0  0  0  0
  194.6250  172.0100  144.9890 C   0  0  0  0  0  3  0  0  0  0  0  0
  195.8090  171.7000  145.6680 C   0  0  0  0  0  3  0  0  0  0  0  0
  196.3320  174.0590  145.8290 C   0  0  0  0  0  3  0  0  0  0  0  0
  195.1500  174.3690  145.1520 C   0  0  0  0  0  3  0  0  0  0  0  0
  1 21  1  6  0  0  0
  1  2  1  0  0  0  0
  2  7  1  0  0  0  0
  3 11  1  0  0  0  0
  3  7  1  1  0  0  0
  4 10  1  0  0  0  0
  4  8  2  0  0  0  0
  5  4  1  0  0  0  0
  6  3  1  0  0  0  0
  6  1  1  0  0  0  0
  8 11  1  0  0  0  0
  9 10  2  0  0  0  0
 10  6  1  0  0  0  0
 11 12  1  6  0  0  0
 13 18  1  0  0  0  0
 14 13  1  0  0  0  0
 15 14  2  0  0  0  0
 16 12  1  6  0  0  0
 16 18  1  0  0  0  0
 17 15  1  0  0  0  0
 17 16  1  0  0  0  0
 18 20  1  1  0  0  0
 20 19  1  0  0  0  0
 21 23  1  0  0  0  0
 23 24  2  0  0  0  0
 23 27  1  0  0  0  0
 24 25  1  0  0  0  0
 25 22  2  0  0  0  0
 26 22  1  0  0  0  0
 27 26  2  0  0  0  0
M  END
>  <MODEL>
9

>  <REMARK>
 VINA RESULT:      -7.3      1.590      8.550
  Name = 
  5 active torsions:
  status: ('A' for Active; 'I' for Inactive)
    1  A    between atoms: C_1  and  C_15
    2  A    between atoms: C_9  and  C_15
    3  A    between atoms: C_12  and  C_14
    4  A    between atoms: C_12  and  C_26
    5  A    between atoms: C_17  and  C_21
                            x       y       z     vdW  Elec       q    Type
                         _______ _______ _______ _____ _____    ______ ____

>  <TORSDO>
F 5

$$$$
