=
 OpenBabel11052419403D

 55 60  0  0  1  0  0  0  0  0999 V2000
  193.4810  172.4210  143.1050 C   0  0  2  0  0  3  0  0  0  0  0  0
  189.5670  174.9510  143.7530 C   0  0  0  0  0  2  0  0  0  0  0  0
  188.3370  172.6570  142.1870 O   0  0  0  0  0  0  0  0  0  0  0  0
  189.4610  171.4180  138.6960 C   0  0  0  0  0  2  0  0  0  0  0  0
  194.4640  168.8130  142.4050 C   0  0  0  0  0  3  0  0  0  0  0  0
  189.2080  170.3400  137.6220 C   0  0  0  0  0  2  0  0  0  0  0  0
  191.3560  169.8500  139.3760 C   0  0  2  0  0  3  0  0  0  0  0  0
  191.4880  169.4510  137.9400 C   0  0  0  0  0  3  0  0  0  0  0  0
  190.2550  173.1540  140.9550 N   0  0  0  0  0  2  0  0  0  0  0  0
  190.4730  169.7040  137.1040 C   0  0  0  0  0  3  0  0  0  0  0  0
  194.9050  173.9220  144.5410 C   0  0  0  0  0  3  0  0  0  0  0  0
  190.8080  171.2920  139.4340 C   0  0  2  0  0  3  0  0  0  0  0  0
  192.6940  174.6970  146.0670 C   0  0  0  0  0  0  0  0  0  0  0  0
  192.1190  172.2070  142.8120 O   0  0  0  0  0  0  0  0  0  0  0  0
  192.5440  173.7590  145.0410 C   0  0  0  0  0  3  0  0  0  0  0  0
  196.0300  169.6920  144.0410 C   0  0  0  0  0  0  0  0  0  0  0  0
  192.5360  170.2010  141.5430 C   0  0  2  0  0  3  0  0  0  0  0  0
  194.2120  171.0910  143.2120 C   0  0  0  0  0  0  0  0  0  0  0  0
  189.5650  176.3170  144.2450 N   0  0  0  0  0  2  0  0  0  0  0  0
  192.6980  169.7220  140.1000 C   0  0  0  0  0  2  0  0  0  0  0  0
  189.0760  174.9150  142.3200 C   0  0  0  0  0  2  0  0  0  0  0  0
  195.3420  170.9160  144.0190 C   0  0  0  0  0  3  0  0  0  0  0  0
  189.1740  173.5200  141.8120 C   0  0  0  0  0  0  0  0  0  0  0  0
  195.0600  174.8520  145.5740 C   0  0  0  0  0  3  0  0  0  0  0  0
  189.5510  176.2470  145.7030 C   0  0  1  0  0  3  0  0  0  0  0  0
  193.6500  173.3560  144.2770 C   0  0  0  0  0  0  0  0  0  0  0  0
  190.7110  171.7730  140.8850 C   0  0  1  0  0  3  0  0  0  0  0  0
  195.5780  168.6430  143.2290 C   0  0  0  0  0  3  0  0  0  0  0  0
  192.0940  171.6700  141.5170 C   0  0  1  0  0  3  0  0  0  0  0  0
  190.9750  176.4570  146.2140 C   0  0  0  0  0  2  0  0  0  0  0  0
  193.7910  170.0400  142.3690 C   0  0  0  0  0  0  0  0  0  0  0  0
  191.5000  175.1680  146.8220 C   0  0  0  0  0  2  0  0  0  0  0  0
  193.9530  175.2420  146.3340 C   0  0  0  0  0  3  0  0  0  0  0  0
  197.2180  169.4980  144.8990 C   0  0  0  0  0  0  0  0  0  0  0  0
  197.8350  168.3240  144.9690 C   0  0  0  0  0  2  0  0  0  0  0  0
  197.7090  170.5760  145.6870 N   0  0  0  0  0  1  0  0  0  0  0  0
  189.3880  178.0830  147.2000 C   0  0  0  0  0  1  0  0  0  0  0  0
  188.6450  177.2650  146.2490 N   0  0  0  0  0  0  0  0  0  0  0  0
  187.6260  176.5890  147.0400 C   0  0  0  0  0  2  0  0  0  0  0  0
  186.2950  177.3260  146.9320 C   0  0  1  0  0  3  0  0  0  0  0  0
  186.1350  178.2220  147.9880 O   0  0  0  0  0  1  0  0  0  0  0  0
  186.1240  178.0320  145.5830 C   0  0  2  0  0  3  0  0  0  0  0  0
  185.3950  179.2040  145.7920 O   0  0  0  0  0  1  0  0  0  0  0  0
  185.9700  175.7590  144.3840 C   0  0  0  0  0  1  0  0  0  0  0  0
  185.4640  177.2030  144.4500 C   0  0  2  0  0  3  0  0  0  0  0  0
  186.3690  179.1310  143.1810 C   0  0  0  0  0  1  0  0  0  0  0  0
  185.5080  177.8790  143.0470 C   0  0  2  0  0  0  0  0  0  0  0  0
  183.7390  178.0340  141.2060 N   0  0  0  0  0  2  0  0  0  0  0  0
  182.4170  178.3690  140.7060 C   0  0  0  0  0  1  0  0  0  0  0  0
  184.1270  178.2940  142.5590 C   0  0  0  0  0  0  0  0  0  0  0  0
  183.2940  178.8020  143.3590 O   0  0  0  0  0  0  0  0  0  0  0  0
  186.2580  176.9880  142.0310 C   0  0  0  0  0  2  0  0  0  0  0  0
  187.1000  177.7060  141.0170 C   0  0  0  0  0  0  0  0  0  0  0  0
  188.2580  178.0990  141.3130 O   0  0  0  0  0  1  0  0  0  0  0  0
  186.6080  177.9110  139.7350 O   0  0  0  0  0  0  0  0  0  0  0  0
  1 14  1  1  0  0  0
  1 18  1  0  0  0  0
  1 26  1  0  0  0  0
  2 19  1  0  0  0  0
  5 28  1  0  0  0  0
  6  4  1  0  0  0  0
  7  8  1  6  0  0  0
  7 12  1  0  0  0  0
  7 20  1  0  0  0  0
  9 23  1  0  0  0  0
 10  6  1  0  0  0  0
 10  8  2  0  0  0  0
 11 24  1  0  0  0  0
 12  4  1  1  0  0  0
 12 27  1  0  0  0  0
 13 33  1  0  0  0  0
 13 32  1  0  0  0  0
 15 13  2  0  0  0  0
 16 34  1  0  0  0  0
 17 20  1  6  0  0  0
 17 31  1  0  0  0  0
 18 22  2  0  0  0  0
 19 25  1  0  0  0  0
 21  2  1  0  0  0  0
 22 16  1  0  0  0  0
 23  3  2  0  0  0  0
 23 21  1  0  0  0  0
 24 33  2  0  0  0  0
 25 30  1  0  0  0  0
 25 38  1  1  0  0  0
 26 11  2  0  0  0  0
 26 15  1  0  0  0  0
 27  9  1  6  0  0  0
 27 29  1  0  0  0  0
 28 16  2  0  0  0  0
 29 17  1  0  0  0  0
 29 14  1  1  0  0  0
 30 32  1  0  0  0  0
 31  5  2  0  0  0  0
 31 18  1  0  0  0  0
 34 35  2  0  0  0  0
 34 36  1  0  0  0  0
 38 39  1  0  0  0  0
 38 37  1  0  0  0  0
 40 39  1  0  0  0  0
 40 41  1  1  0  0  0
 42 43  1  1  0  0  0
 42 40  1  0  0  0  0
 45 44  1  6  0  0  0
 45 42  1  0  0  0  0
 47 46  1  1  0  0  0
 47 45  1  0  0  0  0
 48 50  1  0  0  0  0
 49 48  1  0  0  0  0
 50 47  1  0  0  0  0
 50 51  2  0  0  0  0
 52 47  1  0  0  0  0
 53 54  1  0  0  0  0
 53 52  1  0  0  0  0
 55 53  2  0  0  0  0
M  END
>  <MODEL>
1

>  <REMARK>
 VINA RESULT:      -8.0      0.000      0.000
  Name = 
  10 active torsions:
  status: ('A' for Active; 'I' for Inactive)
    1  A    between atoms: C_1  and  C_53
    2  A    between atoms: C_6  and  C_14
    3  A    between atoms: C_6  and  C_20
    4  A    between atoms: N_8  and  C_22
    5  A    between atoms: N_8  and  C_43
    6  A    between atoms: C_10  and  C_32
    7  A    between atoms: C_14  and  C_38
    8  A    between atoms: C_20  and  C_22
    9  A    between atoms: C_29  and  C_38
   10  A    between atoms: C_38  and  C_53
                            x       y       z     vdW  Elec       q    Type
                         _______ _______ _______ _____ _____    ______ ____

>  <TORSDO>
F 10

$$$$
=
 OpenBabel11052419403D

 55 60  0  0  1  0  0  0  0  0999 V2000
  187.9840  176.3140  142.1410 C   0  0  2  0  0  3  0  0  0  0  0  0
  190.9980  172.7460  141.5590 C   0  0  0  0  0  2  0  0  0  0  0  0
  190.9450  172.7680  144.5960 O   0  0  0  0  0  0  0  0  0  0  0  0
  191.7250  175.8030  146.8690 C   0  0  0  0  0  2  0  0  0  0  0  0
  185.5640  177.6030  144.7780 C   0  0  0  0  0  3  0  0  0  0  0  0
  191.7620  176.2770  148.3370 C   0  0  0  0  0  2  0  0  0  0  0  0
  189.4390  176.9370  146.8870 C   0  0  2  0  0  3  0  0  0  0  0  0
  189.9790  177.9200  147.8780 C   0  0  0  0  0  3  0  0  0  0  0  0
  191.1790  175.0280  144.0670 N   0  0  0  0  0  2  0  0  0  0  0  0
  191.0940  177.6120  148.5500 C   0  0  0  0  0  3  0  0  0  0  0  0
  187.5010  176.5430  139.6790 C   0  0  0  0  0  3  0  0  0  0  0  0
  190.6070  176.4320  146.0140 C   0  0  2  0  0  3  0  0  0  0  0  0
  188.0680  173.8420  139.2320 C   0  0  0  0  0  0  0  0  0  0  0  0
  188.6140  175.4110  143.0230 O   0  0  0  0  0  0  0  0  0  0  0  0
  188.1240  174.3650  140.5280 C   0  0  0  0  0  3  0  0  0  0  0  0
  184.4820  177.8400  142.6150 C   0  0  0  0  0  0  0  0  0  0  0  0
  187.8530  176.5570  145.0010 C   0  0  2  0  0  3  0  0  0  0  0  0
  186.7120  176.8610  142.7680 C   0  0  0  0  0  0  0  0  0  0  0  0
  191.6160  172.4150  140.2870 N   0  0  0  0  0  2  0  0  0  0  0  0
  188.3300  177.5700  146.0430 C   0  0  0  0  0  2  0  0  0  0  0  0
  192.0510  173.2230  142.5390 C   0  0  0  0  0  2  0  0  0  0  0  0
  185.6140  177.2770  142.0040 C   0  0  0  0  0  3  0  0  0  0  0  0
  191.3820  173.6410  143.8000 C   0  0  0  0  0  0  0  0  0  0  0  0
  187.4330  176.0200  138.3840 C   0  0  0  0  0  3  0  0  0  0  0  0
  190.6980  171.5250  139.5850 C   0  0  1  0  0  3  0  0  0  0  0  0
  187.8300  175.7170  140.7640 C   0  0  0  0  0  0  0  0  0  0  0  0
  190.0980  175.4660  144.9390 C   0  0  1  0  0  3  0  0  0  0  0  0
  184.4670  177.9960  144.0070 C   0  0  0  0  0  3  0  0  0  0  0  0
  189.0450  176.1870  144.1080 C   0  0  1  0  0  3  0  0  0  0  0  0
  189.9080  172.3440  138.5660 C   0  0  0  0  0  2  0  0  0  0  0  0
  186.7000  177.0610  144.1650 C   0  0  0  0  0  0  0  0  0  0  0  0
  188.4510  172.4240  138.9880 C   0  0  0  0  0  2  0  0  0  0  0  0
  187.7210  174.6700  138.1610 C   0  0  0  0  0  3  0  0  0  0  0  0
  183.3160  178.2710  141.8140 C   0  0  0  0  0  0  0  0  0  0  0  0
  183.3410  178.2380  140.4870 C   0  0  0  0  0  2  0  0  0  0  0  0
  182.1460  178.7520  142.4650 N   0  0  0  0  0  1  0  0  0  0  0  0
  191.4920  169.2990  139.8150 C   0  0  0  0  0  1  0  0  0  0  0  0
  191.4470  170.4500  138.9210 N   0  0  0  0  0  0  0  0  0  0  0  0
  192.8320  170.8800  138.7820 C   0  0  0  0  0  2  0  0  0  0  0  0
  193.1790  171.0820  137.3110 C   0  0  1  0  0  3  0  0  0  0  0  0
  192.3380  170.3270  136.4930 O   0  0  0  0  0  1  0  0  0  0  0  0
  193.1610  172.5580  136.9020 C   0  0  2  0  0  3  0  0  0  0  0  0
  192.3240  172.6940  135.7940 O   0  0  0  0  0  1  0  0  0  0  0  0
  195.7180  172.2620  136.8470 C   0  0  0  0  0  1  0  0  0  0  0  0
  194.5380  173.2050  136.5980 C   0  0  2  0  0  3  0  0  0  0  0  0
  193.7680  174.6840  138.4330 C   0  0  0  0  0  1  0  0  0  0  0  0
  194.7660  174.5850  137.2840 C   0  0  2  0  0  0  0  0  0  0  0  0
  193.2200  176.3300  136.2310 N   0  0  0  0  0  2  0  0  0  0  0  0
  192.9510  177.4740  135.3760 C   0  0  0  0  0  1  0  0  0  0  0  0
  194.5260  175.7520  136.3360 C   0  0  0  0  0  0  0  0  0  0  0  0
  195.4850  176.2610  135.6950 O   0  0  0  0  0  0  0  0  0  0  0  0
  196.1550  174.6400  137.9580 C   0  0  0  0  0  2  0  0  0  0  0  0
  196.1620  174.6690  139.4590 C   0  0  0  0  0  0  0  0  0  0  0  0
  196.1360  173.5980  140.1180 O   0  0  0  0  0  0  0  0  0  0  0  0
  196.2270  175.8870  140.1230 O   0  0  0  0  0  1  0  0  0  0  0  0
  1 26  1  6  0  0  0
  1 18  1  0  0  0  0
  1 14  1  0  0  0  0
  2 21  1  0  0  0  0
  4  6  1  0  0  0  0
  6 10  1  0  0  0  0
  7 20  1  6  0  0  0
  7  8  1  0  0  0  0
  8 10  2  0  0  0  0
 11 26  1  0  0  0  0
 12  4  1  1  0  0  0
 12  7  1  0  0  0  0
 13 15  1  0  0  0  0
 15 26  2  0  0  0  0
 16 28  1  0  0  0  0
 17 20  1  1  0  0  0
 18 31  2  0  0  0  0
 19  2  1  0  0  0  0
 21 23  1  0  0  0  0
 22 16  2  0  0  0  0
 22 18  1  0  0  0  0
 23  9  1  0  0  0  0
 23  3  2  0  0  0  0
 24 11  2  0  0  0  0
 25 38  1  6  0  0  0
 25 19  1  0  0  0  0
 27  9  1  6  0  0  0
 27 12  1  0  0  0  0
 28  5  2  0  0  0  0
 29 14  1  6  0  0  0
 29 27  1  0  0  0  0
 29 17  1  0  0  0  0
 30 32  1  0  0  0  0
 30 25  1  0  0  0  0
 31  5  1  0  0  0  0
 31 17  1  0  0  0  0
 32 13  1  0  0  0  0
 33 24  1  0  0  0  0
 33 13  2  0  0  0  0
 34 36  1  0  0  0  0
 34 16  1  0  0  0  0
 35 34  2  0  0  0  0
 38 37  1  0  0  0  0
 39 38  1  0  0  0  0
 40 41  1  6  0  0  0
 40 39  1  0  0  0  0
 42 43  1  6  0  0  0
 42 40  1  0  0  0  0
 45 44  1  1  0  0  0
 45 42  1  0  0  0  0
 45 47  1  0  0  0  0
 47 52  1  0  0  0  0
 47 46  1  1  0  0  0
 48 50  1  0  0  0  0
 49 48  1  0  0  0  0
 50 47  1  0  0  0  0
 51 50  2  0  0  0  0
 52 53  1  0  0  0  0
 53 54  2  0  0  0  0
 53 55  1  0  0  0  0
M  END
>  <MODEL>
2

>  <REMARK>
 VINA RESULT:      -7.9      3.546     10.811
  Name = 
  10 active torsions:
  status: ('A' for Active; 'I' for Inactive)
    1  A    between atoms: C_1  and  C_53
    2  A    between atoms: C_6  and  C_14
    3  A    between atoms: C_6  and  C_20
    4  A    between atoms: N_8  and  C_22
    5  A    between atoms: N_8  and  C_43
    6  A    between atoms: C_10  and  C_32
    7  A    between atoms: C_14  and  C_38
    8  A    between atoms: C_20  and  C_22
    9  A    between atoms: C_29  and  C_38
   10  A    between atoms: C_38  and  C_53
                            x       y       z     vdW  Elec       q    Type
                         _______ _______ _______ _____ _____    ______ ____

>  <TORSDO>
F 10

$$$$
=
 OpenBabel11052419403D

 55 60  0  0  1  0  0  0  0  0999 V2000
  187.6480  176.8980  142.1690 C   0  0  2  0  0  3  0  0  0  0  0  0
  190.9080  173.6250  141.2680 C   0  0  0  0  0  2  0  0  0  0  0  0
  190.9440  173.4400  144.3000 O   0  0  0  0  0  0  0  0  0  0  0  0
  191.5550  176.3680  146.7570 C   0  0  0  0  0  2  0  0  0  0  0  0
  185.2150  177.8140  144.9470 C   0  0  0  0  0  3  0  0  0  0  0  0
  191.5990  176.7440  148.2530 C   0  0  0  0  0  2  0  0  0  0  0  0
  189.1900  177.3150  146.9100 C   0  0  2  0  0  3  0  0  0  0  0  0
  189.6820  178.2690  147.9530 C   0  0  0  0  0  3  0  0  0  0  0  0
  190.9870  175.7420  143.9230 N   0  0  0  0  0  2  0  0  0  0  0  0
  190.8370  178.0050  148.5750 C   0  0  0  0  0  3  0  0  0  0  0  0
  187.0750  177.2530  139.7420 C   0  0  0  0  0  3  0  0  0  0  0  0
  190.3670  176.9630  145.9760 C   0  0  2  0  0  3  0  0  0  0  0  0
  187.8350  174.6410  139.0950 C   0  0  0  0  0  0  0  0  0  0  0  0
  188.3710  175.9910  142.9710 O   0  0  0  0  0  0  0  0  0  0  0  0
  187.8890  175.0790  140.4220 C   0  0  0  0  0  3  0  0  0  0  0  0
  184.0540  178.1100  142.8330 C   0  0  0  0  0  0  0  0  0  0  0  0
  187.5840  176.9390  145.0410 C   0  0  2  0  0  3  0  0  0  0  0  0
  186.3560  177.3010  142.8630 C   0  0  0  0  0  0  0  0  0  0  0  0
  191.5110  173.4300  139.9630 N   0  0  0  0  0  2  0  0  0  0  0  0
  188.0120  177.9140  146.1390 C   0  0  0  0  0  2  0  0  0  0  0  0
  191.9500  174.1170  142.2530 C   0  0  0  0  0  2  0  0  0  0  0  0
  185.2080  177.6790  142.1560 C   0  0  0  0  0  3  0  0  0  0  0  0
  191.2880  174.3960  143.5560 C   0  0  0  0  0  0  0  0  0  0  0  0
  187.0100  176.8140  138.4160 C   0  0  0  0  0  3  0  0  0  0  0  0
  190.6440  172.5190  139.2230 C   0  0  1  0  0  3  0  0  0  0  0  0
  187.4990  176.3850  140.7580 C   0  0  0  0  0  0  0  0  0  0  0  0
  189.9030  176.0340  144.8500 C   0  0  1  0  0  3  0  0  0  0  0  0
  184.0690  178.1700  144.2320 C   0  0  0  0  0  3  0  0  0  0  0  0
  188.7730  176.7240  144.0960 C   0  0  1  0  0  3  0  0  0  0  0  0
  189.7640  173.3400  138.2820 C   0  0  0  0  0  2  0  0  0  0  0  0
  186.3710  177.4050  144.2700 C   0  0  0  0  0  0  0  0  0  0  0  0
  188.3180  173.2770  138.7440 C   0  0  0  0  0  2  0  0  0  0  0  0
  187.3930  175.5090  138.0920 C   0  0  0  0  0  3  0  0  0  0  0  0
  182.8360  178.5000  142.0920 C   0  0  0  0  0  0  0  0  0  0  0  0
  182.7430  178.3320  140.7780 C   0  0  0  0  0  2  0  0  0  0  0  0
  181.7410  179.0870  142.7850 N   0  0  0  0  0  1  0  0  0  0  0  0
  191.2550  170.2310  139.0500 C   0  0  0  0  0  1  0  0  0  0  0  0
  191.4530  171.5530  138.4690 N   0  0  0  0  0  0  0  0  0  0  0  0
  192.8590  171.8630  138.6950 C   0  0  0  0  0  2  0  0  0  0  0  0
  193.5490  172.1880  137.3740 C   0  0  1  0  0  3  0  0  0  0  0  0
  192.6460  172.1270  136.3120 O   0  0  0  0  0  1  0  0  0  0  0  0
  194.2680  173.5410  137.4050 C   0  0  2  0  0  3  0  0  0  0  0  0
  193.5280  174.4460  136.6440 O   0  0  0  0  0  1  0  0  0  0  0  0
  196.1940  172.2080  136.3360 C   0  0  0  0  0  1  0  0  0  0  0  0
  195.7450  173.5460  136.9300 C   0  0  2  0  0  3  0  0  0  0  0  0
  197.8200  172.9730  138.1620 C   0  0  0  0  0  1  0  0  0  0  0  0
  196.7610  174.0580  137.9950 C   0  0  2  0  0  0  0  0  0  0  0  0
  195.6840  175.6250  139.7060 N   0  0  0  0  0  2  0  0  0  0  0  0
  195.0150  175.9030  140.9660 C   0  0  0  0  0  1  0  0  0  0  0  0
  196.1090  174.3050  139.3480 C   0  0  0  0  0  0  0  0  0  0  0  0
  195.8730  173.3420  140.1280 O   0  0  0  0  0  0  0  0  0  0  0  0
  197.5330  175.2890  137.4700 C   0  0  0  0  0  2  0  0  0  0  0  0
  197.2020  175.7330  136.0740 C   0  0  0  0  0  0  0  0  0  0  0  0
  196.3130  176.6000  135.8750 O   0  0  0  0  0  1  0  0  0  0  0  0
  197.9040  175.2030  135.0000 O   0  0  0  0  0  0  0  0  0  0  0  0
  1 26  1  6  0  0  0
  1 18  1  0  0  0  0
  1 14  1  0  0  0  0
  2 21  1  0  0  0  0
  4  6  1  0  0  0  0
  6 10  1  0  0  0  0
  7 20  1  6  0  0  0
  7  8  1  0  0  0  0
  8 10  2  0  0  0  0
 11 26  1  0  0  0  0
 12  4  1  1  0  0  0
 12  7  1  0  0  0  0
 13 15  1  0  0  0  0
 15 26  2  0  0  0  0
 16 28  1  0  0  0  0
 17 20  1  1  0  0  0
 18 31  2  0  0  0  0
 19  2  1  0  0  0  0
 21 23  1  0  0  0  0
 22 16  2  0  0  0  0
 22 18  1  0  0  0  0
 23  9  1  0  0  0  0
 23  3  2  0  0  0  0
 24 11  2  0  0  0  0
 25 38  1  6  0  0  0
 25 19  1  0  0  0  0
 27  9  1  6  0  0  0
 27 12  1  0  0  0  0
 28  5  2  0  0  0  0
 29 14  1  6  0  0  0
 29 27  1  0  0  0  0
 29 17  1  0  0  0  0
 30 32  1  0  0  0  0
 30 25  1  0  0  0  0
 31  5  1  0  0  0  0
 31 17  1  0  0  0  0
 32 13  1  0  0  0  0
 33 24  1  0  0  0  0
 33 13  2  0  0  0  0
 34 36  1  0  0  0  0
 34 16  1  0  0  0  0
 35 34  2  0  0  0  0
 38 39  1  0  0  0  0
 38 37  1  0  0  0  0
 40 41  1  6  0  0  0
 40 42  1  0  0  0  0
 40 39  1  0  0  0  0
 42 43  1  6  0  0  0
 45 44  1  1  0  0  0
 45 42  1  0  0  0  0
 45 47  1  0  0  0  0
 47 46  1  1  0  0  0
 47 50  1  0  0  0  0
 48 49  1  0  0  0  0
 50 48  1  0  0  0  0
 50 51  2  0  0  0  0
 52 47  1  0  0  0  0
 53 52  1  0  0  0  0
 54 53  1  0  0  0  0
 55 53  2  0  0  0  0
M  END
>  <MODEL>
3

>  <REMARK>
 VINA RESULT:      -7.8      3.863     11.243
  Name = 
  10 active torsions:
  status: ('A' for Active; 'I' for Inactive)
    1  A    between atoms: C_1  and  C_53
    2  A    between atoms: C_6  and  C_14
    3  A    between atoms: C_6  and  C_20
    4  A    between atoms: N_8  and  C_22
    5  A    between atoms: N_8  and  C_43
    6  A    between atoms: C_10  and  C_32
    7  A    between atoms: C_14  and  C_38
    8  A    between atoms: C_20  and  C_22
    9  A    between atoms: C_29  and  C_38
   10  A    between atoms: C_38  and  C_53
                            x       y       z     vdW  Elec       q    Type
                         _______ _______ _______ _____ _____    ______ ____

>  <TORSDO>
F 10

$$$$
=
 OpenBabel11052419403D

 55 60  0  0  1  0  0  0  0  0999 V2000
  187.6720  176.8430  142.1300 C   0  0  2  0  0  3  0  0  0  0  0  0
  190.9060  173.5390  141.2470 C   0  0  0  0  0  2  0  0  0  0  0  0
  190.9290  173.3580  144.2790 O   0  0  0  0  0  0  0  0  0  0  0  0
  191.5590  176.2850  146.7330 C   0  0  0  0  0  2  0  0  0  0  0  0
  185.2380  177.7860  144.8970 C   0  0  0  0  0  3  0  0  0  0  0  0
  191.6010  176.6630  148.2280 C   0  0  0  0  0  2  0  0  0  0  0  0
  189.2020  177.2540  146.8760 C   0  0  2  0  0  3  0  0  0  0  0  0
  189.6990  178.2050  147.9180 C   0  0  0  0  0  3  0  0  0  0  0  0
  190.9950  175.6590  143.8980 N   0  0  0  0  0  2  0  0  0  0  0  0
  190.8490  177.9320  148.5450 C   0  0  0  0  0  3  0  0  0  0  0  0
  187.1120  177.1990  139.6990 C   0  0  0  0  0  3  0  0  0  0  0  0
  190.3790  176.8900  145.9460 C   0  0  2  0  0  3  0  0  0  0  0  0
  187.8500  174.5790  139.0600 C   0  0  0  0  0  0  0  0  0  0  0  0
  188.3850  175.9310  142.9350 O   0  0  0  0  0  0  0  0  0  0  0  0
  187.9030  175.0190  140.3870 C   0  0  0  0  0  3  0  0  0  0  0  0
  184.0880  178.0890  142.7780 C   0  0  0  0  0  0  0  0  0  0  0  0
  187.5990  176.8890  145.0020 C   0  0  2  0  0  3  0  0  0  0  0  0
  186.3820  177.2590  142.8180 C   0  0  0  0  0  0  0  0  0  0  0  0
  191.5120  173.3360  139.9440 N   0  0  0  0  0  2  0  0  0  0  0  0
  188.0320  177.8620  146.0990 C   0  0  0  0  0  2  0  0  0  0  0  0
  191.9490  174.0230  142.2340 C   0  0  0  0  0  2  0  0  0  0  0  0
  185.2400  177.6460  142.1070 C   0  0  0  0  0  3  0  0  0  0  0  0
  191.2850  174.3100  143.5340 C   0  0  0  0  0  0  0  0  0  0  0  0
  187.0470  176.7580  138.3740 C   0  0  0  0  0  3  0  0  0  0  0  0
  190.6390  172.4310  139.2020 C   0  0  1  0  0  3  0  0  0  0  0  0
  187.5250  176.3290  140.7190 C   0  0  0  0  0  0  0  0  0  0  0  0
  189.9100  175.9630  144.8200 C   0  0  1  0  0  3  0  0  0  0  0  0
  184.0980  178.1510  144.1770 C   0  0  0  0  0  3  0  0  0  0  0  0
  188.7890  176.6620  144.0610 C   0  0  1  0  0  3  0  0  0  0  0  0
  189.7700  173.2580  138.2570 C   0  0  0  0  0  2  0  0  0  0  0  0
  186.3930  177.3660  144.2260 C   0  0  0  0  0  0  0  0  0  0  0  0
  188.3220  173.2100  138.7140 C   0  0  0  0  0  2  0  0  0  0  0  0
  187.4200  175.4490  138.0540 C   0  0  0  0  0  3  0  0  0  0  0  0
  182.8760  178.4890  142.0320 C   0  0  0  0  0  0  0  0  0  0  0  0
  181.8250  179.0110  142.6540 C   0  0  0  0  0  2  0  0  0  0  0  0
  182.8130  178.2990  140.6240 N   0  0  0  0  0  1  0  0  0  0  0  0
  190.9100  170.1240  138.7100 C   0  0  0  0  0  1  0  0  0  0  0  0
  191.4420  171.4570  138.4530 N   0  0  0  0  0  0  0  0  0  0  0  0
  192.7860  171.4460  139.0160 C   0  0  0  0  0  2  0  0  0  0  0  0
  193.8110  171.8120  137.9480 C   0  0  1  0  0  3  0  0  0  0  0  0
  193.2360  171.7900  136.6770 O   0  0  0  0  0  1  0  0  0  0  0  0
  194.4860  173.1600  138.2200 C   0  0  2  0  0  3  0  0  0  0  0  0
  194.4340  173.9200  137.0510 O   0  0  0  0  0  1  0  0  0  0  0  0
  196.5650  171.7070  138.6640 C   0  0  0  0  0  1  0  0  0  0  0  0
  195.9470  173.1060  138.7420 C   0  0  2  0  0  3  0  0  0  0  0  0
  197.5500  174.3380  140.1780 C   0  0  0  0  0  1  0  0  0  0  0  0
  196.1500  173.7330  140.1530 C   0  0  2  0  0  0  0  0  0  0  0  0
  197.2170  172.3560  142.0270 N   0  0  0  0  0  2  0  0  0  0  0  0
  197.1670  171.4110  143.1290 C   0  0  0  0  0  1  0  0  0  0  0  0
  196.0530  172.6990  141.2670 C   0  0  0  0  0  0  0  0  0  0  0  0
  194.9390  172.1940  141.5740 O   0  0  0  0  0  0  0  0  0  0  0  0
  195.1960  174.9290  140.3660 C   0  0  0  0  0  2  0  0  0  0  0  0
  195.5120  175.8300  141.5250 C   0  0  0  0  0  0  0  0  0  0  0  0
  195.2420  175.4740  142.7010 O   0  0  0  0  0  1  0  0  0  0  0  0
  196.1320  177.0510  141.2980 O   0  0  0  0  0  0  0  0  0  0  0  0
  1 26  1  6  0  0  0
  1 18  1  0  0  0  0
  1 14  1  0  0  0  0
  2 21  1  0  0  0  0
  4  6  1  0  0  0  0
  6 10  1  0  0  0  0
  7 20  1  6  0  0  0
  7  8  1  0  0  0  0
  8 10  2  0  0  0  0
 11 26  1  0  0  0  0
 12  4  1  1  0  0  0
 12  7  1  0  0  0  0
 13 15  1  0  0  0  0
 15 26  2  0  0  0  0
 16 28  1  0  0  0  0
 17 20  1  1  0  0  0
 18 31  2  0  0  0  0
 19  2  1  0  0  0  0
 21 23  1  0  0  0  0
 22 16  2  0  0  0  0
 22 18  1  0  0  0  0
 23  9  1  0  0  0  0
 23  3  2  0  0  0  0
 24 11  2  0  0  0  0
 25 38  1  6  0  0  0
 25 19  1  0  0  0  0
 27  9  1  6  0  0  0
 27 12  1  0  0  0  0
 28  5  2  0  0  0  0
 29 14  1  6  0  0  0
 29 27  1  0  0  0  0
 29 17  1  0  0  0  0
 30 32  1  0  0  0  0
 30 25  1  0  0  0  0
 31  5  1  0  0  0  0
 31 17  1  0  0  0  0
 32 13  1  0  0  0  0
 33 24  1  0  0  0  0
 33 13  2  0  0  0  0
 34 35  2  0  0  0  0
 34 16  1  0  0  0  0
 36 34  1  0  0  0  0
 38 37  1  0  0  0  0
 38 39  1  0  0  0  0
 40 41  1  6  0  0  0
 40 42  1  0  0  0  0
 40 39  1  0  0  0  0
 42 43  1  6  0  0  0
 42 45  1  0  0  0  0
 45 44  1  1  0  0  0
 45 47  1  0  0  0  0
 47 46  1  1  0  0  0
 47 52  1  0  0  0  0
 47 50  1  0  0  0  0
 48 49  1  0  0  0  0
 50 51  2  0  0  0  0
 50 48  1  0  0  0  0
 52 53  1  0  0  0  0
 53 54  1  0  0  0  0
 55 53  2  0  0  0  0
M  END
>  <MODEL>
4

>  <REMARK>
 VINA RESULT:      -7.7      2.906     11.106
  Name = 
  10 active torsions:
  status: ('A' for Active; 'I' for Inactive)
    1  A    between atoms: C_1  and  C_53
    2  A    between atoms: C_6  and  C_14
    3  A    between atoms: C_6  and  C_20
    4  A    between atoms: N_8  and  C_22
    5  A    between atoms: N_8  and  C_43
    6  A    between atoms: C_10  and  C_32
    7  A    between atoms: C_14  and  C_38
    8  A    between atoms: C_20  and  C_22
    9  A    between atoms: C_29  and  C_38
   10  A    between atoms: C_38  and  C_53
                            x       y       z     vdW  Elec       q    Type
                         _______ _______ _______ _____ _____    ______ ____

>  <TORSDO>
F 10

$$$$
=
 OpenBabel11052419403D

 55 60  0  0  1  0  0  0  0  0999 V2000
  187.6400  176.8390  142.1660 C   0  0  2  0  0  3  0  0  0  0  0  0
  190.8870  173.5350  141.3350 C   0  0  0  0  0  2  0  0  0  0  0  0
  190.9040  173.3950  144.3690 O   0  0  0  0  0  0  0  0  0  0  0  0
  191.5170  176.3570  146.7860 C   0  0  0  0  0  2  0  0  0  0  0  0
  185.1960  177.8110  144.9140 C   0  0  0  0  0  3  0  0  0  0  0  0
  191.5540  176.7560  148.2760 C   0  0  0  0  0  2  0  0  0  0  0  0
  189.1570  177.3200  146.9090 C   0  0  2  0  0  3  0  0  0  0  0  0
  189.6480  178.2870  147.9400 C   0  0  0  0  0  3  0  0  0  0  0  0
  190.9630  175.6910  143.9580 N   0  0  0  0  0  2  0  0  0  0  0  0
  190.7980  178.0260  148.5730 C   0  0  0  0  0  3  0  0  0  0  0  0
  187.0850  177.1600  139.7300 C   0  0  0  0  0  3  0  0  0  0  0  0
  190.3370  176.9470  145.9880 C   0  0  2  0  0  3  0  0  0  0  0  0
  187.8340  174.5340  139.1280 C   0  0  0  0  0  0  0  0  0  0  0  0
  188.3540  175.9400  142.9860 O   0  0  0  0  0  0  0  0  0  0  0  0
  187.8820  174.9920  140.4490 C   0  0  0  0  0  3  0  0  0  0  0  0
  184.0500  178.0810  142.7890 C   0  0  0  0  0  0  0  0  0  0  0  0
  187.5590  176.9240  145.0370 C   0  0  2  0  0  3  0  0  0  0  0  0
  186.3470  177.2600  142.8460 C   0  0  0  0  0  0  0  0  0  0  0  0
  191.4980  173.3160  140.0360 N   0  0  0  0  0  2  0  0  0  0  0  0
  187.9870  177.9130  146.1220 C   0  0  0  0  0  2  0  0  0  0  0  0
  191.9260  174.0360  142.3190 C   0  0  0  0  0  2  0  0  0  0  0  0
  185.2050  177.6330  142.1260 C   0  0  0  0  0  3  0  0  0  0  0  0
  191.2580  174.3380  143.6130 C   0  0  0  0  0  0  0  0  0  0  0  0
  187.0250  176.7010  138.4100 C   0  0  0  0  0  3  0  0  0  0  0  0
  190.6300  172.3990  139.3050 C   0  0  1  0  0  3  0  0  0  0  0  0
  187.4980  176.3050  140.7620 C   0  0  0  0  0  0  0  0  0  0  0  0
  189.8740  176.0030  144.8730 C   0  0  1  0  0  3  0  0  0  0  0  0
  184.0560  178.1620  144.1870 C   0  0  0  0  0  3  0  0  0  0  0  0
  188.7530  176.6880  144.1020 C   0  0  1  0  0  3  0  0  0  0  0  0
  189.7600  173.2100  138.3470 C   0  0  0  0  0  2  0  0  0  0  0  0
  186.3540  177.3860  144.2510 C   0  0  0  0  0  0  0  0  0  0  0  0
  188.3110  173.1630  138.8010 C   0  0  0  0  0  2  0  0  0  0  0  0
  187.4030  175.3900  138.1090 C   0  0  0  0  0  3  0  0  0  0  0  0
  182.8380  178.4670  142.0350 C   0  0  0  0  0  0  0  0  0  0  0  0
  182.7560  178.2860  140.7220 C   0  0  0  0  0  2  0  0  0  0  0  0
  181.7390  179.0630  142.7130 N   0  0  0  0  0  1  0  0  0  0  0  0
  191.1650  170.0930  139.1170 C   0  0  0  0  0  1  0  0  0  0  0  0
  191.4380  171.4170  138.5710 N   0  0  0  0  0  0  0  0  0  0  0  0
  192.8410  171.6710  138.8680 C   0  0  0  0  0  2  0  0  0  0  0  0
  193.5550  170.3670  139.2100 C   0  0  1  0  0  3  0  0  0  0  0  0
  194.2230  169.8580  138.0960 O   0  0  0  0  0  1  0  0  0  0  0  0
  194.5090  170.5160  140.4000 C   0  0  2  0  0  3  0  0  0  0  0  0
  195.8140  170.5730  139.9100 O   0  0  0  0  0  1  0  0  0  0  0  0
  193.6530  168.1750  141.0470 C   0  0  0  0  0  1  0  0  0  0  0  0
  194.4120  169.4260  141.5010 C   0  0  2  0  0  3  0  0  0  0  0  0
  192.4540  170.4310  142.6430 C   0  0  0  0  0  1  0  0  0  0  0  0
  193.8800  169.9410  142.8710 C   0  0  2  0  0  0  0  0  0  0  0  0
  194.0910  172.0770  144.2630 N   0  0  0  0  0  2  0  0  0  0  0  0
  194.8460  173.1730  144.8460 C   0  0  0  0  0  1  0  0  0  0  0  0
  194.7050  171.0990  143.4160 C   0  0  0  0  0  0  0  0  0  0  0  0
  195.9430  171.1630  143.1860 O   0  0  0  0  0  0  0  0  0  0  0  0
  193.7440  168.7780  143.8800 C   0  0  0  0  0  2  0  0  0  0  0  0
  194.7980  168.7010  144.9470 C   0  0  0  0  0  0  0  0  0  0  0  0
  194.5470  169.0850  146.1190 O   0  0  0  0  0  1  0  0  0  0  0  0
  196.0460  168.1750  144.6440 O   0  0  0  0  0  0  0  0  0  0  0  0
  1 26  1  6  0  0  0
  1 18  1  0  0  0  0
  1 14  1  0  0  0  0
  2 21  1  0  0  0  0
  4  6  1  0  0  0  0
  6 10  1  0  0  0  0
  7 20  1  6  0  0  0
  7  8  1  0  0  0  0
  8 10  2  0  0  0  0
 11 26  1  0  0  0  0
 12  4  1  1  0  0  0
 12  7  1  0  0  0  0
 13 15  1  0  0  0  0
 15 26  2  0  0  0  0
 16 28  1  0  0  0  0
 17 20  1  1  0  0  0
 18 31  2  0  0  0  0
 19  2  1  0  0  0  0
 21 23  1  0  0  0  0
 22 16  2  0  0  0  0
 22 18  1  0  0  0  0
 23  9  1  0  0  0  0
 23  3  2  0  0  0  0
 24 11  2  0  0  0  0
 25 38  1  6  0  0  0
 25 19  1  0  0  0  0
 27  9  1  6  0  0  0
 27 12  1  0  0  0  0
 28  5  2  0  0  0  0
 29 14  1  6  0  0  0
 29 27  1  0  0  0  0
 29 17  1  0  0  0  0
 30 32  1  0  0  0  0
 30 25  1  0  0  0  0
 31  5  1  0  0  0  0
 31 17  1  0  0  0  0
 32 13  1  0  0  0  0
 33 24  1  0  0  0  0
 33 13  2  0  0  0  0
 34 36  1  0  0  0  0
 34 16  1  0  0  0  0
 35 34  2  0  0  0  0
 38 39  1  0  0  0  0
 38 37  1  0  0  0  0
 39 40  1  0  0  0  0
 40 41  1  6  0  0  0
 40 42  1  0  0  0  0
 42 43  1  6  0  0  0
 42 45  1  0  0  0  0
 45 44  1  6  0  0  0
 45 47  1  0  0  0  0
 47 46  1  6  0  0  0
 47 50  1  0  0  0  0
 47 52  1  0  0  0  0
 48 49  1  0  0  0  0
 50 48  1  0  0  0  0
 51 50  2  0  0  0  0
 52 53  1  0  0  0  0
 53 54  1  0  0  0  0
 55 53  2  0  0  0  0
M  END
>  <MODEL>
5

>  <REMARK>
 VINA RESULT:      -7.4      2.351     11.243
  Name = 
  10 active torsions:
  status: ('A' for Active; 'I' for Inactive)
    1  A    between atoms: C_1  and  C_53
    2  A    between atoms: C_6  and  C_14
    3  A    between atoms: C_6  and  C_20
    4  A    between atoms: N_8  and  C_22
    5  A    between atoms: N_8  and  C_43
    6  A    between atoms: C_10  and  C_32
    7  A    between atoms: C_14  and  C_38
    8  A    between atoms: C_20  and  C_22
    9  A    between atoms: C_29  and  C_38
   10  A    between atoms: C_38  and  C_53
                            x       y       z     vdW  Elec       q    Type
                         _______ _______ _______ _____ _____    ______ ____

>  <TORSDO>
F 10

$$$$
=
 OpenBabel11052419403D

 55 60  0  0  1  0  0  0  0  0999 V2000
  192.2600  173.4290  143.5480 C   0  0  2  0  0  3  0  0  0  0  0  0
  189.4850  173.2280  139.7520 C   0  0  0  0  0  2  0  0  0  0  0  0
  188.5330  175.9020  140.8350 O   0  0  0  0  0  0  0  0  0  0  0  0
  187.1530  176.5610  144.3910 C   0  0  0  0  0  2  0  0  0  0  0  0
  193.7180  176.0560  145.8810 C   0  0  0  0  0  3  0  0  0  0  0  0
  186.6500  177.6680  145.3420 C   0  0  0  0  0  2  0  0  0  0  0  0
  189.3430  176.9040  145.6560 C   0  0  2  0  0  3  0  0  0  0  0  0
  188.5410  177.2490  146.8720 C   0  0  0  0  0  3  0  0  0  0  0  0
  188.5660  174.5550  142.7410 N   0  0  0  0  0  2  0  0  0  0  0  0
  187.2560  177.5920  146.7200 C   0  0  0  0  0  3  0  0  0  0  0  0
  193.5360  171.3420  142.9470 C   0  0  0  0  0  3  0  0  0  0  0  0
  188.5110  175.9440  144.7790 C   0  0  2  0  0  3  0  0  0  0  0  0
  193.0540  171.7330  140.2210 C   0  0  0  0  0  0  0  0  0  0  0  0
  191.3430  174.3230  142.9580 O   0  0  0  0  0  0  0  0  0  0  0  0
  192.5920  172.6650  141.1560 C   0  0  0  0  0  3  0  0  0  0  0  0
  195.4600  174.4200  145.4440 C   0  0  0  0  0  0  0  0  0  0  0  0
  191.4470  175.8930  144.7830 C   0  0  2  0  0  3  0  0  0  0  0  0
  193.2720  174.1910  144.3890 C   0  0  0  0  0  0  0  0  0  0  0  0
  189.3100  172.0330  138.9470 N   0  0  0  0  0  2  0  0  0  0  0  0
  190.6890  176.2930  146.0500 C   0  0  0  0  0  2  0  0  0  0  0  0
  188.1840  173.5800  140.4470 C   0  0  0  0  0  2  0  0  0  0  0  0
  194.5740  173.7230  144.6060 C   0  0  0  0  0  3  0  0  0  0  0  0
  188.4140  174.7510  141.3350 C   0  0  0  0  0  0  0  0  0  0  0  0
  194.0090  170.4150  142.0130 C   0  0  0  0  0  3  0  0  0  0  0  0
  190.3770  172.0290  137.9510 C   0  0  1  0  0  3  0  0  0  0  0  0
  192.8390  172.4830  142.5250 C   0  0  0  0  0  0  0  0  0  0  0  0
  189.3120  175.5100  143.5470 C   0  0  1  0  0  3  0  0  0  0  0  0
  195.0200  175.5910  146.0750 C   0  0  0  0  0  3  0  0  0  0  0  0
  190.6050  174.8600  144.0220 C   0  0  1  0  0  3  0  0  0  0  0  0
  191.4860  171.0950  138.4290 C   0  0  0  0  0  2  0  0  0  0  0  0
  192.8290  175.3480  145.0630 C   0  0  0  0  0  0  0  0  0  0  0  0
  192.7240  171.9030  138.7790 C   0  0  0  0  0  2  0  0  0  0  0  0
  193.7650  170.6080  140.6510 C   0  0  0  0  0  3  0  0  0  0  0  0
  196.8390  173.9370  145.6690 C   0  0  0  0  0  0  0  0  0  0  0  0
  197.0950  172.9570  146.5280 C   0  0  0  0  0  2  0  0  0  0  0  0
  197.9250  174.5380  144.9730 N   0  0  0  0  0  1  0  0  0  0  0  0
  189.6650  170.1460  136.6910 C   0  0  0  0  0  1  0  0  0  0  0  0
  189.8520  171.5910  136.6510 N   0  0  0  0  0  0  0  0  0  0  0  0
  190.8820  171.8170  135.6460 C   0  0  0  0  0  2  0  0  0  0  0  0
  190.6240  173.1250  134.9060 C   0  0  1  0  0  3  0  0  0  0  0  0
  189.2630  173.4310  134.8980 O   0  0  0  0  0  1  0  0  0  0  0  0
  191.4440  174.2890  135.4690 C   0  0  2  0  0  3  0  0  0  0  0  0
  190.7900  175.4800  135.1490 O   0  0  0  0  0  1  0  0  0  0  0  0
  193.4790  173.0320  134.5160 C   0  0  0  0  0  1  0  0  0  0  0  0
  192.9260  174.3700  135.0150 C   0  0  2  0  0  3  0  0  0  0  0  0
  193.1200  175.1090  137.3740 C   0  0  0  0  0  1  0  0  0  0  0  0
  193.8830  175.0220  136.0560 C   0  0  2  0  0  0  0  0  0  0  0  0
  195.6410  176.6640  135.1860 N   0  0  0  0  0  2  0  0  0  0  0  0
  196.0820  177.9770  134.7470 C   0  0  0  0  0  1  0  0  0  0  0  0
  194.3100  176.4270  135.6540 C   0  0  0  0  0  0  0  0  0  0  0  0
  193.4750  177.3730  135.6620 O   0  0  0  0  0  0  0  0  0  0  0  0
  195.0840  174.0960  136.3530 C   0  0  0  0  0  2  0  0  0  0  0  0
  195.6430  174.1620  137.7460 C   0  0  0  0  0  0  0  0  0  0  0  0
  195.6760  175.2560  138.3680 O   0  0  0  0  0  1  0  0  0  0  0  0
  196.0980  173.0040  138.3600 O   0  0  0  0  0  0  0  0  0  0  0  0
  1 26  1  6  0  0  0
  1 18  1  0  0  0  0
  2 21  1  0  0  0  0
  3 23  2  0  0  0  0
  4  6  1  0  0  0  0
  5 28  1  0  0  0  0
  6 10  1  0  0  0  0
  7 20  1  1  0  0  0
  7  8  1  0  0  0  0
 10  8  2  0  0  0  0
 12  4  1  6  0  0  0
 12  7  1  0  0  0  0
 13 33  2  0  0  0  0
 13 15  1  0  0  0  0
 14  1  1  0  0  0  0
 15 26  2  0  0  0  0
 16 34  1  0  0  0  0
 16 28  2  0  0  0  0
 17 31  1  0  0  0  0
 17 20  1  1  0  0  0
 18 22  2  0  0  0  0
 18 31  1  0  0  0  0
 19  2  1  0  0  0  0
 21 23  1  0  0  0  0
 22 16  1  0  0  0  0
 23  9  1  0  0  0  0
 24 11  2  0  0  0  0
 25 38  1  6  0  0  0
 25 30  1  0  0  0  0
 25 19  1  0  0  0  0
 26 11  1  0  0  0  0
 27  9  1  1  0  0  0
 27 29  1  0  0  0  0
 27 12  1  0  0  0  0
 29 14  1  6  0  0  0
 29 17  1  0  0  0  0
 30 32  1  0  0  0  0
 31  5  2  0  0  0  0
 32 13  1  0  0  0  0
 33 24  1  0  0  0  0
 34 35  2  0  0  0  0
 36 34  1  0  0  0  0
 38 37  1  0  0  0  0
 39 38  1  0  0  0  0
 40 41  1  1  0  0  0
 40 42  1  0  0  0  0
 40 39  1  0  0  0  0
 42 43  1  6  0  0  0
 45 44  1  1  0  0  0
 45 42  1  0  0  0  0
 45 47  1  0  0  0  0
 47 52  1  0  0  0  0
 47 46  1  1  0  0  0
 48 50  1  0  0  0  0
 49 48  1  0  0  0  0
 50 51  2  0  0  0  0
 50 47  1  0  0  0  0
 52 53  1  0  0  0  0
 53 55  2  0  0  0  0
 53 54  1  0  0  0  0
M  END
>  <MODEL>
6

>  <REMARK>
 VINA RESULT:      -7.2      3.823      8.943
  Name = 
  10 active torsions:
  status: ('A' for Active; 'I' for Inactive)
    1  A    between atoms: C_1  and  C_53
    2  A    between atoms: C_6  and  C_14
    3  A    between atoms: C_6  and  C_20
    4  A    between atoms: N_8  and  C_22
    5  A    between atoms: N_8  and  C_43
    6  A    between atoms: C_10  and  C_32
    7  A    between atoms: C_14  and  C_38
    8  A    between atoms: C_20  and  C_22
    9  A    between atoms: C_29  and  C_38
   10  A    between atoms: C_38  and  C_53
                            x       y       z     vdW  Elec       q    Type
                         _______ _______ _______ _____ _____    ______ ____

>  <TORSDO>
F 10

$$$$
=
 OpenBabel11052419403D

 55 60  0  0  1  0  0  0  0  0999 V2000
  190.8690  174.0670  142.8380 C   0  0  2  0  0  3  0  0  0  0  0  0
  189.6430  172.0210  138.7810 C   0  0  0  0  0  2  0  0  0  0  0  0
  188.5720  174.8020  138.1960 O   0  0  0  0  0  0  0  0  0  0  0  0
  186.0570  176.7820  140.3730 C   0  0  0  0  0  2  0  0  0  0  0  0
  191.5840  177.5570  144.1720 C   0  0  0  0  0  3  0  0  0  0  0  0
  185.3310  178.1370  140.5090 C   0  0  0  0  0  2  0  0  0  0  0  0
  187.6630  177.8280  142.0590 C   0  0  2  0  0  3  0  0  0  0  0  0
  186.5050  178.5820  142.6340 C   0  0  0  0  0  3  0  0  0  0  0  0
  187.8130  174.4020  140.3660 N   0  0  0  0  0  2  0  0  0  0  0  0
  185.3910  178.7100  141.9030 C   0  0  0  0  0  3  0  0  0  0  0  0
  192.1140  172.0480  143.6870 C   0  0  0  0  0  3  0  0  0  0  0  0
  187.1330  176.5150  141.4440 C   0  0  2  0  0  3  0  0  0  0  0  0
  192.6790  171.1980  141.0840 C   0  0  0  0  0  0  0  0  0  0  0  0
  190.2980  174.5380  141.6370 O   0  0  0  0  0  0  0  0  0  0  0  0
  191.9830  172.3930  141.2960 C   0  0  0  0  0  3  0  0  0  0  0  0
  193.2360  176.0570  145.1310 C   0  0  0  0  0  0  0  0  0  0  0  0
  189.8570  176.7370  142.5190 C   0  0  2  0  0  3  0  0  0  0  0  0
  191.5660  175.2020  143.5720 C   0  0  0  0  0  0  0  0  0  0  0  0
  189.6800  170.5870  138.5610 N   0  0  0  0  0  2  0  0  0  0  0  0
  188.7250  177.5660  143.1280 C   0  0  0  0  0  2  0  0  0  0  0  0
  188.2110  172.5150  138.7420 C   0  0  0  0  0  2  0  0  0  0  0  0
  192.6620  174.9920  144.4170 C   0  0  0  0  0  3  0  0  0  0  0  0
  188.1930  173.9680  139.0600 C   0  0  0  0  0  0  0  0  0  0  0  0
  192.8190  170.8590  143.4780 C   0  0  0  0  0  3  0  0  0  0  0  0
  191.0300  170.2560  138.1170 C   0  0  1  0  0  3  0  0  0  0  0  0
  191.7040  172.8330  142.6000 C   0  0  0  0  0  0  0  0  0  0  0  0
  188.2890  175.6730  140.8940 C   0  0  1  0  0  3  0  0  0  0  0  0
  192.6890  177.3390  144.9970 C   0  0  0  0  0  3  0  0  0  0  0  0
  189.2700  175.4070  142.0280 C   0  0  1  0  0  3  0  0  0  0  0  0
  191.8180  169.7200  139.3090 C   0  0  0  0  0  2  0  0  0  0  0  0
  190.9980  176.4910  143.4770 C   0  0  0  0  0  0  0  0  0  0  0  0
  192.9050  170.7080  139.6960 C   0  0  0  0  0  2  0  0  0  0  0  0
  193.0980  170.4330  142.1760 C   0  0  0  0  0  3  0  0  0  0  0  0
  194.4000  175.8430  146.0170 C   0  0  0  0  0  0  0  0  0  0  0  0
  195.2990  174.9000  145.7590 C   0  0  0  0  0  2  0  0  0  0  0  0
  194.5620  176.6420  147.1830 N   0  0  0  0  0  1  0  0  0  0  0  0
  192.1110  168.3580  137.1860 C   0  0  0  0  0  1  0  0  0  0  0  0
  190.9780  169.2620  137.0370 N   0  0  0  0  0  0  0  0  0  0  0  0
  191.2030  169.9520  135.7740 C   0  0  0  0  0  2  0  0  0  0  0  0
  192.6270  170.4940  135.7120 C   0  0  1  0  0  3  0  0  0  0  0  0
  193.2650  170.0830  134.5410 O   0  0  0  0  0  1  0  0  0  0  0  0
  192.6820  172.0180  135.8590 C   0  0  2  0  0  3  0  0  0  0  0  0
  192.3650  172.5880  134.6260 O   0  0  0  0  0  1  0  0  0  0  0  0
  194.9620  171.5560  136.9620 C   0  0  0  0  0  1  0  0  0  0  0  0
  194.0170  172.6120  136.3810 C   0  0  2  0  0  3  0  0  0  0  0  0
  192.3960  173.8160  137.8200 C   0  0  0  0  0  1  0  0  0  0  0  0
  193.8490  173.8150  137.3560 C   0  0  2  0  0  0  0  0  0  0  0  0
  195.3570  175.3330  135.9540 N   0  0  0  0  0  2  0  0  0  0  0  0
  195.6590  176.5720  135.2590 C   0  0  0  0  0  1  0  0  0  0  0  0
  194.1400  175.1510  136.6860 C   0  0  0  0  0  0  0  0  0  0  0  0
  193.2830  176.0760  136.7100 O   0  0  0  0  0  0  0  0  0  0  0  0
  194.6770  173.5990  138.6430 C   0  0  0  0  0  2  0  0  0  0  0  0
  195.0130  174.8340  139.4280 C   0  0  0  0  0  0  0  0  0  0  0  0
  194.1730  175.3340  140.2200 O   0  0  0  0  0  1  0  0  0  0  0  0
  196.2700  175.4090  139.3000 O   0  0  0  0  0  0  0  0  0  0  0  0
  1 14  1  6  0  0  0
  1 18  1  0  0  0  0
  3 23  2  0  0  0  0
  4  6  1  0  0  0  0
  5 28  1  0  0  0  0
  6 10  1  0  0  0  0
  7  8  1  1  0  0  0
  7 20  1  0  0  0  0
 10  8  2  0  0  0  0
 12  4  1  6  0  0  0
 12  7  1  0  0  0  0
 13 15  2  0  0  0  0
 13 33  1  0  0  0  0
 15 26  1  0  0  0  0
 16 34  1  0  0  0  0
 17 20  1  1  0  0  0
 17 31  1  0  0  0  0
 18 22  2  0  0  0  0
 19  2  1  0  0  0  0
 21  2  1  0  0  0  0
 21 23  1  0  0  0  0
 22 16  1  0  0  0  0
 23  9  1  0  0  0  0
 24 11  1  0  0  0  0
 25 38  1  6  0  0  0
 25 19  1  0  0  0  0
 25 30  1  0  0  0  0
 26  1  1  0  0  0  0
 26 11  2  0  0  0  0
 27  9  1  1  0  0  0
 27 12  1  0  0  0  0
 27 29  1  0  0  0  0
 28 16  2  0  0  0  0
 29 14  1  6  0  0  0
 29 17  1  0  0  0  0
 30 32  1  0  0  0  0
 31 18  1  0  0  0  0
 31  5  2  0  0  0  0
 32 13  1  0  0  0  0
 33 24  2  0  0  0  0
 34 36  1  0  0  0  0
 35 34  2  0  0  0  0
 38 37  1  0  0  0  0
 39 38  1  0  0  0  0
 40 41  1  6  0  0  0
 40 39  1  0  0  0  0
 40 42  1  0  0  0  0
 42 43  1  6  0  0  0
 42 45  1  0  0  0  0
 45 44  1  1  0  0  0
 45 47  1  0  0  0  0
 47 46  1  1  0  0  0
 47 52  1  0  0  0  0
 48 50  1  0  0  0  0
 49 48  1  0  0  0  0
 50 51  2  0  0  0  0
 50 47  1  0  0  0  0
 52 53  1  0  0  0  0
 53 54  1  0  0  0  0
 55 53  2  0  0  0  0
M  END
>  <MODEL>
7

>  <REMARK>
 VINA RESULT:      -7.0      3.638      9.240
  Name = 
  10 active torsions:
  status: ('A' for Active; 'I' for Inactive)
    1  A    between atoms: C_1  and  C_53
    2  A    between atoms: C_6  and  C_14
    3  A    between atoms: C_6  and  C_20
    4  A    between atoms: N_8  and  C_22
    5  A    between atoms: N_8  and  C_43
    6  A    between atoms: C_10  and  C_32
    7  A    between atoms: C_14  and  C_38
    8  A    between atoms: C_20  and  C_22
    9  A    between atoms: C_29  and  C_38
   10  A    between atoms: C_38  and  C_53
                            x       y       z     vdW  Elec       q    Type
                         _______ _______ _______ _____ _____    ______ ____

>  <TORSDO>
F 10

$$$$
=
 OpenBabel11052419403D

 55 60  0  0  1  0  0  0  0  0999 V2000
  194.1080  169.9470  140.1180 C   0  0  2  0  0  3  0  0  0  0  0  0
  191.1860  172.4960  142.7860 C   0  0  0  0  0  2  0  0  0  0  0  0
  193.6530  172.6950  144.5460 O   0  0  0  0  0  0  0  0  0  0  0  0
  195.6990  169.7240  145.9510 C   0  0  0  0  0  2  0  0  0  0  0  0
  197.8500  169.5580  139.5540 C   0  0  0  0  0  3  0  0  0  0  0  0
  196.9570  169.3590  146.7660 C   0  0  0  0  0  2  0  0  0  0  0  0
  197.2350  169.2690  143.9640 C   0  0  2  0  0  3  0  0  0  0  0  0
  197.9410  168.2450  144.7960 C   0  0  0  0  0  3  0  0  0  0  0  0
  193.5910  170.4280  144.0000 N   0  0  0  0  0  2  0  0  0  0  0  0
  197.7910  168.2780  146.1250 C   0  0  0  0  0  3  0  0  0  0  0  0
  192.4550  169.6940  138.2340 C   0  0  0  0  0  3  0  0  0  0  0  0
  195.7740  169.3710  144.4520 C   0  0  2  0  0  3  0  0  0  0  0  0
  191.1930  172.0970  138.9080 C   0  0  0  0  0  0  0  0  0  0  0  0
  194.2670  170.6980  141.3010 O   0  0  0  0  0  0  0  0  0  0  0  0
  192.3150  171.6680  139.6260 C   0  0  0  0  0  3  0  0  0  0  0  0
  196.7720  169.4820  137.3780 C   0  0  0  0  0  0  0  0  0  0  0  0
  196.5250  169.9430  141.6720 C   0  0  2  0  0  3  0  0  0  0  0  0
  195.4390  169.8160  139.3940 C   0  0  0  0  0  0  0  0  0  0  0  0
  189.7510  172.5560  142.5740 N   0  0  0  0  0  2  0  0  0  0  0  0
  197.3140  168.9110  142.4790 C   0  0  0  0  0  2  0  0  0  0  0  0
  191.4880  171.8140  144.1050 C   0  0  0  0  0  2  0  0  0  0  0  0
  195.5290  169.6690  138.0050 C   0  0  0  0  0  3  0  0  0  0  0  0
  192.9620  171.6830  144.2540 C   0  0  0  0  0  0  0  0  0  0  0  0
  191.3420  170.1270  137.5070 C   0  0  0  0  0  3  0  0  0  0  0  0
  189.5060  173.6160  141.6010 C   0  0  1  0  0  3  0  0  0  0  0  0
  192.9610  170.4680  139.2880 C   0  0  0  0  0  0  0  0  0  0  0  0
  194.9870  170.3660  143.5920 C   0  0  1  0  0  3  0  0  0  0  0  0
  197.9300  169.4320  138.1660 C   0  0  0  0  0  3  0  0  0  0  0  0
  195.0650  169.9090  142.1410 C   0  0  1  0  0  3  0  0  0  0  0  0
  189.3080  172.9800  140.2270 C   0  0  0  0  0  2  0  0  0  0  0  0
  196.6080  169.7220  140.1790 C   0  0  0  0  0  0  0  0  0  0  0  0
  190.4760  173.3340  139.3220 C   0  0  0  0  0  2  0  0  0  0  0  0
  190.7090  171.3260  137.8470 C   0  0  0  0  0  3  0  0  0  0  0  0
  196.8740  169.3370  135.9110 C   0  0  0  0  0  0  0  0  0  0  0  0
  197.1550  168.1660  135.3510 C   0  0  0  0  0  2  0  0  0  0  0  0
  196.6900  170.4700  135.0700 N   0  0  0  0  0  1  0  0  0  0  0  0
  187.1380  173.5760  141.7710 C   0  0  0  0  0  1  0  0  0  0  0  0
  188.3240  174.3950  141.9900 N   0  0  0  0  0  0  0  0  0  0  0  0
  188.1920  175.5130  141.0650 C   0  0  0  0  0  2  0  0  0  0  0  0
  188.2130  176.8350  141.8250 C   0  0  1  0  0  3  0  0  0  0  0  0
  187.3850  177.7750  141.2100 O   0  0  0  0  0  1  0  0  0  0  0  0
  187.8490  176.6680  143.3040 C   0  0  2  0  0  3  0  0  0  0  0  0
  186.4800  176.8980  143.4450 O   0  0  0  0  0  1  0  0  0  0  0  0
  189.9280  178.1260  143.7280 C   0  0  0  0  0  1  0  0  0  0  0  0
  188.6330  177.5510  144.3100 C   0  0  2  0  0  3  0  0  0  0  0  0
  189.1350  175.3980  145.4330 C   0  0  0  0  0  1  0  0  0  0  0  0
  188.8870  176.8800  145.6930 C   0  0  2  0  0  0  0  0  0  0  0  0
  186.8520  178.1670  146.5570 N   0  0  0  0  0  2  0  0  0  0  0  0
  185.6750  178.3160  147.3960 C   0  0  0  0  0  1  0  0  0  0  0  0
  187.6940  177.0110  146.6290 C   0  0  0  0  0  0  0  0  0  0  0  0
  187.3990  176.0740  147.4210 O   0  0  0  0  0  0  0  0  0  0  0  0
  190.2000  177.3980  146.3220 C   0  0  0  0  0  2  0  0  0  0  0  0
  191.1010  176.3590  146.9240 C   0  0  0  0  0  0  0  0  0  0  0  0
  190.7140  175.6690  147.9020 O   0  0  0  0  0  1  0  0  0  0  0  0
  192.3570  176.1380  146.3770 O   0  0  0  0  0  0  0  0  0  0  0  0
  1 26  1  6  0  0  0
  1 14  1  0  0  0  0
  2 21  1  0  0  0  0
  4  6  1  0  0  0  0
  5 31  1  0  0  0  0
  7 20  1  6  0  0  0
  7 12  1  0  0  0  0
  7  8  1  0  0  0  0
  8 10  2  0  0  0  0
  9 23  1  0  0  0  0
 10  6  1  0  0  0  0
 11 26  1  0  0  0  0
 12  4  1  1  0  0  0
 13 32  1  0  0  0  0
 13 15  1  0  0  0  0
 16 22  2  0  0  0  0
 16 28  1  0  0  0  0
 17 29  1  0  0  0  0
 17 20  1  1  0  0  0
 18  1  1  0  0  0  0
 18 31  2  0  0  0  0
 19  2  1  0  0  0  0
 21 23  1  0  0  0  0
 22 18  1  0  0  0  0
 23  3  2  0  0  0  0
 24 33  1  0  0  0  0
 24 11  2  0  0  0  0
 25 38  1  1  0  0  0
 25 19  1  0  0  0  0
 26 15  2  0  0  0  0
 27  9  1  1  0  0  0
 27 12  1  0  0  0  0
 28  5  2  0  0  0  0
 29 14  1  6  0  0  0
 29 27  1  0  0  0  0
 30 25  1  0  0  0  0
 31 17  1  0  0  0  0
 32 30  1  0  0  0  0
 33 13  2  0  0  0  0
 34 16  1  0  0  0  0
 35 34  2  0  0  0  0
 36 34  1  0  0  0  0
 37 38  1  0  0  0  0
 39 40  1  0  0  0  0
 39 38  1  0  0  0  0
 40 41  1  6  0  0  0
 40 42  1  0  0  0  0
 42 43  1  6  0  0  0
 42 45  1  0  0  0  0
 45 44  1  6  0  0  0
 45 47  1  0  0  0  0
 47 46  1  6  0  0  0
 47 52  1  0  0  0  0
 47 50  1  0  0  0  0
 48 50  1  0  0  0  0
 48 49  1  0  0  0  0
 50 51  2  0  0  0  0
 52 53  1  0  0  0  0
 53 54  1  0  0  0  0
 55 53  2  0  0  0  0
M  END
>  <MODEL>
8

>  <REMARK>
 VINA RESULT:      -6.9      2.902      6.711
  Name = 
  10 active torsions:
  status: ('A' for Active; 'I' for Inactive)
    1  A    between atoms: C_1  and  C_53
    2  A    between atoms: C_6  and  C_14
    3  A    between atoms: C_6  and  C_20
    4  A    between atoms: N_8  and  C_22
    5  A    between atoms: N_8  and  C_43
    6  A    between atoms: C_10  and  C_32
    7  A    between atoms: C_14  and  C_38
    8  A    between atoms: C_20  and  C_22
    9  A    between atoms: C_29  and  C_38
   10  A    between atoms: C_38  and  C_53
                            x       y       z     vdW  Elec       q    Type
                         _______ _______ _______ _____ _____    ______ ____

>  <TORSDO>
F 10

$$$$
=
 OpenBabel11052419403D

 55 60  0  0  1  0  0  0  0  0999 V2000
  193.4720  169.9710  139.8250 C   0  0  2  0  0  3  0  0  0  0  0  0
  190.3910  172.5570  142.2700 C   0  0  0  0  0  2  0  0  0  0  0  0
  192.7120  172.6980  144.2240 O   0  0  0  0  0  0  0  0  0  0  0  0
  194.5830  169.6800  145.7660 C   0  0  0  0  0  2  0  0  0  0  0  0
  197.2390  169.5150  139.5620 C   0  0  0  0  0  3  0  0  0  0  0  0
  195.7650  169.2860  146.6760 C   0  0  0  0  0  2  0  0  0  0  0  0
  196.2650  169.2090  143.9050 C   0  0  2  0  0  3  0  0  0  0  0  0
  196.8830  168.1660  144.7820 C   0  0  0  0  0  3  0  0  0  0  0  0
  192.6520  170.4360  143.6570 N   0  0  0  0  0  2  0  0  0  0  0  0
  196.6270  168.1930  146.0960 C   0  0  0  0  0  3  0  0  0  0  0  0
  191.9720  169.7610  137.8120 C   0  0  0  0  0  3  0  0  0  0  0  0
  194.7720  169.3350  144.2750 C   0  0  2  0  0  3  0  0  0  0  0  0
  190.7040  172.1830  138.4020 C   0  0  0  0  0  0  0  0  0  0  0  0
  193.5490  170.7110  141.0230 O   0  0  0  0  0  0  0  0  0  0  0  0
  191.7560  171.7280  139.2040 C   0  0  0  0  0  3  0  0  0  0  0  0
  196.3390  169.4740  137.3050 C   0  0  0  0  0  0  0  0  0  0  0  0
  195.7550  169.9110  141.5680 C   0  0  2  0  0  3  0  0  0  0  0  0
  194.8540  169.8190  139.2100 C   0  0  0  0  0  0  0  0  0  0  0  0
  188.9800  172.6460  141.9440 N   0  0  0  0  0  2  0  0  0  0  0  0
  196.4580  168.8590  142.4280 C   0  0  0  0  0  2  0  0  0  0  0  0
  190.5730  171.8610  143.6040 C   0  0  0  0  0  2  0  0  0  0  0  0
  195.0530  169.6800  137.8310 C   0  0  0  0  0  3  0  0  0  0  0  0
  192.0280  171.7020  143.8700 C   0  0  0  0  0  0  0  0  0  0  0  0
  190.9280  170.2200  137.0020 C   0  0  0  0  0  3  0  0  0  0  0  0
  188.8340  173.7160  140.9630 C   0  0  1  0  0  3  0  0  0  0  0  0
  192.4050  170.5190  138.9100 C   0  0  0  0  0  0  0  0  0  0  0  0
  194.0750  170.3500  143.3620 C   0  0  1  0  0  3  0  0  0  0  0  0
  197.4280  169.3960  138.1830 C   0  0  0  0  0  3  0  0  0  0  0  0
  194.2610  169.9010  141.9180 C   0  0  1  0  0  3  0  0  0  0  0  0
  188.7350  173.0930  139.5720 C   0  0  0  0  0  2  0  0  0  0  0  0
  195.9540  169.6980  140.0860 C   0  0  0  0  0  0  0  0  0  0  0  0
  189.9780  173.4310  138.7670 C   0  0  0  0  0  2  0  0  0  0  0  0
  190.2920  171.4290  137.2990 C   0  0  0  0  0  3  0  0  0  0  0  0
  196.5560  169.3360  135.8490 C   0  0  0  0  0  0  0  0  0  0  0  0
  195.6350  169.7230  134.9750 C   0  0  0  0  0  2  0  0  0  0  0  0
  197.7630  168.7620  135.3620 N   0  0  0  0  0  1  0  0  0  0  0  0
  187.8230  175.8500  140.7060 C   0  0  0  0  0  1  0  0  0  0  0  0
  187.6380  174.5150  141.2620 N   0  0  0  0  0  0  0  0  0  0  0  0
  187.5700  174.7080  142.7040 C   0  0  0  0  0  2  0  0  0  0  0  0
  187.2740  176.1680  143.0310 C   0  0  1  0  0  3  0  0  0  0  0  0
  185.8990  176.3960  143.0900 O   0  0  0  0  0  1  0  0  0  0  0  0
  187.9630  176.6320  144.3190 C   0  0  2  0  0  3  0  0  0  0  0  0
  187.0290  177.3290  145.0870 O   0  0  0  0  0  1  0  0  0  0  0  0
  189.4290  178.0140  142.7160 C   0  0  0  0  0  1  0  0  0  0  0  0
  189.2420  177.4940  144.1440 C   0  0  2  0  0  3  0  0  0  0  0  0
  190.6370  175.4480  144.0280 C   0  0  0  0  0  1  0  0  0  0  0  0
  190.5450  176.8260  144.6740 C   0  0  2  0  0  0  0  0  0  0  0  0
  191.1320  175.4890  146.7750 N   0  0  0  0  0  2  0  0  0  0  0  0
  191.1870  175.2960  148.2140 C   0  0  0  0  0  1  0  0  0  0  0  0
  190.5320  176.6470  146.1860 C   0  0  0  0  0  0  0  0  0  0  0  0
  190.0590  177.5490  146.9310 O   0  0  0  0  0  0  0  0  0  0  0  0
  191.7940  177.5850  144.1740 C   0  0  0  0  0  2  0  0  0  0  0  0
  192.9820  176.7390  143.8140 C   0  0  0  0  0  0  0  0  0  0  0  0
  193.2370  176.4770  142.6100 O   0  0  0  0  0  0  0  0  0  0  0  0
  193.8200  176.2690  144.8160 O   0  0  0  0  0  1  0  0  0  0  0  0
  1 26  1  6  0  0  0
  1 14  1  0  0  0  0
  2 21  1  0  0  0  0
  4  6  1  0  0  0  0
  5 31  1  0  0  0  0
  7 20  1  6  0  0  0
  7 12  1  0  0  0  0
  7  8  1  0  0  0  0
  8 10  2  0  0  0  0
  9 23  1  0  0  0  0
 10  6  1  0  0  0  0
 11 26  1  0  0  0  0
 12  4  1  1  0  0  0
 13 32  1  0  0  0  0
 13 15  1  0  0  0  0
 16 22  2  0  0  0  0
 16 28  1  0  0  0  0
 17 29  1  0  0  0  0
 17 20  1  1  0  0  0
 18  1  1  0  0  0  0
 18 31  2  0  0  0  0
 19  2  1  0  0  0  0
 21 23  1  0  0  0  0
 22 18  1  0  0  0  0
 23  3  2  0  0  0  0
 24 33  1  0  0  0  0
 24 11  2  0  0  0  0
 25 38  1  1  0  0  0
 25 19  1  0  0  0  0
 26 15  2  0  0  0  0
 27  9  1  1  0  0  0
 27 12  1  0  0  0  0
 28  5  2  0  0  0  0
 29 14  1  6  0  0  0
 29 27  1  0  0  0  0
 30 25  1  0  0  0  0
 31 17  1  0  0  0  0
 32 30  1  0  0  0  0
 33 13  2  0  0  0  0
 34 16  1  0  0  0  0
 35 34  2  0  0  0  0
 36 34  1  0  0  0  0
 37 38  1  0  0  0  0
 38 39  1  0  0  0  0
 39 40  1  0  0  0  0
 40 41  1  1  0  0  0
 40 42  1  0  0  0  0
 42 43  1  1  0  0  0
 45 44  1  6  0  0  0
 45 42  1  0  0  0  0
 45 47  1  0  0  0  0
 47 46  1  6  0  0  0
 47 50  1  0  0  0  0
 48 49  1  0  0  0  0
 50 48  1  0  0  0  0
 50 51  2  0  0  0  0
 52 47  1  0  0  0  0
 53 52  1  0  0  0  0
 53 55  1  0  0  0  0
 54 53  2  0  0  0  0
M  END
>  <MODEL>
9

>  <REMARK>
 VINA RESULT:      -6.7      2.960      6.785
  Name = 
  10 active torsions:
  status: ('A' for Active; 'I' for Inactive)
    1  A    between atoms: C_1  and  C_53
    2  A    between atoms: C_6  and  C_14
    3  A    between atoms: C_6  and  C_20
    4  A    between atoms: N_8  and  C_22
    5  A    between atoms: N_8  and  C_43
    6  A    between atoms: C_10  and  C_32
    7  A    between atoms: C_14  and  C_38
    8  A    between atoms: C_20  and  C_22
    9  A    between atoms: C_29  and  C_38
   10  A    between atoms: C_38  and  C_53
                            x       y       z     vdW  Elec       q    Type
                         _______ _______ _______ _____ _____    ______ ____

>  <TORSDO>
F 10

$$$$
