=
 OpenBabel11052418063D

 28 31  0  0  1  0  0  0  0  0999 V2000
  187.6940  177.4380  145.3730 C   0  0  2  0  0  3  0  0  0  0  0  0
  184.2620  178.5570  143.0580 C   0  0  0  0  0  1  0  0  0  0  0  0
  188.5940  175.9900  141.8540 C   0  0  2  0  0  3  0  0  0  0  0  0
  186.3900  177.2970  143.2160 N   0  0  2  0  0  0  0  0  0  0  0  0
  188.4610  175.9840  143.3760 C   0  0  0  0  0  2  0  0  0  0  0  0
  185.3720  178.3260  145.2470 C   0  0  0  0  0  2  0  0  0  0  0  0
  186.5910  177.4760  141.7730 C   0  0  0  0  0  2  0  0  0  0  0  0
  185.6230  178.4450  143.7350 C   0  0  2  0  0  3  0  0  0  0  0  0
  187.2420  176.2290  141.1800 C   0  0  0  0  0  2  0  0  0  0  0  0
  186.2840  177.3140  145.9330 C   0  0  0  0  0  2  0  0  0  0  0  0
  187.7340  177.2550  143.8330 C   0  0  2  0  0  3  0  0  0  0  0  0
  188.5040  173.8240  140.7070 C   0  0  0  0  0  3  0  0  0  0  0  0
  190.9140  173.2080  142.3070 C   0  0  0  0  0  2  0  0  0  0  0  0
  190.2050  171.8590  140.3850 C   0  0  0  0  0  0  0  0  0  0  0  0
  189.2470  174.7320  141.3570 C   0  0  0  0  0  0  0  0  0  0  0  0
  191.2350  175.5470  142.3800 F   0  0  0  0  0  0  0  0  0  0  0  0
  191.0600  172.1510  141.3200 N   0  0  0  0  0  0  0  0  0  0  0  0
  190.7090  174.5290  141.6030 C   0  0  1  0  0  3  0  0  0  0  0  0
  190.4990  170.7050  139.4970 C   0  0  0  0  0  1  0  0  0  0  0  0
  188.9660  172.5640  140.1910 N   0  0  0  0  0  2  0  0  0  0  0  0
  188.7140  176.6600  146.1600 C   0  0  0  0  0  0  0  0  0  0  0  0
  188.3380  175.5220  146.8910 C   0  0  0  0  0  3  0  0  0  0  0  0
  191.0210  176.3070  146.8350 C   0  0  0  0  0  0  0  0  0  0  0  0
  189.2950  174.7860  147.5930 C   0  0  0  0  0  3  0  0  0  0  0  0
  190.4470  178.1360  145.4150 F   0  0  0  0  0  0  0  0  0  0  0  0
  190.0640  177.0470  146.1290 C   0  0  0  0  0  0  0  0  0  0  0  0
  192.3570  176.6870  146.8120 O   0  0  0  0  0  1  0  0  0  0  0  0
  190.6350  175.1790  147.5660 C   0  0  0  0  0  3  0  0  0  0  0  0
  1 10  1  0  0  0  0
  1 21  1  1  0  0  0
  3 15  1  6  0  0  0
  3  5  1  0  0  0  0
  4  7  1  6  0  0  0
  4  8  1  0  0  0  0
  4 11  1  0  0  0  0
  6 10  1  0  0  0  0
  8  2  1  6  0  0  0
  8  6  1  0  0  0  0
  9  7  1  0  0  0  0
  9  3  1  0  0  0  0
 11  5  1  1  0  0  0
 11  1  1  0  0  0  0
 12 15  2  0  0  0  0
 14 17  2  0  0  0  0
 15 18  1  0  0  0  0
 17 13  1  0  0  0  0
 18 13  1  0  0  0  0
 18 16  1  1  0  0  0
 19 14  1  0  0  0  0
 20 14  1  0  0  0  0
 20 12  1  0  0  0  0
 21 22  1  0  0  0  0
 22 24  2  0  0  0  0
 23 28  2  0  0  0  0
 25 26  1  0  0  0  0
 26 21  2  0  0  0  0
 26 23  1  0  0  0  0
 27 23  1  0  0  0  0
 28 24  1  0  0  0  0
M  END
>  <MODEL>
1

>  <REMARK>
 VINA RESULT:      -8.0      0.000      0.000
  Name = 
  2 active torsions:
  status: ('A' for Active; 'I' for Inactive)
    1  A    between atoms: C_1  and  C_2
    2  A    between atoms: C_10  and  C_13
                            x       y       z     vdW  Elec       q    Type
                         _______ _______ _______ _____ _____    ______ ____

>  <TORSDO>
F 2

$$$$
=
 OpenBabel11052418063D

 28 31  0  0  1  0  0  0  0  0999 V2000
  188.9670  177.2940  145.6370 C   0  0  2  0  0  3  0  0  0  0  0  0
  184.8380  177.8520  144.6280 C   0  0  0  0  0  1  0  0  0  0  0  0
  188.6050  175.0350  142.4650 C   0  0  2  0  0  3  0  0  0  0  0  0
  186.9680  176.6500  144.2360 N   0  0  2  0  0  0  0  0  0  0  0  0
  189.0520  175.3960  143.8810 C   0  0  0  0  0  2  0  0  0  0  0  0
  186.7010  178.1450  146.2150 C   0  0  0  0  0  2  0  0  0  0  0  0
  186.5990  176.4750  142.8270 C   0  0  0  0  0  2  0  0  0  0  0  0
  186.3580  177.8950  144.7380 C   0  0  2  0  0  3  0  0  0  0  0  0
  187.0840  175.1170  142.3270 C   0  0  0  0  0  2  0  0  0  0  0  0
  187.8860  177.3200  146.7070 C   0  0  0  0  0  2  0  0  0  0  0  0
  188.4440  176.7460  144.2830 C   0  0  2  0  0  3  0  0  0  0  0  0
  189.4940  172.8130  143.0000 C   0  0  0  0  0  3  0  0  0  0  0  0
  190.6370  172.9380  140.2750 C   0  0  0  0  0  2  0  0  0  0  0  0
  190.5040  170.8620  141.5740 C   0  0  0  0  0  0  0  0  0  0  0  0
  189.1280  173.6890  142.0530 C   0  0  0  0  0  0  0  0  0  0  0  0
  188.8890  174.4580  139.8130 F   0  0  0  0  0  0  0  0  0  0  0  0
  190.7660  171.5040  140.4750 N   0  0  0  0  0  0  0  0  0  0  0  0
  189.2230  173.3650  140.5940 C   0  0  1  0  0  3  0  0  0  0  0  0
  190.7470  169.3970  141.6090 C   0  0  0  0  0  1  0  0  0  0  0  0
  190.0330  171.4990  142.7760 N   0  0  0  0  0  2  0  0  0  0  0  0
  190.2700  176.7190  146.1270 C   0  0  0  0  0  0  0  0  0  0  0  0
  190.3020  175.8660  147.2410 C   0  0  0  0  0  3  0  0  0  0  0  0
  192.6700  176.4410  145.8700 C   0  0  0  0  0  0  0  0  0  0  0  0
  191.5090  175.3110  147.6700 C   0  0  0  0  0  3  0  0  0  0  0  0
  191.4460  177.8100  144.3470 F   0  0  0  0  0  0  0  0  0  0  0  0
  191.4600  177.0000  145.4360 C   0  0  0  0  0  0  0  0  0  0  0  0
  193.8510  176.7190  145.1940 O   0  0  0  0  0  1  0  0  0  0  0  0
  192.6930  175.5990  146.9860 C   0  0  0  0  0  3  0  0  0  0  0  0
  1 21  1  1  0  0  0
  1 10  1  0  0  0  0
  3 15  1  1  0  0  0
  3  5  1  0  0  0  0
  4  7  1  6  0  0  0
  4 11  1  0  0  0  0
  4  8  1  0  0  0  0
  6 10  1  0  0  0  0
  8  2  1  1  0  0  0
  8  6  1  0  0  0  0
  9  3  1  0  0  0  0
  9  7  1  0  0  0  0
 11  5  1  1  0  0  0
 11  1  1  0  0  0  0
 13 17  1  0  0  0  0
 13 18  1  0  0  0  0
 14 19  1  0  0  0  0
 14 20  1  0  0  0  0
 15 12  2  0  0  0  0
 17 14  2  0  0  0  0
 18 16  1  6  0  0  0
 18 15  1  0  0  0  0
 20 12  1  0  0  0  0
 21 22  1  0  0  0  0
 22 24  2  0  0  0  0
 23 28  2  0  0  0  0
 25 26  1  0  0  0  0
 26 23  1  0  0  0  0
 26 21  2  0  0  0  0
 27 23  1  0  0  0  0
 28 24  1  0  0  0  0
M  END
>  <MODEL>
2

>  <REMARK>
 VINA RESULT:      -7.9      1.540      1.909
  Name = 
  2 active torsions:
  status: ('A' for Active; 'I' for Inactive)
    1  A    between atoms: C_1  and  C_2
    2  A    between atoms: C_10  and  C_13
                            x       y       z     vdW  Elec       q    Type
                         _______ _______ _______ _____ _____    ______ ____

>  <TORSDO>
F 2

$$$$
=
 OpenBabel11052418063D

 28 31  0  0  1  0  0  0  0  0999 V2000
  188.1380  174.7290  142.7880 C   0  0  2  0  0  3  0  0  0  0  0  0
  186.5040  178.2720  144.5650 C   0  0  0  0  0  1  0  0  0  0  0  0
  191.1600  176.0330  144.9010 C   0  0  2  0  0  3  0  0  0  0  0  0
  188.4760  176.8340  144.1410 N   0  0  2  0  0  0  0  0  0  0  0  0
  190.4570  175.4580  143.6710 C   0  0  0  0  0  2  0  0  0  0  0  0
  186.3310  176.4330  142.9320 C   0  0  0  0  0  2  0  0  0  0  0  0
  189.0500  177.2600  145.4220 C   0  0  0  0  0  2  0  0  0  0  0  0
  187.0050  176.8690  144.2430 C   0  0  2  0  0  3  0  0  0  0  0  0
  190.5660  177.3870  145.2950 C   0  0  0  0  0  2  0  0  0  0  0  0
  187.2700  175.6880  141.9880 C   0  0  0  0  0  2  0  0  0  0  0  0
  188.9410  175.4500  143.9030 C   0  0  2  0  0  3  0  0  0  0  0  0
  193.1270  176.1690  143.4420 C   0  0  0  0  0  3  0  0  0  0  0  0
  194.5630  175.0390  145.7680 C   0  0  0  0  0  2  0  0  0  0  0  0
  195.7120  176.0510  143.8510 C   0  0  0  0  0  0  0  0  0  0  0  0
  192.6450  176.1190  144.6920 C   0  0  0  0  0  0  0  0  0  0  0  0
  192.8250  175.9780  147.0620 F   0  0  0  0  0  0  0  0  0  0  0  0
  195.7230  175.5270  145.0410 N   0  0  0  0  0  0  0  0  0  0  0  0
  193.5430  176.1460  145.8900 C   0  0  1  0  0  3  0  0  0  0  0  0
  197.0070  176.4470  143.2430 C   0  0  0  0  0  1  0  0  0  0  0  0
  194.5150  176.2280  143.0720 N   0  0  0  0  0  2  0  0  0  0  0  0
  188.9160  173.7730  141.9220 C   0  0  0  0  0  0  0  0  0  0  0  0
  189.3270  174.1480  140.6340 C   0  0  0  0  0  3  0  0  0  0  0  0
  190.0250  171.6310  141.6320 C   0  0  0  0  0  0  0  0  0  0  0  0
  190.0760  173.2690  139.8490 C   0  0  0  0  0  3  0  0  0  0  0  0
  188.8990  172.1380  143.6730 F   0  0  0  0  0  0  0  0  0  0  0  0
  189.2750  172.5110  142.4230 C   0  0  0  0  0  0  0  0  0  0  0  0
  190.3800  170.3800  142.1200 O   0  0  0  0  0  1  0  0  0  0  0  0
  190.4230  172.0110  140.3470 C   0  0  0  0  0  3  0  0  0  0  0  0
  1 21  1  6  0  0  0
  1 11  1  0  0  0  0
  3 15  1  6  0  0  0
  3  9  1  0  0  0  0
  4  8  1  0  0  0  0
  4  7  1  1  0  0  0
  5  3  1  0  0  0  0
  6  8  1  0  0  0  0
  8  2  1  6  0  0  0
  9  7  1  0  0  0  0
 10  1  1  0  0  0  0
 10  6  1  0  0  0  0
 11  5  1  6  0  0  0
 11  4  1  0  0  0  0
 12 15  2  0  0  0  0
 13 18  1  0  0  0  0
 14 17  2  0  0  0  0
 15 18  1  0  0  0  0
 17 13  1  0  0  0  0
 18 16  1  1  0  0  0
 19 14  1  0  0  0  0
 20 12  1  0  0  0  0
 20 14  1  0  0  0  0
 21 26  1  0  0  0  0
 22 21  2  0  0  0  0
 23 27  1  0  0  0  0
 23 26  2  0  0  0  0
 24 28  2  0  0  0  0
 24 22  1  0  0  0  0
 26 25  1  0  0  0  0
 28 23  1  0  0  0  0
M  END
>  <MODEL>
3

>  <REMARK>
 VINA RESULT:      -7.6      3.425      5.700
  Name = 
  2 active torsions:
  status: ('A' for Active; 'I' for Inactive)
    1  A    between atoms: C_1  and  C_2
    2  A    between atoms: C_10  and  C_13
                            x       y       z     vdW  Elec       q    Type
                         _______ _______ _______ _____ _____    ______ ____

>  <TORSDO>
F 2

$$$$
=
 OpenBabel11052418063D

 28 31  0  0  1  0  0  0  0  0999 V2000
  188.7050  176.4430  146.3980 C   0  0  2  0  0  3  0  0  0  0  0  0
  192.8920  175.6660  146.8930 C   0  0  0  0  0  1  0  0  0  0  0  0
  189.5130  174.3390  143.2020 C   0  0  2  0  0  3  0  0  0  0  0  0
  190.8720  175.5480  145.4630 N   0  0  2  0  0  0  0  0  0  0  0  0
  188.8970  175.4860  144.0030 C   0  0  0  0  0  2  0  0  0  0  0  0
  190.8540  176.8720  147.5760 C   0  0  0  0  0  2  0  0  0  0  0  0
  191.4020  174.3330  144.8320 C   0  0  0  0  0  2  0  0  0  0  0  0
  191.3690  175.6190  146.8500 C   0  0  2  0  0  3  0  0  0  0  0  0
  191.0350  174.3140  143.3510 C   0  0  0  0  0  2  0  0  0  0  0  0
  189.6590  177.5220  146.8860 C   0  0  0  0  0  2  0  0  0  0  0  0
  189.3980  175.4280  145.4510 C   0  0  2  0  0  3  0  0  0  0  0  0
  188.3140  175.4000  141.3430 C   0  0  0  0  0  3  0  0  0  0  0  0
  188.3800  172.6980  140.1450 C   0  0  0  0  0  2  0  0  0  0  0  0
  187.8160  174.7130  138.8650 C   0  0  0  0  0  0  0  0  0  0  0  0
  189.0970  174.3950  141.7590 C   0  0  0  0  0  0  0  0  0  0  0  0
  190.2770  172.3430  141.5050 F   0  0  0  0  0  0  0  0  0  0  0  0
  188.0700  173.4400  138.9340 N   0  0  0  0  0  0  0  0  0  0  0  0
  189.5730  173.3230  140.8280 C   0  0  1  0  0  3  0  0  0  0  0  0
  187.4670  175.2920  137.5430 C   0  0  0  0  0  1  0  0  0  0  0  0
  187.8110  175.5860  140.0090 N   0  0  0  0  0  2  0  0  0  0  0  0
  187.3820  176.9900  145.9300 C   0  0  0  0  0  0  0  0  0  0  0  0
  186.1890  176.6220  146.5710 C   0  0  0  0  0  3  0  0  0  0  0  0
  186.1180  178.4490  144.4550 C   0  0  0  0  0  0  0  0  0  0  0  0
  184.9690  177.1590  146.1520 C   0  0  0  0  0  3  0  0  0  0  0  0
  188.4900  178.2920  144.2520 F   0  0  0  0  0  0  0  0  0  0  0  0
  187.3440  177.9130  144.8720 C   0  0  0  0  0  0  0  0  0  0  0  0
  186.0730  179.3590  143.4070 O   0  0  0  0  0  1  0  0  0  0  0  0
  184.9340  178.0700  145.0940 C   0  0  0  0  0  3  0  0  0  0  0  0
  1 21  1  6  0  0  0
  1 10  1  0  0  0  0
  3 15  1  6  0  0  0
  3  9  1  0  0  0  0
  3  5  1  0  0  0  0
  4  7  1  1  0  0  0
  4  8  1  0  0  0  0
  8  2  1  6  0  0  0
  8  6  1  0  0  0  0
  9  7  1  0  0  0  0
 10  6  1  0  0  0  0
 11  5  1  6  0  0  0
 11  4  1  0  0  0  0
 11  1  1  0  0  0  0
 12 15  2  0  0  0  0
 13 18  1  0  0  0  0
 14 17  2  0  0  0  0
 14 20  1  0  0  0  0
 17 13  1  0  0  0  0
 18 16  1  1  0  0  0
 18 15  1  0  0  0  0
 19 14  1  0  0  0  0
 20 12  1  0  0  0  0
 21 22  1  0  0  0  0
 23 26  1  0  0  0  0
 23 28  2  0  0  0  0
 24 22  2  0  0  0  0
 25 26  1  0  0  0  0
 26 21  2  0  0  0  0
 27 23  1  0  0  0  0
 28 24  1  0  0  0  0
M  END
>  <MODEL>
4

>  <REMARK>
 VINA RESULT:      -7.3      2.447      4.649
  Name = 
  2 active torsions:
  status: ('A' for Active; 'I' for Inactive)
    1  A    between atoms: C_1  and  C_2
    2  A    between atoms: C_10  and  C_13
                            x       y       z     vdW  Elec       q    Type
                         _______ _______ _______ _____ _____    ______ ____

>  <TORSDO>
F 2

$$$$
=
 OpenBabel11052418063D

 28 31  0  0  1  0  0  0  0  0999 V2000
  188.5180  176.6370  144.9250 C   0  0  2  0  0  3  0  0  0  0  0  0
  191.8520  175.2000  147.2060 C   0  0  0  0  0  1  0  0  0  0  0  0
  189.7550  173.6410  142.7360 C   0  0  2  0  0  3  0  0  0  0  0  0
  190.5200  175.1110  145.1190 N   0  0  2  0  0  0  0  0  0  0  0  0
  189.2550  175.0590  143.0130 C   0  0  0  0  0  2  0  0  0  0  0  0
  190.1420  176.9260  146.7870 C   0  0  0  0  0  2  0  0  0  0  0  0
  190.8640  173.6930  144.9710 C   0  0  0  0  0  2  0  0  0  0  0  0
  190.4960  175.4480  146.5540 C   0  0  2  0  0  3  0  0  0  0  0  0
  191.0520  173.3540  143.4950 C   0  0  0  0  0  2  0  0  0  0  0  0
  189.5070  177.5940  145.5730 C   0  0  0  0  0  2  0  0  0  0  0  0
  189.1760  175.2890  144.5270 C   0  0  2  0  0  3  0  0  0  0  0  0
  191.0830  173.6560  140.6740 C   0  0  0  0  0  3  0  0  0  0  0  0
  188.4520  173.7750  139.3290 C   0  0  0  0  0  2  0  0  0  0  0  0
  190.5330  173.2360  138.1480 C   0  0  0  0  0  0  0  0  0  0  0  0
  189.9070  173.3930  141.2630 C   0  0  0  0  0  0  0  0  0  0  0  0
  187.6110  172.7670  141.2920 F   0  0  0  0  0  0  0  0  0  0  0  0
  189.2400  173.3590  138.1800 N   0  0  0  0  0  0  0  0  0  0  0  0
  188.7390  172.8580  140.4940 C   0  0  1  0  0  3  0  0  0  0  0  0
  191.1730  172.8490  136.8650 C   0  0  0  0  0  1  0  0  0  0  0  0
  191.3860  173.4970  139.2780 N   0  0  0  0  0  2  0  0  0  0  0  0
  187.6610  177.2930  143.8750 C   0  0  0  0  0  0  0  0  0  0  0  0
  188.2430  177.8820  142.7420 C   0  0  0  0  0  3  0  0  0  0  0  0
  185.4600  177.8570  143.0140 C   0  0  0  0  0  0  0  0  0  0  0  0
  187.4400  178.4600  141.7570 C   0  0  0  0  0  3  0  0  0  0  0  0
  185.6820  176.6960  145.0860 F   0  0  0  0  0  0  0  0  0  0  0  0
  186.2620  177.2760  144.0050 C   0  0  0  0  0  0  0  0  0  0  0  0
  184.0770  177.8480  143.1380 O   0  0  0  0  0  1  0  0  0  0  0  0
  186.0500  178.4490  141.8930 C   0  0  0  0  0  3  0  0  0  0  0  0
  1 21  1  6  0  0  0
  1 10  1  0  0  0  0
  3 15  1  6  0  0  0
  3  5  1  0  0  0  0
  3  9  1  0  0  0  0
  4  7  1  1  0  0  0
  4  8  1  0  0  0  0
  8  6  1  0  0  0  0
  8  2  1  6  0  0  0
  9  7  1  0  0  0  0
 10  6  1  0  0  0  0
 11  5  1  6  0  0  0
 11  1  1  0  0  0  0
 11  4  1  0  0  0  0
 12 15  2  0  0  0  0
 13 18  1  0  0  0  0
 14 17  2  0  0  0  0
 14 20  1  0  0  0  0
 17 13  1  0  0  0  0
 18 15  1  0  0  0  0
 18 16  1  1  0  0  0
 19 14  1  0  0  0  0
 20 12  1  0  0  0  0
 21 26  1  0  0  0  0
 22 21  2  0  0  0  0
 23 27  1  0  0  0  0
 23 26  2  0  0  0  0
 24 28  2  0  0  0  0
 24 22  1  0  0  0  0
 26 25  1  0  0  0  0
 28 23  1  0  0  0  0
M  END
>  <MODEL>
5

>  <REMARK>
 VINA RESULT:      -7.2      2.796      4.975
  Name = 
  2 active torsions:
  status: ('A' for Active; 'I' for Inactive)
    1  A    between atoms: C_1  and  C_2
    2  A    between atoms: C_10  and  C_13
                            x       y       z     vdW  Elec       q    Type
                         _______ _______ _______ _____ _____    ______ ____

>  <TORSDO>
F 2

$$$$
=
 OpenBabel11052418063D

 28 31  0  0  1  0  0  0  0  0999 V2000
  191.8390  175.7420  146.0760 C   0  0  2  0  0  3  0  0  0  0  0  0
  195.9160  174.5290  145.5350 C   0  0  0  0  0  1  0  0  0  0  0  0
  191.5080  173.0620  143.2480 C   0  0  2  0  0  3  0  0  0  0  0  0
  193.5610  174.4380  144.7690 N   0  0  2  0  0  0  0  0  0  0  0  0
  191.2440  174.3920  143.9520 C   0  0  0  0  0  2  0  0  0  0  0  0
  194.2660  176.0800  146.5100 C   0  0  0  0  0  2  0  0  0  0  0  0
  193.7880  173.0800  144.2620 C   0  0  0  0  0  2  0  0  0  0  0  0
  194.4490  174.6700  145.9240 C   0  0  2  0  0  3  0  0  0  0  0  0
  193.0010  172.8680  142.9720 C   0  0  0  0  0  2  0  0  0  0  0  0
  192.9730  176.7560  146.0650 C   0  0  0  0  0  2  0  0  0  0  0  0
  192.1440  174.5070  145.1880 C   0  0  2  0  0  3  0  0  0  0  0  0
  191.1750  173.4340  140.8460 C   0  0  0  0  0  3  0  0  0  0  0  0
  188.3030  173.1760  141.5050 C   0  0  0  0  0  2  0  0  0  0  0  0
  189.1610  173.0800  139.2090 C   0  0  0  0  0  0  0  0  0  0  0  0
  190.6920  172.9350  141.9930 C   0  0  0  0  0  0  0  0  0  0  0  0
  189.0340  171.9180  143.3650 F   0  0  0  0  0  0  0  0  0  0  0  0
  188.1930  172.9750  140.0700 N   0  0  0  0  0  0  0  0  0  0  0  0
  189.3610  172.2520  142.0630 C   0  0  1  0  0  3  0  0  0  0  0  0
  188.8490  172.8900  137.7700 C   0  0  0  0  0  1  0  0  0  0  0  0
  190.5130  173.4160  139.5700 N   0  0  0  0  0  2  0  0  0  0  0  0
  190.4820  176.3700  145.8960 C   0  0  0  0  0  0  0  0  0  0  0  0
  190.2760  177.3600  144.9230 C   0  0  0  0  0  3  0  0  0  0  0  0
  188.1300  176.4910  146.4910 C   0  0  0  0  0  0  0  0  0  0  0  0
  189.0080  177.9150  144.7400 C   0  0  0  0  0  3  0  0  0  0  0  0
  189.5790  174.9630  147.6130 F   0  0  0  0  0  0  0  0  0  0  0  0
  189.4010  175.9310  146.6770 C   0  0  0  0  0  0  0  0  0  0  0  0
  187.0570  176.0640  147.2630 O   0  0  0  0  0  1  0  0  0  0  0  0
  187.9360  177.4820  145.5240 C   0  0  0  0  0  3  0  0  0  0  0  0
  1 21  1  6  0  0  0
  3 15  1  6  0  0  0
  3  5  1  0  0  0  0
  4  7  1  1  0  0  0
  4 11  1  0  0  0  0
  4  8  1  0  0  0  0
  8  2  1  6  0  0  0
  8  6  1  0  0  0  0
  9  3  1  0  0  0  0
  9  7  1  0  0  0  0
 10  1  1  0  0  0  0
 10  6  1  0  0  0  0
 11  5  1  6  0  0  0
 11  1  1  0  0  0  0
 12 15  2  0  0  0  0
 13 18  1  0  0  0  0
 14 20  1  0  0  0  0
 14 17  2  0  0  0  0
 15 18  1  0  0  0  0
 17 13  1  0  0  0  0
 18 16  1  1  0  0  0
 19 14  1  0  0  0  0
 20 12  1  0  0  0  0
 21 26  1  0  0  0  0
 22 21  2  0  0  0  0
 23 26  2  0  0  0  0
 23 27  1  0  0  0  0
 24 22  1  0  0  0  0
 24 28  2  0  0  0  0
 26 25  1  0  0  0  0
 28 23  1  0  0  0  0
M  END
>  <MODEL>
6

>  <REMARK>
 VINA RESULT:      -7.2      2.739      5.447
  Name = 
  2 active torsions:
  status: ('A' for Active; 'I' for Inactive)
    1  A    between atoms: C_1  and  C_2
    2  A    between atoms: C_10  and  C_13
                            x       y       z     vdW  Elec       q    Type
                         _______ _______ _______ _____ _____    ______ ____

>  <TORSDO>
F 2

$$$$
=
 OpenBabel11052418063D

 28 31  0  0  1  0  0  0  0  0999 V2000
  186.3250  177.9290  143.9640 C   0  0  2  0  0  3  0  0  0  0  0  0
  184.2110  178.2640  140.2490 C   0  0  0  0  0  1  0  0  0  0  0  0
  188.5400  175.7570  141.5830 C   0  0  2  0  0  3  0  0  0  0  0  0
  186.0270  177.2090  141.5630 N   0  0  2  0  0  0  0  0  0  0  0  0
  187.7880  176.0990  142.8690 C   0  0  0  0  0  2  0  0  0  0  0  0
  184.3040  178.6190  142.6860 C   0  0  0  0  0  2  0  0  0  0  0  0
  186.8150  177.0580  140.3340 C   0  0  0  0  0  2  0  0  0  0  0  0
  185.1630  178.3970  141.4310 C   0  0  2  0  0  3  0  0  0  0  0  0
  187.5990  175.7490  140.3770 C   0  0  0  0  0  2  0  0  0  0  0  0
  184.8060  177.8530  143.9060 C   0  0  0  0  0  2  0  0  0  0  0  0
  186.9910  177.3940  142.6690 C   0  0  2  0  0  3  0  0  0  0  0  0
  188.6270  173.3070  141.5260 C   0  0  0  0  0  3  0  0  0  0  0  0
  190.9890  173.6430  143.2740 C   0  0  0  0  0  2  0  0  0  0  0  0
  190.4510  171.5320  142.1470 C   0  0  0  0  0  0  0  0  0  0  0  0
  189.2850  174.4600  141.7130 C   0  0  0  0  0  0  0  0  0  0  0  0
  191.1730  175.7860  142.2980 F   0  0  0  0  0  0  0  0  0  0  0  0
  191.2410  172.2710  142.8680 N   0  0  0  0  0  0  0  0  0  0  0  0
  190.7440  174.4940  142.0490 C   0  0  1  0  0  3  0  0  0  0  0  0
  190.8520  170.1290  141.8740 C   0  0  0  0  0  1  0  0  0  0  0  0
  189.1840  171.9860  141.6360 N   0  0  0  0  0  2  0  0  0  0  0  0
  186.8930  177.4200  145.2620 C   0  0  0  0  0  0  0  0  0  0  0  0
  186.0810  176.7370  146.1800 C   0  0  0  0  0  3  0  0  0  0  0  0
  188.7990  177.0890  146.7320 C   0  0  0  0  0  0  0  0  0  0  0  0
  186.6220  176.2390  147.3670 C   0  0  0  0  0  3  0  0  0  0  0  0
  189.0630  178.2340  144.6560 F   0  0  0  0  0  0  0  0  0  0  0  0
  188.2600  177.5890  145.5390 C   0  0  0  0  0  0  0  0  0  0  0  0
  190.1490  177.2570  147.0140 O   0  0  0  0  0  1  0  0  0  0  0  0
  187.9790  176.4160  147.6440 C   0  0  0  0  0  3  0  0  0  0  0  0
  1 21  1  1  0  0  0
  3 15  1  1  0  0  0
  3  5  1  0  0  0  0
  4  7  1  6  0  0  0
  4 11  1  0  0  0  0
  6 10  1  0  0  0  0
  7  9  1  0  0  0  0
  8  2  1  6  0  0  0
  8  4  1  0  0  0  0
  8  6  1  0  0  0  0
  9  3  1  0  0  0  0
 10  1  1  0  0  0  0
 11  5  1  1  0  0  0
 11  1  1  0  0  0  0
 12 20  1  0  0  0  0
 12 15  2  0  0  0  0
 14 17  2  0  0  0  0
 15 18  1  0  0  0  0
 17 13  1  0  0  0  0
 18 16  1  1  0  0  0
 18 13  1  0  0  0  0
 19 14  1  0  0  0  0
 20 14  1  0  0  0  0
 21 26  2  0  0  0  0
 21 22  1  0  0  0  0
 22 24  2  0  0  0  0
 23 27  1  0  0  0  0
 23 28  2  0  0  0  0
 24 28  1  0  0  0  0
 25 26  1  0  0  0  0
 26 23  1  0  0  0  0
M  END
>  <MODEL>
7

>  <REMARK>
 VINA RESULT:      -7.0      1.439      1.933
  Name = 
  2 active torsions:
  status: ('A' for Active; 'I' for Inactive)
    1  A    between atoms: C_1  and  C_2
    2  A    between atoms: C_10  and  C_13
                            x       y       z     vdW  Elec       q    Type
                         _______ _______ _______ _____ _____    ______ ____

>  <TORSDO>
F 2

$$$$
=
 OpenBabel11052418063D

 28 31  0  0  1  0  0  0  0  0999 V2000
  185.3710  178.8010  144.2000 C   0  0  2  0  0  3  0  0  0  0  0  0
  184.3440  177.9160  140.1330 C   0  0  0  0  0  1  0  0  0  0  0  0
  188.7840  177.5390  142.7690 C   0  0  2  0  0  3  0  0  0  0  0  0
  186.0100  177.8190  141.9640 N   0  0  2  0  0  0  0  0  0  0  0  0
  187.6490  177.6490  143.7860 C   0  0  0  0  0  2  0  0  0  0  0  0
  183.6520  178.4850  142.4290 C   0  0  0  0  0  2  0  0  0  0  0  0
  187.0890  177.9010  140.9730 C   0  0  0  0  0  2  0  0  0  0  0  0
  184.8280  178.5300  141.4410 C   0  0  2  0  0  3  0  0  0  0  0  0
  188.2690  177.0410  141.4170 C   0  0  0  0  0  2  0  0  0  0  0  0
  184.0670  178.1010  143.8460 C   0  0  0  0  0  2  0  0  0  0  0  0
  186.5050  178.4790  143.1920 C   0  0  2  0  0  3  0  0  0  0  0  0
  189.8550  175.3540  143.0850 C   0  0  0  0  0  3  0  0  0  0  0  0
  191.2010  176.6740  145.3640 C   0  0  0  0  0  2  0  0  0  0  0  0
  191.9360  174.5240  144.4420 C   0  0  0  0  0  0  0  0  0  0  0  0
  189.9020  176.6790  143.2870 C   0  0  0  0  0  0  0  0  0  0  0  0
  190.8130  178.6850  144.1880 F   0  0  0  0  0  0  0  0  0  0  0  0
  192.0940  175.5340  145.2440 N   0  0  0  0  0  0  0  0  0  0  0  0
  191.0380  177.3300  144.0130 C   0  0  1  0  0  3  0  0  0  0  0  0
  192.9280  173.4200  144.4940 C   0  0  0  0  0  1  0  0  0  0  0  0
  190.8260  174.3940  143.5340 N   0  0  0  0  0  2  0  0  0  0  0  0
  185.7270  178.6840  145.6590 C   0  0  0  0  0  0  0  0  0  0  0  0
  185.9480  179.8320  146.4350 C   0  0  0  0  0  3  0  0  0  0  0  0
  186.0940  177.3060  147.6250 C   0  0  0  0  0  0  0  0  0  0  0  0
  186.2470  179.7170  147.7950 C   0  0  0  0  0  3  0  0  0  0  0  0
  185.5680  176.2970  145.5290 F   0  0  0  0  0  0  0  0  0  0  0  0
  185.7940  177.4170  146.2610 C   0  0  0  0  0  0  0  0  0  0  0  0
  186.1670  176.0550  148.2270 O   0  0  0  0  0  1  0  0  0  0  0  0
  186.3210  178.4550  148.3890 C   0  0  0  0  0  3  0  0  0  0  0  0
  1 21  1  1  0  0  0
  3 15  1  1  0  0  0
  3  5  1  0  0  0  0
  4  7  1  6  0  0  0
  4 11  1  0  0  0  0
  6 10  1  0  0  0  0
  7  9  1  0  0  0  0
  8  2  1  6  0  0  0
  8  4  1  0  0  0  0
  8  6  1  0  0  0  0
  9  3  1  0  0  0  0
 10  1  1  0  0  0  0
 11  5  1  1  0  0  0
 11  1  1  0  0  0  0
 12 15  2  0  0  0  0
 12 20  1  0  0  0  0
 14 19  1  0  0  0  0
 14 17  2  0  0  0  0
 15 18  1  0  0  0  0
 17 13  1  0  0  0  0
 18 16  1  1  0  0  0
 18 13  1  0  0  0  0
 20 14  1  0  0  0  0
 21 26  2  0  0  0  0
 21 22  1  0  0  0  0
 22 24  2  0  0  0  0
 23 27  1  0  0  0  0
 23 28  2  0  0  0  0
 24 28  1  0  0  0  0
 25 26  1  0  0  0  0
 26 23  1  0  0  0  0
M  END
>  <MODEL>
8

>  <REMARK>
 VINA RESULT:      -6.9      2.770      4.009
  Name = 
  2 active torsions:
  status: ('A' for Active; 'I' for Inactive)
    1  A    between atoms: C_1  and  C_2
    2  A    between atoms: C_10  and  C_13
                            x       y       z     vdW  Elec       q    Type
                         _______ _______ _______ _____ _____    ______ ____

>  <TORSDO>
F 2

$$$$
=
 OpenBabel11052418063D

 28 31  0  0  1  0  0  0  0  0999 V2000
  187.5130  175.2560  142.8600 C   0  0  2  0  0  3  0  0  0  0  0  0
  186.0520  178.7870  144.8040 C   0  0  0  0  0  1  0  0  0  0  0  0
  190.5740  176.2790  145.0680 C   0  0  2  0  0  3  0  0  0  0  0  0
  187.9480  177.2660  144.3240 N   0  0  2  0  0  0  0  0  0  0  0  0
  189.8570  175.8090  143.8030 C   0  0  0  0  0  2  0  0  0  0  0  0
  185.8000  177.0480  143.0750 C   0  0  0  0  0  2  0  0  0  0  0  0
  188.5290  177.5930  145.6320 C   0  0  0  0  0  2  0  0  0  0  0  0
  186.4800  177.3770  144.4140 C   0  0  2  0  0  3  0  0  0  0  0  0
  190.0500  177.6410  145.5270 C   0  0  0  0  0  2  0  0  0  0  0  0
  186.7090  176.3030  142.1030 C   0  0  0  0  0  2  0  0  0  0  0  0
  188.3400  175.8720  144.0190 C   0  0  2  0  0  3  0  0  0  0  0  0
  192.5640  176.3710  143.6370 C   0  0  0  0  0  3  0  0  0  0  0  0
  193.9080  175.0650  145.9260 C   0  0  0  0  0  2  0  0  0  0  0  0
  195.1330  176.0960  144.0680 C   0  0  0  0  0  0  0  0  0  0  0  0
  192.0640  176.2930  144.8790 C   0  0  0  0  0  0  0  0  0  0  0  0
  192.2060  176.0410  147.2410 F   0  0  0  0  0  0  0  0  0  0  0  0
  195.1020  175.5210  145.2330 N   0  0  0  0  0  0  0  0  0  0  0  0
  192.9470  176.2200  146.0860 C   0  0  1  0  0  3  0  0  0  0  0  0
  196.4560  176.4470  143.4910 C   0  0  0  0  0  1  0  0  0  0  0  0
  193.9580  176.3710  143.2840 N   0  0  0  0  0  2  0  0  0  0  0  0
  188.2480  174.3050  141.9520 C   0  0  0  0  0  0  0  0  0  0  0  0
  188.7250  173.0780  142.4370 C   0  0  0  0  0  3  0  0  0  0  0  0
  189.0770  173.7320  139.7420 C   0  0  0  0  0  0  0  0  0  0  0  0
  189.3770  172.1870  141.5820 C   0  0  0  0  0  3  0  0  0  0  0  0
  187.9520  175.8040  140.1070 F   0  0  0  0  0  0  0  0  0  0  0  0
  188.4210  174.6280  140.5960 C   0  0  0  0  0  0  0  0  0  0  0  0
  189.2540  174.0470  138.4000 O   0  0  0  0  0  1  0  0  0  0  0  0
  189.5550  172.5150  140.2360 C   0  0  0  0  0  3  0  0  0  0  0  0
  1 21  1  6  0  0  0
  1 11  1  0  0  0  0
  3 15  1  6  0  0  0
  3  9  1  0  0  0  0
  4  8  1  0  0  0  0
  4  7  1  1  0  0  0
  5  3  1  0  0  0  0
  6  8  1  0  0  0  0
  8  2  1  6  0  0  0
  9  7  1  0  0  0  0
 10  1  1  0  0  0  0
 10  6  1  0  0  0  0
 11  5  1  6  0  0  0
 11  4  1  0  0  0  0
 12 15  2  0  0  0  0
 13 18  1  0  0  0  0
 14 17  2  0  0  0  0
 15 18  1  0  0  0  0
 17 13  1  0  0  0  0
 18 16  1  1  0  0  0
 19 14  1  0  0  0  0
 20 12  1  0  0  0  0
 20 14  1  0  0  0  0
 21 22  1  0  0  0  0
 23 28  2  0  0  0  0
 23 26  1  0  0  0  0
 24 22  2  0  0  0  0
 25 26  1  0  0  0  0
 26 21  2  0  0  0  0
 27 23  1  0  0  0  0
 28 24  1  0  0  0  0
M  END
>  <MODEL>
9

>  <REMARK>
 VINA RESULT:      -6.9      3.333      5.537
  Name = 
  2 active torsions:
  status: ('A' for Active; 'I' for Inactive)
    1  A    between atoms: C_1  and  C_2
    2  A    between atoms: C_10  and  C_13
                            x       y       z     vdW  Elec       q    Type
                         _______ _______ _______ _____ _____    ______ ____

>  <TORSDO>
F 2

$$$$
