=
 OpenBabel11052417413D

 31 36  0  0  1  0  0  0  0  0999 V2000
  188.5220  174.3180  141.6760 C   0  0  0  0  0  0  0  0  0  0  0  0
  188.1500  176.4630  144.7250 N   0  0  0  0  0  0  0  0  0  0  0  0
  186.9920  177.3150  144.5510 C   0  0  2  0  0  3  0  0  0  0  0  0
  185.8850  179.0390  143.1080 C   0  0  0  0  0  2  0  0  0  0  0  0
  188.5960  175.4420  143.8270 C   0  0  0  0  0  0  0  0  0  0  0  0
  189.4320  173.3650  142.1460 C   0  0  0  0  0  3  0  0  0  0  0  0
  187.2230  178.4350  143.5500 C   0  0  0  0  0  2  0  0  0  0  0  0
  189.8130  175.6610  146.4840 C   0  0  2  0  0  3  0  0  0  0  0  0
  188.0310  174.2230  140.4160 F   0  0  0  0  0  0  0  0  0  0  0  0
  187.6470  177.2400  146.9530 C   0  0  2  0  0  3  0  0  0  0  0  0
  185.0470  179.6250  144.2620 C   0  0  0  0  0  2  0  0  0  0  0  0
  190.0380  174.5550  145.5980 O   0  0  0  0  0  0  0  0  0  0  0  0
  188.5030  176.3740  146.1230 C   0  0  1  0  0  0  0  0  0  0  0  0
  188.0970  175.3520  142.5160 C   0  0  0  0  0  3  0  0  0  0  0  0
  184.4060  178.5230  145.1270 C   0  0  0  0  0  2  0  0  0  0  0  0
  189.5300  174.4910  144.2860 C   0  0  0  0  0  0  0  0  0  0  0  0
  189.9340  173.4520  143.4460 C   0  0  0  0  0  3  0  0  0  0  0  0
  187.4340  175.8480  146.8750 O   0  0  0  0  0  0  0  0  0  0  0  0
  186.7790  177.9650  145.9160 C   0  0  2  0  0  3  0  0  0  0  0  0
  185.2990  178.0300  146.2860 C   0  0  0  0  0  2  0  0  0  0  0  0
  191.4600  176.8580  147.9910 C   0  0  0  0  0  2  0  0  0  0  0  0
  192.2810  175.8600  147.1980 C   0  0  1  0  0  3  0  0  0  0  0  0
  191.0800  176.5370  146.5530 C   0  0  1  0  0  3  0  0  0  0  0  0
  193.5360  176.5310  146.6710 C   0  0  0  0  0  2  0  0  0  0  0  0
  194.5440  175.5240  146.1210 C   0  0  0  0  0  2  0  0  0  0  0  0
  193.9870  173.2470  145.7360 O   0  0  0  0  0  0  0  0  0  0  0  0
  193.9110  174.4290  145.3060 C   0  0  0  0  0  0  0  0  0  0  0  0
  193.2210  174.6760  144.0750 N   0  0  0  0  0  2  0  0  0  0  0  0
  193.3380  175.8270  143.2280 C   0  0  0  0  0  0  0  0  0  0  0  0
  192.2010  176.6660  143.0540 N   0  0  0  0  0  1  0  0  0  0  0  0
  194.5790  175.9520  142.1610 S   0  0  0  0  0  0  0  0  0  0  0  0
  1  6  2  0  0  0  0
  1 14  1  0  0  0  0
  2 13  1  0  0  0  0
  3  7  1  6  0  0  0
  3  2  1  0  0  0  0
  3 19  1  0  0  0  0
  4  7  1  0  0  0  0
  4 11  1  0  0  0  0
  5 16  1  0  0  0  0
  5  2  1  0  0  0  0
  6 17  1  0  0  0  0
  8 12  1  6  0  0  0
  8 23  1  0  0  0  0
  9  1  1  0  0  0  0
 10 18  1  1  0  0  0
 11 15  1  0  0  0  0
 13  8  1  0  0  0  0
 13 18  1  1  0  0  0
 13 10  1  0  0  0  0
 14  5  2  0  0  0  0
 15 20  1  0  0  0  0
 16 12  1  0  0  0  0
 17 16  2  0  0  0  0
 19 20  1  1  0  0  0
 19 10  1  0  0  0  0
 22 24  1  6  0  0  0
 22 21  1  0  0  0  0
 23 22  1  0  0  0  0
 23 21  1  1  0  0  0
 25 24  1  0  0  0  0
 27 26  2  0  0  0  0
 27 25  1  0  0  0  0
 28 27  1  0  0  0  0
 29 28  1  0  0  0  0
 30 29  1  0  0  0  0
 31 29  2  0  0  0  0
M  END
>  <MODEL>
1

>  <REMARK>
 VINA RESULT:      -8.1      0.000      0.000
  Name = 
  5 active torsions:
  status: ('A' for Active; 'I' for Inactive)
    1  A    between atoms: C_1  and  N_24
    2  A    between atoms: C_3  and  C_9
    3  A    between atoms: C_3  and  C_22
    4  A    between atoms: C_15  and  C_23
    5  A    between atoms: C_19  and  C_22
                            x       y       z     vdW  Elec       q    Type
                         _______ _______ _______ _____ _____    ______ ____

>  <TORSDO>
F 5

$$$$
=
 OpenBabel11052417413D

 31 36  0  0  1  0  0  0  0  0999 V2000
  188.5930  174.5390  141.4600 C   0  0  0  0  0  0  0  0  0  0  0  0
  188.1790  176.5070  144.6200 N   0  0  0  0  0  0  0  0  0  0  0  0
  187.0040  177.3450  144.4910 C   0  0  2  0  0  3  0  0  0  0  0  0
  185.8640  179.1230  143.1420 C   0  0  0  0  0  2  0  0  0  0  0  0
  188.6450  175.5450  143.6680 C   0  0  0  0  0  0  0  0  0  0  0  0
  189.5220  173.5800  141.8780 C   0  0  0  0  0  3  0  0  0  0  0  0
  187.2140  178.5210  143.5530 C   0  0  0  0  0  2  0  0  0  0  0  0
  189.8570  175.6430  146.3350 C   0  0  2  0  0  3  0  0  0  0  0  0
  188.1040  174.5030  140.1960 F   0  0  0  0  0  0  0  0  0  0  0  0
  187.6610  177.1520  146.8860 C   0  0  2  0  0  3  0  0  0  0  0  0
  185.0150  179.6280  144.3260 C   0  0  0  0  0  2  0  0  0  0  0  0
  190.1040  174.5920  145.3900 O   0  0  0  0  0  0  0  0  0  0  0  0
  188.5340  176.3500  146.0110 C   0  0  1  0  0  0  0  0  0  0  0  0
  188.1480  175.5170  142.3540 C   0  0  0  0  0  3  0  0  0  0  0  0
  184.3960  178.4690  145.1290 C   0  0  0  0  0  2  0  0  0  0  0  0
  189.5980  174.5890  144.0770 C   0  0  0  0  0  0  0  0  0  0  0  0
  190.0210  173.6050  143.1820 C   0  0  0  0  0  3  0  0  0  0  0  0
  187.4750  175.7630  146.7330 O   0  0  0  0  0  0  0  0  0  0  0  0
  186.7790  177.9160  145.8890 C   0  0  2  0  0  3  0  0  0  0  0  0
  185.2980  177.9320  146.2600 C   0  0  0  0  0  2  0  0  0  0  0  0
  191.4480  176.8350  147.9060 C   0  0  0  0  0  2  0  0  0  0  0  0
  192.3040  175.8690  147.1110 C   0  0  1  0  0  3  0  0  0  0  0  0
  191.1070  176.5390  146.4530 C   0  0  1  0  0  3  0  0  0  0  0  0
  193.5590  176.5720  146.6280 C   0  0  0  0  0  2  0  0  0  0  0  0
  194.6650  175.5890  146.2480 C   0  0  0  0  0  2  0  0  0  0  0  0
  194.0870  175.9200  143.9680 O   0  0  0  0  0  0  0  0  0  0  0  0
  194.5980  175.1380  144.8140 C   0  0  0  0  0  0  0  0  0  0  0  0
  195.0990  173.8710  144.3740 N   0  0  0  0  0  2  0  0  0  0  0  0
  195.3550  172.7110  145.1760 C   0  0  0  0  0  0  0  0  0  0  0  0
  194.2490  171.9640  145.6730 N   0  0  0  0  0  1  0  0  0  0  0  0
  196.8290  172.4810  145.8600 S   0  0  0  0  0  0  0  0  0  0  0  0
  1  6  2  0  0  0  0
  1 14  1  0  0  0  0
  2 13  1  0  0  0  0
  3  7  1  6  0  0  0
  3  2  1  0  0  0  0
  3 19  1  0  0  0  0
  4  7  1  0  0  0  0
  4 11  1  0  0  0  0
  5 16  1  0  0  0  0
  5  2  1  0  0  0  0
  6 17  1  0  0  0  0
  8 12  1  6  0  0  0
  8 23  1  0  0  0  0
  9  1  1  0  0  0  0
 10 18  1  1  0  0  0
 11 15  1  0  0  0  0
 13  8  1  0  0  0  0
 13 18  1  1  0  0  0
 13 10  1  0  0  0  0
 14  5  2  0  0  0  0
 15 20  1  0  0  0  0
 16 12  1  0  0  0  0
 17 16  2  0  0  0  0
 19 20  1  1  0  0  0
 19 10  1  0  0  0  0
 22 24  1  6  0  0  0
 22 21  1  0  0  0  0
 23 22  1  0  0  0  0
 23 21  1  1  0  0  0
 25 24  1  0  0  0  0
 26 27  2  0  0  0  0
 27 25  1  0  0  0  0
 28 27  1  0  0  0  0
 28 29  1  0  0  0  0
 29 30  1  0  0  0  0
 29 31  2  0  0  0  0
M  END
>  <MODEL>
2

>  <REMARK>
 VINA RESULT:      -7.8      1.502      1.779
  Name = 
  5 active torsions:
  status: ('A' for Active; 'I' for Inactive)
    1  A    between atoms: C_1  and  N_24
    2  A    between atoms: C_3  and  C_9
    3  A    between atoms: C_3  and  C_22
    4  A    between atoms: C_15  and  C_23
    5  A    between atoms: C_19  and  C_22
                            x       y       z     vdW  Elec       q    Type
                         _______ _______ _______ _____ _____    ______ ____

>  <TORSDO>
F 5

$$$$
=
 OpenBabel11052417413D

 31 36  0  0  1  0  0  0  0  0999 V2000
  191.4030  176.7920  147.8050 C   0  0  0  0  0  0  0  0  0  0  0  0
  188.7050  176.7570  145.2080 N   0  0  0  0  0  0  0  0  0  0  0  0
  187.5480  177.4500  145.7360 C   0  0  2  0  0  3  0  0  0  0  0  0
  185.8680  177.5650  147.5920 C   0  0  0  0  0  2  0  0  0  0  0  0
  189.9750  176.6130  145.8510 C   0  0  0  0  0  0  0  0  0  0  0  0
  192.5050  176.4070  147.0320 C   0  0  0  0  0  3  0  0  0  0  0  0
  186.8090  176.6520  146.7960 C   0  0  0  0  0  2  0  0  0  0  0  0
  189.6790  175.8260  143.0430 C   0  0  2  0  0  3  0  0  0  0  0  0
  191.5660  177.0830  149.1190 F   0  0  0  0  0  0  0  0  0  0  0  0
  187.3700  177.2490  143.2590 C   0  0  2  0  0  3  0  0  0  0  0  0
  184.8030  178.2730  146.7300 C   0  0  0  0  0  2  0  0  0  0  0  0
  190.9460  175.9180  143.7110 O   0  0  0  0  0  0  0  0  0  0  0  0
  188.6320  176.6830  143.7670 C   0  0  1  0  0  0  0  0  0  0  0  0
  190.1400  176.9020  147.2160 C   0  0  0  0  0  3  0  0  0  0  0  0
  185.4060  179.4160  145.8910 C   0  0  0  0  0  2  0  0  0  0  0  0
  191.0850  176.2050  145.0820 C   0  0  0  0  0  0  0  0  0  0  0  0
  192.3450  176.1160  145.6760 C   0  0  0  0  0  3  0  0  0  0  0  0
  188.5790  177.9730  143.2030 O   0  0  0  0  0  0  0  0  0  0  0  0
  186.6050  177.5980  144.5430 C   0  0  2  0  0  3  0  0  0  0  0  0
  185.9420  178.9730  144.5140 C   0  0  0  0  0  2  0  0  0  0  0  0
  188.0380  174.1990  142.0070 C   0  0  0  0  0  2  0  0  0  0  0  0
  189.3750  173.9000  141.3590 C   0  0  1  0  0  3  0  0  0  0  0  0
  189.3190  174.3450  142.8130 C   0  0  1  0  0  3  0  0  0  0  0  0
  189.6110  172.4010  141.3360 C   0  0  0  0  0  2  0  0  0  0  0  0
  190.6420  171.9920  140.2850 C   0  0  0  0  0  2  0  0  0  0  0  0
  190.1830  170.0230  139.0390 O   0  0  0  0  0  0  0  0  0  0  0  0
  190.0430  171.2730  139.1070 C   0  0  0  0  0  0  0  0  0  0  0  0
  189.3160  171.9470  138.0730 N   0  0  0  0  0  2  0  0  0  0  0  0
  189.3600  173.3420  137.7460 C   0  0  0  0  0  0  0  0  0  0  0  0
  188.1980  174.1350  137.9670 N   0  0  0  0  0  1  0  0  0  0  0  0
  190.5360  173.9290  136.7630 S   0  0  0  0  0  0  0  0  0  0  0  0
  1  9  1  0  0  0  0
  2  3  1  0  0  0  0
  2  5  1  0  0  0  0
  3  7  1  1  0  0  0
  5 14  2  0  0  0  0
  6  1  2  0  0  0  0
  7  4  1  0  0  0  0
  8 12  1  1  0  0  0
  8 13  1  0  0  0  0
 10 18  1  6  0  0  0
 10 13  1  0  0  0  0
 10 19  1  0  0  0  0
 11  4  1  0  0  0  0
 12 16  1  0  0  0  0
 13 18  1  6  0  0  0
 13  2  1  0  0  0  0
 14  1  1  0  0  0  0
 15 11  1  0  0  0  0
 16 17  2  0  0  0  0
 16  5  1  0  0  0  0
 17  6  1  0  0  0  0
 19 20  1  6  0  0  0
 19  3  1  0  0  0  0
 20 15  1  0  0  0  0
 22 24  1  1  0  0  0
 22 21  1  0  0  0  0
 22 23  1  0  0  0  0
 23 21  1  6  0  0  0
 23  8  1  0  0  0  0
 25 24  1  0  0  0  0
 26 27  2  0  0  0  0
 27 25  1  0  0  0  0
 28 27  1  0  0  0  0
 29 30  1  0  0  0  0
 29 28  1  0  0  0  0
 31 29  2  0  0  0  0
M  END
>  <MODEL>
3

>  <REMARK>
 VINA RESULT:      -7.6      3.605      5.537
  Name = 
  5 active torsions:
  status: ('A' for Active; 'I' for Inactive)
    1  A    between atoms: C_1  and  N_24
    2  A    between atoms: C_3  and  C_9
    3  A    between atoms: C_3  and  C_22
    4  A    between atoms: C_15  and  C_23
    5  A    between atoms: C_19  and  C_22
                            x       y       z     vdW  Elec       q    Type
                         _______ _______ _______ _____ _____    ______ ____

>  <TORSDO>
F 5

$$$$
=
 OpenBabel11052417413D

 31 36  0  0  1  0  0  0  0  0999 V2000
  190.6730  176.8820  147.1810 C   0  0  0  0  0  0  0  0  0  0  0  0
  188.0450  176.8970  144.5120 N   0  0  0  0  0  0  0  0  0  0  0  0
  186.9130  177.6680  144.9840 C   0  0  2  0  0  3  0  0  0  0  0  0
  185.1930  177.9340  146.7880 C   0  0  0  0  0  2  0  0  0  0  0  0
  189.2890  176.7100  145.1940 C   0  0  0  0  0  0  0  0  0  0  0  0
  191.7720  176.4140  146.4520 C   0  0  0  0  0  3  0  0  0  0  0  0
  186.1060  176.9460  146.0500 C   0  0  0  0  0  2  0  0  0  0  0  0
  189.0250  175.8430  142.4070 C   0  0  2  0  0  3  0  0  0  0  0  0
  190.8170  177.2100  148.4880 F   0  0  0  0  0  0  0  0  0  0  0  0
  186.7890  177.3910  142.5110 C   0  0  2  0  0  3  0  0  0  0  0  0
  184.1900  178.6660  145.8740 C   0  0  0  0  0  2  0  0  0  0  0  0
  190.2760  175.8920  143.1070 O   0  0  0  0  0  0  0  0  0  0  0  0
  188.0060  176.7780  143.0730 C   0  0  1  0  0  0  0  0  0  0  0  0
  189.4330  177.0370  146.5530 C   0  0  0  0  0  3  0  0  0  0  0  0
  184.8740  179.7460  145.0150 C   0  0  0  0  0  2  0  0  0  0  0  0
  190.3950  176.2190  144.4710 C   0  0  0  0  0  0  0  0  0  0  0  0
  191.6320  176.0850  145.1020 C   0  0  0  0  0  3  0  0  0  0  0  0
  188.0360  178.0490  142.4660 O   0  0  0  0  0  0  0  0  0  0  0  0
  186.0100  177.8230  143.7620 C   0  0  2  0  0  3  0  0  0  0  0  0
  185.4220  179.2290  143.6680 C   0  0  0  0  0  2  0  0  0  0  0  0
  188.5930  173.9780  140.7480 C   0  0  0  0  0  2  0  0  0  0  0  0
  189.6820  173.4640  141.6690 C   0  0  1  0  0  3  0  0  0  0  0  0
  188.5930  174.3750  142.2170 C   0  0  1  0  0  3  0  0  0  0  0  0
  189.3630  172.0430  142.0970 C   0  0  0  0  0  2  0  0  0  0  0  0
  190.4690  171.4350  142.9580 C   0  0  0  0  0  2  0  0  0  0  0  0
  189.7300  172.4250  144.9870 O   0  0  0  0  0  0  0  0  0  0  0  0
  190.7150  172.1890  144.2370 C   0  0  0  0  0  0  0  0  0  0  0  0
  192.0160  172.6360  144.6380 N   0  0  0  0  0  2  0  0  0  0  0  0
  193.1670  172.8190  143.8050 C   0  0  0  0  0  0  0  0  0  0  0  0
  193.1400  173.8420  142.8140 N   0  0  0  0  0  1  0  0  0  0  0  0
  194.3060  171.6420  143.6890 S   0  0  0  0  0  0  0  0  0  0  0  0
  1  9  1  0  0  0  0
  2  3  1  0  0  0  0
  2  5  1  0  0  0  0
  3  7  1  1  0  0  0
  5 14  2  0  0  0  0
  6  1  2  0  0  0  0
  7  4  1  0  0  0  0
  8 13  1  0  0  0  0
  8 12  1  1  0  0  0
 10 18  1  6  0  0  0
 10 13  1  0  0  0  0
 10 19  1  0  0  0  0
 11  4  1  0  0  0  0
 12 16  1  0  0  0  0
 13 18  1  6  0  0  0
 13  2  1  0  0  0  0
 14  1  1  0  0  0  0
 15 11  1  0  0  0  0
 16 17  2  0  0  0  0
 16  5  1  0  0  0  0
 17  6  1  0  0  0  0
 19 20  1  6  0  0  0
 19  3  1  0  0  0  0
 20 15  1  0  0  0  0
 21 22  1  0  0  0  0
 22 24  1  1  0  0  0
 22 23  1  0  0  0  0
 23 21  1  6  0  0  0
 23  8  1  0  0  0  0
 24 25  1  0  0  0  0
 25 27  1  0  0  0  0
 27 28  1  0  0  0  0
 27 26  2  0  0  0  0
 29 28  1  0  0  0  0
 30 29  1  0  0  0  0
 31 29  2  0  0  0  0
M  END
>  <MODEL>
4

>  <REMARK>
 VINA RESULT:      -7.5      2.593      4.570
  Name = 
  5 active torsions:
  status: ('A' for Active; 'I' for Inactive)
    1  A    between atoms: C_1  and  N_24
    2  A    between atoms: C_3  and  C_9
    3  A    between atoms: C_3  and  C_22
    4  A    between atoms: C_15  and  C_23
    5  A    between atoms: C_19  and  C_22
                            x       y       z     vdW  Elec       q    Type
                         _______ _______ _______ _____ _____    ______ ____

>  <TORSDO>
F 5

$$$$
=
 OpenBabel11052417413D

 31 36  0  0  1  0  0  0  0  0999 V2000
  191.3890  176.7940  147.7560 C   0  0  0  0  0  0  0  0  0  0  0  0
  188.6220  176.7150  145.2330 N   0  0  0  0  0  0  0  0  0  0  0  0
  187.5110  177.4930  145.7420 C   0  0  2  0  0  3  0  0  0  0  0  0
  185.8890  177.8030  147.6270 C   0  0  0  0  0  2  0  0  0  0  0  0
  189.9020  176.5560  145.8530 C   0  0  0  0  0  0  0  0  0  0  0  0
  192.4510  176.3110  146.9830 C   0  0  0  0  0  3  0  0  0  0  0  0
  186.7680  176.7990  146.8700 C   0  0  0  0  0  2  0  0  0  0  0  0
  189.4960  175.6050  143.1100 C   0  0  2  0  0  3  0  0  0  0  0  0
  191.6010  177.1620  149.0430 F   0  0  0  0  0  0  0  0  0  0  0  0
  187.2580  177.1420  143.2890 C   0  0  2  0  0  3  0  0  0  0  0  0
  184.8330  178.5020  146.7480 C   0  0  0  0  0  2  0  0  0  0  0  0
  190.7830  175.6810  143.7400 O   0  0  0  0  0  0  0  0  0  0  0  0
  188.5070  176.5530  143.8020 C   0  0  1  0  0  0  0  0  0  0  0  0
  190.1170  176.9240  147.1920 C   0  0  0  0  0  3  0  0  0  0  0  0
  185.4620  179.5600  145.8210 C   0  0  0  0  0  2  0  0  0  0  0  0
  190.9710  176.0490  145.0860 C   0  0  0  0  0  0  0  0  0  0  0  0
  192.2420  175.9410  145.6530 C   0  0  0  0  0  3  0  0  0  0  0  0
  188.4960  177.8060  143.1570 O   0  0  0  0  0  0  0  0  0  0  0  0
  186.5440  177.6070  144.5660 C   0  0  2  0  0  3  0  0  0  0  0  0
  185.9420  179.0060  144.4630 C   0  0  0  0  0  2  0  0  0  0  0  0
  187.9360  173.9580  141.9810 C   0  0  0  0  0  2  0  0  0  0  0  0
  189.3380  173.5040  141.6260 C   0  0  1  0  0  3  0  0  0  0  0  0
  189.0650  174.1290  142.9870 C   0  0  1  0  0  3  0  0  0  0  0  0
  189.4550  172.0030  141.8150 C   0  0  0  0  0  2  0  0  0  0  0  0
  190.7420  171.4410  141.2130 C   0  0  0  0  0  2  0  0  0  0  0  0
  190.9960  169.1720  141.8700 O   0  0  0  0  0  0  0  0  0  0  0  0
  191.3720  170.3620  142.0500 C   0  0  0  0  0  0  0  0  0  0  0  0
  192.3840  170.6280  143.0280 N   0  0  0  0  0  2  0  0  0  0  0  0
  192.6780  171.8830  143.6550 C   0  0  0  0  0  0  0  0  0  0  0  0
  191.7560  172.4070  144.6060 N   0  0  0  0  0  1  0  0  0  0  0  0
  193.7990  172.8930  143.0100 S   0  0  0  0  0  0  0  0  0  0  0  0
  1  9  1  0  0  0  0
  2  3  1  0  0  0  0
  2  5  1  0  0  0  0
  3  7  1  1  0  0  0
  5 14  2  0  0  0  0
  6  1  2  0  0  0  0
  7  4  1  0  0  0  0
  8 12  1  1  0  0  0
  8 13  1  0  0  0  0
 10 18  1  6  0  0  0
 10 13  1  0  0  0  0
 10 19  1  0  0  0  0
 11  4  1  0  0  0  0
 12 16  1  0  0  0  0
 13 18  1  6  0  0  0
 13  2  1  0  0  0  0
 14  1  1  0  0  0  0
 15 11  1  0  0  0  0
 16 17  2  0  0  0  0
 16  5  1  0  0  0  0
 17  6  1  0  0  0  0
 19 20  1  6  0  0  0
 19  3  1  0  0  0  0
 20 15  1  0  0  0  0
 22 24  1  1  0  0  0
 22 21  1  0  0  0  0
 22 23  1  0  0  0  0
 23 21  1  6  0  0  0
 23  8  1  0  0  0  0
 25 24  1  0  0  0  0
 25 27  1  0  0  0  0
 26 27  2  0  0  0  0
 27 28  1  0  0  0  0
 28 29  1  0  0  0  0
 29 30  1  0  0  0  0
 31 29  2  0  0  0  0
M  END
>  <MODEL>
5

>  <REMARK>
 VINA RESULT:      -7.4      2.849      4.871
  Name = 
  5 active torsions:
  status: ('A' for Active; 'I' for Inactive)
    1  A    between atoms: C_1  and  N_24
    2  A    between atoms: C_3  and  C_9
    3  A    between atoms: C_3  and  C_22
    4  A    between atoms: C_15  and  C_23
    5  A    between atoms: C_19  and  C_22
                            x       y       z     vdW  Elec       q    Type
                         _______ _______ _______ _____ _____    ______ ____

>  <TORSDO>
F 5

$$$$
=
 OpenBabel11052417413D

 31 36  0  0  1  0  0  0  0  0999 V2000
  190.7570  171.9040  141.8460 C   0  0  0  0  0  0  0  0  0  0  0  0
  191.7560  174.6900  144.1410 N   0  0  0  0  0  0  0  0  0  0  0  0
  193.1650  174.5520  144.4470 C   0  0  2  0  0  3  0  0  0  0  0  0
  194.9500  173.0510  145.3660 C   0  0  0  0  0  2  0  0  0  0  0  0
  191.0000  173.8770  143.2390 C   0  0  0  0  0  0  0  0  0  0  0  0
  189.5170  172.3750  141.4000 C   0  0  0  0  0  3  0  0  0  0  0  0
  193.4570  173.4020  145.3960 C   0  0  0  0  0  2  0  0  0  0  0  0
  189.8070  176.3240  144.3240 C   0  0  2  0  0  3  0  0  0  0  0  0
  191.2470  170.7320  141.3720 F   0  0  0  0  0  0  0  0  0  0  0  0
  192.3870  176.8510  145.0100 C   0  0  2  0  0  3  0  0  0  0  0  0
  195.8780  174.2160  145.7630 C   0  0  0  0  0  2  0  0  0  0  0  0
  189.2190  175.5590  143.2620 O   0  0  0  0  0  0  0  0  0  0  0  0
  191.3120  176.0370  144.4170 C   0  0  1  0  0  0  0  0  0  0  0  0
  191.5030  172.6560  142.7590 C   0  0  0  0  0  3  0  0  0  0  0  0
  195.9770  175.2800  144.6520 C   0  0  0  0  0  2  0  0  0  0  0  0
  189.7400  174.3350  142.8020 C   0  0  0  0  0  0  0  0  0  0  0  0
  189.0120  173.5860  141.8760 C   0  0  0  0  0  3  0  0  0  0  0  0
  192.0380  176.9690  143.6490 O   0  0  0  0  0  0  0  0  0  0  0  0
  193.5340  175.8430  145.1750 C   0  0  2  0  0  3  0  0  0  0  0  0
  194.8930  176.3750  144.7280 C   0  0  0  0  0  2  0  0  0  0  0  0
  189.3630  177.1630  146.6730 C   0  0  0  0  0  2  0  0  0  0  0  0
  188.0420  177.2830  145.9380 C   0  0  1  0  0  3  0  0  0  0  0  0
  188.9880  176.1350  145.6160 C   0  0  1  0  0  3  0  0  0  0  0  0
  186.9220  176.7390  146.8050 C   0  0  0  0  0  2  0  0  0  0  0  0
  185.5670  176.7920  146.1010 C   0  0  0  0  0  2  0  0  0  0  0  0
  184.4230  178.6400  147.0600 O   0  0  0  0  0  0  0  0  0  0  0  0
  184.9830  178.1770  146.0310 C   0  0  0  0  0  0  0  0  0  0  0  0
  185.0480  178.9890  144.8520 N   0  0  0  0  0  2  0  0  0  0  0  0
  185.2760  178.5510  143.5060 C   0  0  0  0  0  0  0  0  0  0  0  0
  186.5790  178.6980  142.9500 N   0  0  0  0  0  1  0  0  0  0  0  0
  184.0130  178.2910  142.4910 S   0  0  0  0  0  0  0  0  0  0  0  0
  1 14  1  0  0  0  0
  2 13  1  0  0  0  0
  2  3  1  0  0  0  0
  3 19  1  0  0  0  0
  3  7  1  1  0  0  0
  4  7  1  0  0  0  0
  4 11  1  0  0  0  0
  5  2  1  0  0  0  0
  6  1  2  0  0  0  0
  6 17  1  0  0  0  0
  8 12  1  6  0  0  0
  8 13  1  0  0  0  0
  8 23  1  0  0  0  0
  9  1  1  0  0  0  0
 10 18  1  6  0  0  0
 10 19  1  0  0  0  0
 13 18  1  6  0  0  0
 13 10  1  0  0  0  0
 14  5  2  0  0  0  0
 15 20  1  0  0  0  0
 15 11  1  0  0  0  0
 16  5  1  0  0  0  0
 16 12  1  0  0  0  0
 17 16  2  0  0  0  0
 19 20  1  6  0  0  0
 22 21  1  0  0  0  0
 22 24  1  1  0  0  0
 23 22  1  0  0  0  0
 23 21  1  1  0  0  0
 25 24  1  0  0  0  0
 27 25  1  0  0  0  0
 27 26  2  0  0  0  0
 28 27  1  0  0  0  0
 29 28  1  0  0  0  0
 30 29  1  0  0  0  0
 31 29  2  0  0  0  0
M  END
>  <MODEL>
6

>  <REMARK>
 VINA RESULT:      -7.3      2.871      7.032
  Name = 
  5 active torsions:
  status: ('A' for Active; 'I' for Inactive)
    1  A    between atoms: C_1  and  N_24
    2  A    between atoms: C_3  and  C_9
    3  A    between atoms: C_3  and  C_22
    4  A    between atoms: C_15  and  C_23
    5  A    between atoms: C_19  and  C_22
                            x       y       z     vdW  Elec       q    Type
                         _______ _______ _______ _____ _____    ______ ____

>  <TORSDO>
F 5

$$$$
=
 OpenBabel11052417413D

 31 36  0  0  1  0  0  0  0  0999 V2000
  191.3710  176.8710  147.7920 C   0  0  0  0  0  0  0  0  0  0  0  0
  188.6180  176.5900  145.2680 N   0  0  0  0  0  0  0  0  0  0  0  0
  187.4930  177.3810  145.7230 C   0  0  2  0  0  3  0  0  0  0  0  0
  185.8570  177.7840  147.5780 C   0  0  0  0  0  2  0  0  0  0  0  0
  189.8970  176.4900  145.9020 C   0  0  0  0  0  0  0  0  0  0  0  0
  192.4440  176.3570  147.0550 C   0  0  0  0  0  3  0  0  0  0  0  0
  186.7550  176.7480  146.8900 C   0  0  0  0  0  2  0  0  0  0  0  0
  189.5190  175.3610  143.2230 C   0  0  2  0  0  3  0  0  0  0  0  0
  191.5710  177.3230  149.0540 F   0  0  0  0  0  0  0  0  0  0  0  0
  187.2570  176.8710  143.2950 C   0  0  2  0  0  3  0  0  0  0  0  0
  184.7950  178.4090  146.6510 C   0  0  0  0  0  2  0  0  0  0  0  0
  190.8020  175.4970  143.8520 O   0  0  0  0  0  0  0  0  0  0  0  0
  188.5130  176.3350  143.8500 C   0  0  1  0  0  0  0  0  0  0  0  0
  190.1000  176.9450  147.2150 C   0  0  0  0  0  3  0  0  0  0  0  0
  185.4120  179.4170  145.6620 C   0  0  0  0  0  2  0  0  0  0  0  0
  190.9780  175.9520  145.1730 C   0  0  0  0  0  0  0  0  0  0  0  0
  192.2470  175.9000  145.7500 C   0  0  0  0  0  3  0  0  0  0  0  0
  188.4850  177.5440  143.1270 O   0  0  0  0  0  0  0  0  0  0  0  0
  186.5300  177.4050  144.5380 C   0  0  2  0  0  3  0  0  0  0  0  0
  185.9070  178.7850  144.3440 C   0  0  0  0  0  2  0  0  0  0  0  0
  188.2010  173.5680  142.0120 C   0  0  0  0  0  2  0  0  0  0  0  0
  189.6430  173.0990  141.9940 C   0  0  1  0  0  3  0  0  0  0  0  0
  189.1120  173.8740  143.1920 C   0  0  1  0  0  3  0  0  0  0  0  0
  189.7100  171.6330  142.3770 C   0  0  0  0  0  2  0  0  0  0  0  0
  191.0110  170.9740  141.9210 C   0  0  0  0  0  2  0  0  0  0  0  0
  190.8820  168.6500  141.4450 O   0  0  0  0  0  0  0  0  0  0  0  0
  190.8000  169.8190  140.9800 C   0  0  0  0  0  0  0  0  0  0  0  0
  190.4980  169.9930  139.5910 N   0  0  0  0  0  2  0  0  0  0  0  0
  190.7280  171.1600  138.7910 C   0  0  0  0  0  0  0  0  0  0  0  0
  189.6080  171.9230  138.3530 N   0  0  0  0  0  1  0  0  0  0  0  0
  192.1720  171.3840  138.0430 S   0  0  0  0  0  0  0  0  0  0  0  0
  1  9  1  0  0  0  0
  2  3  1  0  0  0  0
  2  5  1  0  0  0  0
  3  7  1  1  0  0  0
  5 14  2  0  0  0  0
  6  1  2  0  0  0  0
  7  4  1  0  0  0  0
  8 13  1  0  0  0  0
  8 12  1  1  0  0  0
 10 18  1  6  0  0  0
 10 13  1  0  0  0  0
 10 19  1  0  0  0  0
 11  4  1  0  0  0  0
 12 16  1  0  0  0  0
 13 18  1  6  0  0  0
 13  2  1  0  0  0  0
 14  1  1  0  0  0  0
 15 11  1  0  0  0  0
 16 17  2  0  0  0  0
 16  5  1  0  0  0  0
 17  6  1  0  0  0  0
 19 20  1  6  0  0  0
 19  3  1  0  0  0  0
 20 15  1  0  0  0  0
 22 21  1  0  0  0  0
 22 24  1  1  0  0  0
 22 23  1  0  0  0  0
 23 21  1  6  0  0  0
 23  8  1  0  0  0  0
 25 24  1  0  0  0  0
 27 26  2  0  0  0  0
 27 25  1  0  0  0  0
 28 27  1  0  0  0  0
 29 28  1  0  0  0  0
 30 29  1  0  0  0  0
 31 29  2  0  0  0  0
M  END
>  <MODEL>
7

>  <REMARK>
 VINA RESULT:      -7.3      3.497      5.314
  Name = 
  5 active torsions:
  status: ('A' for Active; 'I' for Inactive)
    1  A    between atoms: C_1  and  N_24
    2  A    between atoms: C_3  and  C_9
    3  A    between atoms: C_3  and  C_22
    4  A    between atoms: C_15  and  C_23
    5  A    between atoms: C_19  and  C_22
                            x       y       z     vdW  Elec       q    Type
                         _______ _______ _______ _____ _____    ______ ____

>  <TORSDO>
F 5

$$$$
=
 OpenBabel11052417413D

 31 36  0  0  1  0  0  0  0  0999 V2000
  192.8080  176.4150  146.6510 C   0  0  0  0  0  0  0  0  0  0  0  0
  191.2140  175.3810  143.4230 N   0  0  0  0  0  0  0  0  0  0  0  0
  192.2210  174.7530  142.5920 C   0  0  2  0  0  3  0  0  0  0  0  0
  194.4600  175.0100  141.4950 C   0  0  0  0  0  2  0  0  0  0  0  0
  191.3900  175.8480  144.7640 C   0  0  0  0  0  0  0  0  0  0  0  0
  191.6700  176.6720  147.4240 C   0  0  0  0  0  3  0  0  0  0  0  0
  193.2150  175.7440  142.0110 C   0  0  0  0  0  2  0  0  0  0  0  0
  188.6950  175.7290  143.6170 C   0  0  2  0  0  3  0  0  0  0  0  0
  194.0420  176.5470  147.1960 F   0  0  0  0  0  0  0  0  0  0  0  0
  189.9440  174.1890  141.7530 C   0  0  2  0  0  3  0  0  0  0  0  0
  194.1640  173.9660  140.3990 C   0  0  0  0  0  2  0  0  0  0  0  0
  188.9560  175.9790  145.0060 O   0  0  0  0  0  0  0  0  0  0  0  0
  189.8910  175.0150  142.9720 C   0  0  1  0  0  0  0  0  0  0  0  0
  192.6710  175.9970  145.3240 C   0  0  0  0  0  3  0  0  0  0  0  0
  193.5010  172.6990  140.9740 C   0  0  0  0  0  2  0  0  0  0  0  0
  190.2490  176.1290  145.5420 C   0  0  0  0  0  0  0  0  0  0  0  0
  190.3960  176.5280  146.8710 C   0  0  0  0  0  3  0  0  0  0  0  0
  189.7150  173.6180  143.0230 O   0  0  0  0  0  0  0  0  0  0  0  0
  191.4430  174.1550  141.4220 C   0  0  2  0  0  3  0  0  0  0  0  0
  191.9620  172.7690  141.0470 C   0  0  0  0  0  2  0  0  0  0  0  0
  187.4480  176.7360  141.6560 C   0  0  0  0  0  2  0  0  0  0  0  0
  186.7050  177.1960  142.8940 C   0  0  1  0  0  3  0  0  0  0  0  0
  188.2160  177.0260  142.9360 C   0  0  1  0  0  3  0  0  0  0  0  0
  186.4020  178.6790  142.7900 C   0  0  0  0  0  2  0  0  0  0  0  0
  185.9860  179.2820  144.1300 C   0  0  0  0  0  2  0  0  0  0  0  0
  183.6370  179.0390  143.8750 O   0  0  0  0  0  0  0  0  0  0  0  0
  184.6380  178.8120  144.6060 C   0  0  0  0  0  0  0  0  0  0  0  0
  184.4510  178.1100  145.8410 N   0  0  0  0  0  2  0  0  0  0  0  0
  185.3360  178.0820  146.9680 C   0  0  0  0  0  0  0  0  0  0  0  0
  185.6180  179.3010  147.6470 N   0  0  0  0  0  1  0  0  0  0  0  0
  186.3270  176.7970  147.2160 S   0  0  0  0  0  0  0  0  0  0  0  0
  1  9  1  0  0  0  0
  1  6  1  0  0  0  0
  2  5  1  0  0  0  0
  3  7  1  6  0  0  0
  3  2  1  0  0  0  0
  4  7  1  0  0  0  0
  5 14  1  0  0  0  0
  5 16  2  0  0  0  0
  8 12  1  1  0  0  0
 10 13  1  0  0  0  0
 10 18  1  1  0  0  0
 11 15  1  0  0  0  0
 11  4  1  0  0  0  0
 12 16  1  0  0  0  0
 13 18  1  1  0  0  0
 13  2  1  0  0  0  0
 13  8  1  0  0  0  0
 14  1  2  0  0  0  0
 15 20  1  0  0  0  0
 16 17  1  0  0  0  0
 17  6  2  0  0  0  0
 19 20  1  1  0  0  0
 19 10  1  0  0  0  0
 19  3  1  0  0  0  0
 21 22  1  0  0  0  0
 22 24  1  6  0  0  0
 22 23  1  0  0  0  0
 23 21  1  6  0  0  0
 23  8  1  0  0  0  0
 24 25  1  0  0  0  0
 25 27  1  0  0  0  0
 26 27  2  0  0  0  0
 27 28  1  0  0  0  0
 28 29  1  0  0  0  0
 29 31  2  0  0  0  0
 29 30  1  0  0  0  0
M  END
>  <MODEL>
8

>  <REMARK>
 VINA RESULT:      -6.8      3.326      7.674
  Name = 
  5 active torsions:
  status: ('A' for Active; 'I' for Inactive)
    1  A    between atoms: C_1  and  N_24
    2  A    between atoms: C_3  and  C_9
    3  A    between atoms: C_3  and  C_22
    4  A    between atoms: C_15  and  C_23
    5  A    between atoms: C_19  and  C_22
                            x       y       z     vdW  Elec       q    Type
                         _______ _______ _______ _____ _____    ______ ____

>  <TORSDO>
F 5

$$$$
=
 OpenBabel11052417413D

 31 36  0  0  1  0  0  0  0  0999 V2000
  191.0800  175.5190  147.6630 C   0  0  0  0  0  0  0  0  0  0  0  0
  192.2260  174.7340  144.1850 N   0  0  0  0  0  0  0  0  0  0  0  0
  193.6600  174.9290  144.1160 C   0  0  2  0  0  3  0  0  0  0  0  0
  195.5520  176.5360  144.4600 C   0  0  0  0  0  2  0  0  0  0  0  0
  191.4080  174.8510  145.3530 C   0  0  0  0  0  0  0  0  0  0  0  0
  189.7950  174.9660  147.6380 C   0  0  0  0  0  3  0  0  0  0  0  0
  194.0610  176.3940  144.1280 C   0  0  0  0  0  2  0  0  0  0  0  0
  190.2670  173.7290  142.8960 C   0  0  2  0  0  3  0  0  0  0  0  0
  191.5500  176.0910  148.7990 F   0  0  0  0  0  0  0  0  0  0  0  0
  192.8870  173.5620  142.1810 C   0  0  2  0  0  3  0  0  0  0  0  0
  196.4870  175.8150  143.4680 C   0  0  0  0  0  2  0  0  0  0  0  0
  189.6010  173.6970  144.1670 O   0  0  0  0  0  0  0  0  0  0  0  0
  191.7800  173.8980  143.0930 C   0  0  1  0  0  0  0  0  0  0  0  0
  191.8900  175.4570  146.5250 C   0  0  0  0  0  3  0  0  0  0  0  0
  196.4620  174.2860  143.6580 C   0  0  0  0  0  2  0  0  0  0  0  0
  190.1030  174.3160  145.3270 C   0  0  0  0  0  0  0  0  0  0  0  0
  189.3100  174.3660  146.4740 C   0  0  0  0  0  3  0  0  0  0  0  0
  192.4130  172.6400  143.1370 O   0  0  0  0  0  0  0  0  0  0  0  0
  194.0650  174.3600  142.7580 C   0  0  2  0  0  3  0  0  0  0  0  0
  195.3670  173.5670  142.8440 C   0  0  0  0  0  2  0  0  0  0  0  0
  188.8390  174.0620  140.8310 C   0  0  0  0  0  2  0  0  0  0  0  0
  188.0540  174.6720  141.9750 C   0  0  1  0  0  3  0  0  0  0  0  0
  189.5730  174.7490  141.9720 C   0  0  1  0  0  3  0  0  0  0  0  0
  187.5140  176.0290  141.5610 C   0  0  0  0  0  2  0  0  0  0  0  0
  186.3270  176.4670  142.4180 C   0  0  0  0  0  2  0  0  0  0  0  0
  185.9990  178.7360  141.7950 O   0  0  0  0  0  0  0  0  0  0  0  0
  186.3190  177.9410  142.7200 C   0  0  0  0  0  0  0  0  0  0  0  0
  186.6450  178.4720  144.0090 N   0  0  0  0  0  2  0  0  0  0  0  0
  187.3820  177.8250  145.0550 C   0  0  0  0  0  0  0  0  0  0  0  0
  188.7790  177.6090  144.8760 N   0  0  0  0  0  1  0  0  0  0  0  0
  186.6000  176.9790  146.2230 S   0  0  0  0  0  0  0  0  0  0  0  0
  1  9  1  0  0  0  0
  2  5  1  0  0  0  0
  3  7  1  6  0  0  0
  3  2  1  0  0  0  0
  5 14  1  0  0  0  0
  6  1  1  0  0  0  0
  7  4  1  0  0  0  0
  8 13  1  0  0  0  0
  8 12  1  1  0  0  0
 10 19  1  0  0  0  0
 10 13  1  0  0  0  0
 10 18  1  1  0  0  0
 11 15  1  0  0  0  0
 11  4  1  0  0  0  0
 12 16  1  0  0  0  0
 13 18  1  1  0  0  0
 13  2  1  0  0  0  0
 14  1  2  0  0  0  0
 16  5  2  0  0  0  0
 16 17  1  0  0  0  0
 17  6  2  0  0  0  0
 19 20  1  1  0  0  0
 19  3  1  0  0  0  0
 20 15  1  0  0  0  0
 21 22  1  0  0  0  0
 22 24  1  6  0  0  0
 23 21  1  6  0  0  0
 23 22  1  0  0  0  0
 23  8  1  0  0  0  0
 24 25  1  0  0  0  0
 25 27  1  0  0  0  0
 26 27  2  0  0  0  0
 27 28  1  0  0  0  0
 28 29  1  0  0  0  0
 29 31  2  0  0  0  0
 30 29  1  0  0  0  0
M  END
>  <MODEL>
9

>  <REMARK>
 VINA RESULT:      -6.7      3.104      7.589
  Name = 
  5 active torsions:
  status: ('A' for Active; 'I' for Inactive)
    1  A    between atoms: C_1  and  N_24
    2  A    between atoms: C_3  and  C_9
    3  A    between atoms: C_3  and  C_22
    4  A    between atoms: C_15  and  C_23
    5  A    between atoms: C_19  and  C_22
                            x       y       z     vdW  Elec       q    Type
                         _______ _______ _______ _____ _____    ______ ____

>  <TORSDO>
F 5

$$$$
