=
 OpenBabel11052420403D

 34 39  0  0  1  0  0  0  0  0999 V2000
  189.2310  177.6470  143.9040 C   0  0  1  0  0  3  0  0  0  0  0  0
  190.0120  175.9010  145.6460 C   0  0  1  0  0  3  0  0  0  0  0  0
  188.0920  177.3860  146.2200 C   0  0  2  0  0  3  0  0  0  0  0  0
  187.3760  177.5090  142.5650 C   0  0  1  0  0  0  0  0  0  0  0  0
  188.7880  177.6510  142.5550 O   0  0  0  0  0  0  0  0  0  0  0  0
  186.9730  177.1460  143.9860 C   0  0  2  0  0  3  0  0  0  0  0  0
  185.3130  178.8120  144.5600 O   0  0  0  0  0  1  0  0  0  0  0  0
  185.5560  177.4370  144.4690 C   0  0  2  0  0  3  0  0  0  0  0  0
  186.7990  178.7310  142.2040 O   0  0  0  0  0  1  0  0  0  0  0  0
  186.7440  177.5420  146.9330 C   0  0  0  0  0  2  0  0  0  0  0  0
  188.0040  177.8610  144.7730 C   0  0  2  0  0  3  0  0  0  0  0  0
  185.3570  176.6570  146.1100 S   0  0  0  0  0  0  0  0  0  0  0  0
  191.0900  176.6960  146.3920 C   0  0  0  0  0  2  0  0  0  0  0  0
  192.3060  176.8620  145.4750 C   0  0  2  0  0  3  0  0  0  0  0  0
  191.7320  176.5390  143.7840 P   0  0  2  0  0  0  0  0  0  0  0  0
  188.6480  175.9750  146.3230 C   0  0  0  0  0  2  0  0  0  0  0  0
  191.9810  177.7330  142.8900 O   0  0  0  0  0  0  0  0  0  0  0  0
  189.9840  176.3220  144.1720 C   0  0  2  0  0  3  0  0  0  0  0  0
  187.4980  176.6300  140.2340 N   0  0  0  0  0  0  0  0  0  0  0  0
  187.2180  174.9950  142.1610 C   0  0  0  0  0  2  0  0  0  0  0  0
  189.3540  173.7060  139.1290 C   0  0  1  0  0  3  0  0  0  0  0  0
  188.0610  172.9730  139.4600 C   0  0  0  0  0  2  0  0  0  0  0  0
  187.4360  175.4200  139.4150 C   0  0  0  0  0  2  0  0  0  0  0  0
  188.4620  174.3550  141.5520 C   0  0  0  0  0  2  0  0  0  0  0  0
  188.3120  174.3460  140.0360 C   0  0  2  0  0  0  0  0  0  0  0  0
  186.9330  176.4050  141.5840 C   0  0  1  0  0  3  0  0  0  0  0  0
  186.7070  177.5370  139.6150 O   0  0  0  0  0  1  0  0  0  0  0  0
  190.5030  173.0800  139.9010 C   0  0  0  0  0  2  0  0  0  0  0  0
  192.0750  173.5470  139.1190 S   0  0  0  0  0  1  0  0  0  0  0  0
  193.5020  175.9900  145.8760 C   0  0  0  0  0  3  0  0  0  0  0  0
  193.1090  174.7570  146.6750 C   0  0  0  0  0  1  0  0  0  0  0  0
  194.5040  176.8080  146.6660 C   0  0  0  0  0  1  0  0  0  0  0  0
  191.8350  173.8790  143.2460 C   0  0  0  0  0  2  0  0  0  0  0  0
  192.4300  175.0520  143.0690 C   0  0  0  0  0  3  0  0  0  0  0  0
  1  5  1  6  0  0  0
  1 18  1  0  0  0  0
  1 11  1  0  0  0  0
  2 16  1  1  0  0  0
  2 13  1  0  0  0  0
  3 16  1  6  0  0  0
  3 10  1  0  0  0  0
  4  9  1  6  0  0  0
  4  6  1  0  0  0  0
  5  4  1  0  0  0  0
  6  8  1  0  0  0  0
  6 11  1  0  0  0  0
  8  7  1  0  0  0  0
  8 12  1  0  0  0  0
 11  3  1  0  0  0  0
 12 10  1  0  0  0  0
 14 30  1  0  0  0  0
 14 13  1  0  0  0  0
 15 18  1  0  0  0  0
 15 14  1  0  0  0  0
 17 15  2  0  0  0  0
 18  2  1  0  0  0  0
 19 26  1  0  0  0  0
 21 22  1  0  0  0  0
 21 28  1  0  0  0  0
 21 25  1  0  0  0  0
 22 25  1  0  0  0  0
 23 25  1  0  0  0  0
 23 19  1  0  0  0  0
 24 20  1  0  0  0  0
 25 24  1  0  0  0  0
 26 20  1  0  0  0  0
 26  4  1  0  0  0  0
 27 19  1  0  0  0  0
 29 28  1  0  0  0  0
 30 32  1  0  0  0  0
 30 31  1  0  0  0  0
 34 33  2  0  0  0  0
 34 15  1  0  0  0  0
M  END
>  <MODEL>
1

>  <REMARK>
 VINA RESULT:      -7.8      0.000      0.000
  Name = 
  4 active torsions:
  status: ('A' for Active; 'I' for Inactive)
    1  A    between atoms: C_3  and  C_25
    2  A    between atoms: C_7  and  C_11
    3  A    between atoms: C_8  and  C_30
    4  A    between atoms: P_27  and  C_29
                            x       y       z     vdW  Elec       q    Type
                         _______ _______ _______ _____ _____    ______ ____

>  <TORSDO>
F 4

$$$$
=
 OpenBabel11052420403D

 34 39  0  0  1  0  0  0  0  0999 V2000
  189.0590  174.3130  143.8520 C   0  0  1  0  0  3  0  0  0  0  0  0
  189.2830  175.1410  141.4110 C   0  0  1  0  0  3  0  0  0  0  0  0
  187.2400  175.7620  142.7010 C   0  0  2  0  0  3  0  0  0  0  0  0
  189.3700  175.5560  145.7520 C   0  0  1  0  0  0  0  0  0  0  0  0
  189.8060  174.3970  145.0560 O   0  0  0  0  0  0  0  0  0  0  0  0
  188.4930  176.3480  144.7970 C   0  0  2  0  0  3  0  0  0  0  0  0
  186.4310  176.6590  146.0260 O   0  0  0  0  0  1  0  0  0  0  0  0
  187.4590  177.3240  145.3500 C   0  0  2  0  0  3  0  0  0  0  0  0
  188.6230  175.1560  146.8650 O   0  0  0  0  0  1  0  0  0  0  0  0
  186.1620  176.8110  142.9940 C   0  0  0  0  0  2  0  0  0  0  0  0
  187.8830  175.2640  143.9920 C   0  0  2  0  0  3  0  0  0  0  0  0
  186.7740  178.2660  143.9410 S   0  0  0  0  0  0  0  0  0  0  0  0
  188.6670  173.9630  140.6460 C   0  0  0  0  0  2  0  0  0  0  0  0
  189.6290  172.7730  140.7150 C   0  0  2  0  0  3  0  0  0  0  0  0
  190.7670  173.0990  142.0890 P   0  0  2  0  0  0  0  0  0  0  0  0
  188.2760  176.2490  141.7010 C   0  0  0  0  0  2  0  0  0  0  0  0
  190.7010  171.9960  143.1210 O   0  0  0  0  0  0  0  0  0  0  0  0
  190.0000  174.6270  142.6650 C   0  0  2  0  0  3  0  0  0  0  0  0
  191.5630  175.5840  146.9420 N   0  0  0  0  0  0  0  0  0  0  0  0
  191.1770  177.2000  145.0160 C   0  0  0  0  0  2  0  0  0  0  0  0
  194.8450  175.8530  145.4020 C   0  0  1  0  0  3  0  0  0  0  0  0
  194.6080  177.3500  145.5620 C   0  0  0  0  0  2  0  0  0  0  0  0
  192.8630  176.2480  147.0200 C   0  0  0  0  0  2  0  0  0  0  0  0
  192.4530  176.5630  144.4730 C   0  0  0  0  0  2  0  0  0  0  0  0
  193.4390  176.3950  145.6230 C   0  0  2  0  0  0  0  0  0  0  0  0
  190.5750  176.4050  146.2030 C   0  0  1  0  0  3  0  0  0  0  0  0
  191.1220  175.4810  148.2180 O   0  0  0  0  0  1  0  0  0  0  0  0
  195.1350  175.5400  143.9450 C   0  0  0  0  0  2  0  0  0  0  0  0
  195.6980  173.8180  143.8020 S   0  0  0  0  0  1  0  0  0  0  0  0
  190.3540  172.4910  139.3930 C   0  0  0  0  0  3  0  0  0  0  0  0
  189.6200  173.0330  138.1750 C   0  0  0  0  0  1  0  0  0  0  0  0
  190.5810  171.0020  139.2270 C   0  0  0  0  0  1  0  0  0  0  0  0
  192.8500  174.5860  141.1800 C   0  0  0  0  0  2  0  0  0  0  0  0
  192.4570  173.3770  141.5610 C   0  0  0  0  0  3  0  0  0  0  0  0
  1 11  1  0  0  0  0
  1  5  1  1  0  0  0
  2 13  1  1  0  0  0
  2 16  1  0  0  0  0
  2 18  1  0  0  0  0
  3 16  1  6  0  0  0
  3 10  1  0  0  0  0
  3 11  1  0  0  0  0
  4 26  1  0  0  0  0
  4  9  1  1  0  0  0
  5  4  1  0  0  0  0
  6  8  1  0  0  0  0
  6  4  1  0  0  0  0
  8  7  1  0  0  0  0
 10 12  1  0  0  0  0
 11  6  1  0  0  0  0
 12  8  1  0  0  0  0
 13 14  1  0  0  0  0
 14 15  1  0  0  0  0
 15 18  1  0  0  0  0
 15 17  2  0  0  0  0
 18  1  1  0  0  0  0
 19 23  1  0  0  0  0
 19 27  1  0  0  0  0
 20 26  1  0  0  0  0
 21 22  1  0  0  0  0
 21 25  1  0  0  0  0
 22 25  1  0  0  0  0
 24 20  1  0  0  0  0
 24 25  1  0  0  0  0
 25 23  1  0  0  0  0
 26 19  1  0  0  0  0
 28 21  1  0  0  0  0
 29 28  1  0  0  0  0
 30 14  1  0  0  0  0
 31 30  1  0  0  0  0
 32 30  1  0  0  0  0
 33 34  2  0  0  0  0
 34 15  1  0  0  0  0
M  END
>  <MODEL>
2

>  <REMARK>
 VINA RESULT:      -7.1      2.952      6.089
  Name = 
  4 active torsions:
  status: ('A' for Active; 'I' for Inactive)
    1  A    between atoms: C_3  and  C_25
    2  A    between atoms: C_7  and  C_11
    3  A    between atoms: C_8  and  C_30
    4  A    between atoms: P_27  and  C_29
                            x       y       z     vdW  Elec       q    Type
                         _______ _______ _______ _____ _____    ______ ____

>  <TORSDO>
F 4

$$$$
=
 OpenBabel11052420403D

 34 39  0  0  1  0  0  0  0  0999 V2000
  191.2240  174.8390  143.2400 C   0  0  1  0  0  3  0  0  0  0  0  0
  190.5240  172.4870  144.0570 C   0  0  1  0  0  3  0  0  0  0  0  0
  190.6750  174.3350  145.7250 C   0  0  2  0  0  3  0  0  0  0  0  0
  189.8470  176.6430  142.9190 C   0  0  1  0  0  0  0  0  0  0  0  0
  190.7810  175.7870  142.2790 O   0  0  0  0  0  0  0  0  0  0  0  0
  189.5200  176.0210  144.2670 C   0  0  2  0  0  3  0  0  0  0  0  0
  189.9680  177.7990  145.8480 O   0  0  0  0  0  1  0  0  0  0  0  0
  188.9960  176.8990  145.3990 C   0  0  2  0  0  3  0  0  0  0  0  0
  190.4390  177.8960  143.1030 O   0  0  0  0  0  1  0  0  0  0  0  0
  190.1150  174.9800  146.9980 C   0  0  0  0  0  2  0  0  0  0  0  0
  190.8020  175.3610  144.6030 C   0  0  2  0  0  3  0  0  0  0  0  0
  188.4830  175.7980  146.7650 S   0  0  0  0  0  0  0  0  0  0  0  0
  191.8920  171.8610  144.3500 C   0  0  0  0  0  2  0  0  0  0  0  0
  192.6040  171.5860  143.0220 C   0  0  2  0  0  3  0  0  0  0  0  0
  191.7760  172.5990  141.7660 P   0  0  2  0  0  0  0  0  0  0  0  0
  189.8830  173.1130  145.2910 C   0  0  0  0  0  2  0  0  0  0  0  0
  192.7530  173.5430  141.1010 O   0  0  0  0  0  0  0  0  0  0  0  0
  190.6390  173.4550  142.8740 C   0  0  2  0  0  3  0  0  0  0  0  0
  187.4750  175.9380  142.6020 N   0  0  0  0  0  0  0  0  0  0  0  0
  188.1800  178.2720  141.8810 C   0  0  0  0  0  2  0  0  0  0  0  0
  184.5220  177.9500  143.2720 C   0  0  1  0  0  3  0  0  0  0  0  0
  184.7050  178.3910  141.8250 C   0  0  0  0  0  2  0  0  0  0  0  0
  186.1720  176.3500  142.0810 C   0  0  0  0  0  2  0  0  0  0  0  0
  187.0330  178.6970  142.7930 C   0  0  0  0  0  2  0  0  0  0  0  0
  185.8570  177.7540  142.5660 C   0  0  2  0  0  0  0  0  0  0  0  0
  188.5680  176.7830  142.0690 C   0  0  1  0  0  3  0  0  0  0  0  0
  187.6780  174.6820  142.1390 O   0  0  0  0  0  1  0  0  0  0  0  0
  184.5060  179.1720  144.1740 C   0  0  0  0  0  2  0  0  0  0  0  0
  184.3500  178.6370  145.9030 S   0  0  0  0  0  1  0  0  0  0  0  0
  192.6590  170.0990  142.6500 C   0  0  0  0  0  3  0  0  0  0  0  0
  192.7850  169.1790  143.8550 C   0  0  0  0  0  1  0  0  0  0  0  0
  193.8060  169.8410  141.6930 C   0  0  0  0  0  1  0  0  0  0  0  0
  189.8990  172.1750  139.8490 C   0  0  0  0  0  2  0  0  0  0  0  0
  190.8920  171.6320  140.5440 C   0  0  0  0  0  3  0  0  0  0  0  0
  1  5  1  6  0  0  0
  1 11  1  0  0  0  0
  2 13  1  1  0  0  0
  2 16  1  0  0  0  0
  3 16  1  6  0  0  0
  3 10  1  0  0  0  0
  4  9  1  1  0  0  0
  4  6  1  0  0  0  0
  5  4  1  0  0  0  0
  6 11  1  0  0  0  0
  6  8  1  0  0  0  0
  8  7  1  0  0  0  0
  8 12  1  0  0  0  0
 11  3  1  0  0  0  0
 12 10  1  0  0  0  0
 14 13  1  0  0  0  0
 15 18  1  0  0  0  0
 15 14  1  0  0  0  0
 17 15  2  0  0  0  0
 18  1  1  0  0  0  0
 18  2  1  0  0  0  0
 20 26  1  0  0  0  0
 20 24  1  0  0  0  0
 21 28  1  0  0  0  0
 22 25  1  0  0  0  0
 22 21  1  0  0  0  0
 23 25  1  0  0  0  0
 23 19  1  0  0  0  0
 25 24  1  0  0  0  0
 25 21  1  0  0  0  0
 26 19  1  0  0  0  0
 26  4  1  0  0  0  0
 27 19  1  0  0  0  0
 28 29  1  0  0  0  0
 30 14  1  0  0  0  0
 30 31  1  0  0  0  0
 32 30  1  0  0  0  0
 33 34  2  0  0  0  0
 34 15  1  0  0  0  0
M  END
>  <MODEL>
3

>  <REMARK>
 VINA RESULT:      -6.9      2.857      5.151
  Name = 
  4 active torsions:
  status: ('A' for Active; 'I' for Inactive)
    1  A    between atoms: C_3  and  C_25
    2  A    between atoms: C_7  and  C_11
    3  A    between atoms: C_8  and  C_30
    4  A    between atoms: P_27  and  C_29
                            x       y       z     vdW  Elec       q    Type
                         _______ _______ _______ _____ _____    ______ ____

>  <TORSDO>
F 4

$$$$
=
 OpenBabel11052420403D

 34 39  0  0  1  0  0  0  0  0999 V2000
  191.9280  176.3010  143.9360 C   0  0  1  0  0  3  0  0  0  0  0  0
  193.3820  174.4430  144.9950 C   0  0  1  0  0  3  0  0  0  0  0  0
  191.8230  175.7230  146.4620 C   0  0  2  0  0  3  0  0  0  0  0  0
  189.6940  176.1740  143.4370 C   0  0  1  0  0  0  0  0  0  0  0  0
  190.9800  176.4140  142.8840 O   0  0  0  0  0  0  0  0  0  0  0  0
  189.9050  175.6390  144.8450 C   0  0  2  0  0  3  0  0  0  0  0  0
  188.5790  177.1160  146.2300 O   0  0  0  0  0  1  0  0  0  0  0  0
  188.7960  175.7790  145.8820 C   0  0  2  0  0  3  0  0  0  0  0  0
  188.9940  177.3830  143.4870 O   0  0  0  0  0  1  0  0  0  0  0  0
  190.8720  175.7100  147.6650 C   0  0  0  0  0  2  0  0  0  0  0  0
  191.1490  176.3380  145.2400 C   0  0  2  0  0  3  0  0  0  0  0  0
  189.2910  174.8200  147.3580 S   0  0  0  0  0  0  0  0  0  0  0  0
  194.6510  175.2290  145.3440 C   0  0  0  0  0  2  0  0  0  0  0  0
  195.3910  175.5740  144.0480 C   0  0  2  0  0  3  0  0  0  0  0  0
  194.1930  175.3890  142.6980 P   0  0  2  0  0  0  0  0  0  0  0  0
  192.4040  174.3510  146.1620 C   0  0  0  0  0  2  0  0  0  0  0  0
  194.0350  176.6830  141.9330 O   0  0  0  0  0  0  0  0  0  0  0  0
  192.7540  175.0110  143.7180 C   0  0  2  0  0  3  0  0  0  0  0  0
  188.7610  175.6230  141.1900 N   0  0  0  0  0  0  0  0  0  0  0  0
  189.5400  173.7350  142.7050 C   0  0  0  0  0  2  0  0  0  0  0  0
  190.0740  173.1640  138.8560 C   0  0  1  0  0  3  0  0  0  0  0  0
  189.1460  172.2140  139.6030 C   0  0  0  0  0  2  0  0  0  0  0  0
  188.4040  174.5290  140.2880 C   0  0  0  0  0  2  0  0  0  0  0  0
  190.3900  173.3650  141.4930 C   0  0  0  0  0  2  0  0  0  0  0  0
  189.5420  173.5260  140.2370 C   0  0  2  0  0  0  0  0  0  0  0  0
  188.9180  175.1490  142.5850 C   0  0  1  0  0  3  0  0  0  0  0  0
  187.7090  176.4750  141.1740 O   0  0  0  0  0  1  0  0  0  0  0  0
  191.4920  172.6200  138.8950 C   0  0  0  0  0  2  0  0  0  0  0  0
  192.6260  173.8540  138.1920 S   0  0  0  0  0  1  0  0  0  0  0  0
  196.6670  174.7510  143.8310 C   0  0  0  0  0  3  0  0  0  0  0  0
  197.2340  174.1660  145.1160 C   0  0  0  0  0  1  0  0  0  0  0  0
  197.7240  175.5950  143.1480 C   0  0  0  0  0  1  0  0  0  0  0  0
  194.0860  172.8230  141.8120 C   0  0  0  0  0  2  0  0  0  0  0  0
  194.5780  174.0360  141.5880 C   0  0  0  0  0  3  0  0  0  0  0  0
  1  5  1  6  0  0  0
  1 11  1  0  0  0  0
  2 13  1  1  0  0  0
  2 16  1  0  0  0  0
  3 16  1  6  0  0  0
  3 10  1  0  0  0  0
  4  9  1  1  0  0  0
  4  6  1  0  0  0  0
  5  4  1  0  0  0  0
  6 11  1  0  0  0  0
  6  8  1  0  0  0  0
  8  7  1  0  0  0  0
  8 12  1  0  0  0  0
 11  3  1  0  0  0  0
 12 10  1  0  0  0  0
 14 13  1  0  0  0  0
 15 18  1  0  0  0  0
 15 14  1  0  0  0  0
 17 15  2  0  0  0  0
 18  1  1  0  0  0  0
 18  2  1  0  0  0  0
 19 26  1  0  0  0  0
 21 28  1  0  0  0  0
 21 22  1  0  0  0  0
 21 25  1  0  0  0  0
 22 25  1  0  0  0  0
 23 19  1  0  0  0  0
 24 20  1  0  0  0  0
 25 23  1  0  0  0  0
 25 24  1  0  0  0  0
 26 20  1  0  0  0  0
 26  4  1  0  0  0  0
 27 19  1  0  0  0  0
 29 28  1  0  0  0  0
 30 14  1  0  0  0  0
 30 31  1  0  0  0  0
 32 30  1  0  0  0  0
 34 33  2  0  0  0  0
 34 15  1  0  0  0  0
M  END
>  <MODEL>
4

>  <REMARK>
 VINA RESULT:      -6.8      2.249      3.176
  Name = 
  4 active torsions:
  status: ('A' for Active; 'I' for Inactive)
    1  A    between atoms: C_3  and  C_25
    2  A    between atoms: C_7  and  C_11
    3  A    between atoms: C_8  and  C_30
    4  A    between atoms: P_27  and  C_29
                            x       y       z     vdW  Elec       q    Type
                         _______ _______ _______ _____ _____    ______ ____

>  <TORSDO>
F 4

$$$$
=
 OpenBabel11052420403D

 34 39  0  0  1  0  0  0  0  0999 V2000
  189.5730  175.1990  143.9400 C   0  0  1  0  0  3  0  0  0  0  0  0
  189.1340  177.6860  144.5000 C   0  0  1  0  0  3  0  0  0  0  0  0
  190.3400  176.2790  146.1700 C   0  0  2  0  0  3  0  0  0  0  0  0
  191.5640  174.2770  143.2750 C   0  0  1  0  0  0  0  0  0  0  0  0
  190.2050  174.4570  142.9060 O   0  0  0  0  0  0  0  0  0  0  0  0
  191.8250  175.1760  144.4730 C   0  0  2  0  0  3  0  0  0  0  0  0
  192.7300  173.6710  146.1400 O   0  0  0  0  0  1  0  0  0  0  0  0
  192.9690  174.8510  145.4280 C   0  0  2  0  0  3  0  0  0  0  0  0
  191.7590  172.9390  143.6320 O   0  0  0  0  0  1  0  0  0  0  0  0
  191.4260  176.1930  147.2480 C   0  0  0  0  0  2  0  0  0  0  0  0
  190.5030  175.1660  145.1410 C   0  0  2  0  0  3  0  0  0  0  0  0
  193.1420  176.2560  146.5860 S   0  0  0  0  0  0  0  0  0  0  0  0
  187.7480  177.5970  145.1510 C   0  0  0  0  0  2  0  0  0  0  0  0
  186.7130  177.2820  144.0670 C   0  0  2  0  0  3  0  0  0  0  0  0
  187.6290  176.6270  142.6440 P   0  0  2  0  0  0  0  0  0  0  0  0
  190.2690  177.6500  145.5190 C   0  0  0  0  0  2  0  0  0  0  0  0
  187.1520  175.2380  142.2860 O   0  0  0  0  0  0  0  0  0  0  0  0
  189.2630  176.6190  143.4080 C   0  0  2  0  0  3  0  0  0  0  0  0
  193.3270  175.8340  142.4450 N   0  0  0  0  0  0  0  0  0  0  0  0
  193.3130  173.4270  141.6250 C   0  0  0  0  0  2  0  0  0  0  0  0
  196.8570  175.0680  142.0340 C   0  0  1  0  0  3  0  0  0  0  0  0
  196.4230  174.6310  140.6400 C   0  0  0  0  0  2  0  0  0  0  0  0
  194.4760  175.9590  141.5490 C   0  0  0  0  0  2  0  0  0  0  0  0
  194.7510  173.4420  142.1350 C   0  0  0  0  0  2  0  0  0  0  0  0
  195.3950  174.7650  141.7370 C   0  0  2  0  0  0  0  0  0  0  0  0
  192.4980  174.6540  142.1080 C   0  0  1  0  0  3  0  0  0  0  0  0
  192.5660  176.9330  142.2270 O   0  0  0  0  0  1  0  0  0  0  0  0
  197.5690  173.9180  142.7250 C   0  0  0  0  0  2  0  0  0  0  0  0
  197.5940  174.2200  144.5170 S   0  0  0  0  0  1  0  0  0  0  0  0
  185.8200  178.4750  143.7040 C   0  0  0  0  0  3  0  0  0  0  0  0
  185.6020  179.4390  144.8600 C   0  0  0  0  0  1  0  0  0  0  0  0
  184.4790  177.9880  143.1910 C   0  0  0  0  0  1  0  0  0  0  0  0
  186.7670  177.4410  140.2010 C   0  0  0  0  0  2  0  0  0  0  0  0
  187.5840  177.7050  141.2130 C   0  0  0  0  0  3  0  0  0  0  0  0
  1  5  1  6  0  0  0
  1 11  1  0  0  0  0
  2 13  1  1  0  0  0
  2 16  1  0  0  0  0
  3 16  1  6  0  0  0
  3 10  1  0  0  0  0
  4  9  1  1  0  0  0
  4  6  1  0  0  0  0
  5  4  1  0  0  0  0
  6 11  1  0  0  0  0
  6  8  1  0  0  0  0
  8  7  1  0  0  0  0
  8 12  1  0  0  0  0
 11  3  1  0  0  0  0
 12 10  1  0  0  0  0
 14 13  1  0  0  0  0
 15 18  1  0  0  0  0
 15 14  1  0  0  0  0
 17 15  2  0  0  0  0
 18  1  1  0  0  0  0
 18  2  1  0  0  0  0
 20 26  1  0  0  0  0
 20 24  1  0  0  0  0
 21 28  1  0  0  0  0
 22 25  1  0  0  0  0
 22 21  1  0  0  0  0
 23 25  1  0  0  0  0
 23 19  1  0  0  0  0
 25 21  1  0  0  0  0
 25 24  1  0  0  0  0
 26 19  1  0  0  0  0
 26  4  1  0  0  0  0
 27 19  1  0  0  0  0
 28 29  1  0  0  0  0
 30 14  1  0  0  0  0
 30 31  1  0  0  0  0
 32 30  1  0  0  0  0
 33 34  2  0  0  0  0
 34 15  1  0  0  0  0
M  END
>  <MODEL>
5

>  <REMARK>
 VINA RESULT:      -6.8      3.353      6.425
  Name = 
  4 active torsions:
  status: ('A' for Active; 'I' for Inactive)
    1  A    between atoms: C_3  and  C_25
    2  A    between atoms: C_7  and  C_11
    3  A    between atoms: C_8  and  C_30
    4  A    between atoms: P_27  and  C_29
                            x       y       z     vdW  Elec       q    Type
                         _______ _______ _______ _____ _____    ______ ____

>  <TORSDO>
F 4

$$$$
=
 OpenBabel11052420403D

 34 39  0  0  1  0  0  0  0  0999 V2000
  191.9260  173.7120  143.2910 C   0  0  1  0  0  3  0  0  0  0  0  0
  194.2080  174.5350  142.3950 C   0  0  1  0  0  3  0  0  0  0  0  0
  192.9380  172.8530  141.0630 C   0  0  2  0  0  3  0  0  0  0  0  0
  189.8530  174.3360  142.5360 C   0  0  1  0  0  0  0  0  0  0  0  0
  190.6880  174.2870  143.6840 O   0  0  0  0  0  0  0  0  0  0  0  0
  190.7240  174.0050  141.3350 C   0  0  2  0  0  3  0  0  0  0  0  0
  189.5590  172.1740  140.2620 O   0  0  0  0  0  1  0  0  0  0  0  0
  190.0850  173.4560  140.0640 C   0  0  2  0  0  3  0  0  0  0  0  0
  188.8460  173.3760  142.6730 O   0  0  0  0  0  1  0  0  0  0  0  0
  192.5470  172.3240  139.6780 C   0  0  0  0  0  2  0  0  0  0  0  0
  191.7040  173.0690  141.9330 C   0  0  2  0  0  3  0  0  0  0  0  0
  191.3730  173.4110  138.7680 S   0  0  0  0  0  0  0  0  0  0  0  0
  195.1630  173.5480  143.0780 C   0  0  0  0  0  2  0  0  0  0  0  0
  195.2220  173.8730  144.5740 C   0  0  2  0  0  3  0  0  0  0  0  0
  193.7640  174.8850  144.9470 P   0  0  2  0  0  0  0  0  0  0  0  0
  193.8090  174.0960  140.9900 C   0  0  0  0  0  2  0  0  0  0  0  0
  192.9050  174.2300  146.0050 O   0  0  0  0  0  0  0  0  0  0  0  0
  193.0100  174.8150  143.3100 C   0  0  2  0  0  3  0  0  0  0  0  0
  187.8140  175.6470  141.9490 N   0  0  0  0  0  0  0  0  0  0  0  0
  189.4510  176.5970  143.6470 C   0  0  0  0  0  2  0  0  0  0  0  0
  185.6680  177.4460  144.2670 C   0  0  1  0  0  3  0  0  0  0  0  0
  186.6280  178.5970  143.9930 C   0  0  0  0  0  2  0  0  0  0  0  0
  187.1010  176.9030  142.1800 C   0  0  0  0  0  2  0  0  0  0  0  0
  188.2050  176.6790  144.5230 C   0  0  0  0  0  2  0  0  0  0  0  0
  187.0450  177.1820  143.6720 C   0  0  2  0  0  0  0  0  0  0  0  0
  189.2290  175.7370  142.3770 C   0  0  1  0  0  3  0  0  0  0  0  0
  187.8130  175.4640  140.6070 O   0  0  0  0  0  1  0  0  0  0  0  0
  185.6100  177.1800  145.7610 C   0  0  0  0  0  2  0  0  0  0  0  0
  184.3820  178.2850  146.5180 S   0  0  0  0  0  1  0  0  0  0  0  0
  196.5360  174.5340  145.0080 C   0  0  0  0  0  3  0  0  0  0  0  0
  197.5640  174.6240  143.8900 C   0  0  0  0  0  1  0  0  0  0  0  0
  197.1310  173.7920  146.1870 C   0  0  0  0  0  1  0  0  0  0  0  0
  194.1920  176.9290  146.6850 C   0  0  0  0  0  2  0  0  0  0  0  0
  194.1670  176.5700  145.4070 C   0  0  0  0  0  3  0  0  0  0  0  0
  1 18  1  0  0  0  0
  1  5  1  6  0  0  0
  2 16  1  6  0  0  0
  2 13  1  0  0  0  0
  2 18  1  0  0  0  0
  3 10  1  6  0  0  0
  3 11  1  0  0  0  0
  4  9  1  1  0  0  0
  4  5  1  0  0  0  0
  6 11  1  0  0  0  0
  6  4  1  0  0  0  0
  8  7  1  0  0  0  0
  8  6  1  0  0  0  0
 11  1  1  0  0  0  0
 12 10  1  0  0  0  0
 12  8  1  0  0  0  0
 13 14  1  0  0  0  0
 14 15  1  0  0  0  0
 14 30  1  0  0  0  0
 15 34  1  0  0  0  0
 15 17  2  0  0  0  0
 16  3  1  0  0  0  0
 18 15  1  0  0  0  0
 19 23  1  0  0  0  0
 19 26  1  0  0  0  0
 20 24  1  0  0  0  0
 21 28  1  0  0  0  0
 22 21  1  0  0  0  0
 23 25  1  0  0  0  0
 25 22  1  0  0  0  0
 25 21  1  0  0  0  0
 25 24  1  0  0  0  0
 26  4  1  0  0  0  0
 26 20  1  0  0  0  0
 27 19  1  0  0  0  0
 28 29  1  0  0  0  0
 30 32  1  0  0  0  0
 31 30  1  0  0  0  0
 34 33  2  0  0  0  0
M  END
>  <MODEL>
6

>  <REMARK>
 VINA RESULT:      -6.7      2.580      6.087
  Name = 
  4 active torsions:
  status: ('A' for Active; 'I' for Inactive)
    1  A    between atoms: C_3  and  C_25
    2  A    between atoms: C_7  and  C_11
    3  A    between atoms: C_8  and  C_30
    4  A    between atoms: P_27  and  C_29
                            x       y       z     vdW  Elec       q    Type
                         _______ _______ _______ _____ _____    ______ ____

>  <TORSDO>
F 4

$$$$
=
 OpenBabel11052420403D

 34 39  0  0  1  0  0  0  0  0999 V2000
  193.0150  176.3890  144.3450 C   0  0  1  0  0  3  0  0  0  0  0  0
  193.4820  173.8870  144.8080 C   0  0  1  0  0  3  0  0  0  0  0  0
  192.4330  175.2600  146.6070 C   0  0  2  0  0  3  0  0  0  0  0  0
  190.9820  177.3380  143.8750 C   0  0  1  0  0  0  0  0  0  0  0  0
  192.3040  177.1600  143.3880 O   0  0  0  0  0  0  0  0  0  0  0  0
  190.8170  176.4120  145.0690 C   0  0  2  0  0  3  0  0  0  0  0  0
  190.0680  177.8810  146.8420 O   0  0  0  0  0  1  0  0  0  0  0  0
  189.7610  176.7190  146.1250 C   0  0  2  0  0  3  0  0  0  0  0  0
  190.8280  178.6680  144.2780 O   0  0  0  0  0  1  0  0  0  0  0  0
  191.4420  175.3250  147.7750 C   0  0  0  0  0  2  0  0  0  0  0  0
  192.1910  176.3990  145.6210 C   0  0  2  0  0  3  0  0  0  0  0  0
  189.6760  175.2880  147.2600 S   0  0  0  0  0  0  0  0  0  0  0  0
  194.9190  173.9530  145.3400 C   0  0  0  0  0  2  0  0  0  0  0  0
  195.8600  174.2890  144.1800 C   0  0  2  0  0  3  0  0  0  0  0  0
  194.8320  174.9830  142.8560 P   0  0  2  0  0  0  0  0  0  0  0  0
  192.4380  173.9040  145.9200 C   0  0  0  0  0  2  0  0  0  0  0  0
  195.2870  176.3780  142.4920 O   0  0  0  0  0  0  0  0  0  0  0  0
  193.2680  174.9820  143.7550 C   0  0  2  0  0  3  0  0  0  0  0  0
  189.1030  175.8490  143.1880 N   0  0  0  0  0  0  0  0  0  0  0  0
  189.1490  178.2510  142.3530 C   0  0  0  0  0  2  0  0  0  0  0  0
  185.5840  176.7520  143.0350 C   0  0  1  0  0  3  0  0  0  0  0  0
  185.9300  177.1670  141.6100 C   0  0  0  0  0  2  0  0  0  0  0  0
  187.8870  175.7670  142.3790 C   0  0  0  0  0  2  0  0  0  0  0  0
  187.7540  178.2940  142.9700 C   0  0  0  0  0  2  0  0  0  0  0  0
  187.0310  176.9970  142.6290 C   0  0  2  0  0  0  0  0  0  0  0  0
  189.9490  176.9950  142.7830 C   0  0  1  0  0  3  0  0  0  0  0  0
  189.8020  174.7210  142.9200 O   0  0  0  0  0  1  0  0  0  0  0  0
  184.9710  177.9310  143.7700 C   0  0  0  0  0  2  0  0  0  0  0  0
  185.1600  177.6850  145.5610 S   0  0  0  0  0  1  0  0  0  0  0  0
  196.7110  173.1010  143.7140 C   0  0  0  0  0  3  0  0  0  0  0  0
  197.1310  172.1780  144.8490 C   0  0  0  0  0  1  0  0  0  0  0  0
  197.9410  173.5930  142.9790 C   0  0  0  0  0  1  0  0  0  0  0  0
  195.3060  174.3310  140.2620 C   0  0  0  0  0  2  0  0  0  0  0  0
  194.7480  173.9400  141.4010 C   0  0  0  0  0  3  0  0  0  0  0  0
  1  5  1  6  0  0  0
  1 11  1  0  0  0  0
  2 13  1  1  0  0  0
  2 16  1  0  0  0  0
  3 16  1  6  0  0  0
  3 10  1  0  0  0  0
  4  9  1  1  0  0  0
  4  6  1  0  0  0  0
  5  4  1  0  0  0  0
  6 11  1  0  0  0  0
  6  8  1  0  0  0  0
  8  7  1  0  0  0  0
  8 12  1  0  0  0  0
 11  3  1  0  0  0  0
 12 10  1  0  0  0  0
 14 13  1  0  0  0  0
 15 18  1  0  0  0  0
 15 14  1  0  0  0  0
 17 15  2  0  0  0  0
 18  1  1  0  0  0  0
 18  2  1  0  0  0  0
 20 26  1  0  0  0  0
 20 24  1  0  0  0  0
 21 28  1  0  0  0  0
 22 25  1  0  0  0  0
 22 21  1  0  0  0  0
 23 25  1  0  0  0  0
 23 19  1  0  0  0  0
 25 24  1  0  0  0  0
 25 21  1  0  0  0  0
 26 19  1  0  0  0  0
 26  4  1  0  0  0  0
 27 19  1  0  0  0  0
 28 29  1  0  0  0  0
 30 14  1  0  0  0  0
 30 31  1  0  0  0  0
 32 30  1  0  0  0  0
 33 34  2  0  0  0  0
 34 15  1  0  0  0  0
M  END
>  <MODEL>
7

>  <REMARK>
 VINA RESULT:      -6.6      3.004      4.874
  Name = 
  4 active torsions:
  status: ('A' for Active; 'I' for Inactive)
    1  A    between atoms: C_3  and  C_25
    2  A    between atoms: C_7  and  C_11
    3  A    between atoms: C_8  and  C_30
    4  A    between atoms: P_27  and  C_29
                            x       y       z     vdW  Elec       q    Type
                         _______ _______ _______ _____ _____    ______ ____

>  <TORSDO>
F 4

$$$$
=
 OpenBabel11052420403D

 34 39  0  0  1  0  0  0  0  0999 V2000
  191.1420  176.0870  142.9500 C   0  0  1  0  0  3  0  0  0  0  0  0
  188.9430  175.1930  143.9780 C   0  0  1  0  0  3  0  0  0  0  0  0
  189.7380  174.2190  141.8230 C   0  0  2  0  0  3  0  0  0  0  0  0
  193.1850  175.0480  142.9720 C   0  0  1  0  0  0  0  0  0  0  0  0
  192.4980  176.2330  143.3470 O   0  0  0  0  0  0  0  0  0  0  0  0
  192.1330  174.0340  142.5550 C   0  0  2  0  0  3  0  0  0  0  0  0
  192.8310  173.3550  140.3380 O   0  0  0  0  0  1  0  0  0  0  0  0
  192.5120  172.8910  141.6190 C   0  0  2  0  0  3  0  0  0  0  0  0
  194.0220  175.3390  141.8910 O   0  0  0  0  0  1  0  0  0  0  0  0
  189.8640  172.9800  140.9300 C   0  0  0  0  0  2  0  0  0  0  0  0
  191.0860  174.9140  141.9860 C   0  0  2  0  0  3  0  0  0  0  0  0
  191.0890  171.7460  141.5330 S   0  0  0  0  0  0  0  0  0  0  0  0
  187.9220  176.1660  143.3750 C   0  0  0  0  0  2  0  0  0  0  0  0
  188.0990  177.5370  144.0340 C   0  0  2  0  0  3  0  0  0  0  0  0
  189.7430  177.5410  144.8020 P   0  0  2  0  0  0  0  0  0  0  0  0
  189.0910  173.9120  143.1630 C   0  0  0  0  0  2  0  0  0  0  0  0
  190.5970  178.6590  144.2490 O   0  0  0  0  0  0  0  0  0  0  0  0
  190.2720  175.9180  144.2180 C   0  0  2  0  0  3  0  0  0  0  0  0
  193.2580  173.4870  144.9160 N   0  0  0  0  0  0  0  0  0  0  0  0
  195.4130  174.0290  143.6810 C   0  0  0  0  0  2  0  0  0  0  0  0
  195.1430  170.3850  145.1190 C   0  0  1  0  0  3  0  0  0  0  0  0
  196.2450  171.2900  145.6560 C   0  0  0  0  0  2  0  0  0  0  0  0
  194.1400  172.6830  145.7620 C   0  0  0  0  0  2  0  0  0  0  0  0
  195.5040  172.5110  143.5560 C   0  0  0  0  0  2  0  0  0  0  0  0
  195.0920  171.8890  144.8850 C   0  0  2  0  0  0  0  0  0  0  0  0
  194.0160  174.5050  144.1520 C   0  0  1  0  0  3  0  0  0  0  0  0
  192.4380  174.1520  145.7640 O   0  0  0  0  0  1  0  0  0  0  0  0
  195.6610  169.6190  143.9140 C   0  0  0  0  0  2  0  0  0  0  0  0
  194.2580  168.8900  143.0190 S   0  0  0  0  0  1  0  0  0  0  0  0
  186.9790  177.8950  145.0190 C   0  0  0  0  0  3  0  0  0  0  0  0
  186.1360  176.6980  145.4340 C   0  0  0  0  0  1  0  0  0  0  0  0
  186.0840  178.9660  144.4290 C   0  0  0  0  0  1  0  0  0  0  0  0
  190.4290  176.7700  147.3140 C   0  0  0  0  0  2  0  0  0  0  0  0
  189.6910  177.6040  146.5920 C   0  0  0  0  0  3  0  0  0  0  0  0
  1  5  1  1  0  0  0
  1 18  1  0  0  0  0
  2 16  1  6  0  0  0
  2 18  1  0  0  0  0
  3 10  1  1  0  0  0
  3 11  1  0  0  0  0
  3 16  1  0  0  0  0
  4  9  1  6  0  0  0
  4  5  1  0  0  0  0
  4 26  1  0  0  0  0
  6  4  1  0  0  0  0
  7  8  1  0  0  0  0
  8  6  1  0  0  0  0
 10 12  1  0  0  0  0
 11  6  1  0  0  0  0
 11  1  1  0  0  0  0
 12  8  1  0  0  0  0
 13  2  1  0  0  0  0
 13 14  1  0  0  0  0
 14 15  1  0  0  0  0
 14 30  1  0  0  0  0
 15 34  1  0  0  0  0
 17 15  2  0  0  0  0
 18 15  1  0  0  0  0
 19 23  1  0  0  0  0
 19 27  1  0  0  0  0
 20 26  1  0  0  0  0
 21 22  1  0  0  0  0
 24 20  1  0  0  0  0
 24 25  1  0  0  0  0
 25 21  1  0  0  0  0
 25 22  1  0  0  0  0
 25 23  1  0  0  0  0
 26 19  1  0  0  0  0
 28 21  1  0  0  0  0
 29 28  1  0  0  0  0
 30 31  1  0  0  0  0
 32 30  1  0  0  0  0
 34 33  2  0  0  0  0
M  END
>  <MODEL>
8

>  <REMARK>
 VINA RESULT:      -6.4      3.228      6.948
  Name = 
  4 active torsions:
  status: ('A' for Active; 'I' for Inactive)
    1  A    between atoms: C_3  and  C_25
    2  A    between atoms: C_7  and  C_11
    3  A    between atoms: C_8  and  C_30
    4  A    between atoms: P_27  and  C_29
                            x       y       z     vdW  Elec       q    Type
                         _______ _______ _______ _____ _____    ______ ____

>  <TORSDO>
F 4

$$$$
=
 OpenBabel11052420403D

 34 39  0  0  1  0  0  0  0  0999 V2000
  192.3830  174.2300  145.0240 C   0  0  1  0  0  3  0  0  0  0  0  0
  191.3170  176.4610  144.2650 C   0  0  1  0  0  3  0  0  0  0  0  0
  193.5580  176.5180  145.3590 C   0  0  2  0  0  3  0  0  0  0  0  0
  194.0790  173.0970  143.9780 C   0  0  1  0  0  0  0  0  0  0  0  0
  192.7390  172.9880  144.4350 O   0  0  0  0  0  0  0  0  0  0  0  0
  194.4650  174.5650  144.0700 C   0  0  2  0  0  3  0  0  0  0  0  0
  196.4950  174.5470  145.3900 O   0  0  0  0  0  1  0  0  0  0  0  0
  195.9350  174.9560  144.1740 C   0  0  2  0  0  3  0  0  0  0  0  0
  194.9010  172.3340  144.8130 O   0  0  0  0  0  1  0  0  0  0  0  0
  194.9430  177.1700  145.4410 C   0  0  0  0  0  2  0  0  0  0  0  0
  193.6730  175.0020  145.2430 C   0  0  2  0  0  3  0  0  0  0  0  0
  196.0390  176.7740  144.0180 S   0  0  0  0  0  0  0  0  0  0  0  0
  190.4960  176.8290  145.5060 C   0  0  0  0  0  2  0  0  0  0  0  0
  189.3020  175.8740  145.6100 C   0  0  2  0  0  3  0  0  0  0  0  0
  189.6910  174.4380  144.5710 P   0  0  2  0  0  0  0  0  0  0  0  0
  192.6970  177.1100  144.2550 C   0  0  0  0  0  2  0  0  0  0  0  0
  189.6760  173.1620  145.3830 O   0  0  0  0  0  0  0  0  0  0  0  0
  191.3600  174.9370  144.1040 C   0  0  2  0  0  3  0  0  0  0  0  0
  193.3200  171.4350  142.2800 N   0  0  0  0  0  0  0  0  0  0  0  0
  193.9990  173.7630  141.5170 C   0  0  0  0  0  2  0  0  0  0  0  0
  191.0950  172.0810  139.4780 C   0  0  1  0  0  3  0  0  0  0  0  0
  192.3920  172.4090  138.7470 C   0  0  0  0  0  2  0  0  0  0  0  0
  193.1090  171.2080  140.8510 C   0  0  0  0  0  2  0  0  0  0  0  0
  192.6090  173.7580  140.8870 C   0  0  0  0  0  2  0  0  0  0  0  0
  192.3660  172.3920  140.2570 C   0  0  2  0  0  0  0  0  0  0  0  0
  194.1990  172.6020  142.5230 C   0  0  1  0  0  3  0  0  0  0  0  0
  193.9730  170.3400  142.7360 O   0  0  0  0  0  1  0  0  0  0  0  0
  190.1520  173.2680  139.3900 C   0  0  0  0  0  2  0  0  0  0  0  0
  188.4530  172.6660  139.1580 S   0  0  0  0  0  1  0  0  0  0  0  0
  187.9610  176.5250  145.2510 C   0  0  0  0  0  3  0  0  0  0  0  0
  188.1090  177.8710  144.5590 C   0  0  0  0  0  1  0  0  0  0  0  0
  187.1070  176.6840  146.4930 C   0  0  0  0  0  1  0  0  0  0  0  0
  188.7720  175.1190  142.1080 C   0  0  0  0  0  2  0  0  0  0  0  0
  188.6290  174.2920  143.1360 C   0  0  0  0  0  3  0  0  0  0  0  0
  1  5  1  6  0  0  0
  1 11  1  0  0  0  0
  2 16  1  1  0  0  0
  2 13  1  0  0  0  0
  3 16  1  6  0  0  0
  3 10  1  0  0  0  0
  4  6  1  0  0  0  0
  4  5  1  0  0  0  0
  4  9  1  1  0  0  0
  6  8  1  0  0  0  0
  6 11  1  0  0  0  0
  8  7  1  0  0  0  0
 11  3  1  0  0  0  0
 12  8  1  0  0  0  0
 12 10  1  0  0  0  0
 13 14  1  0  0  0  0
 15 17  2  0  0  0  0
 15 14  1  0  0  0  0
 18  2  1  0  0  0  0
 18 15  1  0  0  0  0
 18  1  1  0  0  0  0
 19 26  1  0  0  0  0
 19 27  1  0  0  0  0
 20 26  1  0  0  0  0
 21 25  1  0  0  0  0
 22 21  1  0  0  0  0
 22 25  1  0  0  0  0
 23 19  1  0  0  0  0
 24 20  1  0  0  0  0
 25 23  1  0  0  0  0
 25 24  1  0  0  0  0
 26  4  1  0  0  0  0
 28 21  1  0  0  0  0
 29 28  1  0  0  0  0
 30 14  1  0  0  0  0
 30 32  1  0  0  0  0
 31 30  1  0  0  0  0
 33 34  2  0  0  0  0
 34 15  1  0  0  0  0
M  END
>  <MODEL>
9

>  <REMARK>
 VINA RESULT:      -6.4      3.599      6.608
  Name = 
  4 active torsions:
  status: ('A' for Active; 'I' for Inactive)
    1  A    between atoms: C_3  and  C_25
    2  A    between atoms: C_7  and  C_11
    3  A    between atoms: C_8  and  C_30
    4  A    between atoms: P_27  and  C_29
                            x       y       z     vdW  Elec       q    Type
                         _______ _______ _______ _____ _____    ______ ____

>  <TORSDO>
F 4

$$$$
