=
 OpenBabel11052419093D

 32 35  0  0  1  0  0  0  0  0999 V2000
  190.9570  175.9410  144.0720 C   0  0  2  0  0  3  0  0  0  0  0  0
  190.8090  173.8410  140.2680 C   0  0  0  0  0  1  0  0  0  0  0  0
  192.0720  174.9950  143.5640 C   0  0  1  0  0  3  0  0  0  0  0  0
  190.8980  172.6390  142.3080 C   0  0  2  0  0  3  0  0  0  0  0  0
  192.0820  173.6510  144.3090 C   0  0  1  0  0  3  0  0  0  0  0  0
  190.9420  172.7420  143.8370 C   0  0  0  0  0  2  0  0  0  0  0  0
  190.7850  173.9800  141.7170 N   0  0  0  0  0  0  0  0  0  0  0  0
  191.9860  174.7430  142.0530 C   0  0  0  0  0  2  0  0  0  0  0  0
  193.4350  172.9630  144.1670 C   0  0  0  0  0  3  0  0  0  0  0  0
  193.9920  172.6530  145.5430 C   0  0  0  0  0  2  0  0  0  0  0  0
  193.3530  171.5540  144.7200 C   0  0  0  0  0  2  0  0  0  0  0  0
  189.7880  171.8650  141.9550 O   0  0  0  0  0  0  0  0  0  0  0  0
  188.9200  171.9530  143.0450 C   0  0  0  0  0  1  0  0  0  0  0  0
  191.2370  177.4370  143.8280 C   0  0  0  0  0  0  0  0  0  0  0  0
  192.5760  177.7260  144.0140 F   0  0  0  0  0  0  0  0  0  0  0  0
  190.4860  178.2190  144.6900 F   0  0  0  0  0  0  0  0  0  0  0  0
  190.8840  177.7660  142.5330 F   0  0  0  0  0  0  0  0  0  0  0  0
  190.4730  175.6590  145.5150 C   0  0  2  0  0  3  0  0  0  0  0  0
  187.3110  177.2110  144.4640 C   0  0  0  0  0  2  0  0  0  0  0  0
  186.9700  176.6780  146.8670 C   0  0  0  0  0  2  0  0  0  0  0  0
  188.9420  175.6240  145.7030 C   0  0  1  0  0  3  0  0  0  0  0  0
  186.3650  177.1360  145.5950 N   0  0  1  0  0  0  0  0  0  0  0  0
  188.5000  176.5540  146.8350 C   0  0  0  0  0  2  0  0  0  0  0  0
  188.2170  176.0180  144.4410 C   0  0  0  0  0  0  0  0  0  0  0  0
  188.3250  175.3570  143.4210 O   0  0  0  0  0  0  0  0  0  0  0  0
  185.8500  178.4780  145.8230 C   0  0  0  0  0  3  0  0  0  0  0  0
  185.0090  178.4910  147.0890 C   0  0  0  0  0  2  0  0  0  0  0  0
  184.3310  178.4790  145.7370 C   0  0  0  0  0  2  0  0  0  0  0  0
  191.0520  176.5980  146.3760 O   0  0  0  0  0  0  0  0  0  0  0  0
  192.0620  175.9020  147.0460 C   0  0  0  0  0  2  0  0  0  0  0  0
  193.3120  176.7520  147.0950 C   0  0  0  0  0  2  0  0  0  0  0  0
  194.4100  176.0860  146.2950 C   0  0  0  0  0  1  0  0  0  0  0  0
  1 14  1  1  0  0  0
  1 18  1  0  0  0  0
  2  7  1  0  0  0  0
  3  1  1  1  0  0  0
  3  5  1  0  0  0  0
  4 12  1  1  0  0  0
  4  6  1  0  0  0  0
  5  9  1  6  0  0  0
  6  5  1  0  0  0  0
  7  8  1  0  0  0  0
  7  4  1  0  0  0  0
  8  3  1  0  0  0  0
  9 11  1  0  0  0  0
  9 10  1  0  0  0  0
 11 10  1  0  0  0  0
 12 13  1  0  0  0  0
 14 15  1  0  0  0  0
 14 16  1  0  0  0  0
 17 14  1  0  0  0  0
 18 29  1  1  0  0  0
 19 22  1  0  0  0  0
 21 18  1  6  0  0  0
 21 23  1  0  0  0  0
 22 26  1  1  0  0  0
 22 20  1  0  0  0  0
 23 20  1  0  0  0  0
 24 19  1  0  0  0  0
 24 21  1  0  0  0  0
 25 24  2  0  0  0  0
 26 27  1  0  0  0  0
 28 26  1  0  0  0  0
 28 27  1  0  0  0  0
 29 30  1  0  0  0  0
 30 31  1  0  0  0  0
 32 31  1  0  0  0  0
M  END
>  <MODEL>
1

>  <REMARK>
 VINA RESULT:      -6.2      0.000      0.000
  Name = 
  10 active torsions:
  status: ('A' for Active; 'I' for Inactive)
    1  A    between atoms: C_1  and  C_4
    2  A    between atoms: C_1  and  O_24
    3  A    between atoms: C_2  and  C_5
    4  A    between atoms: C_5  and  C_10
    5  A    between atoms: C_5  and  C_27
    6  A    between atoms: C_6  and  C_13
    7  A    between atoms: C_7  and  N_19
    8  A    between atoms: O_11  and  C_12
    9  A    between atoms: C_16  and  C_27
   10  A    between atoms: O_24  and  C_27
                            x       y       z     vdW  Elec       q    Type
                         _______ _______ _______ _____ _____    ______ ____

>  <TORSDO>
F 10

$$$$
=
 OpenBabel11052419093D

 32 35  0  0  1  0  0  0  0  0999 V2000
  190.7400  176.5460  143.7420 C   0  0  2  0  0  3  0  0  0  0  0  0
  192.9640  174.5160  140.6060 C   0  0  0  0  0  1  0  0  0  0  0  0
  191.2420  175.0860  143.8470 C   0  0  1  0  0  3  0  0  0  0  0  0
  190.8520  173.7040  141.3080 C   0  0  2  0  0  3  0  0  0  0  0  0
  190.1030  174.0640  143.7040 C   0  0  1  0  0  3  0  0  0  0  0  0
  189.6580  173.9240  142.2440 C   0  0  0  0  0  2  0  0  0  0  0  0
  191.8220  174.7970  141.4630 N   0  0  0  0  0  0  0  0  0  0  0  0
  192.3450  174.7690  142.8280 C   0  0  0  0  0  2  0  0  0  0  0  0
  190.5060  172.7170  144.2930 C   0  0  0  0  0  3  0  0  0  0  0  0
  189.5210  172.3240  145.3770 C   0  0  0  0  0  2  0  0  0  0  0  0
  189.4290  171.6910  144.0050 C   0  0  0  0  0  2  0  0  0  0  0  0
  190.3750  173.6680  139.9950 O   0  0  0  0  0  0  0  0  0  0  0  0
  189.6710  172.4670  139.8940 C   0  0  0  0  0  1  0  0  0  0  0  0
  191.8630  177.6010  143.7120 C   0  0  0  0  0  0  0  0  0  0  0  0
  192.5140  177.5960  142.4920 F   0  0  0  0  0  0  0  0  0  0  0  0
  192.7870  177.3560  144.7140 F   0  0  0  0  0  0  0  0  0  0  0  0
  191.3230  178.8550  143.9250 F   0  0  0  0  0  0  0  0  0  0  0  0
  189.6090  176.9170  144.7310 C   0  0  2  0  0  3  0  0  0  0  0  0
  186.0170  177.2700  144.0360 C   0  0  0  0  0  2  0  0  0  0  0  0
  187.1300  178.4750  142.1680 C   0  0  0  0  0  2  0  0  0  0  0  0
  188.5320  177.8730  144.1740 C   0  0  1  0  0  3  0  0  0  0  0  0
  185.8610  178.1520  142.8630 N   0  0  1  0  0  0  0  0  0  0  0  0
  188.3460  177.6820  142.6680 C   0  0  0  0  0  2  0  0  0  0  0  0
  187.2040  177.6720  144.8570 C   0  0  0  0  0  0  0  0  0  0  0  0
  187.0730  177.8730  146.0540 O   0  0  0  0  0  0  0  0  0  0  0  0
  185.0110  177.4590  141.9040 C   0  0  0  0  0  3  0  0  0  0  0  0
  184.8050  178.3370  140.6810 C   0  0  0  0  0  2  0  0  0  0  0  0
  183.7070  178.2180  141.7140 C   0  0  0  0  0  2  0  0  0  0  0  0
  190.1820  177.4470  145.8930 O   0  0  0  0  0  0  0  0  0  0  0  0
  190.0190  176.4530  146.8620 C   0  0  0  0  0  2  0  0  0  0  0  0
  191.2890  176.3300  147.6750 C   0  0  0  0  0  2  0  0  0  0  0  0
  192.0960  175.1500  147.1780 C   0  0  0  0  0  1  0  0  0  0  0  0
  1 14  1  1  0  0  0
  1 18  1  0  0  0  0
  2  7  1  0  0  0  0
  3  1  1  6  0  0  0
  4 12  1  6  0  0  0
  4  7  1  0  0  0  0
  4  6  1  0  0  0  0
  5  3  1  0  0  0  0
  5  9  1  6  0  0  0
  6  5  1  0  0  0  0
  7  8  1  0  0  0  0
  8  3  1  0  0  0  0
  9 10  1  0  0  0  0
 11  9  1  0  0  0  0
 11 10  1  0  0  0  0
 13 12  1  0  0  0  0
 14 17  1  0  0  0  0
 14 16  1  0  0  0  0
 15 14  1  0  0  0  0
 18 29  1  1  0  0  0
 19 24  1  0  0  0  0
 20 23  1  0  0  0  0
 20 22  1  0  0  0  0
 21 18  1  1  0  0  0
 21 24  1  0  0  0  0
 22 26  1  6  0  0  0
 22 19  1  0  0  0  0
 23 21  1  0  0  0  0
 24 25  2  0  0  0  0
 27 28  1  0  0  0  0
 27 26  1  0  0  0  0
 28 26  1  0  0  0  0
 29 30  1  0  0  0  0
 30 31  1  0  0  0  0
 32 31  1  0  0  0  0
M  END
>  <MODEL>
2

>  <REMARK>
 VINA RESULT:      -6.0      2.047      2.920
  Name = 
  10 active torsions:
  status: ('A' for Active; 'I' for Inactive)
    1  A    between atoms: C_1  and  C_4
    2  A    between atoms: C_1  and  O_24
    3  A    between atoms: C_2  and  C_5
    4  A    between atoms: C_5  and  C_10
    5  A    between atoms: C_5  and  C_27
    6  A    between atoms: C_6  and  C_13
    7  A    between atoms: C_7  and  N_19
    8  A    between atoms: O_11  and  C_12
    9  A    between atoms: C_16  and  C_27
   10  A    between atoms: O_24  and  C_27
                            x       y       z     vdW  Elec       q    Type
                         _______ _______ _______ _____ _____    ______ ____

>  <TORSDO>
F 10

$$$$
=
 OpenBabel11052419093D

 32 35  0  0  1  0  0  0  0  0999 V2000
  190.4850  174.7990  145.5670 C   0  0  2  0  0  3  0  0  0  0  0  0
  192.2380  171.1240  144.0430 C   0  0  0  0  0  1  0  0  0  0  0  0
  189.7560  173.8280  144.6060 C   0  0  1  0  0  3  0  0  0  0  0  0
  191.6000  172.8610  142.5640 C   0  0  2  0  0  3  0  0  0  0  0  0
  189.6640  174.3800  143.1750 C   0  0  1  0  0  3  0  0  0  0  0  0
  191.0080  174.2700  142.4460 C   0  0  0  0  0  2  0  0  0  0  0  0
  191.7340  172.4870  143.9790 N   0  0  0  0  0  0  0  0  0  0  0  0
  190.4010  172.4360  144.5780 C   0  0  0  0  0  2  0  0  0  0  0  0
  188.5520  173.6870  142.3970 C   0  0  0  0  0  3  0  0  0  0  0  0
  187.4490  174.6830  142.0950 C   0  0  0  0  0  2  0  0  0  0  0  0
  188.4380  174.2970  141.0150 C   0  0  0  0  0  2  0  0  0  0  0  0
  192.8550  172.8630  141.9480 O   0  0  0  0  0  0  0  0  0  0  0  0
  192.7040  173.6610  140.8120 C   0  0  0  0  0  1  0  0  0  0  0  0
  189.6560  175.2120  146.7980 C   0  0  0  0  0  0  0  0  0  0  0  0
  190.3950  176.0200  147.6430 F   0  0  0  0  0  0  0  0  0  0  0  0
  189.2360  174.0950  147.5000 F   0  0  0  0  0  0  0  0  0  0  0  0
  188.5340  175.9060  146.3870 F   0  0  0  0  0  0  0  0  0  0  0  0
  191.1600  176.0090  144.8770 C   0  0  2  0  0  3  0  0  0  0  0  0
  194.5220  174.9240  143.8610 C   0  0  0  0  0  2  0  0  0  0  0  0
  194.6790  175.1970  146.3260 C   0  0  0  0  0  2  0  0  0  0  0  0
  192.6670  176.1760  145.1660 C   0  0  1  0  0  3  0  0  0  0  0  0
  195.3940  174.9590  145.0510 N   0  0  1  0  0  0  0  0  0  0  0  0
  193.1480  175.1670  146.2100 C   0  0  0  0  0  2  0  0  0  0  0  0
  193.4940  176.0130  143.9160 C   0  0  0  0  0  0  0  0  0  0  0  0
  193.3680  176.7770  142.9730 O   0  0  0  0  0  0  0  0  0  0  0  0
  196.0400  173.6570  145.1570 C   0  0  0  0  0  3  0  0  0  0  0  0
  196.9400  173.6360  146.3820 C   0  0  0  0  0  2  0  0  0  0  0  0
  197.5460  173.8050  145.0060 C   0  0  0  0  0  2  0  0  0  0  0  0
  190.4620  177.1720  145.2230 O   0  0  0  0  0  0  0  0  0  0  0  0
  190.3320  177.8850  144.0280 C   0  0  0  0  0  2  0  0  0  0  0  0
  188.8940  177.8290  143.5630 C   0  0  0  0  0  2  0  0  0  0  0  0
  188.8380  178.0280  142.0640 C   0  0  0  0  0  1  0  0  0  0  0  0
  1 14  1  1  0  0  0
  3  1  1  1  0  0  0
  4 12  1  1  0  0  0
  4  7  1  0  0  0  0
  5  9  1  6  0  0  0
  5  3  1  0  0  0  0
  6  4  1  0  0  0  0
  6  5  1  0  0  0  0
  7  2  1  0  0  0  0
  7  8  1  0  0  0  0
  8  3  1  0  0  0  0
 10  9  1  0  0  0  0
 11 10  1  0  0  0  0
 11  9  1  0  0  0  0
 13 12  1  0  0  0  0
 14 16  1  0  0  0  0
 14 15  1  0  0  0  0
 17 14  1  0  0  0  0
 18 29  1  1  0  0  0
 18  1  1  0  0  0  0
 19 24  1  0  0  0  0
 19 22  1  0  0  0  0
 21 18  1  6  0  0  0
 21 23  1  0  0  0  0
 22 26  1  1  0  0  0
 22 20  1  0  0  0  0
 23 20  1  0  0  0  0
 24 21  1  0  0  0  0
 25 24  2  0  0  0  0
 26 27  1  0  0  0  0
 28 26  1  0  0  0  0
 28 27  1  0  0  0  0
 30 29  1  0  0  0  0
 31 30  1  0  0  0  0
 32 31  1  0  0  0  0
M  END
>  <MODEL>
3

>  <REMARK>
 VINA RESULT:      -6.0      2.911      6.170
  Name = 
  10 active torsions:
  status: ('A' for Active; 'I' for Inactive)
    1  A    between atoms: C_1  and  C_4
    2  A    between atoms: C_1  and  O_24
    3  A    between atoms: C_2  and  C_5
    4  A    between atoms: C_5  and  C_10
    5  A    between atoms: C_5  and  C_27
    6  A    between atoms: C_6  and  C_13
    7  A    between atoms: C_7  and  N_19
    8  A    between atoms: O_11  and  C_12
    9  A    between atoms: C_16  and  C_27
   10  A    between atoms: O_24  and  C_27
                            x       y       z     vdW  Elec       q    Type
                         _______ _______ _______ _____ _____    ______ ____

>  <TORSDO>
F 10

$$$$
=
 OpenBabel11052419093D

 32 35  0  0  1  0  0  0  0  0999 V2000
  190.2820  173.5890  143.6740 C   0  0  2  0  0  3  0  0  0  0  0  0
  192.2430  176.3530  146.3970 C   0  0  0  0  0  1  0  0  0  0  0  0
  191.8050  173.8670  143.6730 C   0  0  1  0  0  3  0  0  0  0  0  0
  192.3070  176.7140  144.0560 C   0  0  2  0  0  3  0  0  0  0  0  0
  192.2410  174.7300  142.4790 C   0  0  1  0  0  3  0  0  0  0  0  0
  191.8600  176.2010  142.6830 C   0  0  0  0  0  2  0  0  0  0  0  0
  191.7440  175.8690  145.1180 N   0  0  0  0  0  0  0  0  0  0  0  0
  192.2830  174.5180  144.9780 C   0  0  0  0  0  2  0  0  0  0  0  0
  193.7350  174.5750  142.2160 C   0  0  0  0  0  3  0  0  0  0  0  0
  193.9450  173.9470  140.8510 C   0  0  0  0  0  2  0  0  0  0  0  0
  194.1370  175.4380  141.0370 C   0  0  0  0  0  2  0  0  0  0  0  0
  191.8540  178.0290  144.1990 O   0  0  0  0  0  0  0  0  0  0  0  0
  190.6460  178.0760  143.5000 C   0  0  0  0  0  1  0  0  0  0  0  0
  189.8680  172.3340  144.4670 C   0  0  0  0  0  0  0  0  0  0  0  0
  188.8180  171.6820  143.8480 F   0  0  0  0  0  0  0  0  0  0  0  0
  189.4870  172.6760  145.7540 F   0  0  0  0  0  0  0  0  0  0  0  0
  190.9420  171.4690  144.5540 F   0  0  0  0  0  0  0  0  0  0  0  0
  189.6090  173.6550  142.2810 C   0  0  2  0  0  3  0  0  0  0  0  0
  187.9460  176.7660  141.2490 C   0  0  0  0  0  2  0  0  0  0  0  0
  186.7930  176.1170  143.3520 C   0  0  0  0  0  2  0  0  0  0  0  0
  188.2530  174.3920  142.2370 C   0  0  1  0  0  3  0  0  0  0  0  0
  186.8250  177.0160  142.1750 N   0  0  1  0  0  0  0  0  0  0  0  0
  188.0330  175.2230  143.5030 C   0  0  0  0  0  2  0  0  0  0  0  0
  188.1510  175.2970  141.0370 C   0  0  0  0  0  0  0  0  0  0  0  0
  188.1890  174.8460  139.9030 O   0  0  0  0  0  0  0  0  0  0  0  0
  186.9680  178.3760  142.6770 C   0  0  0  0  0  3  0  0  0  0  0  0
  186.3340  178.4780  144.0550 C   0  0  0  0  0  2  0  0  0  0  0  0
  185.6000  179.0190  142.8470 C   0  0  0  0  0  2  0  0  0  0  0  0
  189.4770  172.3540  141.7830 O   0  0  0  0  0  0  0  0  0  0  0  0
  190.3520  172.2930  140.6940 C   0  0  0  0  0  2  0  0  0  0  0  0
  191.3910  171.2220  140.9440 C   0  0  0  0  0  2  0  0  0  0  0  0
  190.7480  170.0450  141.6440 C   0  0  0  0  0  1  0  0  0  0  0  0
  1 14  1  6  0  0  0
  3  1  1  1  0  0  0
  3  8  1  0  0  0  0
  4 12  1  1  0  0  0
  4  7  1  0  0  0  0
  5  9  1  1  0  0  0
  5  6  1  0  0  0  0
  5  3  1  0  0  0  0
  6  4  1  0  0  0  0
  7  2  1  0  0  0  0
  8  7  1  0  0  0  0
 10 11  1  0  0  0  0
 10  9  1  0  0  0  0
 11  9  1  0  0  0  0
 13 12  1  0  0  0  0
 14 17  1  0  0  0  0
 14 16  1  0  0  0  0
 15 14  1  0  0  0  0
 18 29  1  1  0  0  0
 18  1  1  0  0  0  0
 19 22  1  0  0  0  0
 20 23  1  0  0  0  0
 21 18  1  1  0  0  0
 21 23  1  0  0  0  0
 22 26  1  1  0  0  0
 22 20  1  0  0  0  0
 24 19  1  0  0  0  0
 24 21  1  0  0  0  0
 25 24  2  0  0  0  0
 26 28  1  0  0  0  0
 26 27  1  0  0  0  0
 28 27  1  0  0  0  0
 30 31  1  0  0  0  0
 30 29  1  0  0  0  0
 31 32  1  0  0  0  0
M  END
>  <MODEL>
4

>  <REMARK>
 VINA RESULT:      -5.8      2.847      4.994
  Name = 
  10 active torsions:
  status: ('A' for Active; 'I' for Inactive)
    1  A    between atoms: C_1  and  C_4
    2  A    between atoms: C_1  and  O_24
    3  A    between atoms: C_2  and  C_5
    4  A    between atoms: C_5  and  C_10
    5  A    between atoms: C_5  and  C_27
    6  A    between atoms: C_6  and  C_13
    7  A    between atoms: C_7  and  N_19
    8  A    between atoms: O_11  and  C_12
    9  A    between atoms: C_16  and  C_27
   10  A    between atoms: O_24  and  C_27
                            x       y       z     vdW  Elec       q    Type
                         _______ _______ _______ _____ _____    ______ ____

>  <TORSDO>
F 10

$$$$
=
 OpenBabel11052419093D

 32 35  0  0  1  0  0  0  0  0999 V2000
  190.7200  176.6590  143.6970 C   0  0  2  0  0  3  0  0  0  0  0  0
  193.2060  174.6190  140.7720 C   0  0  0  0  0  1  0  0  0  0  0  0
  192.2670  176.6510  143.7350 C   0  0  1  0  0  3  0  0  0  0  0  0
  193.2760  173.9990  143.0580 C   0  0  2  0  0  3  0  0  0  0  0  0
  192.8200  175.7410  144.8430 C   0  0  1  0  0  3  0  0  0  0  0  0
  192.7110  174.2620  144.4580 C   0  0  0  0  0  2  0  0  0  0  0  0
  192.5980  174.8540  142.0730 N   0  0  0  0  0  0  0  0  0  0  0  0
  192.8860  176.2520  142.3880 C   0  0  0  0  0  2  0  0  0  0  0  0
  194.2560  176.1200  145.1890 C   0  0  0  0  0  3  0  0  0  0  0  0
  194.2890  176.7870  146.5510 C   0  0  0  0  0  2  0  0  0  0  0  0
  194.7110  175.3400  146.4050 C   0  0  0  0  0  2  0  0  0  0  0  0
  193.0660  172.6520  142.7480 O   0  0  0  0  0  0  0  0  0  0  0  0
  194.0880  171.9630  143.4050 C   0  0  0  0  0  1  0  0  0  0  0  0
  190.0780  177.9070  144.3340 C   0  0  0  0  0  0  0  0  0  0  0  0
  190.1740  177.8630  145.7130 F   0  0  0  0  0  0  0  0  0  0  0  0
  188.7420  178.0010  143.9810 F   0  0  0  0  0  0  0  0  0  0  0  0
  190.7220  179.0410  143.8770 F   0  0  0  0  0  0  0  0  0  0  0  0
  190.0520  175.3450  144.1700 C   0  0  2  0  0  3  0  0  0  0  0  0
  189.8810  173.0290  141.3210 C   0  0  0  0  0  2  0  0  0  0  0  0
  188.1890  174.7740  140.8020 C   0  0  0  0  0  2  0  0  0  0  0  0
  189.0980  174.6860  143.1520 C   0  0  1  0  0  3  0  0  0  0  0  0
  188.7750  173.4600  140.4450 N   0  0  1  0  0  0  0  0  0  0  0  0
  188.9600  175.5380  141.8880 C   0  0  0  0  0  2  0  0  0  0  0  0
  189.5680  173.3090  142.7600 C   0  0  0  0  0  0  0  0  0  0  0  0
  189.6550  172.4140  143.5850 O   0  0  0  0  0  0  0  0  0  0  0  0
  189.3080  173.5810  139.0950 C   0  0  0  0  0  3  0  0  0  0  0  0
  188.2300  174.1210  138.1700 C   0  0  0  0  0  2  0  0  0  0  0  0
  188.5660  172.6460  138.1520 C   0  0  0  0  0  2  0  0  0  0  0  0
  189.3890  175.5870  145.3790 O   0  0  0  0  0  0  0  0  0  0  0  0
  189.6920  174.4850  146.1840 C   0  0  0  0  0  2  0  0  0  0  0  0
  189.7270  174.9160  147.6340 C   0  0  0  0  0  2  0  0  0  0  0  0
  191.1040  175.4470  147.9710 C   0  0  0  0  0  1  0  0  0  0  0  0
  1 18  1  0  0  0  0
  1 14  1  1  0  0  0
  2  7  1  0  0  0  0
  3  1  1  6  0  0  0
  3  5  1  0  0  0  0
  4 12  1  6  0  0  0
  4  6  1  0  0  0  0
  5  9  1  6  0  0  0
  6  5  1  0  0  0  0
  7  8  1  0  0  0  0
  7  4  1  0  0  0  0
  8  3  1  0  0  0  0
  9 11  1  0  0  0  0
  9 10  1  0  0  0  0
 11 10  1  0  0  0  0
 12 13  1  0  0  0  0
 14 15  1  0  0  0  0
 16 14  1  0  0  0  0
 17 14  1  0  0  0  0
 18 29  1  1  0  0  0
 19 24  1  0  0  0  0
 20 23  1  0  0  0  0
 21 18  1  1  0  0  0
 22 26  1  6  0  0  0
 22 20  1  0  0  0  0
 22 19  1  0  0  0  0
 23 21  1  0  0  0  0
 24 21  1  0  0  0  0
 24 25  2  0  0  0  0
 27 26  1  0  0  0  0
 28 27  1  0  0  0  0
 28 26  1  0  0  0  0
 29 30  1  0  0  0  0
 30 31  1  0  0  0  0
 31 32  1  0  0  0  0
M  END
>  <MODEL>
5

>  <REMARK>
 VINA RESULT:      -5.8      2.655      4.558
  Name = 
  10 active torsions:
  status: ('A' for Active; 'I' for Inactive)
    1  A    between atoms: C_1  and  C_4
    2  A    between atoms: C_1  and  O_24
    3  A    between atoms: C_2  and  C_5
    4  A    between atoms: C_5  and  C_10
    5  A    between atoms: C_5  and  C_27
    6  A    between atoms: C_6  and  C_13
    7  A    between atoms: C_7  and  N_19
    8  A    between atoms: O_11  and  C_12
    9  A    between atoms: C_16  and  C_27
   10  A    between atoms: O_24  and  C_27
                            x       y       z     vdW  Elec       q    Type
                         _______ _______ _______ _____ _____    ______ ____

>  <TORSDO>
F 10

$$$$
=
 OpenBabel11052419093D

 32 35  0  0  1  0  0  0  0  0999 V2000
  190.7700  175.1010  144.9230 C   0  0  2  0  0  3  0  0  0  0  0  0
  192.9220  171.3630  144.3840 C   0  0  0  0  0  1  0  0  0  0  0  0
  190.1240  173.8040  144.3780 C   0  0  1  0  0  3  0  0  0  0  0  0
  191.9470  172.4720  142.5310 C   0  0  2  0  0  3  0  0  0  0  0  0
  189.8600  173.8730  142.8660 C   0  0  1  0  0  3  0  0  0  0  0  0
  191.1550  173.6980  142.0640 C   0  0  0  0  0  2  0  0  0  0  0  0
  192.2260  172.5720  143.9710 N   0  0  0  0  0  0  0  0  0  0  0  0
  190.9570  172.5550  144.6960 C   0  0  0  0  0  2  0  0  0  0  0  0
  188.8080  172.8500  142.4530 C   0  0  0  0  0  3  0  0  0  0  0  0
  187.5900  173.5690  141.9060 C   0  0  0  0  0  2  0  0  0  0  0  0
  188.5800  172.9280  140.9570 C   0  0  0  0  0  2  0  0  0  0  0  0
  193.1450  172.4280  141.8130 O   0  0  0  0  0  0  0  0  0  0  0  0
  193.0050  173.3890  140.8090 C   0  0  0  0  0  1  0  0  0  0  0  0
  191.1290  175.0490  146.4210 C   0  0  0  0  0  0  0  0  0  0  0  0
  192.3400  174.4120  146.6170 F   0  0  0  0  0  0  0  0  0  0  0  0
  190.1490  174.3780  147.1330 F   0  0  0  0  0  0  0  0  0  0  0  0
  191.2150  176.3350  146.9190 F   0  0  0  0  0  0  0  0  0  0  0  0
  190.0310  176.4060  144.5390 C   0  0  2  0  0  3  0  0  0  0  0  0
  186.9400  178.3360  144.0580 C   0  0  0  0  0  2  0  0  0  0  0  0
  186.3970  176.7430  145.8870 C   0  0  0  0  0  2  0  0  0  0  0  0
  188.4900  176.3190  144.5490 C   0  0  1  0  0  3  0  0  0  0  0  0
  185.8990  177.7580  144.9290 N   0  0  1  0  0  0  0  0  0  0  0  0
  187.9270  176.6170  145.9390 C   0  0  0  0  0  2  0  0  0  0  0  0
  187.8730  177.2750  143.5600 C   0  0  0  0  0  0  0  0  0  0  0  0
  188.0880  177.1690  142.3630 O   0  0  0  0  0  0  0  0  0  0  0  0
  185.3320  178.8470  145.7140 C   0  0  0  0  0  3  0  0  0  0  0  0
  184.3940  178.2790  146.7660 C   0  0  0  0  0  2  0  0  0  0  0  0
  183.8260  178.9090  145.5140 C   0  0  0  0  0  2  0  0  0  0  0  0
  190.4910  176.8340  143.2880 O   0  0  0  0  0  0  0  0  0  0  0  0
  191.7470  177.3960  143.5360 C   0  0  0  0  0  2  0  0  0  0  0  0
  192.7720  176.7600  142.6240 C   0  0  0  0  0  2  0  0  0  0  0  0
  193.8310  176.0690  143.4560 C   0  0  0  0  0  1  0  0  0  0  0  0
  1 14  1  1  0  0  0
  3  8  1  0  0  0  0
  3  1  1  6  0  0  0
  4 12  1  6  0  0  0
  4  7  1  0  0  0  0
  5  9  1  6  0  0  0
  5  3  1  0  0  0  0
  6  4  1  0  0  0  0
  6  5  1  0  0  0  0
  7  2  1  0  0  0  0
  7  8  1  0  0  0  0
 10  9  1  0  0  0  0
 11 10  1  0  0  0  0
 11  9  1  0  0  0  0
 13 12  1  0  0  0  0
 14 15  1  0  0  0  0
 14 17  1  0  0  0  0
 14 16  1  0  0  0  0
 18 29  1  6  0  0  0
 18  1  1  0  0  0  0
 19 22  1  0  0  0  0
 20 23  1  0  0  0  0
 21 18  1  1  0  0  0
 21 23  1  0  0  0  0
 22 26  1  1  0  0  0
 22 20  1  0  0  0  0
 24 19  1  0  0  0  0
 24 21  1  0  0  0  0
 25 24  2  0  0  0  0
 26 27  1  0  0  0  0
 28 26  1  0  0  0  0
 28 27  1  0  0  0  0
 29 30  1  0  0  0  0
 31 32  1  0  0  0  0
 31 30  1  0  0  0  0
M  END
>  <MODEL>
6

>  <REMARK>
 VINA RESULT:      -5.7      2.006      3.380
  Name = 
  10 active torsions:
  status: ('A' for Active; 'I' for Inactive)
    1  A    between atoms: C_1  and  C_4
    2  A    between atoms: C_1  and  O_24
    3  A    between atoms: C_2  and  C_5
    4  A    between atoms: C_5  and  C_10
    5  A    between atoms: C_5  and  C_27
    6  A    between atoms: C_6  and  C_13
    7  A    between atoms: C_7  and  N_19
    8  A    between atoms: O_11  and  C_12
    9  A    between atoms: C_16  and  C_27
   10  A    between atoms: O_24  and  C_27
                            x       y       z     vdW  Elec       q    Type
                         _______ _______ _______ _____ _____    ______ ____

>  <TORSDO>
F 10

$$$$
=
 OpenBabel11052419093D

 32 35  0  0  1  0  0  0  0  0999 V2000
  189.2660  176.5850  142.9700 C   0  0  2  0  0  3  0  0  0  0  0  0
  193.4130  176.4950  144.2720 C   0  0  0  0  0  1  0  0  0  0  0  0
  189.7110  176.7230  144.4470 C   0  0  1  0  0  3  0  0  0  0  0  0
  191.8760  174.8560  145.0230 C   0  0  2  0  0  3  0  0  0  0  0  0
  189.4240  175.4540  145.2640 C   0  0  1  0  0  3  0  0  0  0  0  0
  190.4330  174.3450  144.9470 C   0  0  0  0  0  2  0  0  0  0  0  0
  192.0520  176.0040  144.1220 N   0  0  0  0  0  0  0  0  0  0  0  0
  191.1930  177.0950  144.5810 C   0  0  0  0  0  2  0  0  0  0  0  0
  189.3930  175.7660  146.7560 C   0  0  0  0  0  3  0  0  0  0  0  0
  187.9670  175.6700  147.2630 C   0  0  0  0  0  2  0  0  0  0  0  0
  188.9420  174.5410  147.5250 C   0  0  0  0  0  2  0  0  0  0  0  0
  192.7280  173.8140  144.6430 O   0  0  0  0  0  0  0  0  0  0  0  0
  191.9270  172.6710  144.6370 C   0  0  0  0  0  1  0  0  0  0  0  0
  188.8980  177.9200  142.2930 C   0  0  0  0  0  0  0  0  0  0  0  0
  188.2060  177.7030  141.1160 F   0  0  0  0  0  0  0  0  0  0  0  0
  190.0380  178.6550  142.0130 F   0  0  0  0  0  0  0  0  0  0  0  0
  188.1070  178.6660  143.1450 F   0  0  0  0  0  0  0  0  0  0  0  0
  188.2130  175.4820  142.7090 C   0  0  2  0  0  3  0  0  0  0  0  0
  189.3110  172.0280  142.0920 C   0  0  0  0  0  2  0  0  0  0  0  0
  190.4650  173.3660  140.3440 C   0  0  0  0  0  2  0  0  0  0  0  0
  188.5810  174.4660  141.6060 C   0  0  1  0  0  3  0  0  0  0  0  0
  190.1300  172.0200  140.8640 N   0  0  1  0  0  0  0  0  0  0  0  0
  190.0740  174.5220  141.2760 C   0  0  0  0  0  2  0  0  0  0  0  0
  188.2250  173.0570  142.0070 C   0  0  0  0  0  0  0  0  0  0  0  0
  187.0670  172.7360  142.2190 O   0  0  0  0  0  0  0  0  0  0  0  0
  191.3870  171.3570  141.1810 C   0  0  0  0  0  3  0  0  0  0  0  0
  192.3150  171.4250  139.9790 C   0  0  0  0  0  2  0  0  0  0  0  0
  191.5790  170.1400  140.2880 C   0  0  0  0  0  2  0  0  0  0  0  0
  186.9840  176.0890  142.4270 O   0  0  0  0  0  0  0  0  0  0  0  0
  186.2420  175.9670  143.6050 C   0  0  0  0  0  2  0  0  0  0  0  0
  185.4680  177.2450  143.8460 C   0  0  0  0  0  2  0  0  0  0  0  0
  185.7310  177.7390  145.2520 C   0  0  0  0  0  1  0  0  0  0  0  0
  1 14  1  1  0  0  0
  3  1  1  6  0  0  0
  3  8  1  0  0  0  0
  3  5  1  0  0  0  0
  4 12  1  6  0  0  0
  5  9  1  1  0  0  0
  6  4  1  0  0  0  0
  6  5  1  0  0  0  0
  7  2  1  0  0  0  0
  7  8  1  0  0  0  0
  7  4  1  0  0  0  0
  9 10  1  0  0  0  0
  9 11  1  0  0  0  0
 10 11  1  0  0  0  0
 13 12  1  0  0  0  0
 14 17  1  0  0  0  0
 15 14  1  0  0  0  0
 16 14  1  0  0  0  0
 18 29  1  6  0  0  0
 18  1  1  0  0  0  0
 20 22  1  0  0  0  0
 20 23  1  0  0  0  0
 21 24  1  0  0  0  0
 21 18  1  1  0  0  0
 22 26  1  1  0  0  0
 22 19  1  0  0  0  0
 23 21  1  0  0  0  0
 24 19  1  0  0  0  0
 24 25  2  0  0  0  0
 27 28  1  0  0  0  0
 27 26  1  0  0  0  0
 28 26  1  0  0  0  0
 29 30  1  0  0  0  0
 30 31  1  0  0  0  0
 31 32  1  0  0  0  0
M  END
>  <MODEL>
7

>  <REMARK>
 VINA RESULT:      -5.7      2.172      6.103
  Name = 
  10 active torsions:
  status: ('A' for Active; 'I' for Inactive)
    1  A    between atoms: C_1  and  C_4
    2  A    between atoms: C_1  and  O_24
    3  A    between atoms: C_2  and  C_5
    4  A    between atoms: C_5  and  C_10
    5  A    between atoms: C_5  and  C_27
    6  A    between atoms: C_6  and  C_13
    7  A    between atoms: C_7  and  N_19
    8  A    between atoms: O_11  and  C_12
    9  A    between atoms: C_16  and  C_27
   10  A    between atoms: O_24  and  C_27
                            x       y       z     vdW  Elec       q    Type
                         _______ _______ _______ _____ _____    ______ ____

>  <TORSDO>
F 10

$$$$
=
 OpenBabel11052419093D

 32 35  0  0  1  0  0  0  0  0999 V2000
  189.1090  174.0390  143.1510 C   0  0  2  0  0  3  0  0  0  0  0  0
  188.9670  174.5020  147.4710 C   0  0  0  0  0  1  0  0  0  0  0  0
  190.3650  174.0890  144.0550 C   0  0  1  0  0  3  0  0  0  0  0  0
  190.0380  176.1260  146.1170 C   0  0  2  0  0  3  0  0  0  0  0  0
  191.1200  175.4210  143.9340 C   0  0  1  0  0  3  0  0  0  0  0  0
  190.3960  176.5440  144.6870 C   0  0  0  0  0  2  0  0  0  0  0  0
  189.2310  174.8970  146.0950 N   0  0  0  0  0  0  0  0  0  0  0  0
  190.0370  173.8170  145.5290 C   0  0  0  0  0  2  0  0  0  0  0  0
  192.5600  175.2730  144.4100 C   0  0  0  0  0  3  0  0  0  0  0  0
  193.5060  175.5990  143.2700 C   0  0  0  0  0  2  0  0  0  0  0  0
  193.2550  176.6190  144.3610 C   0  0  0  0  0  2  0  0  0  0  0  0
  189.3120  177.1650  146.7060 O   0  0  0  0  0  0  0  0  0  0  0  0
  190.2070  177.7850  147.5810 C   0  0  0  0  0  1  0  0  0  0  0  0
  188.7390  172.6250  142.6600 C   0  0  0  0  0  0  0  0  0  0  0  0
  188.7100  171.7290  143.7120 F   0  0  0  0  0  0  0  0  0  0  0  0
  189.6520  172.1820  141.7180 F   0  0  0  0  0  0  0  0  0  0  0  0
  187.4920  172.6570  142.0650 F   0  0  0  0  0  0  0  0  0  0  0  0
  189.0890  175.0830  142.0090 C   0  0  2  0  0  3  0  0  0  0  0  0
  187.7020  178.1780  143.4270 C   0  0  0  0  0  2  0  0  0  0  0  0
  185.7380  176.6760  143.1790 C   0  0  0  0  0  2  0  0  0  0  0  0
  187.8660  176.0250  141.9960 C   0  0  1  0  0  3  0  0  0  0  0  0
  186.2340  178.0380  143.4850 N   0  0  1  0  0  0  0  0  0  0  0  0
  186.8390  175.6130  143.0520 C   0  0  0  0  0  2  0  0  0  0  0  0
  188.2650  177.4580  142.2400 C   0  0  0  0  0  0  0  0  0  0  0  0
  188.9990  178.0480  141.4640 O   0  0  0  0  0  0  0  0  0  0  0  0
  185.8190  178.3510  144.8460 C   0  0  0  0  0  3  0  0  0  0  0  0
  184.3040  178.4670  144.9000 C   0  0  0  0  0  2  0  0  0  0  0  0
  185.1540  179.7180  144.8900 C   0  0  0  0  0  2  0  0  0  0  0  0
  189.2070  174.4160  140.7850 O   0  0  0  0  0  0  0  0  0  0  0  0
  188.2010  174.9560  139.9780 C   0  0  0  0  0  2  0  0  0  0  0  0
  188.2180  174.2740  138.6280 C   0  0  0  0  0  2  0  0  0  0  0  0
  188.3830  172.7820  138.8160 C   0  0  0  0  0  1  0  0  0  0  0  0
  1 14  1  6  0  0  0
  3  1  1  6  0  0  0
  3  8  1  0  0  0  0
  4 12  1  6  0  0  0
  5  3  1  0  0  0  0
  5  9  1  1  0  0  0
  5  6  1  0  0  0  0
  6  4  1  0  0  0  0
  7  4  1  0  0  0  0
  7  2  1  0  0  0  0
  8  7  1  0  0  0  0
 10 11  1  0  0  0  0
 10  9  1  0  0  0  0
 11  9  1  0  0  0  0
 12 13  1  0  0  0  0
 14 15  1  0  0  0  0
 16 14  1  0  0  0  0
 17 14  1  0  0  0  0
 18 29  1  6  0  0  0
 18  1  1  0  0  0  0
 19 22  1  0  0  0  0
 20 22  1  0  0  0  0
 21 18  1  1  0  0  0
 21 24  1  0  0  0  0
 21 23  1  0  0  0  0
 22 26  1  1  0  0  0
 23 20  1  0  0  0  0
 24 19  1  0  0  0  0
 25 24  2  0  0  0  0
 26 28  1  0  0  0  0
 26 27  1  0  0  0  0
 28 27  1  0  0  0  0
 30 29  1  0  0  0  0
 31 32  1  0  0  0  0
 31 30  1  0  0  0  0
M  END
>  <MODEL>
8

>  <REMARK>
 VINA RESULT:      -5.6      2.924      5.251
  Name = 
  10 active torsions:
  status: ('A' for Active; 'I' for Inactive)
    1  A    between atoms: C_1  and  C_4
    2  A    between atoms: C_1  and  O_24
    3  A    between atoms: C_2  and  C_5
    4  A    between atoms: C_5  and  C_10
    5  A    between atoms: C_5  and  C_27
    6  A    between atoms: C_6  and  C_13
    7  A    between atoms: C_7  and  N_19
    8  A    between atoms: O_11  and  C_12
    9  A    between atoms: C_16  and  C_27
   10  A    between atoms: O_24  and  C_27
                            x       y       z     vdW  Elec       q    Type
                         _______ _______ _______ _____ _____    ______ ____

>  <TORSDO>
F 10

$$$$
=
 OpenBabel11052419093D

 32 35  0  0  1  0  0  0  0  0999 V2000
  189.2450  175.6160  145.3870 C   0  0  2  0  0  3  0  0  0  0  0  0
  186.7900  178.3090  147.7570 C   0  0  0  0  0  1  0  0  0  0  0  0
  188.8450  177.0420  144.9350 C   0  0  1  0  0  3  0  0  0  0  0  0
  186.0610  177.5700  145.6280 C   0  0  2  0  0  3  0  0  0  0  0  0
  187.7710  177.0260  143.8360 C   0  0  1  0  0  3  0  0  0  0  0  0
  186.3880  176.6990  144.4100 C   0  0  0  0  0  2  0  0  0  0  0  0
  187.1070  177.4200  146.6490 N   0  0  0  0  0  0  0  0  0  0  0  0
  188.3690  177.9160  146.1030 C   0  0  0  0  0  2  0  0  0  0  0  0
  187.7570  178.3470  143.0740 C   0  0  0  0  0  3  0  0  0  0  0  0
  188.1810  178.1070  141.6380 C   0  0  0  0  0  2  0  0  0  0  0  0
  186.7160  178.2910  141.9740 C   0  0  0  0  0  2  0  0  0  0  0  0
  184.8280  177.1570  146.1400 O   0  0  0  0  0  0  0  0  0  0  0  0
  184.0140  178.2910  146.0920 C   0  0  0  0  0  1  0  0  0  0  0  0
  189.4220  175.4610  146.9100 C   0  0  0  0  0  0  0  0  0  0  0  0
  189.9700  176.6040  147.4630 F   0  0  0  0  0  0  0  0  0  0  0  0
  190.2440  174.3850  147.1980 F   0  0  0  0  0  0  0  0  0  0  0  0
  188.1910  175.2290  147.4950 F   0  0  0  0  0  0  0  0  0  0  0  0
  190.4150  174.9870  144.5910 C   0  0  2  0  0  3  0  0  0  0  0  0
  193.4150  175.9100  142.6790 C   0  0  0  0  0  2  0  0  0  0  0  0
  194.2390  175.5760  144.9990 C   0  0  0  0  0  2  0  0  0  0  0  0
  191.7490  175.7610  144.6560 C   0  0  1  0  0  3  0  0  0  0  0  0
  194.5400  176.0410  143.6250 N   0  0  1  0  0  0  0  0  0  0  0  0
  192.8870  174.8640  145.1470 C   0  0  0  0  0  2  0  0  0  0  0  0
  192.1260  176.3330  143.3140 C   0  0  0  0  0  0  0  0  0  0  0  0
  191.4210  177.1640  142.7630 O   0  0  0  0  0  0  0  0  0  0  0  0
  195.6310  175.2170  143.1220 C   0  0  0  0  0  3  0  0  0  0  0  0
  196.7090  175.0970  144.1880 C   0  0  0  0  0  2  0  0  0  0  0  0
  196.9060  176.0400  143.0210 C   0  0  0  0  0  2  0  0  0  0  0  0
  190.0130  174.8120  143.2620 O   0  0  0  0  0  0  0  0  0  0  0  0
  189.3160  173.6000  143.2510 C   0  0  0  0  0  2  0  0  0  0  0  0
  188.2240  173.6570  142.2060 C   0  0  0  0  0  2  0  0  0  0  0  0
  188.6490  174.5740  141.0790 C   0  0  0  0  0  1  0  0  0  0  0  0
  1 14  1  1  0  0  0
  3  1  1  1  0  0  0
  3  8  1  0  0  0  0
  4 12  1  1  0  0  0
  4  7  1  0  0  0  0
  5  9  1  1  0  0  0
  5  6  1  0  0  0  0
  5  3  1  0  0  0  0
  6  4  1  0  0  0  0
  7  2  1  0  0  0  0
  8  7  1  0  0  0  0
 10 11  1  0  0  0  0
 10  9  1  0  0  0  0
 11  9  1  0  0  0  0
 13 12  1  0  0  0  0
 14 16  1  0  0  0  0
 14 15  1  0  0  0  0
 14 17  1  0  0  0  0
 18 29  1  6  0  0  0
 18  1  1  0  0  0  0
 19 24  1  0  0  0  0
 19 22  1  0  0  0  0
 20 23  1  0  0  0  0
 21 18  1  6  0  0  0
 21 23  1  0  0  0  0
 22 26  1  6  0  0  0
 22 20  1  0  0  0  0
 24 21  1  0  0  0  0
 25 24  2  0  0  0  0
 26 27  1  0  0  0  0
 28 26  1  0  0  0  0
 28 27  1  0  0  0  0
 30 29  1  0  0  0  0
 31 30  1  0  0  0  0
 32 31  1  0  0  0  0
M  END
>  <MODEL>
9

>  <REMARK>
 VINA RESULT:      -5.6      2.584      7.176
  Name = 
  10 active torsions:
  status: ('A' for Active; 'I' for Inactive)
    1  A    between atoms: C_1  and  C_4
    2  A    between atoms: C_1  and  O_24
    3  A    between atoms: C_2  and  C_5
    4  A    between atoms: C_5  and  C_10
    5  A    between atoms: C_5  and  C_27
    6  A    between atoms: C_6  and  C_13
    7  A    between atoms: C_7  and  N_19
    8  A    between atoms: O_11  and  C_12
    9  A    between atoms: C_16  and  C_27
   10  A    between atoms: O_24  and  C_27
                            x       y       z     vdW  Elec       q    Type
                         _______ _______ _______ _____ _____    ______ ____

>  <TORSDO>
F 10

$$$$
