=
 OpenBabel11052417203D

 30 35  0  0  1  0  0  0  0  0999 V2000
  188.2400  176.0670  142.5710 C   0  0  0  0  0  0  0  0  0  0  0  0
  189.8500  174.4470  141.4170 C   0  0  1  0  0  3  0  0  0  0  0  0
  191.2430  176.8460  144.1390 C   0  0  1  0  0  3  0  0  0  0  0  0
  187.6330  176.6010  143.7280 C   0  0  0  0  0  0  0  0  0  0  0  0
  187.7150  176.3960  141.3080 C   0  0  0  0  0  3  0  0  0  0  0  0
  184.7670  178.5360  142.0690 C   0  0  0  0  0  2  0  0  0  0  0  0
  185.0640  177.4750  145.6350 C   0  0  0  0  0  3  0  0  0  0  0  0
  186.0020  177.7480  142.3450 C   0  0  0  0  0  0  0  0  0  0  0  0
  185.8240  177.6370  139.6630 S   0  0  0  0  0  0  0  0  0  0  0  0
  188.8570  177.3500  147.1140 C   0  0  0  0  0  2  0  0  0  0  0  0
  190.5420  176.4450  145.4390 C   0  0  1  0  0  3  0  0  0  0  0  0
  186.5850  177.2000  141.2130 C   0  0  0  0  0  0  0  0  0  0  0  0
  186.5610  177.5190  143.6170 C   0  0  0  0  0  0  0  0  0  0  0  0
  191.2100  173.7590  141.3050 C   0  0  0  0  0  3  0  0  0  0  0  0
  187.5220  178.0580  147.3170 C   0  0  0  0  0  2  0  0  0  0  0  0
  185.3040  176.9700  146.8520 C   0  0  0  0  0  3  0  0  0  0  0  0
  183.2030  177.9630  140.2860 C   0  0  0  0  0  2  0  0  0  0  0  0
  188.7780  173.3900  141.2130 C   0  0  0  0  0  1  0  0  0  0  0  0
  191.7430  175.5630  143.5160 C   0  0  2  0  0  3  0  0  0  0  0  0
  192.4360  174.2020  141.6780 C   0  0  0  0  0  3  0  0  0  0  0  0
  184.4510  178.2630  140.6350 C   0  0  0  0  0  0  0  0  0  0  0  0
  189.5420  175.2970  142.6890 C   0  0  1  0  0  3  0  0  0  0  0  0
  188.1170  176.1610  145.0760 C   0  0  0  0  0  2  0  0  0  0  0  0
  191.4040  176.7240  146.5040 O   0  0  0  0  0  1  0  0  0  0  0  0
  189.1660  177.1070  145.6320 C   0  0  1  0  0  3  0  0  0  0  0  0
  186.4960  177.1040  147.5850 O   0  0  0  0  0  0  0  0  0  0  0  0
  185.6680  179.9650  144.6660 Cl  0  0  0  0  0  0  0  0  0  0  0  0
  192.7270  175.5000  142.3860 C   0  0  0  0  0  2  0  0  0  0  0  0
  190.6380  176.3300  142.8360 C   0  0  1  0  0  3  0  0  0  0  0  0
  186.0750  178.2370  144.8540 C   0  0  1  0  0  3  0  0  0  0  0  0
  1 22  1  0  0  0  0
  1  4  1  0  0  0  0
  2 18  1  1  0  0  0
  2 22  1  0  0  0  0
  3 11  1  0  0  0  0
  4 23  1  0  0  0  0
  5  1  2  0  0  0  0
  6  8  1  0  0  0  0
  7 16  2  0  0  0  0
  8 13  1  0  0  0  0
  9 21  1  0  0  0  0
  9 12  1  0  0  0  0
 10 15  1  0  0  0  0
 11 25  1  0  0  0  0
 11 24  1  0  0  0  0
 12  5  1  0  0  0  0
 12  8  2  0  0  0  0
 13  4  2  0  0  0  0
 13 30  1  0  0  0  0
 14  2  1  0  0  0  0
 14 20  2  0  0  0  0
 15 26  1  0  0  0  0
 16 26  1  0  0  0  0
 17 21  2  0  0  0  0
 19  3  1  0  0  0  0
 20 28  1  0  0  0  0
 21  6  1  0  0  0  0
 22 29  1  0  0  0  0
 23 25  1  0  0  0  0
 25 10  1  0  0  0  0
 27 30  1  0  0  0  0
 28 19  1  0  0  0  0
 29 19  1  0  0  0  0
 29  3  1  0  0  0  0
 30  7  1  0  0  0  0
M  END
>  <MODEL>
1

>  <REMARK>
 VINA RESULT:      -9.5      0.000      0.000
  Name = 
  0 active torsions:
  status: ('A' for Active; 'I' for Inactive)
                            x       y       z     vdW  Elec       q    Type
                         _______ _______ _______ _____ _____    ______ ____

>  <TORSDO>
F 0

$$$$
=
 OpenBabel11052417203D

 30 35  0  0  1  0  0  0  0  0999 V2000
  189.4480  176.0910  143.3980 C   0  0  0  0  0  0  0  0  0  0  0  0
  187.3330  177.4600  143.8380 C   0  0  1  0  0  3  0  0  0  0  0  0
  189.2540  175.9630  146.8670 C   0  0  1  0  0  3  0  0  0  0  0  0
  190.8250  175.8380  143.5840 C   0  0  0  0  0  0  0  0  0  0  0  0
  188.7580  175.4060  142.3830 C   0  0  0  0  0  3  0  0  0  0  0  0
  191.3720  173.3400  140.7260 C   0  0  0  0  0  2  0  0  0  0  0  0
  193.9410  175.3180  142.5740 C   0  0  0  0  0  3  0  0  0  0  0  0
  190.7840  174.2570  141.7430 C   0  0  0  0  0  0  0  0  0  0  0  0
  188.6600  173.6480  140.2100 S   0  0  0  0  0  0  0  0  0  0  0  0
  193.0800  176.0920  146.4780 C   0  0  0  0  0  2  0  0  0  0  0  0
  190.6260  176.6410  146.8590 C   0  0  1  0  0  3  0  0  0  0  0  0
  189.4390  174.5280  141.5480 C   0  0  0  0  0  0  0  0  0  0  0  0
  191.4840  174.8500  142.8120 C   0  0  0  0  0  0  0  0  0  0  0  0
  186.3780  178.1880  144.7840 C   0  0  0  0  0  3  0  0  0  0  0  0
  194.0990  175.3710  145.6040 C   0  0  0  0  0  2  0  0  0  0  0  0
  194.7160  176.1400  143.2910 C   0  0  0  0  0  3  0  0  0  0  0  0
  190.6490  173.3140  138.3950 C   0  0  0  0  0  2  0  0  0  0  0  0
  187.5500  178.3490  142.6260 C   0  0  0  0  0  1  0  0  0  0  0  0
  188.2360  177.0700  146.7130 C   0  0  2  0  0  3  0  0  0  0  0  0
  186.1020  177.9450  146.0890 C   0  0  0  0  0  3  0  0  0  0  0  0
  190.3150  173.2040  139.6780 C   0  0  0  0  0  0  0  0  0  0  0  0
  188.7000  176.9540  144.3960 C   0  0  1  0  0  3  0  0  0  0  0  0
  191.5880  176.6500  144.5860 C   0  0  0  0  0  2  0  0  0  0  0  0
  191.0850  176.7130  148.1780 O   0  0  0  0  0  1  0  0  0  0  0  0
  191.6510  175.9590  145.9360 C   0  0  1  0  0  3  0  0  0  0  0  0
  194.6980  176.2870  144.6900 O   0  0  0  0  0  0  0  0  0  0  0  0
  193.2780  172.7090  143.0850 Cl  0  0  0  0  0  0  0  0  0  0  0  0
  186.7650  176.9030  146.9510 C   0  0  0  0  0  2  0  0  0  0  0  0
  188.4170  176.0750  145.5950 C   0  0  1  0  0  3  0  0  0  0  0  0
  192.8930  174.4500  143.1760 C   0  0  1  0  0  3  0  0  0  0  0  0
  1  4  1  0  0  0  0
  1 22  1  0  0  0  0
  2 18  1  6  0  0  0
  2 22  1  0  0  0  0
  2 14  1  0  0  0  0
  4 23  1  0  0  0  0
  5  1  2  0  0  0  0
  6  8  1  0  0  0  0
  7 30  1  0  0  0  0
  7 16  2  0  0  0  0
  8 13  1  0  0  0  0
  9 12  1  0  0  0  0
 11  3  1  0  0  0  0
 11 24  1  0  0  0  0
 12  8  2  0  0  0  0
 12  5  1  0  0  0  0
 13 30  1  0  0  0  0
 13  4  2  0  0  0  0
 14 20  2  0  0  0  0
 15 10  1  0  0  0  0
 16 26  1  0  0  0  0
 17 21  2  0  0  0  0
 19  3  1  0  0  0  0
 19 28  1  0  0  0  0
 20 28  1  0  0  0  0
 21  9  1  0  0  0  0
 21  6  1  0  0  0  0
 22 29  1  0  0  0  0
 23 25  1  0  0  0  0
 25 10  1  0  0  0  0
 25 11  1  0  0  0  0
 26 15  1  0  0  0  0
 27 30  1  0  0  0  0
 29 19  1  0  0  0  0
 29  3  1  0  0  0  0
M  END
>  <MODEL>
2

>  <REMARK>
 VINA RESULT:      -9.2      2.828      6.260
  Name = 
  0 active torsions:
  status: ('A' for Active; 'I' for Inactive)
                            x       y       z     vdW  Elec       q    Type
                         _______ _______ _______ _____ _____    ______ ____

>  <TORSDO>
F 0

$$$$
=
 OpenBabel11052417203D

 30 35  0  0  1  0  0  0  0  0999 V2000
  187.9020  176.2380  143.3450 C   0  0  0  0  0  0  0  0  0  0  0  0
  185.8400  177.6630  142.8360 C   0  0  1  0  0  3  0  0  0  0  0  0
  186.7990  177.0200  146.5470 C   0  0  1  0  0  3  0  0  0  0  0  0
  189.1620  176.0490  143.9520 C   0  0  0  0  0  0  0  0  0  0  0  0
  187.4580  175.3070  142.3880 C   0  0  0  0  0  3  0  0  0  0  0  0
  190.2720  172.8940  142.0760 C   0  0  0  0  0  2  0  0  0  0  0  0
  192.3930  175.2990  143.9860 C   0  0  0  0  0  3  0  0  0  0  0  0
  189.5010  174.0420  142.6310 C   0  0  0  0  0  0  0  0  0  0  0  0
  187.8160  173.0420  140.7880 S   0  0  0  0  0  0  0  0  0  0  0  0
  190.5930  177.0610  147.1860 C   0  0  0  0  0  2  0  0  0  0  0  0
  188.1660  177.6790  146.7390 C   0  0  1  0  0  3  0  0  0  0  0  0
  188.2750  174.2460  142.0180 C   0  0  0  0  0  0  0  0  0  0  0  0
  189.9340  174.8970  143.6630 C   0  0  0  0  0  0  0  0  0  0  0  0
  184.7210  178.6080  143.2730 C   0  0  0  0  0  3  0  0  0  0  0  0
  191.7550  176.1420  146.8310 C   0  0  0  0  0  2  0  0  0  0  0  0
  193.0060  176.2830  144.6540 C   0  0  0  0  0  3  0  0  0  0  0  0
  190.1840  172.2550  139.7230 C   0  0  0  0  0  2  0  0  0  0  0  0
  186.4250  178.2050  141.5430 C   0  0  0  0  0  1  0  0  0  0  0  0
  185.9320  178.0420  145.8500 C   0  0  2  0  0  3  0  0  0  0  0  0
  184.0970  178.7130  144.4730 C   0  0  0  0  0  3  0  0  0  0  0  0
  189.5210  172.4830  140.8520 C   0  0  0  0  0  0  0  0  0  0  0  0
  186.9770  177.3280  143.8510 C   0  0  1  0  0  3  0  0  0  0  0  0
  189.6890  177.0980  144.8840 C   0  0  0  0  0  2  0  0  0  0  0  0
  188.2680  178.0950  148.0700 O   0  0  0  0  0  1  0  0  0  0  0  0
  189.3500  176.7840  146.3300 C   0  0  1  0  0  3  0  0  0  0  0  0
  192.6310  176.7910  145.9120 O   0  0  0  0  0  0  0  0  0  0  0  0
  191.4490  172.9100  144.9420 Cl  0  0  0  0  0  0  0  0  0  0  0  0
  184.4410  177.9360  145.7160 C   0  0  0  0  0  2  0  0  0  0  0  0
  186.3330  176.7910  145.1110 C   0  0  1  0  0  3  0  0  0  0  0  0
  191.1690  174.6130  144.4830 C   0  0  1  0  0  3  0  0  0  0  0  0
  1 22  1  0  0  0  0
  1  4  1  0  0  0  0
  2 18  1  6  0  0  0
  2 14  1  0  0  0  0
  2 22  1  0  0  0  0
  3 11  1  0  0  0  0
  4 23  1  0  0  0  0
  5  1  2  0  0  0  0
  6  8  1  0  0  0  0
  7 30  1  0  0  0  0
  7 16  2  0  0  0  0
  8 13  1  0  0  0  0
  9 21  1  0  0  0  0
  9 12  1  0  0  0  0
 11 24  1  0  0  0  0
 12  5  1  0  0  0  0
 12  8  2  0  0  0  0
 13  4  2  0  0  0  0
 13 30  1  0  0  0  0
 14 20  2  0  0  0  0
 15 10  1  0  0  0  0
 16 26  1  0  0  0  0
 17 21  2  0  0  0  0
 19  3  1  0  0  0  0
 20 28  1  0  0  0  0
 21  6  1  0  0  0  0
 22 29  1  0  0  0  0
 23 25  1  0  0  0  0
 25 11  1  0  0  0  0
 25 10  1  0  0  0  0
 26 15  1  0  0  0  0
 28 19  1  0  0  0  0
 29 19  1  0  0  0  0
 29  3  1  0  0  0  0
 30 27  1  0  0  0  0
M  END
>  <MODEL>
3

>  <REMARK>
 VINA RESULT:      -9.0      2.394      5.915
  Name = 
  0 active torsions:
  status: ('A' for Active; 'I' for Inactive)
                            x       y       z     vdW  Elec       q    Type
                         _______ _______ _______ _____ _____    ______ ____

>  <TORSDO>
F 0

$$$$
=
 OpenBabel11052417203D

 30 35  0  0  1  0  0  0  0  0999 V2000
  188.6540  176.3500  144.4980 C   0  0  0  0  0  0  0  0  0  0  0  0
  186.9230  177.5810  145.9220 C   0  0  1  0  0  3  0  0  0  0  0  0
  187.0240  178.2640  142.0980 C   0  0  1  0  0  3  0  0  0  0  0  0
  189.0040  175.5080  143.4200 C   0  0  0  0  0  0  0  0  0  0  0  0
  189.6280  176.6650  145.4630 C   0  0  0  0  0  3  0  0  0  0  0  0
  192.6360  174.7550  144.3920 C   0  0  0  0  0  2  0  0  0  0  0  0
  190.4540  172.8750  142.0190 C   0  0  0  0  0  3  0  0  0  0  0  0
  191.2550  175.3080  144.3030 C   0  0  0  0  0  0  0  0  0  0  0  0
  192.1850  176.4200  146.5680 S   0  0  0  0  0  0  0  0  0  0  0  0
  187.7290  175.1230  139.9920 C   0  0  0  0  0  2  0  0  0  0  0  0
  186.6710  176.9320  141.4330 C   0  0  1  0  0  3  0  0  0  0  0  0
  190.9000  176.1130  145.3740 C   0  0  0  0  0  0  0  0  0  0  0  0
  190.3360  175.0530  143.2670 C   0  0  0  0  0  0  0  0  0  0  0  0
  185.6790  178.4590  146.0620 C   0  0  0  0  0  3  0  0  0  0  0  0
  188.9420  174.2290  139.7620 C   0  0  0  0  0  2  0  0  0  0  0  0
  189.5250  172.2910  141.2530 C   0  0  0  0  0  3  0  0  0  0  0  0
  193.6890  174.1620  146.5130 C   0  0  0  0  0  2  0  0  0  0  0  0
  186.7960  176.4370  146.9140 C   0  0  0  0  0  1  0  0  0  0  0  0
  185.9880  178.4840  143.1760 C   0  0  2  0  0  3  0  0  0  0  0  0
  185.1990  179.4160  145.2300 C   0  0  0  0  0  3  0  0  0  0  0  0
  193.0970  175.0950  145.7720 C   0  0  0  0  0  0  0  0  0  0  0  0
  187.3030  177.0390  144.5090 C   0  0  1  0  0  3  0  0  0  0  0  0
  187.9410  175.0780  142.4550 C   0  0  0  0  0  2  0  0  0  0  0  0
  186.0360  177.2050  140.2180 O   0  0  0  0  0  1  0  0  0  0  0  0
  187.8770  175.9940  141.2460 C   0  0  1  0  0  3  0  0  0  0  0  0
  188.7070  172.9320  140.3050 O   0  0  0  0  0  0  0  0  0  0  0  0
  192.3250  174.7470  141.3100 Cl  0  0  0  0  0  0  0  0  0  0  0  0
  185.7730  179.7870  143.8880 C   0  0  0  0  0  2  0  0  0  0  0  0
  187.4190  178.2210  143.5720 C   0  0  1  0  0  3  0  0  0  0  0  0
  190.7290  174.3370  141.9970 C   0  0  1  0  0  3  0  0  0  0  0  0
  1 22  1  0  0  0  0
  1  5  1  0  0  0  0
  2 14  1  0  0  0  0
  2 18  1  1  0  0  0
  3 19  1  0  0  0  0
  3 29  1  0  0  0  0
  4  1  2  0  0  0  0
  6 21  1  0  0  0  0
  8  6  1  0  0  0  0
  8 12  1  0  0  0  0
 10 25  1  0  0  0  0
 11  3  1  0  0  0  0
 12  5  2  0  0  0  0
 12  9  1  0  0  0  0
 13  4  1  0  0  0  0
 13  8  2  0  0  0  0
 15 10  1  0  0  0  0
 15 26  1  0  0  0  0
 16  7  2  0  0  0  0
 19 29  1  0  0  0  0
 19 28  1  0  0  0  0
 20 14  2  0  0  0  0
 21 17  2  0  0  0  0
 21  9  1  0  0  0  0
 22  2  1  0  0  0  0
 23  4  1  0  0  0  0
 24 11  1  0  0  0  0
 25 11  1  0  0  0  0
 25 23  1  0  0  0  0
 26 16  1  0  0  0  0
 27 30  1  0  0  0  0
 28 20  1  0  0  0  0
 29 22  1  0  0  0  0
 30  7  1  0  0  0  0
 30 13  1  0  0  0  0
M  END
>  <MODEL>
4

>  <REMARK>
 VINA RESULT:      -9.0      3.401      7.256
  Name = 
  0 active torsions:
  status: ('A' for Active; 'I' for Inactive)
                            x       y       z     vdW  Elec       q    Type
                         _______ _______ _______ _____ _____    ______ ____

>  <TORSDO>
F 0

$$$$
=
 OpenBabel11052417203D

 30 35  0  0  1  0  0  0  0  0999 V2000
  190.3680  175.3640  144.8170 C   0  0  0  0  0  0  0  0  0  0  0  0
  188.6580  176.0410  146.5940 C   0  0  1  0  0  3  0  0  0  0  0  0
  187.9790  176.9930  142.8880 C   0  0  1  0  0  3  0  0  0  0  0  0
  190.7190  174.7080  143.6170 C   0  0  0  0  0  0  0  0  0  0  0  0
  191.3890  175.8350  145.6630 C   0  0  0  0  0  3  0  0  0  0  0  0
  194.5360  174.7820  143.9810 C   0  0  0  0  0  2  0  0  0  0  0  0
  192.4810  172.6040  141.7540 C   0  0  0  0  0  3  0  0  0  0  0  0
  193.0700  174.9930  144.1470 C   0  0  0  0  0  0  0  0  0  0  0  0
  194.0790  176.1350  146.3630 S   0  0  0  0  0  0  0  0  0  0  0  0
  189.0260  174.2670  140.3820 C   0  0  0  0  0  2  0  0  0  0  0  0
  187.8350  175.6650  142.1420 C   0  0  1  0  0  3  0  0  0  0  0  0
  192.7210  175.6130  145.3360 C   0  0  0  0  0  0  0  0  0  0  0  0
  192.0780  174.5970  143.2300 C   0  0  0  0  0  0  0  0  0  0  0  0
  187.2870  176.5820  147.0000 C   0  0  0  0  0  3  0  0  0  0  0  0
  190.3560  173.7100  139.8900 C   0  0  0  0  0  2  0  0  0  0  0  0
  191.5970  171.8680  141.0700 C   0  0  0  0  0  3  0  0  0  0  0  0
  196.0260  174.3140  145.8560 C   0  0  0  0  0  2  0  0  0  0  0  0
  188.9560  174.8330  147.4660 C   0  0  0  0  0  1  0  0  0  0  0  0
  187.1100  176.8820  144.1180 C   0  0  2  0  0  3  0  0  0  0  0  0
  186.4740  177.4510  146.3510 C   0  0  0  0  0  3  0  0  0  0  0  0
  195.1260  175.1260  145.3100 C   0  0  0  0  0  0  0  0  0  0  0  0
  188.9160  175.7060  145.0920 C   0  0  1  0  0  3  0  0  0  0  0  0
  189.6400  174.1030  142.7720 C   0  0  0  0  0  2  0  0  0  0  0  0
  186.9650  175.8610  141.0650 O   0  0  0  0  0  1  0  0  0  0  0  0
  189.1740  175.0590  141.6880 C   0  0  1  0  0  3  0  0  0  0  0  0
  190.5120  172.3590  140.3210 O   0  0  0  0  0  0  0  0  0  0  0  0
  193.7390  174.9150  140.9900 Cl  0  0  0  0  0  0  0  0  0  0  0  0
  186.7240  178.0420  144.9880 C   0  0  0  0  0  2  0  0  0  0  0  0
  188.6070  176.9440  144.2790 C   0  0  1  0  0  3  0  0  0  0  0  0
  192.4100  174.0870  141.8480 C   0  0  1  0  0  3  0  0  0  0  0  0
  1 22  1  0  0  0  0
  1  5  1  0  0  0  0
  2 14  1  0  0  0  0
  2 18  1  1  0  0  0
  3 19  1  0  0  0  0
  3 29  1  0  0  0  0
  4  1  2  0  0  0  0
  6  8  1  0  0  0  0
  6 21  1  0  0  0  0
  7 30  1  0  0  0  0
  8 12  1  0  0  0  0
 10 25  1  0  0  0  0
 11  3  1  0  0  0  0
 12  5  2  0  0  0  0
 12  9  1  0  0  0  0
 13  4  1  0  0  0  0
 13  8  2  0  0  0  0
 15 26  1  0  0  0  0
 15 10  1  0  0  0  0
 16  7  2  0  0  0  0
 19 29  1  0  0  0  0
 19 28  1  0  0  0  0
 20 14  2  0  0  0  0
 21 17  2  0  0  0  0
 21  9  1  0  0  0  0
 22  2  1  0  0  0  0
 23  4  1  0  0  0  0
 24 11  1  0  0  0  0
 25 11  1  0  0  0  0
 25 23  1  0  0  0  0
 26 16  1  0  0  0  0
 27 30  1  0  0  0  0
 28 20  1  0  0  0  0
 29 22  1  0  0  0  0
 30 13  1  0  0  0  0
M  END
>  <MODEL>
5

>  <REMARK>
 VINA RESULT:      -8.7      3.727      7.707
  Name = 
  0 active torsions:
  status: ('A' for Active; 'I' for Inactive)
                            x       y       z     vdW  Elec       q    Type
                         _______ _______ _______ _____ _____    ______ ____

>  <TORSDO>
F 0

$$$$
=
 OpenBabel11052417203D

 30 35  0  0  1  0  0  0  0  0999 V2000
  188.0700  176.0530  142.1600 C   0  0  0  0  0  0  0  0  0  0  0  0
  186.1760  177.4540  141.1620 C   0  0  1  0  0  3  0  0  0  0  0  0
  186.3620  177.0400  145.0220 C   0  0  1  0  0  3  0  0  0  0  0  0
  189.1790  175.8960  143.0180 C   0  0  0  0  0  0  0  0  0  0  0  0
  187.8090  175.0670  141.1910 C   0  0  0  0  0  3  0  0  0  0  0  0
  190.5870  172.6240  141.5980 C   0  0  0  0  0  2  0  0  0  0  0  0
  192.3250  175.1340  143.7460 C   0  0  0  0  0  3  0  0  0  0  0  0
  189.7400  173.8090  141.9160 C   0  0  0  0  0  0  0  0  0  0  0  0
  188.4410  172.7030  139.8360 S   0  0  0  0  0  0  0  0  0  0  0  0
  189.9510  177.1030  146.4060 C   0  0  0  0  0  2  0  0  0  0  0  0
  187.6740  177.7030  145.4440 C   0  0  1  0  0  3  0  0  0  0  0  0
  188.6650  173.9800  141.0580 C   0  0  0  0  0  0  0  0  0  0  0  0
  189.9730  174.7240  142.9600 C   0  0  0  0  0  0  0  0  0  0  0  0
  185.0090  178.4300  141.3080 C   0  0  0  0  0  3  0  0  0  0  0  0
  191.1450  176.1570  146.3480 C   0  0  0  0  0  2  0  0  0  0  0  0
  192.8080  176.1550  144.4620 C   0  0  0  0  0  3  0  0  0  0  0  0
  190.9600  171.8390  139.3180 C   0  0  0  0  0  2  0  0  0  0  0  0
  187.0170  177.9110  139.9830 C   0  0  0  0  0  1  0  0  0  0  0  0
  185.6700  178.0210  144.1040 C   0  0  2  0  0  3  0  0  0  0  0  0
  184.1600  178.6140  142.3490 C   0  0  0  0  0  3  0  0  0  0  0  0
  190.0880  172.1410  140.2750 C   0  0  0  0  0  0  0  0  0  0  0  0
  187.0810  177.1770  142.4030 C   0  0  1  0  0  3  0  0  0  0  0  0
  189.5270  176.9990  143.9710 C   0  0  0  0  0  2  0  0  0  0  0  0
  187.5150  178.2010  146.7410 O   0  0  0  0  0  1  0  0  0  0  0  0
  188.9000  176.7790  145.3360 C   0  0  1  0  0  3  0  0  0  0  0  0
  192.1990  176.7420  145.5860 O   0  0  0  0  0  0  0  0  0  0  0  0
  191.1670  172.8150  144.6350 Cl  0  0  0  0  0  0  0  0  0  0  0  0
  184.2350  177.9140  143.6810 C   0  0  0  0  0  2  0  0  0  0  0  0
  186.1890  176.7240  143.5380 C   0  0  1  0  0  3  0  0  0  0  0  0
  191.0140  174.4860  144.0270 C   0  0  1  0  0  3  0  0  0  0  0  0
  1 22  1  0  0  0  0
  1  4  1  0  0  0  0
  2 18  1  6  0  0  0
  2 14  1  0  0  0  0
  2 22  1  0  0  0  0
  3 11  1  0  0  0  0
  4 23  1  0  0  0  0
  5  1  2  0  0  0  0
  6  8  1  0  0  0  0
  7 30  1  0  0  0  0
  7 16  2  0  0  0  0
  8 13  1  0  0  0  0
  9 21  1  0  0  0  0
  9 12  1  0  0  0  0
 11 24  1  0  0  0  0
 12  5  1  0  0  0  0
 12  8  2  0  0  0  0
 13  4  2  0  0  0  0
 13 30  1  0  0  0  0
 14 20  2  0  0  0  0
 15 10  1  0  0  0  0
 16 26  1  0  0  0  0
 17 21  2  0  0  0  0
 19  3  1  0  0  0  0
 20 28  1  0  0  0  0
 21  6  1  0  0  0  0
 22 29  1  0  0  0  0
 23 25  1  0  0  0  0
 25 11  1  0  0  0  0
 25 10  1  0  0  0  0
 26 15  1  0  0  0  0
 28 19  1  0  0  0  0
 29 19  1  0  0  0  0
 29  3  1  0  0  0  0
 30 27  1  0  0  0  0
M  END
>  <MODEL>
6

>  <REMARK>
 VINA RESULT:      -8.2      2.315      5.900
  Name = 
  0 active torsions:
  status: ('A' for Active; 'I' for Inactive)
                            x       y       z     vdW  Elec       q    Type
                         _______ _______ _______ _____ _____    ______ ____

>  <TORSDO>
F 0

$$$$
=
 OpenBabel11052417203D

 30 35  0  0  1  0  0  0  0  0999 V2000
  188.0640  176.5920  144.8810 C   0  0  0  0  0  0  0  0  0  0  0  0
  185.7020  177.5750  144.8620 C   0  0  1  0  0  3  0  0  0  0  0  0
  187.5860  177.1710  141.4870 C   0  0  1  0  0  3  0  0  0  0  0  0
  189.0140  175.6350  144.4640 C   0  0  0  0  0  0  0  0  0  0  0  0
  188.3770  177.4450  145.9550 C   0  0  0  0  0  3  0  0  0  0  0  0
  191.7540  176.3340  147.0550 C   0  0  0  0  0  2  0  0  0  0  0  0
  191.3180  173.2950  144.9320 C   0  0  0  0  0  3  0  0  0  0  0  0
  190.5360  176.3890  146.1970 C   0  0  0  0  0  0  0  0  0  0  0  0
  190.0580  178.3130  148.0140 S   0  0  0  0  0  0  0  0  0  0  0  0
  189.6710  173.9450  141.2640 C   0  0  0  0  0  2  0  0  0  0  0  0
  187.7980  175.6660  141.3120 C   0  0  1  0  0  3  0  0  0  0  0  0
  189.5900  177.3090  146.6200 C   0  0  0  0  0  0  0  0  0  0  0  0
  190.2960  175.5870  145.0640 C   0  0  0  0  0  0  0  0  0  0  0  0
  184.4440  178.0300  144.1220 C   0  0  0  0  0  3  0  0  0  0  0  0
  190.9490  173.4400  141.9230 C   0  0  0  0  0  2  0  0  0  0  0  0
  190.9810  172.2660  144.1460 C   0  0  0  0  0  3  0  0  0  0  0  0
  191.6900  176.7040  149.4660 C   0  0  0  0  0  2  0  0  0  0  0  0
  185.2620  176.7680  146.0710 C   0  0  0  0  0  1  0  0  0  0  0  0
  186.1340  177.3510  141.8620 C   0  0  2  0  0  3  0  0  0  0  0  0
  184.3100  178.5240  142.8670 C   0  0  0  0  0  3  0  0  0  0  0  0
  191.4190  177.1670  148.2500 C   0  0  0  0  0  0  0  0  0  0  0  0
  186.8030  176.8080  144.0650 C   0  0  1  0  0  3  0  0  0  0  0  0
  188.6400  174.6500  143.3990 C   0  0  0  0  0  2  0  0  0  0  0  0
  187.8170  175.3830  139.9430 O   0  0  0  0  0  1  0  0  0  0  0  0
  189.0550  175.1300  142.0200 C   0  0  1  0  0  3  0  0  0  0  0  0
  190.6590  172.3370  142.7780 O   0  0  0  0  0  0  0  0  0  0  0  0
  193.0130  175.3790  144.3900 Cl  0  0  0  0  0  0  0  0  0  0  0  0
  185.4150  178.6680  141.8540 C   0  0  0  0  0  2  0  0  0  0  0  0
  187.2010  177.6610  142.8810 C   0  0  1  0  0  3  0  0  0  0  0  0
  191.3610  174.7050  144.4580 C   0  0  1  0  0  3  0  0  0  0  0  0
  1  5  1  0  0  0  0
  2 18  1  1  0  0  0
  3 19  1  0  0  0  0
  3 29  1  0  0  0  0
  4  1  2  0  0  0  0
  4 13  1  0  0  0  0
  5 12  2  0  0  0  0
  6 21  1  0  0  0  0
  8 12  1  0  0  0  0
  8  6  1  0  0  0  0
  9 21  1  0  0  0  0
 10 15  1  0  0  0  0
 10 25  1  0  0  0  0
 11  3  1  0  0  0  0
 11 25  1  0  0  0  0
 12  9  1  0  0  0  0
 13  8  2  0  0  0  0
 14  2  1  0  0  0  0
 15 26  1  0  0  0  0
 16  7  2  0  0  0  0
 19 29  1  0  0  0  0
 20 14  2  0  0  0  0
 21 17  2  0  0  0  0
 22  2  1  0  0  0  0
 22  1  1  0  0  0  0
 23  4  1  0  0  0  0
 24 11  1  0  0  0  0
 25 23  1  0  0  0  0
 26 16  1  0  0  0  0
 27 30  1  0  0  0  0
 28 19  1  0  0  0  0
 28 20  1  0  0  0  0
 29 22  1  0  0  0  0
 30  7  1  0  0  0  0
 30 13  1  0  0  0  0
M  END
>  <MODEL>
7

>  <REMARK>
 VINA RESULT:      -7.8      3.250      6.982
  Name = 
  0 active torsions:
  status: ('A' for Active; 'I' for Inactive)
                            x       y       z     vdW  Elec       q    Type
                         _______ _______ _______ _____ _____    ______ ____

>  <TORSDO>
F 0

$$$$
=
 OpenBabel11052417203D

 30 35  0  0  1  0  0  0  0  0999 V2000
  191.3530  175.4600  143.3150 C   0  0  0  0  0  0  0  0  0  0  0  0
  190.1000  176.7110  145.1620 C   0  0  1  0  0  3  0  0  0  0  0  0
  193.2070  174.5840  146.1220 C   0  0  1  0  0  3  0  0  0  0  0  0
  192.5290  175.1660  142.5910 C   0  0  0  0  0  0  0  0  0  0  0  0
  190.1140  175.0150  142.8180 C   0  0  0  0  0  3  0  0  0  0  0  0
  190.9610  173.3450  139.6030 C   0  0  0  0  0  2  0  0  0  0  0  0
  194.3620  174.8630  139.8440 C   0  0  0  0  0  3  0  0  0  0  0  0
  191.2080  174.0230  140.9070 C   0  0  0  0  0  0  0  0  0  0  0  0
  188.5310  173.7700  140.8780 S   0  0  0  0  0  0  0  0  0  0  0  0
  196.0590  174.7750  143.5450 C   0  0  0  0  0  2  0  0  0  0  0  0
  194.3920  175.2410  145.4090 C   0  0  1  0  0  3  0  0  0  0  0  0
  190.0540  174.3360  141.6070 C   0  0  0  0  0  0  0  0  0  0  0  0
  192.4720  174.3660  141.4240 C   0  0  0  0  0  0  0  0  0  0  0  0
  189.9860  177.2220  146.5980 C   0  0  0  0  0  3  0  0  0  0  0  0
  196.2670  174.2560  142.1280 C   0  0  0  0  0  2  0  0  0  0  0  0
  195.5120  175.5050  140.0810 C   0  0  0  0  0  3  0  0  0  0  0  0
  189.0160  173.8280  138.2100 C   0  0  0  0  0  2  0  0  0  0  0  0
  189.6840  177.8410  144.2350 C   0  0  0  0  0  1  0  0  0  0  0  0
  192.4510  175.7020  146.8010 C   0  0  2  0  0  3  0  0  0  0  0  0
  190.4960  176.7030  147.7420 C   0  0  0  0  0  3  0  0  0  0  0  0
  189.4850  173.4440  139.3930 C   0  0  0  0  0  0  0  0  0  0  0  0
  191.4520  176.0900  144.6920 C   0  0  1  0  0  3  0  0  0  0  0  0
  193.8340  175.7370  143.0550 C   0  0  0  0  0  2  0  0  0  0  0  0
  195.5390  175.0220  146.1760 O   0  0  0  0  0  1  0  0  0  0  0  0
  194.5810  174.7700  143.9560 C   0  0  1  0  0  3  0  0  0  0  0  0
  196.3350  175.3460  141.2110 O   0  0  0  0  0  0  0  0  0  0  0  0
  193.7810  172.2080  140.1960 Cl  0  0  0  0  0  0  0  0  0  0  0  0
  191.3910  175.4950  147.8410 C   0  0  0  0  0  2  0  0  0  0  0  0
  191.8090  174.9730  145.6480 C   0  0  1  0  0  3  0  0  0  0  0  0
  193.7600  173.8890  140.7950 C   0  0  1  0  0  3  0  0  0  0  0  0
  1 22  1  0  0  0  0
  2 18  1  6  0  0  0
  2 14  1  0  0  0  0
  3 19  1  0  0  0  0
  4 23  1  0  0  0  0
  4  1  2  0  0  0  0
  5  1  1  0  0  0  0
  6  8  1  0  0  0  0
  7 16  2  0  0  0  0
  7 30  1  0  0  0  0
  8 13  2  0  0  0  0
  8 12  1  0  0  0  0
  9 12  1  0  0  0  0
 10 25  1  0  0  0  0
 11  3  1  0  0  0  0
 11 24  1  0  0  0  0
 12  5  2  0  0  0  0
 13  4  1  0  0  0  0
 14 20  2  0  0  0  0
 15 10  1  0  0  0  0
 16 26  1  0  0  0  0
 17 21  2  0  0  0  0
 19 28  1  0  0  0  0
 20 28  1  0  0  0  0
 21  6  1  0  0  0  0
 21  9  1  0  0  0  0
 22  2  1  0  0  0  0
 22 29  1  0  0  0  0
 23 25  1  0  0  0  0
 25 11  1  0  0  0  0
 26 15  1  0  0  0  0
 27 30  1  0  0  0  0
 29  3  1  0  0  0  0
 29 19  1  0  0  0  0
 30 13  1  0  0  0  0
M  END
>  <MODEL>
8

>  <REMARK>
 VINA RESULT:      -7.7      4.282      7.150
  Name = 
  0 active torsions:
  status: ('A' for Active; 'I' for Inactive)
                            x       y       z     vdW  Elec       q    Type
                         _______ _______ _______ _____ _____    ______ ____

>  <TORSDO>
F 0

$$$$
=
 OpenBabel11052417203D

 30 35  0  0  1  0  0  0  0  0999 V2000
  192.8380  173.3720  144.4100 C   0  0  0  0  0  0  0  0  0  0  0  0
  190.5310  173.8970  145.3800 C   0  0  1  0  0  3  0  0  0  0  0  0
  193.5930  175.9370  146.6320 C   0  0  1  0  0  3  0  0  0  0  0  0
  194.0240  173.7570  143.7470 C   0  0  0  0  0  0  0  0  0  0  0  0
  192.5720  172.0040  144.5940 C   0  0  0  0  0  3  0  0  0  0  0  0
  195.4140  170.2790  142.9230 C   0  0  0  0  0  2  0  0  0  0  0  0
  196.3400  173.5500  141.3810 C   0  0  0  0  0  3  0  0  0  0  0  0
  194.6230  171.4240  143.4580 C   0  0  0  0  0  0  0  0  0  0  0  0
  193.1720  169.2960  144.2340 S   0  0  0  0  0  0  0  0  0  0  0  0
  196.1210  176.7760  143.8560 C   0  0  0  0  0  2  0  0  0  0  0  0
  194.1080  176.6980  145.4090 C   0  0  1  0  0  3  0  0  0  0  0  0
  193.4450  171.0500  144.0860 C   0  0  0  0  0  0  0  0  0  0  0  0
  194.9700  172.7830  143.3440 C   0  0  0  0  0  0  0  0  0  0  0  0
  189.5890  174.7760  146.2030 C   0  0  0  0  0  3  0  0  0  0  0  0
  197.1200  175.9750  143.0300 C   0  0  0  0  0  2  0  0  0  0  0  0
  196.5060  174.7880  140.9010 C   0  0  0  0  0  3  0  0  0  0  0  0
  194.3790  168.2540  142.0390 C   0  0  0  0  0  2  0  0  0  0  0  0
  189.8090  173.5200  144.0980 C   0  0  0  0  0  1  0  0  0  0  0  0
  192.0990  176.1590  146.6680 C   0  0  2  0  0  3  0  0  0  0  0  0
  189.8590  175.5740  147.2650 C   0  0  0  0  0  3  0  0  0  0  0  0
  194.5150  169.0940  143.0610 C   0  0  0  0  0  0  0  0  0  0  0  0
  191.9640  174.4250  145.0640 C   0  0  1  0  0  3  0  0  0  0  0  0
  194.2550  175.2070  143.4460 C   0  0  0  0  0  2  0  0  0  0  0  0
  194.6920  177.8890  145.8490 O   0  0  0  0  0  1  0  0  0  0  0  0
  195.0740  175.8810  144.5310 C   0  0  1  0  0  3  0  0  0  0  0  0
  196.7200  175.9510  141.6620 O   0  0  0  0  0  0  0  0  0  0  0  0
  197.7320  172.2850  143.3730 Cl  0  0  0  0  0  0  0  0  0  0  0  0
  191.2250  175.8390  147.8440 C   0  0  0  0  0  2  0  0  0  0  0  0
  192.6310  174.7790  146.3760 C   0  0  1  0  0  3  0  0  0  0  0  0
  196.3190  173.2330  142.8350 C   0  0  1  0  0  3  0  0  0  0  0  0
  1  5  1  0  0  0  0
  1 22  1  0  0  0  0
  2 18  1  6  0  0  0
  2 14  1  0  0  0  0
  3 19  1  0  0  0  0
  4  1  2  0  0  0  0
  6 21  1  0  0  0  0
  6  8  1  0  0  0  0
  7 30  1  0  0  0  0
  8 12  1  0  0  0  0
 10 25  1  0  0  0  0
 11 24  1  0  0  0  0
 11  3  1  0  0  0  0
 12  9  1  0  0  0  0
 12  5  2  0  0  0  0
 13  8  2  0  0  0  0
 13  4  1  0  0  0  0
 14 20  2  0  0  0  0
 15 10  1  0  0  0  0
 16  7  2  0  0  0  0
 16 26  1  0  0  0  0
 17 21  2  0  0  0  0
 19 28  1  0  0  0  0
 20 28  1  0  0  0  0
 21  9  1  0  0  0  0
 22  2  1  0  0  0  0
 22 29  1  0  0  0  0
 23  4  1  0  0  0  0
 23 25  1  0  0  0  0
 25 11  1  0  0  0  0
 26 15  1  0  0  0  0
 29  3  1  0  0  0  0
 29 19  1  0  0  0  0
 30 13  1  0  0  0  0
 30 27  1  0  0  0  0
M  END
>  <MODEL>
9

>  <REMARK>
 VINA RESULT:      -7.6      5.591      9.030
  Name = 
  0 active torsions:
  status: ('A' for Active; 'I' for Inactive)
                            x       y       z     vdW  Elec       q    Type
                         _______ _______ _______ _____ _____    ______ ____

>  <TORSDO>
F 0

$$$$
