=
 OpenBabel11052418293D

 27 31  0  0  1  0  0  0  0  0999 V2000
  187.8090  176.5500  142.9670 C   0  0  0  0  0  3  0  0  0  0  0  0
  189.0040  176.6780  145.1540 C   0  0  0  0  0  0  0  0  0  0  0  0
  190.0830  174.7790  143.9780 C   0  0  0  0  0  3  0  0  0  0  0  0
  192.7510  176.5300  147.3540 C   0  0  0  0  0  2  0  0  0  0  0  0
  194.8390  175.9800  146.2220 O   0  0  0  0  0  0  0  0  0  0  0  0
  189.0380  177.0480  146.5970 C   0  0  0  0  0  3  0  0  0  0  0  0
  192.8020  175.8840  145.0320 N   0  0  0  0  0  0  0  0  0  0  0  0
  189.4530  172.1140  140.2730 O   0  0  0  0  0  0  0  0  0  0  0  0
  193.3000  175.7240  143.6750 C   0  0  0  0  0  1  0  0  0  0  0  0
  189.0750  173.1120  140.9380 C   0  0  0  0  0  0  0  0  0  0  0  0
  191.4740  176.1990  145.4150 C   0  0  0  0  0  0  0  0  0  0  0  0
  187.8850  176.8800  144.4140 C   0  0  0  0  0  0  0  0  0  0  0  0
  193.5860  176.1080  146.1930 C   0  0  0  0  0  0  0  0  0  0  0  0
  191.4070  176.5570  146.6930 C   0  0  0  0  0  0  0  0  0  0  0  0
  188.4000  175.5340  142.3240 C   0  0  0  0  0  0  0  0  0  0  0  0
  190.2770  176.1630  144.4980 C   0  0  2  0  0  3  0  0  0  0  0  0
  189.2350  173.1080  142.4330 C   0  0  0  0  0  2  0  0  0  0  0  0
  190.1560  176.9880  147.3200 C   0  0  0  0  0  3  0  0  0  0  0  0
  188.4200  174.2380  140.2470 C   0  0  0  0  0  3  0  0  0  0  0  0
  188.0870  175.3540  140.8980 C   0  0  0  0  0  3  0  0  0  0  0  0
  189.2450  174.5020  142.9820 C   0  0  0  0  0  0  0  0  0  0  0  0
  184.3120  178.6580  145.9930 C   0  0  0  0  0  3  0  0  0  0  0  0
  186.6640  177.4980  144.9880 C   0  0  0  0  0  0  0  0  0  0  0  0
  185.8470  176.7910  145.8860 C   0  0  0  0  0  3  0  0  0  0  0  0
  184.6790  177.3710  146.3890 C   0  0  0  0  0  3  0  0  0  0  0  0
  185.1090  179.3650  145.0870 C   0  0  0  0  0  3  0  0  0  0  0  0
  186.2760  178.7850  144.5840 C   0  0  0  0  0  3  0  0  0  0  0  0
  1 12  1  0  0  0  0
  2  6  1  0  0  0  0
  6 18  2  0  0  0  0
  7 11  1  0  0  0  0
  7 13  1  0  0  0  0
  8 10  2  0  0  0  0
  9  7  1  0  0  0  0
 10 17  1  0  0  0  0
 11 14  2  0  0  0  0
 12 23  1  0  0  0  0
 12  2  2  0  0  0  0
 13  5  2  0  0  0  0
 13  4  1  0  0  0  0
 14 18  1  0  0  0  0
 14  4  1  0  0  0  0
 15  1  2  0  0  0  0
 15 21  1  0  0  0  0
 16  3  1  1  0  0  0
 16  2  1  0  0  0  0
 16 11  1  0  0  0  0
 17 21  1  0  0  0  0
 19 20  2  0  0  0  0
 19 10  1  0  0  0  0
 20 15  1  0  0  0  0
 21  3  2  0  0  0  0
 22 25  1  0  0  0  0
 23 24  1  0  0  0  0
 24 25  2  0  0  0  0
 26 22  2  0  0  0  0
 27 23  2  0  0  0  0
 27 26  1  0  0  0  0
M  END
>  <MODEL>
1

>  <REMARK>
 VINA RESULT:      -9.3      0.000      0.000
  Name = 
  1 active torsions:
  status: ('A' for Active; 'I' for Inactive)
    1  A    between atoms: C_9  and  C_15
                            x       y       z     vdW  Elec       q    Type
                         _______ _______ _______ _____ _____    ______ ____

>  <TORSDO>
F 1

$$$$
=
 OpenBabel11052418293D

 27 31  0  0  1  0  0  0  0  0999 V2000
  188.6370  176.0480  146.0800 C   0  0  0  0  0  3  0  0  0  0  0  0
  188.0690  176.0310  143.6490 C   0  0  0  0  0  0  0  0  0  0  0  0
  190.5270  175.7040  143.7040 C   0  0  0  0  0  3  0  0  0  0  0  0
  188.6280  174.2680  139.7160 C   0  0  0  0  0  2  0  0  0  0  0  0
  190.2870  172.5170  139.3600 O   0  0  0  0  0  0  0  0  0  0  0  0
  187.1860  176.4340  142.5190 C   0  0  0  0  0  3  0  0  0  0  0  0
  190.1290  173.5680  141.4680 N   0  0  0  0  0  0  0  0  0  0  0  0
  194.0490  175.9580  146.6630 O   0  0  0  0  0  0  0  0  0  0  0  0
  190.9870  172.7000  142.2580 C   0  0  0  0  0  1  0  0  0  0  0  0
  192.8050  176.0090  146.4900 C   0  0  0  0  0  0  0  0  0  0  0  0
  189.2390  174.5560  141.9620 C   0  0  1  0  0  3  0  0  0  0  0  0
  187.8020  176.4410  144.9150 C   0  0  0  0  0  0  0  0  0  0  0  0
  189.7490  173.3680  140.1160 C   0  0  0  0  0  0  0  0  0  0  0  0
  188.3980  174.9680  141.0190 C   0  0  0  0  0  0  0  0  0  0  0  0
  189.9630  175.8570  146.1120 C   0  0  0  0  0  0  0  0  0  0  0  0
  189.2170  175.0700  143.3790 C   0  0  0  0  0  0  0  0  0  0  0  0
  192.2610  176.5330  145.1890 C   0  0  0  0  0  2  0  0  0  0  0  0
  187.3400  175.9440  141.2880 C   0  0  0  0  0  3  0  0  0  0  0  0
  191.9020  175.6200  147.5880 C   0  0  0  0  0  3  0  0  0  0  0  0
  190.5790  175.5710  147.4170 C   0  0  0  0  0  3  0  0  0  0  0  0
  190.8670  176.0430  144.9470 C   0  0  0  0  0  0  0  0  0  0  0  0
  184.4060  178.8600  145.9360 C   0  0  0  0  0  3  0  0  0  0  0  0
  186.6180  177.2750  145.2380 C   0  0  0  0  0  0  0  0  0  0  0  0
  186.5210  178.6030  144.7880 C   0  0  0  0  0  3  0  0  0  0  0  0
  185.4180  179.3890  145.1320 C   0  0  0  0  0  3  0  0  0  0  0  0
  184.4990  177.5450  146.4020 C   0  0  0  0  0  3  0  0  0  0  0  0
  185.6020  176.7590  146.0580 C   0  0  0  0  0  3  0  0  0  0  0  0
  1 15  1  0  0  0  0
  2 12  1  0  0  0  0
  3 21  1  0  0  0  0
  4 13  1  0  0  0  0
  4 14  1  0  0  0  0
  5 13  2  0  0  0  0
  6  2  2  0  0  0  0
  7 11  1  0  0  0  0
  7  9  1  0  0  0  0
 10  8  2  0  0  0  0
 10 19  1  0  0  0  0
 11 14  1  1  0  0  0
 11 16  1  0  0  0  0
 12 23  1  0  0  0  0
 12  1  2  0  0  0  0
 13  7  1  0  0  0  0
 14 18  2  0  0  0  0
 15 20  1  0  0  0  0
 16  2  1  0  0  0  0
 16  3  2  0  0  0  0
 17 10  1  0  0  0  0
 18  6  1  0  0  0  0
 20 19  2  0  0  0  0
 21 17  1  0  0  0  0
 21 15  2  0  0  0  0
 22 26  1  0  0  0  0
 23 27  1  0  0  0  0
 24 25  1  0  0  0  0
 24 23  2  0  0  0  0
 25 22  2  0  0  0  0
 27 26  2  0  0  0  0
M  END
>  <MODEL>
2

>  <REMARK>
 VINA RESULT:      -9.2      1.370      5.214
  Name = 
  1 active torsions:
  status: ('A' for Active; 'I' for Inactive)
    1  A    between atoms: C_9  and  C_15
                            x       y       z     vdW  Elec       q    Type
                         _______ _______ _______ _____ _____    ______ ____

>  <TORSDO>
F 1

$$$$
=
 OpenBabel11052418293D

 27 31  0  0  1  0  0  0  0  0999 V2000
  188.0970  177.8350  144.5820 C   0  0  0  0  0  3  0  0  0  0  0  0
  188.7490  175.7700  143.3410 C   0  0  0  0  0  0  0  0  0  0  0  0
  186.4960  176.3270  142.4630 C   0  0  0  0  0  3  0  0  0  0  0  0
  188.9020  173.5870  139.5850 C   0  0  0  0  0  2  0  0  0  0  0  0
  187.8510  174.4870  137.5780 O   0  0  0  0  0  0  0  0  0  0  0  0
  189.5200  174.4990  143.2480 C   0  0  0  0  0  3  0  0  0  0  0  0
  187.6020  175.6170  139.6350 N   0  0  0  0  0  0  0  0  0  0  0  0
  182.9330  179.0930  143.4030 O   0  0  0  0  0  0  0  0  0  0  0  0
  187.0060  176.8620  139.1790 C   0  0  0  0  0  1  0  0  0  0  0  0
  184.1140  178.7540  143.6760 C   0  0  0  0  0  0  0  0  0  0  0  0
  188.1380  175.3570  140.9220 C   0  0  0  0  0  0  0  0  0  0  0  0
  188.8280  176.5480  144.4500 C   0  0  0  0  0  0  0  0  0  0  0  0
  188.0820  174.5650  138.8130 C   0  0  0  0  0  0  0  0  0  0  0  0
  188.8600  174.2400  140.9320 C   0  0  0  0  0  0  0  0  0  0  0  0
  186.8870  178.1460  144.0990 C   0  0  0  0  0  0  0  0  0  0  0  0
  187.9470  176.2340  142.1330 C   0  0  2  0  0  3  0  0  0  0  0  0
  184.5330  177.3230  143.4900 C   0  0  0  0  0  2  0  0  0  0  0  0
  189.5700  173.7790  142.1270 C   0  0  0  0  0  3  0  0  0  0  0  0
  185.0430  179.7510  144.2360 C   0  0  0  0  0  3  0  0  0  0  0  0
  186.3280  179.4600  144.4530 C   0  0  0  0  0  3  0  0  0  0  0  0
  186.0190  177.2070  143.3420 C   0  0  0  0  0  0  0  0  0  0  0  0
  191.3530  175.4350  147.7380 C   0  0  0  0  0  3  0  0  0  0  0  0
  189.6980  176.1930  145.5980 C   0  0  0  0  0  0  0  0  0  0  0  0
  191.0260  176.6480  145.6690 C   0  0  0  0  0  3  0  0  0  0  0  0
  191.8470  176.2740  146.7370 C   0  0  0  0  0  3  0  0  0  0  0  0
  190.0390  174.9640  147.6690 C   0  0  0  0  0  3  0  0  0  0  0  0
  189.2180  175.3380  146.6020 C   0  0  0  0  0  3  0  0  0  0  0  0
  2 12  2  0  0  0  0
  3 21  2  0  0  0  0
  4 14  1  0  0  0  0
  5 13  2  0  0  0  0
  6  2  1  0  0  0  0
  7 11  1  0  0  0  0
  8 10  2  0  0  0  0
  9  7  1  0  0  0  0
 10 19  1  0  0  0  0
 11 14  2  0  0  0  0
 11 16  1  0  0  0  0
 12  1  1  0  0  0  0
 12 23  1  0  0  0  0
 13  4  1  0  0  0  0
 13  7  1  0  0  0  0
 14 18  1  0  0  0  0
 15 20  1  0  0  0  0
 15  1  2  0  0  0  0
 16  3  1  1  0  0  0
 16  2  1  0  0  0  0
 17 10  1  0  0  0  0
 18  6  2  0  0  0  0
 19 20  2  0  0  0  0
 21 17  1  0  0  0  0
 21 15  1  0  0  0  0
 23 24  2  0  0  0  0
 23 27  1  0  0  0  0
 24 25  1  0  0  0  0
 25 22  2  0  0  0  0
 26 22  1  0  0  0  0
 27 26  2  0  0  0  0
M  END
>  <MODEL>
3

>  <REMARK>
 VINA RESULT:      -8.0      3.036      6.498
  Name = 
  1 active torsions:
  status: ('A' for Active; 'I' for Inactive)
    1  A    between atoms: C_9  and  C_15
                            x       y       z     vdW  Elec       q    Type
                         _______ _______ _______ _____ _____    ______ ____

>  <TORSDO>
F 1

$$$$
=
 OpenBabel11052418293D

 27 31  0  0  1  0  0  0  0  0999 V2000
  188.2650  176.0430  145.4970 C   0  0  0  0  0  3  0  0  0  0  0  0
  188.0410  175.8840  143.0160 C   0  0  0  0  0  0  0  0  0  0  0  0
  190.3920  175.2300  143.4600 C   0  0  0  0  0  3  0  0  0  0  0  0
  188.8690  173.7110  139.3430 C   0  0  0  0  0  2  0  0  0  0  0  0
  190.2810  171.7250  139.3620 O   0  0  0  0  0  0  0  0  0  0  0  0
  187.3920  176.3000  141.7400 C   0  0  0  0  0  3  0  0  0  0  0  0
  189.9930  172.9740  141.3440 N   0  0  0  0  0  0  0  0  0  0  0  0
  193.4710  175.2660  146.8870 O   0  0  0  0  0  0  0  0  0  0  0  0
  190.5950  172.0720  142.3120 C   0  0  0  0  0  1  0  0  0  0  0  0
  192.2840  175.4710  146.5270 C   0  0  0  0  0  0  0  0  0  0  0  0
  189.2010  174.1160  141.6300 C   0  0  1  0  0  3  0  0  0  0  0  0
  187.6660  176.4400  144.1960 C   0  0  0  0  0  0  0  0  0  0  0  0
  189.7770  172.7060  139.9680 C   0  0  0  0  0  0  0  0  0  0  0  0
  188.5670  174.5520  140.5450 C   0  0  0  0  0  0  0  0  0  0  0  0
  189.5310  175.6750  145.7400 C   0  0  0  0  0  0  0  0  0  0  0  0
  189.0600  174.7540  142.9880 C   0  0  0  0  0  0  0  0  0  0  0  0
  192.0090  175.9440  145.1260 C   0  0  0  0  0  2  0  0  0  0  0  0
  187.6400  175.6840  140.5840 C   0  0  0  0  0  3  0  0  0  0  0  0
  191.1910  175.3100  147.5020 C   0  0  0  0  0  3  0  0  0  0  0  0
  189.9120  175.4280  147.1390 C   0  0  0  0  0  3  0  0  0  0  0  0
  190.6040  175.6300  144.7130 C   0  0  0  0  0  0  0  0  0  0  0  0
  184.5090  179.3430  144.3560 C   0  0  0  0  0  3  0  0  0  0  0  0
  186.5860  177.4540  144.2790 C   0  0  0  0  0  0  0  0  0  0  0  0
  185.5150  177.3010  145.1760 C   0  0  0  0  0  3  0  0  0  0  0  0
  184.4840  178.2440  145.2170 C   0  0  0  0  0  3  0  0  0  0  0  0
  185.5610  179.4980  143.4490 C   0  0  0  0  0  3  0  0  0  0  0  0
  186.5920  178.5550  143.4080 C   0  0  0  0  0  3  0  0  0  0  0  0
  1 15  1  0  0  0  0
  2 12  1  0  0  0  0
  3 21  1  0  0  0  0
  4 13  1  0  0  0  0
  4 14  1  0  0  0  0
  5 13  2  0  0  0  0
  6  2  2  0  0  0  0
  7 11  1  0  0  0  0
  7  9  1  0  0  0  0
 10  8  2  0  0  0  0
 10 19  1  0  0  0  0
 11 14  1  1  0  0  0
 11 16  1  0  0  0  0
 12 23  1  0  0  0  0
 12  1  2  0  0  0  0
 13  7  1  0  0  0  0
 14 18  2  0  0  0  0
 15 20  1  0  0  0  0
 16  2  1  0  0  0  0
 16  3  2  0  0  0  0
 17 10  1  0  0  0  0
 18  6  1  0  0  0  0
 20 19  2  0  0  0  0
 21 17  1  0  0  0  0
 21 15  2  0  0  0  0
 22 25  1  0  0  0  0
 23 24  1  0  0  0  0
 24 25  2  0  0  0  0
 26 22  2  0  0  0  0
 27 26  1  0  0  0  0
 27 23  2  0  0  0  0
M  END
>  <MODEL>
4

>  <REMARK>
 VINA RESULT:      -7.9      1.546      5.228
  Name = 
  1 active torsions:
  status: ('A' for Active; 'I' for Inactive)
    1  A    between atoms: C_9  and  C_15
                            x       y       z     vdW  Elec       q    Type
                         _______ _______ _______ _____ _____    ______ ____

>  <TORSDO>
F 1

$$$$
=
 OpenBabel11052418293D

 27 31  0  0  1  0  0  0  0  0999 V2000
  189.8080  175.2290  143.3370 C   0  0  0  0  0  3  0  0  0  0  0  0
  189.6110  176.6520  145.3790 C   0  0  0  0  0  0  0  0  0  0  0  0
  187.8760  177.5400  143.8440 C   0  0  0  0  0  3  0  0  0  0  0  0
  187.0660  178.6510  148.2810 C   0  0  0  0  0  2  0  0  0  0  0  0
  184.6440  178.6660  148.0130 O   0  0  0  0  0  0  0  0  0  0  0  0
  190.2090  177.2650  146.5980 C   0  0  0  0  0  3  0  0  0  0  0  0
  186.0010  177.7190  146.3300 N   0  0  0  0  0  0  0  0  0  0  0  0
  186.5690  177.2160  139.4380 O   0  0  0  0  0  0  0  0  0  0  0  0
  184.9890  177.0710  145.5120 C   0  0  0  0  0  1  0  0  0  0  0  0
  187.3290  176.8030  140.3520 C   0  0  0  0  0  0  0  0  0  0  0  0
  187.4040  177.5270  146.2500 C   0  0  0  0  0  0  0  0  0  0  0  0
  190.3620  175.8820  144.5520 C   0  0  0  0  0  0  0  0  0  0  0  0
  185.7850  178.3750  147.5690 C   0  0  0  0  0  0  0  0  0  0  0  0
  188.0260  178.0340  147.3110 C   0  0  0  0  0  0  0  0  0  0  0  0
  188.8610  175.6980  142.5130 C   0  0  0  0  0  0  0  0  0  0  0  0
  188.1190  176.8200  145.1270 C   0  0  2  0  0  3  0  0  0  0  0  0
  187.7750  177.7550  141.4270 C   0  0  0  0  0  2  0  0  0  0  0  0
  189.4730  177.9150  147.5000 C   0  0  0  0  0  3  0  0  0  0  0  0
  187.8220  175.4150  140.3140 C   0  0  0  0  0  3  0  0  0  0  0  0
  188.5530  174.9090  141.3100 C   0  0  0  0  0  3  0  0  0  0  0  0
  188.1980  177.0200  142.6620 C   0  0  0  0  0  0  0  0  0  0  0  0
  194.4890  174.9690  145.3010 C   0  0  0  0  0  3  0  0  0  0  0  0
  191.7900  175.5900  144.8320 C   0  0  0  0  0  0  0  0  0  0  0  0
  192.8090  176.4340  144.3590 C   0  0  0  0  0  3  0  0  0  0  0  0
  194.1520  176.1270  144.5970 C   0  0  0  0  0  3  0  0  0  0  0  0
  193.4840  174.1140  145.7630 C   0  0  0  0  0  3  0  0  0  0  0  0
  192.1420  174.4210  145.5250 C   0  0  0  0  0  3  0  0  0  0  0  0
  1 12  1  0  0  0  0
  2  6  1  0  0  0  0
  6 18  2  0  0  0  0
  7 13  1  0  0  0  0
  8 10  2  0  0  0  0
  9  7  1  0  0  0  0
 10 17  1  0  0  0  0
 11  7  1  0  0  0  0
 11 14  2  0  0  0  0
 12 23  1  0  0  0  0
 12  2  2  0  0  0  0
 13  5  2  0  0  0  0
 13  4  1  0  0  0  0
 14 18  1  0  0  0  0
 14  4  1  0  0  0  0
 15 21  1  0  0  0  0
 15  1  2  0  0  0  0
 16  3  1  6  0  0  0
 16  2  1  0  0  0  0
 16 11  1  0  0  0  0
 17 21  1  0  0  0  0
 19 10  1  0  0  0  0
 19 20  2  0  0  0  0
 20 15  1  0  0  0  0
 21  3  2  0  0  0  0
 22 26  1  0  0  0  0
 23 27  1  0  0  0  0
 24 25  1  0  0  0  0
 24 23  2  0  0  0  0
 25 22  2  0  0  0  0
 27 26  2  0  0  0  0
M  END
>  <MODEL>
5

>  <REMARK>
 VINA RESULT:      -7.6      3.035      5.917
  Name = 
  1 active torsions:
  status: ('A' for Active; 'I' for Inactive)
    1  A    between atoms: C_9  and  C_15
                            x       y       z     vdW  Elec       q    Type
                         _______ _______ _______ _____ _____    ______ ____

>  <TORSDO>
F 1

$$$$
=
 OpenBabel11052418293D

 27 31  0  0  1  0  0  0  0  0999 V2000
  188.2510  175.7110  145.3060 C   0  0  0  0  0  3  0  0  0  0  0  0
  187.1430  176.9580  143.4490 C   0  0  0  0  0  0  0  0  0  0  0  0
  189.3400  176.2880  142.5110 C   0  0  0  0  0  3  0  0  0  0  0  0
  186.2170  177.2610  139.2130 C   0  0  0  0  0  2  0  0  0  0  0  0
  187.1610  175.6800  137.6150 O   0  0  0  0  0  0  0  0  0  0  0  0
  186.1750  177.9830  142.9680 C   0  0  0  0  0  3  0  0  0  0  0  0
  187.8190  175.5880  139.8800 N   0  0  0  0  0  0  0  0  0  0  0  0
  193.3790  174.5550  143.8930 O   0  0  0  0  0  0  0  0  0  0  0  0
  188.5490  174.3300  139.8900 C   0  0  0  0  0  1  0  0  0  0  0  0
  192.1990  174.8670  144.1970 C   0  0  0  0  0  0  0  0  0  0  0  0
  187.4000  176.3320  141.0130 C   0  0  1  0  0  3  0  0  0  0  0  0
  187.3150  176.7380  144.7770 C   0  0  0  0  0  0  0  0  0  0  0  0
  187.0880  176.1260  138.7900 C   0  0  0  0  0  0  0  0  0  0  0  0
  186.5160  177.2680  140.6810 C   0  0  0  0  0  0  0  0  0  0  0  0
  189.4310  175.3360  144.7970 C   0  0  0  0  0  0  0  0  0  0  0  0
  187.8640  176.0910  142.4270 C   0  0  0  0  0  0  0  0  0  0  0  0
  191.5400  176.0280  143.5070 C   0  0  0  0  0  2  0  0  0  0  0  0
  185.8830  178.1340  141.6760 C   0  0  0  0  0  3  0  0  0  0  0  0
  191.5090  174.1320  145.2720 C   0  0  0  0  0  3  0  0  0  0  0  0
  190.2290  174.3670  145.5650 C   0  0  0  0  0  3  0  0  0  0  0  0
  190.0470  175.9280  143.5810 C   0  0  0  0  0  0  0  0  0  0  0  0
  185.0470  178.7900  147.7890 C   0  0  0  0  0  3  0  0  0  0  0  0
  186.5370  177.4750  145.8030 C   0  0  0  0  0  0  0  0  0  0  0  0
  187.1770  178.2850  146.7560 C   0  0  0  0  0  3  0  0  0  0  0  0
  186.4350  178.9430  147.7410 C   0  0  0  0  0  3  0  0  0  0  0  0
  184.4010  177.9740  146.8560 C   0  0  0  0  0  3  0  0  0  0  0  0
  185.1440  177.3160  145.8710 C   0  0  0  0  0  3  0  0  0  0  0  0
  2 12  1  0  0  0  0
  3 21  1  0  0  0  0
  4 14  1  0  0  0  0
  5 13  2  0  0  0  0
  6  2  2  0  0  0  0
  7  9  1  0  0  0  0
  7 11  1  0  0  0  0
  8 10  2  0  0  0  0
 10 19  1  0  0  0  0
 11 14  1  1  0  0  0
 11 16  1  0  0  0  0
 12  1  2  0  0  0  0
 12 23  1  0  0  0  0
 13  4  1  0  0  0  0
 13  7  1  0  0  0  0
 14 18  2  0  0  0  0
 15  1  1  0  0  0  0
 15 20  1  0  0  0  0
 16  3  2  0  0  0  0
 16  2  1  0  0  0  0
 17 21  1  0  0  0  0
 17 10  1  0  0  0  0
 18  6  1  0  0  0  0
 19 20  2  0  0  0  0
 21 15  2  0  0  0  0
 23 27  2  0  0  0  0
 23 24  1  0  0  0  0
 24 25  2  0  0  0  0
 25 22  1  0  0  0  0
 26 22  2  0  0  0  0
 27 26  1  0  0  0  0
M  END
>  <MODEL>
6

>  <REMARK>
 VINA RESULT:      -7.6      2.469      5.447
  Name = 
  1 active torsions:
  status: ('A' for Active; 'I' for Inactive)
    1  A    between atoms: C_9  and  C_15
                            x       y       z     vdW  Elec       q    Type
                         _______ _______ _______ _____ _____    ______ ____

>  <TORSDO>
F 1

$$$$
=
 OpenBabel11052418293D

 27 31  0  0  1  0  0  0  0  0999 V2000
  190.3470  175.4970  145.6770 C   0  0  0  0  0  3  0  0  0  0  0  0
  189.1330  175.4530  143.4970 C   0  0  0  0  0  0  0  0  0  0  0  0
  191.5300  175.3590  142.8640 C   0  0  0  0  0  3  0  0  0  0  0  0
  188.7380  173.7920  139.4990 C   0  0  0  0  0  2  0  0  0  0  0  0
  190.3810  172.2100  138.6390 O   0  0  0  0  0  0  0  0  0  0  0  0
  187.9410  175.7820  142.6660 C   0  0  0  0  0  3  0  0  0  0  0  0
  190.7190  173.2190  140.7460 N   0  0  0  0  0  0  0  0  0  0  0  0
  195.6960  175.9130  144.7520 O   0  0  0  0  0  0  0  0  0  0  0  0
  191.8350  172.4270  141.2380 C   0  0  0  0  0  1  0  0  0  0  0  0
  194.4520  175.8480  144.9280 C   0  0  0  0  0  0  0  0  0  0  0  0
  189.9180  174.1130  141.5000 C   0  0  1  0  0  3  0  0  0  0  0  0
  189.1920  175.8230  144.8010 C   0  0  0  0  0  0  0  0  0  0  0  0
  190.0000  172.9980  139.5440 C   0  0  0  0  0  0  0  0  0  0  0  0
  188.8150  174.4540  140.8400 C   0  0  0  0  0  0  0  0  0  0  0  0
  191.6420  175.4320  145.3380 C   0  0  0  0  0  0  0  0  0  0  0  0
  190.2420  174.6070  142.8870 C   0  0  0  0  0  0  0  0  0  0  0  0
  193.5270  176.3320  143.8460 C   0  0  0  0  0  2  0  0  0  0  0  0
  187.7910  175.3220  141.4240 C   0  0  0  0  0  3  0  0  0  0  0  0
  193.9260  175.3640  146.2160 C   0  0  0  0  0  3  0  0  0  0  0  0
  192.6170  175.1920  146.4130 C   0  0  0  0  0  3  0  0  0  0  0  0
  192.1680  175.7150  143.9770 C   0  0  0  0  0  0  0  0  0  0  0  0
  186.0180  177.9240  146.7860 C   0  0  0  0  0  3  0  0  0  0  0  0
  188.0740  176.5370  145.4660 C   0  0  0  0  0  0  0  0  0  0  0  0
  187.4880  177.6720  144.8800 C   0  0  0  0  0  3  0  0  0  0  0  0
  186.4620  178.3580  145.5350 C   0  0  0  0  0  3  0  0  0  0  0  0
  186.6040  176.8050  147.3860 C   0  0  0  0  0  3  0  0  0  0  0  0
  187.6310  176.1190  146.7300 C   0  0  0  0  0  3  0  0  0  0  0  0
  2 12  1  0  0  0  0
  3 16  2  0  0  0  0
  3 21  1  0  0  0  0
  4 13  1  0  0  0  0
  4 14  1  0  0  0  0
  5 13  2  0  0  0  0
  6  2  2  0  0  0  0
  7  9  1  0  0  0  0
  7 11  1  0  0  0  0
  8 10  2  0  0  0  0
 10 19  1  0  0  0  0
 11 14  1  1  0  0  0
 11 16  1  0  0  0  0
 12 23  1  0  0  0  0
 12  1  2  0  0  0  0
 13  7  1  0  0  0  0
 14 18  2  0  0  0  0
 15  1  1  0  0  0  0
 15 20  1  0  0  0  0
 16  2  1  0  0  0  0
 17 21  1  0  0  0  0
 17 10  1  0  0  0  0
 18  6  1  0  0  0  0
 19 20  2  0  0  0  0
 21 15  2  0  0  0  0
 22 26  1  0  0  0  0
 23 27  1  0  0  0  0
 24 23  2  0  0  0  0
 24 25  1  0  0  0  0
 25 22  2  0  0  0  0
 27 26  2  0  0  0  0
M  END
>  <MODEL>
7

>  <REMARK>
 VINA RESULT:      -7.6      1.699      5.449
  Name = 
  1 active torsions:
  status: ('A' for Active; 'I' for Inactive)
    1  A    between atoms: C_9  and  C_15
                            x       y       z     vdW  Elec       q    Type
                         _______ _______ _______ _____ _____    ______ ____

>  <TORSDO>
F 1

$$$$
=
 OpenBabel11052418293D

 27 31  0  0  1  0  0  0  0  0999 V2000
  188.2050  175.5740  141.2660 C   0  0  0  0  0  3  0  0  0  0  0  0
  188.0380  176.5680  143.5500 C   0  0  0  0  0  0  0  0  0  0  0  0
  189.3210  174.4710  143.8870 C   0  0  0  0  0  3  0  0  0  0  0  0
  189.9530  177.5190  147.3350 C   0  0  0  0  0  2  0  0  0  0  0  0
  192.2280  176.7770  147.8010 O   0  0  0  0  0  0  0  0  0  0  0  0
  187.3380  177.4270  144.5450 C   0  0  0  0  0  3  0  0  0  0  0  0
  191.1610  176.0980  145.8080 N   0  0  0  0  0  0  0  0  0  0  0  0
  190.4420  170.6230  141.6150 O   0  0  0  0  0  0  0  0  0  0  0  0
  192.2850  175.5090  145.0980 C   0  0  0  0  0  1  0  0  0  0  0  0
  189.9000  171.7580  141.5760 C   0  0  0  0  0  0  0  0  0  0  0  0
  189.8900  176.4180  145.2650 C   0  0  0  0  0  0  0  0  0  0  0  0
  187.5320  176.4010  142.3020 C   0  0  0  0  0  0  0  0  0  0  0  0
  191.2180  176.7830  147.0490 C   0  0  0  0  0  0  0  0  0  0  0  0
  189.1940  177.1990  146.0840 C   0  0  0  0  0  0  0  0  0  0  0  0
  188.9100  174.4490  141.4440 C   0  0  0  0  0  0  0  0  0  0  0  0
  189.3840  175.9610  143.9210 C   0  0  2  0  0  3  0  0  0  0  0  0
  189.2280  172.2970  142.8080 C   0  0  0  0  0  2  0  0  0  0  0  0
  187.8710  177.7190  145.7310 C   0  0  0  0  0  3  0  0  0  0  0  0
  189.8750  172.5070  140.3070 C   0  0  0  0  0  3  0  0  0  0  0  0
  189.3930  173.7500  140.2430 C   0  0  0  0  0  3  0  0  0  0  0  0
  189.1230  173.7910  142.7590 C   0  0  0  0  0  0  0  0  0  0  0  0
  183.9550  178.4350  141.0810 C   0  0  0  0  0  3  0  0  0  0  0  0
  186.2880  177.0790  141.8620 C   0  0  0  0  0  0  0  0  0  0  0  0
  186.1750  177.6190  140.5690 C   0  0  0  0  0  3  0  0  0  0  0  0
  185.0120  178.2890  140.1800 C   0  0  0  0  0  3  0  0  0  0  0  0
  184.0620  177.9160  142.3750 C   0  0  0  0  0  3  0  0  0  0  0  0
  185.2250  177.2460  142.7630 C   0  0  0  0  0  3  0  0  0  0  0  0
  1 15  2  0  0  0  0
  1 12  1  0  0  0  0
  2 16  1  0  0  0  0
  2  6  1  0  0  0  0
  6 18  2  0  0  0  0
  7 13  1  0  0  0  0
  9  7  1  0  0  0  0
 10  8  2  0  0  0  0
 10 17  1  0  0  0  0
 11  7  1  0  0  0  0
 11 14  2  0  0  0  0
 12  2  2  0  0  0  0
 13  4  1  0  0  0  0
 13  5  2  0  0  0  0
 14  4  1  0  0  0  0
 15 21  1  0  0  0  0
 16  3  1  1  0  0  0
 16 11  1  0  0  0  0
 18 14  1  0  0  0  0
 19 10  1  0  0  0  0
 20 19  2  0  0  0  0
 20 15  1  0  0  0  0
 21 17  1  0  0  0  0
 21  3  2  0  0  0  0
 22 26  1  0  0  0  0
 23 12  1  0  0  0  0
 23 27  1  0  0  0  0
 24 23  2  0  0  0  0
 25 24  1  0  0  0  0
 25 22  2  0  0  0  0
 26 27  2  0  0  0  0
M  END
>  <MODEL>
8

>  <REMARK>
 VINA RESULT:      -7.5      1.940      2.800
  Name = 
  1 active torsions:
  status: ('A' for Active; 'I' for Inactive)
    1  A    between atoms: C_9  and  C_15
                            x       y       z     vdW  Elec       q    Type
                         _______ _______ _______ _____ _____    ______ ____

>  <TORSDO>
F 1

$$$$
=
 OpenBabel11052418293D

 27 31  0  0  1  0  0  0  0  0999 V2000
  189.9280  177.1180  143.1270 C   0  0  0  0  0  3  0  0  0  0  0  0
  190.6400  174.7480  142.8000 C   0  0  0  0  0  0  0  0  0  0  0  0
  188.2730  174.7840  142.0560 C   0  0  0  0  0  3  0  0  0  0  0  0
  190.6290  171.1760  140.3230 C   0  0  0  0  0  2  0  0  0  0  0  0
  189.3160  171.0860  138.2720 O   0  0  0  0  0  0  0  0  0  0  0  0
  191.5090  173.5920  143.1550 C   0  0  0  0  0  3  0  0  0  0  0  0
  189.1640  172.9770  139.6760 N   0  0  0  0  0  0  0  0  0  0  0  0
  184.5830  177.5410  142.1800 O   0  0  0  0  0  0  0  0  0  0  0  0
  188.4180  173.8820  138.8160 C   0  0  0  0  0  1  0  0  0  0  0  0
  185.8100  177.3990  142.4210 C   0  0  0  0  0  0  0  0  0  0  0  0
  189.8410  173.3150  140.8760 C   0  0  0  0  0  0  0  0  0  0  0  0
  190.7550  175.9290  143.4590 C   0  0  0  0  0  0  0  0  0  0  0  0
  189.6550  171.6950  139.3200 C   0  0  0  0  0  0  0  0  0  0  0  0
  190.6580  172.3400  141.2650 C   0  0  0  0  0  0  0  0  0  0  0  0
  188.6540  177.1430  142.7130 C   0  0  0  0  0  0  0  0  0  0  0  0
  189.6890  174.6180  141.6180 C   0  0  2  0  0  3  0  0  0  0  0  0
  186.3360  176.0440  142.8040 C   0  0  0  0  0  2  0  0  0  0  0  0
  191.5170  172.4640  142.4440 C   0  0  0  0  0  3  0  0  0  0  0  0
  186.6960  178.5770  142.3900 C   0  0  0  0  0  3  0  0  0  0  0  0
  188.0160  178.4580  142.5480 C   0  0  0  0  0  3  0  0  0  0  0  0
  187.8060  175.9360  142.5350 C   0  0  0  0  0  0  0  0  0  0  0  0
  193.6630  176.4330  146.5760 C   0  0  0  0  0  3  0  0  0  0  0  0
  191.7590  176.1350  144.5320 C   0  0  0  0  0  0  0  0  0  0  0  0
  193.0800  176.5050  144.2280 C   0  0  0  0  0  3  0  0  0  0  0  0
  194.0250  176.6590  145.2460 C   0  0  0  0  0  3  0  0  0  0  0  0
  192.3560  176.0490  146.8890 C   0  0  0  0  0  3  0  0  0  0  0  0
  191.4110  175.8960  145.8710 C   0  0  0  0  0  3  0  0  0  0  0  0
  1 12  1  0  0  0  0
  2  6  1  0  0  0  0
  2 12  2  0  0  0  0
  3 21  2  0  0  0  0
  4 14  1  0  0  0  0
  5 13  2  0  0  0  0
  7 11  1  0  0  0  0
  8 10  2  0  0  0  0
  9  7  1  0  0  0  0
 10 17  1  0  0  0  0
 11 14  2  0  0  0  0
 11 16  1  0  0  0  0
 12 23  1  0  0  0  0
 13  7  1  0  0  0  0
 13  4  1  0  0  0  0
 14 18  1  0  0  0  0
 15  1  2  0  0  0  0
 16  3  1  1  0  0  0
 16  2  1  0  0  0  0
 18  6  2  0  0  0  0
 19 10  1  0  0  0  0
 19 20  2  0  0  0  0
 20 15  1  0  0  0  0
 21 15  1  0  0  0  0
 21 17  1  0  0  0  0
 22 26  1  0  0  0  0
 23 27  1  0  0  0  0
 24 23  2  0  0  0  0
 24 25  1  0  0  0  0
 25 22  2  0  0  0  0
 27 26  2  0  0  0  0
M  END
>  <MODEL>
9

>  <REMARK>
 VINA RESULT:      -7.4      3.204      6.392
  Name = 
  1 active torsions:
  status: ('A' for Active; 'I' for Inactive)
    1  A    between atoms: C_9  and  C_15
                            x       y       z     vdW  Elec       q    Type
                         _______ _______ _______ _____ _____    ______ ____

>  <TORSDO>
F 1

$$$$
