=
 OpenBabel11052419203D

 32 35  0  0  1  0  0  0  0  0999 V2000
  191.5690  174.5260  146.0140 O   0  0  0  0  0  0  0  0  0  0  0  0
  192.2260  175.4670  145.1860 C   0  0  2  0  0  3  0  0  0  0  0  0
  191.2960  176.1760  144.2360 C   0  0  0  0  0  0  0  0  0  0  0  0
  191.2790  177.5760  144.2190 C   0  0  0  0  0  3  0  0  0  0  0  0
  187.7230  176.1180  140.9590 C   0  0  0  0  0  3  0  0  0  0  0  0
  190.3980  175.4610  143.4270 C   0  0  0  0  0  3  0  0  0  0  0  0
  188.6020  178.2350  141.7520 C   0  0  0  0  0  3  0  0  0  0  0  0
  189.5000  177.5540  142.5780 C   0  0  0  0  0  0  0  0  0  0  0  0
  190.3880  178.2630  143.3910 C   0  0  0  0  0  3  0  0  0  0  0  0
  189.5070  176.1410  142.5960 C   0  0  0  0  0  0  0  0  0  0  0  0
  187.7130  177.5170  140.9440 C   0  0  0  0  0  3  0  0  0  0  0  0
  188.6170  175.4300  141.7860 C   0  0  0  0  0  3  0  0  0  0  0  0
  194.7090  175.4110  145.3170 C   0  0  1  0  0  3  0  0  0  0  0  0
  193.5020  174.9230  144.5400 C   0  0  1  0  0  3  0  0  0  0  0  0
  194.2080  173.9930  145.5060 C   0  0  0  0  0  2  0  0  0  0  0  0
  196.1170  176.6870  143.8930 O   0  0  0  0  0  1  0  0  0  0  0  0
  195.9150  175.4060  144.4020 C   0  0  0  0  0  2  0  0  0  0  0  0
  190.8640  175.2170  147.0180 C   0  0  0  0  0  2  0  0  0  0  0  0
  189.3620  174.9670  146.9060 C   0  0  1  0  0  3  0  0  0  0  0  0
  188.9120  174.2110  147.9890 O   0  0  0  0  0  1  0  0  0  0  0  0
  188.5260  176.2440  146.7630 C   0  0  1  0  0  3  0  0  0  0  0  0
  189.3140  177.3810  146.9520 O   0  0  0  0  0  1  0  0  0  0  0  0
  187.8050  176.3360  145.4180 C   0  0  0  0  0  2  0  0  0  0  0  0
  186.5850  177.2630  145.4320 C   0  0  1  0  0  3  0  0  0  0  0  0
  185.6640  177.0100  144.2470 C   0  0  0  0  0  2  0  0  0  0  0  0
  184.7390  178.1940  144.0390 C   0  0  0  0  0  3  0  0  0  0  0  0
  184.7620  178.5860  142.5760 C   0  0  0  0  0  2  0  0  0  0  0  0
  185.5520  179.3880  143.5840 C   0  0  0  0  0  2  0  0  0  0  0  0
  185.8530  177.1290  146.6830 N   0  0  0  0  0  2  0  0  0  0  0  0
  184.3980  178.6130  147.6480 O   0  0  0  0  0  0  0  0  0  0  0  0
  186.5860  178.8710  148.1870 O   0  0  0  0  0  0  0  0  0  0  0  0
  185.5770  178.2330  147.5030 N   0  0  0  0  0  0  0  0  0  0  0  0
  1 18  1  0  0  0  0
  2  1  1  6  0  0  0
  3  2  1  0  0  0  0
  4  3  1  0  0  0  0
  5 12  1  0  0  0  0
  6  3  2  0  0  0  0
  7  8  2  0  0  0  0
  8 10  1  0  0  0  0
  8  9  1  0  0  0  0
  9  4  2  0  0  0  0
 10  6  1  0  0  0  0
 11  5  2  0  0  0  0
 11  7  1  0  0  0  0
 12 10  2  0  0  0  0
 13 17  1  6  0  0  0
 13 15  1  0  0  0  0
 14  2  1  1  0  0  0
 14 13  1  0  0  0  0
 14 15  1  0  0  0  0
 16 17  1  0  0  0  0
 19 18  1  0  0  0  0
 19 20  1  1  0  0  0
 21 19  1  0  0  0  0
 21 22  1  6  0  0  0
 23 24  1  0  0  0  0
 23 21  1  0  0  0  0
 24 25  1  6  0  0  0
 24 29  1  0  0  0  0
 26 25  1  0  0  0  0
 27 28  1  0  0  0  0
 27 26  1  0  0  0  0
 28 26  1  0  0  0  0
 29 32  1  0  0  0  0
 32 30  2  0  0  0  0
 32 31  2  0  0  0  0
M  END
>  <MODEL>
1

>  <REMARK>
 VINA RESULT:      -6.4      0.000      0.000
  Name = 
  13 active torsions:
  status: ('A' for Active; 'I' for Inactive)
    1  A    between atoms: O_1  and  C_5
    2  A    between atoms: O_1  and  C_30
    3  A    between atoms: C_2  and  C_5
    4  A    between atoms: C_3  and  C_8
    5  A    between atoms: C_3  and  C_20
    6  A    between atoms: C_4  and  C_24
    7  A    between atoms: C_4  and  C_30
    8  A    between atoms: C_5  and  C_14
    9  A    between atoms: C_13  and  C_29
   10  A    between atoms: N_15  and  C_20
   11  A    between atoms: N_15  and  N_26
   12  A    between atoms: C_16  and  C_20
   13  A    between atoms: C_16  and  C_24
                            x       y       z     vdW  Elec       q    Type
                         _______ _______ _______ _____ _____    ______ ____

>  <TORSDO>
F 13

$$$$
=
 OpenBabel11052419203D

 32 35  0  0  1  0  0  0  0  0999 V2000
  187.6780  174.9220  142.6040 O   0  0  0  0  0  0  0  0  0  0  0  0
  188.7320  174.0830  142.1720 C   0  0  2  0  0  3  0  0  0  0  0  0
  189.9180  174.0910  143.1010 C   0  0  0  0  0  0  0  0  0  0  0  0
  190.1210  172.9990  143.9530 C   0  0  0  0  0  3  0  0  0  0  0  0
  193.7460  176.3140  145.0790 C   0  0  0  0  0  3  0  0  0  0  0  0
  190.7740  175.2020  143.1790 C   0  0  0  0  0  3  0  0  0  0  0  0
  193.0930  174.1110  145.8560 C   0  0  0  0  0  3  0  0  0  0  0  0
  192.0380  174.1000  144.9400 C   0  0  0  0  0  0  0  0  0  0  0  0
  191.1790  173.0000  144.8660 C   0  0  0  0  0  3  0  0  0  0  0  0
  191.8340  175.2090  144.0880 C   0  0  0  0  0  0  0  0  0  0  0  0
  193.9460  175.2180  145.9250 C   0  0  0  0  0  3  0  0  0  0  0  0
  192.6900  176.3110  144.1620 C   0  0  0  0  0  3  0  0  0  0  0  0
  189.8180  173.0280  140.1990 C   0  0  1  0  0  3  0  0  0  0  0  0
  189.0820  174.2570  140.6920 C   0  0  1  0  0  3  0  0  0  0  0  0
  188.3520  173.2170  139.8680 C   0  0  0  0  0  2  0  0  0  0  0  0
  191.3620  172.2920  138.5510 O   0  0  0  0  0  1  0  0  0  0  0  0
  190.6620  173.4100  139.0010 C   0  0  0  0  0  2  0  0  0  0  0  0
  187.6320  176.0590  141.7750 C   0  0  0  0  0  2  0  0  0  0  0  0
  187.9440  177.3280  142.5650 C   0  0  1  0  0  3  0  0  0  0  0  0
  188.7120  178.2030  141.7960 O   0  0  0  0  0  1  0  0  0  0  0  0
  186.7030  178.0440  143.1100 C   0  0  1  0  0  3  0  0  0  0  0  0
  185.5370  177.3580  142.7630 O   0  0  0  0  0  1  0  0  0  0  0  0
  186.7500  178.2470  144.6240 C   0  0  0  0  0  2  0  0  0  0  0  0
  186.5120  176.9650  145.4280 C   0  0  1  0  0  3  0  0  0  0  0  0
  187.5270  176.7990  146.5500 C   0  0  0  0  0  2  0  0  0  0  0  0
  188.7110  175.9820  146.0690 C   0  0  0  0  0  3  0  0  0  0  0  0
  189.0440  174.9360  147.1130 C   0  0  0  0  0  2  0  0  0  0  0  0
  189.8780  176.1920  147.0110 C   0  0  0  0  0  2  0  0  0  0  0  0
  185.1570  176.9370  145.9610 N   0  0  0  0  0  2  0  0  0  0  0  0
  184.7380  178.5000  147.5830 O   0  0  0  0  0  0  0  0  0  0  0  0
  183.6890  178.8210  145.5970 O   0  0  0  0  0  0  0  0  0  0  0  0
  184.5180  178.0980  146.4230 N   0  0  0  0  0  0  0  0  0  0  0  0
  2  1  1  1  0  0  0
  2  3  1  0  0  0  0
  3  6  2  0  0  0  0
  3  4  1  0  0  0  0
  4  9  2  0  0  0  0
  5 11  1  0  0  0  0
  6 10  1  0  0  0  0
  7 11  2  0  0  0  0
  8  7  1  0  0  0  0
  9  8  1  0  0  0  0
 10 12  1  0  0  0  0
 10  8  2  0  0  0  0
 12  5  2  0  0  0  0
 13 17  1  6  0  0  0
 13 14  1  0  0  0  0
 14  2  1  1  0  0  0
 15 13  1  0  0  0  0
 15 14  1  0  0  0  0
 16 17  1  0  0  0  0
 18 19  1  0  0  0  0
 18  1  1  0  0  0  0
 19 20  1  6  0  0  0
 19 21  1  0  0  0  0
 21 22  1  1  0  0  0
 21 23  1  0  0  0  0
 24 23  1  1  0  0  0
 24 29  1  0  0  0  0
 24 25  1  0  0  0  0
 26 25  1  0  0  0  0
 26 28  1  0  0  0  0
 26 27  1  0  0  0  0
 28 27  1  0  0  0  0
 29 32  1  0  0  0  0
 31 32  2  0  0  0  0
 32 30  2  0  0  0  0
M  END
>  <MODEL>
2

>  <REMARK>
 VINA RESULT:      -6.1      2.660      5.456
  Name = 
  13 active torsions:
  status: ('A' for Active; 'I' for Inactive)
    1  A    between atoms: O_1  and  C_5
    2  A    between atoms: O_1  and  C_30
    3  A    between atoms: C_2  and  C_5
    4  A    between atoms: C_3  and  C_8
    5  A    between atoms: C_3  and  C_20
    6  A    between atoms: C_4  and  C_24
    7  A    between atoms: C_4  and  C_30
    8  A    between atoms: C_5  and  C_14
    9  A    between atoms: C_13  and  C_29
   10  A    between atoms: N_15  and  C_20
   11  A    between atoms: N_15  and  N_26
   12  A    between atoms: C_16  and  C_20
   13  A    between atoms: C_16  and  C_24
                            x       y       z     vdW  Elec       q    Type
                         _______ _______ _______ _____ _____    ______ ____

>  <TORSDO>
F 13

$$$$
=
 OpenBabel11052419203D

 32 35  0  0  1  0  0  0  0  0999 V2000
  187.2940  177.8680  142.6670 O   0  0  0  0  0  0  0  0  0  0  0  0
  187.1300  178.0790  144.0570 C   0  0  2  0  0  3  0  0  0  0  0  0
  188.1040  177.2940  144.8970 C   0  0  0  0  0  0  0  0  0  0  0  0
  187.6120  176.4860  145.9290 C   0  0  0  0  0  3  0  0  0  0  0  0
  192.6340  176.1490  146.1880 C   0  0  0  0  0  3  0  0  0  0  0  0
  189.4910  177.4180  144.7120 C   0  0  0  0  0  3  0  0  0  0  0  0
  190.7570  175.2170  147.4090 C   0  0  0  0  0  3  0  0  0  0  0  0
  189.8720  175.9050  146.5750 C   0  0  0  0  0  0  0  0  0  0  0  0
  188.4920  175.7900  146.7630 C   0  0  0  0  0  3  0  0  0  0  0  0
  190.3740  176.7240  145.5390 C   0  0  0  0  0  0  0  0  0  0  0  0
  192.1370  175.3400  147.2160 C   0  0  0  0  0  3  0  0  0  0  0  0
  191.7540  176.8420  145.3510 C   0  0  0  0  0  3  0  0  0  0  0  0
  185.3670  179.1440  145.4500 C   0  0  1  0  0  3  0  0  0  0  0  0
  185.6740  177.9890  144.5180 C   0  0  1  0  0  3  0  0  0  0  0  0
  184.9000  179.1880  144.0100 C   0  0  0  0  0  2  0  0  0  0  0  0
  184.6860  178.4890  147.6300 O   0  0  0  0  0  1  0  0  0  0  0  0
  184.2100  178.7560  146.3470 C   0  0  0  0  0  2  0  0  0  0  0  0
  186.7090  176.6360  142.3210 C   0  0  0  0  0  2  0  0  0  0  0  0
  187.7260  175.7110  141.6560 C   0  0  1  0  0  3  0  0  0  0  0  0
  188.9120  176.3990  141.3970 O   0  0  0  0  0  1  0  0  0  0  0  0
  188.0130  174.4300  142.4450 C   0  0  1  0  0  3  0  0  0  0  0  0
  187.6430  173.2990  141.7150 O   0  0  0  0  0  1  0  0  0  0  0  0
  189.4760  174.3090  142.8730 C   0  0  0  0  0  2  0  0  0  0  0  0
  190.2540  173.2250  142.1210 C   0  0  1  0  0  3  0  0  0  0  0  0
  191.4980  173.7830  141.4430 C   0  0  0  0  0  2  0  0  0  0  0  0
  192.0550  174.9440  142.2440 C   0  0  0  0  0  3  0  0  0  0  0  0
  193.3350  175.4240  141.5900 C   0  0  0  0  0  2  0  0  0  0  0  0
  193.3990  174.5510  142.8220 C   0  0  0  0  0  2  0  0  0  0  0  0
  190.6080  172.1330  143.0160 N   0  0  0  0  0  2  0  0  0  0  0  0
  191.6240  172.7310  144.9810 O   0  0  0  0  0  0  0  0  0  0  0  0
  189.4830  172.0000  145.1490 O   0  0  0  0  0  0  0  0  0  0  0  0
  190.6070  172.2870  144.4110 N   0  0  0  0  0  0  0  0  0  0  0  0
  2  1  1  6  0  0  0
  2  3  1  0  0  0  0
  3  4  1  0  0  0  0
  4  9  2  0  0  0  0
  5 11  1  0  0  0  0
  6  3  2  0  0  0  0
  6 10  1  0  0  0  0
  8  9  1  0  0  0  0
  8  7  1  0  0  0  0
 10  8  2  0  0  0  0
 11  7  2  0  0  0  0
 12 10  1  0  0  0  0
 12  5  2  0  0  0  0
 13 17  1  1  0  0  0
 14  2  1  6  0  0  0
 14 13  1  0  0  0  0
 15 14  1  0  0  0  0
 15 13  1  0  0  0  0
 17 16  1  0  0  0  0
 18  1  1  0  0  0  0
 19 20  1  1  0  0  0
 19 18  1  0  0  0  0
 19 21  1  0  0  0  0
 21 22  1  6  0  0  0
 21 23  1  0  0  0  0
 24 25  1  1  0  0  0
 24 23  1  0  0  0  0
 24 29  1  0  0  0  0
 25 26  1  0  0  0  0
 26 28  1  0  0  0  0
 27 26  1  0  0  0  0
 27 28  1  0  0  0  0
 29 32  1  0  0  0  0
 32 30  2  0  0  0  0
 32 31  2  0  0  0  0
M  END
>  <MODEL>
3

>  <REMARK>
 VINA RESULT:      -6.1      2.988      7.409
  Name = 
  13 active torsions:
  status: ('A' for Active; 'I' for Inactive)
    1  A    between atoms: O_1  and  C_5
    2  A    between atoms: O_1  and  C_30
    3  A    between atoms: C_2  and  C_5
    4  A    between atoms: C_3  and  C_8
    5  A    between atoms: C_3  and  C_20
    6  A    between atoms: C_4  and  C_24
    7  A    between atoms: C_4  and  C_30
    8  A    between atoms: C_5  and  C_14
    9  A    between atoms: C_13  and  C_29
   10  A    between atoms: N_15  and  C_20
   11  A    between atoms: N_15  and  N_26
   12  A    between atoms: C_16  and  C_20
   13  A    between atoms: C_16  and  C_24
                            x       y       z     vdW  Elec       q    Type
                         _______ _______ _______ _____ _____    ______ ____

>  <TORSDO>
F 13

$$$$
=
 OpenBabel11052419203D

 32 35  0  0  1  0  0  0  0  0999 V2000
  190.8630  175.3480  146.5750 O   0  0  0  0  0  0  0  0  0  0  0  0
  189.9180  175.2130  145.5310 C   0  0  2  0  0  3  0  0  0  0  0  0
  188.6880  176.0600  145.7270 C   0  0  0  0  0  0  0  0  0  0  0  0
  187.9680  175.9460  146.9220 C   0  0  0  0  0  3  0  0  0  0  0  0
  185.3890  179.2010  144.0660 C   0  0  0  0  0  3  0  0  0  0  0  0
  188.2130  176.9000  144.7060 C   0  0  0  0  0  3  0  0  0  0  0  0
  185.1420  178.2470  146.2820 C   0  0  0  0  0  3  0  0  0  0  0  0
  186.3210  177.5200  146.1020 C   0  0  0  0  0  0  0  0  0  0  0  0
  186.7910  176.6760  147.1120 C   0  0  0  0  0  3  0  0  0  0  0  0
  187.0390  177.6330  144.8900 C   0  0  0  0  0  0  0  0  0  0  0  0
  184.6760  179.0870  145.2640 C   0  0  0  0  0  3  0  0  0  0  0  0
  186.5690  178.4740  143.8780 C   0  0  0  0  0  3  0  0  0  0  0  0
  189.9430  173.5500  143.6810 C   0  0  1  0  0  3  0  0  0  0  0  0
  189.6350  173.7570  145.1510 C   0  0  1  0  0  3  0  0  0  0  0  0
  190.9230  173.0760  144.7350 C   0  0  0  0  0  2  0  0  0  0  0  0
  189.9820  171.4780  142.5210 O   0  0  0  0  0  1  0  0  0  0  0  0
  189.1360  172.3730  143.1730 C   0  0  0  0  0  2  0  0  0  0  0  0
  191.5940  176.5340  146.3770 C   0  0  0  0  0  2  0  0  0  0  0  0
  192.4920  176.4280  145.1460 C   0  0  1  0  0  3  0  0  0  0  0  0
  192.2370  177.4810  144.2660 O   0  0  0  0  0  1  0  0  0  0  0  0
  193.9880  176.3530  145.4690 C   0  0  1  0  0  3  0  0  0  0  0  0
  194.2570  176.9080  146.7230 O   0  0  0  0  0  1  0  0  0  0  0  0
  194.5400  174.9290  145.4090 C   0  0  0  0  0  2  0  0  0  0  0  0
  196.0520  174.8600  145.1720 C   0  0  1  0  0  3  0  0  0  0  0  0
  196.6890  173.6830  145.8970 C   0  0  0  0  0  2  0  0  0  0  0  0
  196.3320  172.3830  145.2010 C   0  0  0  0  0  3  0  0  0  0  0  0
  196.7130  171.2240  146.0990 C   0  0  0  0  0  2  0  0  0  0  0  0
  197.5990  171.5970  144.9330 C   0  0  0  0  0  2  0  0  0  0  0  0
  196.3450  174.7990  143.7470 N   0  0  0  0  0  2  0  0  0  0  0  0
  197.6160  175.6230  142.0280 O   0  0  0  0  0  0  0  0  0  0  0  0
  196.8690  177.1470  143.5310 O   0  0  0  0  0  0  0  0  0  0  0  0
  196.9800  175.8550  143.0750 N   0  0  0  0  0  0  0  0  0  0  0  0
  2  3  1  0  0  0  0
  2  1  1  1  0  0  0
  3  4  1  0  0  0  0
  4  9  2  0  0  0  0
  5 11  1  0  0  0  0
  6 10  1  0  0  0  0
  6  3  2  0  0  0  0
  8  7  1  0  0  0  0
  8  9  1  0  0  0  0
 10  8  2  0  0  0  0
 11  7  2  0  0  0  0
 12  5  2  0  0  0  0
 12 10  1  0  0  0  0
 13 17  1  1  0  0  0
 13 15  1  0  0  0  0
 13 14  1  0  0  0  0
 14  2  1  6  0  0  0
 15 14  1  0  0  0  0
 16 17  1  0  0  0  0
 18  1  1  0  0  0  0
 19 20  1  6  0  0  0
 19 21  1  0  0  0  0
 19 18  1  0  0  0  0
 21 22  1  1  0  0  0
 23 21  1  0  0  0  0
 24 23  1  6  0  0  0
 24 25  1  0  0  0  0
 26 25  1  0  0  0  0
 26 27  1  0  0  0  0
 28 26  1  0  0  0  0
 28 27  1  0  0  0  0
 29 24  1  0  0  0  0
 30 32  2  0  0  0  0
 32 31  2  0  0  0  0
 32 29  1  0  0  0  0
M  END
>  <MODEL>
4

>  <REMARK>
 VINA RESULT:      -6.1      3.805      7.899
  Name = 
  13 active torsions:
  status: ('A' for Active; 'I' for Inactive)
    1  A    between atoms: O_1  and  C_5
    2  A    between atoms: O_1  and  C_30
    3  A    between atoms: C_2  and  C_5
    4  A    between atoms: C_3  and  C_8
    5  A    between atoms: C_3  and  C_20
    6  A    between atoms: C_4  and  C_24
    7  A    between atoms: C_4  and  C_30
    8  A    between atoms: C_5  and  C_14
    9  A    between atoms: C_13  and  C_29
   10  A    between atoms: N_15  and  C_20
   11  A    between atoms: N_15  and  N_26
   12  A    between atoms: C_16  and  C_20
   13  A    between atoms: C_16  and  C_24
                            x       y       z     vdW  Elec       q    Type
                         _______ _______ _______ _____ _____    ______ ____

>  <TORSDO>
F 13

$$$$
=
 OpenBabel11052419203D

 32 35  0  0  1  0  0  0  0  0999 V2000
  189.2470  174.8730  141.3210 O   0  0  0  0  0  0  0  0  0  0  0  0
  190.0140  174.0990  142.2240 C   0  0  2  0  0  3  0  0  0  0  0  0
  190.9500  174.9220  143.0690 C   0  0  0  0  0  0  0  0  0  0  0  0
  191.0490  176.2980  142.8300 C   0  0  0  0  0  3  0  0  0  0  0  0
  194.3940  175.2880  146.4620 C   0  0  0  0  0  3  0  0  0  0  0  0
  191.7740  174.3240  144.0360 C   0  0  0  0  0  3  0  0  0  0  0  0
  193.6710  177.2640  145.2550 C   0  0  0  0  0  3  0  0  0  0  0  0
  192.7640  176.4890  144.5280 C   0  0  0  0  0  0  0  0  0  0  0  0
  191.9490  177.0800  143.5580 C   0  0  0  0  0  3  0  0  0  0  0  0
  192.6740  175.1000  144.7690 C   0  0  0  0  0  0  0  0  0  0  0  0
  194.4860  176.6630  146.2210 C   0  0  0  0  0  3  0  0  0  0  0  0
  193.4900  174.5060  145.7360 C   0  0  0  0  0  3  0  0  0  0  0  0
  190.1400  171.6150  142.2540 C   0  0  1  0  0  3  0  0  0  0  0  0
  190.6560  172.8690  141.5770 C   0  0  1  0  0  3  0  0  0  0  0  0
  189.5900  172.0280  140.9050 C   0  0  0  0  0  2  0  0  0  0  0  0
  190.5110  169.3600  141.6060 O   0  0  0  0  0  1  0  0  0  0  0  0
  191.1540  170.5060  142.0710 C   0  0  0  0  0  2  0  0  0  0  0  0
  187.9960  175.1480  141.9070 C   0  0  0  0  0  2  0  0  0  0  0  0
  187.6310  176.6230  141.7530 C   0  0  1  0  0  3  0  0  0  0  0  0
  186.8970  176.8230  140.5830 O   0  0  0  0  0  1  0  0  0  0  0  0
  186.8850  177.2090  142.9570 C   0  0  1  0  0  3  0  0  0  0  0  0
  185.6780  176.5390  143.1720 O   0  0  0  0  0  1  0  0  0  0  0  0
  187.7170  177.1920  144.2390 C   0  0  0  0  0  2  0  0  0  0  0  0
  186.8850  177.0370  145.5160 C   0  0  1  0  0  3  0  0  0  0  0  0
  187.6500  176.3030  146.6090 C   0  0  0  0  0  2  0  0  0  0  0  0
  189.0040  175.8580  146.0920 C   0  0  0  0  0  3  0  0  0  0  0  0
  189.5820  174.8310  147.0450 C   0  0  0  0  0  2  0  0  0  0  0  0
  190.0750  176.2580  147.0860 C   0  0  0  0  0  2  0  0  0  0  0  0
  186.4330  178.3350  145.9950 N   0  0  0  0  0  2  0  0  0  0  0  0
  184.6380  179.3270  144.9730 O   0  0  0  0  0  0  0  0  0  0  0  0
  184.2290  178.3580  146.9830 O   0  0  0  0  0  0  0  0  0  0  0  0
  185.0810  178.7080  145.9610 N   0  0  0  0  0  0  0  0  0  0  0  0
  1 18  1  0  0  0  0
  2  1  1  6  0  0  0
  2  3  1  0  0  0  0
  3  6  1  0  0  0  0
  4  3  2  0  0  0  0
  4  9  1  0  0  0  0
  6 10  2  0  0  0  0
  7 11  2  0  0  0  0
  8 10  1  0  0  0  0
  8  7  1  0  0  0  0
  9  8  2  0  0  0  0
 10 12  1  0  0  0  0
 11  5  1  0  0  0  0
 12  5  2  0  0  0  0
 13 17  1  6  0  0  0
 14  2  1  1  0  0  0
 14 13  1  0  0  0  0
 15 14  1  0  0  0  0
 15 13  1  0  0  0  0
 16 17  1  0  0  0  0
 19 20  1  6  0  0  0
 19 18  1  0  0  0  0
 19 21  1  0  0  0  0
 21 22  1  1  0  0  0
 21 23  1  0  0  0  0
 24 23  1  6  0  0  0
 24 29  1  0  0  0  0
 24 25  1  0  0  0  0
 26 25  1  0  0  0  0
 26 27  1  0  0  0  0
 26 28  1  0  0  0  0
 27 28  1  0  0  0  0
 30 32  2  0  0  0  0
 32 29  1  0  0  0  0
 32 31  2  0  0  0  0
M  END
>  <MODEL>
5

>  <REMARK>
 VINA RESULT:      -6.1      2.844      5.336
  Name = 
  13 active torsions:
  status: ('A' for Active; 'I' for Inactive)
    1  A    between atoms: O_1  and  C_5
    2  A    between atoms: O_1  and  C_30
    3  A    between atoms: C_2  and  C_5
    4  A    between atoms: C_3  and  C_8
    5  A    between atoms: C_3  and  C_20
    6  A    between atoms: C_4  and  C_24
    7  A    between atoms: C_4  and  C_30
    8  A    between atoms: C_5  and  C_14
    9  A    between atoms: C_13  and  C_29
   10  A    between atoms: N_15  and  C_20
   11  A    between atoms: N_15  and  N_26
   12  A    between atoms: C_16  and  C_20
   13  A    between atoms: C_16  and  C_24
                            x       y       z     vdW  Elec       q    Type
                         _______ _______ _______ _____ _____    ______ ____

>  <TORSDO>
F 13

$$$$
=
 OpenBabel11052419203D

 32 35  0  0  1  0  0  0  0  0999 V2000
  187.2870  178.1770  143.2950 O   0  0  0  0  0  0  0  0  0  0  0  0
  187.3560  178.1810  144.7080 C   0  0  2  0  0  3  0  0  0  0  0  0
  188.4920  177.3530  145.2520 C   0  0  0  0  0  0  0  0  0  0  0  0
  188.2410  176.4600  146.3000 C   0  0  0  0  0  3  0  0  0  0  0  0
  193.1980  176.2010  145.4270 C   0  0  0  0  0  3  0  0  0  0  0  0
  189.8040  177.5180  144.7780 C   0  0  0  0  0  3  0  0  0  0  0  0
  191.6370  175.1420  146.9520 C   0  0  0  0  0  3  0  0  0  0  0  0
  190.5880  175.8750  146.3880 C   0  0  0  0  0  0  0  0  0  0  0  0
  189.2830  175.7200  146.8640 C   0  0  0  0  0  3  0  0  0  0  0  0
  190.8500  176.7800  145.3350 C   0  0  0  0  0  0  0  0  0  0  0  0
  192.9410  175.3070  146.4720 C   0  0  0  0  0  3  0  0  0  0  0  0
  192.1540  176.9390  144.8600 C   0  0  0  0  0  3  0  0  0  0  0  0
  185.7840  178.9680  146.4670 C   0  0  1  0  0  3  0  0  0  0  0  0
  186.0060  177.9310  145.3840 C   0  0  1  0  0  3  0  0  0  0  0  0
  185.0820  179.1040  145.1320 C   0  0  0  0  0  2  0  0  0  0  0  0
  185.5390  177.8730  148.5610 O   0  0  0  0  0  1  0  0  0  0  0  0
  184.8210  178.4070  147.4920 C   0  0  0  0  0  2  0  0  0  0  0  0
  186.6360  177.0020  142.8740 C   0  0  0  0  0  2  0  0  0  0  0  0
  186.9380  176.7010  141.4080 C   0  0  1  0  0  3  0  0  0  0  0  0
  187.1870  177.8830  140.7100 O   0  0  0  0  0  1  0  0  0  0  0  0
  188.0860  175.7060  141.2000 C   0  0  1  0  0  3  0  0  0  0  0  0
  189.2890  176.2230  141.6850 O   0  0  0  0  0  1  0  0  0  0  0  0
  187.8160  174.3440  141.8380 C   0  0  0  0  0  2  0  0  0  0  0  0
  188.7910  173.2480  141.3940 C   0  0  1  0  0  3  0  0  0  0  0  0
  189.2690  172.4020  142.5660 C   0  0  0  0  0  2  0  0  0  0  0  0
  189.7060  173.2940  143.7120 C   0  0  0  0  0  3  0  0  0  0  0  0
  190.9940  172.7500  144.2960 C   0  0  0  0  0  2  0  0  0  0  0  0
  189.6820  172.4980  145.0000 C   0  0  0  0  0  2  0  0  0  0  0  0
  188.1860  172.4060  140.3720 N   0  0  0  0  0  2  0  0  0  0  0  0
  188.1830  173.5410  138.3820 O   0  0  0  0  0  0  0  0  0  0  0  0
  189.2770  171.5550  138.3920 O   0  0  0  0  0  0  0  0  0  0  0  0
  188.5270  172.5240  139.0160 N   0  0  0  0  0  0  0  0  0  0  0  0
  2  1  1  6  0  0  0
  2  3  1  0  0  0  0
  3  4  1  0  0  0  0
  4  9  2  0  0  0  0
  5 11  1  0  0  0  0
  6  3  2  0  0  0  0
  6 10  1  0  0  0  0
  8  9  1  0  0  0  0
  8  7  1  0  0  0  0
 10  8  2  0  0  0  0
 11  7  2  0  0  0  0
 12 10  1  0  0  0  0
 12  5  2  0  0  0  0
 13 17  1  1  0  0  0
 14  2  1  6  0  0  0
 14 13  1  0  0  0  0
 15 14  1  0  0  0  0
 15 13  1  0  0  0  0
 17 16  1  0  0  0  0
 18  1  1  0  0  0  0
 19 20  1  6  0  0  0
 19 18  1  0  0  0  0
 21 19  1  0  0  0  0
 21 22  1  1  0  0  0
 21 23  1  0  0  0  0
 24 23  1  1  0  0  0
 24 25  1  0  0  0  0
 25 26  1  0  0  0  0
 26 27  1  0  0  0  0
 26 28  1  0  0  0  0
 27 28  1  0  0  0  0
 29 24  1  0  0  0  0
 30 32  2  0  0  0  0
 31 32  2  0  0  0  0
 32 29  1  0  0  0  0
M  END
>  <MODEL>
6

>  <REMARK>
 VINA RESULT:      -6.1      3.812      7.565
  Name = 
  13 active torsions:
  status: ('A' for Active; 'I' for Inactive)
    1  A    between atoms: O_1  and  C_5
    2  A    between atoms: O_1  and  C_30
    3  A    between atoms: C_2  and  C_5
    4  A    between atoms: C_3  and  C_8
    5  A    between atoms: C_3  and  C_20
    6  A    between atoms: C_4  and  C_24
    7  A    between atoms: C_4  and  C_30
    8  A    between atoms: C_5  and  C_14
    9  A    between atoms: C_13  and  C_29
   10  A    between atoms: N_15  and  C_20
   11  A    between atoms: N_15  and  N_26
   12  A    between atoms: C_16  and  C_20
   13  A    between atoms: C_16  and  C_24
                            x       y       z     vdW  Elec       q    Type
                         _______ _______ _______ _____ _____    ______ ____

>  <TORSDO>
F 13

$$$$
=
 OpenBabel11052419203D

 32 35  0  0  1  0  0  0  0  0999 V2000
  191.7410  173.5370  145.5330 O   0  0  0  0  0  0  0  0  0  0  0  0
  191.9770  174.9190  145.7240 C   0  0  2  0  0  3  0  0  0  0  0  0
  190.7430  175.7640  145.5490 C   0  0  0  0  0  0  0  0  0  0  0  0
  190.7870  176.8590  144.6780 C   0  0  0  0  0  3  0  0  0  0  0  0
  186.1990  176.9430  146.7610 C   0  0  0  0  0  3  0  0  0  0  0  0
  189.5800  175.5190  146.2980 C   0  0  0  0  0  3  0  0  0  0  0  0
  187.4050  178.2860  145.1420 C   0  0  0  0  0  3  0  0  0  0  0  0
  188.5160  177.4490  145.2730 C   0  0  0  0  0  0  0  0  0  0  0  0
  189.6780  177.6960  144.5360 C   0  0  0  0  0  3  0  0  0  0  0  0
  188.4680  176.3500  146.1600 C   0  0  0  0  0  0  0  0  0  0  0  0
  186.2480  178.0340  145.8860 C   0  0  0  0  0  3  0  0  0  0  0  0
  187.3090  176.1020  146.9000 C   0  0  0  0  0  3  0  0  0  0  0  0
  194.1780  176.0520  145.9710 C   0  0  1  0  0  3  0  0  0  0  0  0
  193.2120  175.4330  144.9800 C   0  0  1  0  0  3  0  0  0  0  0  0
  194.4370  174.6620  145.4260 C   0  0  0  0  0  2  0  0  0  0  0  0
  194.9430  178.2980  145.8610 O   0  0  0  0  0  1  0  0  0  0  0  0
  195.0510  177.0530  145.2440 C   0  0  0  0  0  2  0  0  0  0  0  0
  191.5700  173.2890  144.1580 C   0  0  0  0  0  2  0  0  0  0  0  0
  190.4360  172.2960  143.9150 C   0  0  1  0  0  3  0  0  0  0  0  0
  189.6710  172.1390  145.0710 O   0  0  0  0  0  1  0  0  0  0  0  0
  189.5380  172.6530  142.7250 C   0  0  1  0  0  3  0  0  0  0  0  0
  188.3130  171.9870  142.8060 O   0  0  0  0  0  1  0  0  0  0  0  0
  189.2990  174.1560  142.5900 C   0  0  0  0  0  2  0  0  0  0  0  0
  188.0590  174.5140  141.7650 C   0  0  1  0  0  3  0  0  0  0  0  0
  187.3640  175.7620  142.2920 C   0  0  0  0  0  2  0  0  0  0  0  0
  187.1460  176.7550  141.1670 C   0  0  0  0  0  3  0  0  0  0  0  0
  187.7680  178.0820  141.5530 C   0  0  0  0  0  2  0  0  0  0  0  0
  186.2740  177.8890  141.6640 C   0  0  0  0  0  2  0  0  0  0  0  0
  188.4080  174.6810  140.3610 N   0  0  0  0  0  2  0  0  0  0  0  0
  187.9910  172.6550  139.3740 O   0  0  0  0  0  0  0  0  0  0  0  0
  190.0150  173.5800  138.9330 O   0  0  0  0  0  0  0  0  0  0  0  0
  188.7890  173.5950  139.5580 N   0  0  0  0  0  0  0  0  0  0  0  0
  2  1  1  6  0  0  0
  3  2  1  0  0  0  0
  3  6  1  0  0  0  0
  4  3  2  0  0  0  0
  5 12  2  0  0  0  0
  7  8  1  0  0  0  0
  7 11  2  0  0  0  0
  8 10  1  0  0  0  0
  9  4  1  0  0  0  0
  9  8  2  0  0  0  0
 10  6  2  0  0  0  0
 10 12  1  0  0  0  0
 11  5  1  0  0  0  0
 13 17  1  6  0  0  0
 14 15  1  0  0  0  0
 14  2  1  1  0  0  0
 14 13  1  0  0  0  0
 15 13  1  0  0  0  0
 17 16  1  0  0  0  0
 18  1  1  0  0  0  0
 19 18  1  0  0  0  0
 19 20  1  1  0  0  0
 21 22  1  1  0  0  0
 21 19  1  0  0  0  0
 23 21  1  0  0  0  0
 24 25  1  1  0  0  0
 24 23  1  0  0  0  0
 26 27  1  0  0  0  0
 26 28  1  0  0  0  0
 26 25  1  0  0  0  0
 27 28  1  0  0  0  0
 29 24  1  0  0  0  0
 30 32  2  0  0  0  0
 31 32  2  0  0  0  0
 32 29  1  0  0  0  0
M  END
>  <MODEL>
7

>  <REMARK>
 VINA RESULT:      -6.0      3.344      4.830
  Name = 
  13 active torsions:
  status: ('A' for Active; 'I' for Inactive)
    1  A    between atoms: O_1  and  C_5
    2  A    between atoms: O_1  and  C_30
    3  A    between atoms: C_2  and  C_5
    4  A    between atoms: C_3  and  C_8
    5  A    between atoms: C_3  and  C_20
    6  A    between atoms: C_4  and  C_24
    7  A    between atoms: C_4  and  C_30
    8  A    between atoms: C_5  and  C_14
    9  A    between atoms: C_13  and  C_29
   10  A    between atoms: N_15  and  C_20
   11  A    between atoms: N_15  and  N_26
   12  A    between atoms: C_16  and  C_20
   13  A    between atoms: C_16  and  C_24
                            x       y       z     vdW  Elec       q    Type
                         _______ _______ _______ _____ _____    ______ ____

>  <TORSDO>
F 13

$$$$
=
 OpenBabel11052419203D

 32 35  0  0  1  0  0  0  0  0999 V2000
  189.7940  174.8240  145.1150 O   0  0  0  0  0  0  0  0  0  0  0  0
  189.5930  175.6520  146.2440 C   0  0  2  0  0  3  0  0  0  0  0  0
  188.2750  176.3820  146.2210 C   0  0  0  0  0  0  0  0  0  0  0  0
  187.3640  176.1730  147.2630 C   0  0  0  0  0  3  0  0  0  0  0  0
  185.0600  179.2670  144.0200 C   0  0  0  0  0  3  0  0  0  0  0  0
  187.9180  177.2050  145.1400 C   0  0  0  0  0  3  0  0  0  0  0  0
  184.5020  178.2330  146.1420 C   0  0  0  0  0  3  0  0  0  0  0  0
  185.7570  177.6180  146.1730 C   0  0  0  0  0  0  0  0  0  0  0  0
  186.1110  176.7910  147.2420 C   0  0  0  0  0  3  0  0  0  0  0  0
  186.6690  177.8270  145.1140 C   0  0  0  0  0  0  0  0  0  0  0  0
  184.1550  179.0560  145.0660 C   0  0  0  0  0  3  0  0  0  0  0  0
  186.3160  178.6510  144.0430 C   0  0  0  0  0  3  0  0  0  0  0  0
  191.2000  176.3110  148.0240 C   0  0  1  0  0  3  0  0  0  0  0  0
  190.8020  176.5300  146.5780 C   0  0  1  0  0  3  0  0  0  0  0  0
  191.9930  175.6550  146.9120 C   0  0  0  0  0  2  0  0  0  0  0  0
  191.5670  177.8030  149.8360 O   0  0  0  0  0  1  0  0  0  0  0  0
  191.9380  177.5370  148.5200 C   0  0  0  0  0  2  0  0  0  0  0  0
  189.5450  173.4870  145.4800 C   0  0  0  0  0  2  0  0  0  0  0  0
  190.3510  172.5220  144.6130 C   0  0  1  0  0  3  0  0  0  0  0  0
  189.5200  171.8940  143.6840 O   0  0  0  0  0  1  0  0  0  0  0  0
  191.5480  173.1680  143.9070 C   0  0  1  0  0  3  0  0  0  0  0  0
  192.7520  172.6710  144.4100 O   0  0  0  0  0  1  0  0  0  0  0  0
  191.5120  172.9900  142.3890 C   0  0  0  0  0  2  0  0  0  0  0  0
  191.1610  174.2700  141.6240 C   0  0  1  0  0  3  0  0  0  0  0  0
  189.6830  174.3310  141.2640 C   0  0  0  0  0  2  0  0  0  0  0  0
  188.9780  175.3700  142.1140 C   0  0  0  0  0  3  0  0  0  0  0  0
  187.5520  174.9220  142.3580 C   0  0  0  0  0  2  0  0  0  0  0  0
  187.8420  175.9790  141.3190 C   0  0  0  0  0  2  0  0  0  0  0  0
  191.5460  175.4470  142.3890 N   0  0  0  0  0  2  0  0  0  0  0  0
  193.6400  175.8000  141.5280 O   0  0  0  0  0  0  0  0  0  0  0  0
  193.3670  176.3110  143.7210 O   0  0  0  0  0  0  0  0  0  0  0  0
  192.8870  175.8390  142.5210 N   0  0  0  0  0  0  0  0  0  0  0  0
  1 18  1  0  0  0  0
  2  1  1  6  0  0  0
  3  2  1  0  0  0  0
  3  4  1  0  0  0  0
  5 12  2  0  0  0  0
  5 11  1  0  0  0  0
  6  3  2  0  0  0  0
  7  8  1  0  0  0  0
  8  9  1  0  0  0  0
  9  4  2  0  0  0  0
 10  6  1  0  0  0  0
 10  8  2  0  0  0  0
 11  7  2  0  0  0  0
 12 10  1  0  0  0  0
 13 17  1  6  0  0  0
 14  2  1  1  0  0  0
 14 15  1  0  0  0  0
 14 13  1  0  0  0  0
 15 13  1  0  0  0  0
 17 16  1  0  0  0  0
 19 20  1  6  0  0  0
 19 18  1  0  0  0  0
 21 22  1  1  0  0  0
 21 19  1  0  0  0  0
 23 21  1  0  0  0  0
 24 25  1  1  0  0  0
 24 23  1  0  0  0  0
 24 29  1  0  0  0  0
 25 26  1  0  0  0  0
 26 27  1  0  0  0  0
 28 26  1  0  0  0  0
 28 27  1  0  0  0  0
 29 32  1  0  0  0  0
 30 32  2  0  0  0  0
 32 31  2  0  0  0  0
M  END
>  <MODEL>
8

>  <REMARK>
 VINA RESULT:      -6.0      3.248      5.681
  Name = 
  13 active torsions:
  status: ('A' for Active; 'I' for Inactive)
    1  A    between atoms: O_1  and  C_5
    2  A    between atoms: O_1  and  C_30
    3  A    between atoms: C_2  and  C_5
    4  A    between atoms: C_3  and  C_8
    5  A    between atoms: C_3  and  C_20
    6  A    between atoms: C_4  and  C_24
    7  A    between atoms: C_4  and  C_30
    8  A    between atoms: C_5  and  C_14
    9  A    between atoms: C_13  and  C_29
   10  A    between atoms: N_15  and  C_20
   11  A    between atoms: N_15  and  N_26
   12  A    between atoms: C_16  and  C_20
   13  A    between atoms: C_16  and  C_24
                            x       y       z     vdW  Elec       q    Type
                         _______ _______ _______ _____ _____    ______ ____

>  <TORSDO>
F 13

$$$$
=
 OpenBabel11052419203D

 32 35  0  0  1  0  0  0  0  0999 V2000
  189.6310  176.1690  142.7580 O   0  0  0  0  0  0  0  0  0  0  0  0
  188.3930  175.9080  142.1260 C   0  0  2  0  0  3  0  0  0  0  0  0
  187.2340  176.6280  142.7650 C   0  0  0  0  0  0  0  0  0  0  0  0
  186.4390  177.4690  141.9780 C   0  0  0  0  0  3  0  0  0  0  0  0
  184.6440  177.8730  146.6700 C   0  0  0  0  0  3  0  0  0  0  0  0
  186.9860  176.5280  144.1440 C   0  0  0  0  0  3  0  0  0  0  0  0
  184.0950  178.8170  144.5040 C   0  0  0  0  0  3  0  0  0  0  0  0
  185.1370  178.0890  143.9220 C   0  0  0  0  0  0  0  0  0  0  0  0
  185.3910  178.1940  142.5520 C   0  0  0  0  0  3  0  0  0  0  0  0
  185.9410  177.2480  144.7240 C   0  0  0  0  0  0  0  0  0  0  0  0
  183.8500  178.7090  145.8770 C   0  0  0  0  0  3  0  0  0  0  0  0
  185.6900  177.1440  146.0950 C   0  0  0  0  0  3  0  0  0  0  0  0
  188.8530  174.0180  140.5760 C   0  0  1  0  0  3  0  0  0  0  0  0
  188.1490  174.4210  141.8570 C   0  0  1  0  0  3  0  0  0  0  0  0
  189.4610  173.6670  141.9190 C   0  0  0  0  0  2  0  0  0  0  0  0
  189.0070  172.1750  139.0860 O   0  0  0  0  0  1  0  0  0  0  0  0
  188.1610  172.8010  139.9990 C   0  0  0  0  0  2  0  0  0  0  0  0
  189.9790  177.5160  142.5400 C   0  0  0  0  0  2  0  0  0  0  0  0
  191.4020  177.8000  143.0160 C   0  0  1  0  0  3  0  0  0  0  0  0
  191.3820  178.6070  144.1540 O   0  0  0  0  0  1  0  0  0  0  0  0
  192.2380  176.5410  143.2700 C   0  0  1  0  0  3  0  0  0  0  0  0
  193.2310  176.3960  142.2990 O   0  0  0  0  0  1  0  0  0  0  0  0
  192.8710  176.5170  144.6610 C   0  0  0  0  0  2  0  0  0  0  0  0
  192.5560  175.2510  145.4630 C   0  0  1  0  0  3  0  0  0  0  0  0
  191.5230  175.5080  146.5510 C   0  0  0  0  0  2  0  0  0  0  0  0
  190.1260  175.5020  145.9600 C   0  0  0  0  0  3  0  0  0  0  0  0
  189.1200  175.7060  147.0740 C   0  0  0  0  0  2  0  0  0  0  0  0
  189.3550  174.3230  146.5140 C   0  0  0  0  0  2  0  0  0  0  0  0
  192.1090  174.1820  144.5800 N   0  0  0  0  0  2  0  0  0  0  0  0
  191.8950  171.9350  144.1880 O   0  0  0  0  0  0  0  0  0  0  0  0
  193.6200  172.5510  145.5260 O   0  0  0  0  0  0  0  0  0  0  0  0
  192.5160  172.8520  144.7620 N   0  0  0  0  0  0  0  0  0  0  0  0
  2  1  1  1  0  0  0
  2  3  1  0  0  0  0
  3  6  1  0  0  0  0
  4  9  1  0  0  0  0
  4  3  2  0  0  0  0
  6 10  2  0  0  0  0
  7 11  2  0  0  0  0
  8  7  1  0  0  0  0
  8 10  1  0  0  0  0
  9  8  2  0  0  0  0
 10 12  1  0  0  0  0
 11  5  1  0  0  0  0
 12  5  2  0  0  0  0
 13 17  1  6  0  0  0
 13 14  1  0  0  0  0
 13 15  1  0  0  0  0
 14 15  1  0  0  0  0
 14  2  1  1  0  0  0
 16 17  1  0  0  0  0
 18  1  1  0  0  0  0
 18 19  1  0  0  0  0
 19 21  1  0  0  0  0
 19 20  1  1  0  0  0
 21 22  1  6  0  0  0
 21 23  1  0  0  0  0
 24 23  1  6  0  0  0
 24 25  1  0  0  0  0
 26 28  1  0  0  0  0
 26 25  1  0  0  0  0
 26 27  1  0  0  0  0
 28 27  1  0  0  0  0
 29 32  1  0  0  0  0
 29 24  1  0  0  0  0
 30 32  2  0  0  0  0
 32 31  2  0  0  0  0
M  END
>  <MODEL>
9

>  <REMARK>
 VINA RESULT:      -5.9      3.197      6.543
  Name = 
  13 active torsions:
  status: ('A' for Active; 'I' for Inactive)
    1  A    between atoms: O_1  and  C_5
    2  A    between atoms: O_1  and  C_30
    3  A    between atoms: C_2  and  C_5
    4  A    between atoms: C_3  and  C_8
    5  A    between atoms: C_3  and  C_20
    6  A    between atoms: C_4  and  C_24
    7  A    between atoms: C_4  and  C_30
    8  A    between atoms: C_5  and  C_14
    9  A    between atoms: C_13  and  C_29
   10  A    between atoms: N_15  and  C_20
   11  A    between atoms: N_15  and  N_26
   12  A    between atoms: C_16  and  C_20
   13  A    between atoms: C_16  and  C_24
                            x       y       z     vdW  Elec       q    Type
                         _______ _______ _______ _____ _____    ______ ____

>  <TORSDO>
F 13

$$$$
