=
 OpenBabel11052420243D

 34 38  0  0  1  0  0  0  0  0999 V2000
  186.3730  177.1380  144.3750 C   0  0  1  0  0  3  0  0  0  0  0  0
  184.8980  178.1130  141.1220 C   0  0  0  0  0  3  0  0  0  0  0  0
  184.3180  178.5860  143.2620 N   0  0  0  0  0  0  0  0  0  0  0  0
  187.5450  176.2500  146.4600 C   0  0  0  0  0  0  0  0  0  0  0  0
  187.5480  176.3770  144.9620 C   0  0  0  0  0  3  0  0  0  0  0  0
  185.5810  177.7140  146.5700 C   0  0  0  0  0  0  0  0  0  0  0  0
  184.7140  178.3660  147.4400 O   0  0  0  0  0  1  0  0  0  0  0  0
  186.6410  176.9000  147.1840 C   0  0  0  0  0  3  0  0  0  0  0  0
  184.4150  178.5460  144.6110 C   0  0  0  0  0  0  0  0  0  0  0  0
  185.4520  177.8080  145.2220 C   0  0  0  0  0  0  0  0  0  0  0  0
  183.4420  179.2600  145.3710 N   0  0  0  0  0  1  0  0  0  0  0  0
  185.5440  177.6180  139.9050 C   0  0  0  0  0  3  0  0  0  0  0  0
  186.6180  176.8480  139.7600 C   0  0  0  0  0  0  0  0  0  0  0  0
  187.4140  176.3120  140.8660 C   0  0  0  0  0  3  0  0  0  0  0  0
  185.1700  177.9520  142.4190 C   0  0  0  0  0  0  0  0  0  0  0  0
  187.2520  176.4620  142.1760 C   0  0  0  0  0  3  0  0  0  0  0  0
  186.2400  177.2000  142.9620 C   0  0  0  0  0  0  0  0  0  0  0  0
  187.0400  176.5090  138.3870 C   0  0  0  0  0  0  0  0  0  0  0  0
  187.4520  175.2180  138.0730 O   0  0  0  0  0  1  0  0  0  0  0  0
  187.0310  177.3860  137.4820 O   0  0  0  0  0  0  0  0  0  0  0  0
  188.5180  175.5050  147.1390 O   0  0  0  0  0  0  0  0  0  0  0  0
  191.1450  173.9820  144.8600 C   0  0  0  0  0  2  0  0  0  0  0  0
  190.8160  175.9470  146.9380 C   0  0  0  0  0  3  0  0  0  0  0  0
  194.7400  175.0730  145.4680 C   0  0  0  0  0  0  0  0  0  0  0  0
  193.6230  174.3810  144.9690 C   0  0  0  0  0  3  0  0  0  0  0  0
  192.3430  174.6590  145.4570 C   0  0  0  0  0  0  0  0  0  0  0  0
  193.2710  176.3500  146.9280 C   0  0  0  0  0  3  0  0  0  0  0  0
  192.1670  175.6500  146.4360 C   0  0  0  0  0  0  0  0  0  0  0  0
  194.5520  176.0590  146.4470 C   0  0  0  0  0  3  0  0  0  0  0  0
  189.7800  175.1540  146.6420 C   0  0  0  0  0  0  0  0  0  0  0  0
  190.0140  173.8620  145.8870 C   0  0  0  0  0  2  0  0  0  0  0  0
  196.1030  174.7870  144.9740 C   0  0  0  0  0  0  0  0  0  0  0  0
  196.5810  175.4390  143.8430 O   0  0  0  0  0  1  0  0  0  0  0  0
  196.8950  173.9150  145.5880 C   0  0  0  0  0  2  0  0  0  0  0  0
  1  5  1  6  0  0  0
  1 10  1  0  0  0  0
  2 15  1  0  0  0  0
  3  9  1  0  0  0  0
  4 21  1  0  0  0  0
  4  8  1  0  0  0  0
  5  4  2  0  0  0  0
  6  8  2  0  0  0  0
  6  7  1  0  0  0  0
  9 10  2  0  0  0  0
  9 11  1  0  0  0  0
 10  6  1  0  0  0  0
 12  2  2  0  0  0  0
 13 12  1  0  0  0  0
 13 14  2  0  0  0  0
 14 16  1  0  0  0  0
 15 17  1  0  0  0  0
 15  3  2  0  0  0  0
 16 17  2  0  0  0  0
 17  1  1  0  0  0  0
 18 13  1  0  0  0  0
 19 18  1  0  0  0  0
 20 18  2  0  0  0  0
 22 26  1  0  0  0  0
 22 31  1  0  0  0  0
 24 29  1  0  0  0  0
 25 26  1  0  0  0  0
 25 24  2  0  0  0  0
 26 28  2  0  0  0  0
 28 27  1  0  0  0  0
 28 23  1  0  0  0  0
 29 27  2  0  0  0  0
 30 23  2  0  0  0  0
 30 21  1  0  0  0  0
 31 30  1  0  0  0  0
 32 24  1  0  0  0  0
 32 34  2  0  0  0  0
 33 32  1  0  0  0  0
M  END
>  <MODEL>
1

>  <REMARK>
 VINA RESULT:      -9.1      0.000      0.000
  Name = 
  4 active torsions:
  status: ('A' for Active; 'I' for Inactive)
    1  A    between atoms: C_3  and  C_25
    2  A    between atoms: C_7  and  C_11
    3  A    between atoms: C_8  and  O_18
    4  A    between atoms: O_18  and  C_30
                            x       y       z     vdW  Elec       q    Type
                         _______ _______ _______ _____ _____    ______ ____

>  <TORSDO>
F 4

$$$$
=
 OpenBabel11052420243D

 34 38  0  0  1  0  0  0  0  0999 V2000
  186.5400  177.0680  144.3280 C   0  0  1  0  0  3  0  0  0  0  0  0
  184.9440  178.1020  141.1520 C   0  0  0  0  0  3  0  0  0  0  0  0
  184.4420  178.5310  143.3210 N   0  0  0  0  0  0  0  0  0  0  0  0
  187.7900  176.1440  146.3510 C   0  0  0  0  0  0  0  0  0  0  0  0
  187.7380  176.3000  144.8570 C   0  0  0  0  0  3  0  0  0  0  0  0
  185.8290  177.5990  146.5630 C   0  0  0  0  0  0  0  0  0  0  0  0
  184.9930  178.2310  147.4760 O   0  0  0  0  0  1  0  0  0  0  0  0
  186.9120  176.7770  147.1200 C   0  0  0  0  0  3  0  0  0  0  0  0
  184.5890  178.4650  144.6650 C   0  0  0  0  0  0  0  0  0  0  0  0
  185.6500  177.7180  145.2220 C   0  0  0  0  0  0  0  0  0  0  0  0
  183.6430  179.1610  145.4730 N   0  0  0  0  0  1  0  0  0  0  0  0
  185.5460  177.6320  139.9020 C   0  0  0  0  0  3  0  0  0  0  0  0
  186.6150  176.8690  139.7030 C   0  0  0  0  0  0  0  0  0  0  0  0
  187.4530  176.3140  140.7680 C   0  0  0  0  0  3  0  0  0  0  0  0
  185.2640  177.9160  142.4350 C   0  0  0  0  0  0  0  0  0  0  0  0
  187.3390  176.4380  142.0850 C   0  0  0  0  0  3  0  0  0  0  0  0
  186.3550  177.1570  142.9230 C   0  0  0  0  0  0  0  0  0  0  0  0
  186.9870  176.5580  138.3090 C   0  0  0  0  0  0  0  0  0  0  0  0
  187.3320  175.2610  137.9420 O   0  0  0  0  0  1  0  0  0  0  0  0
  186.9960  177.4640  137.4340 O   0  0  0  0  0  0  0  0  0  0  0  0
  188.7900  175.3880  146.9790 O   0  0  0  0  0  0  0  0  0  0  0  0
  192.4040  176.4810  147.3740 C   0  0  0  0  0  2  0  0  0  0  0  0
  190.7770  174.4410  146.1580 C   0  0  0  0  0  3  0  0  0  0  0  0
  194.9860  174.5170  145.3830 C   0  0  0  0  0  0  0  0  0  0  0  0
  194.3940  175.5010  146.1940 C   0  0  0  0  0  3  0  0  0  0  0  0
  193.0180  175.4820  146.4370 C   0  0  0  0  0  0  0  0  0  0  0  0
  192.8060  173.4750  145.0920 C   0  0  0  0  0  3  0  0  0  0  0  0
  192.2220  174.4630  145.8890 C   0  0  0  0  0  0  0  0  0  0  0  0
  194.1810  173.5050  144.8390 C   0  0  0  0  0  3  0  0  0  0  0  0
  190.1660  175.4820  146.7360 C   0  0  0  0  0  0  0  0  0  0  0  0
  190.9430  176.7550  147.0030 C   0  0  0  0  0  2  0  0  0  0  0  0
  196.4370  174.5240  145.1030 C   0  0  0  0  0  0  0  0  0  0  0  0
  197.3090  173.8520  145.9510 O   0  0  0  0  0  1  0  0  0  0  0  0
  196.9360  175.1610  144.0500 C   0  0  0  0  0  2  0  0  0  0  0  0
  1  5  1  6  0  0  0
  1 10  1  0  0  0  0
  2 15  1  0  0  0  0
  3  9  1  0  0  0  0
  4 21  1  0  0  0  0
  4  8  1  0  0  0  0
  5  4  2  0  0  0  0
  6  8  2  0  0  0  0
  6  7  1  0  0  0  0
  9 10  2  0  0  0  0
  9 11  1  0  0  0  0
 10  6  1  0  0  0  0
 12  2  2  0  0  0  0
 13 12  1  0  0  0  0
 13 14  2  0  0  0  0
 14 16  1  0  0  0  0
 15 17  1  0  0  0  0
 15  3  2  0  0  0  0
 16 17  2  0  0  0  0
 17  1  1  0  0  0  0
 18 13  1  0  0  0  0
 19 18  1  0  0  0  0
 20 18  2  0  0  0  0
 23 30  2  0  0  0  0
 24 25  1  0  0  0  0
 25 26  2  0  0  0  0
 26 22  1  0  0  0  0
 27 28  2  0  0  0  0
 28 23  1  0  0  0  0
 28 26  1  0  0  0  0
 29 27  1  0  0  0  0
 29 24  2  0  0  0  0
 30 21  1  0  0  0  0
 30 31  1  0  0  0  0
 31 22  1  0  0  0  0
 32 24  1  0  0  0  0
 32 33  1  0  0  0  0
 34 32  2  0  0  0  0
M  END
>  <MODEL>
2

>  <REMARK>
 VINA RESULT:      -8.8      0.717      1.423
  Name = 
  4 active torsions:
  status: ('A' for Active; 'I' for Inactive)
    1  A    between atoms: C_3  and  C_25
    2  A    between atoms: C_7  and  C_11
    3  A    between atoms: C_8  and  O_18
    4  A    between atoms: O_18  and  C_30
                            x       y       z     vdW  Elec       q    Type
                         _______ _______ _______ _____ _____    ______ ____

>  <TORSDO>
F 4

$$$$
=
 OpenBabel11052420243D

 34 38  0  0  1  0  0  0  0  0999 V2000
  194.4580  173.7290  143.6250 C   0  0  0  0  0  0  0  0  0  0  0  0
  197.3180  171.9670  145.1790 C   0  0  0  0  0  3  0  0  0  0  0  0
  197.1980  173.7900  143.8370 N   0  0  0  0  0  0  0  0  0  0  0  0
  192.3200  174.6930  142.6200 C   0  0  0  0  0  0  0  0  0  0  0  0
  192.9410  173.7050  143.5690 C   0  0  0  0  0  3  0  0  0  0  0  0
  194.5340  175.6490  142.1790 C   0  0  0  0  0  0  0  0  0  0  0  0
  195.2060  176.6640  141.5070 O   0  0  0  0  0  1  0  0  0  0  0  0
  193.0750  175.5990  142.0100 C   0  0  0  0  0  3  0  0  0  0  0  0
  196.5940  174.7370  143.0830 C   0  0  0  0  0  0  0  0  0  0  0  0
  195.1890  174.7360  142.9430 C   0  0  2  0  0  3  0  0  0  0  0  0
  197.4200  175.7090  142.4460 N   0  0  0  0  0  1  0  0  0  0  0  0
  197.0280  170.7950  146.0090 C   0  0  0  0  0  3  0  0  0  0  0  0
  195.8640  170.2330  146.3160 C   0  0  0  0  0  0  0  0  0  0  0  0
  194.5590  170.7120  145.8520 C   0  0  0  0  0  3  0  0  0  0  0  0
  196.5370  172.8050  144.4950 C   0  0  0  0  0  0  0  0  0  0  0  0
  194.2660  171.7440  145.0700 C   0  0  0  0  0  3  0  0  0  0  0  0
  195.1250  172.7490  144.4060 C   0  0  0  0  0  0  0  0  0  0  0  0
  195.8840  169.0420  147.1870 C   0  0  0  0  0  0  0  0  0  0  0  0
  197.0910  168.4910  147.6040 O   0  0  0  0  0  1  0  0  0  0  0  0
  194.8060  168.5100  147.5650 O   0  0  0  0  0  0  0  0  0  0  0  0
  190.9370  174.7320  142.3980 O   0  0  0  0  0  0  0  0  0  0  0  0
  189.1660  175.5130  145.6640 C   0  0  0  0  0  2  0  0  0  0  0  0
  189.2980  176.3350  142.9080 C   0  0  0  0  0  3  0  0  0  0  0  0
  186.3620  178.0810  145.4890 C   0  0  0  0  0  0  0  0  0  0  0  0
  187.2310  177.0860  145.9700 C   0  0  0  0  0  3  0  0  0  0  0  0
  188.1820  176.5090  145.1240 C   0  0  0  0  0  0  0  0  0  0  0  0
  187.4350  177.9350  143.3090 C   0  0  0  0  0  3  0  0  0  0  0  0
  188.2880  176.9390  143.7910 C   0  0  0  0  0  0  0  0  0  0  0  0
  186.4750  178.5000  144.1550 C   0  0  0  0  0  3  0  0  0  0  0  0
  189.9770  175.2440  143.2800 C   0  0  0  0  0  0  0  0  0  0  0  0
  189.6150  174.5380  144.5710 C   0  0  0  0  0  2  0  0  0  0  0  0
  185.3420  178.6970  146.3620 C   0  0  0  0  0  0  0  0  0  0  0  0
  185.7200  179.2790  147.5660 O   0  0  0  0  0  1  0  0  0  0  0  0
  184.0570  178.7120  146.0240 C   0  0  0  0  0  2  0  0  0  0  0  0
  1 17  2  0  0  0  0
  2 12  1  0  0  0  0
  3 15  1  0  0  0  0
  4  5  2  0  0  0  0
  5  1  1  0  0  0  0
  7  6  1  0  0  0  0
  8  6  2  0  0  0  0
  8  4  1  0  0  0  0
  9  3  2  0  0  0  0
 10  6  1  6  0  0  0
 10  9  1  0  0  0  0
 10  1  1  0  0  0  0
 11  9  1  0  0  0  0
 12 13  2  0  0  0  0
 13 18  1  0  0  0  0
 14 13  1  0  0  0  0
 15  2  2  0  0  0  0
 16 14  2  0  0  0  0
 17 15  1  0  0  0  0
 17 16  1  0  0  0  0
 18 20  2  0  0  0  0
 18 19  1  0  0  0  0
 21  4  1  0  0  0  0
 21 30  1  0  0  0  0
 23 30  2  0  0  0  0
 23 28  1  0  0  0  0
 24 25  1  0  0  0  0
 24 32  1  0  0  0  0
 26 22  1  0  0  0  0
 26 25  2  0  0  0  0
 27 28  2  0  0  0  0
 27 29  1  0  0  0  0
 28 26  1  0  0  0  0
 29 24  2  0  0  0  0
 30 31  1  0  0  0  0
 31 22  1  0  0  0  0
 32 33  1  0  0  0  0
 34 32  2  0  0  0  0
M  END
>  <MODEL>
3

>  <REMARK>
 VINA RESULT:      -8.4      4.512     10.458
  Name = 
  4 active torsions:
  status: ('A' for Active; 'I' for Inactive)
    1  A    between atoms: C_3  and  C_25
    2  A    between atoms: C_7  and  C_11
    3  A    between atoms: C_8  and  O_18
    4  A    between atoms: O_18  and  C_30
                            x       y       z     vdW  Elec       q    Type
                         _______ _______ _______ _____ _____    ______ ____

>  <TORSDO>
F 4

$$$$
=
 OpenBabel11052420243D

 34 38  0  0  1  0  0  0  0  0999 V2000
  191.7050  174.2650  145.3840 C   0  0  1  0  0  3  0  0  0  0  0  0
  193.5380  171.9500  143.1520 C   0  0  0  0  0  3  0  0  0  0  0  0
  194.2330  173.6210  144.5170 N   0  0  0  0  0  0  0  0  0  0  0  0
  190.1860  175.7740  146.7710 C   0  0  0  0  0  0  0  0  0  0  0  0
  190.3040  174.5640  145.8880 C   0  0  0  0  0  3  0  0  0  0  0  0
  192.6240  176.0220  146.7430 C   0  0  0  0  0  0  0  0  0  0  0  0
  193.6850  176.7580  147.2590 O   0  0  0  0  0  1  0  0  0  0  0  0
  191.2760  176.4160  147.1760 C   0  0  0  0  0  3  0  0  0  0  0  0
  194.1000  174.6330  145.4060 C   0  0  0  0  0  0  0  0  0  0  0  0
  192.8170  174.9990  145.8700 C   0  0  0  0  0  0  0  0  0  0  0  0
  195.2830  175.3020  145.8370 N   0  0  0  0  0  1  0  0  0  0  0  0
  192.7570  170.9690  142.3960 C   0  0  0  0  0  3  0  0  0  0  0  0
  191.4450  170.7550  142.3760 C   0  0  0  0  0  0  0  0  0  0  0  0
  190.4650  171.5100  143.1590 C   0  0  0  0  0  3  0  0  0  0  0  0
  193.1950  172.9030  144.0210 C   0  0  0  0  0  0  0  0  0  0  0  0
  190.6530  172.5150  144.0070 C   0  0  0  0  0  3  0  0  0  0  0  0
  191.8810  173.2100  144.4500 C   0  0  0  0  0  0  0  0  0  0  0  0
  190.9390  169.6780  141.5030 C   0  0  0  0  0  0  0  0  0  0  0  0
  190.8770  168.3660  141.9600 O   0  0  0  0  0  1  0  0  0  0  0  0
  190.5540  169.9360  140.3300 O   0  0  0  0  0  0  0  0  0  0  0  0
  188.9460  176.2240  147.2440 O   0  0  0  0  0  0  0  0  0  0  0  0
  185.6690  177.8680  146.2550 C   0  0  0  0  0  2  0  0  0  0  0  0
  188.0190  176.6460  145.1270 C   0  0  0  0  0  3  0  0  0  0  0  0
  184.8100  177.8170  142.5470 C   0  0  0  0  0  0  0  0  0  0  0  0
  184.7050  177.9920  143.9390 C   0  0  0  0  0  3  0  0  0  0  0  0
  185.7480  177.5990  144.7810 C   0  0  0  0  0  0  0  0  0  0  0  0
  187.0350  176.8810  142.8540 C   0  0  0  0  0  3  0  0  0  0  0  0
  186.9190  177.0470  144.2360 C   0  0  0  0  0  0  0  0  0  0  0  0
  185.9830  177.2620  142.0150 C   0  0  0  0  0  3  0  0  0  0  0  0
  187.8510  176.5980  146.4530 C   0  0  0  0  0  0  0  0  0  0  0  0
  186.4770  176.8340  147.0450 C   0  0  0  0  0  2  0  0  0  0  0  0
  183.7140  178.2150  141.6390 C   0  0  0  0  0  0  0  0  0  0  0  0
  182.4210  178.3470  142.1290 O   0  0  0  0  0  1  0  0  0  0  0  0
  183.9350  178.4530  140.3510 C   0  0  0  0  0  2  0  0  0  0  0  0
  1 10  1  0  0  0  0
  1  5  1  1  0  0  0
  2 15  1  0  0  0  0
  3  9  1  0  0  0  0
  4  8  1  0  0  0  0
  4 21  1  0  0  0  0
  5  4  2  0  0  0  0
  6  8  2  0  0  0  0
  6  7  1  0  0  0  0
  9 11  1  0  0  0  0
  9 10  2  0  0  0  0
 10  6  1  0  0  0  0
 12  2  2  0  0  0  0
 13 12  1  0  0  0  0
 13 14  2  0  0  0  0
 14 16  1  0  0  0  0
 15 17  1  0  0  0  0
 15  3  2  0  0  0  0
 16 17  2  0  0  0  0
 17  1  1  0  0  0  0
 18 19  1  0  0  0  0
 18 13  1  0  0  0  0
 20 18  2  0  0  0  0
 22 31  1  0  0  0  0
 23 30  2  0  0  0  0
 24 25  1  0  0  0  0
 25 26  2  0  0  0  0
 26 22  1  0  0  0  0
 27 28  2  0  0  0  0
 28 26  1  0  0  0  0
 28 23  1  0  0  0  0
 29 24  2  0  0  0  0
 29 27  1  0  0  0  0
 30 31  1  0  0  0  0
 30 21  1  0  0  0  0
 32 33  1  0  0  0  0
 32 24  1  0  0  0  0
 34 32  2  0  0  0  0
M  END
>  <MODEL>
4

>  <REMARK>
 VINA RESULT:      -8.3      3.971      8.614
  Name = 
  4 active torsions:
  status: ('A' for Active; 'I' for Inactive)
    1  A    between atoms: C_3  and  C_25
    2  A    between atoms: C_7  and  C_11
    3  A    between atoms: C_8  and  O_18
    4  A    between atoms: O_18  and  C_30
                            x       y       z     vdW  Elec       q    Type
                         _______ _______ _______ _____ _____    ______ ____

>  <TORSDO>
F 4

$$$$
=
 OpenBabel11052420243D

 34 38  0  0  1  0  0  0  0  0999 V2000
  187.6710  177.7320  144.4110 C   0  0  1  0  0  3  0  0  0  0  0  0
  184.0900  178.6690  144.4010 C   0  0  0  0  0  3  0  0  0  0  0  0
  185.6390  178.5860  146.0540 N   0  0  0  0  0  0  0  0  0  0  0  0
  190.0880  176.9610  144.1420 C   0  0  0  0  0  0  0  0  0  0  0  0
  188.7880  177.3140  143.4730 C   0  0  0  0  0  3  0  0  0  0  0  0
  189.1600  177.6680  146.2970 C   0  0  0  0  0  0  0  0  0  0  0  0
  189.4610  177.8580  147.6420 O   0  0  0  0  0  1  0  0  0  0  0  0
  190.2440  177.1590  145.4450 C   0  0  0  0  0  3  0  0  0  0  0  0
  186.8570  178.3700  146.6030 C   0  0  0  0  0  0  0  0  0  0  0  0
  187.9250  177.9240  145.7940 C   0  0  0  0  0  0  0  0  0  0  0  0
  187.0080  178.6000  148.0020 N   0  0  0  0  0  1  0  0  0  0  0  0
  183.3730  178.6080  143.1250 C   0  0  0  0  0  3  0  0  0  0  0  0
  183.8060  178.2620  141.9180 C   0  0  0  0  0  0  0  0  0  0  0  0
  185.1770  177.8490  141.6110 C   0  0  0  0  0  3  0  0  0  0  0  0
  185.3530  178.4050  144.7410 C   0  0  0  0  0  0  0  0  0  0  0  0
  186.2260  177.7310  142.4170 C   0  0  0  0  0  3  0  0  0  0  0  0
  186.3800  177.9670  143.8690 C   0  0  0  0  0  0  0  0  0  0  0  0
  182.8380  178.2970  140.8040 C   0  0  0  0  0  0  0  0  0  0  0  0
  181.6880  179.0750  140.8900 O   0  0  0  0  0  1  0  0  0  0  0  0
  183.0420  177.6220  139.7600 O   0  0  0  0  0  0  0  0  0  0  0  0
  191.1840  176.4760  143.4150 O   0  0  0  0  0  0  0  0  0  0  0  0
  194.1810  175.1610  145.3380 C   0  0  0  0  0  2  0  0  0  0  0  0
  191.8340  174.2780  143.9250 C   0  0  0  0  0  3  0  0  0  0  0  0
  194.6310  171.3820  145.3800 C   0  0  0  0  0  0  0  0  0  0  0  0
  194.8720  172.7560  145.5560 C   0  0  0  0  0  3  0  0  0  0  0  0
  193.9640  173.7010  145.0710 C   0  0  0  0  0  0  0  0  0  0  0  0
  192.5400  171.9150  144.2560 C   0  0  0  0  0  3  0  0  0  0  0  0
  192.7920  173.2790  144.4240 C   0  0  0  0  0  0  0  0  0  0  0  0
  193.4580  170.9720  144.7300 C   0  0  0  0  0  3  0  0  0  0  0  0
  192.1500  175.5770  143.8850 C   0  0  0  0  0  0  0  0  0  0  0  0
  193.5550  176.0200  144.2340 C   0  0  0  0  0  2  0  0  0  0  0  0
  195.5820  170.3660  145.8750 C   0  0  0  0  0  0  0  0  0  0  0  0
  195.1160  169.1250  146.2940 O   0  0  0  0  0  1  0  0  0  0  0  0
  196.8870  170.6080  145.9320 C   0  0  0  0  0  2  0  0  0  0  0  0
  1  5  1  6  0  0  0
  1 10  1  0  0  0  0
  2 15  1  0  0  0  0
  3  9  1  0  0  0  0
  4  8  1  0  0  0  0
  5  4  2  0  0  0  0
  6  7  1  0  0  0  0
  8  6  2  0  0  0  0
  9 11  1  0  0  0  0
 10  6  1  0  0  0  0
 10  9  2  0  0  0  0
 12  2  2  0  0  0  0
 13 12  1  0  0  0  0
 14 13  2  0  0  0  0
 14 16  1  0  0  0  0
 15  3  2  0  0  0  0
 16 17  2  0  0  0  0
 17  1  1  0  0  0  0
 17 15  1  0  0  0  0
 18 19  1  0  0  0  0
 18 13  1  0  0  0  0
 20 18  2  0  0  0  0
 21 30  1  0  0  0  0
 21  4  1  0  0  0  0
 23 28  1  0  0  0  0
 24 25  1  0  0  0  0
 24 32  1  0  0  0  0
 26 22  1  0  0  0  0
 26 25  2  0  0  0  0
 27 28  2  0  0  0  0
 27 29  1  0  0  0  0
 28 26  1  0  0  0  0
 29 24  2  0  0  0  0
 30 23  2  0  0  0  0
 30 31  1  0  0  0  0
 31 22  1  0  0  0  0
 32 34  2  0  0  0  0
 32 33  1  0  0  0  0
M  END
>  <MODEL>
5

>  <REMARK>
 VINA RESULT:      -8.0      2.852      3.944
  Name = 
  4 active torsions:
  status: ('A' for Active; 'I' for Inactive)
    1  A    between atoms: C_3  and  C_25
    2  A    between atoms: C_7  and  C_11
    3  A    between atoms: C_8  and  O_18
    4  A    between atoms: O_18  and  C_30
                            x       y       z     vdW  Elec       q    Type
                         _______ _______ _______ _____ _____    ______ ____

>  <TORSDO>
F 4

$$$$
=
 OpenBabel11052420243D

 34 38  0  0  1  0  0  0  0  0999 V2000
  193.3600  174.9610  142.1130 C   0  0  1  0  0  3  0  0  0  0  0  0
  193.7130  174.5240  138.4550 C   0  0  0  0  0  3  0  0  0  0  0  0
  195.0390  175.5100  140.0070 N   0  0  0  0  0  0  0  0  0  0  0  0
  192.8190  175.1880  144.5960 C   0  0  0  0  0  0  0  0  0  0  0  0
  192.4420  174.5970  143.2660 C   0  0  0  0  0  3  0  0  0  0  0  0
  194.8730  176.0850  143.6050 C   0  0  0  0  0  0  0  0  0  0  0  0
  196.0520  176.7670  143.8860 O   0  0  0  0  0  1  0  0  0  0  0  0
  193.9630  175.8490  144.7340 C   0  0  0  0  0  3  0  0  0  0  0  0
  195.4050  175.9260  141.2420 C   0  0  0  0  0  0  0  0  0  0  0  0
  194.5660  175.6690  142.3490 C   0  0  0  0  0  0  0  0  0  0  0  0
  196.6410  176.6230  141.3710 N   0  0  0  0  0  1  0  0  0  0  0  0
  192.6430  173.8200  137.7450 C   0  0  0  0  0  3  0  0  0  0  0  0
  191.5190  173.2850  138.2090 C   0  0  0  0  0  0  0  0  0  0  0  0
  191.1080  173.2970  139.6150 C   0  0  0  0  0  3  0  0  0  0  0  0
  193.8910  174.8400  139.7390 C   0  0  0  0  0  0  0  0  0  0  0  0
  191.7250  173.8140  140.6720 C   0  0  0  0  0  3  0  0  0  0  0  0
  193.0060  174.5410  140.8030 C   0  0  0  0  0  0  0  0  0  0  0  0
  190.6180  172.6300  137.2410 C   0  0  0  0  0  0  0  0  0  0  0  0
  189.3320  172.2530  137.6130 O   0  0  0  0  0  1  0  0  0  0  0  0
  191.0040  172.4050  136.0620 O   0  0  0  0  0  0  0  0  0  0  0  0
  192.0210  175.0100  145.7350 O   0  0  0  0  0  0  0  0  0  0  0  0
  188.5660  175.3900  147.2630 C   0  0  0  0  0  2  0  0  0  0  0  0
  190.2470  176.4450  145.1780 C   0  0  0  0  0  3  0  0  0  0  0  0
  186.1830  177.7570  145.4750 C   0  0  0  0  0  0  0  0  0  0  0  0
  186.6850  176.7900  146.3630 C   0  0  0  0  0  3  0  0  0  0  0  0
  188.0090  176.3550  146.2590 C   0  0  0  0  0  0  0  0  0  0  0  0
  188.3620  177.8690  144.3970 C   0  0  0  0  0  3  0  0  0  0  0  0
  188.8510  176.9000  145.2760 C   0  0  0  0  0  0  0  0  0  0  0  0
  187.0330  178.2930  144.4960 C   0  0  0  0  0  3  0  0  0  0  0  0
  190.6750  175.3780  145.8610 C   0  0  0  0  0  0  0  0  0  0  0  0
  189.6860  174.5430  146.6480 C   0  0  0  0  0  2  0  0  0  0  0  0
  184.7840  178.2250  145.5600 C   0  0  0  0  0  0  0  0  0  0  0  0
  184.1090  178.6070  144.4070 O   0  0  0  0  0  1  0  0  0  0  0  0
  184.1450  178.2910  146.7230 C   0  0  0  0  0  2  0  0  0  0  0  0
  1 10  1  0  0  0  0
  1  5  1  1  0  0  0
  2 15  1  0  0  0  0
  3  9  1  0  0  0  0
  4  8  1  0  0  0  0
  4 21  1  0  0  0  0
  5  4  2  0  0  0  0
  6  7  1  0  0  0  0
  6  8  2  0  0  0  0
  9 11  1  0  0  0  0
  9 10  2  0  0  0  0
 10  6  1  0  0  0  0
 12 13  1  0  0  0  0
 12  2  2  0  0  0  0
 13 14  2  0  0  0  0
 14 16  1  0  0  0  0
 15  3  2  0  0  0  0
 15 17  1  0  0  0  0
 16 17  2  0  0  0  0
 17  1  1  0  0  0  0
 18 19  1  0  0  0  0
 18 13  1  0  0  0  0
 20 18  2  0  0  0  0
 21 30  1  0  0  0  0
 23 28  1  0  0  0  0
 23 30  2  0  0  0  0
 24 32  1  0  0  0  0
 24 25  1  0  0  0  0
 26 25  2  0  0  0  0
 26 22  1  0  0  0  0
 27 29  1  0  0  0  0
 27 28  2  0  0  0  0
 28 26  1  0  0  0  0
 29 24  2  0  0  0  0
 30 31  1  0  0  0  0
 31 22  1  0  0  0  0
 32 34  2  0  0  0  0
 33 32  1  0  0  0  0
M  END
>  <MODEL>
6

>  <REMARK>
 VINA RESULT:      -8.0      4.376      8.189
  Name = 
  4 active torsions:
  status: ('A' for Active; 'I' for Inactive)
    1  A    between atoms: C_3  and  C_25
    2  A    between atoms: C_7  and  C_11
    3  A    between atoms: C_8  and  O_18
    4  A    between atoms: O_18  and  C_30
                            x       y       z     vdW  Elec       q    Type
                         _______ _______ _______ _____ _____    ______ ____

>  <TORSDO>
F 4

$$$$
=
 OpenBabel11052420243D

 34 38  0  0  1  0  0  0  0  0999 V2000
  194.3530  174.9530  141.8720 C   0  0  1  0  0  3  0  0  0  0  0  0
  196.8940  175.4160  139.2210 C   0  0  0  0  0  3  0  0  0  0  0  0
  196.7510  176.1890  141.3470 N   0  0  0  0  0  0  0  0  0  0  0  0
  192.4150  174.5310  143.4760 C   0  0  0  0  0  0  0  0  0  0  0  0
  193.0570  174.2150  142.1540 C   0  0  0  0  0  3  0  0  0  0  0  0
  194.3560  175.8990  144.0820 C   0  0  0  0  0  0  0  0  0  0  0  0
  194.9270  176.6500  145.1040 O   0  0  0  0  0  1  0  0  0  0  0  0
  193.0480  175.2900  144.3620 C   0  0  0  0  0  3  0  0  0  0  0  0
  196.2000  176.3570  142.5710 C   0  0  0  0  0  0  0  0  0  0  0  0
  194.9660  175.7440  142.8780 C   0  0  0  0  0  0  0  0  0  0  0  0
  196.9010  177.1660  143.5120 N   0  0  0  0  0  1  0  0  0  0  0  0
  196.6650  174.7560  137.9330 C   0  0  0  0  0  3  0  0  0  0  0  0
  195.6600  173.9830  137.5370 C   0  0  0  0  0  0  0  0  0  0  0  0
  194.5110  173.6170  138.3690 C   0  0  0  0  0  3  0  0  0  0  0  0
  196.1930  175.4500  140.3560 C   0  0  0  0  0  0  0  0  0  0  0  0
  194.2320  173.9570  139.6220 C   0  0  0  0  0  3  0  0  0  0  0  0
  194.9590  174.8000  140.5970 C   0  0  0  0  0  0  0  0  0  0  0  0
  195.7020  173.4520  136.1610 C   0  0  0  0  0  0  0  0  0  0  0  0
  194.7440  173.8310  135.2270 O   0  0  0  0  0  0  0  0  0  0  0  0
  196.6090  172.6480  135.8150 O   0  0  0  0  0  1  0  0  0  0  0  0
  191.1730  173.9920  143.8410 O   0  0  0  0  0  0  0  0  0  0  0  0
  189.1680  175.4100  146.7370 C   0  0  0  0  0  2  0  0  0  0  0  0
  189.5140  175.6540  143.8890 C   0  0  0  0  0  3  0  0  0  0  0  0
  186.4070  177.8680  145.8320 C   0  0  0  0  0  0  0  0  0  0  0  0
  187.2300  176.9980  146.5690 C   0  0  0  0  0  3  0  0  0  0  0  0
  188.2360  176.2680  145.9330 C   0  0  0  0  0  0  0  0  0  0  0  0
  187.6390  177.2880  143.8150 C   0  0  0  0  0  3  0  0  0  0  0  0
  188.4450  176.4170  144.5520 C   0  0  0  0  0  0  0  0  0  0  0  0
  186.6230  178.0060  144.4530 C   0  0  0  0  0  3  0  0  0  0  0  0
  190.1540  174.6670  144.5250 C   0  0  0  0  0  0  0  0  0  0  0  0
  189.6910  174.2360  145.9020 C   0  0  0  0  0  2  0  0  0  0  0  0
  185.3290  178.6420  146.4820 C   0  0  0  0  0  0  0  0  0  0  0  0
  185.5960  179.3650  147.6380 O   0  0  0  0  0  1  0  0  0  0  0  0
  184.0970  178.6660  145.9860 C   0  0  0  0  0  2  0  0  0  0  0  0
  1  5  1  1  0  0  0
  1 10  1  0  0  0  0
  2 15  1  0  0  0  0
  3  9  1  0  0  0  0
  4 21  1  0  0  0  0
  4  8  1  0  0  0  0
  5  4  2  0  0  0  0
  6  8  2  0  0  0  0
  6  7  1  0  0  0  0
  9 10  2  0  0  0  0
  9 11  1  0  0  0  0
 10  6  1  0  0  0  0
 12  2  2  0  0  0  0
 13 12  1  0  0  0  0
 13 14  2  0  0  0  0
 14 16  1  0  0  0  0
 15 17  1  0  0  0  0
 15  3  2  0  0  0  0
 16 17  2  0  0  0  0
 17  1  1  0  0  0  0
 18 13  1  0  0  0  0
 19 18  2  0  0  0  0
 20 18  1  0  0  0  0
 21 30  1  0  0  0  0
 23 30  2  0  0  0  0
 23 28  1  0  0  0  0
 24 32  1  0  0  0  0
 24 25  1  0  0  0  0
 26 25  2  0  0  0  0
 26 22  1  0  0  0  0
 27 29  1  0  0  0  0
 27 28  2  0  0  0  0
 28 26  1  0  0  0  0
 29 24  2  0  0  0  0
 30 31  1  0  0  0  0
 31 22  1  0  0  0  0
 32 33  1  0  0  0  0
 34 32  2  0  0  0  0
M  END
>  <MODEL>
7

>  <REMARK>
 VINA RESULT:      -7.8      5.094      9.074
  Name = 
  4 active torsions:
  status: ('A' for Active; 'I' for Inactive)
    1  A    between atoms: C_3  and  C_25
    2  A    between atoms: C_7  and  C_11
    3  A    between atoms: C_8  and  O_18
    4  A    between atoms: O_18  and  C_30
                            x       y       z     vdW  Elec       q    Type
                         _______ _______ _______ _____ _____    ______ ____

>  <TORSDO>
F 4

$$$$
=
 OpenBabel11052420243D

 34 38  0  0  1  0  0  0  0  0999 V2000
  194.9030  173.7020  143.4220 C   0  0  0  0  0  0  0  0  0  0  0  0
  196.5500  170.3910  143.2610 C   0  0  0  0  0  3  0  0  0  0  0  0
  196.0510  171.9240  141.6680 N   0  0  0  0  0  0  0  0  0  0  0  0
  193.6720  175.9020  143.8150 C   0  0  0  0  0  0  0  0  0  0  0  0
  194.3240  174.6900  144.4190 C   0  0  0  0  0  3  0  0  0  0  0  0
  194.4190  175.1850  141.5930 C   0  0  0  0  0  0  0  0  0  0  0  0
  194.4600  175.5470  140.2510 O   0  0  0  0  0  1  0  0  0  0  0  0
  193.7530  176.1230  142.5080 C   0  0  0  0  0  3  0  0  0  0  0  0
  195.5570  173.0830  141.1730 C   0  0  0  0  0  0  0  0  0  0  0  0
  194.9530  174.0190  142.0400 C   0  0  2  0  0  3  0  0  0  0  0  0
  195.6640  173.3070  139.7690 N   0  0  0  0  0  1  0  0  0  0  0  0
  196.7170  169.6510  144.5140 C   0  0  0  0  0  3  0  0  0  0  0  0
  196.3650  169.9780  145.7530 C   0  0  0  0  0  0  0  0  0  0  0  0
  195.7000  171.2280  146.1280 C   0  0  0  0  0  3  0  0  0  0  0  0
  196.0130  171.5800  142.9790 C   0  0  0  0  0  0  0  0  0  0  0  0
  195.3210  172.2460  145.3650 C   0  0  0  0  0  3  0  0  0  0  0  0
  195.4300  172.4760  143.9070 C   0  0  0  0  0  0  0  0  0  0  0  0
  196.6660  169.0150  146.8290 C   0  0  0  0  0  0  0  0  0  0  0  0
  197.9410  168.4750  146.9590 O   0  0  0  0  0  0  0  0  0  0  0  0
  195.7700  168.6710  147.6460 O   0  0  0  0  0  1  0  0  0  0  0  0
  193.0200  176.8590  144.6040 O   0  0  0  0  0  0  0  0  0  0  0  0
  189.6710  177.9170  143.1600 C   0  0  0  0  0  2  0  0  0  0  0  0
  190.8410  176.6250  145.4510 C   0  0  0  0  0  3  0  0  0  0  0  0
  186.6390  177.4410  145.4110 C   0  0  0  0  0  0  0  0  0  0  0  0
  187.4510  177.8330  144.3320 C   0  0  0  0  0  3  0  0  0  0  0  0
  188.8240  177.5760  144.3510 C   0  0  0  0  0  0  0  0  0  0  0  0
  188.5940  176.5000  146.5120 C   0  0  0  0  0  3  0  0  0  0  0  0
  189.3970  176.9030  145.4420 C   0  0  0  0  0  0  0  0  0  0  0  0
  187.2230  176.7720  146.4960 C   0  0  0  0  0  3  0  0  0  0  0  0
  191.6570  177.1810  144.5480 C   0  0  0  0  0  0  0  0  0  0  0  0
  191.1150  178.2110  143.5800 C   0  0  0  0  0  2  0  0  0  0  0  0
  185.1870  177.7120  145.4170 C   0  0  0  0  0  0  0  0  0  0  0  0
  184.5570  178.1450  144.2560 O   0  0  0  0  0  1  0  0  0  0  0  0
  184.4570  177.5510  146.5150 C   0  0  0  0  0  2  0  0  0  0  0  0
  1 17  2  0  0  0  0
  1  5  1  0  0  0  0
  2 12  1  0  0  0  0
  3 15  1  0  0  0  0
  4  5  2  0  0  0  0
  4 21  1  0  0  0  0
  6 10  1  0  0  0  0
  6  8  2  0  0  0  0
  7  6  1  0  0  0  0
  8  4  1  0  0  0  0
  9  3  2  0  0  0  0
 10  9  1  6  0  0  0
 10  1  1  0  0  0  0
 11  9  1  0  0  0  0
 12 13  2  0  0  0  0
 13 14  1  0  0  0  0
 13 18  1  0  0  0  0
 15  2  2  0  0  0  0
 15 17  1  0  0  0  0
 16 14  2  0  0  0  0
 17 16  1  0  0  0  0
 18 19  2  0  0  0  0
 18 20  1  0  0  0  0
 22 31  1  0  0  0  0
 22 26  1  0  0  0  0
 24 32  1  0  0  0  0
 24 29  1  0  0  0  0
 25 26  1  0  0  0  0
 25 24  2  0  0  0  0
 26 28  2  0  0  0  0
 28 23  1  0  0  0  0
 28 27  1  0  0  0  0
 29 27  2  0  0  0  0
 30 21  1  0  0  0  0
 30 23  2  0  0  0  0
 31 30  1  0  0  0  0
 32 34  2  0  0  0  0
 33 32  1  0  0  0  0
M  END
>  <MODEL>
8

>  <REMARK>
 VINA RESULT:      -7.8      4.653     10.495
  Name = 
  4 active torsions:
  status: ('A' for Active; 'I' for Inactive)
    1  A    between atoms: C_3  and  C_25
    2  A    between atoms: C_7  and  C_11
    3  A    between atoms: C_8  and  O_18
    4  A    between atoms: O_18  and  C_30
                            x       y       z     vdW  Elec       q    Type
                         _______ _______ _______ _____ _____    ______ ____

>  <TORSDO>
F 4

$$$$
=
 OpenBabel11052420243D

 34 38  0  0  1  0  0  0  0  0999 V2000
  191.5540  176.6140  144.5680 C   0  0  1  0  0  3  0  0  0  0  0  0
  194.8970  175.3850  145.5730 C   0  0  0  0  0  3  0  0  0  0  0  0
  193.0790  176.0110  146.7740 N   0  0  0  0  0  0  0  0  0  0  0  0
  189.3720  177.5100  143.5950 C   0  0  0  0  0  0  0  0  0  0  0  0
  190.7150  176.8880  143.3320 C   0  0  0  0  0  3  0  0  0  0  0  0
  189.7440  177.2730  146.0060 C   0  0  0  0  0  0  0  0  0  0  0  0
  189.1600  177.4480  147.2560 O   0  0  0  0  0  1  0  0  0  0  0  0
  188.9340  177.6530  144.8410 C   0  0  0  0  0  3  0  0  0  0  0  0
  191.8190  176.4640  146.9720 C   0  0  0  0  0  0  0  0  0  0  0  0
  191.0060  176.7920  145.8650 C   0  0  0  0  0  0  0  0  0  0  0  0
  191.3630  176.5990  148.3160 N   0  0  0  0  0  1  0  0  0  0  0  0
  195.8550  175.0660  144.5120 C   0  0  0  0  0  3  0  0  0  0  0  0
  195.7220  175.1410  143.1920 C   0  0  0  0  0  0  0  0  0  0  0  0
  194.5110  175.5880  142.5000 C   0  0  0  0  0  3  0  0  0  0  0  0
  193.6420  175.8370  145.5520 C   0  0  0  0  0  0  0  0  0  0  0  0
  193.3510  175.9940  143.0020 C   0  0  0  0  0  3  0  0  0  0  0  0
  192.8810  176.1370  144.3970 C   0  0  0  0  0  0  0  0  0  0  0  0
  196.8770  174.7470  142.3620 C   0  0  0  0  0  0  0  0  0  0  0  0
  197.6440  175.7080  141.7130 O   0  0  0  0  0  0  0  0  0  0  0  0
  197.1830  173.5310  142.2320 O   0  0  0  0  0  1  0  0  0  0  0  0
  188.5210  177.8970  142.5510 O   0  0  0  0  0  0  0  0  0  0  0  0
  185.0780  178.7270  143.9190 C   0  0  0  0  0  2  0  0  0  0  0  0
  186.4390  178.0540  141.4740 C   0  0  0  0  0  3  0  0  0  0  0  0
  182.1730  178.4080  141.4810 C   0  0  0  0  0  0  0  0  0  0  0  0
  182.9040  178.5810  142.6690 C   0  0  0  0  0  3  0  0  0  0  0  0
  184.2950  178.4540  142.6690 C   0  0  0  0  0  0  0  0  0  0  0  0
  184.2550  178.0130  140.2840 C   0  0  0  0  0  3  0  0  0  0  0  0
  184.9730  178.1750  141.4710 C   0  0  0  0  0  0  0  0  0  0  0  0
  182.8610  178.1270  140.2910 C   0  0  0  0  0  3  0  0  0  0  0  0
  187.1250  177.9940  142.6210 C   0  0  0  0  0  0  0  0  0  0  0  0
  186.3800  177.9200  143.9380 C   0  0  0  0  0  2  0  0  0  0  0  0
  180.7010  178.5270  141.4600 C   0  0  0  0  0  0  0  0  0  0  0  0
  180.0190  178.9020  142.6120 O   0  0  0  0  0  1  0  0  0  0  0  0
  180.0010  178.2830  140.3580 C   0  0  0  0  0  2  0  0  0  0  0  0
  1  5  1  6  0  0  0
  1 10  1  0  0  0  0
  3  9  1  0  0  0  0
  4  8  1  0  0  0  0
  5  4  2  0  0  0  0
  6  7  1  0  0  0  0
  8  6  2  0  0  0  0
  9 11  1  0  0  0  0
 10  6  1  0  0  0  0
 10  9  2  0  0  0  0
 12  2  2  0  0  0  0
 13 12  1  0  0  0  0
 14 16  1  0  0  0  0
 14 13  2  0  0  0  0
 15  2  1  0  0  0  0
 15  3  2  0  0  0  0
 16 17  2  0  0  0  0
 17  1  1  0  0  0  0
 17 15  1  0  0  0  0
 18 13  1  0  0  0  0
 19 18  2  0  0  0  0
 20 18  1  0  0  0  0
 21 30  1  0  0  0  0
 21  4  1  0  0  0  0
 22 31  1  0  0  0  0
 23 30  2  0  0  0  0
 24 25  1  0  0  0  0
 25 26  2  0  0  0  0
 26 22  1  0  0  0  0
 27 29  1  0  0  0  0
 27 28  2  0  0  0  0
 28 23  1  0  0  0  0
 28 26  1  0  0  0  0
 29 24  2  0  0  0  0
 30 31  1  0  0  0  0
 32 24  1  0  0  0  0
 32 33  1  0  0  0  0
 34 32  2  0  0  0  0
M  END
>  <MODEL>
9

>  <REMARK>
 VINA RESULT:      -7.8      3.412      9.731
  Name = 
  4 active torsions:
  status: ('A' for Active; 'I' for Inactive)
    1  A    between atoms: C_3  and  C_25
    2  A    between atoms: C_7  and  C_11
    3  A    between atoms: C_8  and  O_18
    4  A    between atoms: O_18  and  C_30
                            x       y       z     vdW  Elec       q    Type
                         _______ _______ _______ _____ _____    ______ ____

>  <TORSDO>
F 4

$$$$
