=
 OpenBabel11052417273D

 25 27  0  0  0  0  0  0  0  0999 V2000
  187.4200  177.1560  145.7620 C   0  0  0  0  0  0  0  0  0  0  0  0
  187.0010  177.0320  144.4170 C   0  0  0  0  0  0  0  0  0  0  0  0
  185.4300  178.4630  146.2120 C   0  0  0  0  0  3  0  0  0  0  0  0
  185.0420  178.3300  144.9190 N   0  0  0  0  0  0  0  0  0  0  0  0
  185.3600  177.5290  142.6770 C   0  0  0  0  0  0  0  0  0  0  0  0
  184.0840  178.1490  142.2190 C   0  0  0  0  0  1  0  0  0  0  0  0
  187.7710  176.3480  143.4640 C   0  0  0  0  0  3  0  0  0  0  0  0
  186.6180  177.8820  146.6520 C   0  0  0  0  0  3  0  0  0  0  0  0
  186.1410  176.8340  141.7510 C   0  0  0  0  0  3  0  0  0  0  0  0
  187.3470  176.2430  142.1340 C   0  0  0  0  0  0  0  0  0  0  0  0
  185.7860  177.6390  144.0130 C   0  0  0  0  0  0  0  0  0  0  0  0
  188.6660  176.5330  146.2760 C   0  0  0  0  0  0  0  0  0  0  0  0
  190.9990  175.3490  147.3050 C   0  0  0  0  0  3  0  0  0  0  0  0
  189.9270  177.1210  146.0460 C   0  0  0  0  0  0  0  0  0  0  0  0
  191.0840  176.5250  146.5570 C   0  0  0  0  0  3  0  0  0  0  0  0
  189.7560  174.7630  147.5450 C   0  0  0  0  0  3  0  0  0  0  0  0
  190.0440  178.2530  145.3070 F   0  0  0  0  0  0  0  0  0  0  0  0
  188.5960  175.3530  147.0360 C   0  0  0  0  0  3  0  0  0  0  0  0
  188.1160  175.5390  141.1490 N   0  0  0  0  0  2  0  0  0  0  0  0
  188.2810  174.1160  141.0400 C   0  0  0  0  0  0  0  0  0  0  0  0
  187.7750  173.3470  141.9040 O   0  0  0  0  0  0  0  0  0  0  0  0
  190.6070  173.8410  140.1680 C   0  0  0  0  0  1  0  0  0  0  0  0
  188.9580  172.0450  139.8450 C   0  0  0  0  0  1  0  0  0  0  0  0
  188.7170  174.1710  138.6160 C   0  0  0  0  0  1  0  0  0  0  0  0
  189.1330  173.5500  139.9340 C   0  0  0  0  0  0  0  0  0  0  0  0
  1 12  1  0  0  0  0
  1  8  1  0  0  0  0
  2  1  2  0  0  0  0
  3  8  2  0  0  0  0
  4  3  1  0  0  0  0
  5 11  1  0  0  0  0
  6  5  1  0  0  0  0
  7  2  1  0  0  0  0
  9 10  1  0  0  0  0
  9  5  2  0  0  0  0
 10  7  2  0  0  0  0
 11  2  1  0  0  0  0
 11  4  2  0  0  0  0
 12 18  1  0  0  0  0
 13 16  1  0  0  0  0
 14 12  2  0  0  0  0
 14 15  1  0  0  0  0
 15 13  2  0  0  0  0
 17 14  1  0  0  0  0
 18 16  2  0  0  0  0
 19 10  1  0  0  0  0
 20 19  1  0  0  0  0
 20 21  2  0  0  0  0
 23 25  1  0  0  0  0
 24 25  1  0  0  0  0
 25 22  1  0  0  0  0
 25 20  1  0  0  0  0
M  END
>  <MODEL>
1

>  <REMARK>
 VINA RESULT:      -7.4      0.000      0.000
  Name = 
  3 active torsions:
  status: ('A' for Active; 'I' for Inactive)
    1  A    between atoms: C_1  and  C_5
    2  A    between atoms: N_6  and  C_23
    3  A    between atoms: C_15  and  C_21
                            x       y       z     vdW  Elec       q    Type
                         _______ _______ _______ _____ _____    ______ ____

>  <TORSDO>
F 3

$$$$
=
 OpenBabel11052417273D

 25 27  0  0  0  0  0  0  0  0999 V2000
  185.2730  177.9240  143.7390 C   0  0  0  0  0  0  0  0  0  0  0  0
  186.2380  177.4280  142.8320 C   0  0  0  0  0  0  0  0  0  0  0  0
  183.8000  178.3560  141.8640 C   0  0  0  0  0  3  0  0  0  0  0  0
  184.7360  177.8710  141.0090 N   0  0  0  0  0  0  0  0  0  0  0  0
  186.8920  176.9270  140.5320 C   0  0  0  0  0  0  0  0  0  0  0  0
  186.6080  176.8890  139.0680 C   0  0  0  0  0  1  0  0  0  0  0  0
  187.4940  176.9770  143.2630 C   0  0  0  0  0  3  0  0  0  0  0  0
  184.0520  178.3890  143.2350 C   0  0  0  0  0  3  0  0  0  0  0  0
  188.1310  176.4760  140.9900 C   0  0  0  0  0  3  0  0  0  0  0  0
  188.4420  176.4990  142.3510 C   0  0  0  0  0  0  0  0  0  0  0  0
  185.9400  177.4110  141.4470 C   0  0  0  0  0  0  0  0  0  0  0  0
  185.4940  177.9550  145.2080 C   0  0  0  0  0  0  0  0  0  0  0  0
  185.8590  177.9790  147.9950 C   0  0  0  0  0  3  0  0  0  0  0  0
  185.7060  179.1710  145.8890 C   0  0  0  0  0  0  0  0  0  0  0  0
  185.8920  179.1760  147.2750 C   0  0  0  0  0  3  0  0  0  0  0  0
  185.6410  176.7720  147.3310 C   0  0  0  0  0  3  0  0  0  0  0  0
  185.7630  180.3480  145.2160 F   0  0  0  0  0  0  0  0  0  0  0  0
  185.4570  176.7600  145.9460 C   0  0  0  0  0  3  0  0  0  0  0  0
  189.7280  176.0250  142.7740 N   0  0  0  0  0  2  0  0  0  0  0  0
  190.8680  176.8240  143.1290 C   0  0  0  0  0  0  0  0  0  0  0  0
  190.8240  178.0810  143.0210 O   0  0  0  0  0  0  0  0  0  0  0  0
  191.8970  174.7110  143.9780 C   0  0  0  0  0  1  0  0  0  0  0  0
  193.1420  176.1330  142.4060 C   0  0  0  0  0  1  0  0  0  0  0  0
  192.7500  176.9060  144.7160 C   0  0  0  0  0  1  0  0  0  0  0  0
  192.1460  176.1480  143.5510 C   0  0  0  0  0  0  0  0  0  0  0  0
  1 12  1  0  0  0  0
  2  7  1  0  0  0  0
  2  1  2  0  0  0  0
  3  8  2  0  0  0  0
  4 11  2  0  0  0  0
  4  3  1  0  0  0  0
  5  9  2  0  0  0  0
  5 11  1  0  0  0  0
  6  5  1  0  0  0  0
  8  1  1  0  0  0  0
  9 10  1  0  0  0  0
 10 19  1  0  0  0  0
 10  7  2  0  0  0  0
 11  2  1  0  0  0  0
 12 14  2  0  0  0  0
 12 18  1  0  0  0  0
 14 15  1  0  0  0  0
 15 13  2  0  0  0  0
 16 13  1  0  0  0  0
 17 14  1  0  0  0  0
 18 16  2  0  0  0  0
 19 20  1  0  0  0  0
 20 25  1  0  0  0  0
 21 20  2  0  0  0  0
 23 25  1  0  0  0  0
 25 22  1  0  0  0  0
 25 24  1  0  0  0  0
M  END
>  <MODEL>
2

>  <REMARK>
 VINA RESULT:      -7.2      2.957      4.342
  Name = 
  3 active torsions:
  status: ('A' for Active; 'I' for Inactive)
    1  A    between atoms: C_1  and  C_5
    2  A    between atoms: N_6  and  C_23
    3  A    between atoms: C_15  and  C_21
                            x       y       z     vdW  Elec       q    Type
                         _______ _______ _______ _____ _____    ______ ____

>  <TORSDO>
F 3

$$$$
=
 OpenBabel11052417273D

 25 27  0  0  0  0  0  0  0  0999 V2000
  191.1820  174.3160  144.7960 C   0  0  0  0  0  0  0  0  0  0  0  0
  190.5620  175.3200  145.5760 C   0  0  0  0  0  0  0  0  0  0  0  0
  193.1370  174.4840  146.2190 C   0  0  0  0  0  3  0  0  0  0  0  0
  192.5230  175.4430  146.9590 N   0  0  0  0  0  0  0  0  0  0  0  0
  190.6650  176.8800  147.4530 C   0  0  0  0  0  0  0  0  0  0  0  0
  191.3750  177.4840  148.6170 C   0  0  0  0  0  1  0  0  0  0  0  0
  189.2780  175.8000  145.2770 C   0  0  0  0  0  3  0  0  0  0  0  0
  192.4790  173.9090  145.1330 C   0  0  0  0  0  3  0  0  0  0  0  0
  189.3820  177.3330  147.1380 C   0  0  0  0  0  3  0  0  0  0  0  0
  188.6830  176.8010  146.0520 C   0  0  0  0  0  0  0  0  0  0  0  0
  191.2660  175.8770  146.6720 C   0  0  0  0  0  0  0  0  0  0  0  0
  190.5080  173.6620  143.6460 C   0  0  0  0  0  0  0  0  0  0  0  0
  189.2110  172.4790  141.4500 C   0  0  0  0  0  3  0  0  0  0  0  0
  189.6400  172.5670  143.8350 C   0  0  0  0  0  0  0  0  0  0  0  0
  189.0010  171.9800  142.7380 C   0  0  0  0  0  3  0  0  0  0  0  0
  190.0620  173.5670  141.2540 C   0  0  0  0  0  3  0  0  0  0  0  0
  189.4300  172.0480  145.0710 F   0  0  0  0  0  0  0  0  0  0  0  0
  190.7040  174.1570  142.3460 C   0  0  0  0  0  3  0  0  0  0  0  0
  187.3670  177.2970  145.7680 N   0  0  0  0  0  2  0  0  0  0  0  0
  186.9270  177.9230  144.5520 C   0  0  0  0  0  0  0  0  0  0  0  0
  187.7440  178.1490  143.6180 O   0  0  0  0  0  0  0  0  0  0  0  0
  184.8090  177.7510  143.2340 C   0  0  0  0  0  1  0  0  0  0  0  0
  184.7130  178.0190  145.6770 C   0  0  0  0  0  1  0  0  0  0  0  0
  185.4750  179.8930  144.2630 C   0  0  0  0  0  1  0  0  0  0  0  0
  185.4980  178.3870  144.4310 C   0  0  0  0  0  0  0  0  0  0  0  0
  1  8  2  0  0  0  0
  1  2  1  0  0  0  0
  2 11  1  0  0  0  0
  3  4  2  0  0  0  0
  5  6  1  0  0  0  0
  7  2  2  0  0  0  0
  7 10  1  0  0  0  0
  8  3  1  0  0  0  0
  9  5  1  0  0  0  0
 10  9  2  0  0  0  0
 11  4  1  0  0  0  0
 11  5  2  0  0  0  0
 12 14  1  0  0  0  0
 12  1  1  0  0  0  0
 13 15  1  0  0  0  0
 14 17  1  0  0  0  0
 15 14  2  0  0  0  0
 16 13  2  0  0  0  0
 16 18  1  0  0  0  0
 18 12  2  0  0  0  0
 19 10  1  0  0  0  0
 20 19  1  0  0  0  0
 21 20  2  0  0  0  0
 22 25  1  0  0  0  0
 24 25  1  0  0  0  0
 25 20  1  0  0  0  0
 25 23  1  0  0  0  0
M  END
>  <MODEL>
3

>  <REMARK>
 VINA RESULT:      -7.2      2.905      6.574
  Name = 
  3 active torsions:
  status: ('A' for Active; 'I' for Inactive)
    1  A    between atoms: C_1  and  C_5
    2  A    between atoms: N_6  and  C_23
    3  A    between atoms: C_15  and  C_21
                            x       y       z     vdW  Elec       q    Type
                         _______ _______ _______ _____ _____    ______ ____

>  <TORSDO>
F 3

$$$$
=
 OpenBabel11052417273D

 25 27  0  0  0  0  0  0  0  0999 V2000
  190.6820  174.2160  143.9040 C   0  0  0  0  0  0  0  0  0  0  0  0
  190.2290  175.2720  144.7300 C   0  0  0  0  0  0  0  0  0  0  0  0
  192.4940  173.8320  145.4670 C   0  0  0  0  0  3  0  0  0  0  0  0
  192.0420  174.8460  146.2490 N   0  0  0  0  0  0  0  0  0  0  0  0
  190.5050  176.6220  146.7460 C   0  0  0  0  0  0  0  0  0  0  0  0
  191.2250  176.9610  148.0080 C   0  0  0  0  0  1  0  0  0  0  0  0
  189.1120  176.0480  144.3890 C   0  0  0  0  0  3  0  0  0  0  0  0
  191.8250  173.5040  144.2890 C   0  0  0  0  0  3  0  0  0  0  0  0
  189.3840  177.3740  146.3880 C   0  0  0  0  0  3  0  0  0  0  0  0
  188.6840  177.0960  145.2120 C   0  0  0  0  0  0  0  0  0  0  0  0
  190.9390  175.5720  145.9190 C   0  0  0  0  0  0  0  0  0  0  0  0
  189.9850  173.8190  142.6550 C   0  0  0  0  0  0  0  0  0  0  0  0
  188.6580  173.0090  140.3120 C   0  0  0  0  0  3  0  0  0  0  0  0
  190.5510  174.0730  141.3890 C   0  0  0  0  0  0  0  0  0  0  0  0
  189.8850  173.6720  140.2270 C   0  0  0  0  0  3  0  0  0  0  0  0
  188.0920  172.7470  141.5600 C   0  0  0  0  0  3  0  0  0  0  0  0
  191.7330  174.7310  141.2720 F   0  0  0  0  0  0  0  0  0  0  0  0
  188.7530  173.1470  142.7240 C   0  0  0  0  0  3  0  0  0  0  0  0
  187.5380  177.8950  144.8860 N   0  0  0  0  0  2  0  0  0  0  0  0
  186.1640  177.5870  145.1700 C   0  0  0  0  0  0  0  0  0  0  0  0
  185.8540  176.4870  145.7070 O   0  0  0  0  0  0  0  0  0  0  0  0
  184.0590  178.7510  145.8510 C   0  0  0  0  0  1  0  0  0  0  0  0
  185.6810  179.9020  144.4060 C   0  0  0  0  0  1  0  0  0  0  0  0
  184.3790  178.0010  143.5220 C   0  0  0  0  0  1  0  0  0  0  0  0
  185.0840  178.5490  144.7470 C   0  0  0  0  0  0  0  0  0  0  0  0
  1  8  2  0  0  0  0
  1  2  1  0  0  0  0
  2 11  1  0  0  0  0
  3  4  2  0  0  0  0
  5  6  1  0  0  0  0
  7  2  2  0  0  0  0
  7 10  1  0  0  0  0
  8  3  1  0  0  0  0
  9  5  1  0  0  0  0
 10  9  2  0  0  0  0
 11  4  1  0  0  0  0
 11  5  2  0  0  0  0
 12 18  1  0  0  0  0
 12  1  1  0  0  0  0
 13 16  1  0  0  0  0
 14 12  2  0  0  0  0
 15 13  2  0  0  0  0
 15 14  1  0  0  0  0
 16 18  2  0  0  0  0
 17 14  1  0  0  0  0
 19 20  1  0  0  0  0
 19 10  1  0  0  0  0
 20 21  2  0  0  0  0
 23 25  1  0  0  0  0
 24 25  1  0  0  0  0
 25 20  1  0  0  0  0
 25 22  1  0  0  0  0
M  END
>  <MODEL>
4

>  <REMARK>
 VINA RESULT:      -6.8      2.702      6.607
  Name = 
  3 active torsions:
  status: ('A' for Active; 'I' for Inactive)
    1  A    between atoms: C_1  and  C_5
    2  A    between atoms: N_6  and  C_23
    3  A    between atoms: C_15  and  C_21
                            x       y       z     vdW  Elec       q    Type
                         _______ _______ _______ _____ _____    ______ ____

>  <TORSDO>
F 3

$$$$
=
 OpenBabel11052417273D

 25 27  0  0  0  0  0  0  0  0999 V2000
  190.5940  174.5000  143.8980 C   0  0  0  0  0  0  0  0  0  0  0  0
  189.5920  175.0280  143.0500 C   0  0  0  0  0  0  0  0  0  0  0  0
  191.2080  172.9560  142.1340 C   0  0  0  0  0  3  0  0  0  0  0  0
  190.2450  173.4780  141.3330 N   0  0  0  0  0  0  0  0  0  0  0  0
  188.4390  175.0000  140.8970 C   0  0  0  0  0  0  0  0  0  0  0  0
  188.2500  174.4620  139.5190 C   0  0  0  0  0  1  0  0  0  0  0  0
  188.7300  176.0510  143.4730 C   0  0  0  0  0  3  0  0  0  0  0  0
  191.3970  173.4560  143.4210 C   0  0  0  0  0  3  0  0  0  0  0  0
  187.6010  176.0250  141.3400 C   0  0  0  0  0  3  0  0  0  0  0  0
  187.7370  176.5540  142.6250 C   0  0  0  0  0  0  0  0  0  0  0  0
  189.4350  174.4900  141.7480 C   0  0  0  0  0  0  0  0  0  0  0  0
  190.8430  175.0200  145.2660 C   0  0  0  0  0  0  0  0  0  0  0  0
  191.2540  176.0180  147.8620 C   0  0  0  0  0  3  0  0  0  0  0  0
  191.8410  175.9860  145.5100 C   0  0  0  0  0  0  0  0  0  0  0  0
  192.0440  176.4750  146.8040 C   0  0  0  0  0  3  0  0  0  0  0  0
  190.2600  175.0680  147.6300 C   0  0  0  0  0  3  0  0  0  0  0  0
  192.6360  176.4370  144.5070 F   0  0  0  0  0  0  0  0  0  0  0  0
  190.0530  174.5740  146.3390 C   0  0  0  0  0  3  0  0  0  0  0  0
  186.8540  177.6060  143.0370 N   0  0  0  0  0  2  0  0  0  0  0  0
  185.7370  177.4930  143.9340 C   0  0  0  0  0  0  0  0  0  0  0  0
  185.4040  176.3680  144.3990 O   0  0  0  0  0  0  0  0  0  0  0  0
  184.4600  178.7130  145.7030 C   0  0  0  0  0  1  0  0  0  0  0  0
  185.7190  179.9770  144.0120 C   0  0  0  0  0  1  0  0  0  0  0  0
  183.6890  178.7360  143.3590 C   0  0  0  0  0  1  0  0  0  0  0  0
  184.9130  178.7140  144.2520 C   0  0  0  0  0  0  0  0  0  0  0  0
  1 12  1  0  0  0  0
  2  7  1  0  0  0  0
  2  1  2  0  0  0  0
  3  8  2  0  0  0  0
  4 11  2  0  0  0  0
  4  3  1  0  0  0  0
  5  9  2  0  0  0  0
  5 11  1  0  0  0  0
  6  5  1  0  0  0  0
  8  1  1  0  0  0  0
  9 10  1  0  0  0  0
 10 19  1  0  0  0  0
 10  7  2  0  0  0  0
 11  2  1  0  0  0  0
 12 14  2  0  0  0  0
 12 18  1  0  0  0  0
 14 15  1  0  0  0  0
 15 13  2  0  0  0  0
 16 13  1  0  0  0  0
 17 14  1  0  0  0  0
 18 16  2  0  0  0  0
 19 20  1  0  0  0  0
 20 25  1  0  0  0  0
 20 21  2  0  0  0  0
 23 25  1  0  0  0  0
 24 25  1  0  0  0  0
 25 22  1  0  0  0  0
M  END
>  <MODEL>
5

>  <REMARK>
 VINA RESULT:      -6.8      2.071      5.369
  Name = 
  3 active torsions:
  status: ('A' for Active; 'I' for Inactive)
    1  A    between atoms: C_1  and  C_5
    2  A    between atoms: N_6  and  C_23
    3  A    between atoms: C_15  and  C_21
                            x       y       z     vdW  Elec       q    Type
                         _______ _______ _______ _____ _____    ______ ____

>  <TORSDO>
F 3

$$$$
=
 OpenBabel11052417273D

 25 27  0  0  0  0  0  0  0  0999 V2000
  191.1140  174.7040  144.1040 C   0  0  0  0  0  0  0  0  0  0  0  0
  189.9440  174.9490  143.3480 C   0  0  0  0  0  0  0  0  0  0  0  0
  192.0060  173.4510  142.2320 C   0  0  0  0  0  3  0  0  0  0  0  0
  190.8780  173.7000  141.5200 N   0  0  0  0  0  0  0  0  0  0  0  0
  188.6890  174.6560  141.2730 C   0  0  0  0  0  0  0  0  0  0  0  0
  188.5580  174.1270  139.8850 C   0  0  0  0  0  1  0  0  0  0  0  0
  188.8630  175.6720  143.8730 C   0  0  0  0  0  3  0  0  0  0  0  0
  192.1410  173.9470  143.5280 C   0  0  0  0  0  3  0  0  0  0  0  0
  187.6310  175.3870  141.8170 C   0  0  0  0  0  3  0  0  0  0  0  0
  187.7080  175.8960  143.1160 C   0  0  0  0  0  0  0  0  0  0  0  0
  189.8490  174.4270  142.0340 C   0  0  0  0  0  0  0  0  0  0  0  0
  191.3070  175.2340  145.4780 C   0  0  0  0  0  0  0  0  0  0  0  0
  191.7330  176.2240  148.0750 C   0  0  0  0  0  3  0  0  0  0  0  0
  190.5070  174.7910  146.5510 C   0  0  0  0  0  0  0  0  0  0  0  0
  190.7200  175.2910  147.8400 C   0  0  0  0  0  3  0  0  0  0  0  0
  192.5350  176.6630  147.0210 C   0  0  0  0  0  3  0  0  0  0  0  0
  189.5030  173.9000  146.3520 F   0  0  0  0  0  0  0  0  0  0  0  0
  192.3250  176.1680  145.7310 C   0  0  0  0  0  3  0  0  0  0  0  0
  186.5960  176.6410  143.6320 N   0  0  0  0  0  2  0  0  0  0  0  0
  186.2710  178.0110  143.3500 C   0  0  0  0  0  0  0  0  0  0  0  0
  187.0330  178.7120  142.6280 O   0  0  0  0  0  0  0  0  0  0  0  0
  183.8350  178.5070  143.0960 C   0  0  0  0  0  1  0  0  0  0  0  0
  184.7470  177.9560  145.3110 C   0  0  0  0  0  1  0  0  0  0  0  0
  185.3260  180.1040  144.2430 C   0  0  0  0  0  1  0  0  0  0  0  0
  185.0580  178.6340  143.9900 C   0  0  0  0  0  0  0  0  0  0  0  0
  1 12  1  0  0  0  0
  2  7  1  0  0  0  0
  2  1  2  0  0  0  0
  3  8  2  0  0  0  0
  4 11  2  0  0  0  0
  4  3  1  0  0  0  0
  5  9  2  0  0  0  0
  5 11  1  0  0  0  0
  6  5  1  0  0  0  0
  8  1  1  0  0  0  0
  9 10  1  0  0  0  0
 10 19  1  0  0  0  0
 10  7  2  0  0  0  0
 11  2  1  0  0  0  0
 12 18  2  0  0  0  0
 12 14  1  0  0  0  0
 14 15  2  0  0  0  0
 15 13  1  0  0  0  0
 16 13  2  0  0  0  0
 17 14  1  0  0  0  0
 18 16  1  0  0  0  0
 20 19  1  0  0  0  0
 20 25  1  0  0  0  0
 21 20  2  0  0  0  0
 22 25  1  0  0  0  0
 25 24  1  0  0  0  0
 25 23  1  0  0  0  0
M  END
>  <MODEL>
6

>  <REMARK>
 VINA RESULT:      -6.7      2.317      5.562
  Name = 
  3 active torsions:
  status: ('A' for Active; 'I' for Inactive)
    1  A    between atoms: C_1  and  C_5
    2  A    between atoms: N_6  and  C_23
    3  A    between atoms: C_15  and  C_21
                            x       y       z     vdW  Elec       q    Type
                         _______ _______ _______ _____ _____    ______ ____

>  <TORSDO>
F 3

$$$$
=
 OpenBabel11052417273D

 25 27  0  0  0  0  0  0  0  0999 V2000
  189.3960  176.4700  146.2010 C   0  0  0  0  0  0  0  0  0  0  0  0
  190.1470  175.5170  145.4740 C   0  0  0  0  0  0  0  0  0  0  0  0
  191.1930  176.5800  147.8230 C   0  0  0  0  0  3  0  0  0  0  0  0
  191.9010  175.6680  147.1100 N   0  0  0  0  0  0  0  0  0  0  0  0
  192.1750  174.1740  145.2500 C   0  0  0  0  0  0  0  0  0  0  0  0
  193.5210  173.7440  145.7270 C   0  0  0  0  0  1  0  0  0  0  0  0
  189.6540  174.9270  144.3010 C   0  0  0  0  0  3  0  0  0  0  0  0
  189.9370  176.9930  147.3820 C   0  0  0  0  0  3  0  0  0  0  0  0
  191.6640  173.6090  144.0790 C   0  0  0  0  0  3  0  0  0  0  0  0
  190.4050  173.9770  143.5990 C   0  0  0  0  0  0  0  0  0  0  0  0
  191.4200  175.1250  145.9580 C   0  0  0  0  0  0  0  0  0  0  0  0
  188.0650  176.9540  145.7530 C   0  0  0  0  0  0  0  0  0  0  0  0
  185.5250  177.8120  144.9060 C   0  0  0  0  0  3  0  0  0  0  0  0
  187.9320  177.7780  144.6170 C   0  0  0  0  0  0  0  0  0  0  0  0
  186.6660  178.2060  144.2030 C   0  0  0  0  0  3  0  0  0  0  0  0
  185.6460  176.9900  146.0270 C   0  0  0  0  0  3  0  0  0  0  0  0
  189.0220  178.1930  143.9230 F   0  0  0  0  0  0  0  0  0  0  0  0
  186.9080  176.5610  146.4460 C   0  0  0  0  0  3  0  0  0  0  0  0
  189.9220  173.3710  142.3930 N   0  0  0  0  0  2  0  0  0  0  0  0
  190.4950  173.4860  141.0800 C   0  0  0  0  0  0  0  0  0  0  0  0
  191.4950  174.2310  140.8840 O   0  0  0  0  0  0  0  0  0  0  0  0
  190.2200  173.4220  138.5970 C   0  0  0  0  0  1  0  0  0  0  0  0
  190.2810  171.3230  139.8750 C   0  0  0  0  0  1  0  0  0  0  0  0
  188.3390  172.8330  140.0820 C   0  0  0  0  0  1  0  0  0  0  0  0
  189.8450  172.7760  139.9210 C   0  0  0  0  0  0  0  0  0  0  0  0
  1  8  1  0  0  0  0
  2 11  1  0  0  0  0
  2  1  2  0  0  0  0
  4  3  1  0  0  0  0
  5  6  1  0  0  0  0
  5 11  1  0  0  0  0
  7  2  1  0  0  0  0
  8  3  2  0  0  0  0
  9  5  2  0  0  0  0
 10  9  1  0  0  0  0
 10  7  2  0  0  0  0
 11  4  2  0  0  0  0
 12  1  1  0  0  0  0
 12 18  1  0  0  0  0
 13 16  1  0  0  0  0
 14 12  2  0  0  0  0
 15 14  1  0  0  0  0
 15 13  2  0  0  0  0
 16 18  2  0  0  0  0
 17 14  1  0  0  0  0
 19 10  1  0  0  0  0
 20 19  1  0  0  0  0
 21 20  2  0  0  0  0
 22 25  1  0  0  0  0
 23 25  1  0  0  0  0
 25 24  1  0  0  0  0
 25 20  1  0  0  0  0
M  END
>  <MODEL>
7

>  <REMARK>
 VINA RESULT:      -6.6      2.465      4.792
  Name = 
  3 active torsions:
  status: ('A' for Active; 'I' for Inactive)
    1  A    between atoms: C_1  and  C_5
    2  A    between atoms: N_6  and  C_23
    3  A    between atoms: C_15  and  C_21
                            x       y       z     vdW  Elec       q    Type
                         _______ _______ _______ _____ _____    ______ ____

>  <TORSDO>
F 3

$$$$
=
 OpenBabel11052417273D

 25 27  0  0  0  0  0  0  0  0999 V2000
  189.6750  176.5840  145.5940 C   0  0  0  0  0  0  0  0  0  0  0  0
  188.7760  176.4470  144.5110 C   0  0  0  0  0  0  0  0  0  0  0  0
  187.8920  177.5960  146.8860 C   0  0  0  0  0  3  0  0  0  0  0  0
  187.0420  177.4520  145.8380 N   0  0  0  0  0  0  0  0  0  0  0  0
  186.5370  176.7720  143.5910 C   0  0  0  0  0  0  0  0  0  0  0  0
  185.1230  177.2290  143.7160 C   0  0  0  0  0  1  0  0  0  0  0  0
  189.1780  175.9030  143.2820 C   0  0  0  0  0  3  0  0  0  0  0  0
  189.2140  177.1670  146.7810 C   0  0  0  0  0  3  0  0  0  0  0  0
  186.9610  176.2180  142.3810 C   0  0  0  0  0  3  0  0  0  0  0  0
  188.2780  175.7840  142.2170 C   0  0  0  0  0  0  0  0  0  0  0  0
  187.4400  176.8960  144.6610 C   0  0  0  0  0  0  0  0  0  0  0  0
  191.0840  176.1180  145.5320 C   0  0  0  0  0  0  0  0  0  0  0  0
  193.7500  175.2280  145.4750 C   0  0  0  0  0  3  0  0  0  0  0  0
  192.0790  176.8840  144.8900 C   0  0  0  0  0  0  0  0  0  0  0  0
  193.4020  176.4330  144.8610 C   0  0  0  0  0  3  0  0  0  0  0  0
  192.7740  174.4670  146.1190 C   0  0  0  0  0  3  0  0  0  0  0  0
  191.7700  178.0500  144.2680 F   0  0  0  0  0  0  0  0  0  0  0  0
  191.4500  174.9110  146.1500 C   0  0  0  0  0  3  0  0  0  0  0  0
  188.6680  175.2210  140.9560 N   0  0  0  0  0  2  0  0  0  0  0  0
  188.5580  173.8460  140.5560 C   0  0  0  0  0  0  0  0  0  0  0  0
  188.1400  172.9760  141.3690 O   0  0  0  0  0  0  0  0  0  0  0  0
  188.2190  174.1230  138.0950 C   0  0  0  0  0  1  0  0  0  0  0  0
  190.4860  173.7910  138.9890 C   0  0  0  0  0  1  0  0  0  0  0  0
  188.8620  171.9330  139.0330 C   0  0  0  0  0  1  0  0  0  0  0  0
  189.0240  173.4320  139.1840 C   0  0  0  0  0  0  0  0  0  0  0  0
  1  8  1  0  0  0  0
  2 11  1  0  0  0  0
  2  1  2  0  0  0  0
  4  3  1  0  0  0  0
  5  6  1  0  0  0  0
  5 11  1  0  0  0  0
  7  2  1  0  0  0  0
  8  3  2  0  0  0  0
  9  5  2  0  0  0  0
 10  9  1  0  0  0  0
 10  7  2  0  0  0  0
 11  4  2  0  0  0  0
 12  1  1  0  0  0  0
 12 18  1  0  0  0  0
 13 16  1  0  0  0  0
 14 12  2  0  0  0  0
 15 14  1  0  0  0  0
 15 13  2  0  0  0  0
 16 18  2  0  0  0  0
 17 14  1  0  0  0  0
 19 10  1  0  0  0  0
 20 19  1  0  0  0  0
 20 21  2  0  0  0  0
 22 25  1  0  0  0  0
 23 25  1  0  0  0  0
 24 25  1  0  0  0  0
 25 20  1  0  0  0  0
M  END
>  <MODEL>
8

>  <REMARK>
 VINA RESULT:      -6.4      1.489      2.228
  Name = 
  3 active torsions:
  status: ('A' for Active; 'I' for Inactive)
    1  A    between atoms: C_1  and  C_5
    2  A    between atoms: N_6  and  C_23
    3  A    between atoms: C_15  and  C_21
                            x       y       z     vdW  Elec       q    Type
                         _______ _______ _______ _____ _____    ______ ____

>  <TORSDO>
F 3

$$$$
=
 OpenBabel11052417273D

 25 27  0  0  0  0  0  0  0  0999 V2000
  189.3770  176.5880  146.1300 C   0  0  0  0  0  0  0  0  0  0  0  0
  190.1160  175.5980  145.4400 C   0  0  0  0  0  0  0  0  0  0  0  0
  191.1730  176.7340  147.7510 C   0  0  0  0  0  3  0  0  0  0  0  0
  191.8700  175.7860  147.0730 N   0  0  0  0  0  0  0  0  0  0  0  0
  192.1260  174.2220  145.2700 C   0  0  0  0  0  0  0  0  0  0  0  0
  193.4660  173.7920  145.7650 C   0  0  0  0  0  1  0  0  0  0  0  0
  189.6170  174.9730  144.2890 C   0  0  0  0  0  3  0  0  0  0  0  0
  189.9230  177.1470  147.2920 C   0  0  0  0  0  3  0  0  0  0  0  0
  191.6090  173.6210  144.1200 C   0  0  0  0  0  3  0  0  0  0  0  0
  190.3560  173.9880  143.6240 C   0  0  0  0  0  0  0  0  0  0  0  0
  191.3830  175.2080  145.9410 C   0  0  0  0  0  0  0  0  0  0  0  0
  188.0530  177.0730  145.6620 C   0  0  0  0  0  0  0  0  0  0  0  0
  185.5710  178.0480  144.7720 C   0  0  0  0  0  3  0  0  0  0  0  0
  186.8750  176.7920  146.3840 C   0  0  0  0  0  0  0  0  0  0  0  0
  185.6430  177.2760  145.9350 C   0  0  0  0  0  3  0  0  0  0  0  0
  186.7320  178.3370  144.0550 C   0  0  0  0  0  3  0  0  0  0  0  0
  186.9100  176.0290  147.5070 F   0  0  0  0  0  0  0  0  0  0  0  0
  187.9660  177.8550  144.4990 C   0  0  0  0  0  3  0  0  0  0  0  0
  189.8660  173.3440  142.4400 N   0  0  0  0  0  2  0  0  0  0  0  0
  190.3480  173.5250  141.0980 C   0  0  0  0  0  0  0  0  0  0  0  0
  191.2540  174.3690  140.8540 O   0  0  0  0  0  0  0  0  0  0  0  0
  190.1220  171.2990  139.9840 C   0  0  0  0  0  1  0  0  0  0  0  0
  188.1930  172.8210  140.0800 C   0  0  0  0  0  1  0  0  0  0  0  0
  190.1260  173.3750  138.6490 C   0  0  0  0  0  1  0  0  0  0  0  0
  189.7060  172.7610  139.9690 C   0  0  0  0  0  0  0  0  0  0  0  0
  1  8  1  0  0  0  0
  2 11  1  0  0  0  0
  2  1  2  0  0  0  0
  4  3  1  0  0  0  0
  5  6  1  0  0  0  0
  5 11  1  0  0  0  0
  7  2  1  0  0  0  0
  8  3  2  0  0  0  0
  9  5  2  0  0  0  0
 10  9  1  0  0  0  0
 10  7  2  0  0  0  0
 11  4  2  0  0  0  0
 12  1  1  0  0  0  0
 12 14  1  0  0  0  0
 13 15  1  0  0  0  0
 14 17  1  0  0  0  0
 15 14  2  0  0  0  0
 16 18  1  0  0  0  0
 16 13  2  0  0  0  0
 18 12  2  0  0  0  0
 19 10  1  0  0  0  0
 20 19  1  0  0  0  0
 21 20  2  0  0  0  0
 24 25  1  0  0  0  0
 25 22  1  0  0  0  0
 25 23  1  0  0  0  0
 25 20  1  0  0  0  0
M  END
>  <MODEL>
9

>  <REMARK>
 VINA RESULT:      -6.4      2.556      4.933
  Name = 
  3 active torsions:
  status: ('A' for Active; 'I' for Inactive)
    1  A    between atoms: C_1  and  C_5
    2  A    between atoms: N_6  and  C_23
    3  A    between atoms: C_15  and  C_21
                            x       y       z     vdW  Elec       q    Type
                         _______ _______ _______ _____ _____    ______ ____

>  <TORSDO>
F 3

$$$$
