=
 OpenBabel11052418393D

 34 39  0  0  1  0  0  0  0  0999 V2000
  189.8240  172.4680  140.6190 C   0  0  0  0  0  0  0  0  0  0  0  0
  188.9260  174.6660  141.1000 C   0  0  0  0  0  0  0  0  0  0  0  0
  190.5220  173.6410  142.6640 C   0  0  0  0  0  0  0  0  0  0  0  0
  190.5600  175.0420  144.9000 C   0  0  2  0  0  0  0  0  0  0  0  0
  188.2720  173.5310  139.1160 C   0  0  0  0  0  3  0  0  0  0  0  0
  193.7170  173.8310  145.4900 C   0  0  1  0  0  3  0  0  0  0  0  0
  188.2050  174.6030  139.9480 N   0  0  0  0  0  0  0  0  0  0  0  0
  190.0300  176.1060  142.7960 C   0  0  1  0  0  3  0  0  0  0  0  0
  194.4580  172.4220  143.6940 O   0  0  0  0  0  1  0  0  0  0  0  0
  189.7610  173.5930  141.4690 C   0  0  0  0  0  0  0  0  0  0  0  0
  192.5690  174.3450  146.1460 O   0  0  0  0  0  0  0  0  0  0  0  0
  189.7530  176.2950  145.1890 C   0  0  0  0  0  2  0  0  0  0  0  0
  189.0820  172.4420  139.4370 C   0  0  0  0  0  3  0  0  0  0  0  0
  191.3160  172.5060  142.9960 C   0  0  0  0  0  0  0  0  0  0  0  0
  193.4010  173.2290  144.1190 C   0  0  1  0  0  3  0  0  0  0  0  0
  190.6180  171.3800  140.9600 C   0  0  0  0  0  3  0  0  0  0  0  0
  188.7430  175.8350  142.0130 C   0  0  0  0  0  2  0  0  0  0  0  0
  189.8990  173.8890  145.6480 C   0  0  0  0  0  1  0  0  0  0  0  0
  192.0010  175.3520  145.3440 C   0  0  0  0  0  2  0  0  0  0  0  0
  192.1380  172.3980  144.2290 C   0  0  0  0  0  2  0  0  0  0  0  0
  189.8340  177.1200  143.9220 C   0  0  2  0  0  3  0  0  0  0  0  0
  190.4900  174.8760  143.4410 N   0  0  0  0  0  0  0  0  0  0  0  0
  191.3530  171.4000  142.1410 C   0  0  0  0  0  3  0  0  0  0  0  0
  194.8600  174.8430  145.4210 C   0  0  0  0  0  2  0  0  0  0  0  0
  196.1290  174.2420  145.9950 C   0  0  0  0  0  1  0  0  0  0  0  0
  188.6820  177.8980  143.7690 O   0  0  0  0  0  0  0  0  0  0  0  0
  188.0970  177.8790  144.9760 O   0  0  0  0  0  0  0  0  0  0  0  0
  186.5030  176.3400  146.6670 F   0  0  0  0  0  0  0  0  0  0  0  0
  186.7310  178.1250  145.1270 C   0  0  0  0  0  0  0  0  0  0  0  0
  186.0270  177.6000  146.3550 C   0  0  1  0  0  3  0  0  0  0  0  0
  184.1010  178.8550  145.7580 C   0  0  0  0  0  2  0  0  0  0  0  0
  184.5990  179.1430  144.3450 C   0  0  0  0  0  2  0  0  0  0  0  0
  186.0730  178.8770  144.2330 C   0  0  0  0  0  3  0  0  0  0  0  0
  184.5740  177.5380  146.1720 N   0  0  0  0  0  2  0  0  0  0  0  0
  1 16  2  0  0  0  0
  1 10  1  0  0  0  0
  2 10  1  0  0  0  0
  2 17  1  0  0  0  0
  3 14  1  0  0  0  0
  3 22  1  0  0  0  0
  4 12  1  0  0  0  0
  4 19  1  0  0  0  0
  4 18  1  1  0  0  0
  5 13  2  0  0  0  0
  5  7  1  0  0  0  0
  6 24  1  6  0  0  0
  6 11  1  0  0  0  0
  7  2  2  0  0  0  0
  8 17  1  1  0  0  0
  8 22  1  0  0  0  0
  8 21  1  0  0  0  0
 10  3  2  0  0  0  0
 13  1  1  0  0  0  0
 14 20  1  0  0  0  0
 15  9  1  1  0  0  0
 15 20  1  0  0  0  0
 15  6  1  0  0  0  0
 16 23  1  0  0  0  0
 19 11  1  0  0  0  0
 21 26  1  6  0  0  0
 21 12  1  0  0  0  0
 22  4  1  0  0  0  0
 23 14  2  0  0  0  0
 24 25  1  0  0  0  0
 26 27  1  0  0  0  0
 27 29  1  0  0  0  0
 29 30  1  0  0  0  0
 30 28  1  6  0  0  0
 31 34  1  0  0  0  0
 32 31  1  0  0  0  0
 33 32  1  0  0  0  0
 33 29  2  0  0  0  0
 34 30  1  0  0  0  0
M  END
>  <MODEL>
1

>  <REMARK>
 VINA RESULT:      -8.2      0.000      0.000
  Name = 
  4 active torsions:
  status: ('A' for Active; 'I' for Inactive)
    1  A    between atoms: O_3  and  C_13
    2  A    between atoms: O_3  and  O_17
    3  A    between atoms: C_7  and  C_8
    4  A    between atoms: O_17  and  C_29
                            x       y       z     vdW  Elec       q    Type
                         _______ _______ _______ _____ _____    ______ ____

>  <TORSDO>
F 4

$$$$
=
 OpenBabel11052418393D

 34 39  0  0  1  0  0  0  0  0999 V2000
  187.3310  177.7700  146.7350 C   0  0  0  0  0  0  0  0  0  0  0  0
  185.4920  178.4640  145.3200 C   0  0  0  0  0  0  0  0  0  0  0  0
  187.3600  177.2000  144.3430 C   0  0  0  0  0  0  0  0  0  0  0  0
  187.1740  177.2790  141.7120 C   0  0  2  0  0  0  0  0  0  0  0  0
  185.4650  178.9940  147.6380 C   0  0  0  0  0  3  0  0  0  0  0  0
  189.0030  174.3770  141.5940 C   0  0  1  0  0  3  0  0  0  0  0  0
  184.9020  179.0400  146.4020 N   0  0  0  0  0  0  0  0  0  0  0  0
  185.1920  177.4220  143.0860 C   0  0  1  0  0  3  0  0  0  0  0  0
  189.5220  173.5860  143.7990 O   0  0  0  0  0  1  0  0  0  0  0  0
  186.7310  177.8090  145.4580 C   0  0  0  0  0  0  0  0  0  0  0  0
  188.6750  175.5310  140.8370 O   0  0  0  0  0  0  0  0  0  0  0  0
  186.0850  177.9670  140.9090 C   0  0  0  0  0  2  0  0  0  0  0  0
  186.6920  178.3590  147.8270 C   0  0  0  0  0  3  0  0  0  0  0  0
  188.6300  176.5880  144.5460 C   0  0  0  0  0  0  0  0  0  0  0  0
  188.8470  174.5880  143.1010 C   0  0  1  0  0  3  0  0  0  0  0  0
  188.5650  177.1530  146.9080 C   0  0  0  0  0  3  0  0  0  0  0  0
  184.8630  178.6240  143.9740 C   0  0  0  0  0  2  0  0  0  0  0  0
  188.4210  178.1540  141.6380 C   0  0  0  0  0  1  0  0  0  0  0  0
  187.3360  175.8780  141.0960 C   0  0  0  0  0  2  0  0  0  0  0  0
  189.4230  175.9410  143.4680 C   0  0  0  0  0  2  0  0  0  0  0  0
  184.7940  177.6380  141.6270 C   0  0  2  0  0  3  0  0  0  0  0  0
  186.6350  177.1870  143.0770 N   0  0  0  0  0  0  0  0  0  0  0  0
  189.2080  176.5720  145.8190 C   0  0  0  0  0  3  0  0  0  0  0  0
  188.2690  173.1260  141.1120 C   0  0  0  0  0  2  0  0  0  0  0  0
  188.8320  172.6670  139.7810 C   0  0  0  0  0  1  0  0  0  0  0  0
  183.8610  178.6660  141.4560 O   0  0  0  0  0  0  0  0  0  0  0  0
  182.9110  178.1350  140.6720 O   0  0  0  0  0  0  0  0  0  0  0  0
  181.9690  179.0410  143.1340 F   0  0  0  0  0  0  0  0  0  0  0  0
  181.5570  178.3950  140.8920 C   0  0  0  0  0  0  0  0  0  0  0  0
  181.1650  179.2970  142.0390 C   0  0  1  0  0  3  0  0  0  0  0  0
  178.9320  179.3120  141.2300 C   0  0  0  0  0  2  0  0  0  0  0  0
  179.1600  178.1460  140.2740 C   0  0  0  0  0  2  0  0  0  0  0  0
  180.6270  177.9110  140.0570 C   0  0  0  0  0  3  0  0  0  0  0  0
  179.7600  179.1250  142.4180 N   0  0  0  0  0  2  0  0  0  0  0  0
  1 16  1  0  0  0  0
  1 13  2  0  0  0  0
  2 10  2  0  0  0  0
  2  7  1  0  0  0  0
  3 14  2  0  0  0  0
  3 10  1  0  0  0  0
  4 18  1  6  0  0  0
  4 22  1  0  0  0  0
  5 13  1  0  0  0  0
  6 24  1  6  0  0  0
  6 15  1  0  0  0  0
  7  5  2  0  0  0  0
  8 17  1  1  0  0  0
 10  1  1  0  0  0  0
 11 19  1  0  0  0  0
 11  6  1  0  0  0  0
 12 21  1  0  0  0  0
 12  4  1  0  0  0  0
 14 23  1  0  0  0  0
 15 20  1  0  0  0  0
 15  9  1  1  0  0  0
 17  2  1  0  0  0  0
 19  4  1  0  0  0  0
 20 14  1  0  0  0  0
 21 26  1  1  0  0  0
 21  8  1  0  0  0  0
 22  8  1  0  0  0  0
 22  3  1  0  0  0  0
 23 16  2  0  0  0  0
 25 24  1  0  0  0  0
 27 29  1  0  0  0  0
 27 26  1  0  0  0  0
 29 30  1  0  0  0  0
 30 34  1  0  0  0  0
 30 28  1  1  0  0  0
 31 34  1  0  0  0  0
 32 31  1  0  0  0  0
 33 32  1  0  0  0  0
 33 29  2  0  0  0  0
M  END
>  <MODEL>
2

>  <REMARK>
 VINA RESULT:      -8.1      3.549      6.777
  Name = 
  4 active torsions:
  status: ('A' for Active; 'I' for Inactive)
    1  A    between atoms: O_3  and  C_13
    2  A    between atoms: O_3  and  O_17
    3  A    between atoms: C_7  and  C_8
    4  A    between atoms: O_17  and  C_29
                            x       y       z     vdW  Elec       q    Type
                         _______ _______ _______ _____ _____    ______ ____

>  <TORSDO>
F 4

$$$$
=
 OpenBabel11052418393D

 34 39  0  0  1  0  0  0  0  0999 V2000
  189.3840  174.0650  141.0060 C   0  0  0  0  0  0  0  0  0  0  0  0
  191.0000  173.5340  142.7300 C   0  0  0  0  0  0  0  0  0  0  0  0
  189.3990  175.3640  143.0940 C   0  0  0  0  0  0  0  0  0  0  0  0
  190.1320  176.7420  145.2210 C   0  0  2  0  0  0  0  0  0  0  0  0
  190.9650  172.2730  140.7150 C   0  0  0  0  0  3  0  0  0  0  0  0
  186.8710  177.7550  145.5680 C   0  0  1  0  0  3  0  0  0  0  0  0
  191.4910  172.5430  141.9390 N   0  0  0  0  0  0  0  0  0  0  0  0
  190.6720  174.3940  145.0360 C   0  0  1  0  0  3  0  0  0  0  0  0
  185.4690  176.7610  143.8920 O   0  0  0  0  0  1  0  0  0  0  0  0
  189.9250  174.3280  142.2830 C   0  0  0  0  0  0  0  0  0  0  0  0
  188.2040  178.1340  145.8700 O   0  0  0  0  0  0  0  0  0  0  0  0
  191.3320  176.4580  146.1070 C   0  0  0  0  0  2  0  0  0  0  0  0
  189.9020  173.0320  140.2250 C   0  0  0  0  0  3  0  0  0  0  0  0
  188.3380  176.1520  142.5640 C   0  0  0  0  0  0  0  0  0  0  0  0
  186.7780  176.8010  144.3750 C   0  0  1  0  0  3  0  0  0  0  0  0
  188.3390  174.8410  140.5190 C   0  0  0  0  0  3  0  0  0  0  0  0
  191.6780  173.8350  144.0280 C   0  0  0  0  0  2  0  0  0  0  0  0
  190.4860  177.9360  144.3400 C   0  0  0  0  0  1  0  0  0  0  0  0
  188.9460  176.9770  146.1740 C   0  0  0  0  0  2  0  0  0  0  0  0
  187.7080  177.2910  143.2830 C   0  0  0  0  0  2  0  0  0  0  0  0
  191.3410  174.9550  146.2900 C   0  0  2  0  0  3  0  0  0  0  0  0
  189.9360  175.5110  144.4430 N   0  0  0  0  0  0  0  0  0  0  0  0
  187.8250  175.8780  141.2920 C   0  0  0  0  0  3  0  0  0  0  0  0
  186.1170  177.2250  146.7860 C   0  0  0  0  0  2  0  0  0  0  0  0
  185.1080  178.2500  147.2670 C   0  0  0  0  0  1  0  0  0  0  0  0
  192.6480  174.4910  146.4710 O   0  0  0  0  0  0  0  0  0  0  0  0
  193.4250  175.5490  146.1920 O   0  0  0  0  0  0  0  0  0  0  0  0
  193.4410  176.4280  143.5470 F   0  0  0  0  0  0  0  0  0  0  0  0
  194.5560  175.4280  145.3830 C   0  0  0  0  0  0  0  0  0  0  0  0
  194.6740  176.3060  144.1600 C   0  0  1  0  0  3  0  0  0  0  0  0
  196.9170  175.5760  143.8820 C   0  0  0  0  0  2  0  0  0  0  0  0
  196.7730  174.4200  144.8680 C   0  0  0  0  0  2  0  0  0  0  0  0
  195.5520  174.5990  145.7250 C   0  0  0  0  0  3  0  0  0  0  0  0
  195.6450  175.7800  143.1960 N   0  0  0  0  0  2  0  0  0  0  0  0
  1 10  1  0  0  0  0
  2 17  1  0  0  0  0
  3 22  1  0  0  0  0
  4 18  1  6  0  0  0
  4 12  1  0  0  0  0
  4 19  1  0  0  0  0
  5  7  1  0  0  0  0
  6 11  1  0  0  0  0
  6 24  1  1  0  0  0
  7  2  2  0  0  0  0
  8 17  1  6  0  0  0
  8 21  1  0  0  0  0
 10  2  1  0  0  0  0
 10  3  2  0  0  0  0
 11 19  1  0  0  0  0
 12 21  1  0  0  0  0
 13  5  2  0  0  0  0
 13  1  1  0  0  0  0
 14  3  1  0  0  0  0
 14 20  1  0  0  0  0
 15  9  1  6  0  0  0
 15  6  1  0  0  0  0
 16  1  2  0  0  0  0
 16 23  1  0  0  0  0
 20 15  1  0  0  0  0
 21 26  1  6  0  0  0
 22  8  1  0  0  0  0
 22  4  1  0  0  0  0
 23 14  2  0  0  0  0
 24 25  1  0  0  0  0
 27 26  1  0  0  0  0
 29 33  2  0  0  0  0
 29 27  1  0  0  0  0
 30 28  1  6  0  0  0
 30 29  1  0  0  0  0
 31 32  1  0  0  0  0
 32 33  1  0  0  0  0
 34 31  1  0  0  0  0
 34 30  1  0  0  0  0
M  END
>  <MODEL>
3

>  <REMARK>
 VINA RESULT:      -8.1      2.305      6.839
  Name = 
  4 active torsions:
  status: ('A' for Active; 'I' for Inactive)
    1  A    between atoms: O_3  and  C_13
    2  A    between atoms: O_3  and  O_17
    3  A    between atoms: C_7  and  C_8
    4  A    between atoms: O_17  and  C_29
                            x       y       z     vdW  Elec       q    Type
                         _______ _______ _______ _____ _____    ______ ____

>  <TORSDO>
F 4

$$$$
=
 OpenBabel11052418393D

 34 39  0  0  1  0  0  0  0  0999 V2000
  187.5440  175.4300  139.0430 C   0  0  0  0  0  0  0  0  0  0  0  0
  189.0180  174.1330  140.4620 C   0  0  0  0  0  0  0  0  0  0  0  0
  187.8580  176.0920  141.3900 C   0  0  0  0  0  0  0  0  0  0  0  0
  188.8920  176.6690  143.7490 C   0  0  2  0  0  0  0  0  0  0  0  0
  188.6920  173.4920  138.1950 C   0  0  0  0  0  3  0  0  0  0  0  0
  185.9340  178.2110  144.5580 C   0  0  1  0  0  3  0  0  0  0  0  0
  189.2740  173.3090  139.4100 N   0  0  0  0  0  0  0  0  0  0  0  0
  188.9040  174.3970  142.9280 C   0  0  1  0  0  3  0  0  0  0  0  0
  184.3360  178.0150  142.7790 O   0  0  0  0  0  1  0  0  0  0  0  0
  188.1390  175.2240  140.3060 C   0  0  0  0  0  0  0  0  0  0  0  0
  187.3200  178.2090  144.8600 O   0  0  0  0  0  0  0  0  0  0  0  0
  190.0070  175.9150  144.4500 C   0  0  0  0  0  2  0  0  0  0  0  0
  187.8170  174.5580  137.9890 C   0  0  0  0  0  3  0  0  0  0  0  0
  186.9910  177.1970  141.1530 C   0  0  0  0  0  0  0  0  0  0  0  0
  185.6260  177.6510  143.1680 C   0  0  1  0  0  3  0  0  0  0  0  0
  186.6900  176.5090  138.8430 C   0  0  0  0  0  3  0  0  0  0  0  0
  189.7550  173.9290  141.7450 C   0  0  0  0  0  2  0  0  0  0  0  0
  189.4910  177.9530  143.1850 C   0  0  0  0  0  1  0  0  0  0  0  0
  187.7940  176.8840  144.8050 C   0  0  0  0  0  2  0  0  0  0  0  0
  186.6320  178.2080  142.1810 C   0  0  0  0  0  2  0  0  0  0  0  0
  189.6890  174.4500  144.2380 C   0  0  2  0  0  3  0  0  0  0  0  0
  188.4260  175.7590  142.6930 N   0  0  0  0  0  0  0  0  0  0  0  0
  186.4220  177.3850  139.8890 C   0  0  0  0  0  3  0  0  0  0  0  0
  185.0920  177.5450  145.6440 C   0  0  0  0  0  2  0  0  0  0  0  0
  184.4410  178.5950  146.5240 C   0  0  0  0  0  1  0  0  0  0  0  0
  190.8640  173.6930  144.2070 O   0  0  0  0  0  0  0  0  0  0  0  0
  191.4610  173.9440  145.3810 O   0  0  0  0  0  0  0  0  0  0  0  0
  193.3040  171.8710  145.1090 F   0  0  0  0  0  0  0  0  0  0  0  0
  192.8370  174.1660  145.4660 C   0  0  0  0  0  0  0  0  0  0  0  0
  193.7770  173.1460  144.8660 C   0  0  1  0  0  3  0  0  0  0  0  0
  195.5860  174.6460  145.2170 C   0  0  0  0  0  2  0  0  0  0  0  0
  194.7850  175.5620  146.1370 C   0  0  0  0  0  2  0  0  0  0  0  0
  193.3120  175.2980  146.0040 C   0  0  0  0  0  3  0  0  0  0  0  0
  195.1360  173.2700  145.4030 N   0  0  0  0  0  2  0  0  0  0  0  0
  1 10  1  0  0  0  0
  2 17  1  0  0  0  0
  3 22  1  0  0  0  0
  4 18  1  6  0  0  0
  4 12  1  0  0  0  0
  4 19  1  0  0  0  0
  5  7  1  0  0  0  0
  6 11  1  0  0  0  0
  6 24  1  1  0  0  0
  7  2  2  0  0  0  0
  8 17  1  6  0  0  0
  8 21  1  0  0  0  0
 10  2  1  0  0  0  0
 10  3  2  0  0  0  0
 13  5  2  0  0  0  0
 13  1  1  0  0  0  0
 14  3  1  0  0  0  0
 14 20  1  0  0  0  0
 15  9  1  6  0  0  0
 15  6  1  0  0  0  0
 16  1  2  0  0  0  0
 16 23  1  0  0  0  0
 19 11  1  0  0  0  0
 20 15  1  0  0  0  0
 21 26  1  6  0  0  0
 21 12  1  0  0  0  0
 22  8  1  0  0  0  0
 22  4  1  0  0  0  0
 23 14  2  0  0  0  0
 24 25  1  0  0  0  0
 26 27  1  0  0  0  0
 27 29  1  0  0  0  0
 29 33  2  0  0  0  0
 30 28  1  1  0  0  0
 30 34  1  0  0  0  0
 30 29  1  0  0  0  0
 31 34  1  0  0  0  0
 31 32  1  0  0  0  0
 33 32  1  0  0  0  0
M  END
>  <MODEL>
4

>  <REMARK>
 VINA RESULT:      -7.9      2.434      7.004
  Name = 
  4 active torsions:
  status: ('A' for Active; 'I' for Inactive)
    1  A    between atoms: O_3  and  C_13
    2  A    between atoms: O_3  and  O_17
    3  A    between atoms: C_7  and  C_8
    4  A    between atoms: O_17  and  C_29
                            x       y       z     vdW  Elec       q    Type
                         _______ _______ _______ _____ _____    ______ ____

>  <TORSDO>
F 4

$$$$
=
 OpenBabel11052418393D

 34 39  0  0  1  0  0  0  0  0999 V2000
  190.5610  172.0530  140.2970 C   0  0  0  0  0  0  0  0  0  0  0  0
  188.8540  173.7250  140.6960 C   0  0  0  0  0  0  0  0  0  0  0  0
  190.7070  173.4810  142.2930 C   0  0  0  0  0  0  0  0  0  0  0  0
  190.1530  174.8600  144.4740 C   0  0  2  0  0  0  0  0  0  0  0  0
  188.7320  172.3510  138.7590 C   0  0  0  0  0  3  0  0  0  0  0  0
  193.5240  175.0360  145.1000 C   0  0  1  0  0  3  0  0  0  0  0  0
  188.2320  173.3370  139.5500 N   0  0  0  0  0  0  0  0  0  0  0  0
  189.2680  175.5460  142.3330 C   0  0  1  0  0  3  0  0  0  0  0  0
  194.7880  173.9760  143.3560 O   0  0  0  0  0  1  0  0  0  0  0  0
  190.0430  173.0890  141.1040 C   0  0  0  0  0  0  0  0  0  0  0  0
  192.2580  175.0710  145.7390 O   0  0  0  0  0  0  0  0  0  0  0  0
  188.9090  175.6960  144.7170 C   0  0  0  0  0  2  0  0  0  0  0  0
  189.9060  171.6890  139.1200 C   0  0  0  0  0  3  0  0  0  0  0  0
  191.8830  172.7710  142.6660 C   0  0  0  0  0  0  0  0  0  0  0  0
  193.4920  174.3080  143.7540 C   0  0  1  0  0  3  0  0  0  0  0  0
  191.7200  171.3860  140.6770 C   0  0  0  0  0  3  0  0  0  0  0  0
  188.2070  174.7550  141.5640 C   0  0  0  0  0  2  0  0  0  0  0  0
  189.9990  173.5670  145.2670 C   0  0  0  0  0  1  0  0  0  0  0  0
  191.3450  175.7370  144.9010 C   0  0  0  0  0  2  0  0  0  0  0  0
  192.6660  173.0460  143.9000 C   0  0  0  0  0  2  0  0  0  0  0  0
  188.6700  176.4370  143.4190 C   0  0  2  0  0  3  0  0  0  0  0  0
  190.1740  174.6270  143.0230 N   0  0  0  0  0  0  0  0  0  0  0  0
  192.3700  171.7410  141.8540 C   0  0  0  0  0  3  0  0  0  0  0  0
  194.1680  176.4170  144.9880 C   0  0  0  0  0  2  0  0  0  0  0  0
  194.5100  176.9500  146.3660 C   0  0  0  0  0  1  0  0  0  0  0  0
  187.3050  176.6840  143.2400 O   0  0  0  0  0  0  0  0  0  0  0  0
  187.1120  177.9100  143.7500 O   0  0  0  0  0  0  0  0  0  0  0  0
  184.6130  178.9840  143.1400 F   0  0  0  0  0  0  0  0  0  0  0  0
  186.1510  178.1460  144.7350 C   0  0  0  0  0  0  0  0  0  0  0  0
  184.7030  178.2770  144.3240 C   0  0  1  0  0  3  0  0  0  0  0  0
  184.0760  178.2370  146.6140 C   0  0  0  0  0  2  0  0  0  0  0  0
  185.5000  178.4580  147.1160 C   0  0  0  0  0  2  0  0  0  0  0  0
  186.4980  178.1810  146.0290 C   0  0  0  0  0  3  0  0  0  0  0  0
  183.8990  178.9460  145.3510 N   0  0  0  0  0  2  0  0  0  0  0  0
  1 16  2  0  0  0  0
  1 10  1  0  0  0  0
  2 10  1  0  0  0  0
  2 17  1  0  0  0  0
  3 14  1  0  0  0  0
  3 22  1  0  0  0  0
  4 12  1  0  0  0  0
  4 19  1  0  0  0  0
  4 18  1  1  0  0  0
  5 13  2  0  0  0  0
  5  7  1  0  0  0  0
  6 24  1  6  0  0  0
  6 11  1  0  0  0  0
  7  2  2  0  0  0  0
  8 17  1  1  0  0  0
  8 22  1  0  0  0  0
  8 21  1  0  0  0  0
 10  3  2  0  0  0  0
 13  1  1  0  0  0  0
 14 20  1  0  0  0  0
 15  9  1  1  0  0  0
 15 20  1  0  0  0  0
 15  6  1  0  0  0  0
 16 23  1  0  0  0  0
 19 11  1  0  0  0  0
 21 26  1  6  0  0  0
 21 12  1  0  0  0  0
 22  4  1  0  0  0  0
 23 14  2  0  0  0  0
 24 25  1  0  0  0  0
 26 27  1  0  0  0  0
 27 29  1  0  0  0  0
 29 33  2  0  0  0  0
 30 28  1  6  0  0  0
 30 29  1  0  0  0  0
 30 34  1  0  0  0  0
 31 32  1  0  0  0  0
 33 32  1  0  0  0  0
 34 31  1  0  0  0  0
M  END
>  <MODEL>
5

>  <REMARK>
 VINA RESULT:      -7.7      1.415      1.643
  Name = 
  4 active torsions:
  status: ('A' for Active; 'I' for Inactive)
    1  A    between atoms: O_3  and  C_13
    2  A    between atoms: O_3  and  O_17
    3  A    between atoms: C_7  and  C_8
    4  A    between atoms: O_17  and  C_29
                            x       y       z     vdW  Elec       q    Type
                         _______ _______ _______ _____ _____    ______ ____

>  <TORSDO>
F 4

$$$$
=
 OpenBabel11052418393D

 34 39  0  0  1  0  0  0  0  0999 V2000
  194.4710  176.2970  144.9140 C   0  0  0  0  0  0  0  0  0  0  0  0
  193.4590  175.6050  142.8240 C   0  0  0  0  0  0  0  0  0  0  0  0
  192.0730  175.7510  144.8500 C   0  0  0  0  0  0  0  0  0  0  0  0
  189.7430  174.6040  144.3860 C   0  0  2  0  0  0  0  0  0  0  0  0
  195.7720  176.1530  142.8940 C   0  0  0  0  0  3  0  0  0  0  0  0
  188.4050  176.5370  146.8880 C   0  0  1  0  0  3  0  0  0  0  0  0
  194.6680  175.7390  142.2160 N   0  0  0  0  0  0  0  0  0  0  0  0
  190.9870  175.6240  142.5840 C   0  0  1  0  0  3  0  0  0  0  0  0
  190.0490  178.0190  147.8150 O   0  0  0  0  0  1  0  0  0  0  0  0
  193.3260  175.8820  144.1990 C   0  0  0  0  0  0  0  0  0  0  0  0
  188.2260  175.3120  146.1960 O   0  0  0  0  0  0  0  0  0  0  0  0
  189.2960  173.9710  143.0800 C   0  0  0  0  0  2  0  0  0  0  0  0
  195.6930  176.4380  144.2560 C   0  0  0  0  0  3  0  0  0  0  0  0
  192.0180  176.0100  146.2500 C   0  0  0  0  0  0  0  0  0  0  0  0
  189.8470  177.0460  146.8340 C   0  0  1  0  0  3  0  0  0  0  0  0
  194.3850  176.5570  146.2770 C   0  0  0  0  0  3  0  0  0  0  0  0
  192.3050  175.0640  142.0430 C   0  0  0  0  0  2  0  0  0  0  0  0
  190.0930  173.4740  145.3470 C   0  0  0  0  0  1  0  0  0  0  0  0
  188.5770  175.4980  144.8450 C   0  0  0  0  0  2  0  0  0  0  0  0
  190.7870  175.8810  147.0720 C   0  0  0  0  0  2  0  0  0  0  0  0
  189.7630  174.9220  141.9990 C   0  0  2  0  0  3  0  0  0  0  0  0
  190.9130  175.4200  144.0300 N   0  0  0  0  0  0  0  0  0  0  0  0
  193.1690  176.4100  146.9370 C   0  0  0  0  0  3  0  0  0  0  0  0
  187.4030  177.6080  146.4610 C   0  0  0  0  0  2  0  0  0  0  0  0
  186.0110  177.2480  146.9440 C   0  0  0  0  0  1  0  0  0  0  0  0
  190.0380  174.2260  140.8180 O   0  0  0  0  0  0  0  0  0  0  0  0
  189.4680  173.0240  140.9920 O   0  0  0  0  0  0  0  0  0  0  0  0
  191.7770  171.5820  141.5900 F   0  0  0  0  0  0  0  0  0  0  0  0
  189.8600  171.9160  140.2380 C   0  0  0  0  0  0  0  0  0  0  0  0
  190.8140  170.9190  140.8520 C   0  0  1  0  0  3  0  0  0  0  0  0
  190.4380  169.4650  139.0120 C   0  0  0  0  0  2  0  0  0  0  0  0
  189.7570  170.5390  138.1690 C   0  0  0  0  0  2  0  0  0  0  0  0
  189.3410  171.7030  139.0210 C   0  0  0  0  0  3  0  0  0  0  0  0
  191.4690  170.0880  139.8370 N   0  0  0  0  0  2  0  0  0  0  0  0
  1 16  1  0  0  0  0
  2 10  1  0  0  0  0
  3 14  2  0  0  0  0
  4 19  1  0  0  0  0
  4 18  1  1  0  0  0
  5 13  2  0  0  0  0
  6 24  1  6  0  0  0
  7  2  2  0  0  0  0
  7  5  1  0  0  0  0
  8 17  1  6  0  0  0
  8 22  1  0  0  0  0
 10  3  1  0  0  0  0
 10  1  2  0  0  0  0
 11  6  1  0  0  0  0
 12  4  1  0  0  0  0
 13  1  1  0  0  0  0
 14 23  1  0  0  0  0
 14 20  1  0  0  0  0
 15  6  1  0  0  0  0
 15 20  1  0  0  0  0
 15  9  1  1  0  0  0
 16 23  2  0  0  0  0
 17  2  1  0  0  0  0
 19 11  1  0  0  0  0
 21 26  1  6  0  0  0
 21  8  1  0  0  0  0
 21 12  1  0  0  0  0
 22  4  1  0  0  0  0
 22  3  1  0  0  0  0
 24 25  1  0  0  0  0
 26 27  1  0  0  0  0
 29 30  1  0  0  0  0
 29 27  1  0  0  0  0
 30 28  1  6  0  0  0
 31 34  1  0  0  0  0
 32 31  1  0  0  0  0
 32 33  1  0  0  0  0
 33 29  2  0  0  0  0
 34 30  1  0  0  0  0
M  END
>  <MODEL>
6

>  <REMARK>
 VINA RESULT:      -7.6      3.049      7.135
  Name = 
  4 active torsions:
  status: ('A' for Active; 'I' for Inactive)
    1  A    between atoms: O_3  and  C_13
    2  A    between atoms: O_3  and  O_17
    3  A    between atoms: C_7  and  C_8
    4  A    between atoms: O_17  and  C_29
                            x       y       z     vdW  Elec       q    Type
                         _______ _______ _______ _____ _____    ______ ____

>  <TORSDO>
F 4

$$$$
=
 OpenBabel11052418393D

 34 39  0  0  1  0  0  0  0  0999 V2000
  188.1780  175.6450  140.9070 C   0  0  0  0  0  0  0  0  0  0  0  0
  188.1260  177.1810  142.7800 C   0  0  0  0  0  0  0  0  0  0  0  0
  189.6000  175.2150  142.8670 C   0  0  0  0  0  0  0  0  0  0  0  0
  190.5160  174.9320  145.3250 C   0  0  2  0  0  0  0  0  0  0  0  0
  186.7690  177.5970  140.8720 C   0  0  0  0  0  3  0  0  0  0  0  0
  193.1890  173.2130  144.0250 C   0  0  1  0  0  3  0  0  0  0  0  0
  187.2080  177.9310  142.1140 N   0  0  0  0  0  0  0  0  0  0  0  0
  189.9380  177.1190  144.4770 C   0  0  1  0  0  3  0  0  0  0  0  0
  193.0790  173.1180  141.6300 O   0  0  0  0  0  1  0  0  0  0  0  0
  188.6400  176.0090  142.1900 C   0  0  0  0  0  0  0  0  0  0  0  0
  192.4130  173.3620  145.2030 O   0  0  0  0  0  0  0  0  0  0  0  0
  190.2160  175.8370  146.5060 C   0  0  0  0  0  2  0  0  0  0  0  0
  187.2460  176.4450  140.2460 C   0  0  0  0  0  3  0  0  0  0  0  0
  190.0480  174.0220  142.2290 C   0  0  0  0  0  0  0  0  0  0  0  0
  192.4340  173.6250  142.7590 C   0  0  1  0  0  3  0  0  0  0  0  0
  188.6430  174.4830  140.3020 C   0  0  0  0  0  3  0  0  0  0  0  0
  188.5020  177.5570  144.1760 C   0  0  0  0  0  2  0  0  0  0  0  0
  189.6910  173.6610  145.5000 C   0  0  0  0  0  1  0  0  0  0  0  0
  192.0400  174.7130  145.3340 C   0  0  0  0  0  2  0  0  0  0  0  0
  191.0240  173.0750  142.8290 C   0  0  0  0  0  2  0  0  0  0  0  0
  190.2970  177.2450  145.9570 C   0  0  2  0  0  3  0  0  0  0  0  0
  190.1100  175.7050  144.1430 N   0  0  0  0  0  0  0  0  0  0  0  0
  189.5670  173.6790  140.9620 C   0  0  0  0  0  3  0  0  0  0  0  0
  194.5530  173.8940  144.1260 C   0  0  0  0  0  2  0  0  0  0  0  0
  195.5140  173.0310  144.9210 C   0  0  0  0  0  1  0  0  0  0  0  0
  189.4390  178.0960  146.6610 O   0  0  0  0  0  0  0  0  0  0  0  0
  188.5530  177.2770  147.2460 O   0  0  0  0  0  0  0  0  0  0  0  0
  187.2910  179.2460  148.7630 F   0  0  0  0  0  0  0  0  0  0  0  0
  187.1790  177.5080  147.1570 C   0  0  0  0  0  0  0  0  0  0  0  0
  186.6320  178.8380  147.6190 C   0  0  1  0  0  3  0  0  0  0  0  0
  184.5220  178.2630  146.6940 C   0  0  0  0  0  2  0  0  0  0  0  0
  184.8840  176.7920  146.5150 C   0  0  0  0  0  2  0  0  0  0  0  0
  186.3700  176.5930  146.6050 C   0  0  0  0  0  3  0  0  0  0  0  0
  185.1920  178.7790  147.8840 N   0  0  0  0  0  2  0  0  0  0  0  0
  1 10  1  0  0  0  0
  2 17  1  0  0  0  0
  3 22  1  0  0  0  0
  4 19  1  0  0  0  0
  4 18  1  1  0  0  0
  4 12  1  0  0  0  0
  5  7  1  0  0  0  0
  6 24  1  1  0  0  0
  6 11  1  0  0  0  0
  7  2  2  0  0  0  0
  8 17  1  1  0  0  0
  8 21  1  0  0  0  0
 10  2  1  0  0  0  0
 10  3  2  0  0  0  0
 11 19  1  0  0  0  0
 13  5  2  0  0  0  0
 13  1  1  0  0  0  0
 14 20  1  0  0  0  0
 14  3  1  0  0  0  0
 15  9  1  6  0  0  0
 15 20  1  0  0  0  0
 15  6  1  0  0  0  0
 16  1  2  0  0  0  0
 16 23  1  0  0  0  0
 21 12  1  0  0  0  0
 21 26  1  1  0  0  0
 22  8  1  0  0  0  0
 22  4  1  0  0  0  0
 23 14  2  0  0  0  0
 24 25  1  0  0  0  0
 26 27  1  0  0  0  0
 29 27  1  0  0  0  0
 29 30  1  0  0  0  0
 30 34  1  0  0  0  0
 30 28  1  1  0  0  0
 31 34  1  0  0  0  0
 32 33  1  0  0  0  0
 32 31  1  0  0  0  0
 33 29  2  0  0  0  0
M  END
>  <MODEL>
7

>  <REMARK>
 VINA RESULT:      -7.6      1.822      2.590
  Name = 
  4 active torsions:
  status: ('A' for Active; 'I' for Inactive)
    1  A    between atoms: O_3  and  C_13
    2  A    between atoms: O_3  and  O_17
    3  A    between atoms: C_7  and  C_8
    4  A    between atoms: O_17  and  C_29
                            x       y       z     vdW  Elec       q    Type
                         _______ _______ _______ _____ _____    ______ ____

>  <TORSDO>
F 4

$$$$
=
 OpenBabel11052418393D

 34 39  0  0  1  0  0  0  0  0999 V2000
  185.4770  178.1730  146.2730 C   0  0  0  0  0  0  0  0  0  0  0  0
  185.2800  178.1180  143.8600 C   0  0  0  0  0  0  0  0  0  0  0  0
  187.2930  177.1980  144.9310 C   0  0  0  0  0  0  0  0  0  0  0  0
  189.1220  176.7440  143.0840 C   0  0  2  0  0  0  0  0  0  0  0  0
  183.5230  179.0420  145.1690 C   0  0  0  0  0  3  0  0  0  0  0  0
  190.5190  174.4130  145.1820 C   0  0  1  0  0  3  0  0  0  0  0  0
  184.0640  178.7190  143.9640 N   0  0  0  0  0  0  0  0  0  0  0  0
  186.7720  176.6410  142.5330 C   0  0  1  0  0  3  0  0  0  0  0  0
  189.2500  174.1950  147.2080 O   0  0  0  0  0  1  0  0  0  0  0  0
  186.0250  177.8260  145.0190 C   0  0  0  0  0  0  0  0  0  0  0  0
  190.8280  175.2910  144.1120 O   0  0  0  0  0  0  0  0  0  0  0  0
  188.9710  176.9810  141.5920 C   0  0  0  0  0  2  0  0  0  0  0  0
  184.2210  178.7760  146.3460 C   0  0  0  0  0  3  0  0  0  0  0  0
  188.0090  176.9670  146.1400 C   0  0  0  0  0  0  0  0  0  0  0  0
  189.2870  174.8530  145.9770 C   0  0  1  0  0  3  0  0  0  0  0  0
  186.1920  177.9230  147.4390 C   0  0  0  0  0  3  0  0  0  0  0  0
  185.8560  177.8670  142.5040 C   0  0  0  0  0  2  0  0  0  0  0  0
  189.9840  177.8700  143.6430 C   0  0  0  0  0  1  0  0  0  0  0  0
  189.7300  175.3370  143.2320 C   0  0  0  0  0  2  0  0  0  0  0  0
  189.3600  176.3500  146.2020 C   0  0  0  0  0  2  0  0  0  0  0  0
  187.5840  176.4800  141.2490 C   0  0  2  0  0  3  0  0  0  0  0  0
  187.7500  176.7730  143.6120 N   0  0  0  0  0  0  0  0  0  0  0  0
  187.4480  177.3300  147.3700 C   0  0  0  0  0  3  0  0  0  0  0  0
  190.4250  172.9540  144.7410 C   0  0  0  0  0  2  0  0  0  0  0  0
  191.7780  172.4600  144.2660 C   0  0  0  0  0  1  0  0  0  0  0  0
  187.0580  177.1960  140.1700 O   0  0  0  0  0  0  0  0  0  0  0  0
  186.5560  176.2570  139.3530 O   0  0  0  0  0  0  0  0  0  0  0  0
  188.5960  174.4160  138.8870 F   0  0  0  0  0  0  0  0  0  0  0  0
  187.0800  176.0470  138.0760 C   0  0  0  0  0  0  0  0  0  0  0  0
  187.8200  174.7600  137.7960 C   0  0  1  0  0  3  0  0  0  0  0  0
  187.8530  175.3120  135.4860 C   0  0  0  0  0  2  0  0  0  0  0  0
  187.4370  176.7610  135.7200 C   0  0  0  0  0  2  0  0  0  0  0  0
  186.8680  176.9380  137.0980 C   0  0  0  0  0  3  0  0  0  0  0  0
  188.6730  174.8640  136.6080 N   0  0  0  0  0  2  0  0  0  0  0  0
  1 13  1  0  0  0  0
  1 16  1  0  0  0  0
  2  7  2  0  0  0  0
  2 10  1  0  0  0  0
  3 10  1  0  0  0  0
  3 14  2  0  0  0  0
  4 19  1  0  0  0  0
  4 22  1  0  0  0  0
  4 18  1  1  0  0  0
  5 13  2  0  0  0  0
  6 24  1  6  0  0  0
  6 15  1  0  0  0  0
  7  5  1  0  0  0  0
  8 17  1  6  0  0  0
  8 22  1  0  0  0  0
 10  1  2  0  0  0  0
 11  6  1  0  0  0  0
 12  4  1  0  0  0  0
 14 20  1  0  0  0  0
 14 23  1  0  0  0  0
 15 20  1  0  0  0  0
 15  9  1  1  0  0  0
 17  2  1  0  0  0  0
 19 11  1  0  0  0  0
 21 26  1  6  0  0  0
 21 12  1  0  0  0  0
 21  8  1  0  0  0  0
 22  3  1  0  0  0  0
 23 16  2  0  0  0  0
 25 24  1  0  0  0  0
 27 26  1  0  0  0  0
 29 27  1  0  0  0  0
 30 29  1  0  0  0  0
 30 28  1  1  0  0  0
 31 32  1  0  0  0  0
 31 34  1  0  0  0  0
 32 33  1  0  0  0  0
 33 29  2  0  0  0  0
 34 30  1  0  0  0  0
M  END
>  <MODEL>
8

>  <REMARK>
 VINA RESULT:      -7.5      2.889      6.803
  Name = 
  4 active torsions:
  status: ('A' for Active; 'I' for Inactive)
    1  A    between atoms: O_3  and  C_13
    2  A    between atoms: O_3  and  O_17
    3  A    between atoms: C_7  and  C_8
    4  A    between atoms: O_17  and  C_29
                            x       y       z     vdW  Elec       q    Type
                         _______ _______ _______ _____ _____    ______ ____

>  <TORSDO>
F 4

$$$$
=
 OpenBabel11052418393D

 34 39  0  0  1  0  0  0  0  0999 V2000
  191.9620  175.7780  146.9000 C   0  0  0  0  0  0  0  0  0  0  0  0
  189.9450  176.6720  145.8990 C   0  0  0  0  0  0  0  0  0  0  0  0
  191.2100  174.9240  144.7200 C   0  0  0  0  0  0  0  0  0  0  0  0
  190.3000  174.7160  142.2520 C   0  0  2  0  0  0  0  0  0  0  0  0
  190.6710  177.4770  148.0150 C   0  0  0  0  0  3  0  0  0  0  0  0
  191.4870  171.4960  142.1900 C   0  0  1  0  0  3  0  0  0  0  0  0
  189.7960  177.4910  146.9740 N   0  0  0  0  0  0  0  0  0  0  0  0
  188.8460  175.4510  144.0360 C   0  0  1  0  0  3  0  0  0  0  0  0
  192.4670  170.8910  144.2960 O   0  0  0  0  0  1  0  0  0  0  0  0
  191.0390  175.7870  145.8320 C   0  0  0  0  0  0  0  0  0  0  0  0
  191.1630  172.5910  141.3490 O   0  0  0  0  0  0  0  0  0  0  0  0
  189.1640  175.5180  141.6420 C   0  0  0  0  0  2  0  0  0  0  0  0
  191.7720  176.6210  147.9960 C   0  0  0  0  0  3  0  0  0  0  0  0
  192.3590  174.0830  144.6990 C   0  0  0  0  0  0  0  0  0  0  0  0
  191.8060  171.9210  143.6260 C   0  0  1  0  0  3  0  0  0  0  0  0
  193.0670  174.9360  146.8600 C   0  0  0  0  0  3  0  0  0  0  0  0
  188.9970  176.7970  144.7500 C   0  0  0  0  0  2  0  0  0  0  0  0
  191.6060  175.2860  141.7090 C   0  0  0  0  0  1  0  0  0  0  0  0
  190.0340  173.2480  141.8740 C   0  0  0  0  0  2  0  0  0  0  0  0
  192.6880  173.1520  143.5870 C   0  0  0  0  0  2  0  0  0  0  0  0
  188.0940  175.5660  142.7120 C   0  0  2  0  0  3  0  0  0  0  0  0
  190.1640  174.9110  143.7020 N   0  0  0  0  0  0  0  0  0  0  0  0
  193.2630  174.1000  145.7660 C   0  0  0  0  0  3  0  0  0  0  0  0
  190.4410  170.3840  142.1410 C   0  0  0  0  0  2  0  0  0  0  0  0
  191.0320  169.1340  141.5170 C   0  0  0  0  0  1  0  0  0  0  0  0
  187.3440  176.7420  142.6030 O   0  0  0  0  0  0  0  0  0  0  0  0
  186.1470  176.4300  143.1230 O   0  0  0  0  0  0  0  0  0  0  0  0
  185.5550  179.1260  142.7370 F   0  0  0  0  0  0  0  0  0  0  0  0
  185.5650  177.2070  144.1260 C   0  0  0  0  0  0  0  0  0  0  0  0
  184.8540  178.4820  143.7390 C   0  0  1  0  0  3  0  0  0  0  0  0
  184.0280  178.6660  145.9580 C   0  0  0  0  0  2  0  0  0  0  0  0
  184.9800  177.6090  146.5110 C   0  0  0  0  0  2  0  0  0  0  0  0
  185.5730  176.7910  145.4000 C   0  0  0  0  0  3  0  0  0  0  0  0
  184.6930  179.3900  144.8790 N   0  0  0  0  0  2  0  0  0  0  0  0
  1 13  2  0  0  0  0
  2  7  1  0  0  0  0
  3 10  1  0  0  0  0
  4 18  1  6  0  0  0
  4 22  1  0  0  0  0
  6 24  1  1  0  0  0
  6 15  1  0  0  0  0
  7  5  2  0  0  0  0
  8 17  1  6  0  0  0
 10  2  2  0  0  0  0
 10  1  1  0  0  0  0
 11 19  1  0  0  0  0
 11  6  1  0  0  0  0
 12  4  1  0  0  0  0
 12 21  1  0  0  0  0
 13  5  1  0  0  0  0
 14  3  2  0  0  0  0
 14 23  1  0  0  0  0
 15  9  1  6  0  0  0
 16  1  1  0  0  0  0
 17  2  1  0  0  0  0
 19  4  1  0  0  0  0
 20 15  1  0  0  0  0
 20 14  1  0  0  0  0
 21 26  1  1  0  0  0
 21  8  1  0  0  0  0
 22  8  1  0  0  0  0
 22  3  1  0  0  0  0
 23 16  2  0  0  0  0
 25 24  1  0  0  0  0
 26 27  1  0  0  0  0
 27 29  1  0  0  0  0
 29 33  2  0  0  0  0
 30 28  1  6  0  0  0
 30 29  1  0  0  0  0
 30 34  1  0  0  0  0
 31 32  1  0  0  0  0
 33 32  1  0  0  0  0
 34 31  1  0  0  0  0
M  END
>  <MODEL>
9

>  <REMARK>
 VINA RESULT:      -7.5      2.051      4.822
  Name = 
  4 active torsions:
  status: ('A' for Active; 'I' for Inactive)
    1  A    between atoms: O_3  and  C_13
    2  A    between atoms: O_3  and  O_17
    3  A    between atoms: C_7  and  C_8
    4  A    between atoms: O_17  and  C_29
                            x       y       z     vdW  Elec       q    Type
                         _______ _______ _______ _____ _____    ______ ____

>  <TORSDO>
F 4

$$$$
