=
 OpenBabel11052418473D

 34 40  0  0  1  0  0  0  0  0999 V2000
  186.5340  177.4380  146.2720 C   0  0  0  0  0  0  0  0  0  0  0  0
  184.8750  178.5580  144.8790 C   0  0  0  0  0  0  0  0  0  0  0  0
  186.9380  177.7360  143.9000 C   0  0  0  0  0  0  0  0  0  0  0  0
  187.0300  177.7420  141.4860 N   0  0  0  0  0  0  0  0  0  0  0  0
  184.4980  178.3370  147.2130 C   0  0  0  0  0  3  0  0  0  0  0  0
  184.0880  178.7320  145.9710 N   0  0  0  0  0  0  0  0  0  0  0  0
  185.1690  178.6580  142.4630 C   0  0  2  0  0  3  0  0  0  0  0  0
  186.1360  177.9440  145.0250 C   0  0  0  0  0  0  0  0  0  0  0  0
  183.6100  178.0050  140.4920 N   0  0  0  0  0  2  0  0  0  0  0  0
  185.9450  177.5790  140.6170 N   0  0  0  0  0  0  0  0  0  0  0  0
  185.7210  177.6680  147.3820 C   0  0  0  0  0  3  0  0  0  0  0  0
  188.0340  176.8740  143.9450 C   0  0  0  0  0  0  0  0  0  0  0  0
  187.6950  176.6500  146.3550 C   0  0  0  0  0  3  0  0  0  0  0  0
  184.3270  178.7330  143.5040 C   0  0  0  0  0  2  0  0  0  0  0  0
  188.1150  176.8390  141.5200 N   0  0  0  0  0  0  0  0  0  0  0  0
  188.6480  176.4540  142.6520 C   0  0  0  0  0  0  0  0  0  0  0  0
  184.8900  178.1390  141.1180 C   0  0  0  0  0  0  0  0  0  0  0  0
  186.6360  178.4990  142.6530 C   0  0  1  0  0  3  0  0  0  0  0  0
  188.4250  176.3450  145.1890 C   0  0  0  0  0  3  0  0  0  0  0  0
  192.2320  175.4060  142.4830 C   0  0  0  0  0  0  0  0  0  0  0  0
  192.0900  173.9340  142.2260 C   0  0  0  0  0  2  0  0  0  0  0  0
  189.7870  175.4660  142.6500 C   0  0  2  0  0  3  0  0  0  0  0  0
  190.9980  173.7090  141.1780 C   0  0  0  0  0  2  0  0  0  0  0  0
  191.1290  176.1500  142.6540 C   0  0  0  0  0  3  0  0  0  0  0  0
  189.6660  174.3930  141.5460 C   0  0  0  0  0  2  0  0  0  0  0  0
  193.4600  175.9870  142.4660 F   0  0  0  0  0  0  0  0  0  0  0  0
  182.4050  178.7500  140.8290 C   0  0  1  0  0  3  0  0  0  0  0  0
  181.2670  178.1780  140.0160 C   0  0  0  0  0  2  0  0  0  0  0  0
  181.3610  177.8670  141.4990 C   0  0  2  0  0  3  0  0  0  0  0  0
  180.3010  178.6670  142.2150 C   0  0  0  0  0  0  0  0  0  0  0  0
  177.9750  178.9750  143.0990 C   0  0  0  0  0  1  0  0  0  0  0  0
  178.9070  178.2990  142.2100 N   0  0  0  0  0  0  0  0  0  0  0  0
  178.3670  177.2900  141.3140 C   0  0  0  0  0  1  0  0  0  0  0  0
  180.6660  179.6960  142.8470 O   0  0  0  0  0  0  0  0  0  0  0  0
  1 13  1  0  0  0  0
  1 11  2  0  0  0  0
  2  8  2  0  0  0  0
  2  6  1  0  0  0  0
  3 12  2  0  0  0  0
  3  8  1  0  0  0  0
  4 15  1  0  0  0  0
  4 18  1  0  0  0  0
  5 11  1  0  0  0  0
  6  5  2  0  0  0  0
  7 18  1  0  0  0  0
  7 14  1  1  0  0  0
  8  1  1  0  0  0  0
  9 17  1  0  0  0  0
 10 17  2  0  0  0  0
 10  4  1  0  0  0  0
 12 19  1  0  0  0  0
 14  2  1  0  0  0  0
 15 16  2  0  0  0  0
 16 12  1  0  0  0  0
 17  7  1  0  0  0  0
 18  3  1  1  0  0  0
 19 13  2  0  0  0  0
 20 24  2  0  0  0  0
 21 20  1  0  0  0  0
 22 16  1  6  0  0  0
 22 24  1  0  0  0  0
 23 25  1  0  0  0  0
 23 21  1  0  0  0  0
 25 22  1  0  0  0  0
 26 20  1  0  0  0  0
 27  9  1  6  0  0  0
 27 29  1  0  0  0  0
 28 27  1  0  0  0  0
 28 29  1  0  0  0  0
 29 30  1  1  0  0  0
 30 34  2  0  0  0  0
 32 30  1  0  0  0  0
 32 31  1  0  0  0  0
 33 32  1  0  0  0  0
M  END
>  <MODEL>
1

>  <REMARK>
 VINA RESULT:      -9.3      0.000      0.000
  Name = 
  3 active torsions:
  status: ('A' for Active; 'I' for Inactive)
    1  A    between atoms: C_3  and  N_17
    2  A    between atoms: C_12  and  C_28
    3  A    between atoms: C_13  and  C_14
                            x       y       z     vdW  Elec       q    Type
                         _______ _______ _______ _____ _____    ______ ____

>  <TORSDO>
F 3

$$$$
=
 OpenBabel11052418473D

 34 40  0  0  1  0  0  0  0  0999 V2000
  188.7640  174.5830  141.2850 C   0  0  0  0  0  0  0  0  0  0  0  0
  191.1440  174.5780  141.8150 C   0  0  0  0  0  0  0  0  0  0  0  0
  189.6110  175.9590  143.0920 C   0  0  0  0  0  0  0  0  0  0  0  0
  190.5170  176.9590  145.0960 N   0  0  0  0  0  0  0  0  0  0  0  0
  190.3390  173.2800  139.9970 C   0  0  0  0  0  3  0  0  0  0  0  0
  191.3570  173.6930  140.8090 N   0  0  0  0  0  0  0  0  0  0  0  0
  191.9670  175.7770  143.7690 C   0  0  2  0  0  3  0  0  0  0  0  0
  189.8420  175.0700  142.0400 C   0  0  0  0  0  0  0  0  0  0  0  0
  193.4530  175.0390  145.7660 N   0  0  0  0  0  2  0  0  0  0  0  0
  191.5240  176.4200  145.9060 N   0  0  0  0  0  0  0  0  0  0  0  0
  189.0210  173.7050  140.2320 C   0  0  0  0  0  3  0  0  0  0  0  0
  188.3160  176.2290  143.5380 C   0  0  0  0  0  0  0  0  0  0  0  0
  187.4530  174.9270  141.6580 C   0  0  0  0  0  3  0  0  0  0  0  0
  192.1800  174.8150  142.8600 C   0  0  0  0  0  2  0  0  0  0  0  0
  189.2100  177.2010  145.5720 N   0  0  0  0  0  0  0  0  0  0  0  0
  188.1560  176.9250  144.8470 C   0  0  0  0  0  0  0  0  0  0  0  0
  192.3910  175.7940  145.1740 C   0  0  0  0  0  0  0  0  0  0  0  0
  190.7750  176.6650  143.7030 C   0  0  1  0  0  3  0  0  0  0  0  0
  187.2300  175.7230  142.7980 C   0  0  0  0  0  3  0  0  0  0  0  0
  184.9530  178.8040  145.2700 C   0  0  0  0  0  0  0  0  0  0  0  0
  184.3910  178.1440  146.4950 C   0  0  0  0  0  2  0  0  0  0  0  0
  186.7760  177.1700  145.4010 C   0  0  2  0  0  3  0  0  0  0  0  0
  185.5080  177.9550  147.5230 C   0  0  0  0  0  2  0  0  0  0  0  0
  186.1140  178.3620  144.7620 C   0  0  0  0  0  3  0  0  0  0  0  0
  186.7340  177.2190  146.9440 C   0  0  0  0  0  2  0  0  0  0  0  0
  184.3320  179.8850  144.7300 F   0  0  0  0  0  0  0  0  0  0  0  0
  194.6010  174.4760  145.0680 C   0  0  1  0  0  3  0  0  0  0  0  0
  195.6750  175.5370  145.0180 C   0  0  0  0  0  2  0  0  0  0  0  0
  195.8180  174.3670  145.9740 C   0  0  2  0  0  3  0  0  0  0  0  0
  196.8680  173.4340  145.4220 C   0  0  0  0  0  0  0  0  0  0  0  0
  197.6320  171.1880  144.6100 C   0  0  0  0  0  1  0  0  0  0  0  0
  196.6880  172.0050  145.3570 N   0  0  0  0  0  0  0  0  0  0  0  0
  195.6070  171.3200  146.0460 C   0  0  0  0  0  1  0  0  0  0  0  0
  197.9410  173.9420  144.9960 O   0  0  0  0  0  0  0  0  0  0  0  0
  1 13  2  0  0  0  0
  1  8  1  0  0  0  0
  2  8  1  0  0  0  0
  2 14  1  0  0  0  0
  3 12  1  0  0  0  0
  4 15  1  0  0  0  0
  4 10  1  0  0  0  0
  5 11  2  0  0  0  0
  5  6  1  0  0  0  0
  6  2  2  0  0  0  0
  7 14  1  1  0  0  0
  7 17  1  0  0  0  0
  8  3  2  0  0  0  0
 11  1  1  0  0  0  0
 12 16  1  0  0  0  0
 13 19  1  0  0  0  0
 16 15  2  0  0  0  0
 17  9  1  0  0  0  0
 17 10  2  0  0  0  0
 18  3  1  1  0  0  0
 18  7  1  0  0  0  0
 18  4  1  0  0  0  0
 19 12  2  0  0  0  0
 20 21  1  0  0  0  0
 21 23  1  0  0  0  0
 22 16  1  1  0  0  0
 22 25  1  0  0  0  0
 24 20  2  0  0  0  0
 24 22  1  0  0  0  0
 25 23  1  0  0  0  0
 26 20  1  0  0  0  0
 27  9  1  1  0  0  0
 27 29  1  0  0  0  0
 28 27  1  0  0  0  0
 28 29  1  0  0  0  0
 29 30  1  6  0  0  0
 31 32  1  0  0  0  0
 32 30  1  0  0  0  0
 32 33  1  0  0  0  0
 34 30  2  0  0  0  0
M  END
>  <MODEL>
2

>  <REMARK>
 VINA RESULT:      -9.0      5.431     10.699
  Name = 
  3 active torsions:
  status: ('A' for Active; 'I' for Inactive)
    1  A    between atoms: C_3  and  N_17
    2  A    between atoms: C_12  and  C_28
    3  A    between atoms: C_13  and  C_14
                            x       y       z     vdW  Elec       q    Type
                         _______ _______ _______ _____ _____    ______ ____

>  <TORSDO>
F 3

$$$$
=
 OpenBabel11052418473D

 34 40  0  0  1  0  0  0  0  0999 V2000
  190.6400  176.6070  146.7490 C   0  0  0  0  0  0  0  0  0  0  0  0
  191.8350  175.1520  145.1990 C   0  0  0  0  0  0  0  0  0  0  0  0
  189.4560  175.5410  144.9220 C   0  0  0  0  0  0  0  0  0  0  0  0
  188.4960  174.7480  142.8510 N   0  0  0  0  0  0  0  0  0  0  0  0
  192.9930  176.1320  147.0260 C   0  0  0  0  0  3  0  0  0  0  0  0
  192.9810  175.3690  145.8930 N   0  0  0  0  0  0  0  0  0  0  0  0
  190.7040  174.2630  143.2340 C   0  0  2  0  0  3  0  0  0  0  0  0
  190.6330  175.7380  145.6470 C   0  0  0  0  0  0  0  0  0  0  0  0
  191.3180  174.2920  140.7110 N   0  0  0  0  0  2  0  0  0  0  0  0
  189.1520  174.6560  141.6180 N   0  0  0  0  0  0  0  0  0  0  0  0
  191.8260  176.7780  147.4640 C   0  0  0  0  0  3  0  0  0  0  0  0
  188.3290  176.3340  145.1460 C   0  0  0  0  0  0  0  0  0  0  0  0
  189.4800  177.3400  147.0530 C   0  0  0  0  0  3  0  0  0  0  0  0
  191.8670  174.5590  143.8320 C   0  0  0  0  0  2  0  0  0  0  0  0
  187.3690  175.5760  143.0510 N   0  0  0  0  0  0  0  0  0  0  0  0
  187.2300  176.2900  144.1390 C   0  0  0  0  0  0  0  0  0  0  0  0
  190.3910  174.3260  141.8010 C   0  0  0  0  0  0  0  0  0  0  0  0
  189.4010  174.4250  143.9330 C   0  0  1  0  0  3  0  0  0  0  0  0
  188.3390  177.2250  146.2360 C   0  0  0  0  0  3  0  0  0  0  0  0
  185.4220  179.5590  144.2530 C   0  0  0  0  0  0  0  0  0  0  0  0
  184.1360  179.1540  144.9130 C   0  0  0  0  0  2  0  0  0  0  0  0
  186.0280  177.1840  144.3040 C   0  0  2  0  0  3  0  0  0  0  0  0
  184.4430  178.2130  146.0790 C   0  0  0  0  0  2  0  0  0  0  0  0
  186.3450  178.6220  143.9900 C   0  0  0  0  0  3  0  0  0  0  0  0
  185.3170  177.0120  145.6640 C   0  0  0  0  0  2  0  0  0  0  0  0
  185.6760  180.8690  143.9970 F   0  0  0  0  0  0  0  0  0  0  0  0
  192.6650  173.7380  140.7440 C   0  0  1  0  0  3  0  0  0  0  0  0
  193.2320  173.8240  139.3460 C   0  0  0  0  0  2  0  0  0  0  0  0
  193.7170  174.7870  140.4140 C   0  0  2  0  0  3  0  0  0  0  0  0
  195.1040  174.3650  140.8330 C   0  0  0  0  0  0  0  0  0  0  0  0
  196.9710  174.2280  142.5000 C   0  0  0  0  0  1  0  0  0  0  0  0
  195.7370  174.8430  142.0370 N   0  0  0  0  0  0  0  0  0  0  0  0
  195.2110  175.9570  142.8090 C   0  0  0  0  0  1  0  0  0  0  0  0
  195.7210  173.5520  140.0910 O   0  0  0  0  0  0  0  0  0  0  0  0
  1 13  1  0  0  0  0
  1 11  2  0  0  0  0
  2  8  2  0  0  0  0
  2  6  1  0  0  0  0
  3 12  2  0  0  0  0
  3  8  1  0  0  0  0
  4 15  1  0  0  0  0
  4 18  1  0  0  0  0
  5 11  1  0  0  0  0
  6  5  2  0  0  0  0
  7 14  1  1  0  0  0
  7 18  1  0  0  0  0
  8  1  1  0  0  0  0
  9 17  1  0  0  0  0
 10 17  2  0  0  0  0
 10  4  1  0  0  0  0
 12 19  1  0  0  0  0
 14  2  1  0  0  0  0
 15 16  2  0  0  0  0
 16 12  1  0  0  0  0
 17  7  1  0  0  0  0
 18  3  1  1  0  0  0
 19 13  2  0  0  0  0
 20 21  1  0  0  0  0
 21 23  1  0  0  0  0
 22 16  1  1  0  0  0
 22 25  1  0  0  0  0
 24 20  2  0  0  0  0
 24 22  1  0  0  0  0
 25 23  1  0  0  0  0
 26 20  1  0  0  0  0
 27  9  1  6  0  0  0
 28 29  1  0  0  0  0
 28 27  1  0  0  0  0
 29 27  1  0  0  0  0
 29 30  1  1  0  0  0
 30 32  1  0  0  0  0
 32 31  1  0  0  0  0
 32 33  1  0  0  0  0
 34 30  2  0  0  0  0
M  END
>  <MODEL>
3

>  <REMARK>
 VINA RESULT:      -8.8      4.707      9.403
  Name = 
  3 active torsions:
  status: ('A' for Active; 'I' for Inactive)
    1  A    between atoms: C_3  and  N_17
    2  A    between atoms: C_12  and  C_28
    3  A    between atoms: C_13  and  C_14
                            x       y       z     vdW  Elec       q    Type
                         _______ _______ _______ _____ _____    ______ ____

>  <TORSDO>
F 3

$$$$
=
 OpenBabel11052418473D

 34 40  0  0  1  0  0  0  0  0999 V2000
  190.5540  173.7250  140.4420 C   0  0  0  0  0  0  0  0  0  0  0  0
  188.5990  174.5330  141.6550 C   0  0  0  0  0  0  0  0  0  0  0  0
  190.7160  174.2370  142.8060 C   0  0  0  0  0  0  0  0  0  0  0  0
  190.8360  175.1550  145.0370 N   0  0  0  0  0  0  0  0  0  0  0  0
  188.4090  173.9680  139.3570 C   0  0  0  0  0  3  0  0  0  0  0  0
  187.8680  174.4510  140.5150 N   0  0  0  0  0  0  0  0  0  0  0  0
  188.8100  175.2650  143.9690 C   0  0  2  0  0  3  0  0  0  0  0  0
  189.9500  174.1270  141.6430 C   0  0  0  0  0  0  0  0  0  0  0  0
  188.1100  177.4580  145.1710 N   0  0  0  0  0  2  0  0  0  0  0  0
  190.1450  176.2780  145.5070 N   0  0  0  0  0  0  0  0  0  0  0  0
  189.7660  173.6120  139.2960 C   0  0  0  0  0  3  0  0  0  0  0  0
  192.1080  174.1400  142.7650 C   0  0  0  0  0  0  0  0  0  0  0  0
  191.9450  173.5230  140.4060 C   0  0  0  0  0  3  0  0  0  0  0  0
  188.1030  175.3050  142.8300 C   0  0  0  0  0  2  0  0  0  0  0  0
  192.2460  175.0970  144.9900 N   0  0  0  0  0  0  0  0  0  0  0  0
  192.8750  174.5770  143.9670 C   0  0  0  0  0  0  0  0  0  0  0  0
  188.9710  176.3340  144.9620 C   0  0  0  0  0  0  0  0  0  0  0  0
  190.0150  174.4040  144.1130 C   0  0  1  0  0  3  0  0  0  0  0  0
  192.7210  173.7600  141.5570 C   0  0  0  0  0  3  0  0  0  0  0  0
  196.2920  174.1900  145.4310 C   0  0  0  0  0  0  0  0  0  0  0  0
  197.1380  174.8120  144.3580 C   0  0  0  0  0  2  0  0  0  0  0  0
  194.3820  174.5600  143.9390 C   0  0  2  0  0  3  0  0  0  0  0  0
  196.4680  176.0990  143.8730 C   0  0  0  0  0  2  0  0  0  0  0  0
  194.9670  174.0970  145.2480 C   0  0  0  0  0  3  0  0  0  0  0  0
  195.0020  175.8840  143.4430 C   0  0  0  0  0  2  0  0  0  0  0  0
  196.8560  173.7960  146.6030 F   0  0  0  0  0  0  0  0  0  0  0  0
  186.7050  177.5450  144.7980 C   0  0  1  0  0  3  0  0  0  0  0  0
  186.0740  178.6360  145.6310 C   0  0  0  0  0  2  0  0  0  0  0  0
  186.3690  178.8880  144.1640 C   0  0  2  0  0  3  0  0  0  0  0  0
  185.0620  178.8600  143.4100 C   0  0  0  0  0  0  0  0  0  0  0  0
  183.6280  178.1370  141.4850 C   0  0  0  0  0  1  0  0  0  0  0  0
  184.9440  178.3470  142.0680 N   0  0  0  0  0  0  0  0  0  0  0  0
  186.1000  178.0560  141.2370 C   0  0  0  0  0  1  0  0  0  0  0  0
  184.0360  179.3020  143.9960 O   0  0  0  0  0  0  0  0  0  0  0  0
  1  8  1  0  0  0  0
  2 14  1  0  0  0  0
  4 10  1  0  0  0  0
  5  6  1  0  0  0  0
  6  2  2  0  0  0  0
  7 14  1  6  0  0  0
  7 18  1  0  0  0  0
  7 17  1  0  0  0  0
  8  2  1  0  0  0  0
  8  3  2  0  0  0  0
 11  5  2  0  0  0  0
 11  1  1  0  0  0  0
 12  3  1  0  0  0  0
 12 16  1  0  0  0  0
 13  1  2  0  0  0  0
 13 19  1  0  0  0  0
 15  4  1  0  0  0  0
 16 15  2  0  0  0  0
 17  9  1  0  0  0  0
 17 10  2  0  0  0  0
 18  3  1  6  0  0  0
 18  4  1  0  0  0  0
 19 12  2  0  0  0  0
 20 26  1  0  0  0  0
 21 20  1  0  0  0  0
 22 16  1  1  0  0  0
 22 24  1  0  0  0  0
 23 21  1  0  0  0  0
 24 20  2  0  0  0  0
 25 23  1  0  0  0  0
 25 22  1  0  0  0  0
 27  9  1  1  0  0  0
 27 28  1  0  0  0  0
 29 30  1  6  0  0  0
 29 27  1  0  0  0  0
 29 28  1  0  0  0  0
 30 34  2  0  0  0  0
 31 32  1  0  0  0  0
 32 30  1  0  0  0  0
 33 32  1  0  0  0  0
M  END
>  <MODEL>
4

>  <REMARK>
 VINA RESULT:      -8.7      2.923      6.324
  Name = 
  3 active torsions:
  status: ('A' for Active; 'I' for Inactive)
    1  A    between atoms: C_3  and  N_17
    2  A    between atoms: C_12  and  C_28
    3  A    between atoms: C_13  and  C_14
                            x       y       z     vdW  Elec       q    Type
                         _______ _______ _______ _____ _____    ______ ____

>  <TORSDO>
F 3

$$$$
=
 OpenBabel11052418473D

 34 40  0  0  1  0  0  0  0  0999 V2000
  191.5430  176.6770  144.6800 C   0  0  0  0  0  0  0  0  0  0  0  0
  192.0190  174.9400  143.0360 C   0  0  0  0  0  0  0  0  0  0  0  0
  189.7250  175.5540  143.5360 C   0  0  0  0  0  0  0  0  0  0  0  0
  188.0480  174.6490  142.0510 N   0  0  0  0  0  0  0  0  0  0  0  0
  193.8070  175.9820  144.2000 C   0  0  0  0  0  3  0  0  0  0  0  0
  193.3480  175.1060  143.2590 N   0  0  0  0  0  0  0  0  0  0  0  0
  190.2130  173.9700  141.7210 C   0  0  2  0  0  3  0  0  0  0  0  0
  191.0930  175.6990  143.7810 C   0  0  0  0  0  0  0  0  0  0  0  0
  189.8980  173.6570  139.1620 N   0  0  0  0  0  2  0  0  0  0  0  0
  188.2190  174.3520  140.6940 N   0  0  0  0  0  0  0  0  0  0  0  0
  192.9140  176.7950  144.9160 C   0  0  0  0  0  3  0  0  0  0  0  0
  188.8030  176.4840  144.0190 C   0  0  0  0  0  0  0  0  0  0  0  0
  190.6150  177.5610  145.2560 C   0  0  0  0  0  3  0  0  0  0  0  0
  191.5290  174.2010  141.8380 C   0  0  0  0  0  2  0  0  0  0  0  0
  187.1200  175.6110  142.5050 N   0  0  0  0  0  0  0  0  0  0  0  0
  187.4190  176.4500  143.4640 C   0  0  0  0  0  0  0  0  0  0  0  0
  189.4190  173.9100  140.4870 C   0  0  0  0  0  0  0  0  0  0  0  0
  189.2530  174.3490  142.7930 C   0  0  1  0  0  3  0  0  0  0  0  0
  189.2530  177.4820  144.9030 C   0  0  0  0  0  3  0  0  0  0  0  0
  184.6900  177.8340  145.6120 C   0  0  0  0  0  0  0  0  0  0  0  0
  184.2020  178.9690  144.7610 C   0  0  0  0  0  2  0  0  0  0  0  0
  186.4120  177.4830  143.9020 C   0  0  2  0  0  3  0  0  0  0  0  0
  184.1040  178.5030  143.3070 C   0  0  0  0  0  2  0  0  0  0  0  0
  185.7290  177.0980  145.1870 C   0  0  0  0  0  3  0  0  0  0  0  0
  185.4150  177.8780  142.7900 C   0  0  0  0  0  2  0  0  0  0  0  0
  184.0390  177.5100  146.7590 F   0  0  0  0  0  0  0  0  0  0  0  0
  191.1320  172.9660  138.8110 C   0  0  1  0  0  3  0  0  0  0  0  0
  191.1110  172.7180  137.3210 C   0  0  0  0  0  2  0  0  0  0  0  0
  192.0070  173.8030  137.8890 C   0  0  2  0  0  3  0  0  0  0  0  0
  193.4320  173.3100  137.8400 C   0  0  0  0  0  0  0  0  0  0  0  0
  195.7590  173.1610  138.7620 C   0  0  0  0  0  1  0  0  0  0  0  0
  194.4690  173.8300  138.6970 N   0  0  0  0  0  0  0  0  0  0  0  0
  194.2980  175.0370  139.4890 C   0  0  0  0  0  1  0  0  0  0  0  0
  193.7110  172.3980  137.0150 O   0  0  0  0  0  0  0  0  0  0  0  0
  1 11  1  0  0  0  0
  1 13  1  0  0  0  0
  2  6  2  0  0  0  0
  2  8  1  0  0  0  0
  3  8  1  0  0  0  0
  3 12  2  0  0  0  0
  4 15  1  0  0  0  0
  4 18  1  0  0  0  0
  5 11  2  0  0  0  0
  6  5  1  0  0  0  0
  7 14  1  6  0  0  0
  7 18  1  0  0  0  0
  8  1  2  0  0  0  0
  9 17  1  0  0  0  0
 10  4  1  0  0  0  0
 12 19  1  0  0  0  0
 14  2  1  0  0  0  0
 15 16  2  0  0  0  0
 16 12  1  0  0  0  0
 17 10  2  0  0  0  0
 17  7  1  0  0  0  0
 18  3  1  6  0  0  0
 19 13  2  0  0  0  0
 20 26  1  0  0  0  0
 21 20  1  0  0  0  0
 22 16  1  6  0  0  0
 22 24  1  0  0  0  0
 23 21  1  0  0  0  0
 24 20  2  0  0  0  0
 25 23  1  0  0  0  0
 25 22  1  0  0  0  0
 27  9  1  6  0  0  0
 28 29  1  0  0  0  0
 28 27  1  0  0  0  0
 29 30  1  1  0  0  0
 29 27  1  0  0  0  0
 30 32  1  0  0  0  0
 32 31  1  0  0  0  0
 32 33  1  0  0  0  0
 34 30  2  0  0  0  0
M  END
>  <MODEL>
5

>  <REMARK>
 VINA RESULT:      -8.6      4.455      9.248
  Name = 
  3 active torsions:
  status: ('A' for Active; 'I' for Inactive)
    1  A    between atoms: C_3  and  N_17
    2  A    between atoms: C_12  and  C_28
    3  A    between atoms: C_13  and  C_14
                            x       y       z     vdW  Elec       q    Type
                         _______ _______ _______ _____ _____    ______ ____

>  <TORSDO>
F 3

$$$$
=
 OpenBabel11052418473D

 34 40  0  0  1  0  0  0  0  0999 V2000
  191.0900  176.2650  146.2080 C   0  0  0  0  0  0  0  0  0  0  0  0
  191.8910  174.6270  144.5890 C   0  0  0  0  0  0  0  0  0  0  0  0
  189.5790  175.3620  144.5420 C   0  0  0  0  0  0  0  0  0  0  0  0
  188.3020  174.6920  142.6030 N   0  0  0  0  0  0  0  0  0  0  0  0
  193.3640  175.4500  146.2590 C   0  0  0  0  0  3  0  0  0  0  0  0
  193.1230  174.6810  145.1560 N   0  0  0  0  0  0  0  0  0  0  0  0
  190.4440  173.8890  142.7740 C   0  0  2  0  0  3  0  0  0  0  0  0
  190.8410  175.3910  145.1390 C   0  0  0  0  0  0  0  0  0  0  0  0
  190.7890  173.7910  140.2030 N   0  0  0  0  0  2  0  0  0  0  0  0
  188.8060  174.4860  141.3130 N   0  0  0  0  0  0  0  0  0  0  0  0
  192.3560  176.2680  146.7950 C   0  0  0  0  0  3  0  0  0  0  0  0
  188.6100  176.3170  144.8560 C   0  0  0  0  0  0  0  0  0  0  0  0
  190.0880  177.1670  146.6060 C   0  0  0  0  0  3  0  0  0  0  0  0
  191.6940  174.0170  143.2440 C   0  0  0  0  0  2  0  0  0  0  0  0
  187.3370  175.6810  142.8910 N   0  0  0  0  0  0  0  0  0  0  0  0
  187.4170  176.4230  143.9660 C   0  0  0  0  0  0  0  0  0  0  0  0
  189.9950  173.9770  141.3790 C   0  0  0  0  0  0  0  0  0  0  0  0
  189.2580  174.2530  143.5960 C   0  0  1  0  0  3  0  0  0  0  0  0
  188.8630  177.2120  145.9120 C   0  0  0  0  0  3  0  0  0  0  0  0
  184.5430  177.9980  145.7620 C   0  0  0  0  0  0  0  0  0  0  0  0
  184.1190  179.0410  144.7690 C   0  0  0  0  0  2  0  0  0  0  0  0
  186.3830  177.4880  144.2250 C   0  0  2  0  0  3  0  0  0  0  0  0
  184.1250  178.4310  143.3660 C   0  0  0  0  0  2  0  0  0  0  0  0
  185.6080  177.2290  145.4900 C   0  0  0  0  0  3  0  0  0  0  0  0
  185.4700  177.7640  143.0100 C   0  0  0  0  0  2  0  0  0  0  0  0
  183.8100  177.7870  146.8860 F   0  0  0  0  0  0  0  0  0  0  0  0
  192.0360  173.0430  140.1160 C   0  0  1  0  0  3  0  0  0  0  0  0
  192.4490  173.0050  138.6630 C   0  0  0  0  0  2  0  0  0  0  0  0
  193.1860  173.9140  139.6300 C   0  0  2  0  0  3  0  0  0  0  0  0
  194.5350  173.3010  139.9150 C   0  0  0  0  0  0  0  0  0  0  0  0
  196.5050  172.8740  141.4060 C   0  0  0  0  0  1  0  0  0  0  0  0
  195.3280  173.6590  141.0650 N   0  0  0  0  0  0  0  0  0  0  0  0
  195.0260  174.8110  141.8970 C   0  0  0  0  0  1  0  0  0  0  0  0
  194.9710  172.4340  139.1090 O   0  0  0  0  0  0  0  0  0  0  0  0
  1 13  1  0  0  0  0
  1 11  2  0  0  0  0
  2  8  2  0  0  0  0
  2  6  1  0  0  0  0
  3 12  2  0  0  0  0
  3  8  1  0  0  0  0
  4 15  1  0  0  0  0
  4 18  1  0  0  0  0
  5 11  1  0  0  0  0
  6  5  2  0  0  0  0
  7 14  1  6  0  0  0
  7 18  1  0  0  0  0
  8  1  1  0  0  0  0
  9 17  1  0  0  0  0
 10 17  2  0  0  0  0
 10  4  1  0  0  0  0
 12 19  1  0  0  0  0
 14  2  1  0  0  0  0
 15 16  2  0  0  0  0
 16 12  1  0  0  0  0
 17  7  1  0  0  0  0
 18  3  1  1  0  0  0
 19 13  2  0  0  0  0
 20 26  1  0  0  0  0
 21 20  1  0  0  0  0
 22 16  1  6  0  0  0
 22 24  1  0  0  0  0
 23 21  1  0  0  0  0
 24 20  2  0  0  0  0
 25 23  1  0  0  0  0
 25 22  1  0  0  0  0
 27  9  1  6  0  0  0
 28 29  1  0  0  0  0
 28 27  1  0  0  0  0
 29 30  1  1  0  0  0
 29 27  1  0  0  0  0
 30 32  1  0  0  0  0
 32 31  1  0  0  0  0
 32 33  1  0  0  0  0
 34 30  2  0  0  0  0
M  END
>  <MODEL>
6

>  <REMARK>
 VINA RESULT:      -8.5      4.571      9.443
  Name = 
  3 active torsions:
  status: ('A' for Active; 'I' for Inactive)
    1  A    between atoms: C_3  and  N_17
    2  A    between atoms: C_12  and  C_28
    3  A    between atoms: C_13  and  C_14
                            x       y       z     vdW  Elec       q    Type
                         _______ _______ _______ _____ _____    ______ ____

>  <TORSDO>
F 3

$$$$
=
 OpenBabel11052418473D

 34 40  0  0  1  0  0  0  0  0999 V2000
  191.2600  176.3110  145.3800 C   0  0  0  0  0  0  0  0  0  0  0  0
  191.7750  174.6160  143.7040 C   0  0  0  0  0  0  0  0  0  0  0  0
  189.4900  175.3730  144.0150 C   0  0  0  0  0  0  0  0  0  0  0  0
  187.9090  174.6570  142.3350 N   0  0  0  0  0  0  0  0  0  0  0  0
  193.5070  175.4750  145.0830 C   0  0  0  0  0  3  0  0  0  0  0  0
  193.0840  174.6750  144.0590 N   0  0  0  0  0  0  0  0  0  0  0  0
  190.0450  173.8380  142.1770 C   0  0  2  0  0  3  0  0  0  0  0  0
  190.8340  175.4080  144.3950 C   0  0  0  0  0  0  0  0  0  0  0  0
  189.9610  173.6590  139.5880 N   0  0  0  0  0  2  0  0  0  0  0  0
  188.1920  174.4070  140.9870 N   0  0  0  0  0  0  0  0  0  0  0  0
  192.6060  176.3190  145.7500 C   0  0  0  0  0  3  0  0  0  0  0  0
  188.5910  176.3460  144.4540 C   0  0  0  0  0  0  0  0  0  0  0  0
  190.3420  177.2340  145.9090 C   0  0  0  0  0  3  0  0  0  0  0  0
  191.3560  173.9680  142.4300 C   0  0  0  0  0  2  0  0  0  0  0  0
  187.0080  175.6640  142.7460 N   0  0  0  0  0  0  0  0  0  0  0  0
  187.2690  176.4370  143.7700 C   0  0  0  0  0  0  0  0  0  0  0  0
  189.3730  173.8890  140.8730 C   0  0  0  0  0  0  0  0  0  0  0  0
  189.0130  174.2390  143.1710 C   0  0  1  0  0  3  0  0  0  0  0  0
  189.0200  177.2700  145.4250 C   0  0  0  0  0  3  0  0  0  0  0  0
  184.5070  177.9540  145.7800 C   0  0  0  0  0  0  0  0  0  0  0  0
  184.1260  179.1190  144.9130 C   0  0  0  0  0  2  0  0  0  0  0  0
  186.2960  177.5200  144.1610 C   0  0  2  0  0  3  0  0  0  0  0  0
  184.0810  178.6660  143.4520 C   0  0  0  0  0  2  0  0  0  0  0  0
  185.5260  177.1660  145.4060 C   0  0  0  0  0  3  0  0  0  0  0  0
  185.3830  177.9730  143.0010 C   0  0  0  0  0  2  0  0  0  0  0  0
  183.7780  177.6610  146.8880 F   0  0  0  0  0  0  0  0  0  0  0  0
  191.1730  172.8960  139.3210 C   0  0  1  0  0  3  0  0  0  0  0  0
  190.8190  171.4290  139.3930 C   0  0  0  0  0  2  0  0  0  0  0  0
  191.0580  172.0790  138.0420 C   0  0  2  0  0  3  0  0  0  0  0  0
  192.4000  171.6170  137.5290 C   0  0  0  0  0  0  0  0  0  0  0  0
  194.5810  172.0110  136.3570 C   0  0  0  0  0  1  0  0  0  0  0  0
  193.2080  172.4050  136.6320 N   0  0  0  0  0  0  0  0  0  0  0  0
  192.6950  173.5780  135.9430 C   0  0  0  0  0  1  0  0  0  0  0  0
  192.8240  170.4940  137.9170 O   0  0  0  0  0  0  0  0  0  0  0  0
  1 11  1  0  0  0  0
  1 13  1  0  0  0  0
  2  6  2  0  0  0  0
  2  8  1  0  0  0  0
  3  8  1  0  0  0  0
  3 12  2  0  0  0  0
  4 15  1  0  0  0  0
  4 18  1  0  0  0  0
  5 11  2  0  0  0  0
  6  5  1  0  0  0  0
  7 14  1  6  0  0  0
  7 18  1  0  0  0  0
  8  1  2  0  0  0  0
  9 17  1  0  0  0  0
 10  4  1  0  0  0  0
 12 19  1  0  0  0  0
 14  2  1  0  0  0  0
 15 16  2  0  0  0  0
 16 12  1  0  0  0  0
 17 10  2  0  0  0  0
 17  7  1  0  0  0  0
 18  3  1  6  0  0  0
 19 13  2  0  0  0  0
 20 26  1  0  0  0  0
 21 20  1  0  0  0  0
 22 16  1  6  0  0  0
 22 24  1  0  0  0  0
 23 21  1  0  0  0  0
 24 20  2  0  0  0  0
 25 23  1  0  0  0  0
 25 22  1  0  0  0  0
 27 28  1  0  0  0  0
 27  9  1  6  0  0  0
 29 30  1  1  0  0  0
 29 27  1  0  0  0  0
 29 28  1  0  0  0  0
 30 34  2  0  0  0  0
 31 32  1  0  0  0  0
 32 30  1  0  0  0  0
 33 32  1  0  0  0  0
M  END
>  <MODEL>
7

>  <REMARK>
 VINA RESULT:      -8.4      4.490      9.197
  Name = 
  3 active torsions:
  status: ('A' for Active; 'I' for Inactive)
    1  A    between atoms: C_3  and  N_17
    2  A    between atoms: C_12  and  C_28
    3  A    between atoms: C_13  and  C_14
                            x       y       z     vdW  Elec       q    Type
                         _______ _______ _______ _____ _____    ______ ____

>  <TORSDO>
F 3

$$$$
=
 OpenBabel11052418473D

 34 40  0  0  1  0  0  0  0  0999 V2000
  192.2150  174.6240  145.5930 C   0  0  0  0  0  0  0  0  0  0  0  0
  190.5040  176.3260  145.2420 C   0  0  0  0  0  0  0  0  0  0  0  0
  191.0540  174.7620  143.4700 C   0  0  0  0  0  0  0  0  0  0  0  0
  189.5590  174.7560  141.5720 N   0  0  0  0  0  0  0  0  0  0  0  0
  191.6830  176.2480  147.3020 C   0  0  0  0  0  3  0  0  0  0  0  0
  190.7160  176.7860  146.5010 N   0  0  0  0  0  0  0  0  0  0  0  0
  189.1770  176.3260  143.2000 C   0  0  2  0  0  3  0  0  0  0  0  0
  191.2870  175.2590  144.7540 C   0  0  0  0  0  0  0  0  0  0  0  0
  186.6130  176.3660  142.7910 N   0  0  0  0  0  2  0  0  0  0  0  0
  188.1890  175.0470  141.5980 N   0  0  0  0  0  0  0  0  0  0  0  0
  192.4380  175.1470  146.8680 C   0  0  0  0  0  3  0  0  0  0  0  0
  191.5810  173.5350  143.0640 C   0  0  0  0  0  0  0  0  0  0  0  0
  192.8340  173.4390  145.1600 C   0  0  0  0  0  3  0  0  0  0  0  0
  189.2860  176.7180  144.4780 C   0  0  0  0  0  2  0  0  0  0  0  0
  190.0590  173.4960  141.1760 N   0  0  0  0  0  0  0  0  0  0  0  0
  191.0430  172.9190  141.8170 C   0  0  0  0  0  0  0  0  0  0  0  0
  187.9520  175.9750  142.4710 C   0  0  0  0  0  0  0  0  0  0  0  0
  190.2740  175.5960  142.5090 C   0  0  1  0  0  3  0  0  0  0  0  0
  192.4950  172.8820  143.9120 C   0  0  0  0  0  3  0  0  0  0  0  0
  191.8950  170.2510  139.3430 C   0  0  0  0  0  0  0  0  0  0  0  0
  191.9990  169.0500  140.2380 C   0  0  0  0  0  2  0  0  0  0  0  0
  191.5300  171.5610  141.3820 C   0  0  2  0  0  3  0  0  0  0  0  0
  190.8410  169.0650  141.2380 C   0  0  0  0  0  2  0  0  0  0  0  0
  191.6370  171.4500  139.8840 C   0  0  0  0  0  3  0  0  0  0  0  0
  190.7380  170.3950  142.0130 C   0  0  0  0  0  2  0  0  0  0  0  0
  191.9840  170.1070  137.9950 F   0  0  0  0  0  0  0  0  0  0  0  0
  186.2210  177.5250  143.5810 C   0  0  1  0  0  3  0  0  0  0  0  0
  184.7550  177.7820  143.3260 C   0  0  0  0  0  2  0  0  0  0  0  0
  185.1910  177.1660  144.6430 C   0  0  2  0  0  3  0  0  0  0  0  0
  185.0760  178.2200  145.7160 C   0  0  0  0  0  0  0  0  0  0  0  0
  185.9410  179.4360  147.7310 C   0  0  0  0  0  1  0  0  0  0  0  0
  185.9560  178.2720  146.8570 N   0  0  0  0  0  0  0  0  0  0  0  0
  186.8500  177.1810  147.2080 C   0  0  0  0  0  1  0  0  0  0  0  0
  184.1710  179.0900  145.5930 O   0  0  0  0  0  0  0  0  0  0  0  0
  1 11  2  0  0  0  0
  2  6  1  0  0  0  0
  3  8  1  0  0  0  0
  4 10  1  0  0  0  0
  4 18  1  0  0  0  0
  6  5  2  0  0  0  0
  7 14  1  1  0  0  0
  8  2  2  0  0  0  0
  8  1  1  0  0  0  0
 10 17  2  0  0  0  0
 11  5  1  0  0  0  0
 12  3  2  0  0  0  0
 12 19  1  0  0  0  0
 13  1  1  0  0  0  0
 14  2  1  0  0  0  0
 15  4  1  0  0  0  0
 15 16  2  0  0  0  0
 16 12  1  0  0  0  0
 17  9  1  0  0  0  0
 17  7  1  0  0  0  0
 18  7  1  0  0  0  0
 18  3  1  1  0  0  0
 19 13  2  0  0  0  0
 20 24  2  0  0  0  0
 20 21  1  0  0  0  0
 21 23  1  0  0  0  0
 22 16  1  6  0  0  0
 22 25  1  0  0  0  0
 23 25  1  0  0  0  0
 24 22  1  0  0  0  0
 26 20  1  0  0  0  0
 27  9  1  6  0  0  0
 27 29  1  0  0  0  0
 28 27  1  0  0  0  0
 28 29  1  0  0  0  0
 29 30  1  1  0  0  0
 30 32  1  0  0  0  0
 32 33  1  0  0  0  0
 32 31  1  0  0  0  0
 34 30  2  0  0  0  0
M  END
>  <MODEL>
8

>  <REMARK>
 VINA RESULT:      -8.2      3.314      5.826
  Name = 
  3 active torsions:
  status: ('A' for Active; 'I' for Inactive)
    1  A    between atoms: C_3  and  N_17
    2  A    between atoms: C_12  and  C_28
    3  A    between atoms: C_13  and  C_14
                            x       y       z     vdW  Elec       q    Type
                         _______ _______ _______ _____ _____    ______ ____

>  <TORSDO>
F 3

$$$$
=
 OpenBabel11052418473D

 34 40  0  0  1  0  0  0  0  0999 V2000
  189.6520  176.8020  146.4260 C   0  0  0  0  0  0  0  0  0  0  0  0
  191.2480  175.0400  145.8810 C   0  0  0  0  0  0  0  0  0  0  0  0
  189.4090  175.5310  144.3760 C   0  0  0  0  0  0  0  0  0  0  0  0
  189.5160  174.4750  142.2060 N   0  0  0  0  0  0  0  0  0  0  0  0
  191.4570  176.2280  147.9270 C   0  0  0  0  0  3  0  0  0  0  0  0
  191.9090  175.2930  147.0390 N   0  0  0  0  0  0  0  0  0  0  0  0
  191.1440  173.9180  143.7220 C   0  0  2  0  0  3  0  0  0  0  0  0
  190.0780  175.7670  145.5800 C   0  0  0  0  0  0  0  0  0  0  0  0
  192.9370  173.4970  141.8920 N   0  0  0  0  0  2  0  0  0  0  0  0
  190.6820  174.1420  141.5060 N   0  0  0  0  0  0  0  0  0  0  0  0
  190.3300  177.0100  147.6280 C   0  0  0  0  0  3  0  0  0  0  0  0
  188.4430  176.4200  143.9010 C   0  0  0  0  0  0  0  0  0  0  0  0
  188.6100  177.6470  146.0080 C   0  0  0  0  0  3  0  0  0  0  0  0
  191.8780  174.2320  144.8000 C   0  0  0  0  0  2  0  0  0  0  0  0
  188.5690  175.3950  141.7060 N   0  0  0  0  0  0  0  0  0  0  0  0
  188.0030  176.2840  142.4820 C   0  0  0  0  0  0  0  0  0  0  0  0
  191.6030  173.7670  142.3360 C   0  0  0  0  0  0  0  0  0  0  0  0
  189.7020  174.2750  143.6260 C   0  0  1  0  0  3  0  0  0  0  0  0
  188.0290  177.4740  144.7370 C   0  0  0  0  0  3  0  0  0  0  0  0
  184.6670  177.9290  142.1200 C   0  0  0  0  0  0  0  0  0  0  0  0
  184.8470  178.6640  140.8230 C   0  0  0  0  0  2  0  0  0  0  0  0
  187.0180  177.2680  141.9070 C   0  0  2  0  0  3  0  0  0  0  0  0
  185.5540  177.7500  139.8210 C   0  0  0  0  0  2  0  0  0  0  0  0
  185.6950  177.2320  142.6250 C   0  0  0  0  0  3  0  0  0  0  0  0
  186.8680  177.1600  140.3730 C   0  0  0  0  0  2  0  0  0  0  0  0
  183.4540  177.9100  142.7310 F   0  0  0  0  0  0  0  0  0  0  0  0
  193.9940  172.8700  142.6740 C   0  0  1  0  0  3  0  0  0  0  0  0
  195.1140  172.5090  141.7270 C   0  0  0  0  0  2  0  0  0  0  0  0
  195.2730  173.6950  142.6610 C   0  0  2  0  0  3  0  0  0  0  0  0
  196.2250  173.3000  143.7630 C   0  0  0  0  0  0  0  0  0  0  0  0
  196.9870  173.3330  146.1520 C   0  0  0  0  0  1  0  0  0  0  0  0
  196.2030  173.9090  145.0700 N   0  0  0  0  0  0  0  0  0  0  0  0
  195.4500  175.1190  145.3580 C   0  0  0  0  0  1  0  0  0  0  0  0
  197.0660  172.3930  143.5180 O   0  0  0  0  0  0  0  0  0  0  0  0
  1 11  2  0  0  0  0
  2  6  1  0  0  0  0
  3  8  1  0  0  0  0
  4 18  1  0  0  0  0
  6  5  2  0  0  0  0
  7 14  1  6  0  0  0
  8  2  2  0  0  0  0
  8  1  1  0  0  0  0
  9 17  1  0  0  0  0
 10  4  1  0  0  0  0
 10 17  2  0  0  0  0
 11  5  1  0  0  0  0
 12  3  2  0  0  0  0
 12 19  1  0  0  0  0
 13  1  1  0  0  0  0
 14  2  1  0  0  0  0
 15  4  1  0  0  0  0
 15 16  2  0  0  0  0
 16 12  1  0  0  0  0
 17  7  1  0  0  0  0
 18  7  1  0  0  0  0
 18  3  1  1  0  0  0
 19 13  2  0  0  0  0
 20 24  2  0  0  0  0
 20 26  1  0  0  0  0
 21 20  1  0  0  0  0
 22 16  1  1  0  0  0
 22 24  1  0  0  0  0
 23 25  1  0  0  0  0
 23 21  1  0  0  0  0
 25 22  1  0  0  0  0
 27  9  1  6  0  0  0
 28 29  1  0  0  0  0
 28 27  1  0  0  0  0
 29 27  1  0  0  0  0
 29 30  1  1  0  0  0
 30 32  1  0  0  0  0
 32 33  1  0  0  0  0
 32 31  1  0  0  0  0
 34 30  2  0  0  0  0
M  END
>  <MODEL>
9

>  <REMARK>
 VINA RESULT:      -8.1      4.993      9.790
  Name = 
  3 active torsions:
  status: ('A' for Active; 'I' for Inactive)
    1  A    between atoms: C_3  and  N_17
    2  A    between atoms: C_12  and  C_28
    3  A    between atoms: C_13  and  C_14
                            x       y       z     vdW  Elec       q    Type
                         _______ _______ _______ _____ _____    ______ ____

>  <TORSDO>
F 3

$$$$
