=
 OpenBabel11052417373D

 25 28  0  0  1  0  0  0  0  0999 V2000
  186.3840  176.5590  143.3520 C   0  0  1  0  0  3  0  0  0  0  0  0
  187.8750  176.1790  143.4030 C   0  0  2  0  0  3  0  0  0  0  0  0
  187.1050  178.6070  141.9270 C   0  0  0  0  0  2  0  0  0  0  0  0
  185.7720  177.1680  144.5730 C   0  0  0  0  0  0  0  0  0  0  0  0
  189.6390  174.7730  144.4720 C   0  0  1  0  0  3  0  0  0  0  0  0
  184.1740  178.4570  146.4450 C   0  0  0  0  0  3  0  0  0  0  0  0
  188.5060  178.0150  141.9220 C   0  0  0  0  0  2  0  0  0  0  0  0
  184.8830  178.1310  144.1760 C   0  0  0  0  0  0  0  0  0  0  0  0
  184.0690  178.8010  145.0870 C   0  0  0  0  0  3  0  0  0  0  0  0
  190.2070  177.0430  143.4120 N   0  0  0  0  0  0  0  0  0  0  0  0
  191.1980  178.0830  143.1660 C   0  0  0  0  0  1  0  0  0  0  0  0
  188.2310  175.3360  144.6140 C   0  0  0  0  0  2  0  0  0  0  0  0
  185.0690  177.4500  146.8570 C   0  0  0  0  0  3  0  0  0  0  0  0
  186.0000  177.5840  142.2380 C   0  0  2  0  0  3  0  0  0  0  0  0
  184.9180  178.3210  142.8070 O   0  0  0  0  0  0  0  0  0  0  0  0
  190.6380  175.8150  144.0300 C   0  0  0  0  0  0  0  0  0  0  0  0
  185.8680  176.7830  145.9140 C   0  0  0  0  0  3  0  0  0  0  0  0
  191.8710  175.5690  144.1440 O   0  0  0  0  0  0  0  0  0  0  0  0
  188.7860  177.3960  143.2830 C   0  0  2  0  0  3  0  0  0  0  0  0
  190.0720  174.0480  145.7500 C   0  0  0  0  0  2  0  0  0  0  0  0
  189.7970  174.8570  147.0130 C   0  0  0  0  0  2  0  0  0  0  0  0
  191.3600  175.3360  147.8090 S   0  0  0  0  0  0  0  0  0  0  0  0
  190.8520  177.0420  147.9480 C   0  0  0  0  0  0  0  0  0  0  0  0
  191.3680  177.8390  148.9610 O   0  0  0  0  0  1  0  0  0  0  0  0
  190.0220  177.5200  147.1320 O   0  0  0  0  0  0  0  0  0  0  0  0
  1  2  1  0  0  0  0
  1  4  1  1  0  0  0
  2 12  1  1  0  0  0
  4 17  1  0  0  0  0
  5 12  1  0  0  0  0
  5 20  1  1  0  0  0
  6 13  1  0  0  0  0
  7  3  1  0  0  0  0
  8  4  2  0  0  0  0
  8  9  1  0  0  0  0
  9  6  2  0  0  0  0
 10 16  1  0  0  0  0
 11 10  1  0  0  0  0
 14  3  1  1  0  0  0
 14 15  1  0  0  0  0
 14  1  1  0  0  0  0
 15  8  1  0  0  0  0
 16 18  2  0  0  0  0
 16  5  1  0  0  0  0
 17 13  2  0  0  0  0
 19  7  1  6  0  0  0
 19  2  1  0  0  0  0
 19 10  1  0  0  0  0
 20 21  1  0  0  0  0
 21 22  1  0  0  0  0
 22 23  1  0  0  0  0
 23 24  1  0  0  0  0
 25 23  2  0  0  0  0
M  END
>  <MODEL>
1

>  <REMARK>
 VINA RESULT:      -7.4      0.000      0.000
  Name = 
  4 active torsions:
  status: ('A' for Active; 'I' for Inactive)
    1  A    between atoms: C_2  and  S_21
    2  A    between atoms: C_6  and  C_15
    3  A    between atoms: C_15  and  C_25
    4  A    between atoms: S_21  and  C_25
                            x       y       z     vdW  Elec       q    Type
                         _______ _______ _______ _____ _____    ______ ____

>  <TORSDO>
F 4

$$$$
=
 OpenBabel11052417373D

 25 28  0  0  1  0  0  0  0  0999 V2000
  186.8680  178.5150  145.0090 C   0  0  1  0  0  3  0  0  0  0  0  0
  188.1400  177.8280  145.5390 C   0  0  2  0  0  3  0  0  0  0  0  0
  185.5360  176.9220  146.5690 C   0  0  0  0  0  2  0  0  0  0  0  0
  186.3940  178.1550  143.6380 C   0  0  0  0  0  0  0  0  0  0  0  0
  190.5920  177.4580  145.2480 C   0  0  1  0  0  3  0  0  0  0  0  0
  184.9820  177.7650  141.2770 C   0  0  0  0  0  3  0  0  0  0  0  0
  186.8760  176.4610  147.1190 C   0  0  0  0  0  2  0  0  0  0  0  0
  185.0260  178.1210  143.6500 C   0  0  0  0  0  0  0  0  0  0  0  0
  184.2840  177.9230  142.4860 C   0  0  0  0  0  3  0  0  0  0  0  0
  189.1100  175.7100  146.4090 N   0  0  0  0  0  0  0  0  0  0  0  0
  188.9890  174.3830  146.9980 C   0  0  0  0  0  1  0  0  0  0  0  0
  189.3060  177.9100  144.5700 C   0  0  0  0  0  2  0  0  0  0  0  0
  186.3900  177.8240  141.2550 C   0  0  0  0  0  3  0  0  0  0  0  0
  185.5870  178.2940  145.8760 C   0  0  2  0  0  3  0  0  0  0  0  0
  184.5230  178.3040  144.9240 O   0  0  0  0  0  0  0  0  0  0  0  0
  190.4190  176.1730  146.0220 C   0  0  0  0  0  0  0  0  0  0  0  0
  187.1090  178.0370  142.4420 C   0  0  0  0  0  3  0  0  0  0  0  0
  191.4440  175.5370  146.3920 O   0  0  0  0  0  0  0  0  0  0  0  0
  187.8810  176.3910  145.9790 C   0  0  2  0  0  3  0  0  0  0  0  0
  191.7470  177.3890  144.2440 C   0  0  0  0  0  2  0  0  0  0  0  0
  191.2930  176.9850  142.8460 C   0  0  0  0  0  2  0  0  0  0  0  0
  191.6850  175.2370  142.5350 S   0  0  0  0  0  0  0  0  0  0  0  0
  189.9610  174.7720  142.5510 C   0  0  0  0  0  0  0  0  0  0  0  0
  189.4970  173.8640  143.4930 O   0  0  0  0  0  1  0  0  0  0  0  0
  189.1690  175.2620  141.7050 O   0  0  0  0  0  0  0  0  0  0  0  0
  1  4  1  6  0  0  0
  1  2  1  0  0  0  0
  1 14  1  0  0  0  0
  2 12  1  6  0  0  0
  2 19  1  0  0  0  0
  3  7  1  0  0  0  0
  4  8  1  0  0  0  0
  5 20  1  6  0  0  0
  5 16  1  0  0  0  0
  6  9  1  0  0  0  0
  8 15  1  0  0  0  0
  9  8  2  0  0  0  0
 10 11  1  0  0  0  0
 12  5  1  0  0  0  0
 13  6  2  0  0  0  0
 13 17  1  0  0  0  0
 14  3  1  6  0  0  0
 15 14  1  0  0  0  0
 16 18  2  0  0  0  0
 16 10  1  0  0  0  0
 17  4  2  0  0  0  0
 19 10  1  0  0  0  0
 19  7  1  1  0  0  0
 21 20  1  0  0  0  0
 22 23  1  0  0  0  0
 22 21  1  0  0  0  0
 23 24  1  0  0  0  0
 25 23  2  0  0  0  0
M  END
>  <MODEL>
2

>  <REMARK>
 VINA RESULT:      -7.2      2.153      4.224
  Name = 
  4 active torsions:
  status: ('A' for Active; 'I' for Inactive)
    1  A    between atoms: C_2  and  S_21
    2  A    between atoms: C_6  and  C_15
    3  A    between atoms: C_15  and  C_25
    4  A    between atoms: S_21  and  C_25
                            x       y       z     vdW  Elec       q    Type
                         _______ _______ _______ _____ _____    ______ ____

>  <TORSDO>
F 4

$$$$
=
 OpenBabel11052417373D

 25 28  0  0  1  0  0  0  0  0999 V2000
  186.8540  178.5390  144.9980 C   0  0  1  0  0  3  0  0  0  0  0  0
  188.1320  177.8580  145.5210 C   0  0  2  0  0  3  0  0  0  0  0  0
  185.5350  176.9130  146.5340 C   0  0  0  0  0  2  0  0  0  0  0  0
  186.3870  178.1930  143.6210 C   0  0  0  0  0  0  0  0  0  0  0  0
  190.5880  177.5150  145.2310 C   0  0  1  0  0  3  0  0  0  0  0  0
  184.9840  177.8200  141.2520 C   0  0  0  0  0  3  0  0  0  0  0  0
  186.8790  176.4590  147.0810 C   0  0  0  0  0  2  0  0  0  0  0  0
  185.0190  178.1450  143.6300 C   0  0  0  0  0  0  0  0  0  0  0  0
  184.2820  177.9550  142.4620 C   0  0  0  0  0  3  0  0  0  0  0  0
  189.1210  175.7380  146.3660 N   0  0  0  0  0  0  0  0  0  0  0  0
  189.0120  174.4030  146.9380 C   0  0  0  0  0  1  0  0  0  0  0  0
  189.2990  177.9640  144.5560 C   0  0  0  0  0  2  0  0  0  0  0  0
  186.3910  177.8920  141.2340 C   0  0  0  0  0  3  0  0  0  0  0  0
  185.5740  178.2940  145.8590 C   0  0  2  0  0  3  0  0  0  0  0  0
  184.5120  178.3070  144.9050 O   0  0  0  0  0  0  0  0  0  0  0  0
  190.4260  176.2200  145.9880 C   0  0  0  0  0  0  0  0  0  0  0  0
  187.1060  178.0970  142.4260 C   0  0  0  0  0  3  0  0  0  0  0  0
  191.4570  175.5890  146.3520 O   0  0  0  0  0  0  0  0  0  0  0  0
  187.8860  176.4130  145.9420 C   0  0  2  0  0  3  0  0  0  0  0  0
  191.7460  177.4710  144.2290 C   0  0  0  0  0  2  0  0  0  0  0  0
  191.3040  177.0490  142.8320 C   0  0  0  0  0  2  0  0  0  0  0  0
  191.7350  175.3080  142.5320 S   0  0  0  0  0  0  0  0  0  0  0  0
  193.4850  175.6450  142.6470 C   0  0  0  0  0  0  0  0  0  0  0  0
  194.2270  175.1030  143.6870 O   0  0  0  0  0  1  0  0  0  0  0  0
  194.0420  176.3790  141.7910 O   0  0  0  0  0  0  0  0  0  0  0  0
  1  4  1  6  0  0  0
  1  2  1  0  0  0  0
  1 14  1  0  0  0  0
  2 12  1  6  0  0  0
  2 19  1  0  0  0  0
  3  7  1  0  0  0  0
  4  8  1  0  0  0  0
  5 20  1  6  0  0  0
  5 16  1  0  0  0  0
  6  9  1  0  0  0  0
  8 15  1  0  0  0  0
  9  8  2  0  0  0  0
 10 11  1  0  0  0  0
 12  5  1  0  0  0  0
 13  6  2  0  0  0  0
 13 17  1  0  0  0  0
 14  3  1  6  0  0  0
 15 14  1  0  0  0  0
 16 18  2  0  0  0  0
 16 10  1  0  0  0  0
 17  4  2  0  0  0  0
 19 10  1  0  0  0  0
 19  7  1  1  0  0  0
 21 20  1  0  0  0  0
 22 23  1  0  0  0  0
 22 21  1  0  0  0  0
 23 24  1  0  0  0  0
 25 23  2  0  0  0  0
M  END
>  <MODEL>
3

>  <REMARK>
 VINA RESULT:      -6.8      2.157      4.257
  Name = 
  4 active torsions:
  status: ('A' for Active; 'I' for Inactive)
    1  A    between atoms: C_2  and  S_21
    2  A    between atoms: C_6  and  C_15
    3  A    between atoms: C_15  and  C_25
    4  A    between atoms: S_21  and  C_25
                            x       y       z     vdW  Elec       q    Type
                         _______ _______ _______ _____ _____    ______ ____

>  <TORSDO>
F 4

$$$$
=
 OpenBabel11052417373D

 25 28  0  0  1  0  0  0  0  0999 V2000
  188.7520  175.6630  144.7660 C   0  0  1  0  0  3  0  0  0  0  0  0
  187.4040  176.3070  145.1390 C   0  0  2  0  0  3  0  0  0  0  0  0
  189.0490  175.1670  147.2980 C   0  0  0  0  0  2  0  0  0  0  0  0
  189.8970  176.5690  144.4400 C   0  0  0  0  0  0  0  0  0  0  0  0
  185.5030  177.7510  144.4090 C   0  0  1  0  0  3  0  0  0  0  0  0
  192.3650  177.7300  143.9130 C   0  0  0  0  0  3  0  0  0  0  0  0
  187.6290  175.6780  147.4880 C   0  0  0  0  0  2  0  0  0  0  0  0
  191.0420  176.0160  144.9470 C   0  0  0  0  0  0  0  0  0  0  0  0
  192.2970  176.5720  144.7060 C   0  0  0  0  0  3  0  0  0  0  0  0
  186.1430  177.5460  146.8880 N   0  0  0  0  0  0  0  0  0  0  0  0
  185.9420  177.9920  148.2600 C   0  0  0  0  0  1  0  0  0  0  0  0
  186.9470  177.3500  144.1350 C   0  0  0  0  0  2  0  0  0  0  0  0
  191.1920  178.2900  143.3680 C   0  0  0  0  0  3  0  0  0  0  0  0
  189.3640  174.7290  145.8580 C   0  0  2  0  0  3  0  0  0  0  0  0
  190.7730  174.8810  145.6900 O   0  0  0  0  0  0  0  0  0  0  0  0
  185.2460  178.0310  145.8690 C   0  0  0  0  0  0  0  0  0  0  0  0
  189.9430  177.6990  143.6180 C   0  0  0  0  0  3  0  0  0  0  0  0
  184.1910  178.6390  146.2010 O   0  0  0  0  0  0  0  0  0  0  0  0
  187.4020  176.8610  146.5590 C   0  0  2  0  0  3  0  0  0  0  0  0
  185.0750  178.9100  143.5030 C   0  0  0  0  0  2  0  0  0  0  0  0
  185.9430  179.0390  142.2560 C   0  0  0  0  0  2  0  0  0  0  0  0
  185.1250  178.2540  140.8340 S   0  0  0  0  0  0  0  0  0  0  0  0
  186.6600  177.5590  140.2420 C   0  0  0  0  0  0  0  0  0  0  0  0
  186.6750  176.8050  139.0770 O   0  0  0  0  0  0  0  0  0  0  0  0
  187.7250  177.7470  140.8850 O   0  0  0  0  0  1  0  0  0  0  0  0
  1  4  1  1  0  0  0
  1  2  1  0  0  0  0
  1 14  1  0  0  0  0
  2 12  1  6  0  0  0
  2 19  1  0  0  0  0
  3  7  1  0  0  0  0
  4  8  1  0  0  0  0
  5 20  1  6  0  0  0
  5 16  1  0  0  0  0
  6  9  1  0  0  0  0
  8 15  1  0  0  0  0
  9  8  2  0  0  0  0
 10 11  1  0  0  0  0
 12  5  1  0  0  0  0
 13 17  1  0  0  0  0
 13  6  2  0  0  0  0
 14  3  1  1  0  0  0
 15 14  1  0  0  0  0
 16 18  2  0  0  0  0
 16 10  1  0  0  0  0
 17  4  2  0  0  0  0
 19 10  1  0  0  0  0
 19  7  1  1  0  0  0
 21 20  1  0  0  0  0
 22 21  1  0  0  0  0
 23 22  1  0  0  0  0
 23 25  1  0  0  0  0
 24 23  2  0  0  0  0
M  END
>  <MODEL>
4

>  <REMARK>
 VINA RESULT:      -6.6      2.883      6.767
  Name = 
  4 active torsions:
  status: ('A' for Active; 'I' for Inactive)
    1  A    between atoms: C_2  and  S_21
    2  A    between atoms: C_6  and  C_15
    3  A    between atoms: C_15  and  C_25
    4  A    between atoms: S_21  and  C_25
                            x       y       z     vdW  Elec       q    Type
                         _______ _______ _______ _____ _____    ______ ____

>  <TORSDO>
F 4

$$$$
=
 OpenBabel11052417373D

 25 28  0  0  1  0  0  0  0  0999 V2000
  191.5560  177.0150  143.8550 C   0  0  1  0  0  3  0  0  0  0  0  0
  190.4250  176.9390  142.8130 C   0  0  2  0  0  3  0  0  0  0  0  0
  192.3270  174.6970  142.9720 C   0  0  0  0  0  2  0  0  0  0  0  0
  191.2110  176.7580  145.2870 C   0  0  0  0  0  0  0  0  0  0  0  0
  188.2510  177.8700  142.0160 C   0  0  1  0  0  3  0  0  0  0  0  0
  191.1910  176.2220  148.0130 C   0  0  0  0  0  3  0  0  0  0  0  0
  191.2700  174.8430  141.8890 C   0  0  0  0  0  2  0  0  0  0  0  0
  192.2410  176.0640  145.8610 C   0  0  0  0  0  0  0  0  0  0  0  0
  192.2640  175.7730  147.2240 C   0  0  0  0  0  3  0  0  0  0  0  0
  188.9030  175.4290  141.5530 N   0  0  0  0  0  0  0  0  0  0  0  0
  188.5220  174.1220  141.0350 C   0  0  0  0  0  1  0  0  0  0  0  0
  189.2130  177.7700  143.1920 C   0  0  0  0  0  2  0  0  0  0  0  0
  190.1400  176.9590  147.4320 C   0  0  0  0  0  3  0  0  0  0  0  0
  192.7450  176.0310  143.6140 C   0  0  2  0  0  3  0  0  0  0  0  0
  193.2030  175.7180  144.9300 O   0  0  0  0  0  0  0  0  0  0  0  0
  188.0010  176.5360  141.3550 C   0  0  0  0  0  0  0  0  0  0  0  0
  190.1510  177.2470  146.0570 C   0  0  0  0  0  3  0  0  0  0  0  0
  187.0260  176.4160  140.5640 O   0  0  0  0  0  0  0  0  0  0  0  0
  190.0360  175.5010  142.4860 C   0  0  2  0  0  3  0  0  0  0  0  0
  186.9540  178.5750  142.4260 C   0  0  0  0  0  2  0  0  0  0  0  0
  186.5540  178.2870  143.8690 C   0  0  0  0  0  2  0  0  0  0  0  0
  184.8020  178.6950  144.1330 S   0  0  0  0  0  0  0  0  0  0  0  0
  184.7870  177.9160  145.7400 C   0  0  0  0  0  0  0  0  0  0  0  0
  185.5660  176.7910  145.9720 O   0  0  0  0  0  0  0  0  0  0  0  0
  184.0660  178.3830  146.6590 O   0  0  0  0  0  1  0  0  0  0  0  0
  1  4  1  1  0  0  0
  2 12  1  1  0  0  0
  2  1  1  0  0  0  0
  4  8  2  0  0  0  0
  4 17  1  0  0  0  0
  5 20  1  1  0  0  0
  5 12  1  0  0  0  0
  7  3  1  0  0  0  0
  8  9  1  0  0  0  0
  9  6  2  0  0  0  0
 10 19  1  0  0  0  0
 11 10  1  0  0  0  0
 13  6  1  0  0  0  0
 14  3  1  1  0  0  0
 14  1  1  0  0  0  0
 14 15  1  0  0  0  0
 15  8  1  0  0  0  0
 16 10  1  0  0  0  0
 16  5  1  0  0  0  0
 17 13  2  0  0  0  0
 18 16  2  0  0  0  0
 19  7  1  6  0  0  0
 19  2  1  0  0  0  0
 20 21  1  0  0  0  0
 21 22  1  0  0  0  0
 22 23  1  0  0  0  0
 23 24  2  0  0  0  0
 23 25  1  0  0  0  0
M  END
>  <MODEL>
5

>  <REMARK>
 VINA RESULT:      -6.5      2.727      5.941
  Name = 
  4 active torsions:
  status: ('A' for Active; 'I' for Inactive)
    1  A    between atoms: C_2  and  S_21
    2  A    between atoms: C_6  and  C_15
    3  A    between atoms: C_15  and  C_25
    4  A    between atoms: S_21  and  C_25
                            x       y       z     vdW  Elec       q    Type
                         _______ _______ _______ _____ _____    ______ ____

>  <TORSDO>
F 4

$$$$
=
 OpenBabel11052417373D

 25 28  0  0  1  0  0  0  0  0999 V2000
  186.2170  176.5670  143.3500 C   0  0  1  0  0  3  0  0  0  0  0  0
  187.6900  176.1330  143.2300 C   0  0  2  0  0  3  0  0  0  0  0  0
  186.8780  178.6680  141.9720 C   0  0  0  0  0  2  0  0  0  0  0  0
  185.7540  177.1250  144.6570 C   0  0  0  0  0  0  0  0  0  0  0  0
  189.4920  174.6070  144.0380 C   0  0  1  0  0  3  0  0  0  0  0  0
  184.4020  178.3590  146.7470 C   0  0  0  0  0  3  0  0  0  0  0  0
  188.2450  178.0290  141.7940 C   0  0  0  0  0  2  0  0  0  0  0  0
  184.8710  178.1400  144.4040 C   0  0  0  0  0  0  0  0  0  0  0  0
  184.1770  178.7850  145.4270 C   0  0  0  0  0  3  0  0  0  0  0  0
  190.0440  176.9130  143.0510 N   0  0  0  0  0  0  0  0  0  0  0  0
  191.0480  177.9300  142.7630 C   0  0  0  0  0  1  0  0  0  0  0  0
  188.1290  175.2100  144.3510 C   0  0  0  0  0  2  0  0  0  0  0  0
  185.2920  177.2990  147.0120 C   0  0  0  0  0  3  0  0  0  0  0  0
  185.7680  177.6680  142.3370 C   0  0  2  0  0  3  0  0  0  0  0  0
  184.7780  178.4080  143.0510 O   0  0  0  0  0  0  0  0  0  0  0  0
  190.4850  175.6360  143.5550 C   0  0  0  0  0  0  0  0  0  0  0  0
  185.9660  176.6600  145.9590 C   0  0  0  0  0  3  0  0  0  0  0  0
  191.7110  175.3420  143.5310 O   0  0  0  0  0  0  0  0  0  0  0  0
  188.6330  177.3220  143.0840 C   0  0  2  0  0  3  0  0  0  0  0  0
  190.0190  173.7940  145.2250 C   0  0  0  0  0  2  0  0  0  0  0  0
  189.9000  172.2890  145.0120 C   0  0  0  0  0  2  0  0  0  0  0  0
  189.6830  171.9160  143.2460 S   0  0  0  0  0  0  0  0  0  0  0  0
  191.4310  171.6300  143.0160 C   0  0  0  0  0  0  0  0  0  0  0  0
  192.0820  170.6730  143.7820 O   0  0  0  0  0  1  0  0  0  0  0  0
  192.0720  172.3010  142.1660 O   0  0  0  0  0  0  0  0  0  0  0  0
  1  4  1  1  0  0  0
  2  1  1  0  0  0  0
  2 12  1  1  0  0  0
  4 17  1  0  0  0  0
  5 12  1  0  0  0  0
  5 20  1  1  0  0  0
  6 13  1  0  0  0  0
  7  3  1  0  0  0  0
  8  4  2  0  0  0  0
  8  9  1  0  0  0  0
  9  6  2  0  0  0  0
 10 19  1  0  0  0  0
 10 16  1  0  0  0  0
 11 10  1  0  0  0  0
 14  3  1  1  0  0  0
 14 15  1  0  0  0  0
 14  1  1  0  0  0  0
 15  8  1  0  0  0  0
 16  5  1  0  0  0  0
 17 13  2  0  0  0  0
 18 16  2  0  0  0  0
 19  7  1  6  0  0  0
 19  2  1  0  0  0  0
 21 20  1  0  0  0  0
 22 21  1  0  0  0  0
 23 22  1  0  0  0  0
 23 24  1  0  0  0  0
 25 23  2  0  0  0  0
M  END
>  <MODEL>
6

>  <REMARK>
 VINA RESULT:      -6.5      2.168      3.081
  Name = 
  4 active torsions:
  status: ('A' for Active; 'I' for Inactive)
    1  A    between atoms: C_2  and  S_21
    2  A    between atoms: C_6  and  C_15
    3  A    between atoms: C_15  and  C_25
    4  A    between atoms: S_21  and  C_25
                            x       y       z     vdW  Elec       q    Type
                         _______ _______ _______ _____ _____    ______ ____

>  <TORSDO>
F 4

$$$$
=
 OpenBabel11052417373D

 25 28  0  0  1  0  0  0  0  0999 V2000
  189.4170  177.3020  145.2690 C   0  0  1  0  0  3  0  0  0  0  0  0
  190.3650  176.1370  144.9260 C   0  0  2  0  0  3  0  0  0  0  0  0
  188.1860  175.6420  146.8420 C   0  0  0  0  0  2  0  0  0  0  0  0
  188.3790  177.6820  144.2640 C   0  0  0  0  0  0  0  0  0  0  0  0
  192.1330  175.2620  143.3960 C   0  0  1  0  0  3  0  0  0  0  0  0
  186.1960  178.6990  142.8780 C   0  0  0  0  0  3  0  0  0  0  0  0
  189.2950  174.6470  146.5380 C   0  0  0  0  0  2  0  0  0  0  0  0
  187.2340  178.0220  144.9330 C   0  0  0  0  0  0  0  0  0  0  0  0
  186.1180  178.5320  144.2710 C   0  0  0  0  0  3  0  0  0  0  0  0
  190.5680  173.6720  144.6700 N   0  0  0  0  0  0  0  0  0  0  0  0
  190.1070  172.3100  144.9030 C   0  0  0  0  0  1  0  0  0  0  0  0
  191.0190  176.2870  143.5650 C   0  0  0  0  0  2  0  0  0  0  0  0
  187.3800  178.3730  142.1860 C   0  0  0  0  0  3  0  0  0  0  0  0
  188.5710  177.1050  146.5680 C   0  0  2  0  0  3  0  0  0  0  0  0
  187.3530  177.7970  146.2910 O   0  0  0  0  0  0  0  0  0  0  0  0
  191.7130  173.8750  143.8190 C   0  0  0  0  0  0  0  0  0  0  0  0
  188.4920  177.8730  142.8830 C   0  0  0  0  0  3  0  0  0  0  0  0
  192.4220  172.8890  143.4750 O   0  0  0  0  0  0  0  0  0  0  0  0
  189.6890  174.7790  145.0750 C   0  0  2  0  0  3  0  0  0  0  0  0
  192.7010  175.2970  141.9740 C   0  0  0  0  0  2  0  0  0  0  0  0
  193.9740  176.1280  141.8650 C   0  0  0  0  0  2  0  0  0  0  0  0
  195.4260  175.1190  142.2910 S   0  0  0  0  0  0  0  0  0  0  0  0
  195.9290  176.2540  143.5750 C   0  0  0  0  0  0  0  0  0  0  0  0
  195.2760  176.2480  144.8000 O   0  0  0  0  0  1  0  0  0  0  0  0
  196.8710  177.0610  143.3660 O   0  0  0  0  0  0  0  0  0  0  0  0
  1  4  1  6  0  0  0
  1 14  1  0  0  0  0
  2 12  1  6  0  0  0
  2 19  1  0  0  0  0
  2  1  1  0  0  0  0
  4  8  1  0  0  0  0
  5 20  1  6  0  0  0
  5 12  1  0  0  0  0
  5 16  1  0  0  0  0
  6  9  1  0  0  0  0
  7  3  1  0  0  0  0
  8 15  1  0  0  0  0
  9  8  2  0  0  0  0
 10 11  1  0  0  0  0
 10 19  1  0  0  0  0
 13  6  2  0  0  0  0
 13 17  1  0  0  0  0
 14  3  1  6  0  0  0
 15 14  1  0  0  0  0
 16 10  1  0  0  0  0
 17  4  2  0  0  0  0
 18 16  2  0  0  0  0
 19  7  1  1  0  0  0
 21 20  1  0  0  0  0
 21 22  1  0  0  0  0
 22 23  1  0  0  0  0
 23 24  1  0  0  0  0
 25 23  2  0  0  0  0
M  END
>  <MODEL>
7

>  <REMARK>
 VINA RESULT:      -6.4      2.834      4.744
  Name = 
  4 active torsions:
  status: ('A' for Active; 'I' for Inactive)
    1  A    between atoms: C_2  and  S_21
    2  A    between atoms: C_6  and  C_15
    3  A    between atoms: C_15  and  C_25
    4  A    between atoms: S_21  and  C_25
                            x       y       z     vdW  Elec       q    Type
                         _______ _______ _______ _____ _____    ______ ____

>  <TORSDO>
F 4

$$$$
=
 OpenBabel11052417373D

 25 28  0  0  1  0  0  0  0  0999 V2000
  188.3470  177.2380  142.8450 C   0  0  1  0  0  3  0  0  0  0  0  0
  187.8570  177.3300  144.3020 C   0  0  2  0  0  3  0  0  0  0  0  0
  186.1650  178.4850  142.1880 C   0  0  0  0  0  2  0  0  0  0  0  0
  188.2330  175.9210  142.1470 C   0  0  0  0  0  0  0  0  0  0  0  0
  188.1320  176.5390  146.6540 C   0  0  1  0  0  3  0  0  0  0  0  0
  188.1180  173.8180  140.3350 C   0  0  0  0  0  3  0  0  0  0  0  0
  185.8990  178.6480  143.6760 C   0  0  0  0  0  2  0  0  0  0  0  0
  187.8880  176.1520  140.8430 C   0  0  0  0  0  0  0  0  0  0  0  0
  187.8160  175.1220  139.9070 C   0  0  0  0  0  3  0  0  0  0  0  0
  185.8670  177.3900  145.7910 N   0  0  0  0  0  0  0  0  0  0  0  0
  184.4450  177.5920  146.0360 C   0  0  0  0  0  1  0  0  0  0  0  0
  188.4330  176.2430  145.1910 C   0  0  0  0  0  2  0  0  0  0  0  0
  188.4970  173.5770  141.6710 C   0  0  0  0  0  3  0  0  0  0  0  0
  187.6390  178.2090  141.8470 C   0  0  2  0  0  3  0  0  0  0  0  0
  187.6390  177.4920  140.6130 O   0  0  0  0  0  0  0  0  0  0  0  0
  186.6940  176.9360  146.8810 C   0  0  0  0  0  0  0  0  0  0  0  0
  188.5730  174.6380  142.5880 C   0  0  0  0  0  3  0  0  0  0  0  0
  186.2350  176.9330  148.0570 O   0  0  0  0  0  0  0  0  0  0  0  0
  186.3370  177.3830  144.3990 C   0  0  2  0  0  3  0  0  0  0  0  0
  188.5710  175.3780  147.5510 C   0  0  0  0  0  2  0  0  0  0  0  0
  189.9960  174.9160  147.2670 C   0  0  0  0  0  2  0  0  0  0  0  0
  191.1920  176.1260  147.9090 S   0  0  0  0  0  0  0  0  0  0  0  0
  192.2310  175.9750  146.4640 C   0  0  0  0  0  0  0  0  0  0  0  0
  192.0080  176.7900  145.3620 O   0  0  0  0  0  0  0  0  0  0  0  0
  193.1600  175.1260  146.4420 O   0  0  0  0  0  1  0  0  0  0  0  0
  1  4  1  6  0  0  0
  1  2  1  0  0  0  0
  2 19  1  0  0  0  0
  2 12  1  1  0  0  0
  3  7  1  0  0  0  0
  4 17  1  0  0  0  0
  5 16  1  0  0  0  0
  5 20  1  1  0  0  0
  6 13  1  0  0  0  0
  8  4  2  0  0  0  0
  9  6  2  0  0  0  0
  9  8  1  0  0  0  0
 10 11  1  0  0  0  0
 10 16  1  0  0  0  0
 12  5  1  0  0  0  0
 13 17  2  0  0  0  0
 14  3  1  1  0  0  0
 14  1  1  0  0  0  0
 15  8  1  0  0  0  0
 15 14  1  0  0  0  0
 16 18  2  0  0  0  0
 19  7  1  1  0  0  0
 19 10  1  0  0  0  0
 21 20  1  0  0  0  0
 21 22  1  0  0  0  0
 23 22  1  0  0  0  0
 24 23  2  0  0  0  0
 25 23  1  0  0  0  0
M  END
>  <MODEL>
8

>  <REMARK>
 VINA RESULT:      -6.3      2.321      4.436
  Name = 
  4 active torsions:
  status: ('A' for Active; 'I' for Inactive)
    1  A    between atoms: C_2  and  S_21
    2  A    between atoms: C_6  and  C_15
    3  A    between atoms: C_15  and  C_25
    4  A    between atoms: S_21  and  C_25
                            x       y       z     vdW  Elec       q    Type
                         _______ _______ _______ _____ _____    ______ ____

>  <TORSDO>
F 4

$$$$
=
 OpenBabel11052417373D

 25 28  0  0  1  0  0  0  0  0999 V2000
  191.8550  176.6470  143.0480 C   0  0  1  0  0  3  0  0  0  0  0  0
  190.3410  176.5670  142.7770 C   0  0  2  0  0  3  0  0  0  0  0  0
  192.0500  174.3850  141.7870 C   0  0  0  0  0  2  0  0  0  0  0  0
  192.3390  176.3330  144.4270 C   0  0  0  0  0  0  0  0  0  0  0  0
  188.0710  177.4530  143.3180 C   0  0  1  0  0  3  0  0  0  0  0  0
  193.7980  175.7100  146.7080 C   0  0  0  0  0  3  0  0  0  0  0  0
  190.5750  174.5300  141.4510 C   0  0  0  0  0  2  0  0  0  0  0  0
  193.5230  175.6540  144.3250 C   0  0  0  0  0  0  0  0  0  0  0  0
  194.2800  175.3210  145.4470 C   0  0  0  0  0  3  0  0  0  0  0  0
  188.3950  175.0510  142.4690 N   0  0  0  0  0  0  0  0  0  0  0  0
  187.8080  173.7490  142.1800 C   0  0  0  0  0  1  0  0  0  0  0  0
  189.5160  177.3470  143.7850 C   0  0  0  0  0  2  0  0  0  0  0  0
  192.5910  176.4310  146.8180 C   0  0  0  0  0  3  0  0  0  0  0  0
  192.7350  175.7090  142.1620 C   0  0  2  0  0  3  0  0  0  0  0  0
  193.8330  175.3700  143.0080 O   0  0  0  0  0  0  0  0  0  0  0  0
  187.5180  176.1340  142.8370 C   0  0  0  0  0  0  0  0  0  0  0  0
  191.8570  176.7630  145.6680 C   0  0  0  0  0  3  0  0  0  0  0  0
  186.2700  176.0080  142.6920 O   0  0  0  0  0  0  0  0  0  0  0  0
  189.8520  175.1300  142.6480 C   0  0  2  0  0  3  0  0  0  0  0  0
  187.1930  178.1020  144.3930 C   0  0  0  0  0  2  0  0  0  0  0  0
  187.3420  177.4410  145.7590 C   0  0  0  0  0  2  0  0  0  0  0  0
  185.7240  176.8770  146.3680 S   0  0  0  0  0  0  0  0  0  0  0  0
  185.1350  178.5510  146.5680 C   0  0  0  0  0  0  0  0  0  0  0  0
  184.0350  178.9900  145.8440 O   0  0  0  0  0  0  0  0  0  0  0  0
  185.7200  179.3340  147.3600 O   0  0  0  0  0  1  0  0  0  0  0  0
  1  4  1  1  0  0  0
  2  1  1  0  0  0  0
  2 12  1  1  0  0  0
  4 17  1  0  0  0  0
  5 12  1  0  0  0  0
  5 20  1  1  0  0  0
  6 13  1  0  0  0  0
  7  3  1  0  0  0  0
  8  4  2  0  0  0  0
  8  9  1  0  0  0  0
  9  6  2  0  0  0  0
 10 19  1  0  0  0  0
 10 16  1  0  0  0  0
 11 10  1  0  0  0  0
 14  3  1  1  0  0  0
 14 15  1  0  0  0  0
 14  1  1  0  0  0  0
 15  8  1  0  0  0  0
 16  5  1  0  0  0  0
 17 13  2  0  0  0  0
 18 16  2  0  0  0  0
 19  7  1  6  0  0  0
 19  2  1  0  0  0  0
 20 21  1  0  0  0  0
 21 22  1  0  0  0  0
 22 23  1  0  0  0  0
 23 25  1  0  0  0  0
 24 23  2  0  0  0  0
M  END
>  <MODEL>
9

>  <REMARK>
 VINA RESULT:      -6.3      2.733      6.250
  Name = 
  4 active torsions:
  status: ('A' for Active; 'I' for Inactive)
    1  A    between atoms: C_2  and  S_21
    2  A    between atoms: C_6  and  C_15
    3  A    between atoms: C_15  and  C_25
    4  A    between atoms: S_21  and  C_25
                            x       y       z     vdW  Elec       q    Type
                         _______ _______ _______ _____ _____    ______ ____

>  <TORSDO>
F 4

$$$$
