=
 OpenBabel11052418333D

 27 30  0  0  1  0  0  0  0  0999 V2000
  187.6570  178.2010  143.2380 C   0  0  1  0  0  3  0  0  0  0  0  0
  188.6920  177.1170  143.4880 C   0  0  1  0  0  3  0  0  0  0  0  0
  187.6470  177.6740  145.6360 N   0  0  2  0  0  0  0  0  0  0  0  0
  188.7560  174.2210  140.9970 C   0  0  0  0  0  2  0  0  0  0  0  0
  186.9920  176.2330  141.9430 C   0  0  2  0  0  3  0  0  0  0  0  0
  184.8160  178.5790  145.6150 C   0  0  0  0  0  0  0  0  0  0  0  0
  187.3790  176.3220  140.4670 C   0  0  0  0  0  2  0  0  0  0  0  0
  186.0320  176.0510  144.9230 O   0  0  0  0  0  1  0  0  0  0  0  0
  183.5910  178.7220  145.3600 O   0  0  0  0  0  0  0  0  0  0  0  0
  186.5190  177.5820  142.4340 C   0  0  0  0  0  2  0  0  0  0  0  0
  187.2240  178.6670  144.6330 C   0  0  2  0  0  3  0  0  0  0  0  0
  188.8150  177.0290  145.0170 C   0  0  1  0  0  3  0  0  0  0  0  0
  185.3130  177.5550  146.9940 S   0  0  0  0  0  0  0  0  0  0  0  0
  185.5060  180.2370  144.0880 O   0  0  0  0  0  0  0  0  0  0  0  0
  187.9250  174.9830  139.9550 C   0  0  0  0  0  2  0  0  0  0  0  0
  185.8250  179.2260  144.7670 C   0  0  0  0  0  0  0  0  0  0  0  0
  189.3160  175.1550  142.0650 C   0  0  0  0  0  2  0  0  0  0  0  0
  186.5920  176.7110  146.0200 C   0  0  2  0  0  3  0  0  0  0  0  0
  188.1790  175.8400  142.8330 C   0  0  1  0  0  3  0  0  0  0  0  0
  189.2700  175.6920  145.6420 C   0  0  2  0  0  3  0  0  0  0  0  0
  188.8270  174.4840  147.6590 O   0  0  0  0  0  1  0  0  0  0  0  0
  189.1500  175.7470  147.1650 C   0  0  0  0  0  2  0  0  0  0  0  0
  190.6980  175.3350  145.1950 C   0  0  2  0  0  3  0  0  0  0  0  0
  190.9240  173.8290  145.0710 C   0  0  0  0  0  2  0  0  0  0  0  0
  189.7240  173.1560  144.8300 O   0  0  0  0  0  1  0  0  0  0  0  0
  192.7900  175.0280  146.5270 C   0  0  0  0  0  1  0  0  0  0  0  0
  191.7870  176.0380  146.0050 C   0  0  0  0  0  2  0  0  0  0  0  0
  1 10  1  1  0  0  0
  1  2  1  0  0  0  0
  1 11  1  0  0  0  0
  2 12  1  0  0  0  0
  3 18  1  0  0  0  0
  4 17  1  0  0  0  0
  5 10  1  0  0  0  0
  5 19  1  0  0  0  0
  6 13  1  0  0  0  0
  7  5  1  0  0  0  0
  8 18  1  0  0  0  0
  9  6  2  0  0  0  0
 11 16  1  0  0  0  0
 11  3  1  0  0  0  0
 12  3  1  0  0  0  0
 12 20  1  0  0  0  0
 14 16  2  0  0  0  0
 15  7  1  0  0  0  0
 15  4  1  0  0  0  0
 16  6  1  0  0  0  0
 17 19  1  0  0  0  0
 18 13  1  0  0  0  0
 19  2  1  0  0  0  0
 20 22  1  0  0  0  0
 22 21  1  0  0  0  0
 23 20  1  0  0  0  0
 23 27  1  0  0  0  0
 24 23  1  0  0  0  0
 25 24  1  0  0  0  0
 27 26  1  0  0  0  0
M  END
>  <MODEL>
1

>  <REMARK>
 VINA RESULT:      -6.3      0.000      0.000
  Name = 
  5 active torsions:
  status: ('A' for Active; 'I' for Inactive)
    1  A    between atoms: C_4  and  C_17
    2  A    between atoms: C_14  and  C_16
    3  A    between atoms: C_14  and  C_17
    4  A    between atoms: C_14  and  C_19
    5  A    between atoms: C_17  and  C_21
                            x       y       z     vdW  Elec       q    Type
                         _______ _______ _______ _____ _____    ______ ____

>  <TORSDO>
F 5

$$$$
=
 OpenBabel11052418333D

 27 30  0  0  1  0  0  0  0  0999 V2000
  188.1900  176.8270  141.8740 C   0  0  1  0  0  3  0  0  0  0  0  0
  188.9490  176.3220  143.0890 C   0  0  1  0  0  3  0  0  0  0  0  0
  187.2670  177.9290  143.8650 N   0  0  2  0  0  0  0  0  0  0  0  0
  189.6030  172.5600  143.2400 C   0  0  0  0  0  2  0  0  0  0  0  0
  187.8340  174.4100  142.0130 C   0  0  2  0  0  3  0  0  0  0  0  0
  184.7410  178.1590  142.3160 C   0  0  0  0  0  0  0  0  0  0  0  0
  188.7310  173.6120  141.0660 C   0  0  0  0  0  2  0  0  0  0  0  0
  185.8570  175.9900  143.8640 O   0  0  0  0  0  1  0  0  0  0  0  0
  183.7100  177.9160  141.6350 O   0  0  0  0  0  0  0  0  0  0  0  0
  187.3590  175.6710  141.3300 C   0  0  0  0  0  2  0  0  0  0  0  0
  187.3360  177.9900  142.3950 C   0  0  2  0  0  3  0  0  0  0  0  0
  188.5070  177.2340  144.2440 C   0  0  1  0  0  3  0  0  0  0  0  0
  184.6030  178.3230  144.0910 S   0  0  0  0  0  0  0  0  0  0  0  0
  186.0990  178.5740  140.4340 O   0  0  0  0  0  0  0  0  0  0  0  0
  189.2840  172.3560  141.7520 C   0  0  0  0  0  2  0  0  0  0  0  0
  186.0480  178.2800  141.6570 C   0  0  0  0  0  0  0  0  0  0  0  0
  189.8360  174.0310  143.5710 C   0  0  0  0  0  2  0  0  0  0  0  0
  186.0520  177.2700  144.3900 C   0  0  2  0  0  3  0  0  0  0  0  0
  188.5770  174.8560  143.2790 C   0  0  1  0  0  3  0  0  0  0  0  0
  188.5680  176.6790  145.6830 C   0  0  2  0  0  3  0  0  0  0  0  0
  187.0760  177.2970  147.4490 O   0  0  0  0  0  1  0  0  0  0  0  0
  188.1510  177.7530  146.6880 C   0  0  0  0  0  2  0  0  0  0  0  0
  189.9650  176.1180  145.9970 C   0  0  2  0  0  3  0  0  0  0  0  0
  190.0000  175.2900  147.2820 C   0  0  0  0  0  2  0  0  0  0  0  0
  188.9420  174.3810  147.3260 O   0  0  0  0  0  1  0  0  0  0  0  0
  192.1650  176.7200  144.9760 C   0  0  0  0  0  1  0  0  0  0  0  0
  191.0750  177.1660  145.9310 C   0  0  0  0  0  2  0  0  0  0  0  0
  1 10  1  1  0  0  0
  1 11  1  0  0  0  0
  1  2  1  0  0  0  0
  2 19  1  0  0  0  0
  2 12  1  0  0  0  0
  3 12  1  0  0  0  0
  3 18  1  0  0  0  0
  4 17  1  0  0  0  0
  5 19  1  0  0  0  0
  6 13  1  0  0  0  0
  7 15  1  0  0  0  0
  7  5  1  0  0  0  0
  8 18  1  0  0  0  0
  9  6  2  0  0  0  0
 10  5  1  0  0  0  0
 11  3  1  0  0  0  0
 12 20  1  0  0  0  0
 13 18  1  0  0  0  0
 14 16  2  0  0  0  0
 15  4  1  0  0  0  0
 16  6  1  0  0  0  0
 16 11  1  0  0  0  0
 19 17  1  0  0  0  0
 20 23  1  0  0  0  0
 20 22  1  0  0  0  0
 22 21  1  0  0  0  0
 23 24  1  0  0  0  0
 24 25  1  0  0  0  0
 26 27  1  0  0  0  0
 27 23  1  0  0  0  0
M  END
>  <MODEL>
2

>  <REMARK>
 VINA RESULT:      -6.2      1.875      2.502
  Name = 
  5 active torsions:
  status: ('A' for Active; 'I' for Inactive)
    1  A    between atoms: C_4  and  C_17
    2  A    between atoms: C_14  and  C_16
    3  A    between atoms: C_14  and  C_17
    4  A    between atoms: C_14  and  C_19
    5  A    between atoms: C_17  and  C_21
                            x       y       z     vdW  Elec       q    Type
                         _______ _______ _______ _____ _____    ______ ____

>  <TORSDO>
F 5

$$$$
=
 OpenBabel11052418333D

 27 30  0  0  1  0  0  0  0  0999 V2000
  189.9830  177.7210  145.0400 C   0  0  1  0  0  3  0  0  0  0  0  0
  188.5860  177.6270  144.4500 C   0  0  1  0  0  3  0  0  0  0  0  0
  189.9520  175.8570  143.4430 N   0  0  2  0  0  0  0  0  0  0  0  0
  185.6780  177.9550  146.9070 C   0  0  0  0  0  2  0  0  0  0  0  0
  188.4330  177.2730  146.8810 C   0  0  2  0  0  3  0  0  0  0  0  0
  192.1450  174.6900  145.0740 C   0  0  0  0  0  0  0  0  0  0  0  0
  188.0600  178.5250  147.6750 C   0  0  0  0  0  2  0  0  0  0  0  0
  189.2740  174.6430  145.3960 O   0  0  0  0  0  1  0  0  0  0  0  0
  192.8420  174.2320  146.0170 O   0  0  0  0  0  0  0  0  0  0  0  0
  189.8970  177.3180  146.5080 C   0  0  0  0  0  2  0  0  0  0  0  0
  190.8340  176.7610  144.2000 C   0  0  2  0  0  3  0  0  0  0  0  0
  188.7110  176.6300  143.2870 C   0  0  1  0  0  3  0  0  0  0  0  0
  191.2640  173.5620  144.0040 S   0  0  0  0  0  0  0  0  0  0  0  0
  192.9370  176.8960  145.3280 O   0  0  0  0  0  0  0  0  0  0  0  0
  186.5650  178.5430  148.0140 C   0  0  0  0  0  2  0  0  0  0  0  0
  192.0370  176.1410  144.8760 C   0  0  0  0  0  0  0  0  0  0  0  0
  186.3670  178.0020  145.5470 C   0  0  0  0  0  2  0  0  0  0  0  0
  189.7360  174.5410  144.0810 C   0  0  2  0  0  3  0  0  0  0  0  0
  187.6530  177.1660  145.5640 C   0  0  1  0  0  3  0  0  0  0  0  0
  187.4570  175.8340  142.8640 C   0  0  2  0  0  3  0  0  0  0  0  0
  188.2270  174.8750  140.8120 O   0  0  0  0  0  1  0  0  0  0  0  0
  187.8590  174.5610  142.1190 C   0  0  0  0  0  2  0  0  0  0  0  0
  186.5070  176.7080  142.0280 C   0  0  2  0  0  3  0  0  0  0  0  0
  187.2250  177.8560  141.3180 C   0  0  0  0  0  2  0  0  0  0  0  0
  187.0910  177.7570  139.9320 O   0  0  0  0  0  1  0  0  0  0  0  0
  184.5420  178.2510  142.0190 C   0  0  0  0  0  1  0  0  0  0  0  0
  185.2620  177.1610  142.7880 C   0  0  0  0  0  2  0  0  0  0  0  0
  1 10  1  1  0  0  0
  2  1  1  0  0  0  0
  2 19  1  0  0  0  0
  3 18  1  0  0  0  0
  3 11  1  0  0  0  0
  4 15  1  0  0  0  0
  5  7  1  0  0  0  0
  6  9  2  0  0  0  0
  7 15  1  0  0  0  0
 10  5  1  0  0  0  0
 11 16  1  0  0  0  0
 11  1  1  0  0  0  0
 12  3  1  0  0  0  0
 12  2  1  0  0  0  0
 13 18  1  0  0  0  0
 13  6  1  0  0  0  0
 16  6  1  0  0  0  0
 16 14  2  0  0  0  0
 17 19  1  0  0  0  0
 17  4  1  0  0  0  0
 18  8  1  0  0  0  0
 19  5  1  0  0  0  0
 20 12  1  0  0  0  0
 21 22  1  0  0  0  0
 22 20  1  0  0  0  0
 23 27  1  0  0  0  0
 23 20  1  0  0  0  0
 24 23  1  0  0  0  0
 25 24  1  0  0  0  0
 26 27  1  0  0  0  0
M  END
>  <MODEL>
3

>  <REMARK>
 VINA RESULT:      -6.2      2.805      6.327
  Name = 
  5 active torsions:
  status: ('A' for Active; 'I' for Inactive)
    1  A    between atoms: C_4  and  C_17
    2  A    between atoms: C_14  and  C_16
    3  A    between atoms: C_14  and  C_17
    4  A    between atoms: C_14  and  C_19
    5  A    between atoms: C_17  and  C_21
                            x       y       z     vdW  Elec       q    Type
                         _______ _______ _______ _____ _____    ______ ____

>  <TORSDO>
F 5

$$$$
=
 OpenBabel11052418333D

 27 30  0  0  1  0  0  0  0  0999 V2000
  187.8270  176.3110  146.2450 C   0  0  1  0  0  3  0  0  0  0  0  0
  188.7650  175.4160  145.4530 C   0  0  1  0  0  3  0  0  0  0  0  0
  187.0540  176.2670  143.9150 N   0  0  2  0  0  0  0  0  0  0  0  0
  192.5010  175.8640  146.1140 C   0  0  0  0  0  2  0  0  0  0  0  0
  190.0640  177.2960  146.3690 C   0  0  2  0  0  3  0  0  0  0  0  0
  185.9000  178.9500  144.4610 C   0  0  0  0  0  0  0  0  0  0  0  0
  190.7930  176.9780  147.6740 C   0  0  0  0  0  2  0  0  0  0  0  0
  188.5700  178.1160  143.7370 O   0  0  0  0  0  1  0  0  0  0  0  0
  185.7360  180.1570  144.7810 O   0  0  0  0  0  0  0  0  0  0  0  0
  188.6020  177.5600  146.6470 C   0  0  0  0  0  2  0  0  0  0  0  0
  186.6610  176.6050  145.2940 C   0  0  2  0  0  3  0  0  0  0  0  0
  188.0800  175.2270  144.0910 C   0  0  1  0  0  3  0  0  0  0  0  0
  186.1380  178.5220  142.7420 S   0  0  0  0  0  0  0  0  0  0  0  0
  185.3630  178.1270  146.6040 O   0  0  0  0  0  0  0  0  0  0  0  0
  192.2670  176.6400  147.4190 C   0  0  0  0  0  2  0  0  0  0  0  0
  185.9220  177.9090  145.4970 C   0  0  0  0  0  0  0  0  0  0  0  0
  191.2440  175.1310  145.6600 C   0  0  0  0  0  2  0  0  0  0  0  0
  187.5300  177.4170  143.1180 C   0  0  2  0  0  3  0  0  0  0  0  0
  190.1110  176.1260  145.3760 C   0  0  1  0  0  3  0  0  0  0  0  0
  188.9620  174.9210  142.8610 C   0  0  2  0  0  3  0  0  0  0  0  0
  188.3760  175.3920  140.5890 O   0  0  0  0  0  1  0  0  0  0  0  0
  188.0920  174.5460  141.6610 C   0  0  0  0  0  2  0  0  0  0  0  0
  189.9910  173.8250  143.1830 C   0  0  2  0  0  3  0  0  0  0  0  0
  191.1690  173.8090  142.2080 C   0  0  0  0  0  2  0  0  0  0  0  0
  191.7820  175.0610  142.1350 O   0  0  0  0  0  1  0  0  0  0  0  0
  189.6880  171.9300  144.7830 C   0  0  0  0  0  1  0  0  0  0  0  0
  189.3710  172.4440  143.3930 C   0  0  0  0  0  2  0  0  0  0  0  0
  1 10  1  6  0  0  0
  2  1  1  0  0  0  0
  3 12  1  0  0  0  0
  3 11  1  0  0  0  0
  4 15  1  0  0  0  0
  5 10  1  0  0  0  0
  5  7  1  0  0  0  0
  6  9  2  0  0  0  0
  6 16  1  0  0  0  0
 11 16  1  0  0  0  0
 11  1  1  0  0  0  0
 12  2  1  0  0  0  0
 13 18  1  0  0  0  0
 13  6  1  0  0  0  0
 15  7  1  0  0  0  0
 16 14  2  0  0  0  0
 17  4  1  0  0  0  0
 18  8  1  0  0  0  0
 18  3  1  0  0  0  0
 19  2  1  0  0  0  0
 19 17  1  0  0  0  0
 19  5  1  0  0  0  0
 20 23  1  0  0  0  0
 20 12  1  0  0  0  0
 21 22  1  0  0  0  0
 22 20  1  0  0  0  0
 23 27  1  0  0  0  0
 24 23  1  0  0  0  0
 25 24  1  0  0  0  0
 27 26  1  0  0  0  0
M  END
>  <MODEL>
4

>  <REMARK>
 VINA RESULT:      -6.1      2.178      4.441
  Name = 
  5 active torsions:
  status: ('A' for Active; 'I' for Inactive)
    1  A    between atoms: C_4  and  C_17
    2  A    between atoms: C_14  and  C_16
    3  A    between atoms: C_14  and  C_17
    4  A    between atoms: C_14  and  C_19
    5  A    between atoms: C_17  and  C_21
                            x       y       z     vdW  Elec       q    Type
                         _______ _______ _______ _____ _____    ______ ____

>  <TORSDO>
F 5

$$$$
=
 OpenBabel11052418333D

 27 30  0  0  1  0  0  0  0  0999 V2000
  188.7390  176.9830  142.9400 C   0  0  1  0  0  3  0  0  0  0  0  0
  190.0030  176.2640  143.3790 C   0  0  1  0  0  3  0  0  0  0  0  0
  189.1280  177.5010  145.3080 N   0  0  2  0  0  0  0  0  0  0  0  0
  190.3810  172.6390  142.2320 C   0  0  0  0  0  2  0  0  0  0  0  0
  188.3570  174.5820  142.6570 C   0  0  2  0  0  3  0  0  0  0  0  0
  186.1890  177.8940  145.4940 C   0  0  0  0  0  0  0  0  0  0  0  0
  188.5360  174.1070  141.2160 C   0  0  0  0  0  2  0  0  0  0  0  0
  187.8210  175.5130  145.6040 O   0  0  0  0  0  1  0  0  0  0  0  0
  184.9400  177.7400  145.4480 O   0  0  0  0  0  0  0  0  0  0  0  0
  187.6710  175.9290  142.6740 C   0  0  0  0  0  2  0  0  0  0  0  0
  188.3880  177.9170  144.1040 C   0  0  2  0  0  3  0  0  0  0  0  0
  190.3240  176.8360  144.7690 C   0  0  1  0  0  3  0  0  0  0  0  0
  187.0530  177.6180  147.0340 S   0  0  0  0  0  0  0  0  0  0  0  0
  186.3230  178.8530  143.3440 O   0  0  0  0  0  0  0  0  0  0  0  0
  189.2890  172.7720  141.1610 C   0  0  0  0  0  2  0  0  0  0  0  0
  186.9290  178.2720  144.2830 C   0  0  0  0  0  0  0  0  0  0  0  0
  190.8540  174.0010  142.7270 C   0  0  0  0  0  2  0  0  0  0  0  0
  188.3560  176.6410  146.2300 C   0  0  2  0  0  3  0  0  0  0  0  0
  189.6980  174.7700  143.3790 C   0  0  1  0  0  3  0  0  0  0  0  0
  191.1240  175.9590  145.7570 C   0  0  2  0  0  3  0  0  0  0  0  0
  191.0200  175.6460  148.1270 O   0  0  0  0  0  1  0  0  0  0  0  0
  191.1690  176.6150  147.1370 C   0  0  0  0  0  2  0  0  0  0  0  0
  192.5350  175.6700  145.2180 C   0  0  2  0  0  3  0  0  0  0  0  0
  193.2490  174.5570  145.9840 C   0  0  0  0  0  2  0  0  0  0  0  0
  193.0680  173.3190  145.3640 O   0  0  0  0  0  1  0  0  0  0  0  0
  194.6110  176.8550  145.9440 C   0  0  0  0  0  1  0  0  0  0  0  0
  193.3930  176.9230  145.0450 C   0  0  0  0  0  2  0  0  0  0  0  0
  1 10  1  1  0  0  0
  1  2  1  0  0  0  0
  1 11  1  0  0  0  0
  2 19  1  0  0  0  0
  2 12  1  0  0  0  0
  3 18  1  0  0  0  0
  4 17  1  0  0  0  0
  5 10  1  0  0  0  0
  5 19  1  0  0  0  0
  6 13  1  0  0  0  0
  7  5  1  0  0  0  0
  8 18  1  0  0  0  0
  9  6  2  0  0  0  0
 11 16  1  0  0  0  0
 11  3  1  0  0  0  0
 12  3  1  0  0  0  0
 12 20  1  0  0  0  0
 14 16  2  0  0  0  0
 15  7  1  0  0  0  0
 15  4  1  0  0  0  0
 16  6  1  0  0  0  0
 17 19  1  0  0  0  0
 18 13  1  0  0  0  0
 20 22  1  0  0  0  0
 22 21  1  0  0  0  0
 23 20  1  0  0  0  0
 23 24  1  0  0  0  0
 25 24  1  0  0  0  0
 27 23  1  0  0  0  0
 27 26  1  0  0  0  0
M  END
>  <MODEL>
5

>  <REMARK>
 VINA RESULT:      -6.0      1.683      2.103
  Name = 
  5 active torsions:
  status: ('A' for Active; 'I' for Inactive)
    1  A    between atoms: C_4  and  C_17
    2  A    between atoms: C_14  and  C_16
    3  A    between atoms: C_14  and  C_17
    4  A    between atoms: C_14  and  C_19
    5  A    between atoms: C_17  and  C_21
                            x       y       z     vdW  Elec       q    Type
                         _______ _______ _______ _____ _____    ______ ____

>  <TORSDO>
F 5

$$$$
=
 OpenBabel11052418333D

 27 30  0  0  1  0  0  0  0  0999 V2000
  188.4080  176.1090  144.5810 C   0  0  1  0  0  3  0  0  0  0  0  0
  189.2760  175.1950  143.7320 C   0  0  1  0  0  3  0  0  0  0  0  0
  187.2980  175.8000  142.4130 N   0  0  2  0  0  0  0  0  0  0  0  0
  193.0290  175.9080  143.7600 C   0  0  0  0  0  2  0  0  0  0  0  0
  190.5660  177.2220  144.2680 C   0  0  2  0  0  3  0  0  0  0  0  0
  186.0570  178.4560  142.9010 C   0  0  0  0  0  0  0  0  0  0  0  0
  191.5030  177.0700  145.4660 C   0  0  0  0  0  2  0  0  0  0  0  0
  188.6390  177.7050  141.8420 O   0  0  0  0  0  1  0  0  0  0  0  0
  185.8610  179.6770  143.1380 O   0  0  0  0  0  0  0  0  0  0  0  0
  189.1480  177.4310  144.7480 C   0  0  0  0  0  2  0  0  0  0  0  0
  187.0950  176.2470  143.8020 C   0  0  2  0  0  3  0  0  0  0  0  0
  188.4070  174.8400  142.5150 C   0  0  1  0  0  3  0  0  0  0  0  0
  186.0630  177.8800  141.2080 S   0  0  0  0  0  0  0  0  0  0  0  0
  185.9080  177.8130  145.1640 O   0  0  0  0  0  0  0  0  0  0  0  0
  192.9410  176.7910  145.0130 C   0  0  0  0  0  2  0  0  0  0  0  0
  186.3070  177.5220  144.0060 C   0  0  0  0  0  0  0  0  0  0  0  0
  191.7710  175.0670  143.5720 C   0  0  0  0  0  2  0  0  0  0  0  0
  187.5680  176.8940  141.4550 C   0  0  2  0  0  3  0  0  0  0  0  0
  190.5430  175.9670  143.3850 C   0  0  1  0  0  3  0  0  0  0  0  0
  189.1130  174.4660  141.1930 C   0  0  2  0  0  3  0  0  0  0  0  0
  188.3640  174.5410  138.9220 O   0  0  0  0  0  1  0  0  0  0  0  0
  188.0950  173.9730  140.1660 C   0  0  0  0  0  2  0  0  0  0  0  0
  190.2240  173.4310  141.4370 C   0  0  2  0  0  3  0  0  0  0  0  0
  191.2670  173.4020  140.3200 C   0  0  0  0  0  2  0  0  0  0  0  0
  191.1620  172.2360  139.5600 O   0  0  0  0  0  1  0  0  0  0  0  0
  190.2610  171.5980  143.1360 C   0  0  0  0  0  1  0  0  0  0  0  0
  189.6990  172.0430  141.8000 C   0  0  0  0  0  2  0  0  0  0  0  0
  1 10  1  6  0  0  0
  2  1  1  0  0  0  0
  3 12  1  0  0  0  0
  3 11  1  0  0  0  0
  4 15  1  0  0  0  0
  5 10  1  0  0  0  0
  5  7  1  0  0  0  0
  6  9  2  0  0  0  0
  6 16  1  0  0  0  0
 11 16  1  0  0  0  0
 11  1  1  0  0  0  0
 12  2  1  0  0  0  0
 13 18  1  0  0  0  0
 13  6  1  0  0  0  0
 15  7  1  0  0  0  0
 16 14  2  0  0  0  0
 17  4  1  0  0  0  0
 18  8  1  0  0  0  0
 18  3  1  0  0  0  0
 19 17  1  0  0  0  0
 19  2  1  0  0  0  0
 19  5  1  0  0  0  0
 20 23  1  0  0  0  0
 20 12  1  0  0  0  0
 21 22  1  0  0  0  0
 22 20  1  0  0  0  0
 23 27  1  0  0  0  0
 24 23  1  0  0  0  0
 25 24  1  0  0  0  0
 27 26  1  0  0  0  0
M  END
>  <MODEL>
6

>  <REMARK>
 VINA RESULT:      -5.9      2.738      4.752
  Name = 
  5 active torsions:
  status: ('A' for Active; 'I' for Inactive)
    1  A    between atoms: C_4  and  C_17
    2  A    between atoms: C_14  and  C_16
    3  A    between atoms: C_14  and  C_17
    4  A    between atoms: C_14  and  C_19
    5  A    between atoms: C_17  and  C_21
                            x       y       z     vdW  Elec       q    Type
                         _______ _______ _______ _____ _____    ______ ____

>  <TORSDO>
F 5

$$$$
=
 OpenBabel11052418333D

 27 30  0  0  1  0  0  0  0  0999 V2000
  190.5840  173.1600  143.6750 C   0  0  1  0  0  3  0  0  0  0  0  0
  189.5870  174.2570  143.3460 C   0  0  1  0  0  3  0  0  0  0  0  0
  191.3800  175.2470  144.6940 N   0  0  2  0  0  0  0  0  0  0  0  0
  188.3120  174.3710  139.7450 C   0  0  0  0  0  2  0  0  0  0  0  0
  190.5170  173.3880  141.2390 C   0  0  2  0  0  3  0  0  0  0  0  0
  194.1050  174.0840  144.4570 C   0  0  0  0  0  0  0  0  0  0  0  0
  189.6460  172.3330  140.5580 C   0  0  0  0  0  2  0  0  0  0  0  0
  192.4400  175.4850  142.5560 O   0  0  0  0  0  1  0  0  0  0  0  0
  195.1690  173.5670  144.0260 O   0  0  0  0  0  0  0  0  0  0  0  0
  191.2840  172.7630  142.3810 C   0  0  0  0  0  2  0  0  0  0  0  0
  191.5330  173.7820  144.7070 C   0  0  2  0  0  3  0  0  0  0  0  0
  190.0030  175.4500  144.2210 C   0  0  1  0  0  3  0  0  0  0  0  0
  194.0130  175.8570  144.6670 S   0  0  0  0  0  0  0  0  0  0  0  0
  193.1160  172.0160  145.0080 O   0  0  0  0  0  0  0  0  0  0  0  0
  188.8030  172.9500  139.4340 C   0  0  0  0  0  2  0  0  0  0  0  0
  192.9430  173.2380  144.7580 C   0  0  0  0  0  0  0  0  0  0  0  0
  188.2780  174.6400  141.2460 C   0  0  0  0  0  2  0  0  0  0  0  0
  192.3840  175.9560  143.8710 C   0  0  2  0  0  3  0  0  0  0  0  0
  189.6840  174.5240  141.8490 C   0  0  1  0  0  3  0  0  0  0  0  0
  189.6470  176.8740  143.7400 C   0  0  2  0  0  3  0  0  0  0  0  0
  190.9590  178.8720  143.8390 O   0  0  0  0  0  1  0  0  0  0  0  0
  190.3170  177.9200  144.6300 C   0  0  0  0  0  2  0  0  0  0  0  0
  188.1220  177.0680  143.6810 C   0  0  2  0  0  3  0  0  0  0  0  0
  187.6900  178.0640  142.6050 C   0  0  0  0  0  2  0  0  0  0  0  0
  188.6280  178.1300  141.5720 O   0  0  0  0  0  1  0  0  0  0  0  0
  186.0330  176.9190  145.0440 C   0  0  0  0  0  1  0  0  0  0  0  0
  187.4870  177.3470  145.0430 C   0  0  0  0  0  2  0  0  0  0  0  0
  1 10  1  6  0  0  0
  1 11  1  0  0  0  0
  2  1  1  0  0  0  0
  2 12  1  0  0  0  0
  3 11  1  0  0  0  0
  4 17  1  0  0  0  0
  5 19  1  0  0  0  0
  5 10  1  0  0  0  0
  6 13  1  0  0  0  0
  6 16  1  0  0  0  0
  7  5  1  0  0  0  0
  8 18  1  0  0  0  0
  9  6  2  0  0  0  0
 11 16  1  0  0  0  0
 12  3  1  0  0  0  0
 15  4  1  0  0  0  0
 15  7  1  0  0  0  0
 16 14  2  0  0  0  0
 17 19  1  0  0  0  0
 18 13  1  0  0  0  0
 18  3  1  0  0  0  0
 19  2  1  0  0  0  0
 20 12  1  0  0  0  0
 20 22  1  0  0  0  0
 21 22  1  0  0  0  0
 23 20  1  0  0  0  0
 23 27  1  0  0  0  0
 24 23  1  0  0  0  0
 25 24  1  0  0  0  0
 27 26  1  0  0  0  0
M  END
>  <MODEL>
7

>  <REMARK>
 VINA RESULT:      -5.6      3.261      6.316
  Name = 
  5 active torsions:
  status: ('A' for Active; 'I' for Inactive)
    1  A    between atoms: C_4  and  C_17
    2  A    between atoms: C_14  and  C_16
    3  A    between atoms: C_14  and  C_17
    4  A    between atoms: C_14  and  C_19
    5  A    between atoms: C_17  and  C_21
                            x       y       z     vdW  Elec       q    Type
                         _______ _______ _______ _____ _____    ______ ____

>  <TORSDO>
F 5

$$$$
=
 OpenBabel11052418333D

 27 30  0  0  1  0  0  0  0  0999 V2000
  191.3890  172.3320  144.3560 C   0  0  1  0  0  3  0  0  0  0  0  0
  192.3580  173.3320  144.9640 C   0  0  1  0  0  3  0  0  0  0  0  0
  192.9410  173.0570  142.5970 N   0  0  2  0  0  0  0  0  0  0  0  0
  190.8420  175.9900  147.2520 C   0  0  0  0  0  2  0  0  0  0  0  0
  190.0770  174.2370  145.1560 C   0  0  2  0  0  3  0  0  0  0  0  0
  190.7550  172.4190  140.6890 C   0  0  0  0  0  0  0  0  0  0  0  0
  189.4160  173.9880  146.5110 C   0  0  0  0  0  2  0  0  0  0  0  0
  191.2750  174.7570  142.3050 O   0  0  0  0  0  1  0  0  0  0  0  0
  189.6540  172.3680  140.0800 O   0  0  0  0  0  0  0  0  0  0  0  0
  190.0120  172.9830  144.3140 C   0  0  0  0  0  2  0  0  0  0  0  0
  191.9550  172.0270  142.9640 C   0  0  2  0  0  3  0  0  0  0  0  0
  193.4420  173.5370  143.8940 C   0  0  1  0  0  3  0  0  0  0  0  0
  192.0420  173.5050  140.0890 S   0  0  0  0  0  0  0  0  0  0  0  0
  190.2670  170.5810  142.0820 O   0  0  0  0  0  0  0  0  0  0  0  0
  189.5230  175.2230  147.4150 C   0  0  0  0  0  2  0  0  0  0  0  0
  190.9650  171.6120  141.8970 C   0  0  0  0  0  0  0  0  0  0  0  0
  191.9450  175.1020  146.6850 C   0  0  0  0  0  2  0  0  0  0  0  0
  192.4010  174.1430  141.7510 C   0  0  2  0  0  3  0  0  0  0  0  0
  191.5640  174.5910  145.2900 C   0  0  1  0  0  3  0  0  0  0  0  0
  194.2150  174.8740  143.8780 C   0  0  2  0  0  3  0  0  0  0  0  0
  195.1350  176.2980  142.1890 O   0  0  0  0  0  1  0  0  0  0  0  0
  195.0810  174.9740  142.6230 C   0  0  0  0  0  2  0  0  0  0  0  0
  195.0480  175.0430  145.1600 C   0  0  2  0  0  3  0  0  0  0  0  0
  194.9660  176.4540  145.7420 C   0  0  0  0  0  2  0  0  0  0  0  0
  193.9850  177.2100  145.0970 O   0  0  0  0  0  1  0  0  0  0  0  0
  196.8120  173.5880  146.1690 C   0  0  0  0  0  1  0  0  0  0  0  0
  196.4830  174.5330  145.0300 C   0  0  0  0  0  2  0  0  0  0  0  0
  1 10  1  6  0  0  0
  1  2  1  0  0  0  0
  2 19  1  0  0  0  0
  3 11  1  0  0  0  0
  3 12  1  0  0  0  0
  4 15  1  0  0  0  0
  5 19  1  0  0  0  0
  5  7  1  0  0  0  0
  6 16  1  0  0  0  0
  7 15  1  0  0  0  0
  9  6  2  0  0  0  0
 10  5  1  0  0  0  0
 11  1  1  0  0  0  0
 12  2  1  0  0  0  0
 13  6  1  0  0  0  0
 13 18  1  0  0  0  0
 16 14  2  0  0  0  0
 16 11  1  0  0  0  0
 17  4  1  0  0  0  0
 18  8  1  0  0  0  0
 18  3  1  0  0  0  0
 19 17  1  0  0  0  0
 20 12  1  0  0  0  0
 20 23  1  0  0  0  0
 21 22  1  0  0  0  0
 22 20  1  0  0  0  0
 23 24  1  0  0  0  0
 25 24  1  0  0  0  0
 27 23  1  0  0  0  0
 27 26  1  0  0  0  0
M  END
>  <MODEL>
8

>  <REMARK>
 VINA RESULT:      -5.5      5.067      7.198
  Name = 
  5 active torsions:
  status: ('A' for Active; 'I' for Inactive)
    1  A    between atoms: C_4  and  C_17
    2  A    between atoms: C_14  and  C_16
    3  A    between atoms: C_14  and  C_17
    4  A    between atoms: C_14  and  C_19
    5  A    between atoms: C_17  and  C_21
                            x       y       z     vdW  Elec       q    Type
                         _______ _______ _______ _____ _____    ______ ____

>  <TORSDO>
F 5

$$$$
=
 OpenBabel11052418333D

 27 30  0  0  1  0  0  0  0  0999 V2000
  192.8510  176.2630  144.1150 C   0  0  1  0  0  3  0  0  0  0  0  0
  191.5290  175.6110  143.7450 C   0  0  1  0  0  3  0  0  0  0  0  0
  193.2650  174.6880  142.2780 N   0  0  2  0  0  0  0  0  0  0  0  0
  189.3260  174.4680  146.6490 C   0  0  0  0  0  2  0  0  0  0  0  0
  192.0440  175.0590  146.0880 C   0  0  2  0  0  3  0  0  0  0  0  0
  196.0290  174.4840  143.3480 C   0  0  0  0  0  0  0  0  0  0  0  0
  191.3600  175.9650  147.1100 C   0  0  0  0  0  2  0  0  0  0  0  0
  193.5720  173.1680  144.1070 O   0  0  0  0  0  1  0  0  0  0  0  0
  197.0330  174.3110  144.0890 O   0  0  0  0  0  0  0  0  0  0  0  0
  193.2460  175.7630  145.4990 C   0  0  0  0  0  2  0  0  0  0  0  0
  193.8290  175.8310  143.0160 C   0  0  2  0  0  3  0  0  0  0  0  0
  191.8120  174.8520  142.4390 C   0  0  1  0  0  3  0  0  0  0  0  0
  195.4940  173.1610  142.2710 S   0  0  0  0  0  0  0  0  0  0  0  0
  195.8710  176.7910  143.8060 O   0  0  0  0  0  0  0  0  0  0  0  0
  190.0970  175.3060  147.6790 C   0  0  0  0  0  2  0  0  0  0  0  0
  195.2920  175.7530  143.3920 C   0  0  0  0  0  0  0  0  0  0  0  0
  189.6350  174.9050  145.2210 C   0  0  0  0  0  2  0  0  0  0  0  0
  193.7510  173.3690  142.7360 C   0  0  2  0  0  3  0  0  0  0  0  0
  191.1250  174.7140  144.9080 C   0  0  1  0  0  3  0  0  0  0  0  0
  190.9430  173.6200  142.1030 C   0  0  2  0  0  3  0  0  0  0  0  0
  191.4300  171.6910  140.7730 O   0  0  0  0  0  1  0  0  0  0  0  0
  191.2990  173.0780  140.7190 C   0  0  0  0  0  2  0  0  0  0  0  0
  189.4470  173.9560  142.2160 C   0  0  2  0  0  3  0  0  0  0  0  0
  188.5690  172.7170  142.3920 C   0  0  0  0  0  2  0  0  0  0  0  0
  189.0370  171.9100  143.4310 O   0  0  0  0  0  1  0  0  0  0  0  0
  188.1650  176.0440  141.7200 C   0  0  0  0  0  1  0  0  0  0  0  0
  188.9450  174.8920  141.1170 C   0  0  0  0  0  2  0  0  0  0  0  0
  1 10  1  1  0  0  0
  2  1  1  0  0  0  0
  2 19  1  0  0  0  0
  3 12  1  0  0  0  0
  3 18  1  0  0  0  0
  3 11  1  0  0  0  0
  4 15  1  0  0  0  0
  5  7  1  0  0  0  0
  6 16  1  0  0  0  0
  6  9  2  0  0  0  0
  7 15  1  0  0  0  0
 10  5  1  0  0  0  0
 11 16  1  0  0  0  0
 11  1  1  0  0  0  0
 12  2  1  0  0  0  0
 13 18  1  0  0  0  0
 13  6  1  0  0  0  0
 16 14  2  0  0  0  0
 17  4  1  0  0  0  0
 18  8  1  0  0  0  0
 19 17  1  0  0  0  0
 19  5  1  0  0  0  0
 20 23  1  0  0  0  0
 20 12  1  0  0  0  0
 22 21  1  0  0  0  0
 22 20  1  0  0  0  0
 23 24  1  0  0  0  0
 24 25  1  0  0  0  0
 27 26  1  0  0  0  0
 27 23  1  0  0  0  0
M  END
>  <MODEL>
9

>  <REMARK>
 VINA RESULT:      -5.5      4.472      7.582
  Name = 
  5 active torsions:
  status: ('A' for Active; 'I' for Inactive)
    1  A    between atoms: C_4  and  C_17
    2  A    between atoms: C_14  and  C_16
    3  A    between atoms: C_14  and  C_17
    4  A    between atoms: C_14  and  C_19
    5  A    between atoms: C_17  and  C_21
                            x       y       z     vdW  Elec       q    Type
                         _______ _______ _______ _____ _____    ______ ____

>  <TORSDO>
F 5

$$$$
