=
 OpenBabel11052420093D

 37 43  0  0  1  0  0  0  0  0999 V2000
  195.3290  175.3780  142.7390 O   0  0  0  0  0  1  0  0  0  0  0  0
  192.2480  176.2410  146.7580 C   0  0  0  0  0  2  0  0  0  0  0  0
  192.8690  174.3160  145.1710 C   0  0  0  0  0  2  0  0  0  0  0  0
  190.0270  176.0990  145.2290 C   0  0  2  0  0  3  0  0  0  0  0  0
  191.5440  177.6820  142.6960 O   0  0  0  0  0  1  0  0  0  0  0  0
  188.8180  176.9780  144.9460 C   0  0  0  0  0  2  0  0  0  0  0  0
  193.0680  175.7920  145.5540 C   0  0  1  0  0  0  0  0  0  0  0  0
  191.9790  176.5520  143.3880 C   0  0  1  0  0  0  0  0  0  0  0  0
  194.1200  175.3750  143.4320 C   0  0  2  0  0  0  0  0  0  0  0  0
  189.9510  176.7620  147.6410 C   0  0  0  0  0  2  0  0  0  0  0  0
  192.8120  176.9790  144.5710 C   0  0  2  0  0  3  0  0  0  0  0  0
  194.1410  176.3500  144.6010 C   0  0  1  0  0  3  0  0  0  0  0  0
  190.8250  176.7610  146.3970 C   0  0  1  0  0  3  0  0  0  0  0  0
  190.7570  175.7350  143.8890 C   0  0  2  0  0  3  0  0  0  0  0  0
  193.8460  174.0230  144.0480 C   0  0  0  0  0  2  0  0  0  0  0  0
  188.0440  177.3270  146.1940 C   0  0  0  0  0  0  0  0  0  0  0  0
  192.9510  175.7590  142.5170 C   0  0  0  0  0  2  0  0  0  0  0  0
  188.6090  177.2830  147.3700 N   0  0  0  0  0  0  0  0  0  0  0  0
  185.6740  177.4700  146.9890 C   0  0  0  0  0  3  0  0  0  0  0  0
  186.6650  177.8440  146.0660 C   0  0  0  0  0  0  0  0  0  0  0  0
  186.3280  178.7250  145.0260 C   0  0  0  0  0  3  0  0  0  0  0  0
  184.7130  180.0700  143.9030 F   0  0  0  0  0  0  0  0  0  0  0  0
  184.0480  178.8410  145.8330 C   0  0  0  0  0  3  0  0  0  0  0  0
  185.0260  179.2200  144.9100 C   0  0  0  0  0  0  0  0  0  0  0  0
  184.3730  177.9650  146.8730 C   0  0  0  0  0  3  0  0  0  0  0  0
  190.0230  174.8730  142.8480 C   0  0  2  0  0  3  0  0  0  0  0  0
  188.5540  175.2340  142.5940 C   0  0  0  0  0  2  0  0  0  0  0  0
  188.3360  176.0040  141.2950 C   0  0  2  0  0  3  0  0  0  0  0  0
  186.2030  176.5070  142.3580 O   0  0  0  0  0  1  0  0  0  0  0  0
  188.2390  177.4830  141.6040 C   0  0  0  0  0  2  0  0  0  0  0  0
  186.9860  176.7240  141.2200 C   0  0  1  0  0  3  0  0  0  0  0  0
  190.3790  173.3780  142.8750 C   0  0  2  0  0  3  0  0  0  0  0  0
  190.7870  172.8640  141.4910 C   0  0  2  0  0  3  0  0  0  0  0  0
  192.0750  172.0560  141.5280 C   0  0  0  0  0  1  0  0  0  0  0  0
  190.9390  173.9290  140.6210 F   0  0  0  0  0  0  0  0  0  0  0  0
  189.8190  172.2510  144.7050 C   0  0  0  0  0  1  0  0  0  0  0  0
  189.3570  172.6010  143.4350 O   0  0  0  0  0  0  0  0  0  0  0  0
  4  6  1  6  0  0  0
  4 13  1  0  0  0  0
  6 16  1  0  0  0  0
  7  3  1  6  0  0  0
  7  2  1  0  0  0  0
  8  5  1  6  0  0  0
  8 14  1  0  0  0  0
  8 11  1  0  0  0  0
  9  1  1  6  0  0  0
  9 15  1  0  0  0  0
  9 12  1  0  0  0  0
 11 12  1  0  0  0  0
 11  7  1  0  0  0  0
 12  7  1  0  0  0  0
 13  2  1  0  0  0  0
 13 10  1  0  0  0  0
 14  4  1  0  0  0  0
 15  3  1  0  0  0  0
 16 18  2  0  0  0  0
 17  8  1  0  0  0  0
 17  9  1  0  0  0  0
 18 10  1  0  0  0  0
 20 16  1  0  0  0  0
 20 19  2  0  0  0  0
 21 20  1  0  0  0  0
 22 24  1  0  0  0  0
 23 25  2  0  0  0  0
 24 21  2  0  0  0  0
 24 23  1  0  0  0  0
 25 19  1  0  0  0  0
 26 32  1  0  0  0  0
 26 14  1  0  0  0  0
 27 26  1  0  0  0  0
 28 30  1  0  0  0  0
 28 27  1  0  0  0  0
 31 28  1  0  0  0  0
 31 30  1  0  0  0  0
 31 29  1  0  0  0  0
 32 37  1  0  0  0  0
 33 34  1  0  0  0  0
 33 32  1  0  0  0  0
 35 33  1  0  0  0  0
 37 36  1  0  0  0  0
M  END
>  <MODEL>
1

>  <REMARK>
 VINA RESULT:      -8.1      0.000      0.000
  Name = 
  7 active torsions:
  status: ('A' for Active; 'I' for Inactive)
    1  A    between atoms: C_1  and  C_5
    2  A    between atoms: C_1  and  C_36
    3  A    between atoms: C_6  and  C_31
    4  A    between atoms: C_11  and  C_33
    5  A    between atoms: O_27  and  C_33
    6  A    between atoms: C_29  and  C_36
    7  A    between atoms: C_33  and  C_36
                            x       y       z     vdW  Elec       q    Type
                         _______ _______ _______ _____ _____    ______ ____

>  <TORSDO>
F 7

$$$$
=
 OpenBabel11052420093D

 37 43  0  0  1  0  0  0  0  0999 V2000
  192.7310  170.3810  142.6040 O   0  0  0  0  0  1  0  0  0  0  0  0
  189.3490  173.6100  140.4770 C   0  0  0  0  0  2  0  0  0  0  0  0
  191.8350  173.5620  141.1310 C   0  0  0  0  0  2  0  0  0  0  0  0
  189.3400  175.2100  142.6520 C   0  0  2  0  0  3  0  0  0  0  0  0
  189.5150  172.5780  144.7170 O   0  0  0  0  0  1  0  0  0  0  0  0
  188.2980  175.7830  143.6030 C   0  0  0  0  0  2  0  0  0  0  0  0
  190.4900  172.8170  141.1040 C   0  0  1  0  0  0  0  0  0  0  0  0
  190.3470  172.8830  143.6400 C   0  0  1  0  0  0  0  0  0  0  0  0
  192.0500  171.5880  142.4600 C   0  0  2  0  0  0  0  0  0  0  0  0
  187.7810  175.5610  140.7250 C   0  0  0  0  0  2  0  0  0  0  0  0
  189.7870  172.2620  142.3850 C   0  0  2  0  0  3  0  0  0  0  0  0
  190.7570  171.4130  141.6760 C   0  0  1  0  0  3  0  0  0  0  0  0
  188.5740  174.5090  141.4860 C   0  0  1  0  0  3  0  0  0  0  0  0
  190.4320  174.4230  143.4570 C   0  0  2  0  0  3  0  0  0  0  0  0
  192.8630  172.5840  141.6670 C   0  0  0  0  0  2  0  0  0  0  0  0
  187.2410  176.5910  142.8930 C   0  0  0  0  0  0  0  0  0  0  0  0
  191.6980  172.1960  143.8240 C   0  0  0  0  0  2  0  0  0  0  0  0
  186.9950  176.4120  141.6240 N   0  0  0  0  0  0  0  0  0  0  0  0
  186.2630  178.8600  143.3050 C   0  0  0  0  0  3  0  0  0  0  0  0
  186.3890  177.5110  143.6770 C   0  0  0  0  0  0  0  0  0  0  0  0
  185.6850  177.0460  144.8000 C   0  0  0  0  0  3  0  0  0  0  0  0
  184.1990  177.4550  146.6180 F   0  0  0  0  0  0  0  0  0  0  0  0
  184.7560  179.2530  145.1580 C   0  0  0  0  0  3  0  0  0  0  0  0
  184.8740  177.9140  145.5370 C   0  0  0  0  0  0  0  0  0  0  0  0
  185.4510  179.7260  144.0410 C   0  0  0  0  0  3  0  0  0  0  0  0
  191.3380  175.1900  144.4350 C   0  0  2  0  0  3  0  0  0  0  0  0
  190.7470  175.4640  145.8230 C   0  0  0  0  0  2  0  0  0  0  0  0
  191.8030  175.5870  146.9170 C   0  0  2  0  0  3  0  0  0  0  0  0
  190.3740  177.4340  147.6070 O   0  0  0  0  0  1  0  0  0  0  0  0
  191.1680  175.2860  148.2580 C   0  0  0  0  0  2  0  0  0  0  0  0
  191.5330  176.7150  147.9160 C   0  0  1  0  0  3  0  0  0  0  0  0
  192.1760  176.3120  143.8000 C   0  0  2  0  0  3  0  0  0  0  0  0
  193.6680  175.9660  143.7760 C   0  0  2  0  0  3  0  0  0  0  0  0
  194.2630  176.0570  142.3790 C   0  0  0  0  0  1  0  0  0  0  0  0
  193.8610  174.6910  144.2750 F   0  0  0  0  0  0  0  0  0  0  0  0
  191.1560  178.2610  143.4920 C   0  0  0  0  0  1  0  0  0  0  0  0
  191.9420  177.5540  144.4040 O   0  0  0  0  0  0  0  0  0  0  0  0
  2 13  1  0  0  0  0
  3 15  1  0  0  0  0
  4 14  1  0  0  0  0
  4  6  1  1  0  0  0
  7  2  1  6  0  0  0
  7  3  1  0  0  0  0
  7 12  1  0  0  0  0
  7 11  1  0  0  0  0
  8 17  1  0  0  0  0
  8  5  1  1  0  0  0
  9  1  1  1  0  0  0
  9 17  1  0  0  0  0
 10 13  1  0  0  0  0
 10 18  1  0  0  0  0
 11  8  1  0  0  0  0
 12 11  1  0  0  0  0
 12  9  1  0  0  0  0
 13  4  1  0  0  0  0
 14  8  1  0  0  0  0
 14 26  1  0  0  0  0
 15  9  1  0  0  0  0
 16  6  1  0  0  0  0
 16 20  1  0  0  0  0
 18 16  2  0  0  0  0
 19 20  2  0  0  0  0
 19 25  1  0  0  0  0
 20 21  1  0  0  0  0
 21 24  2  0  0  0  0
 23 24  1  0  0  0  0
 24 22  1  0  0  0  0
 25 23  2  0  0  0  0
 26 27  1  0  0  0  0
 27 28  1  0  0  0  0
 28 31  1  0  0  0  0
 28 30  1  0  0  0  0
 29 31  1  0  0  0  0
 31 30  1  0  0  0  0
 32 37  1  0  0  0  0
 32 26  1  0  0  0  0
 33 32  1  0  0  0  0
 33 35  1  0  0  0  0
 34 33  1  0  0  0  0
 36 37  1  0  0  0  0
M  END
>  <MODEL>
2

>  <REMARK>
 VINA RESULT:      -7.9      2.252      4.943
  Name = 
  7 active torsions:
  status: ('A' for Active; 'I' for Inactive)
    1  A    between atoms: C_1  and  C_5
    2  A    between atoms: C_1  and  C_36
    3  A    between atoms: C_6  and  C_31
    4  A    between atoms: C_11  and  C_33
    5  A    between atoms: O_27  and  C_33
    6  A    between atoms: C_29  and  C_36
    7  A    between atoms: C_33  and  C_36
                            x       y       z     vdW  Elec       q    Type
                         _______ _______ _______ _____ _____    ______ ____

>  <TORSDO>
F 7

$$$$
=
 OpenBabel11052420093D

 37 43  0  0  1  0  0  0  0  0999 V2000
  196.2820  174.6410  143.4590 O   0  0  0  0  0  1  0  0  0  0  0  0
  192.7550  176.1690  146.8670 C   0  0  0  0  0  2  0  0  0  0  0  0
  193.5610  173.9960  145.7550 C   0  0  0  0  0  2  0  0  0  0  0  0
  190.7260  175.6870  145.1520 C   0  0  2  0  0  3  0  0  0  0  0  0
  192.5210  176.8020  142.5520 O   0  0  0  0  0  1  0  0  0  0  0  0
  189.5550  176.4660  144.5720 C   0  0  0  0  0  2  0  0  0  0  0  0
  193.7090  175.5220  145.8710 C   0  0  1  0  0  0  0  0  0  0  0  0
  192.8770  175.8330  143.4910 C   0  0  1  0  0  0  0  0  0  0  0  0
  195.0010  174.7390  143.9990 C   0  0  2  0  0  0  0  0  0  0  0  0
  190.3700  176.7900  147.3700 C   0  0  0  0  0  2  0  0  0  0  0  0
  193.5660  176.4960  144.6570 C   0  0  2  0  0  3  0  0  0  0  0  0
  194.8840  175.9170  144.9570 C   0  0  1  0  0  3  0  0  0  0  0  0
  191.3810  176.5760  146.2550 C   0  0  1  0  0  3  0  0  0  0  0  0
  191.6070  175.0950  143.9960 C   0  0  2  0  0  3  0  0  0  0  0  0
  194.6610  173.5210  144.8260 C   0  0  0  0  0  2  0  0  0  0  0  0
  188.6410  177.0250  145.6350 C   0  0  0  0  0  0  0  0  0  0  0  0
  193.9450  174.9150  142.9010 C   0  0  0  0  0  2  0  0  0  0  0  0
  189.0660  177.2170  146.8540 N   0  0  0  0  0  0  0  0  0  0  0  0
  187.0460  178.0370  143.9910 C   0  0  0  0  0  3  0  0  0  0  0  0
  187.2840  177.4740  145.2560 C   0  0  0  0  0  0  0  0  0  0  0  0
  186.2130  177.3360  146.1520 C   0  0  0  0  0  3  0  0  0  0  0  0
  183.9020  177.6150  146.6630 F   0  0  0  0  0  0  0  0  0  0  0  0
  184.7030  178.3130  144.5310 C   0  0  0  0  0  3  0  0  0  0  0  0
  184.9290  177.7540  145.7910 C   0  0  0  0  0  0  0  0  0  0  0  0
  185.7630  178.4550  143.6310 C   0  0  0  0  0  3  0  0  0  0  0  0
  191.0000  174.0350  143.0610 C   0  0  2  0  0  3  0  0  0  0  0  0
  189.7790  174.4790  142.2470 C   0  0  0  0  0  2  0  0  0  0  0  0
  189.7460  173.8940  140.8380 C   0  0  2  0  0  3  0  0  0  0  0  0
  187.6630  172.9350  141.6600 O   0  0  0  0  0  1  0  0  0  0  0  0
  188.5680  174.4750  140.0860 C   0  0  0  0  0  2  0  0  0  0  0  0
  188.5110  173.0350  140.5520 C   0  0  1  0  0  3  0  0  0  0  0  0
  190.9800  172.6060  143.6270 C   0  0  2  0  0  3  0  0  0  0  0  0
  191.7540  171.6290  142.7370 C   0  0  2  0  0  3  0  0  0  0  0  0
  192.6460  170.6940  143.5380 C   0  0  0  0  0  1  0  0  0  0  0  0
  192.5240  172.3320  141.8290 F   0  0  0  0  0  0  0  0  0  0  0  0
  189.5410  172.1970  145.2690 C   0  0  0  0  0  1  0  0  0  0  0  0
  189.6780  172.1550  143.8800 O   0  0  0  0  0  0  0  0  0  0  0  0
  4  6  1  6  0  0  0
  4 13  1  0  0  0  0
  6 16  1  0  0  0  0
  7  3  1  6  0  0  0
  7  2  1  0  0  0  0
  8  5  1  6  0  0  0
  8 14  1  0  0  0  0
  8 11  1  0  0  0  0
  9  1  1  6  0  0  0
  9 15  1  0  0  0  0
  9 12  1  0  0  0  0
 11 12  1  0  0  0  0
 11  7  1  0  0  0  0
 12  7  1  0  0  0  0
 13  2  1  0  0  0  0
 13 10  1  0  0  0  0
 14  4  1  0  0  0  0
 15  3  1  0  0  0  0
 16 18  2  0  0  0  0
 17  8  1  0  0  0  0
 17  9  1  0  0  0  0
 18 10  1  0  0  0  0
 19 20  1  0  0  0  0
 20 16  1  0  0  0  0
 20 21  2  0  0  0  0
 23 24  2  0  0  0  0
 24 21  1  0  0  0  0
 24 22  1  0  0  0  0
 25 19  2  0  0  0  0
 25 23  1  0  0  0  0
 26 32  1  0  0  0  0
 26 14  1  0  0  0  0
 27 26  1  0  0  0  0
 28 27  1  0  0  0  0
 30 31  1  0  0  0  0
 30 28  1  0  0  0  0
 31 28  1  0  0  0  0
 31 29  1  0  0  0  0
 32 37  1  0  0  0  0
 33 34  1  0  0  0  0
 33 32  1  0  0  0  0
 35 33  1  0  0  0  0
 37 36  1  0  0  0  0
M  END
>  <MODEL>
3

>  <REMARK>
 VINA RESULT:      -7.8      1.546      1.937
  Name = 
  7 active torsions:
  status: ('A' for Active; 'I' for Inactive)
    1  A    between atoms: C_1  and  C_5
    2  A    between atoms: C_1  and  C_36
    3  A    between atoms: C_6  and  C_31
    4  A    between atoms: C_11  and  C_33
    5  A    between atoms: O_27  and  C_33
    6  A    between atoms: C_29  and  C_36
    7  A    between atoms: C_33  and  C_36
                            x       y       z     vdW  Elec       q    Type
                         _______ _______ _______ _____ _____    ______ ____

>  <TORSDO>
F 7

$$$$
=
 OpenBabel11052420093D

 37 43  0  0  1  0  0  0  0  0999 V2000
  196.4190  174.7270  143.1330 O   0  0  0  0  0  1  0  0  0  0  0  0
  193.0930  176.0450  146.8210 C   0  0  0  0  0  2  0  0  0  0  0  0
  193.8850  173.9310  145.5910 C   0  0  0  0  0  2  0  0  0  0  0  0
  190.9650  175.5450  145.2360 C   0  0  2  0  0  3  0  0  0  0  0  0
  192.5400  176.7900  142.5540 O   0  0  0  0  0  1  0  0  0  0  0  0
  189.7330  176.3030  144.7620 C   0  0  0  0  0  2  0  0  0  0  0  0
  193.9950  175.4570  145.7420 C   0  0  1  0  0  0  0  0  0  0  0  0
  192.9890  175.8080  143.4350 C   0  0  1  0  0  0  0  0  0  0  0  0
  195.1760  174.7680  143.7630 C   0  0  2  0  0  0  0  0  0  0  0  0
  190.7320  176.5740  147.5060 C   0  0  0  0  0  2  0  0  0  0  0  0
  193.7380  176.4590  144.5710 C   0  0  2  0  0  3  0  0  0  0  0  0
  195.0900  175.9140  144.7610 C   0  0  1  0  0  3  0  0  0  0  0  0
  191.6690  176.4240  146.3170 C   0  0  1  0  0  3  0  0  0  0  0  0
  191.7800  175.0150  144.0050 C   0  0  2  0  0  3  0  0  0  0  0  0
  194.9310  173.5180  144.5740 C   0  0  0  0  0  2  0  0  0  0  0  0
  188.8800  176.8020  145.9020 C   0  0  0  0  0  0  0  0  0  0  0  0
  194.0410  174.9410  142.7460 C   0  0  0  0  0  2  0  0  0  0  0  0
  189.3830  176.9740  147.0940 N   0  0  0  0  0  0  0  0  0  0  0  0
  186.4320  176.7380  146.4250 C   0  0  0  0  0  3  0  0  0  0  0  0
  187.4870  177.2180  145.6320 C   0  0  0  0  0  0  0  0  0  0  0  0
  187.2000  178.1070  144.5840 C   0  0  0  0  0  3  0  0  0  0  0  0
  185.6190  179.3650  143.3200 F   0  0  0  0  0  0  0  0  0  0  0  0
  184.8420  178.0230  145.1280 C   0  0  0  0  0  3  0  0  0  0  0  0
  185.8840  178.5060  144.3330 C   0  0  0  0  0  0  0  0  0  0  0  0
  185.1170  177.1380  146.1750 C   0  0  0  0  0  3  0  0  0  0  0  0
  191.1420  173.9630  143.0820 C   0  0  2  0  0  3  0  0  0  0  0  0
  191.9360  172.6640  142.8980 C   0  0  0  0  0  2  0  0  0  0  0  0
  191.1250  171.4100  143.2080 C   0  0  2  0  0  3  0  0  0  0  0  0
  191.8850  170.7890  140.9790 O   0  0  0  0  0  1  0  0  0  0  0  0
  192.0570  170.2190  143.2840 C   0  0  0  0  0  2  0  0  0  0  0  0
  191.1420  170.3670  142.0860 C   0  0  1  0  0  3  0  0  0  0  0  0
  190.4350  174.5300  141.8410 C   0  0  2  0  0  3  0  0  0  0  0  0
  188.9330  174.2330  141.8550 C   0  0  2  0  0  3  0  0  0  0  0  0
  188.0890  175.4980  141.8270 C   0  0  0  0  0  1  0  0  0  0  0  0
  188.6120  173.4930  142.9780 F   0  0  0  0  0  0  0  0  0  0  0  0
  190.0130  173.4920  139.9240 C   0  0  0  0  0  1  0  0  0  0  0  0
  191.0360  174.1060  140.6490 O   0  0  0  0  0  0  0  0  0  0  0  0
  4  6  1  6  0  0  0
  4 13  1  0  0  0  0
  6 16  1  0  0  0  0
  7  3  1  6  0  0  0
  7  2  1  0  0  0  0
  8  5  1  6  0  0  0
  8 14  1  0  0  0  0
  8 11  1  0  0  0  0
  9  1  1  6  0  0  0
  9 15  1  0  0  0  0
  9 12  1  0  0  0  0
 11 12  1  0  0  0  0
 11  7  1  0  0  0  0
 12  7  1  0  0  0  0
 13  2  1  0  0  0  0
 13 10  1  0  0  0  0
 14  4  1  0  0  0  0
 15  3  1  0  0  0  0
 16 18  2  0  0  0  0
 17  8  1  0  0  0  0
 17  9  1  0  0  0  0
 18 10  1  0  0  0  0
 20 16  1  0  0  0  0
 20 19  2  0  0  0  0
 21 20  1  0  0  0  0
 22 24  1  0  0  0  0
 23 25  2  0  0  0  0
 24 21  2  0  0  0  0
 24 23  1  0  0  0  0
 25 19  1  0  0  0  0
 26 14  1  0  0  0  0
 27 26  1  0  0  0  0
 27 28  1  0  0  0  0
 28 30  1  0  0  0  0
 29 31  1  0  0  0  0
 31 28  1  0  0  0  0
 31 30  1  0  0  0  0
 32 33  1  0  0  0  0
 32 26  1  0  0  0  0
 33 35  1  0  0  0  0
 34 33  1  0  0  0  0
 36 37  1  0  0  0  0
 37 32  1  0  0  0  0
M  END
>  <MODEL>
4

>  <REMARK>
 VINA RESULT:      -7.5      1.684      3.147
  Name = 
  7 active torsions:
  status: ('A' for Active; 'I' for Inactive)
    1  A    between atoms: C_1  and  C_5
    2  A    between atoms: C_1  and  C_36
    3  A    between atoms: C_6  and  C_31
    4  A    between atoms: C_11  and  C_33
    5  A    between atoms: O_27  and  C_33
    6  A    between atoms: C_29  and  C_36
    7  A    between atoms: C_33  and  C_36
                            x       y       z     vdW  Elec       q    Type
                         _______ _______ _______ _____ _____    ______ ____

>  <TORSDO>
F 7

$$$$
=
 OpenBabel11052420093D

 37 43  0  0  1  0  0  0  0  0999 V2000
  196.2070  174.7250  144.5310 O   0  0  0  0  0  1  0  0  0  0  0  0
  192.0500  176.4140  147.0320 C   0  0  0  0  0  2  0  0  0  0  0  0
  193.0260  174.1960  146.1730 C   0  0  0  0  0  2  0  0  0  0  0  0
  190.4430  175.9300  144.9160 C   0  0  2  0  0  3  0  0  0  0  0  0
  192.8010  176.9400  142.7620 O   0  0  0  0  0  1  0  0  0  0  0  0
  189.4510  176.7190  144.0740 C   0  0  0  0  0  2  0  0  0  0  0  0
  193.1860  175.7220  146.2870 C   0  0  1  0  0  0  0  0  0  0  0  0
  192.9130  175.9890  143.7750 C   0  0  1  0  0  0  0  0  0  0  0  0
  194.8410  174.8630  144.7680 C   0  0  2  0  0  0  0  0  0  0  0  0
  189.6300  177.0970  146.9760 C   0  0  0  0  0  2  0  0  0  0  0  0
  193.3410  176.6660  145.0530 C   0  0  2  0  0  3  0  0  0  0  0  0
  194.5440  176.0680  145.6510 C   0  0  1  0  0  3  0  0  0  0  0  0
  190.8590  176.8330  146.1200 C   0  0  1  0  0  3  0  0  0  0  0  0
  191.5430  175.2910  144.0000 C   0  0  2  0  0  3  0  0  0  0  0  0
  194.2940  173.6750  145.5230 C   0  0  0  0  0  2  0  0  0  0  0  0
  188.3380  177.3230  144.8940 C   0  0  0  0  0  0  0  0  0  0  0  0
  194.0610  175.0330  143.4590 C   0  0  0  0  0  2  0  0  0  0  0  0
  188.4850  177.5380  146.1730 N   0  0  0  0  0  0  0  0  0  0  0  0
  187.0800  177.9270  142.8150 C   0  0  0  0  0  3  0  0  0  0  0  0
  187.1120  177.7910  144.2130 C   0  0  0  0  0  0  0  0  0  0  0  0
  185.9590  178.0970  144.9530 C   0  0  0  0  0  3  0  0  0  0  0  0
  183.6910  178.8240  145.0310 F   0  0  0  0  0  0  0  0  0  0  0  0
  184.7770  178.6640  142.9170 C   0  0  0  0  0  3  0  0  0  0  0  0
  184.7980  178.5330  144.3080 C   0  0  0  0  0  0  0  0  0  0  0  0
  185.9190  178.3610  142.1710 C   0  0  0  0  0  3  0  0  0  0  0  0
  191.1330  174.2200  142.9740 C   0  0  2  0  0  3  0  0  0  0  0  0
  191.3740  174.5740  141.5020 C   0  0  0  0  0  2  0  0  0  0  0  0
  192.2090  173.5350  140.7590 C   0  0  2  0  0  3  0  0  0  0  0  0
  190.4300  173.7900  139.1150 O   0  0  0  0  0  1  0  0  0  0  0  0
  192.7540  174.1510  139.4880 C   0  0  0  0  0  2  0  0  0  0  0  0
  191.6340  173.1360  139.3980 C   0  0  1  0  0  3  0  0  0  0  0  0
  189.8360  173.4650  143.3070 C   0  0  2  0  0  3  0  0  0  0  0  0
  190.0580  172.3940  144.3790 C   0  0  2  0  0  3  0  0  0  0  0  0
  191.3200  171.5810  144.1350 C   0  0  0  0  0  1  0  0  0  0  0  0
  188.9680  171.5440  144.4260 F   0  0  0  0  0  0  0  0  0  0  0  0
  188.0400  173.6610  142.0150 C   0  0  0  0  0  1  0  0  0  0  0  0
  189.2230  172.9360  142.1640 O   0  0  0  0  0  0  0  0  0  0  0  0
  4  6  1  6  0  0  0
  4 13  1  0  0  0  0
  6 16  1  0  0  0  0
  7  3  1  6  0  0  0
  7  2  1  0  0  0  0
  8  5  1  6  0  0  0
  8 14  1  0  0  0  0
  8 11  1  0  0  0  0
  9  1  1  6  0  0  0
  9 15  1  0  0  0  0
  9 12  1  0  0  0  0
 11 12  1  0  0  0  0
 11  7  1  0  0  0  0
 12  7  1  0  0  0  0
 13 10  1  0  0  0  0
 13  2  1  0  0  0  0
 14  4  1  0  0  0  0
 15  3  1  0  0  0  0
 16 18  2  0  0  0  0
 17  8  1  0  0  0  0
 17  9  1  0  0  0  0
 18 10  1  0  0  0  0
 19 20  1  0  0  0  0
 20 16  1  0  0  0  0
 20 21  2  0  0  0  0
 23 24  2  0  0  0  0
 24 21  1  0  0  0  0
 24 22  1  0  0  0  0
 25 19  2  0  0  0  0
 25 23  1  0  0  0  0
 26 32  1  0  0  0  0
 26 14  1  0  0  0  0
 27 26  1  0  0  0  0
 28 27  1  0  0  0  0
 29 31  1  0  0  0  0
 30 28  1  0  0  0  0
 31 30  1  0  0  0  0
 31 28  1  0  0  0  0
 32 33  1  0  0  0  0
 33 35  1  0  0  0  0
 34 33  1  0  0  0  0
 36 37  1  0  0  0  0
 37 32  1  0  0  0  0
M  END
>  <MODEL>
5

>  <REMARK>
 VINA RESULT:      -7.5      1.772      2.778
  Name = 
  7 active torsions:
  status: ('A' for Active; 'I' for Inactive)
    1  A    between atoms: C_1  and  C_5
    2  A    between atoms: C_1  and  C_36
    3  A    between atoms: C_6  and  C_31
    4  A    between atoms: C_11  and  C_33
    5  A    between atoms: O_27  and  C_33
    6  A    between atoms: C_29  and  C_36
    7  A    between atoms: C_33  and  C_36
                            x       y       z     vdW  Elec       q    Type
                         _______ _______ _______ _____ _____    ______ ____

>  <TORSDO>
F 7

$$$$
=
 OpenBabel11052420093D

 37 43  0  0  1  0  0  0  0  0999 V2000
  192.8730  170.3300  143.5040 O   0  0  0  0  0  1  0  0  0  0  0  0
  189.8020  173.4240  140.7870 C   0  0  0  0  0  2  0  0  0  0  0  0
  192.1640  173.4430  141.8010 C   0  0  0  0  0  2  0  0  0  0  0  0
  189.4500  175.0960  142.8780 C   0  0  2  0  0  3  0  0  0  0  0  0
  189.3520  172.5390  145.0400 O   0  0  0  0  0  1  0  0  0  0  0  0
  188.2720  175.6810  143.6430 C   0  0  0  0  0  2  0  0  0  0  0  0
  190.8470  172.6730  141.6030 C   0  0  1  0  0  0  0  0  0  0  0  0
  190.3300  172.8220  144.0870 C   0  0  1  0  0  0  0  0  0  0  0  0
  192.2060  171.5190  143.2180 C   0  0  2  0  0  0  0  0  0  0  0  0
  188.1890  175.3530  140.7310 C   0  0  0  0  0  2  0  0  0  0  0  0
  189.9700  172.1490  142.7860 C   0  0  2  0  0  3  0  0  0  0  0  0
  191.0450  171.2940  142.2590 C   0  0  1  0  0  3  0  0  0  0  0  0
  188.8750  174.3430  141.6370 C   0  0  1  0  0  3  0  0  0  0  0  0
  190.4220  174.3560  143.8620 C   0  0  2  0  0  3  0  0  0  0  0  0
  193.1140  172.5020  142.5170 C   0  0  0  0  0  2  0  0  0  0  0  0
  187.3210  176.4460  142.7570 C   0  0  0  0  0  0  0  0  0  0  0  0
  191.6480  172.1660  144.4920 C   0  0  0  0  0  2  0  0  0  0  0  0
  187.2680  176.2200  141.4730 N   0  0  0  0  0  0  0  0  0  0  0  0
  186.6800  178.0770  144.5460 C   0  0  0  0  0  3  0  0  0  0  0  0
  186.3510  177.3760  143.3730 C   0  0  0  0  0  0  0  0  0  0  0  0
  185.0900  177.5800  142.7900 C   0  0  0  0  0  3  0  0  0  0  0  0
  182.9630  178.6530  142.7970 F   0  0  0  0  0  0  0  0  0  0  0  0
  184.5130  179.1560  144.5350 C   0  0  0  0  0  3  0  0  0  0  0  0
  184.1760  178.4640  143.3690 C   0  0  0  0  0  0  0  0  0  0  0  0
  185.7650  178.9620  145.1230 C   0  0  0  0  0  3  0  0  0  0  0  0
  191.1630  175.1720  144.9350 C   0  0  2  0  0  3  0  0  0  0  0  0
  192.6940  175.1610  144.8460 C   0  0  0  0  0  2  0  0  0  0  0  0
  193.3010  176.5500  144.6740 C   0  0  2  0  0  3  0  0  0  0  0  0
  194.8930  175.6750  146.2970 O   0  0  0  0  0  1  0  0  0  0  0  0
  194.6720  176.4200  144.0470 C   0  0  0  0  0  2  0  0  0  0  0  0
  194.5610  176.7840  145.5120 C   0  0  1  0  0  3  0  0  0  0  0  0
  190.5450  175.1100  146.3410 C   0  0  2  0  0  3  0  0  0  0  0  0
  189.7690  176.3870  146.6790 C   0  0  2  0  0  3  0  0  0  0  0  0
  188.2890  176.1240  146.9080 C   0  0  0  0  0  1  0  0  0  0  0  0
  189.9190  177.3100  145.6620 F   0  0  0  0  0  0  0  0  0  0  0  0
  191.6510  175.9830  148.0580 C   0  0  0  0  0  1  0  0  0  0  0  0
  191.4960  174.8060  147.3240 O   0  0  0  0  0  0  0  0  0  0  0  0
  2 13  1  0  0  0  0
  3 15  1  0  0  0  0
  4  6  1  1  0  0  0
  4 14  1  0  0  0  0
  7  2  1  6  0  0  0
  7  3  1  0  0  0  0
  7 12  1  0  0  0  0
  7 11  1  0  0  0  0
  8 17  1  0  0  0  0
  8  5  1  1  0  0  0
  9  1  1  1  0  0  0
  9 17  1  0  0  0  0
 10 18  1  0  0  0  0
 10 13  1  0  0  0  0
 11  8  1  0  0  0  0
 12 11  1  0  0  0  0
 12  9  1  0  0  0  0
 13  4  1  0  0  0  0
 14  8  1  0  0  0  0
 14 26  1  0  0  0  0
 15  9  1  0  0  0  0
 16 20  1  0  0  0  0
 16  6  1  0  0  0  0
 18 16  2  0  0  0  0
 19 25  1  0  0  0  0
 20 19  2  0  0  0  0
 21 24  2  0  0  0  0
 21 20  1  0  0  0  0
 22 24  1  0  0  0  0
 23 25  2  0  0  0  0
 24 23  1  0  0  0  0
 26 32  1  0  0  0  0
 27 26  1  0  0  0  0
 28 27  1  0  0  0  0
 28 31  1  0  0  0  0
 30 28  1  0  0  0  0
 30 31  1  0  0  0  0
 31 29  1  0  0  0  0
 32 33  1  0  0  0  0
 32 37  1  0  0  0  0
 33 34  1  0  0  0  0
 35 33  1  0  0  0  0
 37 36  1  0  0  0  0
M  END
>  <MODEL>
6

>  <REMARK>
 VINA RESULT:      -7.3      2.431      5.125
  Name = 
  7 active torsions:
  status: ('A' for Active; 'I' for Inactive)
    1  A    between atoms: C_1  and  C_5
    2  A    between atoms: C_1  and  C_36
    3  A    between atoms: C_6  and  C_31
    4  A    between atoms: C_11  and  C_33
    5  A    between atoms: O_27  and  C_33
    6  A    between atoms: C_29  and  C_36
    7  A    between atoms: C_33  and  C_36
                            x       y       z     vdW  Elec       q    Type
                         _______ _______ _______ _____ _____    ______ ____

>  <TORSDO>
F 7

$$$$
=
 OpenBabel11052420093D

 37 43  0  0  1  0  0  0  0  0999 V2000
  185.9650  179.0300  142.0590 O   0  0  0  0  0  1  0  0  0  0  0  0
  188.4680  174.6030  141.3300 C   0  0  0  0  0  2  0  0  0  0  0  0
  186.6240  175.5590  142.8440 C   0  0  0  0  0  2  0  0  0  0  0  0
  189.7960  174.8390  143.6700 C   0  0  2  0  0  3  0  0  0  0  0  0
  190.1380  178.1460  143.2620 O   0  0  0  0  0  1  0  0  0  0  0  0
  191.2470  174.8280  144.1270 C   0  0  0  0  0  2  0  0  0  0  0  0
  187.6360  175.8200  141.7160 C   0  0  1  0  0  0  0  0  0  0  0  0
  188.9680  177.3900  143.2050 C   0  0  1  0  0  0  0  0  0  0  0  0
  186.7050  177.9140  142.4470 C   0  0  2  0  0  0  0  0  0  0  0  0
  190.2950  173.0200  142.0250 C   0  0  0  0  0  2  0  0  0  0  0  0
  188.7450  176.9190  141.7900 C   0  0  2  0  0  3  0  0  0  0  0  0
  187.4190  177.2760  141.2630 C   0  0  1  0  0  3  0  0  0  0  0  0
  189.7770  174.4430  142.1600 C   0  0  1  0  0  3  0  0  0  0  0  0
  189.0890  176.1570  144.1430 C   0  0  2  0  0  3  0  0  0  0  0  0
  185.8120  176.8300  143.0020 C   0  0  0  0  0  2  0  0  0  0  0  0
  191.9720  173.5630  143.7410 C   0  0  0  0  0  0  0  0  0  0  0  0
  187.7630  178.2830  143.4940 C   0  0  0  0  0  2  0  0  0  0  0  0
  191.5520  172.8210  142.7520 N   0  0  0  0  0  0  0  0  0  0  0  0
  193.4690  171.9330  144.9130 C   0  0  0  0  0  3  0  0  0  0  0  0
  193.2450  173.2270  144.4140 C   0  0  0  0  0  0  0  0  0  0  0  0
  194.2530  174.1940  144.5550 C   0  0  0  0  0  3  0  0  0  0  0  0
  196.4240  174.8150  145.3150 F   0  0  0  0  0  0  0  0  0  0  0  0
  195.6710  172.5840  145.6780 C   0  0  0  0  0  3  0  0  0  0  0  0
  195.4590  173.8740  145.1850 C   0  0  0  0  0  0  0  0  0  0  0  0
  194.6750  171.6130  145.5420 C   0  0  0  0  0  3  0  0  0  0  0  0
  188.9090  176.4100  145.6500 C   0  0  2  0  0  3  0  0  0  0  0  0
  187.6880  177.2480  146.0480 C   0  0  0  0  0  2  0  0  0  0  0  0
  186.7280  176.5130  146.9790 C   0  0  2  0  0  3  0  0  0  0  0  0
  186.2990  178.7810  147.7570 O   0  0  0  0  0  1  0  0  0  0  0  0
  185.3070  176.9210  146.6510 C   0  0  0  0  0  2  0  0  0  0  0  0
  185.9500  177.4370  147.9210 C   0  0  1  0  0  3  0  0  0  0  0  0
  190.2120  176.6620  146.4260 C   0  0  2  0  0  3  0  0  0  0  0  0
  190.4350  175.6150  147.5220 C   0  0  2  0  0  3  0  0  0  0  0  0
  191.8150  174.9820  147.4490 C   0  0  0  0  0  1  0  0  0  0  0  0
  189.4710  174.6280  147.4300 F   0  0  0  0  0  0  0  0  0  0  0  0
  190.4710  177.8130  148.3080 C   0  0  0  0  0  1  0  0  0  0  0  0
  190.2810  177.9660  146.9340 O   0  0  0  0  0  0  0  0  0  0  0  0
  2 13  1  0  0  0  0
  3 15  1  0  0  0  0
  4  6  1  6  0  0  0
  4 14  1  0  0  0  0
  7  2  1  6  0  0  0
  7 11  1  0  0  0  0
  7  3  1  0  0  0  0
  8  5  1  1  0  0  0
  8 17  1  0  0  0  0
  8 14  1  0  0  0  0
  9  1  1  6  0  0  0
  9 15  1  0  0  0  0
  9 17  1  0  0  0  0
 10 13  1  0  0  0  0
 10 18  1  0  0  0  0
 11  8  1  0  0  0  0
 12  7  1  0  0  0  0
 12 11  1  0  0  0  0
 12  9  1  0  0  0  0
 13  4  1  0  0  0  0
 14 26  1  0  0  0  0
 16  6  1  0  0  0  0
 16 20  1  0  0  0  0
 18 16  2  0  0  0  0
 19 25  1  0  0  0  0
 20 21  1  0  0  0  0
 20 19  2  0  0  0  0
 21 24  2  0  0  0  0
 24 22  1  0  0  0  0
 24 23  1  0  0  0  0
 25 23  2  0  0  0  0
 26 27  1  0  0  0  0
 26 32  1  0  0  0  0
 27 28  1  0  0  0  0
 28 31  1  0  0  0  0
 29 31  1  0  0  0  0
 30 28  1  0  0  0  0
 30 31  1  0  0  0  0
 32 37  1  0  0  0  0
 32 33  1  0  0  0  0
 34 33  1  0  0  0  0
 35 33  1  0  0  0  0
 37 36  1  0  0  0  0
M  END
>  <MODEL>
7

>  <REMARK>
 VINA RESULT:      -7.1      2.938      7.305
  Name = 
  7 active torsions:
  status: ('A' for Active; 'I' for Inactive)
    1  A    between atoms: C_1  and  C_5
    2  A    between atoms: C_1  and  C_36
    3  A    between atoms: C_6  and  C_31
    4  A    between atoms: C_11  and  C_33
    5  A    between atoms: O_27  and  C_33
    6  A    between atoms: C_29  and  C_36
    7  A    between atoms: C_33  and  C_36
                            x       y       z     vdW  Elec       q    Type
                         _______ _______ _______ _____ _____    ______ ____

>  <TORSDO>
F 7

$$$$
=
 OpenBabel11052420093D

 37 43  0  0  1  0  0  0  0  0999 V2000
  188.5550  174.5410  147.8500 O   0  0  0  0  0  1  0  0  0  0  0  0
  193.0110  176.7910  146.6340 C   0  0  0  0  0  2  0  0  0  0  0  0
  190.5060  177.0480  146.1160 C   0  0  0  0  0  2  0  0  0  0  0  0
  192.9130  175.8680  144.0980 C   0  0  2  0  0  3  0  0  0  0  0  0
  191.6400  172.9370  145.1030 O   0  0  0  0  0  1  0  0  0  0  0  0
  193.8180  175.0660  143.1750 C   0  0  0  0  0  2  0  0  0  0  0  0
  191.6000  176.2550  146.8500 C   0  0  1  0  0  0  0  0  0  0  0  0
  191.1750  174.2200  145.3890 C   0  0  1  0  0  0  0  0  0  0  0  0
  189.5220  175.0510  146.9860 C   0  0  2  0  0  0  0  0  0  0  0  0
  194.9060  177.0800  145.0060 C   0  0  0  0  0  2  0  0  0  0  0  0
  191.8370  174.7240  146.6470 C   0  0  2  0  0  3  0  0  0  0  0  0
  190.8780  175.1690  147.6690 C   0  0  1  0  0  3  0  0  0  0  0  0
  193.7300  176.1940  145.3880 C   0  0  1  0  0  3  0  0  0  0  0  0
  191.5090  175.1780  144.2140 C   0  0  2  0  0  3  0  0  0  0  0  0
  189.1780  176.4540  146.5440 C   0  0  0  0  0  2  0  0  0  0  0  0
  195.1730  175.7020  142.9860 C   0  0  0  0  0  0  0  0  0  0  0  0
  189.6920  174.1600  145.7490 C   0  0  0  0  0  2  0  0  0  0  0  0
  195.6490  176.5430  143.8630 N   0  0  0  0  0  0  0  0  0  0  0  0
  197.1450  174.4560  142.0750 C   0  0  0  0  0  3  0  0  0  0  0  0
  196.0210  175.2700  141.8540 C   0  0  0  0  0  0  0  0  0  0  0  0
  195.7090  175.6590  140.5420 C   0  0  0  0  0  3  0  0  0  0  0  0
  196.1970  175.6240  138.2090 F   0  0  0  0  0  0  0  0  0  0  0  0
  197.6230  174.4350  139.7020 C   0  0  0  0  0  3  0  0  0  0  0  0
  196.5070  175.2440  139.4720 C   0  0  0  0  0  0  0  0  0  0  0  0
  197.9410  174.0420  141.0050 C   0  0  0  0  0  3  0  0  0  0  0  0
  190.6180  175.0820  142.9630 C   0  0  2  0  0  3  0  0  0  0  0  0
  189.3300  175.9140  142.9930 C   0  0  0  0  0  2  0  0  0  0  0  0
  189.5560  177.3910  142.6850 C   0  0  2  0  0  3  0  0  0  0  0  0
  187.6140  177.0330  141.2590 O   0  0  0  0  0  1  0  0  0  0  0  0
  188.3760  178.1910  143.1940 C   0  0  0  0  0  2  0  0  0  0  0  0
  188.5400  177.9820  141.7040 C   0  0  1  0  0  3  0  0  0  0  0  0
  190.5310  173.6820  142.3340 C   0  0  2  0  0  3  0  0  0  0  0  0
  191.3080  173.6000  141.0170 C   0  0  2  0  0  3  0  0  0  0  0  0
  192.3610  172.5030  141.0310 C   0  0  0  0  0  1  0  0  0  0  0  0
  191.9140  174.8140  140.7530 F   0  0  0  0  0  0  0  0  0  0  0  0
  189.1580  171.9970  142.7920 C   0  0  0  0  0  1  0  0  0  0  0  0
  189.2070  173.2520  142.1820 O   0  0  0  0  0  0  0  0  0  0  0  0
  2  7  1  0  0  0  0
  3 15  1  0  0  0  0
  4  6  1  6  0  0  0
  4 14  1  0  0  0  0
  4 13  1  0  0  0  0
  7  3  1  6  0  0  0
  7 12  1  0  0  0  0
  8  5  1  6  0  0  0
  8 17  1  0  0  0  0
  8 11  1  0  0  0  0
  9 12  1  0  0  0  0
  9  1  1  1  0  0  0
 10 13  1  0  0  0  0
 11  7  1  0  0  0  0
 11 12  1  0  0  0  0
 13  2  1  0  0  0  0
 14  8  1  0  0  0  0
 15  9  1  0  0  0  0
 16  6  1  0  0  0  0
 16 18  2  0  0  0  0
 17  9  1  0  0  0  0
 18 10  1  0  0  0  0
 20 19  1  0  0  0  0
 20 16  1  0  0  0  0
 21 20  2  0  0  0  0
 22 24  1  0  0  0  0
 23 25  1  0  0  0  0
 24 23  2  0  0  0  0
 24 21  1  0  0  0  0
 25 19  2  0  0  0  0
 26 27  1  0  0  0  0
 26 14  1  0  0  0  0
 28 27  1  0  0  0  0
 28 30  1  0  0  0  0
 29 31  1  0  0  0  0
 31 28  1  0  0  0  0
 31 30  1  0  0  0  0
 32 26  1  0  0  0  0
 33 34  1  0  0  0  0
 33 32  1  0  0  0  0
 35 33  1  0  0  0  0
 37 32  1  0  0  0  0
 37 36  1  0  0  0  0
M  END
>  <MODEL>
8

>  <REMARK>
 VINA RESULT:      -7.0      3.018      6.821
  Name = 
  7 active torsions:
  status: ('A' for Active; 'I' for Inactive)
    1  A    between atoms: C_1  and  C_5
    2  A    between atoms: C_1  and  C_36
    3  A    between atoms: C_6  and  C_31
    4  A    between atoms: C_11  and  C_33
    5  A    between atoms: O_27  and  C_33
    6  A    between atoms: C_29  and  C_36
    7  A    between atoms: C_33  and  C_36
                            x       y       z     vdW  Elec       q    Type
                         _______ _______ _______ _____ _____    ______ ____

>  <TORSDO>
F 7

$$$$
=
 OpenBabel11052420093D

 37 43  0  0  1  0  0  0  0  0999 V2000
  193.1570  169.4820  144.1230 O   0  0  0  0  0  1  0  0  0  0  0  0
  190.7270  172.1090  140.4370 C   0  0  0  0  0  2  0  0  0  0  0  0
  192.8640  172.2870  141.8560 C   0  0  0  0  0  2  0  0  0  0  0  0
  190.0500  174.0910  142.1420 C   0  0  2  0  0  3  0  0  0  0  0  0
  189.4830  171.9080  144.6190 O   0  0  0  0  0  1  0  0  0  0  0  0
  188.7700  174.7910  142.5760 C   0  0  0  0  0  2  0  0  0  0  0  0
  191.5830  171.4960  141.5400 C   0  0  1  0  0  0  0  0  0  0  0  0
  190.6260  172.0360  143.8310 C   0  0  1  0  0  0  0  0  0  0  0  0
  192.5890  170.6120  143.5370 C   0  0  2  0  0  0  0  0  0  0  0  0
  189.2100  174.0060  139.7850 C   0  0  0  0  0  2  0  0  0  0  0  0
  190.4900  171.1660  142.6060 C   0  0  2  0  0  3  0  0  0  0  0  0
  191.6160  170.2380  142.4270 C   0  0  1  0  0  3  0  0  0  0  0  0
  189.6880  173.1520  140.9490 C   0  0  1  0  0  3  0  0  0  0  0  0
  190.8020  173.5160  143.3920 C   0  0  2  0  0  3  0  0  0  0  0  0
  193.6380  171.4700  142.8730 C   0  0  0  0  0  2  0  0  0  0  0  0
  188.0200  175.4070  141.4210 C   0  0  0  0  0  0  0  0  0  0  0  0
  191.8270  171.4520  144.5700 C   0  0  0  0  0  2  0  0  0  0  0  0
  188.1950  174.9800  140.2000 N   0  0  0  0  0  0  0  0  0  0  0  0
  186.5650  177.3080  140.6870 C   0  0  0  0  0  3  0  0  0  0  0  0
  186.9810  176.4230  141.6960 C   0  0  0  0  0  0  0  0  0  0  0  0
  186.3890  176.5110  142.9650 C   0  0  0  0  0  3  0  0  0  0  0  0
  184.8380  177.5430  144.4510 F   0  0  0  0  0  0  0  0  0  0  0  0
  184.9960  178.3430  142.2120 C   0  0  0  0  0  3  0  0  0  0  0  0
  185.4020  177.4670  143.2220 C   0  0  0  0  0  0  0  0  0  0  0  0
  185.5780  178.2630  140.9440 C   0  0  0  0  0  3  0  0  0  0  0  0
  191.3600  174.4910  144.4430 C   0  0  2  0  0  3  0  0  0  0  0  0
  190.3650  175.5160  145.0020 C   0  0  0  0  0  2  0  0  0  0  0  0
  189.5680  174.9960  146.1940 C   0  0  2  0  0  3  0  0  0  0  0  0
  190.7780  176.7760  147.3350 O   0  0  0  0  0  1  0  0  0  0  0  0
  188.6070  176.0710  146.6570 C   0  0  0  0  0  2  0  0  0  0  0  0
  189.8290  175.7600  147.4950 C   0  0  1  0  0  3  0  0  0  0  0  0
  192.7920  174.9820  144.1780 C   0  0  2  0  0  3  0  0  0  0  0  0
  193.6520  174.9440  145.4450 C   0  0  2  0  0  3  0  0  0  0  0  0
  194.9100  174.1080  145.2690 C   0  0  0  0  0  1  0  0  0  0  0  0
  192.9120  174.4420  146.4990 F   0  0  0  0  0  0  0  0  0  0  0  0
  193.4650  176.0560  142.3530 C   0  0  0  0  0  1  0  0  0  0  0  0
  192.8150  176.2460  143.5740 O   0  0  0  0  0  0  0  0  0  0  0  0
  2 13  1  0  0  0  0
  3 15  1  0  0  0  0
  4  6  1  1  0  0  0
  4 14  1  0  0  0  0
  7  2  1  6  0  0  0
  7  3  1  0  0  0  0
  7 12  1  0  0  0  0
  7 11  1  0  0  0  0
  8 17  1  0  0  0  0
  8  5  1  1  0  0  0
  9  1  1  1  0  0  0
  9 17  1  0  0  0  0
 10 18  1  0  0  0  0
 10 13  1  0  0  0  0
 11  8  1  0  0  0  0
 12 11  1  0  0  0  0
 12  9  1  0  0  0  0
 13  4  1  0  0  0  0
 14  8  1  0  0  0  0
 14 26  1  0  0  0  0
 15  9  1  0  0  0  0
 16 20  1  0  0  0  0
 16  6  1  0  0  0  0
 18 16  2  0  0  0  0
 19 25  2  0  0  0  0
 19 20  1  0  0  0  0
 20 21  2  0  0  0  0
 21 24  1  0  0  0  0
 23 24  2  0  0  0  0
 24 22  1  0  0  0  0
 25 23  1  0  0  0  0
 26 27  1  0  0  0  0
 27 28  1  0  0  0  0
 28 30  1  0  0  0  0
 28 31  1  0  0  0  0
 29 31  1  0  0  0  0
 30 31  1  0  0  0  0
 32 26  1  0  0  0  0
 32 33  1  0  0  0  0
 33 35  1  0  0  0  0
 34 33  1  0  0  0  0
 36 37  1  0  0  0  0
 37 32  1  0  0  0  0
M  END
>  <MODEL>
9

>  <REMARK>
 VINA RESULT:      -6.9      2.609      5.326
  Name = 
  7 active torsions:
  status: ('A' for Active; 'I' for Inactive)
    1  A    between atoms: C_1  and  C_5
    2  A    between atoms: C_1  and  C_36
    3  A    between atoms: C_6  and  C_31
    4  A    between atoms: C_11  and  C_33
    5  A    between atoms: O_27  and  C_33
    6  A    between atoms: C_29  and  C_36
    7  A    between atoms: C_33  and  C_36
                            x       y       z     vdW  Elec       q    Type
                         _______ _______ _______ _____ _____    ______ ____

>  <TORSDO>
F 7

$$$$
