=
 OpenBabel11052419413D

 55 63  0  0  1  0  0  0  0  0999 V2000
  192.1070  172.1190  143.7250 C   0  0  0  0  0  0  0  0  0  0  0  0
  190.2880  171.6860  139.6180 C   0  0  0  0  0  3  0  0  0  0  0  0
  187.5790  174.0050  141.4230 C   0  0  0  0  0  2  0  0  0  0  0  0
  190.7170  168.5740  138.3480 C   0  0  0  0  0  2  0  0  0  0  0  0
  190.8010  170.0320  137.8620 C   0  0  2  0  0  3  0  0  0  0  0  0
  187.2250  176.0170  143.5860 C   0  0  0  0  0  2  0  0  0  0  0  0
  193.4830  175.2020  145.5680 C   0  0  0  0  0  2  0  0  0  0  0  0
  187.0280  177.5270  143.6720 C   0  0  0  0  0  2  0  0  0  0  0  0
  189.5520  176.4340  144.4870 C   0  0  0  0  0  0  0  0  0  0  0  0
  189.1850  177.8420  144.8740 C   0  0  0  0  0  2  0  0  0  0  0  0
  188.1550  173.3910  142.5820 C   0  0  1  0  0  3  0  0  0  0  0  0
  187.6740  178.0400  144.9530 C   0  0  0  0  0  2  0  0  0  0  0  0
  193.0380  169.8390  144.2220 C   0  0  0  0  0  3  0  0  0  0  0  0
  188.6700  175.6000  143.7640 C   0  0  0  0  0  0  0  0  0  0  0  0
  192.6520  169.0740  141.5540 C   0  0  0  0  0  0  0  0  0  0  0  0
  190.8360  172.5830  143.3700 C   0  0  0  0  0  3  0  0  0  0  0  0
  192.2990  170.3610  141.9710 C   0  0  0  0  0  3  0  0  0  0  0  0
  195.1150  173.3510  145.7580 C   0  0  2  0  0  3  0  0  0  0  0  0
  191.2770  174.7230  144.4120 C   0  0  0  0  0  0  0  0  0  0  0  0
  192.9870  172.9700  144.4300 C   0  0  0  0  0  0  0  0  0  0  0  0
  189.7110  170.8870  138.5000 C   0  0  0  0  0  2  0  0  0  0  0  0
  190.8410  176.0000  144.7800 C   0  0  0  0  0  3  0  0  0  0  0  0
  189.5050  172.3630  140.4040 C   0  0  0  0  0  0  0  0  0  0  0  0
  194.4090  172.5270  144.6840 C   0  0  0  0  0  2  0  0  0  0  0  0
  188.7080  173.0230  141.1930 C   0  0  0  0  0  0  0  0  0  0  0  0
  193.3860  168.5490  143.8080 C   0  0  0  0  0  3  0  0  0  0  0  0
  192.4940  170.7560  143.3040 C   0  0  0  0  0  0  0  0  0  0  0  0
  189.1060  174.3200  143.3250 C   0  0  0  0  0  0  0  0  0  0  0  0
  194.9500  174.8320  145.4450 C   0  0  0  0  0  2  0  0  0  0  0  0
  190.4020  173.8720  143.6940 C   0  0  0  0  0  0  0  0  0  0  0  0
  190.9850  168.4630  139.8420 C   0  0  0  0  0  2  0  0  0  0  0  0
  192.5750  174.2880  144.7590 C   0  0  0  0  0  0  0  0  0  0  0  0
  192.4580  168.6790  140.1310 C   0  0  0  0  0  2  0  0  0  0  0  0
  193.1930  168.1660  142.4740 C   0  0  0  0  0  3  0  0  0  0  0  0
  196.5560  172.9360  145.8660 C   0  0  0  0  0  0  0  0  0  0  0  0
  197.5120  173.8580  145.7520 C   0  0  0  0  0  2  0  0  0  0  0  0
  196.9590  171.5030  146.0700 C   0  0  0  0  0  1  0  0  0  0  0  0
  189.8740  171.3420  135.8430 C   0  0  0  0  0  2  0  0  0  0  0  0
  191.3670  171.6040  135.9600 C   0  0  1  0  0  3  0  0  0  0  0  0
  190.7980  170.2380  136.3320 C   0  0  1  0  0  3  0  0  0  0  0  0
  191.9940  171.5730  134.5720 C   0  0  0  0  0  2  0  0  0  0  0  0
  196.6350  172.2750  135.9420 C   0  0  0  0  0  1  0  0  0  0  0  0
  193.3650  172.2440  134.5130 C   0  0  2  0  0  3  0  0  0  0  0  0
  194.6960  170.3080  134.9660 O   0  0  0  0  0  0  0  0  0  0  0  0
  194.4190  171.4710  135.2330 C   0  0  0  0  0  0  0  0  0  0  0  0
  195.1460  172.2610  136.2710 C   0  0  2  0  0  0  0  0  0  0  0  0
  193.2920  173.5670  135.2650 C   0  0  0  0  0  2  0  0  0  0  0  0
  194.5890  173.6860  136.0720 C   0  0  1  0  0  3  0  0  0  0  0  0
  195.9610  171.4850  138.5670 N   0  0  0  0  0  2  0  0  0  0  0  0
  195.7710  170.9080  139.8810 C   0  0  0  0  0  1  0  0  0  0  0  0
  194.8800  171.6820  137.6500 C   0  0  0  0  0  0  0  0  0  0  0  0
  193.6980  171.4220  138.0110 O   0  0  0  0  0  0  0  0  0  0  0  0
  194.3990  174.5210  137.3450 C   0  0  0  0  0  3  0  0  0  0  0  0
  193.3860  175.4720  137.1550 O   0  0  0  0  0  1  0  0  0  0  0  0
  195.5910  175.1770  137.6620 O   0  0  0  0  0  1  0  0  0  0  0  0
  1 20  1  0  0  0  0
  2 23  2  0  0  0  0
  4 31  1  0  0  0  0
  5  4  1  6  0  0  0
  5 21  1  0  0  0  0
  6  8  1  0  0  0  0
  6 14  1  0  0  0  0
  8 12  1  0  0  0  0
  9 22  1  0  0  0  0
  9 10  1  0  0  0  0
 10 12  1  0  0  0  0
 11  3  1  6  0  0  0
 11 28  1  0  0  0  0
 14  9  2  0  0  0  0
 15 17  2  0  0  0  0
 15 34  1  0  0  0  0
 16 30  1  0  0  0  0
 16  1  2  0  0  0  0
 17 27  1  0  0  0  0
 18 35  1  6  0  0  0
 19 32  1  0  0  0  0
 19 22  2  0  0  0  0
 20 24  1  0  0  0  0
 20 32  2  0  0  0  0
 21  2  1  0  0  0  0
 23 25  2  0  0  0  0
 24 18  1  0  0  0  0
 25  3  1  0  0  0  0
 25 11  1  0  0  0  0
 26 13  1  0  0  0  0
 27  1  1  0  0  0  0
 27 13  2  0  0  0  0
 28 30  2  0  0  0  0
 28 14  1  0  0  0  0
 29  7  1  0  0  0  0
 29 18  1  0  0  0  0
 30 19  1  0  0  0  0
 31 33  1  0  0  0  0
 32  7  1  0  0  0  0
 33 15  1  0  0  0  0
 34 26  2  0  0  0  0
 35 37  1  0  0  0  0
 36 35  2  0  0  0  0
 38 39  1  0  0  0  0
 39 41  1  6  0  0  0
 39 40  1  0  0  0  0
 40 38  1  1  0  0  0
 40  5  1  0  0  0  0
 43 41  1  1  0  0  0
 43 45  1  0  0  0  0
 43 47  1  0  0  0  0
 44 45  2  0  0  0  0
 45 46  1  0  0  0  0
 46 42  1  6  0  0  0
 46 51  1  0  0  0  0
 47 48  1  0  0  0  0
 48 46  1  0  0  0  0
 48 53  1  1  0  0  0
 49 50  1  0  0  0  0
 51 52  2  0  0  0  0
 51 49  1  0  0  0  0
 53 55  1  0  0  0  0
 54 53  1  0  0  0  0
M  END
>  <MODEL>
1

>  <REMARK>
 VINA RESULT:      -7.6      0.000      0.000
  Name = 
  6 active torsions:
  status: ('A' for Active; 'I' for Inactive)
    1  A    between atoms: C_1  and  C_53
    2  A    between atoms: C_6  and  C_20
    3  A    between atoms: C_8  and  C_43
    4  A    between atoms: C_10  and  C_32
    5  A    between atoms: C_20  and  C_42
    6  A    between atoms: C_29  and  C_38
                            x       y       z     vdW  Elec       q    Type
                         _______ _______ _______ _____ _____    ______ ____

>  <TORSDO>
F 6

$$$$
=
 OpenBabel11052419413D

 55 63  0  0  1  0  0  0  0  0999 V2000
  194.6420  171.3830  140.3460 C   0  0  0  0  0  0  0  0  0  0  0  0
  195.5770  174.8240  143.1120 C   0  0  0  0  0  3  0  0  0  0  0  0
  197.6330  175.8740  139.8490 C   0  0  0  0  0  2  0  0  0  0  0  0
  195.9920  173.8140  146.3190 C   0  0  0  0  0  2  0  0  0  0  0  0
  195.3070  174.9630  145.5590 C   0  0  2  0  0  3  0  0  0  0  0  0
  197.7200  175.5800  136.8900 C   0  0  0  0  0  2  0  0  0  0  0  0
  192.7090  171.2640  137.0230 C   0  0  0  0  0  2  0  0  0  0  0  0
  197.3960  176.4510  135.6810 C   0  0  0  0  0  2  0  0  0  0  0  0
  195.6420  174.2650  136.2940 C   0  0  0  0  0  0  0  0  0  0  0  0
  195.5720  174.9250  134.9430 C   0  0  0  0  0  2  0  0  0  0  0  0
  197.5670  174.4590  139.6260 C   0  0  1  0  0  3  0  0  0  0  0  0
  196.9010  175.5630  134.5470 C   0  0  0  0  0  2  0  0  0  0  0  0
  194.6870  169.3680  141.8450 C   0  0  0  0  0  3  0  0  0  0  0  0
  196.5830  174.6570  137.2730 C   0  0  0  0  0  0  0  0  0  0  0  0
  194.7350  171.0210  144.1070 C   0  0  0  0  0  0  0  0  0  0  0  0
  195.5660  172.3940  140.0660 C   0  0  0  0  0  3  0  0  0  0  0  0
  194.7010  171.5850  142.8280 C   0  0  0  0  0  3  0  0  0  0  0  0
  191.9010  169.4450  138.4940 C   0  0  2  0  0  3  0  0  0  0  0  0
  194.6440  172.6830  137.8460 C   0  0  0  0  0  0  0  0  0  0  0  0
  193.6930  171.0150  139.3660 C   0  0  0  0  0  0  0  0  0  0  0  0
  196.1420  175.4060  144.3620 C   0  0  0  0  0  2  0  0  0  0  0  0
  194.6790  173.3090  136.5960 C   0  0  0  0  0  3  0  0  0  0  0  0
  196.2250  174.9390  141.9910 C   0  0  0  0  0  0  0  0  0  0  0  0
  192.6010  170.0300  139.7170 C   0  0  0  0  0  2  0  0  0  0  0  0
  196.8930  175.0470  140.8790 C   0  0  0  0  0  0  0  0  0  0  0  0
  194.7280  168.8010  143.1240 C   0  0  0  0  0  3  0  0  0  0  0  0
  194.6700  170.7660  141.6890 C   0  0  0  0  0  0  0  0  0  0  0  0
  196.5350  174.0810  138.5720 C   0  0  0  0  0  0  0  0  0  0  0  0
  191.4710  170.5780  137.5710 C   0  0  0  0  0  2  0  0  0  0  0  0
  195.5850  173.0590  138.8350 C   0  0  0  0  0  0  0  0  0  0  0  0
  196.1040  172.5610  145.4620 C   0  0  0  0  0  2  0  0  0  0  0  0
  193.6830  171.6830  138.1140 C   0  0  0  0  0  0  0  0  0  0  0  0
  194.7460  171.9060  145.3050 C   0  0  0  0  0  2  0  0  0  0  0  0
  194.7530  169.6280  144.2550 C   0  0  0  0  0  3  0  0  0  0  0  0
  190.7510  168.5760  138.9210 C   0  0  0  0  0  0  0  0  0  0  0  0
  189.8680  168.1660  138.0110 C   0  0  0  0  0  2  0  0  0  0  0  0
  190.5470  168.1740  140.3550 C   0  0  0  0  0  1  0  0  0  0  0  0
  194.4940  177.4110  145.5930 C   0  0  0  0  0  2  0  0  0  0  0  0
  193.4340  176.5280  146.2300 C   0  0  1  0  0  3  0  0  0  0  0  0
  194.9120  176.1940  146.4030 C   0  0  1  0  0  3  0  0  0  0  0  0
  192.8820  177.2180  147.4710 C   0  0  0  0  0  2  0  0  0  0  0  0
  188.7660  174.5800  147.5300 C   0  0  0  0  0  1  0  0  0  0  0  0
  191.3820  177.0020  147.6670 C   0  0  2  0  0  3  0  0  0  0  0  0
  191.4880  174.7980  148.5900 O   0  0  0  0  0  0  0  0  0  0  0  0
  191.0120  175.5590  147.7570 C   0  0  0  0  0  0  0  0  0  0  0  0
  189.9670  175.1410  146.7760 C   0  0  2  0  0  0  0  0  0  0  0  0
  190.6530  177.4990  146.4260 C   0  0  0  0  0  2  0  0  0  0  0  0
  189.5530  176.4760  146.1230 C   0  0  1  0  0  3  0  0  0  0  0  0
  189.6940  173.1360  145.2140 N   0  0  0  0  0  2  0  0  0  0  0  0
  190.1940  172.1270  144.3020 C   0  0  0  0  0  1  0  0  0  0  0  0
  190.5420  174.1280  145.8000 C   0  0  0  0  0  0  0  0  0  0  0  0
  191.7570  174.1930  145.4630 O   0  0  0  0  0  0  0  0  0  0  0  0
  189.2160  176.4210  144.6270 C   0  0  0  0  0  3  0  0  0  0  0  0
  190.0220  177.3190  143.9140 O   0  0  0  0  0  1  0  0  0  0  0  0
  187.8730  176.7550  144.4330 O   0  0  0  0  0  1  0  0  0  0  0  0
  1 27  1  0  0  0  0
  2 21  1  0  0  0  0
  3 25  1  0  0  0  0
  5 21  1  6  0  0  0
  5  4  1  0  0  0  0
  5 40  1  0  0  0  0
  6 14  1  0  0  0  0
  7 29  1  0  0  0  0
  7 32  1  0  0  0  0
  8  6  1  0  0  0  0
  9 22  2  0  0  0  0
  9 14  1  0  0  0  0
 10  9  1  0  0  0  0
 11  3  1  6  0  0  0
 11 25  1  0  0  0  0
 12 10  1  0  0  0  0
 12  8  1  0  0  0  0
 13 26  1  0  0  0  0
 14 28  2  0  0  0  0
 15 34  1  0  0  0  0
 15 33  1  0  0  0  0
 16  1  1  0  0  0  0
 17 15  2  0  0  0  0
 18 35  1  1  0  0  0
 18 24  1  0  0  0  0
 19 32  2  0  0  0  0
 19 30  1  0  0  0  0
 20 24  1  0  0  0  0
 20  1  2  0  0  0  0
 22 19  1  0  0  0  0
 23  2  2  0  0  0  0
 25 23  2  0  0  0  0
 26 34  2  0  0  0  0
 27 13  2  0  0  0  0
 27 17  1  0  0  0  0
 28 30  1  0  0  0  0
 28 11  1  0  0  0  0
 29 18  1  0  0  0  0
 30 16  2  0  0  0  0
 31  4  1  0  0  0  0
 32 20  1  0  0  0  0
 33 31  1  0  0  0  0
 35 37  1  0  0  0  0
 36 35  2  0  0  0  0
 38 39  1  0  0  0  0
 39 40  1  0  0  0  0
 39 41  1  1  0  0  0
 40 38  1  6  0  0  0
 43 41  1  6  0  0  0
 43 45  1  0  0  0  0
 45 44  2  0  0  0  0
 46 42  1  1  0  0  0
 46 45  1  0  0  0  0
 47 43  1  0  0  0  0
 48 53  1  6  0  0  0
 48 47  1  0  0  0  0
 48 46  1  0  0  0  0
 49 51  1  0  0  0  0
 50 49  1  0  0  0  0
 51 46  1  0  0  0  0
 52 51  2  0  0  0  0
 54 53  1  0  0  0  0
 55 53  1  0  0  0  0
M  END
>  <MODEL>
2

>  <REMARK>
 VINA RESULT:      -7.1      3.502      9.736
  Name = 
  6 active torsions:
  status: ('A' for Active; 'I' for Inactive)
    1  A    between atoms: C_1  and  C_53
    2  A    between atoms: C_6  and  C_20
    3  A    between atoms: C_8  and  C_43
    4  A    between atoms: C_10  and  C_32
    5  A    between atoms: C_20  and  C_42
    6  A    between atoms: C_29  and  C_38
                            x       y       z     vdW  Elec       q    Type
                         _______ _______ _______ _____ _____    ______ ____

>  <TORSDO>
F 6

$$$$
=
 OpenBabel11052419413D

 55 63  0  0  1  0  0  0  0  0999 V2000
  188.7690  176.7400  142.3770 C   0  0  0  0  0  0  0  0  0  0  0  0
  190.4220  173.1030  140.2780 C   0  0  0  0  0  3  0  0  0  0  0  0
  193.6670  174.4280  142.1990 C   0  0  0  0  0  2  0  0  0  0  0  0
  189.1300  172.7200  137.1690 C   0  0  0  0  0  2  0  0  0  0  0  0
  189.4720  171.8410  138.3850 C   0  0  2  0  0  3  0  0  0  0  0  0
  194.5640  175.9650  144.5830 C   0  0  0  0  0  2  0  0  0  0  0  0
  188.3180  177.5110  146.1180 C   0  0  0  0  0  2  0  0  0  0  0  0
  195.1840  175.6430  145.9380 C   0  0  0  0  0  2  0  0  0  0  0  0
  192.4460  176.4950  145.8620 C   0  0  0  0  0  0  0  0  0  0  0  0
  193.1970  176.5050  147.1660 C   0  0  0  0  0  2  0  0  0  0  0  0
  192.9290  175.6550  142.1340 C   0  0  1  0  0  3  0  0  0  0  0  0
  194.7020  176.6640  146.9610 C   0  0  0  0  0  2  0  0  0  0  0  0
  187.2200  177.7660  140.6870 C   0  0  0  0  0  3  0  0  0  0  0  0
  193.0580  176.1190  144.6460 C   0  0  0  0  0  0  0  0  0  0  0  0
  187.3920  175.4670  139.0960 C   0  0  0  0  0  0  0  0  0  0  0  0
  190.1220  176.3870  142.3530 C   0  0  0  0  0  3  0  0  0  0  0  0
  188.0960  175.5380  140.3020 C   0  0  0  0  0  3  0  0  0  0  0  0
  186.2230  178.0610  144.9210 C   0  0  2  0  0  3  0  0  0  0  0  0
  190.3050  176.7440  144.7410 C   0  0  0  0  0  0  0  0  0  0  0  0
  188.1630  177.0940  143.6040 C   0  0  0  0  0  0  0  0  0  0  0  0
  190.7550  172.3110  139.0600 C   0  0  0  0  0  2  0  0  0  0  0  0
  191.0850  176.7780  145.9000 C   0  0  0  0  0  3  0  0  0  0  0  0
  191.3590  173.7370  140.9170 C   0  0  0  0  0  0  0  0  0  0  0  0
  186.6720  177.3290  143.6590 C   0  0  0  0  0  2  0  0  0  0  0  0
  192.3060  174.3800  141.5370 C   0  0  0  0  0  0  0  0  0  0  0  0
  186.5200  177.7000  139.4770 C   0  0  0  0  0  3  0  0  0  0  0  0
  188.0110  176.6820  141.1100 C   0  0  0  0  0  0  0  0  0  0  0  0
  192.2780  176.0180  143.4620 C   0  0  0  0  0  0  0  0  0  0  0  0
  186.8070  177.3620  146.1410 C   0  0  0  0  0  2  0  0  0  0  0  0
  190.9050  176.3760  143.5120 C   0  0  0  0  0  0  0  0  0  0  0  0
  188.8290  174.1550  137.5800 C   0  0  0  0  0  2  0  0  0  0  0  0
  188.9330  177.0770  144.7960 C   0  0  0  0  0  0  0  0  0  0  0  0
  187.4770  174.2350  138.2620 C   0  0  0  0  0  2  0  0  0  0  0  0
  186.6070  176.5500  138.6820 C   0  0  0  0  0  3  0  0  0  0  0  0
  184.7230  178.1470  144.9640 C   0  0  0  0  0  0  0  0  0  0  0  0
  184.0480  178.3630  143.8350 C   0  0  0  0  0  2  0  0  0  0  0  0
  183.9540  178.0250  146.2490 C   0  0  0  0  0  1  0  0  0  0  0  0
  189.8220  169.9410  136.6760 C   0  0  0  0  0  2  0  0  0  0  0  0
  190.9490  169.9050  137.6950 C   0  0  1  0  0  3  0  0  0  0  0  0
  189.5460  170.3210  138.1220 C   0  0  1  0  0  3  0  0  0  0  0  0
  191.2320  168.4600  138.0840 C   0  0  0  0  0  2  0  0  0  0  0  0
  195.6510  169.7580  139.7260 C   0  0  0  0  0  1  0  0  0  0  0  0
  192.6880  168.2120  138.4750 C   0  0  2  0  0  3  0  0  0  0  0  0
  192.7860  169.7130  140.3350 O   0  0  0  0  0  0  0  0  0  0  0  0
  193.2700  169.3280  139.2780 C   0  0  0  0  0  0  0  0  0  0  0  0
  194.5260  169.8930  138.7040 C   0  0  2  0  0  0  0  0  0  0  0  0
  193.5340  168.1810  137.2090 C   0  0  0  0  0  2  0  0  0  0  0  0
  194.8230  168.9470  137.5230 C   0  0  1  0  0  3  0  0  0  0  0  0
  194.9340  172.3960  139.0330 N   0  0  0  0  0  2  0  0  0  0  0  0
  194.7370  173.7940  138.7070 C   0  0  0  0  0  1  0  0  0  0  0  0
  194.3100  171.3410  138.2960 C   0  0  0  0  0  0  0  0  0  0  0  0
  193.6210  171.6130  137.2730 O   0  0  0  0  0  0  0  0  0  0  0  0
  195.4250  169.5970  136.2700 C   0  0  0  0  0  3  0  0  0  0  0  0
  194.6990  169.2200  135.1310 O   0  0  0  0  0  1  0  0  0  0  0  0
  196.7550  169.1950  136.1210 O   0  0  0  0  0  1  0  0  0  0  0  0
  1 20  1  0  0  0  0
  2 23  2  0  0  0  0
  4 31  1  0  0  0  0
  5  4  1  6  0  0  0
  5 21  1  0  0  0  0
  6 14  1  0  0  0  0
  6  8  1  0  0  0  0
  7 29  1  0  0  0  0
  8 12  1  0  0  0  0
  9 22  1  0  0  0  0
  9 10  1  0  0  0  0
 11  3  1  1  0  0  0
 11 28  1  0  0  0  0
 12 10  1  0  0  0  0
 13 27  1  0  0  0  0
 14  9  2  0  0  0  0
 15 17  1  0  0  0  0
 16  1  2  0  0  0  0
 16 30  1  0  0  0  0
 17 27  2  0  0  0  0
 18 35  1  1  0  0  0
 18 29  1  0  0  0  0
 19 32  1  0  0  0  0
 19 22  2  0  0  0  0
 20 24  1  0  0  0  0
 20 32  2  0  0  0  0
 21  2  1  0  0  0  0
 23 25  2  0  0  0  0
 24 18  1  0  0  0  0
 25 11  1  0  0  0  0
 25  3  1  0  0  0  0
 26 13  2  0  0  0  0
 27  1  1  0  0  0  0
 28 30  2  0  0  0  0
 28 14  1  0  0  0  0
 30 19  1  0  0  0  0
 31 33  1  0  0  0  0
 32  7  1  0  0  0  0
 33 15  1  0  0  0  0
 34 15  2  0  0  0  0
 34 26  1  0  0  0  0
 35 37  1  0  0  0  0
 36 35  2  0  0  0  0
 38 39  1  0  0  0  0
 39 41  1  1  0  0  0
 39 40  1  0  0  0  0
 40 38  1  6  0  0  0
 40  5  1  0  0  0  0
 43 41  1  6  0  0  0
 43 45  1  0  0  0  0
 45 44  2  0  0  0  0
 46 45  1  0  0  0  0
 46 42  1  1  0  0  0
 47 48  1  0  0  0  0
 47 43  1  0  0  0  0
 48 53  1  6  0  0  0
 48 46  1  0  0  0  0
 50 49  1  0  0  0  0
 51 46  1  0  0  0  0
 51 49  1  0  0  0  0
 52 51  2  0  0  0  0
 54 53  1  0  0  0  0
 55 53  1  0  0  0  0
M  END
>  <MODEL>
3

>  <REMARK>
 VINA RESULT:      -6.5      2.492      6.582
  Name = 
  6 active torsions:
  status: ('A' for Active; 'I' for Inactive)
    1  A    between atoms: C_1  and  C_53
    2  A    between atoms: C_6  and  C_20
    3  A    between atoms: C_8  and  C_43
    4  A    between atoms: C_10  and  C_32
    5  A    between atoms: C_20  and  C_42
    6  A    between atoms: C_29  and  C_38
                            x       y       z     vdW  Elec       q    Type
                         _______ _______ _______ _____ _____    ______ ____

>  <TORSDO>
F 6

$$$$
=
 OpenBabel11052419413D

 55 63  0  0  1  0  0  0  0  0999 V2000
  188.5090  177.2490  142.6640 C   0  0  0  0  0  0  0  0  0  0  0  0
  190.1870  173.7380  140.3800 C   0  0  0  0  0  3  0  0  0  0  0  0
  193.4540  175.0690  142.2600 C   0  0  0  0  0  2  0  0  0  0  0  0
  188.8160  173.4430  137.2950 C   0  0  0  0  0  2  0  0  0  0  0  0
  189.2130  172.5260  138.4660 C   0  0  2  0  0  3  0  0  0  0  0  0
  194.3810  176.5360  144.6770 C   0  0  0  0  0  2  0  0  0  0  0  0
  188.1470  177.8660  146.4440 C   0  0  0  0  0  2  0  0  0  0  0  0
  195.0480  176.1770  146.0000 C   0  0  0  0  0  2  0  0  0  0  0  0
  192.2900  176.9630  146.0340 C   0  0  0  0  0  0  0  0  0  0  0  0
  193.0780  176.9420  147.3160 C   0  0  0  0  0  2  0  0  0  0  0  0
  192.6850  176.2790  142.2630 C   0  0  1  0  0  3  0  0  0  0  0  0
  194.5710  177.1460  147.0750 C   0  0  0  0  0  2  0  0  0  0  0  0
  186.8880  178.3010  141.0600 C   0  0  0  0  0  3  0  0  0  0  0  0
  192.8750  176.6490  144.7870 C   0  0  0  0  0  0  0  0  0  0  0  0
  187.0690  176.0690  139.3760 C   0  0  0  0  0  0  0  0  0  0  0  0
  189.8690  176.9320  142.5890 C   0  0  0  0  0  3  0  0  0  0  0  0
  187.8050  176.1110  140.5640 C   0  0  0  0  0  3  0  0  0  0  0  0
  186.0060  178.4080  145.3280 C   0  0  2  0  0  3  0  0  0  0  0  0
  190.1110  177.2010  144.9830 C   0  0  0  0  0  0  0  0  0  0  0  0
  187.9310  177.5410  143.9210 C   0  0  0  0  0  0  0  0  0  0  0  0
  190.5040  173.0020  139.1230 C   0  0  0  0  0  2  0  0  0  0  0  0
  190.9240  177.2110  146.1200 C   0  0  0  0  0  3  0  0  0  0  0  0
  191.1270  174.3710  141.0170 C   0  0  0  0  0  0  0  0  0  0  0  0
  186.4360  177.7370  144.0260 C   0  0  0  0  0  2  0  0  0  0  0  0
  192.0760  175.0120  141.6350 C   0  0  0  0  0  0  0  0  0  0  0  0
  186.1560  178.2640  139.8680 C   0  0  0  0  0  3  0  0  0  0  0  0
  187.7160  177.2220  141.4170 C   0  0  0  0  0  0  0  0  0  0  0  0
  192.0640  176.5740  143.6220 C   0  0  0  0  0  0  0  0  0  0  0  0
  186.6420  177.6780  146.5030 C   0  0  0  0  0  2  0  0  0  0  0  0
  190.6850  176.8960  143.7250 C   0  0  0  0  0  0  0  0  0  0  0  0
  188.4930  174.8530  137.7700 C   0  0  0  0  0  2  0  0  0  0  0  0
  188.7340  177.4980  145.0890 C   0  0  0  0  0  0  0  0  0  0  0  0
  187.1600  174.8730  138.4930 C   0  0  0  0  0  2  0  0  0  0  0  0
  186.2470  177.1480  139.0260 C   0  0  0  0  0  3  0  0  0  0  0  0
  184.5060  178.4550  145.4150 C   0  0  0  0  0  0  0  0  0  0  0  0
  183.9100  178.1760  146.5740 C   0  0  0  0  0  2  0  0  0  0  0  0
  183.6480  178.7810  144.2250 C   0  0  0  0  0  1  0  0  0  0  0  0
  190.1690  170.6900  136.9280 C   0  0  0  0  0  2  0  0  0  0  0  0
  190.7440  170.5150  138.3230 C   0  0  1  0  0  3  0  0  0  0  0  0
  189.3160  171.0200  138.1420 C   0  0  1  0  0  3  0  0  0  0  0  0
  190.7580  169.0350  138.6810 C   0  0  0  0  0  2  0  0  0  0  0  0
  192.6710  168.8590  143.1770 C   0  0  0  0  0  1  0  0  0  0  0  0
  191.8210  168.6720  139.7170 C   0  0  2  0  0  3  0  0  0  0  0  0
  190.3480  168.1660  141.5330 O   0  0  0  0  0  0  0  0  0  0  0  0
  191.3230  168.7810  141.1200 C   0  0  0  0  0  0  0  0  0  0  0  0
  192.1560  169.6640  141.9890 C   0  0  2  0  0  0  0  0  0  0  0  0
  192.9460  169.6960  139.6380 C   0  0  0  0  0  2  0  0  0  0  0  0
  193.3520  170.0140  141.0800 C   0  0  1  0  0  3  0  0  0  0  0  0
  191.7010  171.5700  143.6330 N   0  0  0  0  0  2  0  0  0  0  0  0
  190.9470  172.7050  144.1230 C   0  0  0  0  0  1  0  0  0  0  0  0
  191.3470  170.8700  142.4370 C   0  0  0  0  0  0  0  0  0  0  0  0
  190.3920  171.2910  141.7250 O   0  0  0  0  0  0  0  0  0  0  0  0
  193.9130  171.4360  141.2190 C   0  0  0  0  0  3  0  0  0  0  0  0
  193.6660  172.1710  140.0510 O   0  0  0  0  0  1  0  0  0  0  0  0
  195.2910  171.3800  141.4440 O   0  0  0  0  0  1  0  0  0  0  0  0
  1 20  1  0  0  0  0
  2 23  2  0  0  0  0
  4 31  1  0  0  0  0
  5  4  1  6  0  0  0
  5 21  1  0  0  0  0
  6 14  1  0  0  0  0
  6  8  1  0  0  0  0
  7 29  1  0  0  0  0
  8 12  1  0  0  0  0
  9 22  1  0  0  0  0
  9 10  1  0  0  0  0
 11  3  1  1  0  0  0
 11 28  1  0  0  0  0
 12 10  1  0  0  0  0
 13 27  1  0  0  0  0
 14  9  2  0  0  0  0
 15 17  1  0  0  0  0
 16  1  2  0  0  0  0
 16 30  1  0  0  0  0
 17 27  2  0  0  0  0
 18 35  1  1  0  0  0
 18 29  1  0  0  0  0
 19 32  1  0  0  0  0
 19 22  2  0  0  0  0
 20 24  1  0  0  0  0
 20 32  2  0  0  0  0
 21  2  1  0  0  0  0
 23 25  2  0  0  0  0
 24 18  1  0  0  0  0
 25  3  1  0  0  0  0
 25 11  1  0  0  0  0
 26 13  2  0  0  0  0
 27  1  1  0  0  0  0
 28 30  2  0  0  0  0
 28 14  1  0  0  0  0
 30 19  1  0  0  0  0
 31 33  1  0  0  0  0
 32  7  1  0  0  0  0
 33 15  1  0  0  0  0
 34 15  2  0  0  0  0
 34 26  1  0  0  0  0
 35 36  2  0  0  0  0
 37 35  1  0  0  0  0
 38 39  1  0  0  0  0
 39 41  1  1  0  0  0
 40 38  1  6  0  0  0
 40 39  1  0  0  0  0
 40  5  1  0  0  0  0
 43 41  1  6  0  0  0
 43 45  1  0  0  0  0
 45 44  2  0  0  0  0
 45 46  1  0  0  0  0
 46 51  1  0  0  0  0
 46 42  1  1  0  0  0
 47 43  1  0  0  0  0
 47 48  1  0  0  0  0
 48 53  1  6  0  0  0
 48 46  1  0  0  0  0
 49 50  1  0  0  0  0
 51 49  1  0  0  0  0
 52 51  2  0  0  0  0
 53 55  1  0  0  0  0
 54 53  1  0  0  0  0
M  END
>  <MODEL>
4

>  <REMARK>
 VINA RESULT:      -6.4      2.889      7.180
  Name = 
  6 active torsions:
  status: ('A' for Active; 'I' for Inactive)
    1  A    between atoms: C_1  and  C_53
    2  A    between atoms: C_6  and  C_20
    3  A    between atoms: C_8  and  C_43
    4  A    between atoms: C_10  and  C_32
    5  A    between atoms: C_20  and  C_42
    6  A    between atoms: C_29  and  C_38
                            x       y       z     vdW  Elec       q    Type
                         _______ _______ _______ _____ _____    ______ ____

>  <TORSDO>
F 6

$$$$
=
 OpenBabel11052419413D

 55 63  0  0  1  0  0  0  0  0999 V2000
  193.9480  171.3220  139.1330 C   0  0  0  0  0  0  0  0  0  0  0  0
  190.7480  173.4040  141.5400 C   0  0  0  0  0  3  0  0  0  0  0  0
  192.5630  171.2440  144.3720 C   0  0  0  0  0  2  0  0  0  0  0  0
  187.8290  173.6610  139.8400 C   0  0  0  0  0  2  0  0  0  0  0  0
  188.7060  174.5380  140.7500 C   0  0  2  0  0  3  0  0  0  0  0  0
  195.1560  169.9900  145.1170 C   0  0  0  0  0  2  0  0  0  0  0  0
  197.7830  171.5890  139.2600 C   0  0  0  0  0  2  0  0  0  0  0  0
  196.2870  170.2850  146.0970 C   0  0  0  0  0  2  0  0  0  0  0  0
  196.7720  170.6800  143.2970 C   0  0  0  0  0  0  0  0  0  0  0  0
  197.9300  170.6160  144.2560 C   0  0  0  0  0  2  0  0  0  0  0  0
  192.9260  170.4620  143.2260 C   0  0  1  0  0  3  0  0  0  0  0  0
  197.6010  169.7960  145.5000 C   0  0  0  0  0  2  0  0  0  0  0  0
  192.8010  170.7320  136.9770 C   0  0  0  0  0  3  0  0  0  0  0  0
  195.4360  170.5060  143.7210 C   0  0  0  0  0  0  0  0  0  0  0  0
  190.6290  172.3660  137.6580 C   0  0  0  0  0  0  0  0  0  0  0  0
  193.6680  171.0530  140.4770 C   0  0  0  0  0  3  0  0  0  0  0  0
  191.7160  172.2480  138.5290 C   0  0  0  0  0  3  0  0  0  0  0  0
  197.0380  171.7520  136.9060 C   0  0  2  0  0  3  0  0  0  0  0  0
  196.0230  171.1440  141.0320 C   0  0  0  0  0  0  0  0  0  0  0  0
  195.2870  171.5150  138.7260 C   0  0  0  0  0  0  0  0  0  0  0  0
  189.3290  173.7140  141.8720 C   0  0  0  0  0  2  0  0  0  0  0  0
  197.0460  171.0170  141.9760 C   0  0  0  0  0  3  0  0  0  0  0  0
  191.4230  172.5750  142.2810 C   0  0  0  0  0  0  0  0  0  0  0  0
  195.5800  171.9510  137.3090 C   0  0  0  0  0  2  0  0  0  0  0  0
  192.0800  171.7320  143.0220 C   0  0  0  0  0  0  0  0  0  0  0  0
  191.7100  170.8430  136.1070 C   0  0  0  0  0  3  0  0  0  0  0  0
  192.8120  171.4380  138.1940 C   0  0  0  0  0  0  0  0  0  0  0  0
  194.3700  170.6870  142.7980 C   0  0  0  0  0  0  0  0  0  0  0  0
  197.9410  172.3670  137.9670 C   0  0  0  0  0  2  0  0  0  0  0  0
  194.6790  170.9640  141.4400 C   0  0  0  0  0  0  0  0  0  0  0  0
  188.6520  172.6060  139.1120 C   0  0  0  0  0  2  0  0  0  0  0  0
  196.3290  171.4440  139.6860 C   0  0  0  0  0  0  0  0  0  0  0  0
  189.4840  173.2480  138.0200 C   0  0  0  0  0  2  0  0  0  0  0  0
  190.6240  171.6600  136.4480 C   0  0  0  0  0  3  0  0  0  0  0  0
  197.2800  172.3220  135.5360 C   0  0  0  0  0  0  0  0  0  0  0  0
  197.5290  171.4970  134.5190 C   0  0  0  0  0  2  0  0  0  0  0  0
  197.2760  173.8020  135.2770 C   0  0  0  0  0  1  0  0  0  0  0  0
  186.9330  175.5060  142.3530 C   0  0  0  0  0  2  0  0  0  0  0  0
  188.3130  175.9250  142.8310 C   0  0  1  0  0  3  0  0  0  0  0  0
  188.0280  175.7940  141.3390 C   0  0  1  0  0  3  0  0  0  0  0  0
  188.2750  177.3830  143.2680 C   0  0  0  0  0  2  0  0  0  0  0  0
  191.2620  177.5810  147.1340 C   0  0  0  0  0  1  0  0  0  0  0  0
  188.6120  177.5820  144.7450 C   0  0  2  0  0  3  0  0  0  0  0  0
  190.7350  178.6450  144.4570 O   0  0  0  0  0  0  0  0  0  0  0  0
  190.0730  177.7610  144.9870 C   0  0  0  0  0  0  0  0  0  0  0  0
  190.6440  176.8020  145.9780 C   0  0  2  0  0  0  0  0  0  0  0  0
  188.2610  176.3050  145.4990 C   0  0  0  0  0  2  0  0  0  0  0  0
  189.3960  176.0610  146.4990 C   0  0  1  0  0  3  0  0  0  0  0  0
  192.7190  175.3090  146.0670 N   0  0  0  0  0  2  0  0  0  0  0  0
  193.7340  174.4660  145.4700 C   0  0  0  0  0  1  0  0  0  0  0  0
  191.6620  175.8970  145.3030 C   0  0  0  0  0  0  0  0  0  0  0  0
  191.5460  175.6190  144.0760 O   0  0  0  0  0  0  0  0  0  0  0  0
  189.5760  174.5690  146.8110 C   0  0  0  0  0  3  0  0  0  0  0  0
  189.2760  173.7970  145.6790 O   0  0  0  0  0  1  0  0  0  0  0  0
  188.7270  174.1990  147.8570 O   0  0  0  0  0  1  0  0  0  0  0  0
  1 16  1  0  0  0  0
  2 21  1  0  0  0  0
  2 23  2  0  0  0  0
  5  4  1  1  0  0  0
  5 40  1  0  0  0  0
  5 21  1  0  0  0  0
  6  8  1  0  0  0  0
  7 32  1  0  0  0  0
  9 14  1  0  0  0  0
  9 10  1  0  0  0  0
 10 12  1  0  0  0  0
 11  3  1  1  0  0  0
 12  8  1  0  0  0  0
 13 27  1  0  0  0  0
 14  6  1  0  0  0  0
 15 33  1  0  0  0  0
 15 17  1  0  0  0  0
 16 30  2  0  0  0  0
 18 35  1  6  0  0  0
 18 24  1  0  0  0  0
 18 29  1  0  0  0  0
 19 30  1  0  0  0  0
 19 22  1  0  0  0  0
 20  1  2  0  0  0  0
 20 32  1  0  0  0  0
 22  9  2  0  0  0  0
 23 25  2  0  0  0  0
 24 20  1  0  0  0  0
 25 11  1  0  0  0  0
 25  3  1  0  0  0  0
 26 34  1  0  0  0  0
 26 13  2  0  0  0  0
 27 17  2  0  0  0  0
 27  1  1  0  0  0  0
 28 11  1  0  0  0  0
 28 14  2  0  0  0  0
 29  7  1  0  0  0  0
 30 28  1  0  0  0  0
 31  4  1  0  0  0  0
 32 19  2  0  0  0  0
 33 31  1  0  0  0  0
 34 15  2  0  0  0  0
 36 35  2  0  0  0  0
 37 35  1  0  0  0  0
 38 39  1  0  0  0  0
 39 41  1  6  0  0  0
 40 38  1  1  0  0  0
 40 39  1  0  0  0  0
 43 41  1  6  0  0  0
 43 45  1  0  0  0  0
 43 47  1  0  0  0  0
 44 45  2  0  0  0  0
 45 46  1  0  0  0  0
 46 48  1  0  0  0  0
 46 42  1  1  0  0  0
 47 48  1  0  0  0  0
 48 53  1  6  0  0  0
 50 49  1  0  0  0  0
 51 46  1  0  0  0  0
 51 49  1  0  0  0  0
 52 51  2  0  0  0  0
 53 55  1  0  0  0  0
 54 53  1  0  0  0  0
M  END
>  <MODEL>
5

>  <REMARK>
 VINA RESULT:      -6.2      3.210      8.748
  Name = 
  6 active torsions:
  status: ('A' for Active; 'I' for Inactive)
    1  A    between atoms: C_1  and  C_53
    2  A    between atoms: C_6  and  C_20
    3  A    between atoms: C_8  and  C_43
    4  A    between atoms: C_10  and  C_32
    5  A    between atoms: C_20  and  C_42
    6  A    between atoms: C_29  and  C_38
                            x       y       z     vdW  Elec       q    Type
                         _______ _______ _______ _____ _____    ______ ____

>  <TORSDO>
F 6

$$$$
=
 OpenBabel11052419413D

 55 63  0  0  1  0  0  0  0  0999 V2000
  187.6740  176.8530  141.7440 C   0  0  0  0  0  0  0  0  0  0  0  0
  189.9340  173.0290  140.9470 C   0  0  0  0  0  3  0  0  0  0  0  0
  192.2270  174.7120  143.7560 C   0  0  0  0  0  2  0  0  0  0  0  0
  189.9160  172.1900  137.6650 C   0  0  0  0  0  2  0  0  0  0  0  0
  189.7530  171.4930  139.0270 C   0  0  2  0  0  3  0  0  0  0  0  0
  192.1770  176.5840  146.0680 C   0  0  0  0  0  2  0  0  0  0  0  0
  185.8470  178.1010  144.8900 C   0  0  0  0  0  2  0  0  0  0  0  0
  192.2290  176.4670  147.5870 C   0  0  0  0  0  2  0  0  0  0  0  0
  189.7420  177.2050  146.3620 C   0  0  0  0  0  0  0  0  0  0  0  0
  189.9410  177.4150  147.8390 C   0  0  0  0  0  2  0  0  0  0  0  0
  191.5920  175.8920  143.2480 C   0  0  1  0  0  3  0  0  0  0  0  0
  191.4120  177.5980  148.2000 C   0  0  0  0  0  2  0  0  0  0  0  0
  186.9040  177.5900  139.4690 C   0  0  0  0  0  3  0  0  0  0  0  0
  190.7650  176.6920  145.5330 C   0  0  0  0  0  0  0  0  0  0  0  0
  187.6270  175.1070  138.3930 C   0  0  0  0  0  0  0  0  0  0  0  0
  188.9280  176.5480  142.2830 C   0  0  0  0  0  3  0  0  0  0  0  0
  187.8200  175.3620  139.7540 C   0  0  0  0  0  3  0  0  0  0  0  0
  184.3770  178.4120  142.9240 C   0  0  2  0  0  3  0  0  0  0  0  0
  188.1940  177.2270  144.4890 C   0  0  0  0  0  0  0  0  0  0  0  0
  186.6540  177.3470  142.5880 C   0  0  0  0  0  0  0  0  0  0  0  0
  190.6910  172.0940  140.0680 C   0  0  0  0  0  2  0  0  0  0  0  0
  188.4750  177.4430  145.8410 C   0  0  0  0  0  3  0  0  0  0  0  0
  190.5690  173.7750  141.8020 C   0  0  0  0  0  0  0  0  0  0  0  0
  185.2590  177.5350  142.0400 C   0  0  0  0  0  2  0  0  0  0  0  0
  191.2200  174.5280  142.6410 C   0  0  0  0  0  0  0  0  0  0  0  0
  186.7170  177.3390  138.1050 C   0  0  0  0  0  3  0  0  0  0  0  0
  187.4550  176.6010  140.3040 C   0  0  0  0  0  0  0  0  0  0  0  0
  190.4920  176.4060  144.1670 C   0  0  0  0  0  0  0  0  0  0  0  0
  184.4390  177.9040  144.3580 C   0  0  0  0  0  2  0  0  0  0  0  0
  189.2100  176.7200  143.6430 C   0  0  0  0  0  0  0  0  0  0  0  0
  189.5080  173.6550  137.7310 C   0  0  0  0  0  2  0  0  0  0  0  0
  186.9110  177.5160  143.9730 C   0  0  0  0  0  0  0  0  0  0  0  0
  188.0000  173.7780  137.8310 C   0  0  0  0  0  2  0  0  0  0  0  0
  187.0790  176.0970  137.5680 C   0  0  0  0  0  3  0  0  0  0  0  0
  182.9750  178.4510  142.3820 C   0  0  0  0  0  0  0  0  0  0  0  0
  182.7300  177.9600  141.1670 C   0  0  0  0  0  2  0  0  0  0  0  0
  181.8370  179.0530  143.1570 C   0  0  0  0  0  1  0  0  0  0  0  0
  190.0030  169.3330  137.6400 C   0  0  0  0  0  2  0  0  0  0  0  0
  191.2530  169.5290  138.4820 C   0  0  1  0  0  3  0  0  0  0  0  0
  189.8930  169.9560  139.0230 C   0  0  1  0  0  3  0  0  0  0  0  0
  191.6800  168.1910  139.0710 C   0  0  0  0  0  2  0  0  0  0  0  0
  195.7480  170.1140  140.9830 C   0  0  0  0  0  1  0  0  0  0  0  0
  193.1390  168.1660  139.5240 C   0  0  2  0  0  3  0  0  0  0  0  0
  192.9070  169.5700  141.4470 O   0  0  0  0  0  0  0  0  0  0  0  0
  193.4920  169.3210  140.4000 C   0  0  0  0  0  0  0  0  0  0  0  0
  194.6610  170.1130  139.9140 C   0  0  2  0  0  0  0  0  0  0  0  0
  194.0310  168.3370  138.3010 C   0  0  0  0  0  2  0  0  0  0  0  0
  195.1600  169.2870  138.7100 C   0  0  1  0  0  3  0  0  0  0  0  0
  194.4400  172.5980  140.4760 N   0  0  0  0  0  2  0  0  0  0  0  0
  194.0170  173.9550  140.2000 C   0  0  0  0  0  1  0  0  0  0  0  0
  194.2240  171.5230  139.5560 C   0  0  0  0  0  0  0  0  0  0  0  0
  193.7180  171.7610  138.4230 O   0  0  0  0  0  0  0  0  0  0  0  0
  195.6980  170.0880  137.5170 C   0  0  0  0  0  3  0  0  0  0  0  0
  195.4080  169.4250  136.3160 O   0  0  0  0  0  1  0  0  0  0  0  0
  197.0830  170.2400  137.6350 O   0  0  0  0  0  1  0  0  0  0  0  0
  1 16  2  0  0  0  0
  1 20  1  0  0  0  0
  2 23  2  0  0  0  0
  4 31  1  0  0  0  0
  5  4  1  6  0  0  0
  5 21  1  0  0  0  0
  6  8  1  0  0  0  0
  8 12  1  0  0  0  0
  9 10  1  0  0  0  0
 10 12  1  0  0  0  0
 11  3  1  1  0  0  0
 11 28  1  0  0  0  0
 13 27  1  0  0  0  0
 14  6  1  0  0  0  0
 14  9  2  0  0  0  0
 15 17  1  0  0  0  0
 16 30  1  0  0  0  0
 17 27  2  0  0  0  0
 18 35  1  6  0  0  0
 18 29  1  0  0  0  0
 19 22  2  0  0  0  0
 20 32  2  0  0  0  0
 21  2  1  0  0  0  0
 22  9  1  0  0  0  0
 23 25  2  0  0  0  0
 24 20  1  0  0  0  0
 24 18  1  0  0  0  0
 25 11  1  0  0  0  0
 25  3  1  0  0  0  0
 26 13  2  0  0  0  0
 27  1  1  0  0  0  0
 28 14  1  0  0  0  0
 29  7  1  0  0  0  0
 30 28  2  0  0  0  0
 30 19  1  0  0  0  0
 31 33  1  0  0  0  0
 32 19  1  0  0  0  0
 32  7  1  0  0  0  0
 33 15  1  0  0  0  0
 34 26  1  0  0  0  0
 34 15  2  0  0  0  0
 35 37  1  0  0  0  0
 36 35  2  0  0  0  0
 38 39  1  0  0  0  0
 39 40  1  0  0  0  0
 39 41  1  1  0  0  0
 40 38  1  6  0  0  0
 40  5  1  0  0  0  0
 43 41  1  6  0  0  0
 43 45  1  0  0  0  0
 45 44  2  0  0  0  0
 46 45  1  0  0  0  0
 46 42  1  1  0  0  0
 47 48  1  0  0  0  0
 47 43  1  0  0  0  0
 48 53  1  6  0  0  0
 48 46  1  0  0  0  0
 50 49  1  0  0  0  0
 51 46  1  0  0  0  0
 51 49  1  0  0  0  0
 52 51  2  0  0  0  0
 53 55  1  0  0  0  0
 54 53  1  0  0  0  0
M  END
>  <MODEL>
6

>  <REMARK>
 VINA RESULT:      -5.9      2.664      7.048
  Name = 
  6 active torsions:
  status: ('A' for Active; 'I' for Inactive)
    1  A    between atoms: C_1  and  C_53
    2  A    between atoms: C_6  and  C_20
    3  A    between atoms: C_8  and  C_43
    4  A    between atoms: C_10  and  C_32
    5  A    between atoms: C_20  and  C_42
    6  A    between atoms: C_29  and  C_38
                            x       y       z     vdW  Elec       q    Type
                         _______ _______ _______ _____ _____    ______ ____

>  <TORSDO>
F 6

$$$$
=
 OpenBabel11052419413D

 55 63  0  0  1  0  0  0  0  0999 V2000
  192.0010  173.9620  141.8750 C   0  0  0  0  0  0  0  0  0  0  0  0
  187.7800  175.4620  141.3230 C   0  0  0  0  0  3  0  0  0  0  0  0
  188.5090  173.8640  137.7320 C   0  0  0  0  0  2  0  0  0  0  0  0
  187.2630  178.4320  142.8680 C   0  0  0  0  0  2  0  0  0  0  0  0
  186.5260  177.0950  142.6790 C   0  0  2  0  0  3  0  0  0  0  0  0
  190.1160  171.7910  136.3270 C   0  0  0  0  0  2  0  0  0  0  0  0
  193.4360  170.3940  141.8760 C   0  0  0  0  0  2  0  0  0  0  0  0
  189.8610  170.4160  135.7200 C   0  0  0  0  0  2  0  0  0  0  0  0
  191.3650  170.5710  138.1580 C   0  0  0  0  0  0  0  0  0  0  0  0
  191.3850  169.3040  137.3450 C   0  0  0  0  0  2  0  0  0  0  0  0
  189.8590  174.1170  138.1430 C   0  0  1  0  0  3  0  0  0  0  0  0
  191.1180  169.5680  135.8650 C   0  0  0  0  0  2  0  0  0  0  0  0
  193.1150  175.7640  143.2260 C   0  0  0  0  0  3  0  0  0  0  0  0
  190.6600  171.7210  137.7390 C   0  0  0  0  0  0  0  0  0  0  0  0
  190.6300  176.9520  143.7360 C   0  0  0  0  0  0  0  0  0  0  0  0
  191.3130  173.9580  140.6580 C   0  0  0  0  0  3  0  0  0  0  0  0
  190.7040  175.7910  142.9610 C   0  0  0  0  0  3  0  0  0  0  0  0
  194.3120  171.6180  143.8400 C   0  0  2  0  0  3  0  0  0  0  0  0
  191.9780  171.6690  140.2370 C   0  0  0  0  0  0  0  0  0  0  0  0
  192.6860  172.7980  142.2920 C   0  0  0  0  0  0  0  0  0  0  0  0
  186.7490  176.5370  141.2780 C   0  0  0  0  0  2  0  0  0  0  0  0
  191.9910  170.5500  139.4000 C   0  0  0  0  0  3  0  0  0  0  0  0
  188.2440  174.9590  140.2180 C   0  0  0  0  0  0  0  0  0  0  0  0
  193.3020  172.7500  143.6710 C   0  0  0  0  0  2  0  0  0  0  0  0
  188.7100  174.4770  139.1020 C   0  0  0  0  0  0  0  0  0  0  0  0
  193.0430  176.9300  143.9960 C   0  0  0  0  0  3  0  0  0  0  0  0
  191.9430  175.1850  142.7040 C   0  0  0  0  0  0  0  0  0  0  0  0
  190.5790  172.8530  138.5950 C   0  0  0  0  0  0  0  0  0  0  0  0
  193.6850  170.3110  143.3710 C   0  0  0  0  0  2  0  0  0  0  0  0
  191.2820  172.8320  139.8290 C   0  0  0  0  0  0  0  0  0  0  0  0
  188.7730  178.2600  142.7750 C   0  0  0  0  0  2  0  0  0  0  0  0
  192.6580  171.6380  141.4760 C   0  0  0  0  0  0  0  0  0  0  0  0
  189.3030  177.5700  144.0160 C   0  0  0  0  0  2  0  0  0  0  0  0
  191.8000  177.5240  144.2510 C   0  0  0  0  0  3  0  0  0  0  0  0
  194.7860  171.5550  145.2650 C   0  0  0  0  0  0  0  0  0  0  0  0
  195.4920  172.5700  145.7640 C   0  0  0  0  0  2  0  0  0  0  0  0
  194.5140  170.3680  146.1450 C   0  0  0  0  0  1  0  0  0  0  0  0
  184.5110  178.3860  143.6400 C   0  0  0  0  0  2  0  0  0  0  0  0
  184.2770  178.1330  142.1600 C   0  0  1  0  0  3  0  0  0  0  0  0
  185.0170  177.1010  143.0040 C   0  0  1  0  0  3  0  0  0  0  0  0
  182.8270  177.7210  141.9410 C   0  0  0  0  0  2  0  0  0  0  0  0
  179.0680  180.6640  140.8830 C   0  0  0  0  0  1  0  0  0  0  0  0
  182.0430  178.7030  141.0710 C   0  0  2  0  0  3  0  0  0  0  0  0
  181.1790  180.0790  142.8270 O   0  0  0  0  0  0  0  0  0  0  0  0
  180.9650  179.4100  141.8230 C   0  0  0  0  0  0  0  0  0  0  0  0
  179.6110  179.2770  141.2090 C   0  0  2  0  0  0  0  0  0  0  0  0
  181.2970  177.9150  140.0010 C   0  0  0  0  0  2  0  0  0  0  0  0
  179.9050  178.5440  139.8840 C   0  0  1  0  0  3  0  0  0  0  0  0
  178.8920  177.1200  142.3790 N   0  0  0  0  0  2  0  0  0  0  0  0
  178.0220  176.3390  143.2350 C   0  0  0  0  0  1  0  0  0  0  0  0
  178.6860  178.5160  142.1430 C   0  0  0  0  0  0  0  0  0  0  0  0
  177.7650  179.1260  142.7560 O   0  0  0  0  0  0  0  0  0  0  0  0
  178.8510  177.5250  139.4270 C   0  0  0  0  0  3  0  0  0  0  0  0
  179.4040  176.6420  138.4880 O   0  0  0  0  0  1  0  0  0  0  0  0
  177.7690  178.1930  138.8470 O   0  0  0  0  0  1  0  0  0  0  0  0
  1 20  1  0  0  0  0
  1 27  1  0  0  0  0
  3 25  1  0  0  0  0
  5 21  1  6  0  0  0
  5  4  1  0  0  0  0
  5 40  1  0  0  0  0
  6 14  1  0  0  0  0
  7 29  1  0  0  0  0
  8 12  1  0  0  0  0
  8  6  1  0  0  0  0
  9 22  1  0  0  0  0
 10  9  1  0  0  0  0
 11  3  1  6  0  0  0
 11 28  1  0  0  0  0
 11 25  1  0  0  0  0
 12 10  1  0  0  0  0
 13 26  1  0  0  0  0
 14  9  2  0  0  0  0
 14 28  1  0  0  0  0
 15 33  1  0  0  0  0
 15 34  1  0  0  0  0
 16  1  2  0  0  0  0
 17 15  2  0  0  0  0
 18 35  1  1  0  0  0
 19 32  1  0  0  0  0
 20 24  1  0  0  0  0
 21  2  1  0  0  0  0
 22 19  2  0  0  0  0
 23  2  2  0  0  0  0
 24 18  1  0  0  0  0
 25 23  2  0  0  0  0
 26 34  2  0  0  0  0
 27 17  1  0  0  0  0
 27 13  2  0  0  0  0
 28 30  2  0  0  0  0
 29 18  1  0  0  0  0
 30 19  1  0  0  0  0
 30 16  1  0  0  0  0
 31  4  1  0  0  0  0
 31 33  1  0  0  0  0
 32  7  1  0  0  0  0
 32 20  2  0  0  0  0
 35 36  2  0  0  0  0
 35 37  1  0  0  0  0
 39 41  1  1  0  0  0
 39 40  1  0  0  0  0
 39 38  1  0  0  0  0
 40 38  1  1  0  0  0
 43 45  1  0  0  0  0
 43 41  1  1  0  0  0
 45 44  2  0  0  0  0
 46 42  1  6  0  0  0
 46 45  1  0  0  0  0
 46 51  1  0  0  0  0
 47 43  1  0  0  0  0
 48 53  1  1  0  0  0
 48 47  1  0  0  0  0
 48 46  1  0  0  0  0
 49 50  1  0  0  0  0
 51 49  1  0  0  0  0
 51 52  2  0  0  0  0
 54 53  1  0  0  0  0
 55 53  1  0  0  0  0
M  END
>  <MODEL>
7

>  <REMARK>
 VINA RESULT:      -5.5      6.051     10.860
  Name = 
  6 active torsions:
  status: ('A' for Active; 'I' for Inactive)
    1  A    between atoms: C_1  and  C_53
    2  A    between atoms: C_6  and  C_20
    3  A    between atoms: C_8  and  C_43
    4  A    between atoms: C_10  and  C_32
    5  A    between atoms: C_20  and  C_42
    6  A    between atoms: C_29  and  C_38
                            x       y       z     vdW  Elec       q    Type
                         _______ _______ _______ _____ _____    ______ ____

>  <TORSDO>
F 6

$$$$
=
 OpenBabel11052419413D

 55 63  0  0  1  0  0  0  0  0999 V2000
  194.0970  172.2400  143.7760 C   0  0  0  0  0  0  0  0  0  0  0  0
  190.1970  174.5090  143.6800 C   0  0  0  0  0  3  0  0  0  0  0  0
  190.5360  173.3930  139.8570 C   0  0  0  0  0  2  0  0  0  0  0  0
  190.2570  177.2460  145.6780 C   0  0  0  0  0  2  0  0  0  0  0  0
  189.2890  176.1010  145.3300 C   0  0  2  0  0  3  0  0  0  0  0  0
  191.7110  171.3210  138.0740 C   0  0  0  0  0  2  0  0  0  0  0  0
  194.8740  168.5230  143.1660 C   0  0  0  0  0  2  0  0  0  0  0  0
  191.1990  170.1220  137.2830 C   0  0  0  0  0  2  0  0  0  0  0  0
  192.7710  169.6320  139.6320 C   0  0  0  0  0  0  0  0  0  0  0  0
  192.5440  168.5240  138.6390 C   0  0  0  0  0  2  0  0  0  0  0  0
  191.9200  173.3420  140.2290 C   0  0  1  0  0  3  0  0  0  0  0  0
  192.2890  169.0580  137.2320 C   0  0  0  0  0  2  0  0  0  0  0  0
  195.5490  173.5900  145.3190 C   0  0  0  0  0  3  0  0  0  0  0  0
  192.2710  170.9380  139.4290 C   0  0  0  0  0  0  0  0  0  0  0  0
  193.3290  175.0920  146.1330 C   0  0  0  0  0  0  0  0  0  0  0  0
  193.3880  172.5450  142.6100 C   0  0  0  0  0  3  0  0  0  0  0  0
  193.1750  174.0710  145.1900 C   0  0  0  0  0  3  0  0  0  0  0  0
  196.0050  169.2550  145.2420 C   0  0  2  0  0  3  0  0  0  0  0  0
  193.6240  170.2700  141.8170 C   0  0  0  0  0  0  0  0  0  0  0  0
  194.5740  170.9250  143.9770 C   0  0  0  0  0  0  0  0  0  0  0  0
  189.3730  175.7400  143.8510 C   0  0  0  0  0  2  0  0  0  0  0  0
  193.4160  169.3100  140.8220 C   0  0  0  0  0  3  0  0  0  0  0  0
  190.5350  174.1130  142.4890 C   0  0  0  0  0  0  0  0  0  0  0  0
  195.2090  170.5560  145.2980 C   0  0  0  0  0  2  0  0  0  0  0  0
  190.8780  173.7390  141.2910 C   0  0  0  0  0  0  0  0  0  0  0  0
  195.7060  174.6150  146.2580 C   0  0  0  0  0  3  0  0  0  0  0  0
  194.2800  173.3090  144.7800 C   0  0  0  0  0  0  0  0  0  0  0  0
  192.4150  171.9190  140.4470 C   0  0  0  0  0  0  0  0  0  0  0  0
  195.1440  168.1660  144.6170 C   0  0  0  0  0  2  0  0  0  0  0  0
  193.1350  171.5840  141.6250 C   0  0  0  0  0  0  0  0  0  0  0  0
  191.7100  176.8330  145.4780 C   0  0  0  0  0  2  0  0  0  0  0  0
  194.3190  169.9300  142.9990 C   0  0  0  0  0  0  0  0  0  0  0  0
  192.1410  175.8770  146.5730 C   0  0  0  0  0  2  0  0  0  0  0  0
  194.5960  175.3660  146.6650 C   0  0  0  0  0  3  0  0  0  0  0  0
  196.4980  168.8900  146.6140 C   0  0  0  0  0  0  0  0  0  0  0  0
  195.6400  168.8720  147.6340 C   0  0  0  0  0  2  0  0  0  0  0  0
  197.9410  168.5700  146.8830 C   0  0  0  0  0  1  0  0  0  0  0  0
  187.5970  176.6160  147.2060 C   0  0  0  0  0  2  0  0  0  0  0  0
  187.5730  177.7490  146.1930 C   0  0  1  0  0  3  0  0  0  0  0  0
  187.8140  176.3150  145.7320 C   0  0  1  0  0  3  0  0  0  0  0  0
  186.1300  178.1670  145.9390 C   0  0  0  0  0  2  0  0  0  0  0  0
  185.1090  178.2880  141.1590 C   0  0  0  0  0  1  0  0  0  0  0  0
  185.9270  178.8490  144.5870 C   0  0  2  0  0  3  0  0  0  0  0  0
  184.1290  177.4810  143.7990 O   0  0  0  0  0  0  0  0  0  0  0  0
  185.2320  177.9740  143.5970 C   0  0  0  0  0  0  0  0  0  0  0  0
  185.9770  177.8020  142.3150 C   0  0  2  0  0  0  0  0  0  0  0  0
  187.2920  179.1080  143.9630 C   0  0  0  0  0  2  0  0  0  0  0  0
  187.1660  178.7720  142.4740 C   0  0  1  0  0  3  0  0  0  0  0  0
  187.0580  175.9310  140.9470 N   0  0  0  0  0  2  0  0  0  0  0  0
  187.4420  174.5540  140.7130 C   0  0  0  0  0  1  0  0  0  0  0  0
  186.3850  176.3490  142.1380 C   0  0  0  0  0  0  0  0  0  0  0  0
  186.1780  175.5160  143.0660 O   0  0  0  0  0  0  0  0  0  0  0  0
  188.5010  178.3080  141.8740 C   0  0  0  0  0  3  0  0  0  0  0  0
  189.5720  178.8180  142.6220 O   0  0  0  0  0  1  0  0  0  0  0  0
  188.6070  178.7580  140.5550 O   0  0  0  0  0  1  0  0  0  0  0  0
  1 20  1  0  0  0  0
  1 27  1  0  0  0  0
  2 21  1  0  0  0  0
  3 25  1  0  0  0  0
  5 21  1  6  0  0  0
  5  4  1  0  0  0  0
  5 40  1  0  0  0  0
  6 14  1  0  0  0  0
  7 29  1  0  0  0  0
  8  6  1  0  0  0  0
  9 22  1  0  0  0  0
 10  9  1  0  0  0  0
 11  3  1  6  0  0  0
 11 28  1  0  0  0  0
 11 25  1  0  0  0  0
 12  8  1  0  0  0  0
 12 10  1  0  0  0  0
 13 26  1  0  0  0  0
 14  9  2  0  0  0  0
 14 28  1  0  0  0  0
 15 33  1  0  0  0  0
 15 34  1  0  0  0  0
 16  1  2  0  0  0  0
 17 15  2  0  0  0  0
 18 24  1  0  0  0  0
 18 35  1  1  0  0  0
 19 32  1  0  0  0  0
 20 24  1  0  0  0  0
 22 19  2  0  0  0  0
 23  2  2  0  0  0  0
 25 23  2  0  0  0  0
 26 34  2  0  0  0  0
 27 17  1  0  0  0  0
 27 13  2  0  0  0  0
 28 30  2  0  0  0  0
 29 18  1  0  0  0  0
 30 19  1  0  0  0  0
 30 16  1  0  0  0  0
 31  4  1  0  0  0  0
 31 33  1  0  0  0  0
 32  7  1  0  0  0  0
 32 20  2  0  0  0  0
 35 37  1  0  0  0  0
 35 36  2  0  0  0  0
 39 41  1  6  0  0  0
 39 38  1  0  0  0  0
 40 39  1  0  0  0  0
 40 38  1  1  0  0  0
 43 41  1  1  0  0  0
 45 44  2  0  0  0  0
 45 43  1  0  0  0  0
 46 42  1  6  0  0  0
 46 48  1  0  0  0  0
 46 45  1  0  0  0  0
 47 43  1  0  0  0  0
 48 53  1  1  0  0  0
 48 47  1  0  0  0  0
 49 51  1  0  0  0  0
 50 49  1  0  0  0  0
 51 46  1  0  0  0  0
 51 52  2  0  0  0  0
 53 54  1  0  0  0  0
 55 53  1  0  0  0  0
M  END
>  <MODEL>
8

>  <REMARK>
 VINA RESULT:      -5.3      3.552      8.806
  Name = 
  6 active torsions:
  status: ('A' for Active; 'I' for Inactive)
    1  A    between atoms: C_1  and  C_53
    2  A    between atoms: C_6  and  C_20
    3  A    between atoms: C_8  and  C_43
    4  A    between atoms: C_10  and  C_32
    5  A    between atoms: C_20  and  C_42
    6  A    between atoms: C_29  and  C_38
                            x       y       z     vdW  Elec       q    Type
                         _______ _______ _______ _____ _____    ______ ____

>  <TORSDO>
F 6

$$$$
=
 OpenBabel11052419413D

 55 63  0  0  1  0  0  0  0  0999 V2000
  187.6610  177.1600  142.7650 C   0  0  0  0  0  0  0  0  0  0  0  0
  190.0850  173.3610  142.5320 C   0  0  0  0  0  3  0  0  0  0  0  0
  192.0860  175.3830  145.3400 C   0  0  0  0  0  2  0  0  0  0  0  0
  190.3680  172.2140  139.3570 C   0  0  0  0  0  2  0  0  0  0  0  0
  190.1100  171.6440  140.7630 C   0  0  2  0  0  3  0  0  0  0  0  0
  191.7890  177.4630  147.4470 C   0  0  0  0  0  2  0  0  0  0  0  0
  185.5410  178.6350  145.6160 C   0  0  0  0  0  2  0  0  0  0  0  0
  191.7150  177.4940  148.9700 C   0  0  0  0  0  2  0  0  0  0  0  0
  189.3210  178.0230  147.4800 C   0  0  0  0  0  0  0  0  0  0  0  0
  189.3890  178.3790  148.9410 C   0  0  0  0  0  2  0  0  0  0  0  0
  191.4630  176.4870  144.6700 C   0  0  1  0  0  3  0  0  0  0  0  0
  190.8190  178.6480  149.4010 C   0  0  0  0  0  2  0  0  0  0  0  0
  187.0660  177.6500  140.3750 C   0  0  0  0  0  3  0  0  0  0  0  0
  190.4240  177.4700  146.7910 C   0  0  0  0  0  0  0  0  0  0  0  0
  187.9450  175.1030  139.6090 C   0  0  0  0  0  0  0  0  0  0  0  0
  188.8730  176.9530  143.4320 C   0  0  0  0  0  3  0  0  0  0  0  0
  188.0150  175.4930  140.9490 C   0  0  0  0  0  3  0  0  0  0  0  0
  184.2340  178.7050  143.5160 C   0  0  2  0  0  3  0  0  0  0  0  0
  187.9370  177.8110  145.4940 C   0  0  0  0  0  0  0  0  0  0  0  0
  186.5600  177.6950  143.4720 C   0  0  0  0  0  0  0  0  0  0  0  0
  190.9400  172.3740  141.8130 C   0  0  0  0  0  2  0  0  0  0  0  0
  188.0960  178.1640  146.8370 C   0  0  0  0  0  3  0  0  0  0  0  0
  190.6250  174.2070  143.3590 C   0  0  0  0  0  0  0  0  0  0  0  0
  185.2110  177.7800  142.7960 C   0  0  0  0  0  2  0  0  0  0  0  0
  191.1820  175.0590  144.1700 C   0  0  0  0  0  0  0  0  0  0  0  0
  187.0020  177.2630  139.0310 C   0  0  0  0  0  3  0  0  0  0  0  0
  187.5710  176.7640  141.3440 C   0  0  0  0  0  0  0  0  0  0  0  0
  190.2760  177.0460  145.4420 C   0  0  0  0  0  0  0  0  0  0  0  0
  184.1890  178.3370  144.9930 C   0  0  0  0  0  2  0  0  0  0  0  0
  189.0340  177.2630  144.7870 C   0  0  0  0  0  0  0  0  0  0  0  0
  189.9150  173.6630  139.2460 C   0  0  0  0  0  2  0  0  0  0  0  0
  186.6940  178.0040  144.8500 C   0  0  0  0  0  0  0  0  0  0  0  0
  188.4010  173.7410  139.2110 C   0  0  0  0  0  2  0  0  0  0  0  0
  187.4410  175.9900  138.6480 C   0  0  0  0  0  3  0  0  0  0  0  0
  182.8820  178.6420  142.8610 C   0  0  0  0  0  0  0  0  0  0  0  0
  182.7650  178.0840  141.6560 C   0  0  0  0  0  2  0  0  0  0  0  0
  181.6540  179.2150  143.5100 C   0  0  0  0  0  1  0  0  0  0  0  0
  191.1500  169.4700  139.8460 C   0  0  0  0  0  2  0  0  0  0  0  0
  191.7480  169.7670  141.2110 C   0  0  1  0  0  3  0  0  0  0  0  0
  190.2930  170.1190  140.9200 C   0  0  1  0  0  3  0  0  0  0  0  0
  191.8460  168.4740  142.0110 C   0  0  0  0  0  2  0  0  0  0  0  0
  195.6580  168.8490  145.0510 C   0  0  0  0  0  1  0  0  0  0  0  0
  193.2630  168.1680  142.4940 C   0  0  2  0  0  3  0  0  0  0  0  0
  192.8150  168.1750  144.8440 O   0  0  0  0  0  0  0  0  0  0  0  0
  193.4940  168.5820  143.9100 C   0  0  0  0  0  0  0  0  0  0  0  0
  194.6630  169.4920  144.0900 C   0  0  2  0  0  0  0  0  0  0  0  0
  194.2440  169.0140  141.6920 C   0  0  0  0  0  2  0  0  0  0  0  0
  195.2940  169.5260  142.6830 C   0  0  1  0  0  3  0  0  0  0  0  0
  195.0910  171.6900  145.3250 N   0  0  0  0  0  2  0  0  0  0  0  0
  194.6900  172.9790  145.8520 C   0  0  0  0  0  1  0  0  0  0  0  0
  194.1970  170.8490  144.5900 C   0  0  0  0  0  0  0  0  0  0  0  0
  193.0350  171.2610  144.3130 O   0  0  0  0  0  0  0  0  0  0  0  0
  195.8930  170.8690  142.2430 C   0  0  0  0  0  3  0  0  0  0  0  0
  194.8980  171.6850  141.6860 O   0  0  0  0  0  1  0  0  0  0  0  0
  196.8930  170.6510  141.2920 O   0  0  0  0  0  1  0  0  0  0  0  0
  1 16  2  0  0  0  0
  1 20  1  0  0  0  0
  2 23  2  0  0  0  0
  5  4  1  6  0  0  0
  5 40  1  0  0  0  0
  5 21  1  0  0  0  0
  6  8  1  0  0  0  0
  8 12  1  0  0  0  0
  9 10  1  0  0  0  0
 10 12  1  0  0  0  0
 11  3  1  1  0  0  0
 11 28  1  0  0  0  0
 13 27  1  0  0  0  0
 14  6  1  0  0  0  0
 14  9  2  0  0  0  0
 15 17  1  0  0  0  0
 16 30  1  0  0  0  0
 17 27  2  0  0  0  0
 18 35  1  6  0  0  0
 18 29  1  0  0  0  0
 19 22  2  0  0  0  0
 20 32  2  0  0  0  0
 21  2  1  0  0  0  0
 22  9  1  0  0  0  0
 23 25  2  0  0  0  0
 24 20  1  0  0  0  0
 24 18  1  0  0  0  0
 25 11  1  0  0  0  0
 25  3  1  0  0  0  0
 26 13  2  0  0  0  0
 27  1  1  0  0  0  0
 28 14  1  0  0  0  0
 29  7  1  0  0  0  0
 30 28  2  0  0  0  0
 30 19  1  0  0  0  0
 31  4  1  0  0  0  0
 32 19  1  0  0  0  0
 32  7  1  0  0  0  0
 33 31  1  0  0  0  0
 33 15  1  0  0  0  0
 34 26  1  0  0  0  0
 34 15  2  0  0  0  0
 35 37  1  0  0  0  0
 36 35  2  0  0  0  0
 38 39  1  0  0  0  0
 39 41  1  1  0  0  0
 40 38  1  6  0  0  0
 40 39  1  0  0  0  0
 43 41  1  6  0  0  0
 43 45  1  0  0  0  0
 45 46  1  0  0  0  0
 45 44  2  0  0  0  0
 46 51  1  0  0  0  0
 46 42  1  1  0  0  0
 47 43  1  0  0  0  0
 47 48  1  0  0  0  0
 48 53  1  6  0  0  0
 48 46  1  0  0  0  0
 49 50  1  0  0  0  0
 51 49  1  0  0  0  0
 52 51  2  0  0  0  0
 54 53  1  0  0  0  0
 55 53  1  0  0  0  0
M  END
>  <MODEL>
9

>  <REMARK>
 VINA RESULT:      -5.2      3.232      7.862
  Name = 
  6 active torsions:
  status: ('A' for Active; 'I' for Inactive)
    1  A    between atoms: C_1  and  C_53
    2  A    between atoms: C_6  and  C_20
    3  A    between atoms: C_8  and  C_43
    4  A    between atoms: C_10  and  C_32
    5  A    between atoms: C_20  and  C_42
    6  A    between atoms: C_29  and  C_38
                            x       y       z     vdW  Elec       q    Type
                         _______ _______ _______ _____ _____    ______ ____

>  <TORSDO>
F 6

$$$$
