=
 OpenBabel11052419543D

 37 43  0  0  1  0  0  0  0  0999 V2000
  193.3760  174.0410  144.7860 C   0  0  0  0  0  2  0  0  0  0  0  0
  193.2040  171.7580  140.9800 C   0  0  0  0  0  0  0  0  0  0  0  0
  190.0510  174.5970  141.5770 C   0  0  1  0  0  3  0  0  0  0  0  0
  194.0030  175.0220  145.7990 C   0  0  2  0  0  3  0  0  0  0  0  0
  190.3480  176.6620  144.1620 O   0  0  0  0  0  0  0  0  0  0  0  0
  191.2190  172.9790  140.0880 C   0  0  0  0  0  0  0  0  0  0  0  0
  189.9400  174.3950  143.0950 C   0  0  2  0  0  3  0  0  0  0  0  0
  193.8900  176.5110  145.3450 C   0  0  1  0  0  3  0  0  0  0  0  0
  191.1460  173.6590  141.2270 C   0  0  0  0  0  0  0  0  0  0  0  0
  189.4050  175.6350  143.8840 C   0  0  2  0  0  3  0  0  0  0  0  0
  190.1810  173.2150  139.0620 C   0  0  0  0  0  3  0  0  0  0  0  0
  191.8290  173.2170  142.3990 C   0  0  0  0  0  0  0  0  0  0  0  0
  194.4740  172.4920  140.5930 C   0  0  0  0  0  1  0  0  0  0  0  0
  187.6540  175.1810  141.0300 C   0  0  0  0  0  2  0  0  0  0  0  0
  189.0300  173.8170  139.4180 C   0  0  0  0  0  3  0  0  0  0  0  0
  192.7500  172.2510  142.3450 C   0  0  0  0  0  3  0  0  0  0  0  0
  192.4620  177.0800  145.3600 C   0  0  0  0  0  2  0  0  0  0  0  0
  191.5200  176.1050  144.7010 C   0  0  1  0  0  3  0  0  0  0  0  0
  188.7630  174.1490  140.8730 C   0  0  1  0  0  3  0  0  0  0  0  0
  191.1890  173.7340  143.5610 N   0  0  0  0  0  0  0  0  0  0  0  0
  192.2010  171.9820  139.9630 O   0  0  0  0  0  0  0  0  0  0  0  0
  188.1540  176.2760  143.2450 C   0  0  1  0  0  3  0  0  0  0  0  0
  193.5070  170.2770  141.0640 C   0  0  0  0  0  1  0  0  0  0  0  0
  191.2740  175.0170  145.5550 O   0  0  0  0  0  0  0  0  0  0  0  0
  194.7520  177.4270  146.1990 C   0  0  0  0  0  1  0  0  0  0  0  0
  191.8320  173.9180  144.8840 C   0  0  2  0  0  3  0  0  0  0  0  0
  187.2300  175.3130  142.4930 C   0  0  0  0  0  2  0  0  0  0  0  0
  187.3600  176.6750  145.6090 C   0  0  0  0  0  3  0  0  0  0  0  0
  187.3830  177.0600  144.2590 C   0  0  0  0  0  0  0  0  0  0  0  0
  186.6800  178.1990  143.8530 C   0  0  0  0  0  3  0  0  0  0  0  0
  185.2130  180.1590  144.3490 C   0  0  0  0  0  1  0  0  0  0  0  0
  185.9360  178.5630  146.1280 C   0  0  0  0  0  3  0  0  0  0  0  0
  185.9570  178.9500  144.7850 C   0  0  0  0  0  0  0  0  0  0  0  0
  186.6370  177.4260  146.5400 C   0  0  0  0  0  3  0  0  0  0  0  0
  195.4470  174.5930  146.0960 C   0  0  0  0  0  2  0  0  0  0  0  0
  196.8410  172.5150  146.0980 C   0  0  0  0  0  1  0  0  0  0  0  0
  195.8980  173.3800  145.2860 C   0  0  0  0  0  2  0  0  0  0  0  0
  1  4  1  0  0  0  0
  2 23  1  0  0  0  0
  2 16  1  0  0  0  0
  3  9  1  6  0  0  0
  3  7  1  0  0  0  0
  4 35  1  6  0  0  0
  5 18  1  0  0  0  0
  6  9  2  0  0  0  0
  7 20  1  1  0  0  0
  7 10  1  0  0  0  0
  8 17  1  0  0  0  0
  8  4  1  0  0  0  0
  8 25  1  1  0  0  0
  9 12  1  0  0  0  0
 10  5  1  6  0  0  0
 11 15  2  0  0  0  0
 11  6  1  0  0  0  0
 12 20  1  0  0  0  0
 13  2  1  0  0  0  0
 14 27  1  0  0  0  0
 16 12  2  0  0  0  0
 18 17  1  1  0  0  0
 18 24  1  0  0  0  0
 19 15  1  6  0  0  0
 19 14  1  0  0  0  0
 19  3  1  0  0  0  0
 20 26  1  0  0  0  0
 21  6  1  0  0  0  0
 21  2  1  0  0  0  0
 22 10  1  0  0  0  0
 22 29  1  1  0  0  0
 26  1  1  6  0  0  0
 26 24  1  0  0  0  0
 27 22  1  0  0  0  0
 28 34  1  0  0  0  0
 29 28  2  0  0  0  0
 30 29  1  0  0  0  0
 30 33  2  0  0  0  0
 31 33  1  0  0  0  0
 32 34  2  0  0  0  0
 33 32  1  0  0  0  0
 37 35  1  0  0  0  0
 37 36  1  0  0  0  0
M  END
>  <MODEL>
1

>  <REMARK>
 VINA RESULT:      -8.7      0.000      0.000
  Name = 
  3 active torsions:
  status: ('A' for Active; 'I' for Inactive)
    1  A    between atoms: C_5  and  C_17
    2  A    between atoms: C_6  and  C_31
    3  A    between atoms: C_17  and  C_23
                            x       y       z     vdW  Elec       q    Type
                         _______ _______ _______ _____ _____    ______ ____

>  <TORSDO>
F 3

$$$$
=
 OpenBabel11052419543D

 37 43  0  0  1  0  0  0  0  0999 V2000
  192.4610  173.1200  141.4920 C   0  0  0  0  0  2  0  0  0  0  0  0
  194.2460  173.7330  145.5120 C   0  0  0  0  0  0  0  0  0  0  0  0
  190.3300  175.3820  144.9580 C   0  0  1  0  0  3  0  0  0  0  0  0
  191.9110  172.2780  140.3220 C   0  0  2  0  0  3  0  0  0  0  0  0
  188.7380  174.5810  142.1550 O   0  0  0  0  0  0  0  0  0  0  0  0
  192.2270  174.8400  146.4760 C   0  0  0  0  0  0  0  0  0  0  0  0
  190.5330  175.7820  143.4890 C   0  0  2  0  0  3  0  0  0  0  0  0
  190.5090  171.6640  140.6280 C   0  0  1  0  0  3  0  0  0  0  0  0
  191.6400  174.7690  145.2860 C   0  0  0  0  0  0  0  0  0  0  0  0
  189.2230  175.8280  142.6360 C   0  0  2  0  0  3  0  0  0  0  0  0
  191.5060  175.5160  147.5750 C   0  0  0  0  0  3  0  0  0  0  0  0
  192.3950  174.5180  144.1020 C   0  0  0  0  0  0  0  0  0  0  0  0
  194.1380  172.2300  145.6850 C   0  0  0  0  0  1  0  0  0  0  0  0
  188.7140  177.1810  145.6900 C   0  0  0  0  0  2  0  0  0  0  0  0
  190.4710  176.3260  147.2820 C   0  0  0  0  0  3  0  0  0  0  0  0
  193.6670  174.1140  144.1590 C   0  0  0  0  0  3  0  0  0  0  0  0
  189.3640  172.6880  140.7040 C   0  0  0  0  0  2  0  0  0  0  0  0
  189.7840  173.8580  141.5570 C   0  0  1  0  0  3  0  0  0  0  0  0
  190.1230  176.6230  145.8360 C   0  0  1  0  0  3  0  0  0  0  0  0
  191.7020  175.0250  142.9660 N   0  0  0  0  0  0  0  0  0  0  0  0
  193.5510  174.3840  146.6010 O   0  0  0  0  0  0  0  0  0  0  0  0
  188.0620  176.5700  143.3320 C   0  0  1  0  0  3  0  0  0  0  0  0
  195.7090  174.1210  145.5520 C   0  0  0  0  0  1  0  0  0  0  0  0
  190.6870  174.6710  140.8520 O   0  0  0  0  0  0  0  0  0  0  0  0
  190.1140  170.6190  139.5970 C   0  0  0  0  0  1  0  0  0  0  0  0
  191.8870  174.5600  141.5710 C   0  0  2  0  0  3  0  0  0  0  0  0
  188.4750  177.7060  144.2740 C   0  0  0  0  0  2  0  0  0  0  0  0
  187.3920  177.1450  140.9660 C   0  0  0  0  0  3  0  0  0  0  0  0
  187.0650  177.0570  142.3290 C   0  0  0  0  0  0  0  0  0  0  0  0
  185.7850  177.4220  142.7590 C   0  0  0  0  0  3  0  0  0  0  0  0
  183.4770  178.2600  142.2980 C   0  0  0  0  0  1  0  0  0  0  0  0
  185.1640  177.9600  140.4810 C   0  0  0  0  0  3  0  0  0  0  0  0
  184.8360  177.8740  141.8370 C   0  0  0  0  0  0  0  0  0  0  0  0
  186.4420  177.5970  140.0460 C   0  0  0  0  0  3  0  0  0  0  0  0
  192.9520  171.2220  139.9210 C   0  0  0  0  0  2  0  0  0  0  0  0
  193.3550  169.4680  141.6590 C   0  0  0  0  0  1  0  0  0  0  0  0
  193.8430  170.7800  141.0790 C   0  0  0  0  0  2  0  0  0  0  0  0
  2 23  1  0  0  0  0
  2 13  1  0  0  0  0
  2 21  1  0  0  0  0
  3  9  1  1  0  0  0
  3 19  1  0  0  0  0
  4 35  1  1  0  0  0
  4  8  1  0  0  0  0
  4  1  1  0  0  0  0
  6 21  1  0  0  0  0
  6 11  1  0  0  0  0
  7 20  1  6  0  0  0
  7  3  1  0  0  0  0
  8 25  1  6  0  0  0
  8 17  1  0  0  0  0
  9  6  2  0  0  0  0
 10  5  1  1  0  0  0
 10 22  1  0  0  0  0
 10  7  1  0  0  0  0
 12 16  2  0  0  0  0
 12  9  1  0  0  0  0
 15 11  2  0  0  0  0
 16  2  1  0  0  0  0
 18 17  1  6  0  0  0
 18  5  1  0  0  0  0
 19 14  1  1  0  0  0
 19 15  1  0  0  0  0
 20 12  1  0  0  0  0
 22 29  1  6  0  0  0
 22 27  1  0  0  0  0
 24 18  1  0  0  0  0
 24 26  1  0  0  0  0
 26  1  1  1  0  0  0
 26 20  1  0  0  0  0
 27 14  1  0  0  0  0
 28 29  1  0  0  0  0
 29 30  2  0  0  0  0
 32 33  2  0  0  0  0
 33 31  1  0  0  0  0
 33 30  1  0  0  0  0
 34 32  1  0  0  0  0
 34 28  2  0  0  0  0
 35 37  1  0  0  0  0
 37 36  1  0  0  0  0
M  END
>  <MODEL>
2

>  <REMARK>
 VINA RESULT:      -8.1      1.948      5.313
  Name = 
  3 active torsions:
  status: ('A' for Active; 'I' for Inactive)
    1  A    between atoms: C_5  and  C_17
    2  A    between atoms: C_6  and  C_31
    3  A    between atoms: C_17  and  C_23
                            x       y       z     vdW  Elec       q    Type
                         _______ _______ _______ _____ _____    ______ ____

>  <TORSDO>
F 3

$$$$
=
 OpenBabel11052419543D

 37 43  0  0  1  0  0  0  0  0999 V2000
  189.5870  172.8350  141.0110 C   0  0  0  0  0  2  0  0  0  0  0  0
  187.4630  176.4050  142.5820 C   0  0  0  0  0  0  0  0  0  0  0  0
  191.3030  175.6280  144.3160 C   0  0  1  0  0  3  0  0  0  0  0  0
  190.2760  171.9880  139.9210 C   0  0  2  0  0  3  0  0  0  0  0  0
  193.1530  173.2650  142.8910 O   0  0  0  0  0  0  0  0  0  0  0  0
  189.3310  177.1270  144.0720 C   0  0  0  0  0  0  0  0  0  0  0  0
  191.1910  174.0970  144.2710 C   0  0  2  0  0  3  0  0  0  0  0  0
  191.6840  172.5350  139.5320 C   0  0  1  0  0  3  0  0  0  0  0  0
  190.0110  176.0420  143.7170 C   0  0  0  0  0  0  0  0  0  0  0  0
  192.5580  173.3420  144.1800 C   0  0  2  0  0  3  0  0  0  0  0  0
  189.9230  178.0270  145.0840 C   0  0  0  0  0  3  0  0  0  0  0  0
  189.3660  174.9370  143.0850 C   0  0  0  0  0  0  0  0  0  0  0  0
  187.6480  177.0050  141.2020 C   0  0  0  0  0  1  0  0  0  0  0  0
  192.7470  175.9070  146.3710 C   0  0  0  0  0  2  0  0  0  0  0  0
  190.9270  177.5740  145.8600 C   0  0  0  0  0  3  0  0  0  0  0  0
  188.1210  175.0350  142.6130 C   0  0  0  0  0  3  0  0  0  0  0  0
  192.7560  172.3810  140.6230 C   0  0  0  0  0  2  0  0  0  0  0  0
  192.2020  172.8390  141.9480 C   0  0  1  0  0  3  0  0  0  0  0  0
  191.3670  176.1260  145.7660 C   0  0  1  0  0  3  0  0  0  0  0  0
  190.1130  173.7450  143.3070 N   0  0  0  0  0  0  0  0  0  0  0  0
  188.0310  177.3010  143.5660 O   0  0  0  0  0  0  0  0  0  0  0  0
  193.6140  173.8630  145.1780 C   0  0  1  0  0  3  0  0  0  0  0  0
  185.9810  176.2490  142.8480 C   0  0  0  0  0  1  0  0  0  0  0  0
  191.3080  171.8820  142.4560 O   0  0  0  0  0  0  0  0  0  0  0  0
  192.2190  171.8690  138.2740 C   0  0  0  0  0  1  0  0  0  0  0  0
  190.0650  172.5330  142.4560 C   0  0  2  0  0  3  0  0  0  0  0  0
  193.0620  174.4170  146.4950 C   0  0  0  0  0  2  0  0  0  0  0  0
  196.0170  173.1580  145.5080 C   0  0  0  0  0  3  0  0  0  0  0  0
  194.6550  172.8220  145.4420 C   0  0  0  0  0  0  0  0  0  0  0  0
  194.2610  171.4930  145.6320 C   0  0  0  0  0  3  0  0  0  0  0  0
  194.7940  169.0960  146.0880 C   0  0  0  0  0  1  0  0  0  0  0  0
  196.5720  170.8440  145.9520 C   0  0  0  0  0  3  0  0  0  0  0  0
  195.2170  170.5050  145.8860 C   0  0  0  0  0  0  0  0  0  0  0  0
  196.9720  172.1700  145.7620 C   0  0  0  0  0  3  0  0  0  0  0  0
  189.3340  171.8460  138.7160 C   0  0  0  0  0  2  0  0  0  0  0  0
  188.7590  173.9700  137.5250 C   0  0  0  0  0  1  0  0  0  0  0  0
  188.3270  172.9880  138.5960 C   0  0  0  0  0  2  0  0  0  0  0  0
  2 16  1  0  0  0  0
  2 23  1  0  0  0  0
  2 21  1  0  0  0  0
  3  9  1  1  0  0  0
  3 19  1  0  0  0  0
  4 35  1  6  0  0  0
  4  1  1  0  0  0  0
  6 11  1  0  0  0  0
  7 20  1  6  0  0  0
  7  3  1  0  0  0  0
  8 25  1  6  0  0  0
  8  4  1  0  0  0  0
  8 17  1  0  0  0  0
  9  6  2  0  0  0  0
 10  5  1  6  0  0  0
 10  7  1  0  0  0  0
 10 22  1  0  0  0  0
 11 15  2  0  0  0  0
 12 20  1  0  0  0  0
 12  9  1  0  0  0  0
 13  2  1  0  0  0  0
 14 27  1  0  0  0  0
 16 12  2  0  0  0  0
 18 17  1  6  0  0  0
 18 24  1  0  0  0  0
 18  5  1  0  0  0  0
 19 15  1  6  0  0  0
 19 14  1  0  0  0  0
 21  6  1  0  0  0  0
 22 29  1  1  0  0  0
 22 27  1  0  0  0  0
 26  1  1  6  0  0  0
 26 24  1  0  0  0  0
 26 20  1  0  0  0  0
 28 34  1  0  0  0  0
 29 28  2  0  0  0  0
 29 30  1  0  0  0  0
 30 33  2  0  0  0  0
 33 32  1  0  0  0  0
 33 31  1  0  0  0  0
 34 32  2  0  0  0  0
 36 37  1  0  0  0  0
 37 35  1  0  0  0  0
M  END
>  <MODEL>
3

>  <REMARK>
 VINA RESULT:      -8.0      1.998      7.958
  Name = 
  3 active torsions:
  status: ('A' for Active; 'I' for Inactive)
    1  A    between atoms: C_5  and  C_17
    2  A    between atoms: C_6  and  C_31
    3  A    between atoms: C_17  and  C_23
                            x       y       z     vdW  Elec       q    Type
                         _______ _______ _______ _____ _____    ______ ____

>  <TORSDO>
F 3

$$$$
=
 OpenBabel11052419543D

 37 43  0  0  1  0  0  0  0  0999 V2000
  192.3120  171.0390  143.4570 C   0  0  0  0  0  2  0  0  0  0  0  0
  191.1900  170.3930  139.2090 C   0  0  0  0  0  0  0  0  0  0  0  0
  189.6290  173.9530  141.0130 C   0  0  1  0  0  3  0  0  0  0  0  0
  193.2980  171.2790  144.6210 C   0  0  2  0  0  3  0  0  0  0  0  0
  190.7830  174.7500  144.0240 O   0  0  0  0  0  0  0  0  0  0  0  0
  189.9710  172.5590  138.9790 C   0  0  0  0  0  0  0  0  0  0  0  0
  189.4190  173.3450  142.4070 C   0  0  2  0  0  3  0  0  0  0  0  0
  193.8690  172.7320  144.6370 C   0  0  1  0  0  3  0  0  0  0  0  0
  190.1940  172.8030  140.2650 C   0  0  0  0  0  0  0  0  0  0  0  0
  189.4840  174.3730  143.5860 C   0  0  2  0  0  3  0  0  0  0  0  0
  189.1610  173.5290  138.2110 C   0  0  0  0  0  3  0  0  0  0  0  0
  190.5930  171.7640  141.1580 C   0  0  0  0  0  0  0  0  0  0  0  0
  192.6580  170.5950  138.8890 C   0  0  0  0  0  1  0  0  0  0  0  0
  187.7530  175.6450  140.9780 C   0  0  0  0  0  2  0  0  0  0  0  0
  188.3960  174.4170  138.8740 C   0  0  0  0  0  3  0  0  0  0  0  0
  190.9850  170.5700  140.7050 C   0  0  0  0  0  3  0  0  0  0  0  0
  192.8450  173.8190  145.0040 C   0  0  0  0  0  2  0  0  0  0  0  0
  191.5750  173.6070  144.2190 C   0  0  1  0  0  3  0  0  0  0  0  0
  188.2860  174.3480  140.3850 C   0  0  1  0  0  3  0  0  0  0  0  0
  190.2360  172.1040  142.4940 N   0  0  0  0  0  0  0  0  0  0  0  0
  190.4060  171.3350  138.4410 O   0  0  0  0  0  0  0  0  0  0  0  0
  188.6600  175.6530  143.3300 C   0  0  1  0  0  3  0  0  0  0  0  0
  190.7980  168.9840  138.8190 C   0  0  0  0  0  1  0  0  0  0  0  0
  190.8580  172.5190  144.7450 O   0  0  0  0  0  0  0  0  0  0  0  0
  195.0380  172.8670  145.6000 C   0  0  0  0  0  1  0  0  0  0  0  0
  190.8750  171.5630  143.7170 C   0  0  2  0  0  3  0  0  0  0  0  0
  187.4130  175.4730  142.4590 C   0  0  0  0  0  2  0  0  0  0  0  0
  189.3030  176.8210  145.4750 C   0  0  0  0  0  3  0  0  0  0  0  0
  188.3070  176.3230  144.6200 C   0  0  0  0  0  0  0  0  0  0  0  0
  186.9610  176.4610  144.9730 C   0  0  0  0  0  3  0  0  0  0  0  0
  185.1770  177.2350  146.5410 C   0  0  0  0  0  1  0  0  0  0  0  0
  187.6030  177.5850  147.0200 C   0  0  0  0  0  3  0  0  0  0  0  0
  186.6080  177.0900  146.1710 C   0  0  0  0  0  0  0  0  0  0  0  0
  188.9500  177.4500  146.6720 C   0  0  0  0  0  3  0  0  0  0  0  0
  194.3950  170.2050  144.5880 C   0  0  0  0  0  2  0  0  0  0  0  0
  194.8630  169.2600  146.8570 C   0  0  0  0  0  1  0  0  0  0  0  0
  194.1350  169.0440  145.5450 C   0  0  0  0  0  2  0  0  0  0  0  0
  1  4  1  0  0  0  0
  2 16  1  0  0  0  0
  3  9  1  6  0  0  0
  3  7  1  0  0  0  0
  4 35  1  6  0  0  0
  4  8  1  0  0  0  0
  5 18  1  0  0  0  0
  6  9  2  0  0  0  0
  7 20  1  1  0  0  0
  7 10  1  0  0  0  0
  8 17  1  0  0  0  0
  8 25  1  1  0  0  0
  9 12  1  0  0  0  0
 10  5  1  6  0  0  0
 11 15  2  0  0  0  0
 11  6  1  0  0  0  0
 12 20  1  0  0  0  0
 13  2  1  0  0  0  0
 14 27  1  0  0  0  0
 16 12  2  0  0  0  0
 18 24  1  0  0  0  0
 18 17  1  1  0  0  0
 19 15  1  6  0  0  0
 19 14  1  0  0  0  0
 19  3  1  0  0  0  0
 20 26  1  0  0  0  0
 21  6  1  0  0  0  0
 21  2  1  0  0  0  0
 22 10  1  0  0  0  0
 22 29  1  1  0  0  0
 23  2  1  0  0  0  0
 26  1  1  6  0  0  0
 26 24  1  0  0  0  0
 27 22  1  0  0  0  0
 28 34  1  0  0  0  0
 29 30  1  0  0  0  0
 29 28  2  0  0  0  0
 30 33  2  0  0  0  0
 33 31  1  0  0  0  0
 33 32  1  0  0  0  0
 34 32  2  0  0  0  0
 35 37  1  0  0  0  0
 37 36  1  0  0  0  0
M  END
>  <MODEL>
4

>  <REMARK>
 VINA RESULT:      -7.8      1.978      2.702
  Name = 
  3 active torsions:
  status: ('A' for Active; 'I' for Inactive)
    1  A    between atoms: C_5  and  C_17
    2  A    between atoms: C_6  and  C_31
    3  A    between atoms: C_17  and  C_23
                            x       y       z     vdW  Elec       q    Type
                         _______ _______ _______ _____ _____    ______ ____

>  <TORSDO>
F 3

$$$$
=
 OpenBabel11052419543D

 37 43  0  0  1  0  0  0  0  0999 V2000
  193.0200  173.1160  140.6480 C   0  0  0  0  0  2  0  0  0  0  0  0
  196.5050  174.2560  143.1540 C   0  0  0  0  0  0  0  0  0  0  0  0
  192.6620  175.2190  144.7850 C   0  0  1  0  0  3  0  0  0  0  0  0
  192.0920  172.1250  139.9140 C   0  0  2  0  0  3  0  0  0  0  0  0
  190.0040  174.0010  143.2080 O   0  0  0  0  0  0  0  0  0  0  0  0
  195.1320  175.0830  145.0660 C   0  0  0  0  0  0  0  0  0  0  0  0
  191.9990  175.5540  143.4410 C   0  0  2  0  0  3  0  0  0  0  0  0
  191.1820  171.3150  140.8900 C   0  0  1  0  0  3  0  0  0  0  0  0
  194.0330  174.8450  144.3590 C   0  0  0  0  0  0  0  0  0  0  0  0
  190.4500  175.3360  143.4030 C   0  0  2  0  0  3  0  0  0  0  0  0
  194.9870  175.7020  146.4010 C   0  0  0  0  0  3  0  0  0  0  0  0
  194.0890  174.6450  142.9470 C   0  0  0  0  0  0  0  0  0  0  0  0
  196.7580  172.7690  143.3100 C   0  0  0  0  0  1  0  0  0  0  0  0
  191.3880  176.7780  146.3110 C   0  0  0  0  0  2  0  0  0  0  0  0
  193.8310  176.3160  146.7190 C   0  0  0  0  0  3  0  0  0  0  0  0
  195.2510  174.4540  142.3180 C   0  0  0  0  0  3  0  0  0  0  0  0
  190.0910  172.1450  141.5860 C   0  0  0  0  0  2  0  0  0  0  0  0
  190.6890  173.4190  142.1290 C   0  0  1  0  0  3  0  0  0  0  0  0
  192.7370  176.4630  145.6800 C   0  0  1  0  0  3  0  0  0  0  0  0
  192.8310  174.9630  142.3590 N   0  0  0  0  0  0  0  0  0  0  0  0
  196.3810  174.8540  144.4650 O   0  0  0  0  0  0  0  0  0  0  0  0
  189.7170  175.9250  144.6270 C   0  0  1  0  0  3  0  0  0  0  0  0
  197.6840  174.8750  142.4330 C   0  0  0  0  0  1  0  0  0  0  0  0
  190.9400  174.3200  141.0810 O   0  0  0  0  0  0  0  0  0  0  0  0
  190.4910  170.1580  140.1860 C   0  0  0  0  0  1  0  0  0  0  0  0
  192.3380  174.4470  141.0600 C   0  0  2  0  0  3  0  0  0  0  0  0
  190.3610  177.1690  145.2480 C   0  0  0  0  0  2  0  0  0  0  0  0
  187.7940  176.0790  142.9970 C   0  0  0  0  0  3  0  0  0  0  0  0
  188.2770  176.1830  144.3110 C   0  0  0  0  0  0  0  0  0  0  0  0
  187.4000  176.5240  145.3460 C   0  0  0  0  0  3  0  0  0  0  0  0
  185.1220  177.1250  146.1750 C   0  0  0  0  0  1  0  0  0  0  0  0
  185.5720  176.6590  143.7630 C   0  0  0  0  0  3  0  0  0  0  0  0
  186.0500  176.7630  145.0730 C   0  0  0  0  0  0  0  0  0  0  0  0
  186.4440  176.3180  142.7250 C   0  0  0  0  0  3  0  0  0  0  0  0
  192.9330  171.2270  138.9940 C   0  0  0  0  0  2  0  0  0  0  0  0
  191.5160  172.3520  137.2660 C   0  0  0  0  0  1  0  0  0  0  0  0
  192.7950  171.5770  137.5140 C   0  0  0  0  0  2  0  0  0  0  0  0
  2 13  1  0  0  0  0
  2 21  1  0  0  0  0
  3  9  1  6  0  0  0
  3 19  1  0  0  0  0
  4 35  1  1  0  0  0
  4  1  1  0  0  0  0
  4  8  1  0  0  0  0
  6 11  1  0  0  0  0
  7 20  1  6  0  0  0
  7  3  1  0  0  0  0
  8 25  1  6  0  0  0
  8 17  1  0  0  0  0
  9  6  2  0  0  0  0
 10  5  1  1  0  0  0
 10  7  1  0  0  0  0
 10 22  1  0  0  0  0
 11 15  2  0  0  0  0
 12  9  1  0  0  0  0
 16 12  2  0  0  0  0
 16  2  1  0  0  0  0
 18 17  1  6  0  0  0
 18  5  1  0  0  0  0
 19 14  1  1  0  0  0
 19 15  1  0  0  0  0
 20 12  1  0  0  0  0
 21  6  1  0  0  0  0
 22 29  1  6  0  0  0
 22 27  1  0  0  0  0
 23  2  1  0  0  0  0
 24 18  1  0  0  0  0
 26  1  1  1  0  0  0
 26 24  1  0  0  0  0
 26 20  1  0  0  0  0
 27 14  1  0  0  0  0
 28 29  1  0  0  0  0
 29 30  2  0  0  0  0
 32 33  2  0  0  0  0
 33 30  1  0  0  0  0
 33 31  1  0  0  0  0
 34 28  2  0  0  0  0
 34 32  1  0  0  0  0
 36 37  1  0  0  0  0
 37 35  1  0  0  0  0
M  END
>  <MODEL>
5

>  <REMARK>
 VINA RESULT:      -7.8      2.063      5.568
  Name = 
  3 active torsions:
  status: ('A' for Active; 'I' for Inactive)
    1  A    between atoms: C_5  and  C_17
    2  A    between atoms: C_6  and  C_31
    3  A    between atoms: C_17  and  C_23
                            x       y       z     vdW  Elec       q    Type
                         _______ _______ _______ _____ _____    ______ ____

>  <TORSDO>
F 3

$$$$
=
 OpenBabel11052419543D

 37 43  0  0  1  0  0  0  0  0999 V2000
  190.9360  174.4010  140.7880 C   0  0  0  0  0  2  0  0  0  0  0  0
  194.8620  174.3560  142.8640 C   0  0  0  0  0  0  0  0  0  0  0  0
  191.5010  175.4480  145.2890 C   0  0  1  0  0  3  0  0  0  0  0  0
  189.7550  173.7720  140.0190 C   0  0  2  0  0  3  0  0  0  0  0  0
  188.4860  175.0660  143.9490 O   0  0  0  0  0  0  0  0  0  0  0  0
  193.9200  174.8810  145.1150 C   0  0  0  0  0  0  0  0  0  0  0  0
  190.7460  176.1990  144.1830 C   0  0  2  0  0  3  0  0  0  0  0  0
  188.8440  172.8910  140.9300 C   0  0  1  0  0  3  0  0  0  0  0  0
  192.7140  174.9910  144.5670 C   0  0  0  0  0  0  0  0  0  0  0  0
  189.1910  176.2300  144.3570 C   0  0  2  0  0  3  0  0  0  0  0  0
  194.0620  175.1650  146.5590 C   0  0  0  0  0  3  0  0  0  0  0  0
  192.5520  175.1390  143.1570 C   0  0  0  0  0  0  0  0  0  0  0  0
  194.8550  172.8560  142.6430 C   0  0  0  0  0  1  0  0  0  0  0  0
  190.7410  176.7540  147.3130 C   0  0  0  0  0  2  0  0  0  0  0  0
  193.0900  175.8470  147.1930 C   0  0  0  0  0  3  0  0  0  0  0  0
  193.5700  174.9390  142.3150 C   0  0  0  0  0  3  0  0  0  0  0  0
  188.0220  173.6760  141.9660 C   0  0  0  0  0  2  0  0  0  0  0  0
  188.9090  174.6720  142.6680 C   0  0  1  0  0  3  0  0  0  0  0  0
  191.9180  176.4070  146.4110 C   0  0  1  0  0  3  0  0  0  0  0  0
  191.3100  175.7760  142.8730 N   0  0  0  0  0  0  0  0  0  0  0  0
  195.0180  174.6240  144.2770 O   0  0  0  0  0  0  0  0  0  0  0  0
  188.7410  176.6010  145.7870 C   0  0  1  0  0  3  0  0  0  0  0  0
  196.0330  174.9510  142.1120 C   0  0  0  0  0  1  0  0  0  0  0  0
  189.1860  175.7570  141.8190 O   0  0  0  0  0  0  0  0  0  0  0  0
  187.8670  172.0590  140.1130 C   0  0  0  0  0  1  0  0  0  0  0  0
  190.5690  175.6760  141.5940 C   0  0  2  0  0  3  0  0  0  0  0  0
  189.6780  177.5430  146.5510 C   0  0  0  0  0  2  0  0  0  0  0  0
  186.3590  176.6040  146.6250 C   0  0  0  0  0  3  0  0  0  0  0  0
  187.3460  177.1390  145.7810 C   0  0  0  0  0  0  0  0  0  0  0  0
  187.0240  178.1990  144.9270 C   0  0  0  0  0  3  0  0  0  0  0  0
  185.3900  179.8460  144.0010 C   0  0  0  0  0  1  0  0  0  0  0  0
  184.7470  178.1850  145.7520 C   0  0  0  0  0  3  0  0  0  0  0  0
  185.7270  178.7210  144.9100 C   0  0  0  0  0  0  0  0  0  0  0  0
  185.0630  177.1270  146.6080 C   0  0  0  0  0  3  0  0  0  0  0  0
  190.2920  173.0130  138.7960 C   0  0  0  0  0  2  0  0  0  0  0  0
  188.9110  174.1370  137.0380 C   0  0  0  0  0  1  0  0  0  0  0  0
  190.3190  173.8580  137.5240 C   0  0  0  0  0  2  0  0  0  0  0  0
  2 21  1  0  0  0  0
  3  9  1  6  0  0  0
  3 19  1  0  0  0  0
  4 35  1  6  0  0  0
  4  1  1  0  0  0  0
  4  8  1  0  0  0  0
  6 11  1  0  0  0  0
  7 20  1  6  0  0  0
  7 10  1  0  0  0  0
  7  3  1  0  0  0  0
  8 25  1  6  0  0  0
  8 17  1  0  0  0  0
  9  6  2  0  0  0  0
 10  5  1  1  0  0  0
 10 22  1  0  0  0  0
 11 15  2  0  0  0  0
 12  9  1  0  0  0  0
 13  2  1  0  0  0  0
 16  2  1  0  0  0  0
 16 12  2  0  0  0  0
 18 17  1  6  0  0  0
 18  5  1  0  0  0  0
 19 15  1  1  0  0  0
 19 14  1  0  0  0  0
 20 12  1  0  0  0  0
 21  6  1  0  0  0  0
 22 29  1  6  0  0  0
 22 27  1  0  0  0  0
 23  2  1  0  0  0  0
 24 18  1  0  0  0  0
 26  1  1  1  0  0  0
 26 24  1  0  0  0  0
 26 20  1  0  0  0  0
 27 14  1  0  0  0  0
 29 28  2  0  0  0  0
 30 29  1  0  0  0  0
 31 33  1  0  0  0  0
 32 34  2  0  0  0  0
 33 30  2  0  0  0  0
 33 32  1  0  0  0  0
 34 28  1  0  0  0  0
 36 37  1  0  0  0  0
 37 35  1  0  0  0  0
M  END
>  <MODEL>
6

>  <REMARK>
 VINA RESULT:      -7.7      1.960      5.536
  Name = 
  3 active torsions:
  status: ('A' for Active; 'I' for Inactive)
    1  A    between atoms: C_5  and  C_17
    2  A    between atoms: C_6  and  C_31
    3  A    between atoms: C_17  and  C_23
                            x       y       z     vdW  Elec       q    Type
                         _______ _______ _______ _____ _____    ______ ____

>  <TORSDO>
F 3

$$$$
=
 OpenBabel11052419543D

 37 43  0  0  1  0  0  0  0  0999 V2000
  189.4010  175.8500  144.8150 C   0  0  0  0  0  2  0  0  0  0  0  0
  186.2270  178.3400  146.6720 C   0  0  0  0  0  0  0  0  0  0  0  0
  185.5670  177.2540  142.5800 C   0  0  1  0  0  3  0  0  0  0  0  0
  190.2770  174.5890  144.6630 C   0  0  2  0  0  3  0  0  0  0  0  0
  187.6460  175.0270  141.2550 O   0  0  0  0  0  0  0  0  0  0  0  0
  184.7230  178.2890  144.6810 C   0  0  0  0  0  0  0  0  0  0  0  0
  187.0420  177.3220  142.1580 C   0  0  2  0  0  3  0  0  0  0  0  0
  189.4950  173.3820  144.0570 C   0  0  1  0  0  3  0  0  0  0  0  0
  185.6490  177.6040  144.0190 C   0  0  0  0  0  0  0  0  0  0  0  0
  187.4220  176.3980  140.9540 C   0  0  2  0  0  3  0  0  0  0  0  0
  183.4890  178.6750  143.9640 C   0  0  0  0  0  3  0  0  0  0  0  0
  186.9990  177.5490  144.4790 C   0  0  0  0  0  0  0  0  0  0  0  0
  185.9420  177.1450  147.5610 C   0  0  0  0  0  1  0  0  0  0  0  0
  184.4530  177.9170  140.4120 C   0  0  0  0  0  2  0  0  0  0  0  0
  183.4750  178.6450  142.6180 C   0  0  0  0  0  3  0  0  0  0  0  0
  187.3360  177.9740  145.7000 C   0  0  0  0  0  3  0  0  0  0  0  0
  189.1090  173.5460  142.5780 C   0  0  0  0  0  2  0  0  0  0  0  0
  188.5090  174.9120  142.3580 C   0  0  1  0  0  3  0  0  0  0  0  0
  184.7430  178.3230  141.8500 C   0  0  1  0  0  3  0  0  0  0  0  0
  187.8740  177.2690  143.3910 N   0  0  0  0  0  0  0  0  0  0  0  0
  185.0110  178.7200  145.9880 O   0  0  0  0  0  0  0  0  0  0  0  0
  186.4290  176.4860  139.7760 C   0  0  1  0  0  3  0  0  0  0  0  0
  186.6900  179.4900  147.5410 C   0  0  0  0  0  1  0  0  0  0  0  0
  189.5160  175.8910  142.3760 O   0  0  0  0  0  0  0  0  0  0  0  0
  190.2790  172.0840  144.1790 C   0  0  0  0  0  1  0  0  0  0  0  0
  189.2230  176.6680  143.5080 C   0  0  2  0  0  3  0  0  0  0  0  0
  185.7410  177.8430  139.5920 C   0  0  0  0  0  2  0  0  0  0  0  0
  187.9050  174.9160  138.4590 C   0  0  0  0  0  3  0  0  0  0  0  0
  187.0770  176.0500  138.5000 C   0  0  0  0  0  0  0  0  0  0  0  0
  186.8480  176.7810  137.3300 C   0  0  0  0  0  3  0  0  0  0  0  0
  187.1920  177.1660  134.8860 C   0  0  0  0  0  1  0  0  0  0  0  0
  188.2630  175.2570  136.0890 C   0  0  0  0  0  3  0  0  0  0  0  0
  187.4390  176.3870  136.1270 C   0  0  0  0  0  0  0  0  0  0  0  0
  188.4960  174.5220  137.2550 C   0  0  0  0  0  3  0  0  0  0  0  0
  190.9340  174.2600  146.0120 C   0  0  0  0  0  2  0  0  0  0  0  0
  191.2210  175.7340  148.0130 C   0  0  0  0  0  1  0  0  0  0  0  0
  190.2370  174.9160  147.2010 C   0  0  0  0  0  2  0  0  0  0  0  0
  2 23  1  0  0  0  0
  2 13  1  0  0  0  0
  3  9  1  1  0  0  0
  4  1  1  0  0  0  0
  4 35  1  1  0  0  0
  5 18  1  0  0  0  0
  6 21  1  0  0  0  0
  7  3  1  0  0  0  0
  7 20  1  1  0  0  0
  8 25  1  6  0  0  0
  8  4  1  0  0  0  0
  9 12  1  0  0  0  0
  9  6  2  0  0  0  0
 10  5  1  1  0  0  0
 10  7  1  0  0  0  0
 11  6  1  0  0  0  0
 12 16  2  0  0  0  0
 15 11  2  0  0  0  0
 16  2  1  0  0  0  0
 17  8  1  0  0  0  0
 18 24  1  0  0  0  0
 18 17  1  6  0  0  0
 19 14  1  6  0  0  0
 19  3  1  0  0  0  0
 19 15  1  0  0  0  0
 20 26  1  0  0  0  0
 20 12  1  0  0  0  0
 21  2  1  0  0  0  0
 22 29  1  6  0  0  0
 22 10  1  0  0  0  0
 24 26  1  0  0  0  0
 26  1  1  1  0  0  0
 27 22  1  0  0  0  0
 27 14  1  0  0  0  0
 28 29  1  0  0  0  0
 30 29  2  0  0  0  0
 31 33  1  0  0  0  0
 32 33  2  0  0  0  0
 32 34  1  0  0  0  0
 33 30  1  0  0  0  0
 34 28  2  0  0  0  0
 35 37  1  0  0  0  0
 37 36  1  0  0  0  0
M  END
>  <MODEL>
7

>  <REMARK>
 VINA RESULT:      -7.5      3.130      7.393
  Name = 
  3 active torsions:
  status: ('A' for Active; 'I' for Inactive)
    1  A    between atoms: C_5  and  C_17
    2  A    between atoms: C_6  and  C_31
    3  A    between atoms: C_17  and  C_23
                            x       y       z     vdW  Elec       q    Type
                         _______ _______ _______ _____ _____    ______ ____

>  <TORSDO>
F 3

$$$$
=
 OpenBabel11052419543D

 37 43  0  0  1  0  0  0  0  0999 V2000
  193.2500  173.5700  144.8310 C   0  0  0  0  0  2  0  0  0  0  0  0
  191.1820  176.4030  147.5560 C   0  0  0  0  0  0  0  0  0  0  0  0
  188.9610  175.2190  144.0870 C   0  0  1  0  0  3  0  0  0  0  0  0
  193.9170  172.2310  144.4530 C   0  0  2  0  0  3  0  0  0  0  0  0
  190.2340  172.7660  142.2440 O   0  0  0  0  0  0  0  0  0  0  0  0
  189.0400  176.4070  146.2740 C   0  0  0  0  0  0  0  0  0  0  0  0
  190.1700  175.1390  143.1440 C   0  0  2  0  0  3  0  0  0  0  0  0
  192.8850  171.0750  144.2660 C   0  0  1  0  0  3  0  0  0  0  0  0
  189.6020  175.6180  145.3650 C   0  0  0  0  0  0  0  0  0  0  0  0
  190.0070  174.1390  141.9530 C   0  0  2  0  0  3  0  0  0  0  0  0
  187.6560  176.8720  146.0410 C   0  0  0  0  0  3  0  0  0  0  0  0
  191.0180  175.4600  145.2930 C   0  0  0  0  0  0  0  0  0  0  0  0
  191.1710  175.2740  148.5680 C   0  0  0  0  0  1  0  0  0  0  0  0
  187.1620  175.8930  142.4470 C   0  0  0  0  0  2  0  0  0  0  0  0
  187.1360  176.7910  144.8010 C   0  0  0  0  0  3  0  0  0  0  0  0
  191.8170  175.9020  146.2690 C   0  0  0  0  0  3  0  0  0  0  0  0
  191.9830  171.2150  143.0280 C   0  0  0  0  0  2  0  0  0  0  0  0
  191.4390  172.6190  142.9520 C   0  0  1  0  0  3  0  0  0  0  0  0
  187.9980  176.3270  143.6430 C   0  0  1  0  0  3  0  0  0  0  0  0
  191.3990  175.0620  143.9800 N   0  0  0  0  0  0  0  0  0  0  0  0
  189.8260  176.8620  147.3470 O   0  0  0  0  0  0  0  0  0  0  0  0
  188.6520  174.2690  141.2240 C   0  0  1  0  0  3  0  0  0  0  0  0
  192.0140  177.5410  148.1080 C   0  0  0  0  0  1  0  0  0  0  0  0
  192.4430  173.5050  142.5270 O   0  0  0  0  0  0  0  0  0  0  0  0
  193.5670  169.7190  144.1780 C   0  0  0  0  0  1  0  0  0  0  0  0
  192.6500  174.3480  143.6300 C   0  0  2  0  0  3  0  0  0  0  0  0
  188.0390  175.6730  141.2140 C   0  0  0  0  0  2  0  0  0  0  0  0
  188.3700  174.5050  138.7260 C   0  0  0  0  0  3  0  0  0  0  0  0
  188.7430  173.7260  139.8330 C   0  0  0  0  0  0  0  0  0  0  0  0
  189.2160  172.4250  139.6350 C   0  0  0  0  0  3  0  0  0  0  0  0
  189.8180  170.5180  138.1370 C   0  0  0  0  0  1  0  0  0  0  0  0
  188.9410  172.6790  137.2420 C   0  0  0  0  0  3  0  0  0  0  0  0
  189.3150  171.9010  138.3430 C   0  0  0  0  0  0  0  0  0  0  0  0
  188.4690  173.9810  137.4340 C   0  0  0  0  0  3  0  0  0  0  0  0
  195.0090  171.8980  145.4810 C   0  0  0  0  0  2  0  0  0  0  0  0
  196.8160  173.4990  146.1380 C   0  0  0  0  0  1  0  0  0  0  0  0
  196.3780  172.4680  145.1170 C   0  0  0  0  0  2  0  0  0  0  0  0
  2 23  1  0  0  0  0
  2 13  1  0  0  0  0
  3  9  1  1  0  0  0
  4  1  1  0  0  0  0
  4 35  1  1  0  0  0
  5 18  1  0  0  0  0
  6 21  1  0  0  0  0
  7 20  1  1  0  0  0
  7  3  1  0  0  0  0
  8 25  1  6  0  0  0
  8  4  1  0  0  0  0
  9  6  2  0  0  0  0
 10  5  1  1  0  0  0
 10  7  1  0  0  0  0
 11  6  1  0  0  0  0
 12  9  1  0  0  0  0
 12 16  2  0  0  0  0
 15 11  2  0  0  0  0
 16  2  1  0  0  0  0
 17  8  1  0  0  0  0
 18 17  1  6  0  0  0
 19 14  1  6  0  0  0
 19  3  1  0  0  0  0
 19 15  1  0  0  0  0
 20 12  1  0  0  0  0
 21  2  1  0  0  0  0
 22 29  1  6  0  0  0
 22 10  1  0  0  0  0
 24 18  1  0  0  0  0
 24 26  1  0  0  0  0
 26 20  1  0  0  0  0
 26  1  1  1  0  0  0
 27 22  1  0  0  0  0
 27 14  1  0  0  0  0
 28 29  1  0  0  0  0
 30 29  2  0  0  0  0
 31 33  1  0  0  0  0
 32 34  1  0  0  0  0
 32 33  2  0  0  0  0
 33 30  1  0  0  0  0
 34 28  2  0  0  0  0
 37 35  1  0  0  0  0
 37 36  1  0  0  0  0
M  END
>  <MODEL>
8

>  <REMARK>
 VINA RESULT:      -7.4      1.909      6.238
  Name = 
  3 active torsions:
  status: ('A' for Active; 'I' for Inactive)
    1  A    between atoms: C_5  and  C_17
    2  A    between atoms: C_6  and  C_31
    3  A    between atoms: C_17  and  C_23
                            x       y       z     vdW  Elec       q    Type
                         _______ _______ _______ _____ _____    ______ ____

>  <TORSDO>
F 3

$$$$
=
 OpenBabel11052419543D

 37 43  0  0  1  0  0  0  0  0999 V2000
  190.8700  175.1800  142.5010 C   0  0  0  0  0  2  0  0  0  0  0  0
  192.0760  176.4110  146.5940 C   0  0  0  0  0  0  0  0  0  0  0  0
  187.9940  177.1970  145.5540 C   0  0  1  0  0  3  0  0  0  0  0  0
  190.6180  174.1660  141.3640 C   0  0  2  0  0  3  0  0  0  0  0  0
  186.8870  175.9040  142.7020 O   0  0  0  0  0  0  0  0  0  0  0  0
  189.7920  177.1520  147.2750 C   0  0  0  0  0  0  0  0  0  0  0  0
  188.2670  177.5290  144.0800 C   0  0  2  0  0  3  0  0  0  0  0  0
  189.3370  173.3060  141.5980 C   0  0  1  0  0  3  0  0  0  0  0  0
  189.3570  176.8840  146.0490 C   0  0  0  0  0  0  0  0  0  0  0  0
  187.0680  177.2520  143.1130 C   0  0  2  0  0  3  0  0  0  0  0  0
  188.8430  177.7420  148.2430 C   0  0  0  0  0  3  0  0  0  0  0  0
  190.2640  176.7100  144.9620 C   0  0  0  0  0  0  0  0  0  0  0  0
  192.2430  174.9330  146.8870 C   0  0  0  0  0  1  0  0  0  0  0  0
  185.9930  178.6800  145.9800 C   0  0  0  0  0  2  0  0  0  0  0  0
  187.7070  178.3060  147.7900 C   0  0  0  0  0  3  0  0  0  0  0  0
  191.5770  176.5750  145.1670 C   0  0  0  0  0  3  0  0  0  0  0  0
  188.0140  174.0810  141.4830 C   0  0  0  0  0  2  0  0  0  0  0  0
  188.1090  175.3670  142.2640 C   0  0  1  0  0  3  0  0  0  0  0  0
  187.4600  178.4280  146.2990 C   0  0  1  0  0  3  0  0  0  0  0  0
  189.6080  176.9890  143.7290 N   0  0  0  0  0  0  0  0  0  0  0  0
  191.1580  176.9820  147.5560 O   0  0  0  0  0  0  0  0  0  0  0  0
  185.7200  177.7920  143.6370 C   0  0  1  0  0  3  0  0  0  0  0  0
  193.4230  177.0870  146.7290 C   0  0  0  0  0  1  0  0  0  0  0  0
  188.9060  176.2950  141.5730 O   0  0  0  0  0  0  0  0  0  0  0  0
  189.2620  172.1350  140.6310 C   0  0  0  0  0  1  0  0  0  0  0  0
  190.0240  176.4760  142.4020 C   0  0  2  0  0  3  0  0  0  0  0  0
  185.8050  179.0490  144.5090 C   0  0  0  0  0  2  0  0  0  0  0  0
  185.1740  177.9000  141.1740 C   0  0  0  0  0  3  0  0  0  0  0  0
  184.7570  177.9980  142.5110 C   0  0  0  0  0  0  0  0  0  0  0  0
  183.4190  178.2860  142.7990 C   0  0  0  0  0  3  0  0  0  0  0  0
  181.0810  178.7810  142.0730 C   0  0  0  0  0  1  0  0  0  0  0  0
  182.9190  178.3790  140.4310 C   0  0  0  0  0  3  0  0  0  0  0  0
  182.5010  178.4770  141.7620 C   0  0  0  0  0  0  0  0  0  0  0  0
  184.2550  178.0910  140.1370 C   0  0  0  0  0  3  0  0  0  0  0  0
  191.8800  173.3170  141.1510 C   0  0  0  0  0  2  0  0  0  0  0  0
  194.1880  173.7970  141.9880 C   0  0  0  0  0  1  0  0  0  0  0  0
  192.8080  173.2960  142.3630 C   0  0  0  0  0  2  0  0  0  0  0  0
  2 23  1  0  0  0  0
  2 13  1  0  0  0  0
  2 21  1  0  0  0  0
  3  9  1  1  0  0  0
  3 19  1  0  0  0  0
  4 35  1  1  0  0  0
  4  8  1  0  0  0  0
  4  1  1  0  0  0  0
  6 21  1  0  0  0  0
  6 11  1  0  0  0  0
  7 20  1  6  0  0  0
  7  3  1  0  0  0  0
  8 25  1  6  0  0  0
  9  6  2  0  0  0  0
 10  5  1  1  0  0  0
 10 22  1  0  0  0  0
 10  7  1  0  0  0  0
 12 16  2  0  0  0  0
 12  9  1  0  0  0  0
 15 11  2  0  0  0  0
 16  2  1  0  0  0  0
 17  8  1  0  0  0  0
 18 17  1  6  0  0  0
 18  5  1  0  0  0  0
 19 14  1  1  0  0  0
 19 15  1  0  0  0  0
 20 12  1  0  0  0  0
 22 29  1  6  0  0  0
 22 27  1  0  0  0  0
 24 18  1  0  0  0  0
 24 26  1  0  0  0  0
 26  1  1  1  0  0  0
 26 20  1  0  0  0  0
 27 14  1  0  0  0  0
 28 29  1  0  0  0  0
 29 30  2  0  0  0  0
 32 33  2  0  0  0  0
 33 31  1  0  0  0  0
 33 30  1  0  0  0  0
 34 32  1  0  0  0  0
 34 28  2  0  0  0  0
 35 37  1  0  0  0  0
 36 37  1  0  0  0  0
M  END
>  <MODEL>
9

>  <REMARK>
 VINA RESULT:      -7.3      2.403      6.068
  Name = 
  3 active torsions:
  status: ('A' for Active; 'I' for Inactive)
    1  A    between atoms: C_5  and  C_17
    2  A    between atoms: C_6  and  C_31
    3  A    between atoms: C_17  and  C_23
                            x       y       z     vdW  Elec       q    Type
                         _______ _______ _______ _____ _____    ______ ____

>  <TORSDO>
F 3

$$$$
