=
 OpenBabel11052421113D

 43 49  0  0  1  0  0  0  0  0999 V2000
  196.0170  175.3350  144.5320 C   0  0  0  0  0  0  0  0  0  0  0  0
  191.2650  176.4990  145.8110 C   0  0  0  0  0  0  0  0  0  0  0  0
  190.1500  177.6600  143.5670 C   0  0  0  0  0  0  0  0  0  0  0  0
  193.9350  175.6360  145.7330 C   0  0  0  0  0  0  0  0  0  0  0  0
  195.4570  175.9320  143.4010 C   0  0  0  0  0  3  0  0  0  0  0  0
  197.2970  174.8910  144.4980 F   0  0  0  0  0  0  0  0  0  0  0  0
  193.3610  176.2460  144.5900 C   0  0  0  0  0  0  0  0  0  0  0  0
  195.2590  175.1860  145.6960 C   0  0  0  0  0  3  0  0  0  0  0  0
  194.1350  176.3870  143.4280 C   0  0  0  0  0  3  0  0  0  0  0  0
  191.4480  177.2600  143.5460 N   0  0  0  0  0  0  0  0  0  0  0  0
  192.0270  176.6850  144.6350 C   0  0  0  0  0  0  0  0  0  0  0  0
  191.8500  175.9000  146.9340 C   0  0  0  0  0  3  0  0  0  0  0  0
  189.9250  176.9200  145.8080 C   0  0  0  0  0  0  0  0  0  0  0  0
  189.4000  177.4790  144.6850 N   0  0  0  0  0  0  0  0  0  0  0  0
  193.1780  175.4730  146.8950 C   0  0  0  0  0  3  0  0  0  0  0  0
  189.0280  176.6980  146.9870 C   0  0  0  0  0  2  0  0  0  0  0  0
  185.8790  178.7950  147.2080 C   0  0  0  0  0  3  0  0  0  0  0  0
  185.0770  178.1930  146.2290 C   0  0  0  0  0  0  0  0  0  0  0  0
  186.8620  176.6380  145.7220 C   0  0  0  0  0  3  0  0  0  0  0  0
  187.1680  178.3120  147.4480 C   0  0  0  0  0  3  0  0  0  0  0  0
  187.6630  177.2340  146.7060 C   0  0  0  0  0  0  0  0  0  0  0  0
  185.5710  177.1150  145.4840 C   0  0  0  0  0  3  0  0  0  0  0  0
  183.5990  179.0800  144.6160 O   0  0  0  0  0  1  0  0  0  0  0  0
  183.7110  178.7220  145.9620 C   0  0  0  0  0  2  0  0  0  0  0  0
  189.5280  178.2130  142.3300 C   0  0  0  0  0  2  0  0  0  0  0  0
  188.2010  177.5220  142.0220 C   0  0  0  0  0  2  0  0  0  0  0  0
  188.4150  176.3340  141.2070 N   0  0  0  0  0  2  0  0  0  0  0  0
  187.9720  175.0330  141.6010 C   0  0  0  0  0  0  0  0  0  0  0  0
  187.1840  174.8840  142.6200 N   0  0  0  0  0  2  0  0  0  0  0  0
  188.3430  173.8540  140.7500 C   0  0  1  0  0  3  0  0  0  0  0  0
  188.3240  174.1960  139.3850 O   0  0  0  0  0  0  0  0  0  0  0  0
  190.0780  172.0040  140.2020 C   0  0  0  0  0  2  0  0  0  0  0  0
  190.1790  173.2170  142.5450 C   0  0  2  0  0  3  0  0  0  0  0  0
  188.3460  172.9860  138.6610 C   0  0  0  0  0  2  0  0  0  0  0  0
  189.6810  173.1670  141.1060 C   0  0  2  0  0  0  0  0  0  0  0  0
  190.8390  174.0730  141.4620 C   0  0  0  0  0  2  0  0  0  0  0  0
  189.7340  172.3410  138.7480 C   0  0  0  0  0  2  0  0  0  0  0  0
  190.9940  172.1210  142.8420 O   0  0  0  0  0  0  0  0  0  0  0  0
  191.1000  172.1390  144.2330 C   0  0  0  0  0  2  0  0  0  0  0  0
  192.4890  172.5910  144.6370 C   0  0  0  0  0  2  0  0  0  0  0  0
  194.4900  171.5890  145.6890 C   0  0  0  0  0  2  0  0  0  0  0  0
  193.4230  171.3970  144.6320 C   0  0  0  0  0  3  0  0  0  0  0  0
  194.8110  171.8540  144.2340 C   0  0  0  0  0  2  0  0  0  0  0  0
  1  8  1  0  0  0  0
  2 12  1  0  0  0  0
  3 14  1  0  0  0  0
  4 15  1  0  0  0  0
  5  9  1  0  0  0  0
  5  1  2  0  0  0  0
  6  1  1  0  0  0  0
  7 11  1  0  0  0  0
  7  4  1  0  0  0  0
  8  4  2  0  0  0  0
  9  7  2  0  0  0  0
 10  3  2  0  0  0  0
 10 11  1  0  0  0  0
 11  2  2  0  0  0  0
 13  2  1  0  0  0  0
 13 16  1  0  0  0  0
 14 13  2  0  0  0  0
 15 12  2  0  0  0  0
 17 20  1  0  0  0  0
 18 17  2  0  0  0  0
 19 21  1  0  0  0  0
 21 16  1  0  0  0  0
 21 20  2  0  0  0  0
 22 19  2  0  0  0  0
 22 18  1  0  0  0  0
 23 24  1  0  0  0  0
 24 18  1  0  0  0  0
 25  3  1  0  0  0  0
 26 25  1  0  0  0  0
 27 28  1  0  0  0  0
 27 26  1  0  0  0  0
 28 29  2  0  0  0  0
 30 35  1  0  0  0  0
 30 28  1  1  0  0  0
 31 30  1  0  0  0  0
 33 38  1  6  0  0  0
 34 37  1  0  0  0  0
 34 31  1  0  0  0  0
 35 32  1  6  0  0  0
 35 36  1  0  0  0  0
 35 33  1  0  0  0  0
 36 33  1  0  0  0  0
 37 32  1  0  0  0  0
 38 39  1  0  0  0  0
 39 40  1  0  0  0  0
 42 40  1  0  0  0  0
 42 41  1  0  0  0  0
 43 42  1  0  0  0  0
 43 41  1  0  0  0  0
M  END
>  <MODEL>
1

>  <REMARK>
 VINA RESULT:      -7.9      0.000      0.000
  Name = 
  11 active torsions:
  status: ('A' for Active; 'I' for Inactive)
    1  A    between atoms: C_1  and  C_34
    2  A    between atoms: C_1  and  C_35
    3  A    between atoms: C_2  and  N_6
    4  A    between atoms: C_2  and  C_7
    5  A    between atoms: C_3  and  C_12
    6  A    between atoms: C_7  and  C_13
    7  A    between atoms: O_11  and  C_14
    8  A    between atoms: O_11  and  C_36
    9  A    between atoms: C_19  and  C_37
   10  A    between atoms: C_29  and  C_31
   11  A    between atoms: C_29  and  C_36
                            x       y       z     vdW  Elec       q    Type
                         _______ _______ _______ _____ _____    ______ ____

>  <TORSDO>
F 11

$$$$
=
 OpenBabel11052421113D

 43 49  0  0  1  0  0  0  0  0999 V2000
  184.2440  178.6520  145.6180 C   0  0  0  0  0  0  0  0  0  0  0  0
  188.8150  176.5720  146.2090 C   0  0  0  0  0  0  0  0  0  0  0  0
  190.3920  177.6550  144.2190 C   0  0  0  0  0  0  0  0  0  0  0  0
  186.1210  177.3360  146.4010 C   0  0  0  0  0  0  0  0  0  0  0  0
  185.0380  179.1910  144.6040 C   0  0  0  0  0  3  0  0  0  0  0  0
  182.9480  179.0320  145.7360 F   0  0  0  0  0  0  0  0  0  0  0  0
  186.9320  177.8770  145.3730 C   0  0  0  0  0  0  0  0  0  0  0  0
  184.7820  177.7260  146.5150 C   0  0  0  0  0  3  0  0  0  0  0  0
  186.3760  178.8060  144.4800 C   0  0  0  0  0  3  0  0  0  0  0  0
  189.0820  178.0020  144.3060 N   0  0  0  0  0  0  0  0  0  0  0  0
  188.2790  177.4860  145.2740 C   0  0  0  0  0  0  0  0  0  0  0  0
  187.9970  176.0420  147.2160 C   0  0  0  0  0  3  0  0  0  0  0  0
  190.1730  176.2300  146.1000 C   0  0  0  0  0  0  0  0  0  0  0  0
  190.9280  176.7880  145.1160 N   0  0  0  0  0  0  0  0  0  0  0  0
  186.6570  176.4210  147.3090 C   0  0  0  0  0  3  0  0  0  0  0  0
  190.8380  175.3240  147.0900 C   0  0  0  0  0  2  0  0  0  0  0  0
  194.5340  175.8510  146.4390 C   0  0  0  0  0  3  0  0  0  0  0  0
  194.8930  174.6220  145.8700 C   0  0  0  0  0  0  0  0  0  0  0  0
  192.6150  173.8390  146.1260 C   0  0  0  0  0  3  0  0  0  0  0  0
  193.2150  176.0750  146.8430 C   0  0  0  0  0  3  0  0  0  0  0  0
  192.2540  175.0700  146.6890 C   0  0  0  0  0  0  0  0  0  0  0  0
  193.9320  173.6140  145.7160 C   0  0  0  0  0  3  0  0  0  0  0  0
  196.6420  175.2360  144.4090 O   0  0  0  0  0  1  0  0  0  0  0  0
  196.3030  174.3790  145.4580 C   0  0  0  0  0  2  0  0  0  0  0  0
  191.2610  178.3020  143.1940 C   0  0  0  0  0  2  0  0  0  0  0  0
  192.2840  177.3170  142.6340 C   0  0  0  0  0  2  0  0  0  0  0  0
  191.6250  176.1200  142.1280 N   0  0  0  0  0  2  0  0  0  0  0  0
  192.2730  174.8470  142.0610 C   0  0  0  0  0  0  0  0  0  0  0  0
  193.4230  174.6610  142.6310 N   0  0  0  0  0  2  0  0  0  0  0  0
  191.5510  173.7020  141.4140 C   0  0  1  0  0  3  0  0  0  0  0  0
  192.3660  172.5550  141.3770 O   0  0  0  0  0  0  0  0  0  0  0  0
  189.4690  172.1540  141.3890 C   0  0  0  0  0  2  0  0  0  0  0  0
  189.3530  174.4570  142.6750 C   0  0  2  0  0  3  0  0  0  0  0  0
  191.7610  171.6540  140.4750 C   0  0  0  0  0  2  0  0  0  0  0  0
  190.1710  173.3540  142.0170 C   0  0  2  0  0  0  0  0  0  0  0  0
  190.0570  173.3960  143.5250 C   0  0  0  0  0  2  0  0  0  0  0  0
  190.4930  171.0540  141.0940 C   0  0  0  0  0  2  0  0  0  0  0  0
  187.9840  174.1820  142.6160 O   0  0  0  0  0  0  0  0  0  0  0  0
  187.3890  175.4310  142.4360 C   0  0  0  0  0  2  0  0  0  0  0  0
  188.0230  176.1370  141.2540 C   0  0  0  0  0  2  0  0  0  0  0  0
  185.9180  177.4330  141.2270 C   0  0  0  0  0  2  0  0  0  0  0  0
  187.4260  177.5230  141.1220 C   0  0  0  0  0  3  0  0  0  0  0  0
  186.5740  177.5800  139.8710 C   0  0  0  0  0  2  0  0  0  0  0  0
  1  6  1  0  0  0  0
  1  8  1  0  0  0  0
  2 12  1  0  0  0  0
  3 10  2  0  0  0  0
  3 14  1  0  0  0  0
  4  8  2  0  0  0  0
  4 15  1  0  0  0  0
  5  1  2  0  0  0  0
  7  4  1  0  0  0  0
  9  5  1  0  0  0  0
  9  7  2  0  0  0  0
 10 11  1  0  0  0  0
 11  7  1  0  0  0  0
 11  2  2  0  0  0  0
 12 15  2  0  0  0  0
 13  2  1  0  0  0  0
 13 16  1  0  0  0  0
 14 13  2  0  0  0  0
 17 20  1  0  0  0  0
 18 17  2  0  0  0  0
 19 21  1  0  0  0  0
 21 20  2  0  0  0  0
 21 16  1  0  0  0  0
 22 18  1  0  0  0  0
 22 19  2  0  0  0  0
 23 24  1  0  0  0  0
 24 18  1  0  0  0  0
 25  3  1  0  0  0  0
 26 25  1  0  0  0  0
 27 26  1  0  0  0  0
 28 27  1  0  0  0  0
 28 29  2  0  0  0  0
 30 35  1  0  0  0  0
 30 28  1  1  0  0  0
 31 30  1  0  0  0  0
 33 38  1  6  0  0  0
 33 36  1  0  0  0  0
 34 37  1  0  0  0  0
 34 31  1  0  0  0  0
 35 32  1  6  0  0  0
 35 33  1  0  0  0  0
 35 36  1  0  0  0  0
 37 32  1  0  0  0  0
 39 38  1  0  0  0  0
 40 39  1  0  0  0  0
 42 41  1  0  0  0  0
 42 40  1  0  0  0  0
 43 42  1  0  0  0  0
 43 41  1  0  0  0  0
M  END
>  <MODEL>
2

>  <REMARK>
 VINA RESULT:      -7.9      3.097      7.167
  Name = 
  11 active torsions:
  status: ('A' for Active; 'I' for Inactive)
    1  A    between atoms: C_1  and  C_34
    2  A    between atoms: C_1  and  C_35
    3  A    between atoms: C_2  and  N_6
    4  A    between atoms: C_2  and  C_7
    5  A    between atoms: C_3  and  C_12
    6  A    between atoms: C_7  and  C_13
    7  A    between atoms: O_11  and  C_14
    8  A    between atoms: O_11  and  C_36
    9  A    between atoms: C_19  and  C_37
   10  A    between atoms: C_29  and  C_31
   11  A    between atoms: C_29  and  C_36
                            x       y       z     vdW  Elec       q    Type
                         _______ _______ _______ _____ _____    ______ ____

>  <TORSDO>
F 11

$$$$
=
 OpenBabel11052421113D

 43 49  0  0  1  0  0  0  0  0999 V2000
  195.9860  176.4690  143.5390 C   0  0  0  0  0  0  0  0  0  0  0  0
  191.1650  176.0110  144.9980 C   0  0  0  0  0  0  0  0  0  0  0  0
  189.7820  175.1800  142.7580 C   0  0  0  0  0  0  0  0  0  0  0  0
  193.9300  176.4620  144.8210 C   0  0  0  0  0  0  0  0  0  0  0  0
  195.2840  176.0600  142.4030 C   0  0  0  0  0  3  0  0  0  0  0  0
  197.3250  176.6650  143.4720 F   0  0  0  0  0  0  0  0  0  0  0  0
  193.2120  176.0490  143.6720 C   0  0  0  0  0  0  0  0  0  0  0  0
  195.3110  176.6700  144.7460 C   0  0  0  0  0  3  0  0  0  0  0  0
  193.9030  175.8510  142.4670 C   0  0  0  0  0  3  0  0  0  0  0  0
  191.1160  175.4220  142.6770 N   0  0  0  0  0  0  0  0  0  0  0  0
  191.8260  175.8330  143.7620 C   0  0  0  0  0  0  0  0  0  0  0  0
  191.8910  176.4260  146.1230 C   0  0  0  0  0  3  0  0  0  0  0  0
  189.7860  175.7540  145.0590 C   0  0  0  0  0  0  0  0  0  0  0  0
  189.1330  175.3350  143.9410 N   0  0  0  0  0  0  0  0  0  0  0  0
  193.2650  176.6520  146.0340 C   0  0  0  0  0  3  0  0  0  0  0  0
  189.0230  175.8510  146.3440 C   0  0  0  0  0  2  0  0  0  0  0  0
  185.4900  177.1630  146.7500 C   0  0  0  0  0  3  0  0  0  0  0  0
  185.4350  178.1260  145.7350 C   0  0  0  0  0  0  0  0  0  0  0  0
  187.7280  177.6290  145.1370 C   0  0  0  0  0  3  0  0  0  0  0  0
  186.6620  176.4280  146.9520 C   0  0  0  0  0  3  0  0  0  0  0  0
  187.7830  176.6600  146.1480 C   0  0  0  0  0  0  0  0  0  0  0  0
  186.5570  178.3610  144.9300 C   0  0  0  0  0  3  0  0  0  0  0  0
  184.2570  179.5990  144.3140 O   0  0  0  0  0  1  0  0  0  0  0  0
  184.1910  178.9210  145.5340 C   0  0  0  0  0  2  0  0  0  0  0  0
  189.0520  174.6540  141.5690 C   0  0  0  0  0  2  0  0  0  0  0  0
  188.3120  173.3600  141.9010 C   0  0  0  0  0  2  0  0  0  0  0  0
  189.2470  172.3240  142.3190 N   0  0  0  0  0  2  0  0  0  0  0  0
  189.9350  171.4790  141.3920 C   0  0  0  0  0  0  0  0  0  0  0  0
  189.9020  171.7310  140.1210 N   0  0  0  0  0  2  0  0  0  0  0  0
  190.7850  170.3630  141.9240 C   0  0  1  0  0  3  0  0  0  0  0  0
  190.8000  169.2770  141.0290 O   0  0  0  0  0  0  0  0  0  0  0  0
  193.1020  169.5980  142.8040 C   0  0  0  0  0  2  0  0  0  0  0  0
  192.5140  172.1710  142.7810 C   0  0  2  0  0  3  0  0  0  0  0  0
  191.3210  168.1730  141.7370 C   0  0  0  0  0  2  0  0  0  0  0  0
  192.2290  170.7500  142.3160 C   0  0  2  0  0  0  0  0  0  0  0  0
  192.9540  171.7040  141.3910 C   0  0  0  0  0  2  0  0  0  0  0  0
  192.8280  168.3500  141.9600 C   0  0  0  0  0  2  0  0  0  0  0  0
  193.6200  172.2180  143.6350 O   0  0  0  0  0  0  0  0  0  0  0  0
  193.0950  172.6460  144.8540 C   0  0  0  0  0  2  0  0  0  0  0  0
  194.2210  173.0420  145.7880 C   0  0  0  0  0  2  0  0  0  0  0  0
  196.4530  171.9780  145.7860 C   0  0  0  0  0  2  0  0  0  0  0  0
  195.5410  172.9360  145.0510 C   0  0  0  0  0  3  0  0  0  0  0  0
  196.6490  173.4710  145.9340 C   0  0  0  0  0  2  0  0  0  0  0  0
  1  8  1  0  0  0  0
  2 13  1  0  0  0  0
  2 12  1  0  0  0  0
  3 14  1  0  0  0  0
  4 15  1  0  0  0  0
  5  9  1  0  0  0  0
  5  1  2  0  0  0  0
  6  1  1  0  0  0  0
  7 11  1  0  0  0  0
  7  4  1  0  0  0  0
  8  4  2  0  0  0  0
  9  7  2  0  0  0  0
 10  3  2  0  0  0  0
 10 11  1  0  0  0  0
 11  2  2  0  0  0  0
 13 16  1  0  0  0  0
 14 13  2  0  0  0  0
 15 12  2  0  0  0  0
 17 20  1  0  0  0  0
 18 17  2  0  0  0  0
 19 21  1  0  0  0  0
 21 16  1  0  0  0  0
 21 20  2  0  0  0  0
 22 19  2  0  0  0  0
 22 18  1  0  0  0  0
 23 24  1  0  0  0  0
 24 18  1  0  0  0  0
 25 26  1  0  0  0  0
 25  3  1  0  0  0  0
 26 27  1  0  0  0  0
 28 27  1  0  0  0  0
 29 28  2  0  0  0  0
 30 28  1  6  0  0  0
 30 35  1  0  0  0  0
 31 34  1  0  0  0  0
 31 30  1  0  0  0  0
 33 38  1  1  0  0  0
 34 37  1  0  0  0  0
 35 36  1  6  0  0  0
 35 33  1  0  0  0  0
 35 32  1  0  0  0  0
 36 33  1  0  0  0  0
 37 32  1  0  0  0  0
 38 39  1  0  0  0  0
 39 40  1  0  0  0  0
 41 43  1  0  0  0  0
 42 41  1  0  0  0  0
 42 40  1  0  0  0  0
 42 43  1  0  0  0  0
M  END
>  <MODEL>
3

>  <REMARK>
 VINA RESULT:      -7.8      2.060      2.898
  Name = 
  11 active torsions:
  status: ('A' for Active; 'I' for Inactive)
    1  A    between atoms: C_1  and  C_34
    2  A    between atoms: C_1  and  C_35
    3  A    between atoms: C_2  and  N_6
    4  A    between atoms: C_2  and  C_7
    5  A    between atoms: C_3  and  C_12
    6  A    between atoms: C_7  and  C_13
    7  A    between atoms: O_11  and  C_14
    8  A    between atoms: O_11  and  C_36
    9  A    between atoms: C_19  and  C_37
   10  A    between atoms: C_29  and  C_31
   11  A    between atoms: C_29  and  C_36
                            x       y       z     vdW  Elec       q    Type
                         _______ _______ _______ _____ _____    ______ ____

>  <TORSDO>
F 11

$$$$
=
 OpenBabel11052421113D

 43 49  0  0  1  0  0  0  0  0999 V2000
  185.2700  178.3140  147.1680 C   0  0  0  0  0  0  0  0  0  0  0  0
  190.0470  176.6550  147.1160 C   0  0  0  0  0  0  0  0  0  0  0  0
  189.9590  174.1590  145.9390 C   0  0  0  0  0  0  0  0  0  0  0  0
  187.6670  178.1060  147.4490 C   0  0  0  0  0  0  0  0  0  0  0  0
  185.2240  177.0470  146.5840 C   0  0  0  0  0  3  0  0  0  0  0  0
  184.1310  179.0350  147.3110 F   0  0  0  0  0  0  0  0  0  0  0  0
  187.6270  176.8190  146.8580 C   0  0  0  0  0  0  0  0  0  0  0  0
  186.4890  178.8440  147.6010 C   0  0  0  0  0  3  0  0  0  0  0  0
  186.3960  176.3010  146.4290 C   0  0  0  0  0  3  0  0  0  0  0  0
  188.8100  174.8600  146.1240 N   0  0  0  0  0  0  0  0  0  0  0  0
  188.8190  176.0910  146.7010 C   0  0  0  0  0  0  0  0  0  0  0  0
  190.0670  177.9270  147.7040 C   0  0  0  0  0  3  0  0  0  0  0  0
  191.2220  175.9130  146.9130 C   0  0  0  0  0  0  0  0  0  0  0  0
  191.1490  174.6910  146.3210 N   0  0  0  0  0  0  0  0  0  0  0  0
  188.8840  178.6470  147.8710 C   0  0  0  0  0  3  0  0  0  0  0  0
  192.5710  176.4650  147.2590 C   0  0  0  0  0  2  0  0  0  0  0  0
  195.5640  175.1050  145.3730 C   0  0  0  0  0  3  0  0  0  0  0  0
  195.4020  175.7140  144.1220 C   0  0  0  0  0  0  0  0  0  0  0  0
  193.3770  176.7870  144.9050 C   0  0  0  0  0  3  0  0  0  0  0  0
  194.6370  175.3450  146.3910 C   0  0  0  0  0  3  0  0  0  0  0  0
  193.5420  176.1840  146.1600 C   0  0  0  0  0  0  0  0  0  0  0  0
  194.3050  176.5530  143.8870 C   0  0  0  0  0  3  0  0  0  0  0  0
  197.3850  176.4130  143.0480 O   0  0  0  0  0  1  0  0  0  0  0  0
  196.3800  175.4420  143.0320 C   0  0  0  0  0  2  0  0  0  0  0  0
  189.9190  172.8480  145.2300 C   0  0  0  0  0  2  0  0  0  0  0  0
  191.0640  172.7250  144.2280 C   0  0  0  0  0  2  0  0  0  0  0  0
  190.5620  172.7720  142.8620 N   0  0  0  0  0  2  0  0  0  0  0  0
  190.8660  173.8390  141.9590 C   0  0  0  0  0  0  0  0  0  0  0  0
  191.7660  174.7220  142.2610 N   0  0  0  0  0  2  0  0  0  0  0  0
  190.2050  173.8580  140.6120 C   0  0  1  0  0  3  0  0  0  0  0  0
  190.1580  172.5650  140.0600 O   0  0  0  0  0  0  0  0  0  0  0  0
  188.1150  174.4730  139.2030 C   0  0  0  0  0  2  0  0  0  0  0  0
  188.4610  175.6050  141.5620 C   0  0  2  0  0  3  0  0  0  0  0  0
  189.8450  172.7160  138.6930 C   0  0  0  0  0  2  0  0  0  0  0  0
  188.8030  174.5070  140.5640 C   0  0  2  0  0  0  0  0  0  0  0  0
  187.8700  174.2020  141.7160 C   0  0  0  0  0  2  0  0  0  0  0  0
  188.3770  173.1240  138.5270 C   0  0  0  0  0  2  0  0  0  0  0  0
  187.4900  176.4730  141.0550 O   0  0  0  0  0  0  0  0  0  0  0  0
  187.7740  177.6990  141.6590 C   0  0  0  0  0  2  0  0  0  0  0  0
  186.9180  177.8720  142.8970 C   0  0  0  0  0  2  0  0  0  0  0  0
  185.4920  179.6520  143.8510 C   0  0  0  0  0  2  0  0  0  0  0  0
  185.8060  178.8580  142.6010 C   0  0  0  0  0  3  0  0  0  0  0  0
  184.5940  178.5070  143.4380 C   0  0  0  0  0  2  0  0  0  0  0  0
  1  6  1  0  0  0  0
  1  8  1  0  0  0  0
  2 12  1  0  0  0  0
  3 10  2  0  0  0  0
  3 14  1  0  0  0  0
  4  8  2  0  0  0  0
  4 15  1  0  0  0  0
  5  1  2  0  0  0  0
  7  4  1  0  0  0  0
  9  5  1  0  0  0  0
  9  7  2  0  0  0  0
 10 11  1  0  0  0  0
 11  7  1  0  0  0  0
 11  2  2  0  0  0  0
 12 15  2  0  0  0  0
 13  2  1  0  0  0  0
 13 16  1  0  0  0  0
 14 13  2  0  0  0  0
 17 20  1  0  0  0  0
 18 17  2  0  0  0  0
 19 21  1  0  0  0  0
 21 20  2  0  0  0  0
 21 16  1  0  0  0  0
 22 18  1  0  0  0  0
 22 19  2  0  0  0  0
 24 23  1  0  0  0  0
 24 18  1  0  0  0  0
 25  3  1  0  0  0  0
 26 25  1  0  0  0  0
 27 26  1  0  0  0  0
 28 29  2  0  0  0  0
 28 27  1  0  0  0  0
 30 28  1  1  0  0  0
 31 30  1  0  0  0  0
 33 38  1  6  0  0  0
 33 36  1  0  0  0  0
 34 31  1  0  0  0  0
 35 32  1  6  0  0  0
 35 30  1  0  0  0  0
 35 33  1  0  0  0  0
 35 36  1  0  0  0  0
 37 34  1  0  0  0  0
 37 32  1  0  0  0  0
 38 39  1  0  0  0  0
 39 40  1  0  0  0  0
 42 40  1  0  0  0  0
 42 43  1  0  0  0  0
 42 41  1  0  0  0  0
 43 41  1  0  0  0  0
M  END
>  <MODEL>
4

>  <REMARK>
 VINA RESULT:      -7.8      2.970      7.444
  Name = 
  11 active torsions:
  status: ('A' for Active; 'I' for Inactive)
    1  A    between atoms: C_1  and  C_34
    2  A    between atoms: C_1  and  C_35
    3  A    between atoms: C_2  and  N_6
    4  A    between atoms: C_2  and  C_7
    5  A    between atoms: C_3  and  C_12
    6  A    between atoms: C_7  and  C_13
    7  A    between atoms: O_11  and  C_14
    8  A    between atoms: O_11  and  C_36
    9  A    between atoms: C_19  and  C_37
   10  A    between atoms: C_29  and  C_31
   11  A    between atoms: C_29  and  C_36
                            x       y       z     vdW  Elec       q    Type
                         _______ _______ _______ _____ _____    ______ ____

>  <TORSDO>
F 11

$$$$
=
 OpenBabel11052421113D

 43 49  0  0  1  0  0  0  0  0999 V2000
  188.5970  177.8990  144.4180 C   0  0  0  0  0  0  0  0  0  0  0  0
  193.2540  175.9660  144.8050 C   0  0  0  0  0  0  0  0  0  0  0  0
  194.3010  176.0230  142.2510 C   0  0  0  0  0  0  0  0  0  0  0  0
  190.6480  176.9110  145.2460 C   0  0  0  0  0  0  0  0  0  0  0  0
  189.1220  177.9170  143.1250 C   0  0  0  0  0  3  0  0  0  0  0  0
  187.3490  178.3760  144.6480 F   0  0  0  0  0  0  0  0  0  0  0  0
  191.1860  176.9240  143.9350 C   0  0  0  0  0  0  0  0  0  0  0  0
  189.3570  177.3970  145.4780 C   0  0  0  0  0  3  0  0  0  0  0  0
  190.4110  177.4310  142.8820 C   0  0  0  0  0  3  0  0  0  0  0  0
  193.0330  176.4580  142.4710 N   0  0  0  0  0  0  0  0  0  0  0  0
  192.4880  176.4420  143.7160 C   0  0  0  0  0  0  0  0  0  0  0  0
  192.7030  175.9540  146.0930 C   0  0  0  0  0  3  0  0  0  0  0  0
  194.5630  175.5230  144.5540 C   0  0  0  0  0  0  0  0  0  0  0  0
  195.0550  175.5730  143.2870 N   0  0  0  0  0  0  0  0  0  0  0  0
  191.4070  176.4220  146.3120 C   0  0  0  0  0  3  0  0  0  0  0  0
  195.4660  175.0690  145.6590 C   0  0  0  0  0  2  0  0  0  0  0  0
  194.4340  171.4230  145.5860 C   0  0  0  0  0  3  0  0  0  0  0  0
  195.6610  170.7840  145.8120 C   0  0  0  0  0  0  0  0  0  0  0  0
  196.7650  172.9370  145.9060 C   0  0  0  0  0  3  0  0  0  0  0  0
  194.3740  172.8180  145.5290 C   0  0  0  0  0  3  0  0  0  0  0  0
  195.5380  173.5780  145.6870 C   0  0  0  0  0  0  0  0  0  0  0  0
  196.8280  171.5430  145.9690 C   0  0  0  0  0  3  0  0  0  0  0  0
  194.7030  168.8020  146.6660 O   0  0  0  0  0  1  0  0  0  0  0  0
  195.7260  169.2970  145.8530 C   0  0  0  0  0  2  0  0  0  0  0  0
  194.8930  176.1300  140.8860 C   0  0  0  0  0  2  0  0  0  0  0  0
  194.7920  174.8060  140.1330 C   0  0  0  0  0  2  0  0  0  0  0  0
  193.4580  174.6310  139.5740 N   0  0  0  0  0  2  0  0  0  0  0  0
  193.1660  173.6820  138.5440 C   0  0  0  0  0  0  0  0  0  0  0  0
  194.0450  172.7950  138.1970 N   0  0  0  0  0  2  0  0  0  0  0  0
  191.7880  173.6600  137.9500 C   0  0  1  0  0  3  0  0  0  0  0  0
  191.8060  173.0770  136.6690 O   0  0  0  0  0  0  0  0  0  0  0  0
  189.3090  172.9340  138.1850 C   0  0  0  0  0  2  0  0  0  0  0  0
  190.8370  173.0300  140.3350 C   0  0  2  0  0  3  0  0  0  0  0  0
  190.5750  173.3980  136.0590 C   0  0  0  0  0  2  0  0  0  0  0  0
  190.6950  173.0000  138.8200 C   0  0  2  0  0  0  0  0  0  0  0  0
  191.0800  171.7360  139.5550 C   0  0  0  0  0  2  0  0  0  0  0  0
  189.4390  172.5900  136.6980 C   0  0  0  0  0  2  0  0  0  0  0  0
  189.5920  172.9730  140.9670 O   0  0  0  0  0  0  0  0  0  0  0  0
  189.4850  174.1970  141.6280 C   0  0  0  0  0  2  0  0  0  0  0  0
  189.0440  173.9710  143.0610 C   0  0  0  0  0  2  0  0  0  0  0  0
  189.8590  172.1060  144.4650 C   0  0  0  0  0  2  0  0  0  0  0  0
  190.2160  173.4510  143.8680 C   0  0  0  0  0  3  0  0  0  0  0  0
  189.8130  173.3510  145.3240 C   0  0  0  0  0  2  0  0  0  0  0  0
  1  6  1  0  0  0  0
  1  8  1  0  0  0  0
  2 12  1  0  0  0  0
  3 10  2  0  0  0  0
  3 14  1  0  0  0  0
  4  8  2  0  0  0  0
  4 15  1  0  0  0  0
  5  1  2  0  0  0  0
  7  4  1  0  0  0  0
  9  5  1  0  0  0  0
  9  7  2  0  0  0  0
 10 11  1  0  0  0  0
 11  7  1  0  0  0  0
 11  2  2  0  0  0  0
 12 15  2  0  0  0  0
 13  2  1  0  0  0  0
 13 16  1  0  0  0  0
 14 13  2  0  0  0  0
 16 21  1  0  0  0  0
 17 18  1  0  0  0  0
 18 24  1  0  0  0  0
 18 22  2  0  0  0  0
 19 22  1  0  0  0  0
 20 17  2  0  0  0  0
 20 21  1  0  0  0  0
 21 19  2  0  0  0  0
 24 23  1  0  0  0  0
 25  3  1  0  0  0  0
 26 25  1  0  0  0  0
 27 26  1  0  0  0  0
 28 27  1  0  0  0  0
 29 28  2  0  0  0  0
 30 28  1  1  0  0  0
 30 35  1  0  0  0  0
 31 30  1  0  0  0  0
 33 38  1  1  0  0  0
 34 31  1  0  0  0  0
 34 37  1  0  0  0  0
 35 32  1  6  0  0  0
 35 36  1  0  0  0  0
 35 33  1  0  0  0  0
 36 33  1  0  0  0  0
 37 32  1  0  0  0  0
 38 39  1  0  0  0  0
 39 40  1  0  0  0  0
 40 42  1  0  0  0  0
 41 43  1  0  0  0  0
 42 41  1  0  0  0  0
 42 43  1  0  0  0  0
M  END
>  <MODEL>
5

>  <REMARK>
 VINA RESULT:      -7.4      3.140      6.901
  Name = 
  11 active torsions:
  status: ('A' for Active; 'I' for Inactive)
    1  A    between atoms: C_1  and  C_34
    2  A    between atoms: C_1  and  C_35
    3  A    between atoms: C_2  and  N_6
    4  A    between atoms: C_2  and  C_7
    5  A    between atoms: C_3  and  C_12
    6  A    between atoms: C_7  and  C_13
    7  A    between atoms: O_11  and  C_14
    8  A    between atoms: O_11  and  C_36
    9  A    between atoms: C_19  and  C_37
   10  A    between atoms: C_29  and  C_31
   11  A    between atoms: C_29  and  C_36
                            x       y       z     vdW  Elec       q    Type
                         _______ _______ _______ _____ _____    ______ ____

>  <TORSDO>
F 11

$$$$
=
 OpenBabel11052421113D

 43 49  0  0  1  0  0  0  0  0999 V2000
  188.2220  177.2610  147.0860 C   0  0  0  0  0  0  0  0  0  0  0  0
  192.5940  174.9330  146.0670 C   0  0  0  0  0  0  0  0  0  0  0  0
  191.9200  172.6700  144.6350 C   0  0  0  0  0  0  0  0  0  0  0  0
  190.5650  176.6610  146.9480 C   0  0  0  0  0  0  0  0  0  0  0  0
  187.8800  176.1110  146.3730 C   0  0  0  0  0  3  0  0  0  0  0  0
  187.2520  178.1160  147.4950 F   0  0  0  0  0  0  0  0  0  0  0  0
  190.2250  175.4900  146.2250 C   0  0  0  0  0  0  0  0  0  0  0  0
  189.5610  177.5370  147.3750 C   0  0  0  0  0  3  0  0  0  0  0  0
  188.8760  175.2280  145.9440 C   0  0  0  0  0  3  0  0  0  0  0  0
  190.9440  173.5010  145.0850 N   0  0  0  0  0  0  0  0  0  0  0  0
  191.2420  174.6230  145.7930 C   0  0  0  0  0  0  0  0  0  0  0  0
  192.9120  176.0920  146.7890 C   0  0  0  0  0  3  0  0  0  0  0  0
  193.5860  174.0610  145.5910 C   0  0  0  0  0  0  0  0  0  0  0  0
  193.2240  172.9590  144.8790 N   0  0  0  0  0  0  0  0  0  0  0  0
  191.9020  176.9490  147.2280 C   0  0  0  0  0  3  0  0  0  0  0  0
  195.0440  174.3500  145.7760 C   0  0  0  0  0  2  0  0  0  0  0  0
  197.2820  174.1820  142.7220 C   0  0  0  0  0  3  0  0  0  0  0  0
  196.9100  175.3500  142.0420 C   0  0  0  0  0  0  0  0  0  0  0  0
  195.2980  175.8480  143.7800 C   0  0  0  0  0  3  0  0  0  0  0  0
  196.6680  173.8550  143.9340 C   0  0  0  0  0  3  0  0  0  0  0  0
  195.6750  174.6850  144.4650 C   0  0  0  0  0  0  0  0  0  0  0  0
  195.9140  176.1810  142.5710 C   0  0  0  0  0  3  0  0  0  0  0  0
  196.6170  175.5670  139.7100 O   0  0  0  0  0  1  0  0  0  0  0  0
  197.5520  175.6870  140.7410 C   0  0  0  0  0  2  0  0  0  0  0  0
  191.5590  171.4930  143.7940 C   0  0  0  0  0  2  0  0  0  0  0  0
  192.4340  171.4170  142.5450 C   0  0  0  0  0  2  0  0  0  0  0  0
  191.6750  171.7950  141.3600 N   0  0  0  0  0  2  0  0  0  0  0  0
  191.5790  173.1450  140.8970 C   0  0  0  0  0  0  0  0  0  0  0  0
  192.3290  174.0720  141.4070 N   0  0  0  0  0  2  0  0  0  0  0  0
  190.6780  173.4500  139.7370 C   0  0  1  0  0  3  0  0  0  0  0  0
  190.6550  172.3780  138.8260 O   0  0  0  0  0  0  0  0  0  0  0  0
  188.3100  174.1220  138.9170 C   0  0  0  0  0  2  0  0  0  0  0  0
  188.9810  174.5680  141.4310 C   0  0  2  0  0  3  0  0  0  0  0  0
  190.0770  172.8660  137.6360 C   0  0  0  0  0  2  0  0  0  0  0  0
  189.2350  173.8670  140.1030 C   0  0  2  0  0  0  0  0  0  0  0  0
  188.5710  173.1070  141.2300 C   0  0  0  0  0  2  0  0  0  0  0  0
  188.5700  173.0790  137.8270 C   0  0  0  0  0  2  0  0  0  0  0  0
  187.8520  175.3880  141.3690 O   0  0  0  0  0  0  0  0  0  0  0  0
  188.1960  176.5060  142.1290 C   0  0  0  0  0  2  0  0  0  0  0  0
  189.5870  176.3290  142.7040 C   0  0  0  0  0  2  0  0  0  0  0  0
  191.6560  177.5220  143.3440 C   0  0  0  0  0  2  0  0  0  0  0  0
  190.3380  177.6410  142.6080 C   0  0  0  0  0  3  0  0  0  0  0  0
  190.4880  178.2310  143.9940 C   0  0  0  0  0  2  0  0  0  0  0  0
  1  8  1  0  0  0  0
  1  6  1  0  0  0  0
  2 12  1  0  0  0  0
  3 14  1  0  0  0  0
  3 10  2  0  0  0  0
  4 15  1  0  0  0  0
  4  8  2  0  0  0  0
  5  1  2  0  0  0  0
  7  4  1  0  0  0  0
  9  7  2  0  0  0  0
  9  5  1  0  0  0  0
 10 11  1  0  0  0  0
 11  2  2  0  0  0  0
 11  7  1  0  0  0  0
 12 15  2  0  0  0  0
 13 16  1  0  0  0  0
 13  2  1  0  0  0  0
 14 13  2  0  0  0  0
 17 20  1  0  0  0  0
 18 22  1  0  0  0  0
 18 17  2  0  0  0  0
 19 21  1  0  0  0  0
 20 21  2  0  0  0  0
 21 16  1  0  0  0  0
 22 19  2  0  0  0  0
 23 24  1  0  0  0  0
 24 18  1  0  0  0  0
 25  3  1  0  0  0  0
 26 25  1  0  0  0  0
 27 26  1  0  0  0  0
 28 27  1  0  0  0  0
 28 29  2  0  0  0  0
 30 35  1  0  0  0  0
 30 28  1  1  0  0  0
 31 30  1  0  0  0  0
 33 38  1  6  0  0  0
 34 37  1  0  0  0  0
 34 31  1  0  0  0  0
 35 32  1  6  0  0  0
 35 36  1  0  0  0  0
 35 33  1  0  0  0  0
 36 33  1  0  0  0  0
 37 32  1  0  0  0  0
 38 39  1  0  0  0  0
 39 40  1  0  0  0  0
 41 43  1  0  0  0  0
 42 40  1  0  0  0  0
 42 41  1  0  0  0  0
 42 43  1  0  0  0  0
M  END
>  <MODEL>
6

>  <REMARK>
 VINA RESULT:      -7.3      2.938      7.075
  Name = 
  11 active torsions:
  status: ('A' for Active; 'I' for Inactive)
    1  A    between atoms: C_1  and  C_34
    2  A    between atoms: C_1  and  C_35
    3  A    between atoms: C_2  and  N_6
    4  A    between atoms: C_2  and  C_7
    5  A    between atoms: C_3  and  C_12
    6  A    between atoms: C_7  and  C_13
    7  A    between atoms: O_11  and  C_14
    8  A    between atoms: O_11  and  C_36
    9  A    between atoms: C_19  and  C_37
   10  A    between atoms: C_29  and  C_31
   11  A    between atoms: C_29  and  C_36
                            x       y       z     vdW  Elec       q    Type
                         _______ _______ _______ _____ _____    ______ ____

>  <TORSDO>
F 11

$$$$
=
 OpenBabel11052421113D

 43 49  0  0  1  0  0  0  0  0999 V2000
  196.4240  173.4500  145.7330 C   0  0  0  0  0  0  0  0  0  0  0  0
  191.5050  172.8980  144.6990 C   0  0  0  0  0  0  0  0  0  0  0  0
  190.2990  175.2370  145.5360 C   0  0  0  0  0  0  0  0  0  0  0  0
  194.2760  172.5860  145.0210 C   0  0  0  0  0  0  0  0  0  0  0  0
  195.8130  174.6270  146.1670 C   0  0  0  0  0  3  0  0  0  0  0  0
  197.7650  173.2970  145.8600 F   0  0  0  0  0  0  0  0  0  0  0  0
  193.6480  173.7770  145.4620 C   0  0  0  0  0  0  0  0  0  0  0  0
  195.6590  172.4300  145.1610 C   0  0  0  0  0  3  0  0  0  0  0  0
  194.4310  174.7920  146.0330 C   0  0  0  0  0  3  0  0  0  0  0  0
  191.6350  175.0670  145.7070 N   0  0  0  0  0  0  0  0  0  0  0  0
  192.2590  173.9270  145.3070 C   0  0  0  0  0  0  0  0  0  0  0  0
  192.1410  171.7240  144.2750 C   0  0  0  0  0  3  0  0  0  0  0  0
  190.1250  173.0970  144.5300 C   0  0  0  0  0  0  0  0  0  0  0  0
  189.5600  174.2630  144.9420 N   0  0  0  0  0  0  0  0  0  0  0  0
  193.5180  171.5680  144.4370 C   0  0  0  0  0  3  0  0  0  0  0  0
  189.2640  172.0880  143.8330 C   0  0  0  0  0  2  0  0  0  0  0  0
  187.9170  173.5780  140.6200 C   0  0  0  0  0  3  0  0  0  0  0  0
  188.8040  173.0460  139.6750 C   0  0  0  0  0  0  0  0  0  0  0  0
  190.0110  171.9160  141.4440 C   0  0  0  0  0  3  0  0  0  0  0  0
  188.0730  173.2710  141.9740 C   0  0  0  0  0  3  0  0  0  0  0  0
  189.1190  172.4410  142.3900 C   0  0  0  0  0  0  0  0  0  0  0  0
  189.8540  172.2160  140.0890 C   0  0  0  0  0  3  0  0  0  0  0  0
  187.8160  174.5050  138.1030 O   0  0  0  0  0  1  0  0  0  0  0  0
  188.6480  173.3900  138.2340 C   0  0  0  0  0  2  0  0  0  0  0  0
  189.6630  176.5310  145.9140 C   0  0  0  0  0  2  0  0  0  0  0  0
  190.0060  177.6300  144.9110 C   0  0  0  0  0  2  0  0  0  0  0  0
  188.8720  177.9070  144.0400 N   0  0  0  0  0  2  0  0  0  0  0  0
  188.7320  177.3280  142.7400 C   0  0  0  0  0  0  0  0  0  0  0  0
  189.5210  176.3730  142.3540 N   0  0  0  0  0  2  0  0  0  0  0  0
  187.5900  177.7670  141.8710 C   0  0  1  0  0  3  0  0  0  0  0  0
  187.7000  177.2110  140.5830 O   0  0  0  0  0  0  0  0  0  0  0  0
  185.0220  177.9090  141.5300 C   0  0  0  0  0  2  0  0  0  0  0  0
  185.9830  177.4900  143.9530 C   0  0  2  0  0  3  0  0  0  0  0  0
  186.8080  177.9240  139.7540 C   0  0  0  0  0  2  0  0  0  0  0  0
  186.1780  177.5100  142.4430 C   0  0  2  0  0  0  0  0  0  0  0  0
  185.9580  176.1890  143.1470 C   0  0  0  0  0  2  0  0  0  0  0  0
  185.3600  177.5420  140.0810 C   0  0  0  0  0  2  0  0  0  0  0  0
  184.6790  177.8530  144.3050 O   0  0  0  0  0  0  0  0  0  0  0  0
  184.8090  179.1400  144.8270 C   0  0  0  0  0  2  0  0  0  0  0  0
  185.9840  179.1910  145.7830 C   0  0  0  0  0  2  0  0  0  0  0  0
  186.6720  178.8990  148.1390 C   0  0  0  0  0  2  0  0  0  0  0  0
  185.4900  178.9510  147.1950 C   0  0  0  0  0  3  0  0  0  0  0  0
  186.0120  177.6160  147.6840 C   0  0  0  0  0  2  0  0  0  0  0  0
  1  6  1  0  0  0  0
  1  5  1  0  0  0  0
  2 11  1  0  0  0  0
  3 10  2  0  0  0  0
  3 25  1  0  0  0  0
  4  8  1  0  0  0  0
  4  7  1  0  0  0  0
  7  9  1  0  0  0  0
  8  1  2  0  0  0  0
  9  5  2  0  0  0  0
 11  7  2  0  0  0  0
 11 10  1  0  0  0  0
 12 15  1  0  0  0  0
 12  2  2  0  0  0  0
 13  2  1  0  0  0  0
 13 14  2  0  0  0  0
 14  3  1  0  0  0  0
 15  4  2  0  0  0  0
 16 13  1  0  0  0  0
 17 20  1  0  0  0  0
 18 22  1  0  0  0  0
 18 17  2  0  0  0  0
 19 21  1  0  0  0  0
 20 21  2  0  0  0  0
 21 16  1  0  0  0  0
 22 19  2  0  0  0  0
 23 24  1  0  0  0  0
 24 18  1  0  0  0  0
 26 25  1  0  0  0  0
 27 26  1  0  0  0  0
 28 27  1  0  0  0  0
 29 28  2  0  0  0  0
 30 35  1  0  0  0  0
 30 28  1  1  0  0  0
 31 30  1  0  0  0  0
 33 38  1  6  0  0  0
 34 37  1  0  0  0  0
 34 31  1  0  0  0  0
 35 32  1  6  0  0  0
 35 36  1  0  0  0  0
 35 33  1  0  0  0  0
 36 33  1  0  0  0  0
 37 32  1  0  0  0  0
 38 39  1  0  0  0  0
 39 40  1  0  0  0  0
 40 42  1  0  0  0  0
 42 43  1  0  0  0  0
 42 41  1  0  0  0  0
 43 41  1  0  0  0  0
M  END
>  <MODEL>
7

>  <REMARK>
 VINA RESULT:      -7.3      1.874      6.314
  Name = 
  11 active torsions:
  status: ('A' for Active; 'I' for Inactive)
    1  A    between atoms: C_1  and  C_34
    2  A    between atoms: C_1  and  C_35
    3  A    between atoms: C_2  and  N_6
    4  A    between atoms: C_2  and  C_7
    5  A    between atoms: C_3  and  C_12
    6  A    between atoms: C_7  and  C_13
    7  A    between atoms: O_11  and  C_14
    8  A    between atoms: O_11  and  C_36
    9  A    between atoms: C_19  and  C_37
   10  A    between atoms: C_29  and  C_31
   11  A    between atoms: C_29  and  C_36
                            x       y       z     vdW  Elec       q    Type
                         _______ _______ _______ _____ _____    ______ ____

>  <TORSDO>
F 11

$$$$
=
 OpenBabel11052421113D

 43 49  0  0  1  0  0  0  0  0999 V2000
  184.4670  178.5640  145.9200 C   0  0  0  0  0  0  0  0  0  0  0  0
  188.7630  176.7620  143.9510 C   0  0  0  0  0  0  0  0  0  0  0  0
  190.3950  176.2000  146.1060 C   0  0  0  0  0  0  0  0  0  0  0  0
  186.2020  177.8210  144.4020 C   0  0  0  0  0  0  0  0  0  0  0  0
  185.2970  178.2910  147.0100 C   0  0  0  0  0  3  0  0  0  0  0  0
  183.2190  179.0520  146.1260 F   0  0  0  0  0  0  0  0  0  0  0  0
  187.0500  177.5430  145.5030 C   0  0  0  0  0  0  0  0  0  0  0  0
  184.9180  178.3310  144.6180 C   0  0  0  0  0  3  0  0  0  0  0  0
  186.5830  177.7830  146.8030 C   0  0  0  0  0  3  0  0  0  0  0  0
  189.1620  176.7330  146.3130 N   0  0  0  0  0  0  0  0  0  0  0  0
  188.3350  177.0220  145.2730 C   0  0  0  0  0  0  0  0  0  0  0  0
  187.9140  177.0490  142.8740 C   0  0  0  0  0  3  0  0  0  0  0  0
  190.0400  176.2100  143.7620 C   0  0  0  0  0  0  0  0  0  0  0  0
  190.8170  175.9340  144.8440 N   0  0  0  0  0  0  0  0  0  0  0  0
  186.6410  177.5770  143.0990 C   0  0  0  0  0  3  0  0  0  0  0  0
  190.5440  175.8400  142.4010 C   0  0  0  0  0  2  0  0  0  0  0  0
  191.0340  172.3950  140.9000 C   0  0  0  0  0  3  0  0  0  0  0  0
  190.4590  171.5800  141.8850 C   0  0  0  0  0  0  0  0  0  0  0  0
  189.9690  173.5400  143.2200 C   0  0  0  0  0  3  0  0  0  0  0  0
  191.0670  173.7810  141.0740 C   0  0  0  0  0  3  0  0  0  0  0  0
  190.5370  174.3570  142.2330 C   0  0  0  0  0  0  0  0  0  0  0  0
  189.9300  172.1540  143.0480 C   0  0  0  0  0  3  0  0  0  0  0  0
  190.9250  169.7740  140.4380 O   0  0  0  0  0  1  0  0  0  0  0  0
  190.4420  170.1020  141.7070 C   0  0  0  0  0  2  0  0  0  0  0  0
  191.2420  175.8220  147.2740 C   0  0  0  0  0  2  0  0  0  0  0  0
  192.5680  176.5770  147.2630 C   0  0  0  0  0  2  0  0  0  0  0  0
  193.6630  175.6910  146.8900 N   0  0  0  0  0  2  0  0  0  0  0  0
  194.5160  175.9400  145.7680 C   0  0  0  0  0  0  0  0  0  0  0  0
  194.4710  177.0760  145.1450 N   0  0  0  0  0  2  0  0  0  0  0  0
  195.5390  174.9080  145.3940 C   0  0  1  0  0  3  0  0  0  0  0  0
  195.9530  174.1820  146.5260 O   0  0  0  0  0  0  0  0  0  0  0  0
  196.1530  172.8600  143.9260 C   0  0  0  0  0  2  0  0  0  0  0  0
  194.1490  174.4160  143.1990 C   0  0  2  0  0  3  0  0  0  0  0  0
  197.1270  173.4910  146.1600 C   0  0  0  0  0  2  0  0  0  0  0  0
  195.1290  173.9400  144.2620 C   0  0  2  0  0  0  0  0  0  0  0  0
  193.7040  173.4300  144.2830 C   0  0  0  0  0  2  0  0  0  0  0  0
  196.7880  172.3320  145.2160 C   0  0  0  0  0  2  0  0  0  0  0  0
  194.3340  173.7370  141.9910 O   0  0  0  0  0  0  0  0  0  0  0  0
  194.5530  174.7500  141.0570 C   0  0  0  0  0  2  0  0  0  0  0  0
  194.7420  176.0740  141.7700 C   0  0  0  0  0  2  0  0  0  0  0  0
  197.1730  175.6690  141.5660 C   0  0  0  0  0  2  0  0  0  0  0  0
  196.0670  176.6810  141.3520 C   0  0  0  0  0  3  0  0  0  0  0  0
  196.9690  176.7880  142.5630 C   0  0  0  0  0  2  0  0  0  0  0  0
  1  6  1  0  0  0  0
  1  5  1  0  0  0  0
  2 11  1  0  0  0  0
  3 10  2  0  0  0  0
  3 25  1  0  0  0  0
  4  8  1  0  0  0  0
  4  7  1  0  0  0  0
  7  9  1  0  0  0  0
  8  1  2  0  0  0  0
  9  5  2  0  0  0  0
 11  7  2  0  0  0  0
 11 10  1  0  0  0  0
 12 15  1  0  0  0  0
 12  2  2  0  0  0  0
 13  2  1  0  0  0  0
 13 14  2  0  0  0  0
 14  3  1  0  0  0  0
 15  4  2  0  0  0  0
 16 13  1  0  0  0  0
 17 20  2  0  0  0  0
 17 18  1  0  0  0  0
 18 22  2  0  0  0  0
 20 21  1  0  0  0  0
 21 16  1  0  0  0  0
 21 19  2  0  0  0  0
 22 19  1  0  0  0  0
 23 24  1  0  0  0  0
 24 18  1  0  0  0  0
 26 25  1  0  0  0  0
 27 26  1  0  0  0  0
 28 27  1  0  0  0  0
 29 28  2  0  0  0  0
 30 28  1  1  0  0  0
 30 31  1  0  0  0  0
 32 37  1  0  0  0  0
 33 38  1  6  0  0  0
 33 35  1  0  0  0  0
 33 36  1  0  0  0  0
 34 31  1  0  0  0  0
 35 32  1  6  0  0  0
 35 36  1  0  0  0  0
 35 30  1  0  0  0  0
 37 34  1  0  0  0  0
 39 40  1  0  0  0  0
 39 38  1  0  0  0  0
 41 43  1  0  0  0  0
 42 41  1  0  0  0  0
 42 40  1  0  0  0  0
 42 43  1  0  0  0  0
M  END
>  <MODEL>
8

>  <REMARK>
 VINA RESULT:      -7.3      3.562      7.816
  Name = 
  11 active torsions:
  status: ('A' for Active; 'I' for Inactive)
    1  A    between atoms: C_1  and  C_34
    2  A    between atoms: C_1  and  C_35
    3  A    between atoms: C_2  and  N_6
    4  A    between atoms: C_2  and  C_7
    5  A    between atoms: C_3  and  C_12
    6  A    between atoms: C_7  and  C_13
    7  A    between atoms: O_11  and  C_14
    8  A    between atoms: O_11  and  C_36
    9  A    between atoms: C_19  and  C_37
   10  A    between atoms: C_29  and  C_31
   11  A    between atoms: C_29  and  C_36
                            x       y       z     vdW  Elec       q    Type
                         _______ _______ _______ _____ _____    ______ ____

>  <TORSDO>
F 11

$$$$
=
 OpenBabel11052421113D

 43 49  0  0  1  0  0  0  0  0999 V2000
  185.0620  178.9460  144.3370 C   0  0  0  0  0  0  0  0  0  0  0  0
  188.5160  175.3300  143.5810 C   0  0  0  0  0  0  0  0  0  0  0  0
  190.0500  175.2700  145.8770 C   0  0  0  0  0  0  0  0  0  0  0  0
  186.4060  177.1710  143.3820 C   0  0  0  0  0  0  0  0  0  0  0  0
  185.8450  178.9240  145.4930 C   0  0  0  0  0  3  0  0  0  0  0  0
  184.0250  179.8130  144.2390 F   0  0  0  0  0  0  0  0  0  0  0  0
  187.2060  177.1450  144.5520 C   0  0  0  0  0  0  0  0  0  0  0  0
  185.3410  178.0720  143.2830 C   0  0  0  0  0  3  0  0  0  0  0  0
  186.9130  178.0280  145.6010 C   0  0  0  0  0  3  0  0  0  0  0  0
  189.0400  176.1720  145.7620 N   0  0  0  0  0  0  0  0  0  0  0  0
  188.2670  176.2280  144.6450 C   0  0  0  0  0  0  0  0  0  0  0  0
  187.7190  175.3750  142.4300 C   0  0  0  0  0  3  0  0  0  0  0  0
  189.5640  174.4060  143.7230 C   0  0  0  0  0  0  0  0  0  0  0  0
  190.2950  174.3930  144.8700 N   0  0  0  0  0  0  0  0  0  0  0  0
  186.6710  176.2910  142.3310 C   0  0  0  0  0  3  0  0  0  0  0  0
  189.8500  173.3750  142.6750 C   0  0  0  0  0  2  0  0  0  0  0  0
  192.2510  173.6730  139.7570 C   0  0  0  0  0  3  0  0  0  0  0  0
  193.2150  174.5450  140.2810 C   0  0  0  0  0  0  0  0  0  0  0  0
  191.9690  174.6790  142.3530 C   0  0  0  0  0  3  0  0  0  0  0  0
  191.1520  173.2990  140.5360 C   0  0  0  0  0  3  0  0  0  0  0  0
  191.0070  173.8020  141.8330 C   0  0  0  0  0  0  0  0  0  0  0  0
  193.0710  175.0510  141.5790 C   0  0  0  0  0  3  0  0  0  0  0  0
  195.5110  174.2390  139.8240 O   0  0  0  0  0  1  0  0  0  0  0  0
  194.3750  174.9570  139.4430 C   0  0  0  0  0  2  0  0  0  0  0  0
  190.8240  175.1850  147.1480 C   0  0  0  0  0  2  0  0  0  0  0  0
  192.0790  176.0520  147.0910 C   0  0  0  0  0  2  0  0  0  0  0  0
  192.9640  175.6090  146.0210 N   0  0  0  0  0  2  0  0  0  0  0  0
  194.1630  176.3030  145.6670 C   0  0  0  0  0  0  0  0  0  0  0  0
  194.6180  177.2580  146.4170 N   0  0  0  0  0  2  0  0  0  0  0  0
  194.9450  175.8360  144.4750 C   0  0  1  0  0  3  0  0  0  0  0  0
  195.8460  176.8290  144.0480 O   0  0  0  0  0  0  0  0  0  0  0  0
  196.5160  174.0470  143.4450 C   0  0  0  0  0  2  0  0  0  0  0  0
  195.1080  173.4470  145.5960 C   0  0  2  0  0  3  0  0  0  0  0  0
  196.2800  176.4580  142.7580 C   0  0  0  0  0  2  0  0  0  0  0  0
  195.6800  174.4870  144.6430 C   0  0  2  0  0  0  0  0  0  0  0  0
  196.3600  174.2430  145.9720 C   0  0  0  0  0  2  0  0  0  0  0  0
  197.2330  175.2600  142.8430 C   0  0  0  0  0  2  0  0  0  0  0  0
  195.4700  172.1510  145.2150 O   0  0  0  0  0  0  0  0  0  0  0  0
  194.3180  171.3950  145.4300 C   0  0  0  0  0  2  0  0  0  0  0  0
  194.0310  170.5360  144.2140 C   0  0  0  0  0  2  0  0  0  0  0  0
  193.0950  170.5370  141.9260 C   0  0  0  0  0  2  0  0  0  0  0  0
  193.4250  171.3990  143.1260 C   0  0  0  0  0  3  0  0  0  0  0  0
  194.3410  171.3960  141.9200 C   0  0  0  0  0  2  0  0  0  0  0  0
  1  5  1  0  0  0  0
  2 13  1  0  0  0  0
  2 11  1  0  0  0  0
  3 25  1  0  0  0  0
  4  7  1  0  0  0  0
  5  9  2  0  0  0  0
  6  1  1  0  0  0  0
  7 11  2  0  0  0  0
  7  9  1  0  0  0  0
  8  4  1  0  0  0  0
  8  1  2  0  0  0  0
 10  3  2  0  0  0  0
 11 10  1  0  0  0  0
 12  2  2  0  0  0  0
 13 14  2  0  0  0  0
 14  3  1  0  0  0  0
 15 12  1  0  0  0  0
 15  4  2  0  0  0  0
 16 13  1  0  0  0  0
 17 18  2  0  0  0  0
 17 20  1  0  0  0  0
 18 22  1  0  0  0  0
 20 21  2  0  0  0  0
 21 19  1  0  0  0  0
 21 16  1  0  0  0  0
 22 19  2  0  0  0  0
 24 23  1  0  0  0  0
 24 18  1  0  0  0  0
 26 25  1  0  0  0  0
 27 26  1  0  0  0  0
 28 27  1  0  0  0  0
 28 29  2  0  0  0  0
 30 35  1  0  0  0  0
 30 28  1  1  0  0  0
 31 30  1  0  0  0  0
 33 38  1  6  0  0  0
 33 36  1  0  0  0  0
 34 37  1  0  0  0  0
 34 31  1  0  0  0  0
 35 32  1  6  0  0  0
 35 33  1  0  0  0  0
 35 36  1  0  0  0  0
 37 32  1  0  0  0  0
 38 39  1  0  0  0  0
 40 39  1  0  0  0  0
 41 42  1  0  0  0  0
 42 40  1  0  0  0  0
 43 41  1  0  0  0  0
 43 42  1  0  0  0  0
M  END
>  <MODEL>
9

>  <REMARK>
 VINA RESULT:      -7.3      3.713      7.778
  Name = 
  11 active torsions:
  status: ('A' for Active; 'I' for Inactive)
    1  A    between atoms: C_1  and  C_34
    2  A    between atoms: C_1  and  C_35
    3  A    between atoms: C_2  and  N_6
    4  A    between atoms: C_2  and  C_7
    5  A    between atoms: C_3  and  C_12
    6  A    between atoms: C_7  and  C_13
    7  A    between atoms: O_11  and  C_14
    8  A    between atoms: O_11  and  C_36
    9  A    between atoms: C_19  and  C_37
   10  A    between atoms: C_29  and  C_31
   11  A    between atoms: C_29  and  C_36
                            x       y       z     vdW  Elec       q    Type
                         _______ _______ _______ _____ _____    ______ ____

>  <TORSDO>
F 11

$$$$
