=
 OpenBabel11052420283D

 34 39  0  0  1  0  0  0  0  0999 V2000
  187.9940  176.5870  144.1970 C   0  0  0  0  0  0  0  0  0  0  0  0
  186.0610  178.3180  142.1300 C   0  0  0  0  0  2  0  0  0  0  0  0
  185.2000  177.0520  144.0440 N   0  0  0  0  0  2  0  0  0  0  0  0
  189.3490  177.1390  146.5310 N   0  0  0  0  0  0  0  0  0  0  0  0
  189.3360  176.3770  144.3020 N   0  0  0  0  0  0  0  0  0  0  0  0
  188.0080  177.3450  146.4920 C   0  0  0  0  0  0  0  0  0  0  0  0
  185.9420  177.9880  147.5800 C   0  0  0  0  0  3  0  0  0  0  0  0
  187.3280  177.8000  147.6250 C   0  0  0  0  0  3  0  0  0  0  0  0
  190.0190  176.6630  145.4450 C   0  0  0  0  0  0  0  0  0  0  0  0
  185.9100  177.2860  145.2610 C   0  0  0  0  0  0  0  0  0  0  0  0
  187.2960  177.0780  145.3090 C   0  0  0  0  0  0  0  0  0  0  0  0
  185.2330  177.7290  146.4010 C   0  0  0  0  0  3  0  0  0  0  0  0
  186.5790  178.3000  140.6840 C   0  0  0  0  0  2  0  0  0  0  0  0
  186.3810  176.9510  139.9880 C   0  0  2  0  0  3  0  0  0  0  0  0
  187.4280  175.8990  140.3960 C   0  0  0  0  0  2  0  0  0  0  0  0
  185.9090  176.9310  142.7730 C   0  0  2  0  0  3  0  0  0  0  0  0
  188.1560  176.2010  141.7100 C   0  0  0  0  0  2  0  0  0  0  0  0
  187.2470  176.1640  142.9480 C   0  0  1  0  0  3  0  0  0  0  0  0
  193.5140  176.1460  146.8560 C   0  0  0  0  0  3  0  0  0  0  0  0
  192.2270  176.3040  144.3260 C   0  0  0  0  0  3  0  0  0  0  0  0
  195.7590  175.7560  144.2190 C   0  0  0  0  0  0  0  0  0  0  0  0
  195.5080  175.8160  145.5160 O   0  0  0  0  0  0  0  0  0  0  0  0
  194.2200  176.0180  145.6630 C   0  0  0  0  0  0  0  0  0  0  0  0
  194.5790  175.9260  143.4950 C   0  0  0  0  0  0  0  0  0  0  0  0
  193.6000  176.0940  144.4460 C   0  0  0  0  0  0  0  0  0  0  0  0
  194.3960  175.9300  142.0150 C   0  0  0  0  0  1  0  0  0  0  0  0
  191.4760  176.4390  145.5130 C   0  0  0  0  0  0  0  0  0  0  0  0
  192.1270  176.3590  146.7690 C   0  0  0  0  0  3  0  0  0  0  0  0
  197.1060  175.5380  143.6740 C   0  0  0  0  0  0  0  0  0  0  0  0
  197.7290  176.4710  143.1020 O   0  0  0  0  0  0  0  0  0  0  0  0
  197.7020  174.2900  143.7900 O   0  0  0  0  0  1  0  0  0  0  0  0
  186.4120  177.1360  138.5480 N   0  0  0  0  0  2  0  0  0  0  0  0
  186.9820  175.9290  137.9750 C   0  0  0  0  0  2  0  0  0  0  0  0
  186.8520  175.9780  136.4670 C   0  0  0  0  0  1  0  0  0  0  0  0
  1  5  2  0  0  0  0
  1 11  1  0  0  0  0
  3 10  1  0  0  0  0
  5  9  1  0  0  0  0
  6  4  1  0  0  0  0
  6  8  1  0  0  0  0
  7  8  2  0  0  0  0
  9 27  1  0  0  0  0
  9  4  2  0  0  0  0
 10 11  1  0  0  0  0
 10 12  2  0  0  0  0
 11  6  2  0  0  0  0
 12  7  1  0  0  0  0
 13  2  1  0  0  0  0
 14 32  1  6  0  0  0
 14 15  1  0  0  0  0
 14 13  1  0  0  0  0
 15 17  1  0  0  0  0
 16  2  1  1  0  0  0
 16 18  1  0  0  0  0
 16  3  1  0  0  0  0
 18 17  1  6  0  0  0
 18  1  1  0  0  0  0
 20 25  2  0  0  0  0
 20 27  1  0  0  0  0
 21 22  1  0  0  0  0
 22 23  1  0  0  0  0
 23 19  2  0  0  0  0
 24 21  2  0  0  0  0
 24 25  1  0  0  0  0
 25 23  1  0  0  0  0
 26 24  1  0  0  0  0
 27 28  2  0  0  0  0
 28 19  1  0  0  0  0
 29 31  1  0  0  0  0
 29 21  1  0  0  0  0
 30 29  2  0  0  0  0
 33 32  1  0  0  0  0
 34 33  1  0  0  0  0
M  END
>  <MODEL>
1

>  <REMARK>
 VINA RESULT:      -8.1      0.000      0.000
  Name = 
  4 active torsions:
  status: ('A' for Active; 'I' for Inactive)
    1  A    between atoms: N_3  and  C_13
    2  A    between atoms: N_3  and  C_25
    3  A    between atoms: C_7  and  C_11
    4  A    between atoms: C_18  and  C_30
                            x       y       z     vdW  Elec       q    Type
                         _______ _______ _______ _____ _____    ______ ____

>  <TORSDO>
F 4

$$$$
=
 OpenBabel11052420283D

 34 39  0  0  1  0  0  0  0  0999 V2000
  194.7590  173.8070  144.2910 C   0  0  0  0  0  0  0  0  0  0  0  0
  197.1220  171.7220  145.3300 C   0  0  0  0  0  2  0  0  0  0  0  0
  197.2140  172.9090  143.1880 N   0  0  0  0  0  2  0  0  0  0  0  0
  194.2800  176.5070  144.5520 N   0  0  0  0  0  0  0  0  0  0  0  0
  193.5920  174.2690  144.8180 N   0  0  0  0  0  0  0  0  0  0  0  0
  195.4510  176.1040  143.9960 C   0  0  0  0  0  0  0  0  0  0  0  0
  197.5740  176.6160  142.9490 C   0  0  0  0  0  3  0  0  0  0  0  0
  196.3800  177.0430  143.5410 C   0  0  0  0  0  3  0  0  0  0  0  0
  193.3510  175.6020  144.9680 C   0  0  0  0  0  0  0  0  0  0  0  0
  196.9280  174.3050  143.2850 C   0  0  0  0  0  0  0  0  0  0  0  0
  195.7220  174.7300  143.8600 C   0  0  0  0  0  0  0  0  0  0  0  0
  197.8480  175.2490  142.8200 C   0  0  0  0  0  3  0  0  0  0  0  0
  196.5560  170.5500  146.1460 C   0  0  0  0  0  2  0  0  0  0  0  0
  195.8100  169.5230  145.2890 C   0  0  2  0  0  3  0  0  0  0  0  0
  194.3860  169.9700  144.9100 C   0  0  0  0  0  2  0  0  0  0  0  0
  196.4540  171.9320  143.9630 C   0  0  2  0  0  3  0  0  0  0  0  0
  194.1380  171.4780  145.0320 C   0  0  0  0  0  2  0  0  0  0  0  0
  194.9540  172.3240  144.0430 C   0  0  1  0  0  3  0  0  0  0  0  0
  190.7820  176.7060  147.5470 C   0  0  0  0  0  3  0  0  0  0  0  0
  190.9610  176.3040  144.7390 C   0  0  0  0  0  3  0  0  0  0  0  0
  187.7810  177.4240  145.9290 C   0  0  0  0  0  0  0  0  0  0  0  0
  188.4990  177.3420  147.0360 O   0  0  0  0  0  0  0  0  0  0  0  0
  189.7000  176.9320  146.7030 C   0  0  0  0  0  0  0  0  0  0  0  0
  188.5540  177.0520  144.8290 C   0  0  0  0  0  0  0  0  0  0  0  0
  189.7870  176.7390  145.3510 C   0  0  0  0  0  0  0  0  0  0  0  0
  188.1520  176.9980  143.3940 C   0  0  0  0  0  1  0  0  0  0  0  0
  192.0820  176.0630  145.5620 C   0  0  0  0  0  0  0  0  0  0  0  0
  191.9830  176.2670  146.9610 C   0  0  0  0  0  3  0  0  0  0  0  0
  186.3750  177.8530  145.9160 C   0  0  0  0  0  0  0  0  0  0  0  0
  186.0530  178.9940  145.4910 O   0  0  0  0  0  0  0  0  0  0  0  0
  185.3890  176.9910  146.3760 O   0  0  0  0  0  1  0  0  0  0  0  0
  195.7500  168.2530  145.9910 N   0  0  0  0  0  2  0  0  0  0  0  0
  195.9580  168.5340  147.4010 C   0  0  0  0  0  2  0  0  0  0  0  0
  194.7110  168.1660  148.1770 C   0  0  0  0  0  1  0  0  0  0  0  0
  1  5  2  0  0  0  0
  2 13  1  0  0  0  0
  3 10  1  0  0  0  0
  3 16  1  0  0  0  0
  4  9  2  0  0  0  0
  5  9  1  0  0  0  0
  6  4  1  0  0  0  0
  7  8  1  0  0  0  0
  8  6  2  0  0  0  0
  9 27  1  0  0  0  0
 10 11  2  0  0  0  0
 11  6  1  0  0  0  0
 11  1  1  0  0  0  0
 12  7  2  0  0  0  0
 12 10  1  0  0  0  0
 14 32  1  1  0  0  0
 14 13  1  0  0  0  0
 15 17  1  0  0  0  0
 15 14  1  0  0  0  0
 16 18  1  0  0  0  0
 16  2  1  1  0  0  0
 18  1  1  0  0  0  0
 18 17  1  1  0  0  0
 20 25  2  0  0  0  0
 20 27  1  0  0  0  0
 21 22  1  0  0  0  0
 23 22  1  0  0  0  0
 23 19  2  0  0  0  0
 24 25  1  0  0  0  0
 24 21  2  0  0  0  0
 25 23  1  0  0  0  0
 26 24  1  0  0  0  0
 27 28  2  0  0  0  0
 28 19  1  0  0  0  0
 29 21  1  0  0  0  0
 29 31  1  0  0  0  0
 30 29  2  0  0  0  0
 32 33  1  0  0  0  0
 33 34  1  0  0  0  0
M  END
>  <MODEL>
2

>  <REMARK>
 VINA RESULT:      -8.0      4.893      9.872
  Name = 
  4 active torsions:
  status: ('A' for Active; 'I' for Inactive)
    1  A    between atoms: N_3  and  C_13
    2  A    between atoms: N_3  and  C_25
    3  A    between atoms: C_7  and  C_11
    4  A    between atoms: C_18  and  C_30
                            x       y       z     vdW  Elec       q    Type
                         _______ _______ _______ _____ _____    ______ ____

>  <TORSDO>
F 4

$$$$
=
 OpenBabel11052420283D

 34 39  0  0  1  0  0  0  0  0999 V2000
  189.2300  175.9490  143.8750 C   0  0  0  0  0  0  0  0  0  0  0  0
  190.5540  172.9070  143.8950 C   0  0  0  0  0  2  0  0  0  0  0  0
  191.7950  174.9250  144.5250 N   0  0  0  0  0  2  0  0  0  0  0  0
  187.8730  177.5030  145.7000 N   0  0  0  0  0  0  0  0  0  0  0  0
  187.9970  176.4540  143.5940 N   0  0  0  0  0  0  0  0  0  0  0  0
  189.1100  177.0480  146.0250 C   0  0  0  0  0  0  0  0  0  0  0  0
  190.9760  176.9310  147.5640 C   0  0  0  0  0  3  0  0  0  0  0  0
  189.6910  177.3870  147.2490 C   0  0  0  0  0  3  0  0  0  0  0  0
  187.3090  177.2090  144.4960 C   0  0  0  0  0  0  0  0  0  0  0  0
  191.0980  175.7730  145.4380 C   0  0  0  0  0  0  0  0  0  0  0  0
  189.8190  176.2460  145.1120 C   0  0  0  0  0  0  0  0  0  0  0  0
  191.6800  176.1260  146.6600 C   0  0  0  0  0  3  0  0  0  0  0  0
  190.0010  172.0160  142.7730 C   0  0  0  0  0  2  0  0  0  0  0  0
  190.5200  172.4020  141.3850 C   0  0  2  0  0  3  0  0  0  0  0  0
  189.8040  173.6280  140.7890 C   0  0  0  0  0  2  0  0  0  0  0  0
  191.0920  174.2680  143.4260 C   0  0  2  0  0  3  0  0  0  0  0  0
  189.0760  174.5010  141.8160 C   0  0  0  0  0  2  0  0  0  0  0  0
  190.0110  175.1990  142.8150 C   0  0  1  0  0  3  0  0  0  0  0  0
  183.8830  178.8220  144.8640 C   0  0  0  0  0  3  0  0  0  0  0  0
  185.4750  177.6120  142.8430 C   0  0  0  0  0  3  0  0  0  0  0  0
  182.2650  178.7740  141.7790 C   0  0  0  0  0  0  0  0  0  0  0  0
  182.2810  179.0860  143.0630 O   0  0  0  0  0  0  0  0  0  0  0  0
  183.4340  178.6950  143.5530 C   0  0  0  0  0  0  0  0  0  0  0  0
  183.4630  178.1530  141.4220 C   0  0  0  0  0  0  0  0  0  0  0  0
  184.2010  178.1130  142.5810 C   0  0  0  0  0  0  0  0  0  0  0  0
  183.8730  177.6390  140.0840 C   0  0  0  0  0  1  0  0  0  0  0  0
  185.9670  177.7210  144.1610 C   0  0  0  0  0  0  0  0  0  0  0  0
  185.1660  178.3270  145.1620 C   0  0  0  0  0  3  0  0  0  0  0  0
  181.1240  179.0620  140.8990 C   0  0  0  0  0  0  0  0  0  0  0  0
  180.6610  180.2300  140.8050 O   0  0  0  0  0  1  0  0  0  0  0  0
  180.5490  178.0370  140.1600 O   0  0  0  0  0  0  0  0  0  0  0  0
  190.3830  171.2720  140.4820 N   0  0  0  0  0  2  0  0  0  0  0  0
  189.7040  171.7560  139.2920 C   0  0  0  0  0  2  0  0  0  0  0  0
  189.7430  170.6880  138.2200 C   0  0  0  0  0  1  0  0  0  0  0  0
  1 11  1  0  0  0  0
  3 10  1  0  0  0  0
  4  6  1  0  0  0  0
  5  1  2  0  0  0  0
  5  9  1  0  0  0  0
  6  8  1  0  0  0  0
  8  7  2  0  0  0  0
  9  4  2  0  0  0  0
 10 12  2  0  0  0  0
 11 10  1  0  0  0  0
 11  6  2  0  0  0  0
 12  7  1  0  0  0  0
 13  2  1  0  0  0  0
 14 32  1  6  0  0  0
 14 13  1  0  0  0  0
 15 14  1  0  0  0  0
 15 17  1  0  0  0  0
 16  2  1  1  0  0  0
 16  3  1  0  0  0  0
 18 17  1  1  0  0  0
 18 16  1  0  0  0  0
 18  1  1  0  0  0  0
 19 28  1  0  0  0  0
 20 27  1  0  0  0  0
 21 22  1  0  0  0  0
 22 23  1  0  0  0  0
 23 19  2  0  0  0  0
 24 21  2  0  0  0  0
 24 25  1  0  0  0  0
 25 20  2  0  0  0  0
 25 23  1  0  0  0  0
 26 24  1  0  0  0  0
 27  9  1  0  0  0  0
 27 28  2  0  0  0  0
 29 21  1  0  0  0  0
 30 29  1  0  0  0  0
 31 29  2  0  0  0  0
 33 32  1  0  0  0  0
 34 33  1  0  0  0  0
M  END
>  <MODEL>
3

>  <REMARK>
 VINA RESULT:      -7.7      5.412      8.604
  Name = 
  4 active torsions:
  status: ('A' for Active; 'I' for Inactive)
    1  A    between atoms: N_3  and  C_13
    2  A    between atoms: N_3  and  C_25
    3  A    between atoms: C_7  and  C_11
    4  A    between atoms: C_18  and  C_30
                            x       y       z     vdW  Elec       q    Type
                         _______ _______ _______ _____ _____    ______ ____

>  <TORSDO>
F 4

$$$$
=
 OpenBabel11052420283D

 34 39  0  0  1  0  0  0  0  0999 V2000
  188.9280  176.8670  144.4430 C   0  0  0  0  0  0  0  0  0  0  0  0
  190.4400  175.7960  147.1950 C   0  0  0  0  0  2  0  0  0  0  0  0
  188.8590  177.6680  147.1630 N   0  0  0  0  0  2  0  0  0  0  0  0
  186.5820  176.2540  143.1350 N   0  0  0  0  0  0  0  0  0  0  0  0
  188.9280  176.4780  143.1370 N   0  0  0  0  0  0  0  0  0  0  0  0
  186.5200  176.6610  144.4280 C   0  0  0  0  0  0  0  0  0  0  0  0
  185.2320  177.2330  146.3980 C   0  0  0  0  0  3  0  0  0  0  0  0
  185.2860  176.7920  145.0710 C   0  0  0  0  0  3  0  0  0  0  0  0
  187.7760  176.1550  142.4860 C   0  0  0  0  0  0  0  0  0  0  0  0
  187.6490  177.3940  146.4550 C   0  0  0  0  0  0  0  0  0  0  0  0
  187.7050  176.9720  145.1200 C   0  0  0  0  0  0  0  0  0  0  0  0
  186.4110  177.5360  147.0890 C   0  0  0  0  0  3  0  0  0  0  0  0
  191.8660  175.2910  146.9250 C   0  0  0  0  0  2  0  0  0  0  0  0
  192.8600  176.4180  146.6310 C   0  0  2  0  0  3  0  0  0  0  0  0
  192.7580  176.9560  145.1920 C   0  0  0  0  0  2  0  0  0  0  0  0
  190.1470  177.2040  146.6550 C   0  0  2  0  0  3  0  0  0  0  0  0
  191.4380  176.6330  144.4830 C   0  0  0  0  0  2  0  0  0  0  0  0
  190.2130  177.3170  145.1080 C   0  0  1  0  0  3  0  0  0  0  0  0
  187.0830  176.0010  138.7480 C   0  0  0  0  0  3  0  0  0  0  0  0
  188.6220  174.6220  140.7000 C   0  0  0  0  0  3  0  0  0  0  0  0
  188.9020  173.3720  137.3620 C   0  0  0  0  0  0  0  0  0  0  0  0
  188.0590  174.3810  137.2300 O   0  0  0  0  0  0  0  0  0  0  0  0
  187.8870  174.9150  138.4160 C   0  0  0  0  0  0  0  0  0  0  0  0
  189.2940  173.2470  138.6950 C   0  0  0  0  0  0  0  0  0  0  0  0
  188.6270  174.2510  139.3570 C   0  0  0  0  0  0  0  0  0  0  0  0
  190.2280  172.2500  139.2930 C   0  0  0  0  0  1  0  0  0  0  0  0
  187.8190  175.7190  141.0770 C   0  0  0  0  0  0  0  0  0  0  0  0
  187.0560  176.4010  140.0970 C   0  0  0  0  0  3  0  0  0  0  0  0
  189.3310  172.5340  136.2330 C   0  0  0  0  0  0  0  0  0  0  0  0
  189.7300  173.0560  135.1580 O   0  0  0  0  0  0  0  0  0  0  0  0
  189.3000  171.1520  136.3510 O   0  0  0  0  0  1  0  0  0  0  0  0
  194.2120  175.9530  146.8830 N   0  0  0  0  0  2  0  0  0  0  0  0
  194.8580  175.7960  145.5910 C   0  0  0  0  0  2  0  0  0  0  0  0
  195.6810  174.5250  145.5910 C   0  0  0  0  0  1  0  0  0  0  0  0
  1 18  1  0  0  0  0
  1 11  1  0  0  0  0
  4  6  1  0  0  0  0
  5  1  2  0  0  0  0
  6  8  2  0  0  0  0
  6 11  1  0  0  0  0
  7 12  2  0  0  0  0
  8  7  1  0  0  0  0
  9  4  2  0  0  0  0
  9  5  1  0  0  0  0
 10 12  1  0  0  0  0
 10  3  1  0  0  0  0
 11 10  2  0  0  0  0
 13  2  1  0  0  0  0
 14 32  1  6  0  0  0
 14 13  1  0  0  0  0
 15 14  1  0  0  0  0
 16  3  1  0  0  0  0
 16  2  1  6  0  0  0
 17 15  1  0  0  0  0
 18 17  1  6  0  0  0
 18 16  1  0  0  0  0
 19 28  1  0  0  0  0
 20 27  1  0  0  0  0
 21 24  2  0  0  0  0
 22 21  1  0  0  0  0
 22 23  1  0  0  0  0
 23 19  2  0  0  0  0
 23 25  1  0  0  0  0
 24 26  1  0  0  0  0
 24 25  1  0  0  0  0
 25 20  2  0  0  0  0
 27  9  1  0  0  0  0
 28 27  2  0  0  0  0
 29 31  1  0  0  0  0
 29 21  1  0  0  0  0
 30 29  2  0  0  0  0
 33 32  1  0  0  0  0
 34 33  1  0  0  0  0
M  END
>  <MODEL>
4

>  <REMARK>
 VINA RESULT:      -7.7      3.935      7.563
  Name = 
  4 active torsions:
  status: ('A' for Active; 'I' for Inactive)
    1  A    between atoms: N_3  and  C_13
    2  A    between atoms: N_3  and  C_25
    3  A    between atoms: C_7  and  C_11
    4  A    between atoms: C_18  and  C_30
                            x       y       z     vdW  Elec       q    Type
                         _______ _______ _______ _____ _____    ______ ____

>  <TORSDO>
F 4

$$$$
=
 OpenBabel11052420283D

 34 39  0  0  1  0  0  0  0  0999 V2000
  189.7030  176.1460  143.3120 C   0  0  0  0  0  0  0  0  0  0  0  0
  190.8280  175.9490  146.4270 C   0  0  0  0  0  2  0  0  0  0  0  0
  189.3870  177.7610  145.6230 N   0  0  0  0  0  2  0  0  0  0  0  0
  187.4800  175.2200  141.9740 N   0  0  0  0  0  0  0  0  0  0  0  0
  189.8210  175.3670  142.2010 N   0  0  0  0  0  0  0  0  0  0  0  0
  187.3020  176.0140  143.0600 C   0  0  0  0  0  0  0  0  0  0  0  0
  185.8460  177.2110  144.5800 C   0  0  0  0  0  3  0  0  0  0  0  0
  186.0170  176.3740  143.4710 C   0  0  0  0  0  3  0  0  0  0  0  0
  188.7280  174.8890  141.5410 C   0  0  0  0  0  0  0  0  0  0  0  0
  188.2480  177.3130  144.8880 C   0  0  0  0  0  0  0  0  0  0  0  0
  188.4220  176.4920  143.7650 C   0  0  0  0  0  0  0  0  0  0  0  0
  186.9590  177.6820  145.2870 C   0  0  0  0  0  3  0  0  0  0  0  0
  192.2390  175.3450  146.5060 C   0  0  0  0  0  2  0  0  0  0  0  0
  193.3310  176.2940  146.0070 C   0  0  2  0  0  3  0  0  0  0  0  0
  193.4240  176.3560  144.4710 C   0  0  0  0  0  2  0  0  0  0  0  0
  190.6900  177.1250  145.4470 C   0  0  2  0  0  3  0  0  0  0  0  0
  192.1720  175.8650  143.7370 C   0  0  0  0  0  2  0  0  0  0  0  0
  190.9330  176.7450  143.9630 C   0  0  1  0  0  3  0  0  0  0  0  0
  188.4410  173.5890  137.9780 C   0  0  0  0  0  3  0  0  0  0  0  0
  189.6650  172.8510  140.4350 C   0  0  0  0  0  3  0  0  0  0  0  0
  190.2280  170.6100  137.7060 C   0  0  0  0  0  0  0  0  0  0  0  0
  189.4710  171.5490  137.1660 O   0  0  0  0  0  0  0  0  0  0  0  0
  189.2050  172.4320  138.0990 C   0  0  0  0  0  0  0  0  0  0  0  0
  190.4630  170.8990  139.0510 C   0  0  0  0  0  0  0  0  0  0  0  0
  189.7940  172.0770  139.2830 C   0  0  0  0  0  0  0  0  0  0  0  0
  191.2610  170.1150  140.0370 C   0  0  0  0  0  1  0  0  0  0  0  0
  188.8980  174.0320  140.3530 C   0  0  0  0  0  0  0  0  0  0  0  0
  188.2920  174.3920  139.1230 C   0  0  0  0  0  3  0  0  0  0  0  0
  190.7240  169.4490  136.9530 C   0  0  0  0  0  0  0  0  0  0  0  0
  191.3790  169.6040  135.8880 O   0  0  0  0  0  0  0  0  0  0  0  0
  190.4710  168.1670  137.4190 O   0  0  0  0  0  1  0  0  0  0  0  0
  194.6140  175.8940  146.5570 N   0  0  0  0  0  2  0  0  0  0  0  0
  195.4160  175.3970  145.4520 C   0  0  0  0  0  2  0  0  0  0  0  0
  196.1620  174.1540  145.8910 C   0  0  0  0  0  1  0  0  0  0  0  0
  1 11  1  0  0  0  0
  1 18  1  0  0  0  0
  2 13  1  0  0  0  0
  4  6  1  0  0  0  0
  5  1  2  0  0  0  0
  6  8  2  0  0  0  0
  6 11  1  0  0  0  0
  7 12  2  0  0  0  0
  8  7  1  0  0  0  0
  9  4  2  0  0  0  0
  9  5  1  0  0  0  0
 10 12  1  0  0  0  0
 10  3  1  0  0  0  0
 11 10  2  0  0  0  0
 14 13  1  0  0  0  0
 14 32  1  1  0  0  0
 15 14  1  0  0  0  0
 16  3  1  0  0  0  0
 16  2  1  1  0  0  0
 17 15  1  0  0  0  0
 18 17  1  1  0  0  0
 18 16  1  0  0  0  0
 19 23  2  0  0  0  0
 19 28  1  0  0  0  0
 21 24  2  0  0  0  0
 22 21  1  0  0  0  0
 22 23  1  0  0  0  0
 23 25  1  0  0  0  0
 24 25  1  0  0  0  0
 24 26  1  0  0  0  0
 25 20  2  0  0  0  0
 27 20  1  0  0  0  0
 27  9  1  0  0  0  0
 28 27  2  0  0  0  0
 29 31  1  0  0  0  0
 29 21  1  0  0  0  0
 30 29  2  0  0  0  0
 33 34  1  0  0  0  0
 33 32  1  0  0  0  0
M  END
>  <MODEL>
5

>  <REMARK>
 VINA RESULT:      -7.6      4.517      7.746
  Name = 
  4 active torsions:
  status: ('A' for Active; 'I' for Inactive)
    1  A    between atoms: N_3  and  C_13
    2  A    between atoms: N_3  and  C_25
    3  A    between atoms: C_7  and  C_11
    4  A    between atoms: C_18  and  C_30
                            x       y       z     vdW  Elec       q    Type
                         _______ _______ _______ _____ _____    ______ ____

>  <TORSDO>
F 4

$$$$
=
 OpenBabel11052420283D

 34 39  0  0  1  0  0  0  0  0999 V2000
  190.6390  175.7480  143.7510 C   0  0  0  0  0  0  0  0  0  0  0  0
  187.9410  177.6600  144.0290 C   0  0  0  0  0  2  0  0  0  0  0  0
  188.4390  175.7960  145.5410 N   0  0  0  0  0  2  0  0  0  0  0  0
  193.2090  175.8380  144.7360 N   0  0  0  0  0  0  0  0  0  0  0  0
  191.7160  175.7290  142.9170 N   0  0  0  0  0  0  0  0  0  0  0  0
  192.1750  175.8350  145.6150 C   0  0  0  0  0  0  0  0  0  0  0  0
  191.3410  175.8220  147.8880 C   0  0  0  0  0  3  0  0  0  0  0  0
  192.4150  175.8480  146.9910 C   0  0  0  0  0  3  0  0  0  0  0  0
  192.9910  175.7900  143.3930 C   0  0  0  0  0  0  0  0  0  0  0  0
  189.7790  175.7920  146.0360 C   0  0  0  0  0  0  0  0  0  0  0  0
  190.8530  175.7980  145.1350 C   0  0  0  0  0  0  0  0  0  0  0  0
  190.0240  175.7920  147.4120 C   0  0  0  0  0  3  0  0  0  0  0  0
  187.4040  178.1230  142.6660 C   0  0  0  0  0  2  0  0  0  0  0  0
  186.7200  177.0040  141.8750 C   0  0  2  0  0  3  0  0  0  0  0  0
  187.7160  176.0570  141.1810 C   0  0  0  0  0  2  0  0  0  0  0  0
  188.1530  176.1430  144.1510 C   0  0  2  0  0  3  0  0  0  0  0  0
  189.1360  176.0940  141.7550 C   0  0  0  0  0  2  0  0  0  0  0  0
  189.2380  175.5760  143.1980 C   0  0  1  0  0  3  0  0  0  0  0  0
  196.5170  176.1920  142.0220 C   0  0  0  0  0  3  0  0  0  0  0  0
  193.9470  175.3830  141.1170 C   0  0  0  0  0  3  0  0  0  0  0  0
  196.5400  175.2830  138.6570 C   0  0  0  0  0  0  0  0  0  0  0  0
  197.1710  175.7140  139.7360 O   0  0  0  0  0  0  0  0  0  0  0  0
  196.2940  175.7870  140.7090 C   0  0  0  0  0  0  0  0  0  0  0  0
  195.1920  175.0660  138.9470 C   0  0  0  0  0  0  0  0  0  0  0  0
  195.0560  175.3970  140.2740 C   0  0  0  0  0  0  0  0  0  0  0  0
  194.1190  174.5820  138.0320 C   0  0  0  0  0  1  0  0  0  0  0  0
  194.1310  175.7870  142.4560 C   0  0  0  0  0  0  0  0  0  0  0  0
  195.4170  176.1880  142.8980 C   0  0  0  0  0  3  0  0  0  0  0  0
  197.2100  175.0790  137.3650 C   0  0  0  0  0  0  0  0  0  0  0  0
  197.2520  176.0000  136.5080 O   0  0  0  0  0  0  0  0  0  0  0  0
  197.8060  173.8570  137.0850 O   0  0  0  0  0  1  0  0  0  0  0  0
  185.8280  177.5820  140.8860 N   0  0  0  0  0  2  0  0  0  0  0  0
  184.6910  178.1310  141.6050 C   0  0  0  0  0  2  0  0  0  0  0  0
  183.5370  178.3310  140.6450 C   0  0  0  0  0  1  0  0  0  0  0  0
  1 11  1  0  0  0  0
  3 10  1  0  0  0  0
  4  6  1  0  0  0  0
  5  9  1  0  0  0  0
  5  1  2  0  0  0  0
  6  8  1  0  0  0  0
  8  7  2  0  0  0  0
  9  4  2  0  0  0  0
 10 12  2  0  0  0  0
 11  6  2  0  0  0  0
 11 10  1  0  0  0  0
 12  7  1  0  0  0  0
 13  2  1  0  0  0  0
 14 32  1  6  0  0  0
 14 13  1  0  0  0  0
 15 17  1  0  0  0  0
 15 14  1  0  0  0  0
 16  2  1  1  0  0  0
 16  3  1  0  0  0  0
 18 17  1  6  0  0  0
 18  1  1  0  0  0  0
 18 16  1  0  0  0  0
 19 28  1  0  0  0  0
 20 27  1  0  0  0  0
 21 24  2  0  0  0  0
 21 22  1  0  0  0  0
 22 23  1  0  0  0  0
 23 19  2  0  0  0  0
 24 25  1  0  0  0  0
 25 23  1  0  0  0  0
 25 20  2  0  0  0  0
 26 24  1  0  0  0  0
 27 28  2  0  0  0  0
 27  9  1  0  0  0  0
 29 21  1  0  0  0  0
 30 29  2  0  0  0  0
 31 29  1  0  0  0  0
 32 33  1  0  0  0  0
 34 33  1  0  0  0  0
M  END
>  <MODEL>
6

>  <REMARK>
 VINA RESULT:      -7.6      2.752      4.458
  Name = 
  4 active torsions:
  status: ('A' for Active; 'I' for Inactive)
    1  A    between atoms: N_3  and  C_13
    2  A    between atoms: N_3  and  C_25
    3  A    between atoms: C_7  and  C_11
    4  A    between atoms: C_18  and  C_30
                            x       y       z     vdW  Elec       q    Type
                         _______ _______ _______ _____ _____    ______ ____

>  <TORSDO>
F 4

$$$$
=
 OpenBabel11052420283D

 34 39  0  0  1  0  0  0  0  0999 V2000
  187.6600  177.3230  143.7550 C   0  0  0  0  0  0  0  0  0  0  0  0
  187.9730  176.1820  146.8540 C   0  0  0  0  0  2  0  0  0  0  0  0
  187.0690  178.3950  146.3150 N   0  0  0  0  0  2  0  0  0  0  0  0
  185.6970  177.2250  141.8240 N   0  0  0  0  0  0  0  0  0  0  0  0
  187.9110  176.8130  142.5180 N   0  0  0  0  0  0  0  0  0  0  0  0
  185.3970  177.7680  143.0320 C   0  0  0  0  0  0  0  0  0  0  0  0
  183.8320  178.8670  144.5170 C   0  0  0  0  0  3  0  0  0  0  0  0
  184.1240  178.2910  143.2760 C   0  0  0  0  0  3  0  0  0  0  0  0
  186.9440  176.7440  141.5610 C   0  0  0  0  0  0  0  0  0  0  0  0
  186.0780  178.3810  145.2860 C   0  0  0  0  0  0  0  0  0  0  0  0
  186.3800  177.8210  144.0360 C   0  0  0  0  0  0  0  0  0  0  0  0
  184.8070  178.9150  145.5210 C   0  0  0  0  0  3  0  0  0  0  0  0
  189.2110  175.2890  147.0310 C   0  0  0  0  0  2  0  0  0  0  0  0
  190.5270  176.0720  147.0210 C   0  0  2  0  0  3  0  0  0  0  0  0
  190.9880  176.4620  145.6040 C   0  0  0  0  0  2  0  0  0  0  0  0
  188.2580  177.5530  146.2220 C   0  0  2  0  0  3  0  0  0  0  0  0
  189.8830  176.4320  144.5440 C   0  0  0  0  0  2  0  0  0  0  0  0
  188.7810  177.4800  144.7620 C   0  0  1  0  0  3  0  0  0  0  0  0
  186.9700  176.1980  137.7960 C   0  0  0  0  0  3  0  0  0  0  0  0
  188.1040  175.0470  140.1350 C   0  0  0  0  0  3  0  0  0  0  0  0
  189.0030  173.4660  137.0560 C   0  0  0  0  0  0  0  0  0  0  0  0
  188.2060  174.4450  136.6640 O   0  0  0  0  0  0  0  0  0  0  0  0
  187.8160  175.0940  137.7350 C   0  0  0  0  0  0  0  0  0  0  0  0
  189.1340  173.4830  138.4460 C   0  0  0  0  0  0  0  0  0  0  0  0
  188.3610  174.5410  138.8620 C   0  0  0  0  0  0  0  0  0  0  0  0
  189.9330  172.5660  139.3080 C   0  0  0  0  0  1  0  0  0  0  0  0
  187.2500  176.1660  140.2380 C   0  0  0  0  0  0  0  0  0  0  0  0
  186.6910  176.7330  139.0660 C   0  0  0  0  0  3  0  0  0  0  0  0
  189.6330  172.5230  136.1220 C   0  0  0  0  0  0  0  0  0  0  0  0
  189.1910  171.3510  135.9920 O   0  0  0  0  0  1  0  0  0  0  0  0
  190.7280  172.9280  135.3710 O   0  0  0  0  0  0  0  0  0  0  0  0
  191.5640  175.2910  147.6730 N   0  0  0  0  0  2  0  0  0  0  0  0
  192.7760  175.4510  146.8880 C   0  0  0  0  0  2  0  0  0  0  0  0
  193.0670  174.1650  146.1430 C   0  0  0  0  0  1  0  0  0  0  0  0
  1 11  1  0  0  0  0
  1 18  1  0  0  0  0
  2 13  1  0  0  0  0
  4  6  1  0  0  0  0
  5  1  2  0  0  0  0
  6  8  2  0  0  0  0
  6 11  1  0  0  0  0
  7 12  2  0  0  0  0
  8  7  1  0  0  0  0
  9  4  2  0  0  0  0
  9  5  1  0  0  0  0
 10 12  1  0  0  0  0
 10  3  1  0  0  0  0
 11 10  2  0  0  0  0
 14 13  1  0  0  0  0
 14 32  1  6  0  0  0
 15 14  1  0  0  0  0
 16  3  1  0  0  0  0
 16  2  1  6  0  0  0
 17 15  1  0  0  0  0
 18 17  1  1  0  0  0
 18 16  1  0  0  0  0
 19 28  1  0  0  0  0
 20 27  1  0  0  0  0
 21 24  2  0  0  0  0
 22 21  1  0  0  0  0
 22 23  1  0  0  0  0
 23 19  2  0  0  0  0
 23 25  1  0  0  0  0
 24 25  1  0  0  0  0
 24 26  1  0  0  0  0
 25 20  2  0  0  0  0
 27  9  1  0  0  0  0
 28 27  2  0  0  0  0
 29 21  1  0  0  0  0
 30 29  1  0  0  0  0
 31 29  2  0  0  0  0
 33 32  1  0  0  0  0
 34 33  1  0  0  0  0
M  END
>  <MODEL>
7

>  <REMARK>
 VINA RESULT:      -7.5      3.954      7.532
  Name = 
  4 active torsions:
  status: ('A' for Active; 'I' for Inactive)
    1  A    between atoms: N_3  and  C_13
    2  A    between atoms: N_3  and  C_25
    3  A    between atoms: C_7  and  C_11
    4  A    between atoms: C_18  and  C_30
                            x       y       z     vdW  Elec       q    Type
                         _______ _______ _______ _____ _____    ______ ____

>  <TORSDO>
F 4

$$$$
=
 OpenBabel11052420283D

 34 39  0  0  1  0  0  0  0  0999 V2000
  192.4190  174.6900  143.0470 C   0  0  0  0  0  0  0  0  0  0  0  0
  193.5770  171.8780  141.7200 C   0  0  0  0  0  2  0  0  0  0  0  0
  194.9920  173.8110  142.2390 N   0  0  0  0  0  2  0  0  0  0  0  0
  192.0330  175.6300  145.6070 N   0  0  0  0  0  0  0  0  0  0  0  0
  191.1950  175.1170  143.4650 N   0  0  0  0  0  0  0  0  0  0  0  0
  193.2790  175.2420  145.2370 C   0  0  0  0  0  0  0  0  0  0  0  0
  195.6330  174.9610  145.7320 C   0  0  0  0  0  3  0  0  0  0  0  0
  194.3480  175.3450  146.1310 C   0  0  0  0  0  3  0  0  0  0  0  0
  190.9890  175.5680  144.7340 C   0  0  0  0  0  0  0  0  0  0  0  0
  194.7840  174.3470  143.5460 C   0  0  0  0  0  0  0  0  0  0  0  0
  193.4990  174.7500  143.9370 C   0  0  0  0  0  0  0  0  0  0  0  0
  195.8530  174.4650  144.4410 C   0  0  0  0  0  3  0  0  0  0  0  0
  192.5720  171.2210  140.7620 C   0  0  0  0  0  2  0  0  0  0  0  0
  192.4240  171.9690  139.4350 C   0  0  2  0  0  3  0  0  0  0  0  0
  191.5330  173.2200  139.5400 C   0  0  0  0  0  2  0  0  0  0  0  0
  193.8660  173.3590  141.4260 C   0  0  2  0  0  3  0  0  0  0  0  0
  191.3480  173.7520  140.9650 C   0  0  0  0  0  2  0  0  0  0  0  0
  192.6380  174.2910  141.6010 C   0  0  1  0  0  3  0  0  0  0  0  0
  187.8700  176.0540  146.8570 C   0  0  0  0  0  3  0  0  0  0  0  0
  188.8450  176.7770  144.2870 C   0  0  0  0  0  3  0  0  0  0  0  0
  185.5610  177.9560  145.0690 C   0  0  0  0  0  0  0  0  0  0  0  0
  185.9050  177.2940  146.1600 O   0  0  0  0  0  0  0  0  0  0  0  0
  187.1120  176.8150  145.9710 C   0  0  0  0  0  0  0  0  0  0  0  0
  186.5930  177.9030  144.1310 C   0  0  0  0  0  0  0  0  0  0  0  0
  187.5830  177.1620  144.7340 C   0  0  0  0  0  0  0  0  0  0  0  0
  186.6350  178.5090  142.7700 C   0  0  0  0  0  1  0  0  0  0  0  0
  189.6440  176.0040  145.1560 C   0  0  0  0  0  0  0  0  0  0  0  0
  189.1490  175.6490  146.4350 C   0  0  0  0  0  3  0  0  0  0  0  0
  184.2650  178.6330  144.9180 C   0  0  0  0  0  0  0  0  0  0  0  0
  183.6100  179.0030  145.9280 O   0  0  0  0  0  1  0  0  0  0  0  0
  183.7560  178.8690  143.6480 O   0  0  0  0  0  0  0  0  0  0  0  0
  191.8870  171.0720  138.4260 N   0  0  0  0  0  2  0  0  0  0  0  0
  190.7130  170.4380  139.0010 C   0  0  0  0  0  2  0  0  0  0  0  0
  189.8070  169.9540  137.8880 C   0  0  0  0  0  1  0  0  0  0  0  0
  1  5  2  0  0  0  0
  1 11  1  0  0  0  0
  3 10  1  0  0  0  0
  5  9  1  0  0  0  0
  6  4  1  0  0  0  0
  6  8  1  0  0  0  0
  7  8  2  0  0  0  0
  9 27  1  0  0  0  0
  9  4  2  0  0  0  0
 10 11  1  0  0  0  0
 10 12  2  0  0  0  0
 11  6  2  0  0  0  0
 12  7  1  0  0  0  0
 13  2  1  0  0  0  0
 14 32  1  6  0  0  0
 14 15  1  0  0  0  0
 14 13  1  0  0  0  0
 15 17  1  0  0  0  0
 16 18  1  0  0  0  0
 16  2  1  1  0  0  0
 16  3  1  0  0  0  0
 18 17  1  1  0  0  0
 18  1  1  0  0  0  0
 20 25  2  0  0  0  0
 20 27  1  0  0  0  0
 21 22  1  0  0  0  0
 23 22  1  0  0  0  0
 23 19  2  0  0  0  0
 24 25  1  0  0  0  0
 24 21  2  0  0  0  0
 25 23  1  0  0  0  0
 26 24  1  0  0  0  0
 27 28  2  0  0  0  0
 28 19  1  0  0  0  0
 29 21  1  0  0  0  0
 29 30  1  0  0  0  0
 31 29  2  0  0  0  0
 32 33  1  0  0  0  0
 34 33  1  0  0  0  0
M  END
>  <MODEL>
8

>  <REMARK>
 VINA RESULT:      -7.5      4.731      8.159
  Name = 
  4 active torsions:
  status: ('A' for Active; 'I' for Inactive)
    1  A    between atoms: N_3  and  C_13
    2  A    between atoms: N_3  and  C_25
    3  A    between atoms: C_7  and  C_11
    4  A    between atoms: C_18  and  C_30
                            x       y       z     vdW  Elec       q    Type
                         _______ _______ _______ _____ _____    ______ ____

>  <TORSDO>
F 4

$$$$
=
 OpenBabel11052420283D

 34 39  0  0  1  0  0  0  0  0999 V2000
  190.6420  173.8950  141.1800 C   0  0  0  0  0  0  0  0  0  0  0  0
  193.7890  174.1640  140.1650 C   0  0  0  0  0  2  0  0  0  0  0  0
  192.3700  172.2280  139.6690 N   0  0  0  0  0  2  0  0  0  0  0  0
  188.1890  174.6130  140.1550 N   0  0  0  0  0  0  0  0  0  0  0  0
  189.7910  174.6950  141.8810 N   0  0  0  0  0  0  0  0  0  0  0  0
  188.9850  173.7930  139.4240 C   0  0  0  0  0  0  0  0  0  0  0  0
  189.3740  172.4400  137.4540 C   0  0  0  0  0  3  0  0  0  0  0  0
  188.5530  173.3020  138.1890 C   0  0  0  0  0  3  0  0  0  0  0  0
  188.5820  175.0710  141.3760 C   0  0  0  0  0  0  0  0  0  0  0  0
  191.0750  172.5710  139.1750 C   0  0  0  0  0  0  0  0  0  0  0  0
  190.2460  173.4190  139.9230 C   0  0  0  0  0  0  0  0  0  0  0  0
  190.6320  172.0720  137.9460 C   0  0  0  0  0  3  0  0  0  0  0  0
  194.6750  174.9030  141.1800 C   0  0  0  0  0  2  0  0  0  0  0  0
  194.9850  174.0720  142.4280 C   0  0  2  0  0  3  0  0  0  0  0  0
  193.8240  174.0390  143.4380 C   0  0  0  0  0  2  0  0  0  0  0  0
  192.9860  172.9920  140.7510 C   0  0  2  0  0  3  0  0  0  0  0  0
  192.4580  174.4130  142.8510 C   0  0  0  0  0  2  0  0  0  0  0  0
  191.9330  173.4120  141.8100 C   0  0  1  0  0  3  0  0  0  0  0  0
  185.9050  177.6370  142.2220 C   0  0  0  0  0  3  0  0  0  0  0  0
  187.7790  175.9760  143.5650 C   0  0  0  0  0  3  0  0  0  0  0  0
  185.7500  178.0220  145.6820 C   0  0  0  0  0  0  0  0  0  0  0  0
  185.3250  178.3360  144.4700 O   0  0  0  0  0  0  0  0  0  0  0  0
  186.0170  177.6290  143.6090 C   0  0  0  0  0  0  0  0  0  0  0  0
  186.7650  177.0670  145.6000 C   0  0  0  0  0  0  0  0  0  0  0  0
  186.9200  176.8290  144.2550 C   0  0  0  0  0  0  0  0  0  0  0  0
  187.5250  176.4320  146.7140 C   0  0  0  0  0  1  0  0  0  0  0  0
  187.6970  175.9550  142.1570 C   0  0  0  0  0  0  0  0  0  0  0  0
  186.7590  176.7870  141.4960 C   0  0  0  0  0  3  0  0  0  0  0  0
  185.1990  178.6230  146.9050 C   0  0  0  0  0  0  0  0  0  0  0  0
  184.0600  178.2920  147.3280 O   0  0  0  0  0  0  0  0  0  0  0  0
  185.9420  179.5650  147.6040 O   0  0  0  0  0  1  0  0  0  0  0  0
  196.1780  174.5900  143.0750 N   0  0  0  0  0  2  0  0  0  0  0  0
  195.9280  175.9900  143.3740 C   0  0  0  0  0  2  0  0  0  0  0  0
  197.1930  176.7890  143.1380 C   0  0  0  0  0  1  0  0  0  0  0  0
  1 18  1  0  0  0  0
  1  5  2  0  0  0  0
  2 13  1  0  0  0  0
  3 16  1  0  0  0  0
  4  9  2  0  0  0  0
  6 11  1  0  0  0  0
  6  4  1  0  0  0  0
  7 12  2  0  0  0  0
  7  8  1  0  0  0  0
  8  6  2  0  0  0  0
  9  5  1  0  0  0  0
  9 27  1  0  0  0  0
 10  3  1  0  0  0  0
 10 11  2  0  0  0  0
 11  1  1  0  0  0  0
 12 10  1  0  0  0  0
 13 14  1  0  0  0  0
 14 32  1  1  0  0  0
 14 15  1  0  0  0  0
 16  2  1  6  0  0  0
 16 18  1  0  0  0  0
 17 15  1  0  0  0  0
 18 17  1  6  0  0  0
 19 23  1  0  0  0  0
 20 25  1  0  0  0  0
 21 29  1  0  0  0  0
 22 21  1  0  0  0  0
 23 25  2  0  0  0  0
 23 22  1  0  0  0  0
 24 21  2  0  0  0  0
 24 26  1  0  0  0  0
 25 24  1  0  0  0  0
 27 20  2  0  0  0  0
 28 27  1  0  0  0  0
 28 19  2  0  0  0  0
 29 30  2  0  0  0  0
 29 31  1  0  0  0  0
 32 33  1  0  0  0  0
 34 33  1  0  0  0  0
M  END
>  <MODEL>
9

>  <REMARK>
 VINA RESULT:      -7.5      4.402      9.077
  Name = 
  4 active torsions:
  status: ('A' for Active; 'I' for Inactive)
    1  A    between atoms: N_3  and  C_13
    2  A    between atoms: N_3  and  C_25
    3  A    between atoms: C_7  and  C_11
    4  A    between atoms: C_18  and  C_30
                            x       y       z     vdW  Elec       q    Type
                         _______ _______ _______ _____ _____    ______ ____

>  <TORSDO>
F 4

$$$$
