=
 OpenBabel11052417463D

 31 36  0  0  1  0  0  0  0  0999 V2000
  186.2010  177.7660  147.1430 C   0  0  0  0  0  0  0  0  0  0  0  0
  189.1210  177.6680  144.7870 C   0  0  2  0  0  3  0  0  0  0  0  0
  190.2160  176.8900  145.5470 C   0  0  2  0  0  3  0  0  0  0  0  0
  190.8160  176.0170  147.8120 C   0  0  0  0  0  3  0  0  0  0  0  0
  187.7360  177.4540  145.3500 C   0  0  0  0  0  0  0  0  0  0  0  0
  185.2120  177.0610  146.4530 C   0  0  0  0  0  3  0  0  0  0  0  0
  190.1970  177.1440  147.0420 C   0  0  0  0  0  2  0  0  0  0  0  0
  188.4360  176.1270  142.9420 N   0  0  0  0  0  0  0  0  0  0  0  0
  185.9260  178.2930  148.4350 N   0  0  0  0  0  1  0  0  0  0  0  0
  191.6520  177.9320  143.6850 C   0  0  0  0  0  2  0  0  0  0  0  0
  191.8880  175.2910  147.4680 C   0  0  0  0  0  3  0  0  0  0  0  0
  187.0100  176.3220  143.2160 C   0  0  0  0  0  2  0  0  0  0  0  0
  189.1950  177.3560  143.2630 C   0  0  2  0  0  3  0  0  0  0  0  0
  187.4250  177.9490  146.5790 N   0  0  0  0  0  0  0  0  0  0  0  0
  192.7090  175.3570  146.2350 C   0  0  0  0  0  3  0  0  0  0  0  0
  186.7640  176.7430  144.6280 C   0  0  0  0  0  0  0  0  0  0  0  0
  185.4970  176.5580  145.1840 C   0  0  0  0  0  3  0  0  0  0  0  0
  190.6540  177.2430  142.7630 C   0  0  0  0  0  2  0  0  0  0  0  0
  191.6130  177.3140  145.0860 C   0  0  2  0  0  3  0  0  0  0  0  0
  192.5930  176.1920  145.1970 C   0  0  0  0  0  3  0  0  0  0  0  0
  188.5720  175.7430  141.5260 C   0  0  0  0  0  2  0  0  0  0  0  0
  192.0950  172.5800  143.4890 C   0  0  0  0  0  0  0  0  0  0  0  0
  191.3840  174.1210  141.5650 C   0  0  0  0  0  2  0  0  0  0  0  0
  188.4620  172.2910  142.6130 C   0  0  0  0  0  2  0  0  0  0  0  0
  187.8380  173.3440  141.7120 C   0  0  0  0  0  2  0  0  0  0  0  0
  193.0610  172.1150  144.5220 C   0  0  0  0  0  1  0  0  0  0  0  0
  188.9860  174.2810  141.3200 C   0  0  2  0  0  3  0  0  0  0  0  0
  192.4970  173.7200  142.5590 C   0  0  0  0  0  2  0  0  0  0  0  0
  189.9290  172.5240  142.3930 C   0  0  1  0  0  3  0  0  0  0  0  0
  190.0860  173.9510  142.2090 N   0  0  1  0  0  0  0  0  0  0  0  0
  190.8580  172.0500  143.4630 C   0  0  0  0  0  3  0  0  0  0  0  0
  1  9  1  0  0  0  0
  2  5  1  1  0  0  0
  2  3  1  0  0  0  0
  3  7  1  1  0  0  0
  5 14  2  0  0  0  0
  6  1  2  0  0  0  0
  7  4  1  0  0  0  0
  8 12  1  0  0  0  0
  8 13  1  0  0  0  0
 11  4  2  0  0  0  0
 12 16  1  0  0  0  0
 13 18  1  1  0  0  0
 13  2  1  0  0  0  0
 14  1  1  0  0  0  0
 15 11  1  0  0  0  0
 16 17  2  0  0  0  0
 16  5  1  0  0  0  0
 17  6  1  0  0  0  0
 18 10  1  0  0  0  0
 19 10  1  6  0  0  0
 19 20  1  0  0  0  0
 19  3  1  0  0  0  0
 20 15  2  0  0  0  0
 21  8  1  0  0  0  0
 22 26  1  0  0  0  0
 23 28  1  0  0  0  0
 25 24  1  0  0  0  0
 27 21  1  1  0  0  0
 27 25  1  0  0  0  0
 27 30  1  0  0  0  0
 28 22  1  0  0  0  0
 29 24  1  1  0  0  0
 29 31  1  0  0  0  0
 30 23  1  6  0  0  0
 30 29  1  0  0  0  0
 31 22  2  0  0  0  0
M  END
>  <MODEL>
1

>  <REMARK>
 VINA RESULT:      -8.4      0.000      0.000
  Name = 
  2 active torsions:
  status: ('A' for Active; 'I' for Inactive)
    1  A    between atoms: C_9  and  C_23
    2  A    between atoms: N_15  and  C_23
                            x       y       z     vdW  Elec       q    Type
                         _______ _______ _______ _____ _____    ______ ____

>  <TORSDO>
F 2

$$$$
=
 OpenBabel11052417463D

 31 36  0  0  1  0  0  0  0  0999 V2000
  191.4280  171.2620  142.7120 C   0  0  0  0  0  0  0  0  0  0  0  0
  190.9070  174.2370  144.9420 C   0  0  2  0  0  3  0  0  0  0  0  0
  192.3280  174.6670  145.3650 C   0  0  2  0  0  3  0  0  0  0  0  0
  194.7100  173.9080  145.3640 C   0  0  0  0  0  3  0  0  0  0  0  0
  190.8890  173.3520  143.7170 C   0  0  0  0  0  0  0  0  0  0  0  0
  190.9170  171.6910  141.4860 C   0  0  0  0  0  3  0  0  0  0  0  0
  193.2790  173.4970  145.5310 C   0  0  0  0  0  2  0  0  0  0  0  0
  190.1280  176.0700  143.4330 N   0  0  0  0  0  0  0  0  0  0  0  0
  191.9770  169.9560  142.8350 N   0  0  0  0  0  1  0  0  0  0  0  0
  190.9550  175.9740  147.1020 C   0  0  0  0  0  2  0  0  0  0  0  0
  195.2820  175.0470  145.7770 C   0  0  0  0  0  3  0  0  0  0  0  0
  189.6570  175.1270  142.4160 C   0  0  0  0  0  2  0  0  0  0  0  0
  189.9880  175.4830  144.7840 C   0  0  2  0  0  3  0  0  0  0  0  0
  191.3970  172.0910  143.7900 N   0  0  0  0  0  0  0  0  0  0  0  0
  194.6650  176.2160  146.4490 C   0  0  0  0  0  3  0  0  0  0  0  0
  190.3650  173.8140  142.5000 C   0  0  0  0  0  0  0  0  0  0  0  0
  190.3740  172.9720  141.3870 C   0  0  0  0  0  3  0  0  0  0  0  0
  190.2610  176.5480  145.8730 C   0  0  0  0  0  2  0  0  0  0  0  0
  192.3080  175.3650  146.7270 C   0  0  2  0  0  3  0  0  0  0  0  0
  193.3960  176.3830  146.8380 C   0  0  0  0  0  3  0  0  0  0  0  0
  189.3530  177.3150  143.2840 C   0  0  0  0  0  2  0  0  0  0  0  0
  184.7480  178.0220  145.4200 C   0  0  0  0  0  0  0  0  0  0  0  0
  186.6430  176.3990  144.8190 C   0  0  0  0  0  2  0  0  0  0  0  0
  186.2280  178.6490  142.0340 C   0  0  0  0  0  2  0  0  0  0  0  0
  187.5400  177.9740  141.6700 C   0  0  0  0  0  2  0  0  0  0  0  0
  183.7890  178.6360  146.3790 C   0  0  0  0  0  1  0  0  0  0  0  0
  187.8940  177.0890  142.8700 C   0  0  2  0  0  3  0  0  0  0  0  0
  185.6770  176.9150  145.9090 C   0  0  0  0  0  2  0  0  0  0  0  0
  185.7970  177.8590  143.2350 C   0  0  1  0  0  3  0  0  0  0  0  0
  187.0080  177.5080  143.9430 N   0  0  1  0  0  0  0  0  0  0  0  0
  184.8410  178.5210  144.1740 C   0  0  0  0  0  3  0  0  0  0  0  0
  1  9  1  0  0  0  0
  1 14  1  0  0  0  0
  2  5  1  6  0  0  0
  2  3  1  0  0  0  0
  3  7  1  1  0  0  0
  3 19  1  0  0  0  0
  4  7  1  0  0  0  0
  4 11  2  0  0  0  0
  5 14  2  0  0  0  0
  6  1  2  0  0  0  0
  8 13  1  0  0  0  0
 11 15  1  0  0  0  0
 12 16  1  0  0  0  0
 12  8  1  0  0  0  0
 13  2  1  0  0  0  0
 13 18  1  1  0  0  0
 15 20  2  0  0  0  0
 16  5  1  0  0  0  0
 17  6  1  0  0  0  0
 17 16  2  0  0  0  0
 18 10  1  0  0  0  0
 19 20  1  6  0  0  0
 19 10  1  0  0  0  0
 21  8  1  0  0  0  0
 22 28  1  0  0  0  0
 22 26  1  0  0  0  0
 23 28  1  0  0  0  0
 25 24  1  0  0  0  0
 25 27  1  0  0  0  0
 27 21  1  1  0  0  0
 27 30  1  0  0  0  0
 29 24  1  6  0  0  0
 29 30  1  0  0  0  0
 29 31  1  0  0  0  0
 30 23  1  1  0  0  0
 31 22  2  0  0  0  0
M  END
>  <MODEL>
2

>  <REMARK>
 VINA RESULT:      -8.3      1.903      6.188
  Name = 
  2 active torsions:
  status: ('A' for Active; 'I' for Inactive)
    1  A    between atoms: C_9  and  C_23
    2  A    between atoms: N_15  and  C_23
                            x       y       z     vdW  Elec       q    Type
                         _______ _______ _______ _____ _____    ______ ____

>  <TORSDO>
F 2

$$$$
=
 OpenBabel11052417463D

 31 36  0  0  1  0  0  0  0  0999 V2000
  186.2520  177.9700  147.3490 C   0  0  0  0  0  0  0  0  0  0  0  0
  188.9420  177.6070  144.7560 C   0  0  2  0  0  3  0  0  0  0  0  0
  190.0400  176.7670  145.4420 C   0  0  2  0  0  3  0  0  0  0  0  0
  190.7700  175.9010  147.6700 C   0  0  0  0  0  3  0  0  0  0  0  0
  187.5980  177.5080  145.4400 C   0  0  0  0  0  0  0  0  0  0  0  0
  185.1590  177.3260  146.7650 C   0  0  0  0  0  3  0  0  0  0  0  0
  190.1690  177.0530  146.9260 C   0  0  0  0  0  2  0  0  0  0  0  0
  187.9900  176.0830  143.0200 N   0  0  0  0  0  0  0  0  0  0  0  0
  186.1290  178.5440  148.6440 N   0  0  0  0  0  1  0  0  0  0  0  0
  191.3800  177.6600  143.4370 C   0  0  0  0  0  2  0  0  0  0  0  0
  191.7540  175.0900  147.2570 C   0  0  0  0  0  3  0  0  0  0  0  0
  186.6120  176.3880  143.4080 C   0  0  0  0  0  2  0  0  0  0  0  0
  188.8600  177.2590  143.2410 C   0  0  2  0  0  3  0  0  0  0  0  0
  187.4320  178.0510  146.6780 N   0  0  0  0  0  0  0  0  0  0  0  0
  192.4670  175.0690  145.9570 C   0  0  0  0  0  3  0  0  0  0  0  0
  186.5190  176.8560  144.8240 C   0  0  0  0  0  0  0  0  0  0  0  0
  185.2960  176.7760  145.4900 C   0  0  0  0  0  3  0  0  0  0  0  0
  190.2590  177.0280  142.6220 C   0  0  0  0  0  2  0  0  0  0  0  0
  191.4190  177.0780  144.8520 C   0  0  2  0  0  3  0  0  0  0  0  0
  192.3210  175.8890  144.9110 C   0  0  0  0  0  3  0  0  0  0  0  0
  187.9750  175.6590  141.6080 C   0  0  0  0  0  2  0  0  0  0  0  0
  191.0710  173.0290  138.4820 C   0  0  0  0  0  0  0  0  0  0  0  0
  188.6900  173.8070  139.0390 C   0  0  0  0  0  2  0  0  0  0  0  0
  190.2880  172.9260  142.1470 C   0  0  0  0  0  2  0  0  0  0  0  0
  189.0400  173.6330  142.6510 C   0  0  0  0  0  2  0  0  0  0  0  0
  192.2240  172.8640  137.5560 C   0  0  0  0  0  1  0  0  0  0  0  0
  188.3480  174.1860  141.4010 C   0  0  2  0  0  3  0  0  0  0  0  0
  189.7870  173.6650  137.9600 C   0  0  0  0  0  2  0  0  0  0  0  0
  190.0280  172.8570  140.6700 C   0  0  1  0  0  3  0  0  0  0  0  0
  189.3210  174.0720  140.3280 N   0  0  1  0  0  0  0  0  0  0  0  0
  191.2190  172.7020  139.7800 C   0  0  0  0  0  3  0  0  0  0  0  0
  1  9  1  0  0  0  0
  2  5  1  1  0  0  0
  2  3  1  0  0  0  0
  3  7  1  1  0  0  0
  5 14  1  0  0  0  0
  6  1  1  0  0  0  0
  7  4  1  0  0  0  0
  8 13  1  0  0  0  0
  8 12  1  0  0  0  0
 11  4  2  0  0  0  0
 12 16  1  0  0  0  0
 13 18  1  1  0  0  0
 13  2  1  0  0  0  0
 14  1  2  0  0  0  0
 15 11  1  0  0  0  0
 16  5  2  0  0  0  0
 16 17  1  0  0  0  0
 17  6  2  0  0  0  0
 18 10  1  0  0  0  0
 19 10  1  6  0  0  0
 19 20  1  0  0  0  0
 19  3  1  0  0  0  0
 20 15  2  0  0  0  0
 21  8  1  0  0  0  0
 22 31  2  0  0  0  0
 24 25  1  0  0  0  0
 26 22  1  0  0  0  0
 27 21  1  1  0  0  0
 27 25  1  0  0  0  0
 28 22  1  0  0  0  0
 28 23  1  0  0  0  0
 29 31  1  6  0  0  0
 29 24  1  0  0  0  0
 30 23  1  6  0  0  0
 30 29  1  0  0  0  0
 30 27  1  0  0  0  0
M  END
>  <MODEL>
3

>  <REMARK>
 VINA RESULT:      -8.1      1.451      2.195
  Name = 
  2 active torsions:
  status: ('A' for Active; 'I' for Inactive)
    1  A    between atoms: C_9  and  C_23
    2  A    between atoms: N_15  and  C_23
                            x       y       z     vdW  Elec       q    Type
                         _______ _______ _______ _____ _____    ______ ____

>  <TORSDO>
F 2

$$$$
=
 OpenBabel11052417463D

 31 36  0  0  1  0  0  0  0  0999 V2000
  192.1020  171.0200  143.6430 C   0  0  0  0  0  0  0  0  0  0  0  0
  192.7150  174.5650  144.7150 C   0  0  2  0  0  3  0  0  0  0  0  0
  194.1280  174.8970  144.1900 C   0  0  2  0  0  3  0  0  0  0  0  0
  196.1820  173.8460  143.2270 C   0  0  0  0  0  3  0  0  0  0  0  0
  192.0910  173.3680  144.0350 C   0  0  0  0  0  0  0  0  0  0  0  0
  191.0070  171.1330  142.7840 C   0  0  0  0  0  3  0  0  0  0  0  0
  195.0690  173.7080  144.2210 C   0  0  0  0  0  2  0  0  0  0  0  0
  191.1890  175.9580  143.3100 N   0  0  0  0  0  0  0  0  0  0  0  0
  192.6840  169.7460  143.8870 N   0  0  0  0  0  1  0  0  0  0  0  0
  193.8230  176.8410  145.8460 C   0  0  0  0  0  2  0  0  0  0  0  0
  196.8410  174.9640  142.8950 C   0  0  0  0  0  3  0  0  0  0  0  0
  190.2910  174.8310  143.0450 C   0  0  0  0  0  2  0  0  0  0  0  0
  191.8020  175.8240  144.6490 C   0  0  2  0  0  3  0  0  0  0  0  0
  192.6090  172.1270  144.2470 N   0  0  0  0  0  0  0  0  0  0  0  0
  196.6240  176.3540  143.3630 C   0  0  0  0  0  3  0  0  0  0  0  0
  190.9880  173.5170  143.1800 C   0  0  0  0  0  0  0  0  0  0  0  0
  190.4430  172.3900  142.5630 C   0  0  0  0  0  3  0  0  0  0  0  0
  192.5650  177.1150  145.0320 C   0  0  0  0  0  2  0  0  0  0  0  0
  194.8000  175.9630  145.0590 C   0  0  2  0  0  3  0  0  0  0  0  0
  195.7440  176.8050  144.2630 C   0  0  0  0  0  3  0  0  0  0  0  0
  190.4040  177.1980  143.1780 C   0  0  0  0  0  2  0  0  0  0  0  0
  186.3140  178.2890  146.0680 C   0  0  0  0  0  0  0  0  0  0  0  0
  188.0460  176.5530  145.3140 C   0  0  0  0  0  2  0  0  0  0  0  0
  187.0990  178.4590  142.4070 C   0  0  0  0  0  2  0  0  0  0  0  0
  188.3100  177.7080  141.8800 C   0  0  0  0  0  2  0  0  0  0  0  0
  185.5650  179.0410  147.1110 C   0  0  0  0  0  1  0  0  0  0  0  0
  188.8910  176.9650  143.0890 C   0  0  2  0  0  3  0  0  0  0  0  0
  187.3170  177.2240  146.4990 C   0  0  0  0  0  2  0  0  0  0  0  0
  186.9100  177.8330  143.7580 C   0  0  1  0  0  3  0  0  0  0  0  0
  188.2360  177.5360  144.2530 N   0  0  1  0  0  0  0  0  0  0  0  0
  186.1610  178.6310  144.7750 C   0  0  0  0  0  3  0  0  0  0  0  0
  1  9  1  0  0  0  0
  1 14  1  0  0  0  0
  2  5  1  6  0  0  0
  3  7  1  1  0  0  0
  3  2  1  0  0  0  0
  3 19  1  0  0  0  0
  4  7  1  0  0  0  0
  5 14  2  0  0  0  0
  6  1  2  0  0  0  0
  8 13  1  0  0  0  0
 11  4  2  0  0  0  0
 11 15  1  0  0  0  0
 12 16  1  0  0  0  0
 12  8  1  0  0  0  0
 13  2  1  0  0  0  0
 13 18  1  6  0  0  0
 15 20  2  0  0  0  0
 16  5  1  0  0  0  0
 17  6  1  0  0  0  0
 17 16  2  0  0  0  0
 18 10  1  0  0  0  0
 19 20  1  6  0  0  0
 19 10  1  0  0  0  0
 21  8  1  0  0  0  0
 22 28  1  0  0  0  0
 22 26  1  0  0  0  0
 23 28  1  0  0  0  0
 25 24  1  0  0  0  0
 25 27  1  0  0  0  0
 27 21  1  1  0  0  0
 27 30  1  0  0  0  0
 29 24  1  6  0  0  0
 29 30  1  0  0  0  0
 29 31  1  0  0  0  0
 30 23  1  1  0  0  0
 31 22  2  0  0  0  0
M  END
>  <MODEL>
4

>  <REMARK>
 VINA RESULT:      -7.5      2.356      6.367
  Name = 
  2 active torsions:
  status: ('A' for Active; 'I' for Inactive)
    1  A    between atoms: C_9  and  C_23
    2  A    between atoms: N_15  and  C_23
                            x       y       z     vdW  Elec       q    Type
                         _______ _______ _______ _____ _____    ______ ____

>  <TORSDO>
F 2

$$$$
=
 OpenBabel11052417463D

 31 36  0  0  1  0  0  0  0  0999 V2000
  185.7010  177.7580  147.0290 C   0  0  0  0  0  0  0  0  0  0  0  0
  187.5950  176.0010  144.3070 C   0  0  2  0  0  3  0  0  0  0  0  0
  187.0910  176.6440  142.9970 C   0  0  2  0  0  3  0  0  0  0  0  0
  185.2990  178.1250  142.0790 C   0  0  0  0  0  3  0  0  0  0  0  0
  187.3060  176.8360  145.5320 C   0  0  0  0  0  0  0  0  0  0  0  0
  186.7080  178.3900  147.7600 C   0  0  0  0  0  3  0  0  0  0  0  0
  185.6260  177.0320  143.0500 C   0  0  0  0  0  2  0  0  0  0  0  0
  189.9540  176.7970  144.5180 N   0  0  0  0  0  0  0  0  0  0  0  0
  184.3410  177.9060  147.4190 N   0  0  0  0  0  1  0  0  0  0  0  0
  188.2400  174.5570  142.0290 C   0  0  0  0  0  2  0  0  0  0  0  0
  185.7870  178.2860  140.8410 C   0  0  0  0  0  3  0  0  0  0  0  0
  189.7740  177.1750  145.9220 C   0  0  0  0  0  2  0  0  0  0  0  0
  189.1030  175.6340  144.1840 C   0  0  2  0  0  3  0  0  0  0  0  0
  186.0190  176.9980  145.9470 N   0  0  0  0  0  0  0  0  0  0  0  0
  186.8050  177.4820  140.1240 C   0  0  0  0  0  3  0  0  0  0  0  0
  188.3430  177.4550  146.2460 C   0  0  0  0  0  0  0  0  0  0  0  0
  188.0370  178.2260  147.3690 C   0  0  0  0  0  3  0  0  0  0  0  0
  189.4560  175.0840  142.7810 C   0  0  0  0  0  2  0  0  0  0  0  0
  187.2040  175.6650  141.8250 C   0  0  2  0  0  3  0  0  0  0  0  0
  187.4400  176.3790  140.5340 C   0  0  0  0  0  3  0  0  0  0  0  0
  191.3860  176.5170  144.3100 C   0  0  0  0  0  2  0  0  0  0  0  0
  194.0050  172.1350  144.7690 C   0  0  0  0  0  0  0  0  0  0  0  0
  191.7690  173.3700  145.0090 C   0  0  0  0  0  2  0  0  0  0  0  0
  194.3570  175.5960  146.1640 C   0  0  0  0  0  2  0  0  0  0  0  0
  193.1720  176.5450  146.0810 C   0  0  0  0  0  2  0  0  0  0  0  0
  194.8480  171.0130  144.2740 C   0  0  0  0  0  1  0  0  0  0  0  0
  192.0360  175.7300  145.4540 C   0  0  2  0  0  3  0  0  0  0  0  0
  192.5100  172.1270  144.4690 C   0  0  0  0  0  2  0  0  0  0  0  0
  193.7100  174.2700  145.8900 C   0  0  1  0  0  3  0  0  0  0  0  0
  192.6570  174.5250  144.9310 N   0  0  1  0  0  0  0  0  0  0  0  0
  194.5950  173.1770  145.3840 C   0  0  0  0  0  3  0  0  0  0  0  0
  1  9  1  0  0  0  0
  1  6  1  0  0  0  0
  2  5  1  1  0  0  0
  3  7  1  1  0  0  0
  3  2  1  0  0  0  0
  4  7  1  0  0  0  0
  5 14  1  0  0  0  0
  5 16  2  0  0  0  0
  8 12  1  0  0  0  0
 10 18  1  0  0  0  0
 11  4  2  0  0  0  0
 12 16  1  0  0  0  0
 13 18  1  6  0  0  0
 13  2  1  0  0  0  0
 13  8  1  0  0  0  0
 14  1  2  0  0  0  0
 15 20  2  0  0  0  0
 15 11  1  0  0  0  0
 16 17  1  0  0  0  0
 17  6  2  0  0  0  0
 19 20  1  6  0  0  0
 19 10  1  0  0  0  0
 19  3  1  0  0  0  0
 21  8  1  0  0  0  0
 22 31  2  0  0  0  0
 25 24  1  0  0  0  0
 26 22  1  0  0  0  0
 27 21  1  6  0  0  0
 27 25  1  0  0  0  0
 28 22  1  0  0  0  0
 28 23  1  0  0  0  0
 29 31  1  6  0  0  0
 29 24  1  0  0  0  0
 30 23  1  1  0  0  0
 30 27  1  0  0  0  0
 30 29  1  0  0  0  0
M  END
>  <MODEL>
5

>  <REMARK>
 VINA RESULT:      -7.5      1.776      4.807
  Name = 
  2 active torsions:
  status: ('A' for Active; 'I' for Inactive)
    1  A    between atoms: C_9  and  C_23
    2  A    between atoms: N_15  and  C_23
                            x       y       z     vdW  Elec       q    Type
                         _______ _______ _______ _____ _____    ______ ____

>  <TORSDO>
F 2

$$$$
=
 OpenBabel11052417463D

 31 36  0  0  1  0  0  0  0  0999 V2000
  186.3230  178.3160  144.4980 C   0  0  0  0  0  0  0  0  0  0  0  0
  189.6730  176.9180  143.5450 C   0  0  2  0  0  3  0  0  0  0  0  0
  190.3420  176.5460  144.8860 C   0  0  2  0  0  3  0  0  0  0  0  0
  190.1270  176.8510  147.3580 C   0  0  0  0  0  3  0  0  0  0  0  0
  188.1750  177.0840  143.6500 C   0  0  0  0  0  0  0  0  0  0  0  0
  185.4260  177.4230  143.9070 C   0  0  0  0  0  3  0  0  0  0  0  0
  189.9830  177.4950  146.0130 C   0  0  0  0  0  2  0  0  0  0  0  0
  189.1920  174.7180  142.4620 N   0  0  0  0  0  0  0  0  0  0  0  0
  185.8330  179.4190  145.2500 N   0  0  0  0  0  1  0  0  0  0  0  0
  192.4020  176.4680  143.3500 C   0  0  0  0  0  2  0  0  0  0  0  0
  191.0760  175.9880  147.7480 C   0  0  0  0  0  3  0  0  0  0  0  0
  187.8190  175.1020  142.1320 C   0  0  0  0  0  2  0  0  0  0  0  0
  190.0790  175.9020  142.4380 C   0  0  2  0  0  3  0  0  0  0  0  0
  187.6620  178.1320  144.3520 N   0  0  0  0  0  0  0  0  0  0  0  0
  192.1880  175.4000  146.9640 C   0  0  0  0  0  3  0  0  0  0  0  0
  187.3020  176.1700  143.0410 C   0  0  0  0  0  0  0  0  0  0  0  0
  185.9240  176.3510  143.1660 C   0  0  0  0  0  3  0  0  0  0  0  0
  191.5620  175.4760  142.5550 C   0  0  0  0  0  2  0  0  0  0  0  0
  191.8670  176.6120  144.7770 C   0  0  2  0  0  3  0  0  0  0  0  0
  192.5260  175.6310  145.6910 C   0  0  0  0  0  3  0  0  0  0  0  0
  189.6140  173.6860  141.4980 C   0  0  0  0  0  2  0  0  0  0  0  0
  193.8500  170.8410  141.9790 C   0  0  0  0  0  0  0  0  0  0  0  0
  191.6290  171.2500  140.7620 C   0  0  0  0  0  2  0  0  0  0  0  0
  191.0610  171.8580  144.2680 C   0  0  0  0  0  2  0  0  0  0  0  0
  189.7840  172.4200  143.6640 C   0  0  0  0  0  2  0  0  0  0  0  0
  195.3200  170.6090  142.0040 C   0  0  0  0  0  1  0  0  0  0  0  0
  189.9800  172.3460  142.1460 C   0  0  2  0  0  3  0  0  0  0  0  0
  193.1440  170.9740  140.6340 C   0  0  0  0  0  2  0  0  0  0  0  0
  191.7160  171.2270  143.0730 C   0  0  1  0  0  3  0  0  0  0  0  0
  191.3920  172.0710  141.9440 N   0  0  1  0  0  0  0  0  0  0  0  0
  193.1950  171.0250  143.1410 C   0  0  0  0  0  3  0  0  0  0  0  0
  1  9  1  0  0  0  0
  2  5  1  1  0  0  0
  2  3  1  0  0  0  0
  3  7  1  1  0  0  0
  4 11  2  0  0  0  0
  5 14  2  0  0  0  0
  6  1  2  0  0  0  0
  7  4  1  0  0  0  0
 12  8  1  0  0  0  0
 12 16  1  0  0  0  0
 13  8  1  0  0  0  0
 13 18  1  1  0  0  0
 13  2  1  0  0  0  0
 14  1  1  0  0  0  0
 15 11  1  0  0  0  0
 16 17  2  0  0  0  0
 16  5  1  0  0  0  0
 17  6  1  0  0  0  0
 18 10  1  0  0  0  0
 19 10  1  6  0  0  0
 19  3  1  0  0  0  0
 19 20  1  0  0  0  0
 20 15  2  0  0  0  0
 21  8  1  0  0  0  0
 22 26  1  0  0  0  0
 22 31  2  0  0  0  0
 25 24  1  0  0  0  0
 27 21  1  6  0  0  0
 27 25  1  0  0  0  0
 28 23  1  0  0  0  0
 28 22  1  0  0  0  0
 29 31  1  1  0  0  0
 29 24  1  0  0  0  0
 30 23  1  6  0  0  0
 30 27  1  0  0  0  0
 30 29  1  0  0  0  0
M  END
>  <MODEL>
6

>  <REMARK>
 VINA RESULT:      -7.3      1.676      2.238
  Name = 
  2 active torsions:
  status: ('A' for Active; 'I' for Inactive)
    1  A    between atoms: C_9  and  C_23
    2  A    between atoms: N_15  and  C_23
                            x       y       z     vdW  Elec       q    Type
                         _______ _______ _______ _____ _____    ______ ____

>  <TORSDO>
F 2

$$$$
=
 OpenBabel11052417463D

 31 36  0  0  1  0  0  0  0  0999 V2000
  192.6390  171.9190  141.7330 C   0  0  0  0  0  0  0  0  0  0  0  0
  191.7930  173.7760  144.8840 C   0  0  2  0  0  3  0  0  0  0  0  0
  192.8710  174.8760  144.9950 C   0  0  2  0  0  3  0  0  0  0  0  0
  195.0690  175.5990  144.0490 C   0  0  0  0  0  3  0  0  0  0  0  0
  191.6710  173.1980  143.4930 C   0  0  0  0  0  0  0  0  0  0  0  0
  191.5190  172.1360  140.9270 C   0  0  0  0  0  3  0  0  0  0  0  0
  194.2260  174.4360  144.4740 C   0  0  0  0  0  2  0  0  0  0  0  0
  189.6880  175.0230  144.3760 N   0  0  0  0  0  0  0  0  0  0  0  0
  193.7280  171.1480  141.2430 N   0  0  0  0  0  1  0  0  0  0  0  0
  191.9380  174.9530  147.3900 C   0  0  0  0  0  2  0  0  0  0  0  0
  195.1540  176.8000  144.6370 C   0  0  0  0  0  3  0  0  0  0  0  0
  189.3320  174.1150  143.2840 C   0  0  0  0  0  2  0  0  0  0  0  0
  190.4310  174.2960  145.4290 C   0  0  2  0  0  3  0  0  0  0  0  0
  192.6860  172.4450  142.9860 N   0  0  0  0  0  0  0  0  0  0  0  0
  194.4160  177.3220  145.8120 C   0  0  0  0  0  3  0  0  0  0  0  0
  190.5300  173.4310  142.7100 C   0  0  0  0  0  0  0  0  0  0  0  0
  190.4570  172.8870  141.4270 C   0  0  0  0  0  3  0  0  0  0  0  0
  190.6080  175.1830  146.6840 C   0  0  0  0  0  2  0  0  0  0  0  0
  193.1100  175.2640  146.4570 C   0  0  2  0  0  3  0  0  0  0  0  0
  193.5220  176.6950  146.5840 C   0  0  0  0  0  3  0  0  0  0  0  0
  188.4420  175.6220  144.8860 C   0  0  0  0  0  2  0  0  0  0  0  0
  185.5940  178.1240  141.4360 C   0  0  0  0  0  0  0  0  0  0  0  0
  187.8800  177.1520  142.0790 C   0  0  0  0  0  2  0  0  0  0  0  0
  186.4850  178.6640  145.0370 C   0  0  0  0  0  2  0  0  0  0  0  0
  187.6530  177.8920  145.6280 C   0  0  0  0  0  2  0  0  0  0  0  0
  184.4430  178.2910  140.5070 C   0  0  0  0  0  1  0  0  0  0  0  0
  188.2400  177.0820  144.4660 C   0  0  2  0  0  3  0  0  0  0  0  0
  186.7790  177.2670  141.0010 C   0  0  0  0  0  2  0  0  0  0  0  0
  186.7100  178.4850  143.5630 C   0  0  1  0  0  3  0  0  0  0  0  0
  187.2590  177.1560  143.3980 N   0  0  1  0  0  0  0  0  0  0  0  0
  185.5220  178.6510  142.6720 C   0  0  0  0  0  3  0  0  0  0  0  0
  1 14  1  0  0  0  0
  2  5  1  6  0  0  0
  2  3  1  0  0  0  0
  2 13  1  0  0  0  0
  3  7  1  1  0  0  0
  3 19  1  0  0  0  0
  4  7  1  0  0  0  0
  4 11  2  0  0  0  0
  6 17  1  0  0  0  0
  6  1  2  0  0  0  0
  8 21  1  0  0  0  0
  8 13  1  0  0  0  0
  9  1  1  0  0  0  0
 11 15  1  0  0  0  0
 12  8  1  0  0  0  0
 13 18  1  1  0  0  0
 14  5  2  0  0  0  0
 15 20  2  0  0  0  0
 16 12  1  0  0  0  0
 16  5  1  0  0  0  0
 17 16  2  0  0  0  0
 18 10  1  0  0  0  0
 19 20  1  6  0  0  0
 19 10  1  0  0  0  0
 22 31  2  0  0  0  0
 24 25  1  0  0  0  0
 26 22  1  0  0  0  0
 27 21  1  1  0  0  0
 27 25  1  0  0  0  0
 28 22  1  0  0  0  0
 28 23  1  0  0  0  0
 29 31  1  6  0  0  0
 29 24  1  0  0  0  0
 30 23  1  6  0  0  0
 30 29  1  0  0  0  0
 30 27  1  0  0  0  0
M  END
>  <MODEL>
7

>  <REMARK>
 VINA RESULT:      -7.3      2.222      6.455
  Name = 
  2 active torsions:
  status: ('A' for Active; 'I' for Inactive)
    1  A    between atoms: C_9  and  C_23
    2  A    between atoms: N_15  and  C_23
                            x       y       z     vdW  Elec       q    Type
                         _______ _______ _______ _____ _____    ______ ____

>  <TORSDO>
F 2

$$$$
=
 OpenBabel11052417463D

 31 36  0  0  1  0  0  0  0  0999 V2000
  195.3870  172.7810  142.2500 C   0  0  0  0  0  0  0  0  0  0  0  0
  192.1560  173.5300  144.0070 C   0  0  2  0  0  3  0  0  0  0  0  0
  192.5220  174.5830  145.0750 C   0  0  2  0  0  3  0  0  0  0  0  0
  194.4720  175.6550  146.2130 C   0  0  0  0  0  3  0  0  0  0  0  0
  193.1870  173.4070  142.9100 C   0  0  0  0  0  0  0  0  0  0  0  0
  195.1380  173.1900  140.9390 C   0  0  0  0  0  3  0  0  0  0  0  0
  193.9080  174.3840  145.6580 C   0  0  0  0  0  2  0  0  0  0  0  0
  190.7720  174.7840  142.3480 N   0  0  0  0  0  0  0  0  0  0  0  0
  196.6580  172.2450  142.5970 N   0  0  0  0  0  1  0  0  0  0  0  0
  190.2120  173.8740  145.9550 C   0  0  0  0  0  2  0  0  0  0  0  0
  193.8130  176.6160  146.8750 C   0  0  0  0  0  3  0  0  0  0  0  0
  191.5230  174.2470  141.2110 C   0  0  0  0  0  2  0  0  0  0  0  0
  190.7280  173.7980  143.4490 C   0  0  2  0  0  3  0  0  0  0  0  0
  194.4150  172.8920  143.1940 N   0  0  0  0  0  0  0  0  0  0  0  0
  192.3680  176.7160  147.1870 C   0  0  0  0  0  3  0  0  0  0  0  0
  192.9030  173.8260  141.6010 C   0  0  0  0  0  0  0  0  0  0  0  0
  193.8830  173.7050  140.6150 C   0  0  0  0  0  3  0  0  0  0  0  0
  189.7480  174.2570  144.5550 C   0  0  0  0  0  2  0  0  0  0  0  0
  191.5690  174.5080  146.2710 C   0  0  2  0  0  3  0  0  0  0  0  0
  191.3910  175.8440  146.9160 C   0  0  0  0  0  3  0  0  0  0  0  0
  189.4260  175.1430  141.8670 C   0  0  0  0  0  2  0  0  0  0  0  0
  186.0420  177.2890  145.0630 C   0  0  0  0  0  0  0  0  0  0  0  0
  186.6220  176.5680  142.6690 C   0  0  0  0  0  2  0  0  0  0  0  0
  189.6070  177.9680  144.1240 C   0  0  0  0  0  2  0  0  0  0  0  0
  190.1690  177.3290  142.8650 C   0  0  0  0  0  2  0  0  0  0  0  0
  185.1480  177.3230  146.2530 C   0  0  0  0  0  1  0  0  0  0  0  0
  188.9980  176.5690  142.2320 C   0  0  2  0  0  3  0  0  0  0  0  0
  185.5790  176.5540  143.8090 C   0  0  0  0  0  2  0  0  0  0  0  0
  188.1290  177.7930  143.9270 C   0  0  1  0  0  3  0  0  0  0  0  0
  187.9600  176.5260  143.2480 N   0  0  1  0  0  0  0  0  0  0  0  0
  187.2740  177.8230  145.1520 C   0  0  0  0  0  3  0  0  0  0  0  0
  1  9  1  0  0  0  0
  1 14  1  0  0  0  0
  2  5  1  6  0  0  0
  2  3  1  0  0  0  0
  3  7  1  1  0  0  0
  3 19  1  0  0  0  0
  4 11  2  0  0  0  0
  5 14  2  0  0  0  0
  6  1  2  0  0  0  0
  7  4  1  0  0  0  0
  8 13  1  0  0  0  0
 11 15  1  0  0  0  0
 12 16  1  0  0  0  0
 12  8  1  0  0  0  0
 13  2  1  0  0  0  0
 13 18  1  1  0  0  0
 16  5  1  0  0  0  0
 17  6  1  0  0  0  0
 17 16  2  0  0  0  0
 18 10  1  0  0  0  0
 19 10  1  6  0  0  0
 19 20  1  0  0  0  0
 20 15  2  0  0  0  0
 21  8  1  0  0  0  0
 22 31  2  0  0  0  0
 22 26  1  0  0  0  0
 23 28  1  0  0  0  0
 25 24  1  0  0  0  0
 27 21  1  1  0  0  0
 27 25  1  0  0  0  0
 27 30  1  0  0  0  0
 28 22  1  0  0  0  0
 29 24  1  1  0  0  0
 29 31  1  0  0  0  0
 30 23  1  6  0  0  0
 30 29  1  0  0  0  0
M  END
>  <MODEL>
8

>  <REMARK>
 VINA RESULT:      -7.3      2.123      6.587
  Name = 
  2 active torsions:
  status: ('A' for Active; 'I' for Inactive)
    1  A    between atoms: C_9  and  C_23
    2  A    between atoms: N_15  and  C_23
                            x       y       z     vdW  Elec       q    Type
                         _______ _______ _______ _____ _____    ______ ____

>  <TORSDO>
F 2

$$$$
=
 OpenBabel11052417463D

 31 36  0  0  1  0  0  0  0  0999 V2000
  187.7810  177.1590  141.2610 C   0  0  0  0  0  0  0  0  0  0  0  0
  189.0010  174.3750  143.4620 C   0  0  2  0  0  3  0  0  0  0  0  0
  189.7570  173.4220  142.5120 C   0  0  2  0  0  3  0  0  0  0  0  0
  190.1390  172.9320  140.0900 C   0  0  0  0  0  3  0  0  0  0  0  0
  188.8070  175.7600  142.8910 C   0  0  0  0  0  0  0  0  0  0  0  0
  188.4370  178.2800  141.7730 C   0  0  0  0  0  3  0  0  0  0  0  0
  189.1430  173.3520  141.1270 C   0  0  0  0  0  2  0  0  0  0  0  0
  190.7930  175.3850  144.8800 N   0  0  0  0  0  0  0  0  0  0  0  0
  186.9090  177.2950  140.1450 N   0  0  0  0  0  1  0  0  0  0  0  0
  189.4950  171.8710  144.5450 C   0  0  0  0  0  2  0  0  0  0  0  0
  191.1150  172.0230  140.2230 C   0  0  0  0  0  3  0  0  0  0  0  0
  190.2750  176.7420  144.6910 C   0  0  0  0  0  2  0  0  0  0  0  0
  189.6880  174.4030  144.8590 C   0  0  2  0  0  3  0  0  0  0  0  0
  187.9740  175.9390  141.8280 N   0  0  0  0  0  0  0  0  0  0  0  0
  191.5100  171.2390  141.4170 C   0  0  0  0  0  3  0  0  0  0  0  0
  189.4790  176.8660  143.4320 C   0  0  0  0  0  0  0  0  0  0  0  0
  189.2820  178.1290  142.8720 C   0  0  0  0  0  3  0  0  0  0  0  0
  190.1910  173.0040  145.2880 C   0  0  0  0  0  2  0  0  0  0  0  0
  189.7280  171.9840  143.0360 C   0  0  2  0  0  3  0  0  0  0  0  0
  190.9500  171.2270  142.6320 C   0  0  0  0  0  3  0  0  0  0  0  0
  191.5350  175.3620  146.1540 C   0  0  0  0  0  2  0  0  0  0  0  0
  194.8030  174.9920  142.2230 C   0  0  0  0  0  0  0  0  0  0  0  0
  193.5380  173.8160  144.1210 C   0  0  0  0  0  2  0  0  0  0  0  0
  194.6780  176.9890  145.3930 C   0  0  0  0  0  2  0  0  0  0  0  0
  193.7190  176.5620  146.4920 C   0  0  0  0  0  2  0  0  0  0  0  0
  195.2200  175.1320  140.8010 C   0  0  0  0  0  1  0  0  0  0  0  0
  193.0560  175.2780  145.9830 C   0  0  2  0  0  3  0  0  0  0  0  0
  193.9230  173.8120  142.6250 C   0  0  0  0  0  2  0  0  0  0  0  0
  194.7170  175.7650  144.5240 C   0  0  1  0  0  3  0  0  0  0  0  0
  193.3880  175.1950  144.5710 N   0  0  1  0  0  0  0  0  0  0  0  0
  195.1310  175.9580  143.1010 C   0  0  0  0  0  3  0  0  0  0  0  0
  1  6  2  0  0  0  0
  1 14  1  0  0  0  0
  2  5  1  6  0  0  0
  2 13  1  0  0  0  0
  3  7  1  6  0  0  0
  3 19  1  0  0  0  0
  3  2  1  0  0  0  0
  4 11  2  0  0  0  0
  4  7  1  0  0  0  0
  5 16  1  0  0  0  0
  6 17  1  0  0  0  0
  8 21  1  0  0  0  0
  9  1  1  0  0  0  0
 10 18  1  0  0  0  0
 11 15  1  0  0  0  0
 12  8  1  0  0  0  0
 13  8  1  0  0  0  0
 13 18  1  6  0  0  0
 14  5  2  0  0  0  0
 15 20  2  0  0  0  0
 16 12  1  0  0  0  0
 17 16  2  0  0  0  0
 19 20  1  1  0  0  0
 19 10  1  0  0  0  0
 22 28  1  0  0  0  0
 22 31  2  0  0  0  0
 24 25  1  0  0  0  0
 26 22  1  0  0  0  0
 27 21  1  6  0  0  0
 27 25  1  0  0  0  0
 28 23  1  0  0  0  0
 29 31  1  6  0  0  0
 29 30  1  0  0  0  0
 29 24  1  0  0  0  0
 30 23  1  1  0  0  0
 30 27  1  0  0  0  0
M  END
>  <MODEL>
9

>  <REMARK>
 VINA RESULT:      -7.1      2.599      5.656
  Name = 
  2 active torsions:
  status: ('A' for Active; 'I' for Inactive)
    1  A    between atoms: C_9  and  C_23
    2  A    between atoms: N_15  and  C_23
                            x       y       z     vdW  Elec       q    Type
                         _______ _______ _______ _____ _____    ______ ____

>  <TORSDO>
F 2

$$$$
