=
 OpenBabel11052418163D

 28 32  0  0  1  0  0  0  0  0999 V2000
  190.3150  175.9830  144.9950 C   0  0  2  0  0  3  0  0  0  0  0  0
  186.1720  177.4870  142.0990 C   0  0  0  0  0  3  0  0  0  0  0  0
  187.4810  178.5720  147.9950 F   0  0  0  0  0  0  0  0  0  0  0  0
  184.6560  178.3940  143.7680 C   0  0  0  0  0  0  0  0  0  0  0  0
  186.9010  177.7040  144.4290 C   0  0  0  0  0  0  0  0  0  0  0  0
  183.9370  178.1730  141.4670 C   0  0  0  0  0  0  0  0  0  0  0  0
  185.9210  177.8570  143.4290 C   0  0  0  0  0  0  0  0  0  0  0  0
  185.3640  178.6340  146.0700 C   0  0  0  0  0  3  0  0  0  0  0  0
  183.6730  178.5480  142.7870 C   0  0  0  0  0  3  0  0  0  0  0  0
  188.7390  177.1920  146.5770 C   0  0  0  0  0  0  0  0  0  0  0  0
  188.2860  177.2190  144.1020 C   0  0  0  0  0  2  0  0  0  0  0  0
  184.3870  178.7800  145.0840 C   0  0  0  0  0  3  0  0  0  0  0  0
  190.7990  176.2560  147.5760 C   0  0  0  0  0  3  0  0  0  0  0  0
  187.6440  177.9360  146.8040 C   0  0  0  0  0  0  0  0  0  0  0  0
  189.7930  177.1290  147.6100 C   0  0  0  0  0  3  0  0  0  0  0  0
  182.9580  178.3260  140.4940 O   0  0  0  0  0  1  0  0  0  0  0  0
  185.1840  177.6440  141.1240 C   0  0  0  0  0  3  0  0  0  0  0  0
  186.6160  178.0960  145.7530 C   0  0  0  0  0  0  0  0  0  0  0  0
  190.8940  174.9330  146.3670 S   0  0  0  0  0  0  0  0  0  0  0  0
  188.8680  176.4150  145.2730 C   0  0  1  0  0  3  0  0  0  0  0  0
  190.4510  175.2370  143.7000 C   0  0  0  0  0  0  0  0  0  0  0  0
  189.5170  174.2600  143.3210 C   0  0  0  0  0  3  0  0  0  0  0  0
  190.7450  173.8740  141.2680 C   0  0  0  0  0  0  0  0  0  0  0  0
  191.5310  175.5250  142.8590 C   0  0  0  0  0  3  0  0  0  0  0  0
  188.7310  172.6170  141.7430 O   0  0  0  0  0  1  0  0  0  0  0  0
  189.6630  173.5810  142.1080 C   0  0  0  0  0  0  0  0  0  0  0  0
  190.8990  173.2050  140.0610 O   0  0  0  0  0  1  0  0  0  0  0  0
  191.6780  174.8450  141.6460 C   0  0  0  0  0  3  0  0  0  0  0  0
  1 21  1  6  0  0  0
  1 20  1  0  0  0  0
  1 19  1  0  0  0  0
  2  7  1  0  0  0  0
  4 12  1  0  0  0  0
  5 18  2  0  0  0  0
  6  9  2  0  0  0  0
  7  4  2  0  0  0  0
  7  5  1  0  0  0  0
  9  4  1  0  0  0  0
 10 14  2  0  0  0  0
 10 15  1  0  0  0  0
 11  5  1  0  0  0  0
 12  8  2  0  0  0  0
 13 15  2  0  0  0  0
 14  3  1  0  0  0  0
 16  6  1  0  0  0  0
 17  6  1  0  0  0  0
 17  2  2  0  0  0  0
 18  8  1  0  0  0  0
 18 14  1  0  0  0  0
 19 13  1  0  0  0  0
 20 11  1  6  0  0  0
 20 10  1  0  0  0  0
 22 21  1  0  0  0  0
 23 28  2  0  0  0  0
 23 26  1  0  0  0  0
 24 21  2  0  0  0  0
 25 26  1  0  0  0  0
 26 22  2  0  0  0  0
 27 23  1  0  0  0  0
 28 24  1  0  0  0  0
M  END
>  <MODEL>
1

>  <REMARK>
 VINA RESULT:      -8.6      0.000      0.000
  Name = 
  1 active torsions:
  status: ('A' for Active; 'I' for Inactive)
    1  A    between atoms: C_1  and  C_2
                            x       y       z     vdW  Elec       q    Type
                         _______ _______ _______ _____ _____    ______ ____

>  <TORSDO>
F 1

$$$$
=
 OpenBabel11052418163D

 28 32  0  0  1  0  0  0  0  0999 V2000
  191.1260  176.5710  145.4000 C   0  0  2  0  0  3  0  0  0  0  0  0
  187.1640  177.6560  142.0910 C   0  0  0  0  0  3  0  0  0  0  0  0
  187.5640  178.4110  148.1680 F   0  0  0  0  0  0  0  0  0  0  0  0
  185.3300  178.1650  143.6040 C   0  0  0  0  0  0  0  0  0  0  0  0
  187.5640  177.7800  144.5060 C   0  0  0  0  0  0  0  0  0  0  0  0
  184.9370  178.0360  141.2180 C   0  0  0  0  0  0  0  0  0  0  0  0
  186.6990  177.8640  143.3990 C   0  0  0  0  0  0  0  0  0  0  0  0
  185.7100  178.3100  145.9900 C   0  0  0  0  0  3  0  0  0  0  0  0
  184.4590  178.2480  142.5140 C   0  0  0  0  0  3  0  0  0  0  0  0
  189.1940  177.3750  146.8380 C   0  0  0  0  0  0  0  0  0  0  0  0
  189.0400  177.5470  144.3320 C   0  0  0  0  0  2  0  0  0  0  0  0
  184.8470  178.3870  144.8960 C   0  0  0  0  0  3  0  0  0  0  0  0
  191.2460  176.6890  148.0340 C   0  0  0  0  0  3  0  0  0  0  0  0
  187.9710  177.9160  146.9690 C   0  0  0  0  0  0  0  0  0  0  0  0
  190.1120  177.3870  147.9940 C   0  0  0  0  0  3  0  0  0  0  0  0
  184.0690  178.1190  140.1380 O   0  0  0  0  0  1  0  0  0  0  0  0
  186.2870  177.7410  141.0070 C   0  0  0  0  0  3  0  0  0  0  0  0
  187.0630  178.0040  145.8050 C   0  0  0  0  0  0  0  0  0  0  0  0
  191.7030  175.5080  146.7620 S   0  0  0  0  0  0  0  0  0  0  0  0
  189.6040  176.7460  145.5130 C   0  0  1  0  0  3  0  0  0  0  0  0
  191.5370  175.9730  144.0870 C   0  0  0  0  0  0  0  0  0  0  0  0
  192.6860  176.4160  143.4120 C   0  0  0  0  0  3  0  0  0  0  0  0
  192.2680  174.8190  141.6380 C   0  0  0  0  0  0  0  0  0  0  0  0
  190.7570  174.9540  143.5280 C   0  0  0  0  0  3  0  0  0  0  0  0
  194.1910  176.2860  141.5350 O   0  0  0  0  0  1  0  0  0  0  0  0
  193.0500  175.8400  142.1920 C   0  0  0  0  0  0  0  0  0  0  0  0
  192.6210  174.2400  140.4260 O   0  0  0  0  0  1  0  0  0  0  0  0
  191.1210  174.3790  142.3080 C   0  0  0  0  0  3  0  0  0  0  0  0
  1 21  1  6  0  0  0
  1 20  1  0  0  0  0
  1 19  1  0  0  0  0
  2  7  1  0  0  0  0
  4 12  1  0  0  0  0
  5 18  2  0  0  0  0
  6  9  2  0  0  0  0
  7  4  2  0  0  0  0
  7  5  1  0  0  0  0
  9  4  1  0  0  0  0
 10 14  2  0  0  0  0
 10 15  1  0  0  0  0
 11  5  1  0  0  0  0
 12  8  2  0  0  0  0
 14  3  1  0  0  0  0
 15 13  2  0  0  0  0
 16  6  1  0  0  0  0
 17  6  1  0  0  0  0
 17  2  2  0  0  0  0
 18  8  1  0  0  0  0
 18 14  1  0  0  0  0
 19 13  1  0  0  0  0
 20 11  1  6  0  0  0
 20 10  1  0  0  0  0
 22 21  2  0  0  0  0
 23 26  2  0  0  0  0
 23 28  1  0  0  0  0
 24 21  1  0  0  0  0
 25 26  1  0  0  0  0
 26 22  1  0  0  0  0
 27 23  1  0  0  0  0
 28 24  2  0  0  0  0
M  END
>  <MODEL>
2

>  <REMARK>
 VINA RESULT:      -8.5      1.301      1.885
  Name = 
  1 active torsions:
  status: ('A' for Active; 'I' for Inactive)
    1  A    between atoms: C_1  and  C_2
                            x       y       z     vdW  Elec       q    Type
                         _______ _______ _______ _____ _____    ______ ____

>  <TORSDO>
F 1

$$$$
=
 OpenBabel11052418163D

 28 32  0  0  1  0  0  0  0  0999 V2000
  190.8850  174.9380  144.1640 C   0  0  2  0  0  3  0  0  0  0  0  0
  186.2870  177.1470  142.8260 C   0  0  0  0  0  3  0  0  0  0  0  0
  189.6900  177.8480  147.8830 F   0  0  0  0  0  0  0  0  0  0  0  0
  185.5950  178.2310  144.8890 C   0  0  0  0  0  0  0  0  0  0  0  0
  187.7940  177.1830  144.7580 C   0  0  0  0  0  0  0  0  0  0  0  0
  184.1050  178.1890  142.9800 C   0  0  0  0  0  0  0  0  0  0  0  0
  186.5670  177.5130  144.1510 C   0  0  0  0  0  0  0  0  0  0  0  0
  187.0780  178.2930  146.8010 C   0  0  0  0  0  3  0  0  0  0  0  0
  184.3720  178.5630  144.3010 C   0  0  0  0  0  3  0  0  0  0  0  0
  190.1550  176.3320  146.1570 C   0  0  0  0  0  0  0  0  0  0  0  0
  188.8900  176.4980  143.9880 C   0  0  0  0  0  2  0  0  0  0  0  0
  185.8570  178.6160  146.2060 C   0  0  0  0  0  3  0  0  0  0  0  0
  192.2600  175.0600  146.4140 C   0  0  0  0  0  3  0  0  0  0  0  0
  189.3340  177.2290  146.7260 C   0  0  0  0  0  0  0  0  0  0  0  0
  191.4750  176.0760  146.7680 C   0  0  0  0  0  3  0  0  0  0  0  0
  182.8890  178.5190  142.3990 O   0  0  0  0  0  1  0  0  0  0  0  0
  185.0610  177.4830  142.2450 C   0  0  0  0  0  3  0  0  0  0  0  0
  188.0450  177.5760  146.0880 C   0  0  0  0  0  0  0  0  0  0  0  0
  191.7280  173.7720  145.2810 S   0  0  0  0  0  0  0  0  0  0  0  0
  189.7060  175.5810  144.9100 C   0  0  1  0  0  3  0  0  0  0  0  0
  190.4510  174.2170  142.9220 C   0  0  0  0  0  0  0  0  0  0  0  0
  191.1940  174.3010  141.7330 C   0  0  0  0  0  3  0  0  0  0  0  0
  189.6020  172.8480  140.6270 C   0  0  0  0  0  0  0  0  0  0  0  0
  189.2820  173.4490  142.9530 C   0  0  0  0  0  3  0  0  0  0  0  0
  191.5180  173.7060  139.4200 O   0  0  0  0  0  1  0  0  0  0  0  0
  190.7720  173.6170  140.5900 C   0  0  0  0  0  0  0  0  0  0  0  0
  189.1740  172.1650  139.4960 O   0  0  0  0  0  1  0  0  0  0  0  0
  188.8590  172.7660  141.8090 C   0  0  0  0  0  3  0  0  0  0  0  0
  1 21  1  6  0  0  0
  1 20  1  0  0  0  0
  1 19  1  0  0  0  0
  2  7  1  0  0  0  0
  4 12  1  0  0  0  0
  5 18  2  0  0  0  0
  6  9  2  0  0  0  0
  7  5  1  0  0  0  0
  7  4  2  0  0  0  0
  9  4  1  0  0  0  0
 10 14  2  0  0  0  0
 10 15  1  0  0  0  0
 11  5  1  0  0  0  0
 12  8  2  0  0  0  0
 13 15  2  0  0  0  0
 14  3  1  0  0  0  0
 16  6  1  0  0  0  0
 17  2  2  0  0  0  0
 17  6  1  0  0  0  0
 18 14  1  0  0  0  0
 18  8  1  0  0  0  0
 19 13  1  0  0  0  0
 20 11  1  6  0  0  0
 20 10  1  0  0  0  0
 21 24  1  0  0  0  0
 22 21  2  0  0  0  0
 23 28  1  0  0  0  0
 25 26  1  0  0  0  0
 26 23  2  0  0  0  0
 26 22  1  0  0  0  0
 27 23  1  0  0  0  0
 28 24  2  0  0  0  0
M  END
>  <MODEL>
3

>  <REMARK>
 VINA RESULT:      -8.4      1.215      1.957
  Name = 
  1 active torsions:
  status: ('A' for Active; 'I' for Inactive)
    1  A    between atoms: C_1  and  C_2
                            x       y       z     vdW  Elec       q    Type
                         _______ _______ _______ _____ _____    ______ ____

>  <TORSDO>
F 1

$$$$
=
 OpenBabel11052418163D

 28 32  0  0  1  0  0  0  0  0999 V2000
  190.8750  175.2760  144.2990 C   0  0  2  0  0  3  0  0  0  0  0  0
  186.2270  177.3290  142.8880 C   0  0  0  0  0  3  0  0  0  0  0  0
  189.5090  178.1160  148.0130 F   0  0  0  0  0  0  0  0  0  0  0  0
  185.4590  178.3740  144.9450 C   0  0  0  0  0  0  0  0  0  0  0  0
  187.6960  177.4050  144.8480 C   0  0  0  0  0  0  0  0  0  0  0  0
  184.0070  178.2920  143.0090 C   0  0  0  0  0  0  0  0  0  0  0  0
  186.4700  177.6960  144.2210 C   0  0  0  0  0  0  0  0  0  0  0  0
  186.9030  178.4750  146.8850 C   0  0  0  0  0  3  0  0  0  0  0  0
  184.2360  178.6660  144.3360 C   0  0  0  0  0  3  0  0  0  0  0  0
  190.0590  176.6290  146.2860 C   0  0  0  0  0  0  0  0  0  0  0  0
  188.8300  176.7650  144.0950 C   0  0  0  0  0  2  0  0  0  0  0  0
  185.6830  178.7590  146.2690 C   0  0  0  0  0  3  0  0  0  0  0  0
  192.2030  175.4310  146.5750 C   0  0  0  0  0  3  0  0  0  0  0  0
  189.1960  177.4930  146.8460 C   0  0  0  0  0  0  0  0  0  0  0  0
  191.3760  176.4160  146.9200 C   0  0  0  0  0  3  0  0  0  0  0  0
  182.7900  178.5830  142.4070 O   0  0  0  0  0  1  0  0  0  0  0  0
  185.0010  177.6250  142.2870 C   0  0  0  0  0  3  0  0  0  0  0  0
  187.9080  177.7980  146.1860 C   0  0  0  0  0  0  0  0  0  0  0  0
  191.7380  174.1330  145.4240 S   0  0  0  0  0  0  0  0  0  0  0  0
  189.6600  175.8720  145.0260 C   0  0  1  0  0  3  0  0  0  0  0  0
  190.4900  174.5490  143.0440 C   0  0  0  0  0  0  0  0  0  0  0  0
  189.2330  173.9360  142.9130 C   0  0  0  0  0  3  0  0  0  0  0  0
  189.8140  173.2050  140.6770 C   0  0  0  0  0  0  0  0  0  0  0  0
  191.4040  174.4820  141.9870 C   0  0  0  0  0  3  0  0  0  0  0  0
  187.6490  172.6660  141.6160 O   0  0  0  0  0  1  0  0  0  0  0  0
  188.8960  173.2670  141.7330 C   0  0  0  0  0  0  0  0  0  0  0  0
  189.4890  172.5440  139.5010 O   0  0  0  0  0  1  0  0  0  0  0  0
  191.0670  173.8130  140.8070 C   0  0  0  0  0  3  0  0  0  0  0  0
  1 21  1  6  0  0  0
  1 20  1  0  0  0  0
  1 19  1  0  0  0  0
  2  7  1  0  0  0  0
  4 12  1  0  0  0  0
  5 18  2  0  0  0  0
  6  9  2  0  0  0  0
  7  5  1  0  0  0  0
  7  4  2  0  0  0  0
  9  4  1  0  0  0  0
 10 14  2  0  0  0  0
 10 15  1  0  0  0  0
 11  5  1  0  0  0  0
 12  8  2  0  0  0  0
 13 15  2  0  0  0  0
 14  3  1  0  0  0  0
 16  6  1  0  0  0  0
 17  2  2  0  0  0  0
 17  6  1  0  0  0  0
 18 14  1  0  0  0  0
 18  8  1  0  0  0  0
 19 13  1  0  0  0  0
 20 11  1  6  0  0  0
 20 10  1  0  0  0  0
 22 21  1  0  0  0  0
 23 28  2  0  0  0  0
 23 26  1  0  0  0  0
 24 21  2  0  0  0  0
 25 26  1  0  0  0  0
 26 22  2  0  0  0  0
 27 23  1  0  0  0  0
 28 24  1  0  0  0  0
M  END
>  <MODEL>
4

>  <REMARK>
 VINA RESULT:      -8.3      1.098      1.412
  Name = 
  1 active torsions:
  status: ('A' for Active; 'I' for Inactive)
    1  A    between atoms: C_1  and  C_2
                            x       y       z     vdW  Elec       q    Type
                         _______ _______ _______ _____ _____    ______ ____

>  <TORSDO>
F 1

$$$$
=
 OpenBabel11052418163D

 28 32  0  0  1  0  0  0  0  0999 V2000
  185.3300  177.6390  143.9180 C   0  0  2  0  0  3  0  0  0  0  0  0
  190.3750  176.1070  144.0080 C   0  0  0  0  0  3  0  0  0  0  0  0
  186.7720  178.1280  148.5450 F   0  0  0  0  0  0  0  0  0  0  0  0
  191.0960  176.7770  146.2310 C   0  0  0  0  0  0  0  0  0  0  0  0
  188.7500  177.0070  145.6060 C   0  0  0  0  0  0  0  0  0  0  0  0
  192.7020  175.8920  144.6480 C   0  0  0  0  0  0  0  0  0  0  0  0
  190.0640  176.6290  145.2730 C   0  0  0  0  0  0  0  0  0  0  0  0
  189.5020  177.6490  147.8290 C   0  0  0  0  0  3  0  0  0  0  0  0
  192.4070  176.4090  145.9130 C   0  0  0  0  0  3  0  0  0  0  0  0
  186.1570  178.0420  146.2840 C   0  0  0  0  0  0  0  0  0  0  0  0
  187.6060  176.7900  144.6530 C   0  0  0  0  0  2  0  0  0  0  0  0
  190.8080  177.2830  147.5010 C   0  0  0  0  0  3  0  0  0  0  0  0
  183.8240  178.7070  145.8050 C   0  0  0  0  0  3  0  0  0  0  0  0
  187.0920  177.9160  147.2410 C   0  0  0  0  0  0  0  0  0  0  0  0
  184.7650  178.3480  146.6750 C   0  0  0  0  0  3  0  0  0  0  0  0
  194.0040  175.5290  144.3350 O   0  0  0  0  0  1  0  0  0  0  0  0
  191.6880  175.7420  143.6980 C   0  0  0  0  0  3  0  0  0  0  0  0
  188.4720  177.5190  146.8900 C   0  0  0  0  0  0  0  0  0  0  0  0
  184.1770  179.0410  144.0760 S   0  0  0  0  0  0  0  0  0  0  0  0
  186.5480  177.8880  144.8200 C   0  0  1  0  0  3  0  0  0  0  0  0
  185.7120  177.4630  142.4780 C   0  0  0  0  0  0  0  0  0  0  0  0
  186.7310  176.5750  142.0970 C   0  0  0  0  0  3  0  0  0  0  0  0
  186.3860  177.1660  139.7720 C   0  0  0  0  0  0  0  0  0  0  0  0
  185.0370  178.2010  141.4990 C   0  0  0  0  0  3  0  0  0  0  0  0
  188.0750  175.5430  140.3840 O   0  0  0  0  0  1  0  0  0  0  0  0
  187.0660  176.4270  140.7490 C   0  0  0  0  0  0  0  0  0  0  0  0
  186.7110  177.0250  138.4300 O   0  0  0  0  0  1  0  0  0  0  0  0
  185.3730  178.0520  140.1510 C   0  0  0  0  0  3  0  0  0  0  0  0
  1 21  1  6  0  0  0
  1 19  1  0  0  0  0
  1 20  1  0  0  0  0
  2  7  1  0  0  0  0
  4 12  1  0  0  0  0
  5 18  2  0  0  0  0
  6  9  2  0  0  0  0
  7  5  1  0  0  0  0
  7  4  2  0  0  0  0
  9  4  1  0  0  0  0
 10 15  1  0  0  0  0
 10 14  2  0  0  0  0
 11  5  1  0  0  0  0
 12  8  2  0  0  0  0
 13 15  2  0  0  0  0
 14  3  1  0  0  0  0
 16  6  1  0  0  0  0
 17  2  2  0  0  0  0
 17  6  1  0  0  0  0
 18 14  1  0  0  0  0
 18  8  1  0  0  0  0
 19 13  1  0  0  0  0
 20 11  1  1  0  0  0
 20 10  1  0  0  0  0
 22 21  1  0  0  0  0
 23 28  2  0  0  0  0
 23 26  1  0  0  0  0
 24 21  2  0  0  0  0
 25 26  1  0  0  0  0
 26 22  2  0  0  0  0
 27 23  1  0  0  0  0
 28 24  1  0  0  0  0
M  END
>  <MODEL>
5

>  <REMARK>
 VINA RESULT:      -8.2      2.420      5.966
  Name = 
  1 active torsions:
  status: ('A' for Active; 'I' for Inactive)
    1  A    between atoms: C_1  and  C_2
                            x       y       z     vdW  Elec       q    Type
                         _______ _______ _______ _____ _____    ______ ____

>  <TORSDO>
F 1

$$$$
=
 OpenBabel11052418163D

 28 32  0  0  1  0  0  0  0  0999 V2000
  189.1230  176.2730  146.4150 C   0  0  2  0  0  3  0  0  0  0  0  0
  188.5830  173.5830  141.9110 C   0  0  0  0  0  3  0  0  0  0  0  0
  193.2370  173.7150  145.9070 F   0  0  0  0  0  0  0  0  0  0  0  0
  190.8150  172.6870  141.5540 C   0  0  0  0  0  0  0  0  0  0  0  0
  190.3120  173.8790  143.6230 C   0  0  0  0  0  0  0  0  0  0  0  0
  189.1050  172.4010  139.8620 C   0  0  0  0  0  0  0  0  0  0  0  0
  189.8950  173.3900  142.3700 C   0  0  0  0  0  0  0  0  0  0  0  0
  192.5290  172.9530  143.2410 C   0  0  0  0  0  3  0  0  0  0  0  0
  190.4150  172.1990  140.3070 C   0  0  0  0  0  3  0  0  0  0  0  0
  191.3220  175.0600  146.0400 C   0  0  0  0  0  0  0  0  0  0  0  0
  189.3500  174.5550  144.5600 C   0  0  0  0  0  2  0  0  0  0  0  0
  192.1220  172.4730  141.9950 C   0  0  0  0  0  3  0  0  0  0  0  0
  191.1910  176.5100  148.0390 C   0  0  0  0  0  3  0  0  0  0  0  0
  192.0750  174.1710  145.3700 C   0  0  0  0  0  0  0  0  0  0  0  0
  191.7390  175.4820  147.3920 C   0  0  0  0  0  3  0  0  0  0  0  0
  188.7120  171.9160  138.6230 O   0  0  0  0  0  1  0  0  0  0  0  0
  188.1910  173.0910  140.6640 C   0  0  0  0  0  3  0  0  0  0  0  0
  191.6360  173.6570  144.0550 C   0  0  0  0  0  0  0  0  0  0  0  0
  190.0060  177.6180  147.2710 S   0  0  0  0  0  0  0  0  0  0  0  0
  190.0670  175.6290  145.3890 C   0  0  1  0  0  3  0  0  0  0  0  0
  187.8750  176.8150  145.7830 C   0  0  0  0  0  0  0  0  0  0  0  0
  187.9180  177.5000  144.5570 C   0  0  0  0  0  3  0  0  0  0  0  0
  185.5150  177.8050  144.6370 C   0  0  0  0  0  0  0  0  0  0  0  0
  186.6490  176.6330  146.4300 C   0  0  0  0  0  3  0  0  0  0  0  0
  186.7960  178.6660  142.7710 O   0  0  0  0  0  1  0  0  0  0  0  0
  186.7410  177.9920  143.9860 C   0  0  0  0  0  0  0  0  0  0  0  0
  184.3410  178.2910  144.0780 O   0  0  0  0  0  1  0  0  0  0  0  0
  185.4720  177.1270  145.8590 C   0  0  0  0  0  3  0  0  0  0  0  0
  1 21  1  6  0  0  0
  1 19  1  0  0  0  0
  2  7  1  0  0  0  0
  4 12  2  0  0  0  0
  4  7  1  0  0  0  0
  5 18  1  0  0  0  0
  5 11  1  0  0  0  0
  6  9  2  0  0  0  0
  6 17  1  0  0  0  0
  7  5  2  0  0  0  0
  8 18  2  0  0  0  0
  9  4  1  0  0  0  0
 10 15  1  0  0  0  0
 12  8  1  0  0  0  0
 14  3  1  0  0  0  0
 14 10  2  0  0  0  0
 15 13  2  0  0  0  0
 16  6  1  0  0  0  0
 17  2  2  0  0  0  0
 18 14  1  0  0  0  0
 19 13  1  0  0  0  0
 20 11  1  1  0  0  0
 20 10  1  0  0  0  0
 20  1  1  0  0  0  0
 21 24  1  0  0  0  0
 22 21  2  0  0  0  0
 23 28  1  0  0  0  0
 25 26  1  0  0  0  0
 26 22  1  0  0  0  0
 26 23  2  0  0  0  0
 27 23  1  0  0  0  0
 28 24  2  0  0  0  0
M  END
>  <MODEL>
6

>  <REMARK>
 VINA RESULT:      -7.9      2.475      6.405
  Name = 
  1 active torsions:
  status: ('A' for Active; 'I' for Inactive)
    1  A    between atoms: C_1  and  C_2
                            x       y       z     vdW  Elec       q    Type
                         _______ _______ _______ _____ _____    ______ ____

>  <TORSDO>
F 1

$$$$
=
 OpenBabel11052418163D

 28 32  0  0  1  0  0  0  0  0999 V2000
  185.7150  178.1010  143.0980 C   0  0  2  0  0  3  0  0  0  0  0  0
  189.6780  174.8090  144.2240 C   0  0  0  0  0  3  0  0  0  0  0  0
  187.1680  176.2780  138.8210 F   0  0  0  0  0  0  0  0  0  0  0  0
  190.0390  173.6650  142.1090 C   0  0  0  0  0  0  0  0  0  0  0  0
  188.4500  175.5140  142.2240 C   0  0  0  0  0  0  0  0  0  0  0  0
  191.2460  172.9680  144.0890 C   0  0  0  0  0  0  0  0  0  0  0  0
  189.3830  174.6720  142.8590 C   0  0  0  0  0  0  0  0  0  0  0  0
  188.8490  174.3600  140.1190 C   0  0  0  0  0  3  0  0  0  0  0  0
  190.9640  172.8210  142.7280 C   0  0  0  0  0  3  0  0  0  0  0  0
  186.3810  177.0090  140.9050 C   0  0  0  0  0  0  0  0  0  0  0  0
  187.7930  176.6510  142.9570 C   0  0  0  0  0  2  0  0  0  0  0  0
  189.7690  173.5180  140.7470 C   0  0  0  0  0  3  0  0  0  0  0  0
  184.4810  178.5900  140.8160 C   0  0  0  0  0  3  0  0  0  0  0  0
  187.2060  176.2370  140.1800 C   0  0  0  0  0  0  0  0  0  0  0  0
  185.4800  177.9500  140.2100 C   0  0  0  0  0  3  0  0  0  0  0  0
  192.1650  172.1260  144.7010 O   0  0  0  0  0  1  0  0  0  0  0  0
  190.6050  173.9610  144.8350 C   0  0  0  0  0  3  0  0  0  0  0  0
  188.1860  175.3530  140.8480 C   0  0  0  0  0  0  0  0  0  0  0  0
  183.9970  178.2460  142.5100 S   0  0  0  0  0  0  0  0  0  0  0  0
  186.3740  176.8890  142.4240 C   0  0  1  0  0  3  0  0  0  0  0  0
  185.7260  177.9990  144.5950 C   0  0  0  0  0  0  0  0  0  0  0  0
  185.9050  179.1350  145.4020 C   0  0  0  0  0  3  0  0  0  0  0  0
  185.7340  177.7580  147.3890 C   0  0  0  0  0  0  0  0  0  0  0  0
  185.5550  176.7460  145.1940 C   0  0  0  0  0  3  0  0  0  0  0  0
  186.0830  180.1460  147.5820 O   0  0  0  0  0  1  0  0  0  0  0  0
  185.9070  179.0140  146.7940 C   0  0  0  0  0  0  0  0  0  0  0  0
  185.7350  177.6280  148.7710 O   0  0  0  0  0  1  0  0  0  0  0  0
  185.5590  176.6260  146.5860 C   0  0  0  0  0  3  0  0  0  0  0  0
  1 21  1  1  0  0  0
  2 17  1  0  0  0  0
  3 14  1  0  0  0  0
  4  9  2  0  0  0  0
  4  7  1  0  0  0  0
  5  7  1  0  0  0  0
  5 11  1  0  0  0  0
  6 16  1  0  0  0  0
  6 17  2  0  0  0  0
  7  2  2  0  0  0  0
  8 12  2  0  0  0  0
  8 18  1  0  0  0  0
  9  6  1  0  0  0  0
 10 20  1  0  0  0  0
 12  4  1  0  0  0  0
 13 19  1  0  0  0  0
 14 18  1  0  0  0  0
 14 10  2  0  0  0  0
 15 13  2  0  0  0  0
 15 10  1  0  0  0  0
 18  5  2  0  0  0  0
 19  1  1  0  0  0  0
 20 11  1  1  0  0  0
 20  1  1  0  0  0  0
 21 24  2  0  0  0  0
 21 22  1  0  0  0  0
 22 26  2  0  0  0  0
 23 27  1  0  0  0  0
 24 28  1  0  0  0  0
 26 23  1  0  0  0  0
 26 25  1  0  0  0  0
 28 23  2  0  0  0  0
M  END
>  <MODEL>
7

>  <REMARK>
 VINA RESULT:      -7.5      3.680      7.700
  Name = 
  1 active torsions:
  status: ('A' for Active; 'I' for Inactive)
    1  A    between atoms: C_1  and  C_2
                            x       y       z     vdW  Elec       q    Type
                         _______ _______ _______ _____ _____    ______ ____

>  <TORSDO>
F 1

$$$$
=
 OpenBabel11052418163D

 28 32  0  0  1  0  0  0  0  0999 V2000
  188.0100  176.0450  144.7280 C   0  0  2  0  0  3  0  0  0  0  0  0
  192.7780  176.0340  142.4740 C   0  0  0  0  0  3  0  0  0  0  0  0
  191.1960  175.6180  148.3880 F   0  0  0  0  0  0  0  0  0  0  0  0
  194.2710  176.2360  144.3830 C   0  0  0  0  0  0  0  0  0  0  0  0
  191.8750  175.9600  144.7510 C   0  0  0  0  0  0  0  0  0  0  0  0
  195.1600  176.3150  142.1320 C   0  0  0  0  0  0  0  0  0  0  0  0
  192.9630  176.0760  143.8650 C   0  0  0  0  0  0  0  0  0  0  0  0
  193.3990  176.1450  146.6390 C   0  0  0  0  0  3  0  0  0  0  0  0
  195.3590  176.3550  143.5150 C   0  0  0  0  0  3  0  0  0  0  0  0
  189.6970  175.9930  146.6250 C   0  0  0  0  0  0  0  0  0  0  0  0
  190.4800  175.7030  144.2510 C   0  0  0  0  0  2  0  0  0  0  0  0
  194.4790  176.2680  145.7640 C   0  0  0  0  0  3  0  0  0  0  0  0
  187.3120  176.0800  147.2730 C   0  0  0  0  0  3  0  0  0  0  0  0
  190.9570  175.8750  147.0750 C   0  0  0  0  0  0  0  0  0  0  0  0
  188.5760  175.7740  147.5610 C   0  0  0  0  0  3  0  0  0  0  0  0
  196.2440  176.4340  141.2720 O   0  0  0  0  0  1  0  0  0  0  0  0
  193.8720  176.1540  141.6130 C   0  0  0  0  0  3  0  0  0  0  0  0
  192.0990  175.9960  146.1430 C   0  0  0  0  0  0  0  0  0  0  0  0
  186.8440  176.9650  145.7830 S   0  0  0  0  0  0  0  0  0  0  0  0
  189.4460  176.3680  145.1700 C   0  0  1  0  0  3  0  0  0  0  0  0
  187.7640  176.3910  143.2880 C   0  0  0  0  0  0  0  0  0  0  0  0
  188.0590  175.4820  142.2600 C   0  0  0  0  0  3  0  0  0  0  0  0
  187.2820  177.0810  140.6140 C   0  0  0  0  0  0  0  0  0  0  0  0
  187.2320  177.6450  142.9700 C   0  0  0  0  0  3  0  0  0  0  0  0
  188.1110  174.9150  139.9180 O   0  0  0  0  0  1  0  0  0  0  0  0
  187.8180  175.8250  140.9270 C   0  0  0  0  0  0  0  0  0  0  0  0
  187.0380  177.4320  139.2930 O   0  0  0  0  0  1  0  0  0  0  0  0
  186.9910  177.9890  141.6370 C   0  0  0  0  0  3  0  0  0  0  0  0
  1 21  1  6  0  0  0
  1 20  1  0  0  0  0
  1 19  1  0  0  0  0
  2  7  1  0  0  0  0
  4 12  1  0  0  0  0
  5 18  2  0  0  0  0
  6  9  2  0  0  0  0
  7  4  2  0  0  0  0
  7  5  1  0  0  0  0
  9  4  1  0  0  0  0
 10 14  2  0  0  0  0
 10 15  1  0  0  0  0
 11  5  1  0  0  0  0
 12  8  2  0  0  0  0
 13 15  2  0  0  0  0
 14  3  1  0  0  0  0
 16  6  1  0  0  0  0
 17  6  1  0  0  0  0
 17  2  2  0  0  0  0
 18  8  1  0  0  0  0
 18 14  1  0  0  0  0
 19 13  1  0  0  0  0
 20 11  1  6  0  0  0
 20 10  1  0  0  0  0
 22 21  2  0  0  0  0
 23 26  2  0  0  0  0
 23 28  1  0  0  0  0
 24 21  1  0  0  0  0
 25 26  1  0  0  0  0
 26 22  1  0  0  0  0
 27 23  1  0  0  0  0
 28 24  2  0  0  0  0
M  END
>  <MODEL>
8

>  <REMARK>
 VINA RESULT:      -7.5      2.842      6.552
  Name = 
  1 active torsions:
  status: ('A' for Active; 'I' for Inactive)
    1  A    between atoms: C_1  and  C_2
                            x       y       z     vdW  Elec       q    Type
                         _______ _______ _______ _____ _____    ______ ____

>  <TORSDO>
F 1

$$$$
=
 OpenBabel11052418163D

 28 32  0  0  1  0  0  0  0  0999 V2000
  188.0470  177.6780  144.2740 C   0  0  2  0  0  3  0  0  0  0  0  0
  190.6710  173.7590  141.9120 C   0  0  0  0  0  3  0  0  0  0  0  0
  186.1990  177.3780  139.7770 F   0  0  0  0  0  0  0  0  0  0  0  0
  189.4050  173.4300  139.8620 C   0  0  0  0  0  0  0  0  0  0  0  0
  188.8370  175.2830  141.3440 C   0  0  0  0  0  0  0  0  0  0  0  0
  191.2140  171.9230  140.4290 C   0  0  0  0  0  0  0  0  0  0  0  0
  189.6390  174.1640  141.0500 C   0  0  0  0  0  0  0  0  0  0  0  0
  187.6040  174.9360  139.2750 C   0  0  0  0  0  3  0  0  0  0  0  0
  190.1920  172.3150  139.5600 C   0  0  0  0  0  3  0  0  0  0  0  0
  186.9890  177.3880  141.9840 C   0  0  0  0  0  0  0  0  0  0  0  0
  189.1020  176.1440  142.5480 C   0  0  0  0  0  2  0  0  0  0  0  0
  188.3920  173.8210  138.9840 C   0  0  0  0  0  3  0  0  0  0  0  0
  185.9840  179.1050  143.4530 C   0  0  0  0  0  3  0  0  0  0  0  0
  186.9730  176.8410  140.7570 C   0  0  0  0  0  0  0  0  0  0  0  0
  186.2090  178.6170  142.2340 C   0  0  0  0  0  3  0  0  0  0  0  0
  191.9930  170.8140  140.1260 O   0  0  0  0  0  1  0  0  0  0  0  0
  191.4530  172.6440  141.6020 C   0  0  0  0  0  3  0  0  0  0  0  0
  187.8160  175.6660  140.4490 C   0  0  0  0  0  0  0  0  0  0  0  0
  186.4470  178.2280  144.9490 S   0  0  0  0  0  0  0  0  0  0  0  0
  187.7920  176.7250  143.0960 C   0  0  1  0  0  3  0  0  0  0  0  0
  188.8570  177.0370  145.3620 C   0  0  0  0  0  0  0  0  0  0  0  0
  188.3270  176.0060  146.1540 C   0  0  0  0  0  3  0  0  0  0  0  0
  190.4120  175.8670  147.3810 C   0  0  0  0  0  0  0  0  0  0  0  0
  190.1650  177.4790  145.5880 C   0  0  0  0  0  3  0  0  0  0  0  0
  188.5670  174.4010  147.9360 O   0  0  0  0  0  1  0  0  0  0  0  0
  189.1020  175.4220  147.1600 C   0  0  0  0  0  0  0  0  0  0  0  0
  191.1910  175.2930  148.3770 O   0  0  0  0  0  1  0  0  0  0  0  0
  190.9400  176.8960  146.5950 C   0  0  0  0  0  3  0  0  0  0  0  0
  1 19  1  0  0  0  0
  1 21  1  1  0  0  0
  3 14  1  0  0  0  0
  4  7  1  0  0  0  0
  5 11  1  0  0  0  0
  6 17  2  0  0  0  0
  7  5  1  0  0  0  0
  7  2  2  0  0  0  0
  8 18  1  0  0  0  0
  9  4  2  0  0  0  0
  9  6  1  0  0  0  0
 10 15  1  0  0  0  0
 10 20  1  0  0  0  0
 12  8  2  0  0  0  0
 12  4  1  0  0  0  0
 13 19  1  0  0  0  0
 14 10  2  0  0  0  0
 15 13  2  0  0  0  0
 16  6  1  0  0  0  0
 17  2  1  0  0  0  0
 18 14  1  0  0  0  0
 18  5  2  0  0  0  0
 20 11  1  6  0  0  0
 20  1  1  0  0  0  0
 21 24  2  0  0  0  0
 21 22  1  0  0  0  0
 22 26  2  0  0  0  0
 23 27  1  0  0  0  0
 24 28  1  0  0  0  0
 26 23  1  0  0  0  0
 26 25  1  0  0  0  0
 28 23  2  0  0  0  0
M  END
>  <MODEL>
9

>  <REMARK>
 VINA RESULT:      -7.5      3.246      6.656
  Name = 
  1 active torsions:
  status: ('A' for Active; 'I' for Inactive)
    1  A    between atoms: C_1  and  C_2
                            x       y       z     vdW  Elec       q    Type
                         _______ _______ _______ _____ _____    ______ ____

>  <TORSDO>
F 1

$$$$
