=
 OpenBabel11052417433D

 31 34  0  0  1  0  0  0  0  0999 V2000
  188.8710  175.8230  144.7800 C   0  0  0  0  0  0  0  0  0  0  0  0
  187.8130  176.5170  145.4280 C   0  0  0  0  0  0  0  0  0  0  0  0
  185.9990  178.1450  145.4100 C   0  0  0  0  0  3  0  0  0  0  0  0
  187.0340  177.4750  144.7550 C   0  0  0  0  0  3  0  0  0  0  0  0
  188.2640  175.2960  147.4880 C   0  0  0  0  0  3  0  0  0  0  0  0
  185.7260  177.8690  146.7520 C   0  0  0  0  0  0  0  0  0  0  0  0
  189.6100  174.8640  145.5110 C   0  0  0  0  0  0  0  0  0  0  0  0
  184.6250  178.5840  147.4470 C   0  0  0  0  0  1  0  0  0  0  0  0
  189.2940  174.6090  146.8540 C   0  0  0  0  0  3  0  0  0  0  0  0
  187.5240  176.2450  146.7900 C   0  0  0  0  0  0  0  0  0  0  0  0
  186.4870  176.9210  147.4400 C   0  0  0  0  0  3  0  0  0  0  0  0
  188.1450  176.2670  141.2450 O   0  0  0  0  0  0  0  0  0  0  0  0
  189.2290  176.0550  143.3270 C   0  0  1  0  0  3  0  0  0  0  0  0
  188.3770  177.5720  141.7160 C   0  0  0  0  0  2  0  0  0  0  0  0
  188.2290  175.4400  142.3770 C   0  0  0  0  0  2  0  0  0  0  0  0
  189.2630  177.5070  142.9480 C   0  0  2  0  0  3  0  0  0  0  0  0
  191.3780  178.4800  143.8150 C   0  0  0  0  0  1  0  0  0  0  0  0
  190.6850  177.9030  142.5960 C   0  0  0  0  0  2  0  0  0  0  0  0
  190.7000  174.0610  144.8520 C   0  0  2  0  0  3  0  0  0  0  0  0
  190.2870  172.6740  144.7240 N   0  0  0  0  0  1  0  0  0  0  0  0
  192.0070  174.1390  145.6340 C   0  0  0  0  0  2  0  0  0  0  0  0
  192.9480  176.2550  146.4770 C   0  0  0  0  0  1  0  0  0  0  0  0
  192.7870  175.3810  145.2460 C   0  0  1  0  0  3  0  0  0  0  0  0
  194.0670  174.9920  144.7510 O   0  0  0  0  0  0  0  0  0  0  0  0
  195.0160  176.0900  141.3360 C   0  0  0  0  0  0  0  0  0  0  0  0
  196.7980  176.8530  142.9120 C   0  0  0  0  0  2  0  0  0  0  0  0
  194.6250  175.8230  140.1700 O   0  0  0  0  0  0  0  0  0  0  0  0
  194.0570  176.0370  142.4890 C   0  0  0  0  0  2  0  0  0  0  0  0
  196.0550  176.0640  143.9540 C   0  0  0  0  0  3  0  0  0  0  0  0
  194.7760  175.6940  143.7680 C   0  0  0  0  0  0  0  0  0  0  0  0
  196.3820  176.4400  141.5750 N   0  0  0  0  0  2  0  0  0  0  0  0
  1  2  2  0  0  0  0
  1  7  1  0  0  0  0
  2 10  1  0  0  0  0
  3  6  1  0  0  0  0
  4  3  2  0  0  0  0
  4  2  1  0  0  0  0
  6 11  2  0  0  0  0
  6  8  1  0  0  0  0
  7  9  2  0  0  0  0
  9  5  1  0  0  0  0
 10 11  1  0  0  0  0
 10  5  2  0  0  0  0
 12 14  1  0  0  0  0
 12 15  1  0  0  0  0
 13  1  1  1  0  0  0
 14 16  1  0  0  0  0
 15 13  1  0  0  0  0
 16 18  1  6  0  0  0
 16 13  1  0  0  0  0
 18 17  1  0  0  0  0
 19 20  1  1  0  0  0
 19  7  1  0  0  0  0
 19 21  1  0  0  0  0
 23 21  1  0  0  0  0
 23 22  1  1  0  0  0
 24 23  1  0  0  0  0
 25 31  1  0  0  0  0
 25 28  1  0  0  0  0
 26 29  1  0  0  0  0
 27 25  2  0  0  0  0
 28 30  1  0  0  0  0
 30 29  2  0  0  0  0
 30 24  1  0  0  0  0
 31 26  1  0  0  0  0
M  END
>  <MODEL>
1

>  <REMARK>
 VINA RESULT:      -7.6      0.000      0.000
  Name = 
  7 active torsions:
  status: ('A' for Active; 'I' for Inactive)
    1  A    between atoms: O_3  and  C_9
    2  A    between atoms: O_3  and  C_22
    3  A    between atoms: C_4  and  C_12
    4  A    between atoms: C_9  and  C_23
    5  A    between atoms: C_15  and  C_21
    6  A    between atoms: C_15  and  C_23
    7  A    between atoms: C_27  and  C_28
                            x       y       z     vdW  Elec       q    Type
                         _______ _______ _______ _____ _____    ______ ____

>  <TORSDO>
F 7

$$$$
=
 OpenBabel11052417433D

 31 34  0  0  1  0  0  0  0  0999 V2000
  188.9270  176.1040  144.9900 C   0  0  0  0  0  0  0  0  0  0  0  0
  187.7030  176.6680  145.4420 C   0  0  0  0  0  0  0  0  0  0  0  0
  185.7310  178.0570  145.0880 C   0  0  0  0  0  3  0  0  0  0  0  0
  186.9310  177.5130  144.6250 C   0  0  0  0  0  3  0  0  0  0  0  0
  187.9640  175.5380  147.5850 C   0  0  0  0  0  3  0  0  0  0  0  0
  185.2840  177.7650  146.3780 C   0  0  0  0  0  0  0  0  0  0  0  0
  189.6510  175.2530  145.8580 C   0  0  0  0  0  0  0  0  0  0  0  0
  184.0070  178.3460  146.8690 C   0  0  0  0  0  1  0  0  0  0  0  0
  189.1580  174.9770  147.1420 C   0  0  0  0  0  3  0  0  0  0  0  0
  187.2360  176.3790  146.7490 C   0  0  0  0  0  0  0  0  0  0  0  0
  186.0340  176.9280  147.2070 C   0  0  0  0  0  3  0  0  0  0  0  0
  188.6910  176.8880  141.4480 O   0  0  0  0  0  0  0  0  0  0  0  0
  189.4810  176.3600  143.6040 C   0  0  1  0  0  3  0  0  0  0  0  0
  189.0810  178.1000  142.0440 C   0  0  0  0  0  2  0  0  0  0  0  0
  188.5070  175.9890  142.5110 C   0  0  0  0  0  2  0  0  0  0  0  0
  189.7980  177.8060  143.3500 C   0  0  2  0  0  3  0  0  0  0  0  0
  191.9230  176.6390  142.8020 C   0  0  0  0  0  1  0  0  0  0  0  0
  191.2970  177.9690  143.1760 C   0  0  0  0  0  2  0  0  0  0  0  0
  190.9210  174.5840  145.4030 C   0  0  2  0  0  3  0  0  0  0  0  0
  190.6520  173.2040  145.0390 N   0  0  0  0  0  1  0  0  0  0  0  0
  191.9980  174.6320  146.4810 C   0  0  0  0  0  2  0  0  0  0  0  0
  192.1810  176.7810  147.6730 C   0  0  0  0  0  1  0  0  0  0  0  0
  192.6880  175.9830  146.4860 C   0  0  1  0  0  3  0  0  0  0  0  0
  194.0970  175.7860  146.5940 O   0  0  0  0  0  0  0  0  0  0  0  0
  196.9770  174.4470  144.6750 C   0  0  0  0  0  0  0  0  0  0  0  0
  196.0340  176.3770  143.4000 C   0  0  0  0  0  2  0  0  0  0  0  0
  197.9200  173.6490  144.9180 O   0  0  0  0  0  0  0  0  0  0  0  0
  195.6490  174.2810  145.3540 C   0  0  0  0  0  2  0  0  0  0  0  0
  195.1470  176.5860  144.5950 C   0  0  0  0  0  3  0  0  0  0  0  0
  194.9530  175.6110  145.4990 C   0  0  0  0  0  0  0  0  0  0  0  0
  197.1650  175.5250  143.7550 N   0  0  0  0  0  2  0  0  0  0  0  0
  1  2  2  0  0  0  0
  1  7  1  0  0  0  0
  2 10  1  0  0  0  0
  3  6  1  0  0  0  0
  4  3  2  0  0  0  0
  4  2  1  0  0  0  0
  6  8  1  0  0  0  0
  6 11  2  0  0  0  0
  7  9  2  0  0  0  0
  9  5  1  0  0  0  0
 10 11  1  0  0  0  0
 10  5  2  0  0  0  0
 12 14  1  0  0  0  0
 12 15  1  0  0  0  0
 13  1  1  1  0  0  0
 14 16  1  0  0  0  0
 15 13  1  0  0  0  0
 16 18  1  6  0  0  0
 16 13  1  0  0  0  0
 17 18  1  0  0  0  0
 19 20  1  1  0  0  0
 19  7  1  0  0  0  0
 19 21  1  0  0  0  0
 21 23  1  0  0  0  0
 23 24  1  0  0  0  0
 23 22  1  1  0  0  0
 25 27  2  0  0  0  0
 25 28  1  0  0  0  0
 26 31  1  0  0  0  0
 26 29  1  0  0  0  0
 28 30  1  0  0  0  0
 29 30  2  0  0  0  0
 30 24  1  0  0  0  0
 31 25  1  0  0  0  0
M  END
>  <MODEL>
2

>  <REMARK>
 VINA RESULT:      -7.5      1.528      1.818
  Name = 
  7 active torsions:
  status: ('A' for Active; 'I' for Inactive)
    1  A    between atoms: O_3  and  C_9
    2  A    between atoms: O_3  and  C_22
    3  A    between atoms: C_4  and  C_12
    4  A    between atoms: C_9  and  C_23
    5  A    between atoms: C_15  and  C_21
    6  A    between atoms: C_15  and  C_23
    7  A    between atoms: C_27  and  C_28
                            x       y       z     vdW  Elec       q    Type
                         _______ _______ _______ _____ _____    ______ ____

>  <TORSDO>
F 7

$$$$
=
 OpenBabel11052417433D

 31 34  0  0  1  0  0  0  0  0999 V2000
  187.6590  177.8420  144.1610 C   0  0  0  0  0  0  0  0  0  0  0  0
  186.4950  177.9420  143.3520 C   0  0  0  0  0  0  0  0  0  0  0  0
  184.0810  178.1560  143.0990 C   0  0  0  0  0  3  0  0  0  0  0  0
  185.2110  178.0590  143.9120 C   0  0  0  0  0  3  0  0  0  0  0  0
  187.8730  177.8220  141.3450 C   0  0  0  0  0  3  0  0  0  0  0  0
  184.2160  178.1370  141.7090 C   0  0  0  0  0  0  0  0  0  0  0  0
  188.9230  177.7370  143.5350 C   0  0  0  0  0  0  0  0  0  0  0  0
  183.0110  178.2400  140.8450 C   0  0  0  0  0  1  0  0  0  0  0  0
  189.0140  177.7340  142.1350 C   0  0  0  0  0  3  0  0  0  0  0  0
  186.6180  177.9250  141.9390 C   0  0  0  0  0  0  0  0  0  0  0  0
  185.4820  178.0220  141.1310 C   0  0  0  0  0  3  0  0  0  0  0  0
  185.9950  178.0200  147.3890 O   0  0  0  0  0  0  0  0  0  0  0  0
  187.6040  177.8630  145.6750 C   0  0  1  0  0  3  0  0  0  0  0  0
  186.2750  176.6530  147.2210 C   0  0  0  0  0  2  0  0  0  0  0  0
  186.4210  178.6390  146.2030 C   0  0  0  0  0  2  0  0  0  0  0  0
  187.4600  176.4980  146.2830 C   0  0  2  0  0  3  0  0  0  0  0  0
  188.9490  174.6630  147.0510 C   0  0  0  0  0  1  0  0  0  0  0  0
  188.7140  176.1610  147.0690 C   0  0  0  0  0  2  0  0  0  0  0  0
  190.1890  177.6880  144.3500 C   0  0  2  0  0  3  0  0  0  0  0  0
  191.1180  178.7030  143.8830 N   0  0  0  0  0  1  0  0  0  0  0  0
  190.8490  176.3160  144.2820 C   0  0  0  0  0  2  0  0  0  0  0  0
  192.3770  176.2110  146.2120 C   0  0  0  0  0  1  0  0  0  0  0  0
  192.3030  176.4030  144.7090 C   0  0  1  0  0  3  0  0  0  0  0  0
  193.0440  175.3790  144.0470 O   0  0  0  0  0  0  0  0  0  0  0  0
  196.3160  176.5770  142.7740 C   0  0  0  0  0  0  0  0  0  0  0  0
  194.8790  176.0330  140.8060 C   0  0  0  0  0  2  0  0  0  0  0  0
  197.3120  177.1620  143.2770 O   0  0  0  0  0  0  0  0  0  0  0  0
  195.4810  175.6490  143.6070 C   0  0  0  0  0  2  0  0  0  0  0  0
  193.7820  175.8140  141.8110 C   0  0  0  0  0  3  0  0  0  0  0  0
  194.0580  175.6220  143.1120 C   0  0  0  0  0  0  0  0  0  0  0  0
  195.9680  176.7980  141.4050 N   0  0  0  0  0  2  0  0  0  0  0  0
  2  4  1  0  0  0  0
  2  1  2  0  0  0  0
  3  4  2  0  0  0  0
  5 10  2  0  0  0  0
  5  9  1  0  0  0  0
  6  3  1  0  0  0  0
  7  1  1  0  0  0  0
  7 19  1  0  0  0  0
  8  6  1  0  0  0  0
  9  7  2  0  0  0  0
 10  2  1  0  0  0  0
 11  6  2  0  0  0  0
 11 10  1  0  0  0  0
 13  1  1  6  0  0  0
 13 15  1  0  0  0  0
 13 16  1  0  0  0  0
 14 12  1  0  0  0  0
 15 12  1  0  0  0  0
 16 18  1  1  0  0  0
 16 14  1  0  0  0  0
 17 18  1  0  0  0  0
 19 20  1  6  0  0  0
 21 19  1  0  0  0  0
 21 23  1  0  0  0  0
 23 22  1  1  0  0  0
 24 23  1  0  0  0  0
 25 27  2  0  0  0  0
 25 28  1  0  0  0  0
 26 31  1  0  0  0  0
 26 29  1  0  0  0  0
 29 30  2  0  0  0  0
 30 28  1  0  0  0  0
 30 24  1  0  0  0  0
 31 25  1  0  0  0  0
M  END
>  <MODEL>
3

>  <REMARK>
 VINA RESULT:      -7.5      2.493      4.260
  Name = 
  7 active torsions:
  status: ('A' for Active; 'I' for Inactive)
    1  A    between atoms: O_3  and  C_9
    2  A    between atoms: O_3  and  C_22
    3  A    between atoms: C_4  and  C_12
    4  A    between atoms: C_9  and  C_23
    5  A    between atoms: C_15  and  C_21
    6  A    between atoms: C_15  and  C_23
    7  A    between atoms: C_27  and  C_28
                            x       y       z     vdW  Elec       q    Type
                         _______ _______ _______ _____ _____    ______ ____

>  <TORSDO>
F 7

$$$$
=
 OpenBabel11052417433D

 31 34  0  0  1  0  0  0  0  0999 V2000
  189.1250  175.9970  144.9560 C   0  0  0  0  0  0  0  0  0  0  0  0
  187.9770  176.6150  145.5250 C   0  0  0  0  0  0  0  0  0  0  0  0
  186.1060  178.1710  145.3990 C   0  0  0  0  0  3  0  0  0  0  0  0
  187.2290  177.5760  144.8220 C   0  0  0  0  0  3  0  0  0  0  0  0
  188.2720  175.3070  147.5590 C   0  0  0  0  0  3  0  0  0  0  0  0
  185.7120  177.8150  146.6900 C   0  0  0  0  0  0  0  0  0  0  0  0
  189.8280  175.0310  145.7110 C   0  0  0  0  0  0  0  0  0  0  0  0
  184.5160  178.4500  147.3030 C   0  0  0  0  0  1  0  0  0  0  0  0
  189.3900  174.6940  147.0010 C   0  0  0  0  0  3  0  0  0  0  0  0
  187.5660  176.2620  146.8350 C   0  0  0  0  0  0  0  0  0  0  0  0
  186.4400  176.8630  147.4070 C   0  0  0  0  0  3  0  0  0  0  0  0
  188.7270  176.9020  141.4570 O   0  0  0  0  0  0  0  0  0  0  0  0
  189.6160  176.3180  143.5590 C   0  0  1  0  0  3  0  0  0  0  0  0
  189.1100  178.1010  142.0820 C   0  0  0  0  0  2  0  0  0  0  0  0
  188.6090  175.9610  142.4920 C   0  0  0  0  0  2  0  0  0  0  0  0
  189.8870  177.7790  143.3460 C   0  0  2  0  0  3  0  0  0  0  0  0
  192.0240  176.6800  142.7170 C   0  0  0  0  0  1  0  0  0  0  0  0
  191.3730  177.9890  143.1210 C   0  0  0  0  0  2  0  0  0  0  0  0
  191.0130  174.3060  145.1300 C   0  0  2  0  0  3  0  0  0  0  0  0
  190.6300  172.9570  144.7480 N   0  0  0  0  0  1  0  0  0  0  0  0
  192.1770  174.2520  146.1120 C   0  0  0  0  0  2  0  0  0  0  0  0
  192.7370  176.5290  146.8700 C   0  0  0  0  0  1  0  0  0  0  0  0
  193.1110  175.4270  145.8950 C   0  0  1  0  0  3  0  0  0  0  0  0
  194.4540  175.0040  146.1270 O   0  0  0  0  0  0  0  0  0  0  0  0
  196.1300  176.0820  142.9980 C   0  0  0  0  0  0  0  0  0  0  0  0
  197.6830  174.5500  144.2130 C   0  0  0  0  0  2  0  0  0  0  0  0
  195.7640  176.6610  141.9410 O   0  0  0  0  0  0  0  0  0  0  0  0
  195.4450  176.3770  144.3000 C   0  0  0  0  0  2  0  0  0  0  0  0
  196.5400  174.3290  145.1630 C   0  0  0  0  0  3  0  0  0  0  0  0
  195.5040  175.1830  145.2180 C   0  0  0  0  0  0  0  0  0  0  0  0
  197.1970  175.1320  142.9660 N   0  0  0  0  0  2  0  0  0  0  0  0
  1  2  2  0  0  0  0
  1  7  1  0  0  0  0
  2 10  1  0  0  0  0
  3  6  1  0  0  0  0
  4  3  2  0  0  0  0
  4  2  1  0  0  0  0
  6  8  1  0  0  0  0
  6 11  2  0  0  0  0
  7  9  2  0  0  0  0
  9  5  1  0  0  0  0
 10 11  1  0  0  0  0
 10  5  2  0  0  0  0
 12 14  1  0  0  0  0
 12 15  1  0  0  0  0
 13  1  1  1  0  0  0
 14 16  1  0  0  0  0
 15 13  1  0  0  0  0
 16 18  1  6  0  0  0
 16 13  1  0  0  0  0
 17 18  1  0  0  0  0
 19 20  1  1  0  0  0
 19  7  1  0  0  0  0
 19 21  1  0  0  0  0
 23 21  1  0  0  0  0
 23 24  1  0  0  0  0
 23 22  1  1  0  0  0
 25 28  1  0  0  0  0
 26 29  1  0  0  0  0
 27 25  2  0  0  0  0
 28 30  1  0  0  0  0
 29 30  2  0  0  0  0
 30 24  1  0  0  0  0
 31 25  1  0  0  0  0
 31 26  1  0  0  0  0
M  END
>  <MODEL>
4

>  <REMARK>
 VINA RESULT:      -7.5      1.054      1.229
  Name = 
  7 active torsions:
  status: ('A' for Active; 'I' for Inactive)
    1  A    between atoms: O_3  and  C_9
    2  A    between atoms: O_3  and  C_22
    3  A    between atoms: C_4  and  C_12
    4  A    between atoms: C_9  and  C_23
    5  A    between atoms: C_15  and  C_21
    6  A    between atoms: C_15  and  C_23
    7  A    between atoms: C_27  and  C_28
                            x       y       z     vdW  Elec       q    Type
                         _______ _______ _______ _____ _____    ______ ____

>  <TORSDO>
F 7

$$$$
=
 OpenBabel11052417433D

 31 34  0  0  1  0  0  0  0  0999 V2000
  185.9520  178.0580  142.7540 C   0  0  0  0  0  0  0  0  0  0  0  0
  184.6560  178.1850  142.1840 C   0  0  0  0  0  0  0  0  0  0  0  0
  182.2750  178.6700  142.3770 C   0  0  0  0  0  3  0  0  0  0  0  0
  183.5400  178.5510  142.9560 C   0  0  0  0  0  3  0  0  0  0  0  0
  185.5520  177.5870  139.9980 C   0  0  0  0  0  3  0  0  0  0  0  0
  182.1070  178.4250  141.0120 C   0  0  0  0  0  0  0  0  0  0  0  0
  187.0360  177.6960  141.9200 C   0  0  0  0  0  0  0  0  0  0  0  0
  180.7600  178.5520  140.3970 C   0  0  0  0  0  1  0  0  0  0  0  0
  186.8230  177.4710  140.5520 C   0  0  0  0  0  3  0  0  0  0  0  0
  184.4700  177.9400  140.7990 C   0  0  0  0  0  0  0  0  0  0  0  0
  183.2010  178.0610  140.2260 C   0  0  0  0  0  3  0  0  0  0  0  0
  185.2560  179.4680  146.0320 O   0  0  0  0  0  0  0  0  0  0  0  0
  186.2260  178.3130  144.2220 C   0  0  1  0  0  3  0  0  0  0  0  0
  184.8440  178.1280  146.1390 C   0  0  0  0  0  2  0  0  0  0  0  0
  185.6610  179.6310  144.6980 C   0  0  0  0  0  2  0  0  0  0  0  0
  185.6070  177.2900  145.1290 C   0  0  2  0  0  3  0  0  0  0  0  0
  186.6060  176.6850  147.3220 C   0  0  0  0  0  1  0  0  0  0  0  0
  186.7040  176.5000  145.8200 C   0  0  0  0  0  2  0  0  0  0  0  0
  188.4360  177.6080  142.4660 C   0  0  2  0  0  3  0  0  0  0  0  0
  189.2350  178.7140  141.9660 N   0  0  0  0  0  1  0  0  0  0  0  0
  189.1010  176.2860  142.0970 C   0  0  0  0  0  2  0  0  0  0  0  0
  188.0490  174.0590  142.1930 C   0  0  0  0  0  1  0  0  0  0  0  0
  188.6400  175.1800  143.0280 C   0  0  1  0  0  3  0  0  0  0  0  0
  189.7600  174.7000  143.7700 O   0  0  0  0  0  0  0  0  0  0  0  0
  191.7740  176.1490  146.5280 C   0  0  0  0  0  0  0  0  0  0  0  0
  189.8550  174.9150  147.5440 C   0  0  0  0  0  2  0  0  0  0  0  0
  192.9150  176.6710  146.6230 O   0  0  0  0  0  0  0  0  0  0  0  0
  190.9840  176.2780  145.2590 C   0  0  0  0  0  2  0  0  0  0  0  0
  189.5550  174.4570  146.1440 C   0  0  0  0  0  3  0  0  0  0  0  0
  190.0660  175.0960  145.0780 C   0  0  0  0  0  0  0  0  0  0  0  0
  191.2210  175.4210  147.6280 N   0  0  0  0  0  2  0  0  0  0  0  0
  2  1  1  0  0  0  0
  2  4  1  0  0  0  0
  3  4  2  0  0  0  0
  5  9  2  0  0  0  0
  5 10  1  0  0  0  0
  6  3  1  0  0  0  0
  7 19  1  0  0  0  0
  7  1  2  0  0  0  0
  8  6  1  0  0  0  0
  9  7  1  0  0  0  0
 10  2  2  0  0  0  0
 11 10  1  0  0  0  0
 11  6  2  0  0  0  0
 12 14  1  0  0  0  0
 13  1  1  6  0  0  0
 13 15  1  0  0  0  0
 13 16  1  0  0  0  0
 15 12  1  0  0  0  0
 16 18  1  1  0  0  0
 16 14  1  0  0  0  0
 18 17  1  0  0  0  0
 19 20  1  6  0  0  0
 21 19  1  0  0  0  0
 21 23  1  0  0  0  0
 23 22  1  6  0  0  0
 23 24  1  0  0  0  0
 24 30  1  0  0  0  0
 25 27  2  0  0  0  0
 25 31  1  0  0  0  0
 26 31  1  0  0  0  0
 28 25  1  0  0  0  0
 29 26  1  0  0  0  0
 30 28  1  0  0  0  0
 30 29  2  0  0  0  0
M  END
>  <MODEL>
5

>  <REMARK>
 VINA RESULT:      -7.4      3.337      6.096
  Name = 
  7 active torsions:
  status: ('A' for Active; 'I' for Inactive)
    1  A    between atoms: O_3  and  C_9
    2  A    between atoms: O_3  and  C_22
    3  A    between atoms: C_4  and  C_12
    4  A    between atoms: C_9  and  C_23
    5  A    between atoms: C_15  and  C_21
    6  A    between atoms: C_15  and  C_23
    7  A    between atoms: C_27  and  C_28
                            x       y       z     vdW  Elec       q    Type
                         _______ _______ _______ _____ _____    ______ ____

>  <TORSDO>
F 7

$$$$
=
 OpenBabel11052417433D

 31 34  0  0  1  0  0  0  0  0999 V2000
  186.8800  177.8310  143.5640 C   0  0  0  0  0  0  0  0  0  0  0  0
  185.6780  177.9860  142.8210 C   0  0  0  0  0  0  0  0  0  0  0  0
  183.2860  178.4360  142.6990 C   0  0  0  0  0  3  0  0  0  0  0  0
  184.4560  178.2890  143.4470 C   0  0  0  0  0  3  0  0  0  0  0  0
  186.8890  177.5430  140.7540 C   0  0  0  0  0  3  0  0  0  0  0  0
  183.3190  178.2820  141.3120 C   0  0  0  0  0  0  0  0  0  0  0  0
  188.0790  177.5360  142.8740 C   0  0  0  0  0  0  0  0  0  0  0  0
  182.0730  178.4390  140.5180 C   0  0  0  0  0  1  0  0  0  0  0  0
  188.0690  177.4010  141.4770 C   0  0  0  0  0  3  0  0  0  0  0  0
  185.6980  177.8320  141.4120 C   0  0  0  0  0  0  0  0  0  0  0  0
  184.5220  177.9810  140.6690 C   0  0  0  0  0  3  0  0  0  0  0  0
  185.5340  178.6800  146.8330 O   0  0  0  0  0  0  0  0  0  0  0  0
  186.9360  177.9900  145.0700 C   0  0  1  0  0  3  0  0  0  0  0  0
  185.4630  177.2760  146.7850 C   0  0  0  0  0  2  0  0  0  0  0  0
  186.0140  179.0740  145.5740 C   0  0  0  0  0  2  0  0  0  0  0  0
  186.5080  176.7570  145.8120 C   0  0  2  0  0  3  0  0  0  0  0  0
  188.6620  177.3000  146.9270 C   0  0  0  0  0  1  0  0  0  0  0  0
  187.6950  176.1880  146.5680 C   0  0  0  0  0  2  0  0  0  0  0  0
  189.3880  177.4220  143.6090 C   0  0  2  0  0  3  0  0  0  0  0  0
  190.1320  178.6650  143.4930 N   0  0  0  0  0  1  0  0  0  0  0  0
  190.2310  176.2670  143.0820 C   0  0  0  0  0  2  0  0  0  0  0  0
  189.2820  174.0080  143.3490 C   0  0  0  0  0  1  0  0  0  0  0  0
  190.1390  175.0720  144.0110 C   0  0  1  0  0  3  0  0  0  0  0  0
  191.4510  174.5650  144.2500 O   0  0  0  0  0  0  0  0  0  0  0  0
  192.5170  176.4420  147.2670 C   0  0  0  0  0  0  0  0  0  0  0  0
  194.5600  175.9000  145.9380 C   0  0  0  0  0  2  0  0  0  0  0  0
  191.9310  177.1230  148.1500 O   0  0  0  0  0  0  0  0  0  0  0  0
  191.8130  175.2940  146.6050 C   0  0  0  0  0  2  0  0  0  0  0  0
  193.6080  175.3810  144.8980 C   0  0  0  0  0  3  0  0  0  0  0  0
  192.3330  175.0850  145.2050 C   0  0  0  0  0  0  0  0  0  0  0  0
  193.8560  176.7620  146.8820 N   0  0  0  0  0  2  0  0  0  0  0  0
  2  4  1  0  0  0  0
  2  1  2  0  0  0  0
  3  4  2  0  0  0  0
  5 10  2  0  0  0  0
  5  9  1  0  0  0  0
  6  3  1  0  0  0  0
  7  1  1  0  0  0  0
  7 19  1  0  0  0  0
  8  6  1  0  0  0  0
  9  7  2  0  0  0  0
 10  2  1  0  0  0  0
 11  6  2  0  0  0  0
 11 10  1  0  0  0  0
 13  1  1  6  0  0  0
 13 15  1  0  0  0  0
 13 16  1  0  0  0  0
 14 12  1  0  0  0  0
 15 12  1  0  0  0  0
 16 18  1  1  0  0  0
 16 14  1  0  0  0  0
 18 17  1  0  0  0  0
 19 20  1  6  0  0  0
 21 19  1  0  0  0  0
 21 23  1  0  0  0  0
 23 22  1  6  0  0  0
 23 24  1  0  0  0  0
 24 30  1  0  0  0  0
 25 27  2  0  0  0  0
 26 31  1  0  0  0  0
 28 25  1  0  0  0  0
 29 30  2  0  0  0  0
 29 26  1  0  0  0  0
 30 28  1  0  0  0  0
 31 25  1  0  0  0  0
M  END
>  <MODEL>
6

>  <REMARK>
 VINA RESULT:      -7.4      3.029      5.152
  Name = 
  7 active torsions:
  status: ('A' for Active; 'I' for Inactive)
    1  A    between atoms: O_3  and  C_9
    2  A    between atoms: O_3  and  C_22
    3  A    between atoms: C_4  and  C_12
    4  A    between atoms: C_9  and  C_23
    5  A    between atoms: C_15  and  C_21
    6  A    between atoms: C_15  and  C_23
    7  A    between atoms: C_27  and  C_28
                            x       y       z     vdW  Elec       q    Type
                         _______ _______ _______ _____ _____    ______ ____

>  <TORSDO>
F 7

$$$$
=
 OpenBabel11052417433D

 31 34  0  0  1  0  0  0  0  0999 V2000
  192.1370  175.3080  144.4150 C   0  0  0  0  0  0  0  0  0  0  0  0
  193.4420  174.8110  144.6820 C   0  0  0  0  0  0  0  0  0  0  0  0
  195.3380  173.3830  144.1290 C   0  0  0  0  0  3  0  0  0  0  0  0
  194.0560  173.8590  143.8490 C   0  0  0  0  0  3  0  0  0  0  0  0
  193.5870  176.2310  146.6570 C   0  0  0  0  0  3  0  0  0  0  0  0
  196.0280  173.8520  145.2490 C   0  0  0  0  0  0  0  0  0  0  0  0
  191.5800  176.2730  145.2860 C   0  0  0  0  0  0  0  0  0  0  0  0
  197.3930  173.3440  145.5450 C   0  0  0  0  0  1  0  0  0  0  0  0
  192.3140  176.7260  146.3920 C   0  0  0  0  0  3  0  0  0  0  0  0
  194.1550  175.2790  145.8140 C   0  0  0  0  0  0  0  0  0  0  0  0
  195.4380  174.7980  146.0890 C   0  0  0  0  0  3  0  0  0  0  0  0
  191.6710  173.9240  141.0850 O   0  0  0  0  0  0  0  0  0  0  0  0
  191.3220  174.8600  143.2190 C   0  0  1  0  0  3  0  0  0  0  0  0
  191.3560  172.8590  141.9490 C   0  0  0  0  0  2  0  0  0  0  0  0
  192.0840  174.9740  141.9210 C   0  0  0  0  0  2  0  0  0  0  0  0
  190.9100  173.4180  143.2880 C   0  0  2  0  0  3  0  0  0  0  0  0
  188.7550  174.5470  142.7800 C   0  0  0  0  0  1  0  0  0  0  0  0
  189.4000  173.3320  143.4190 C   0  0  0  0  0  2  0  0  0  0  0  0
  190.2260  176.8730  145.0120 C   0  0  2  0  0  3  0  0  0  0  0  0
  190.3790  178.1760  144.3860 N   0  0  0  0  0  1  0  0  0  0  0  0
  189.4020  177.0090  146.2870 C   0  0  0  0  0  2  0  0  0  0  0  0
  189.0150  174.7750  147.2520 C   0  0  0  0  0  1  0  0  0  0  0  0
  188.4040  175.8720  146.4000 C   0  0  1  0  0  3  0  0  0  0  0  0
  187.2110  176.3590  147.0110 O   0  0  0  0  0  0  0  0  0  0  0  0
  185.4570  177.8960  144.1250 C   0  0  0  0  0  0  0  0  0  0  0  0
  184.1710  178.4540  146.1920 C   0  0  0  0  0  2  0  0  0  0  0  0
  185.7420  178.1140  142.9190 O   0  0  0  0  0  0  0  0  0  0  0  0
  186.0400  176.7120  144.8400 C   0  0  0  0  0  2  0  0  0  0  0  0
  185.3080  177.8120  146.9360 C   0  0  0  0  0  3  0  0  0  0  0  0
  186.1720  176.9910  146.3160 C   0  0  0  0  0  0  0  0  0  0  0  0
  184.5790  178.7780  144.8290 N   0  0  0  0  0  2  0  0  0  0  0  0
  1  2  2  0  0  0  0
  1  7  1  0  0  0  0
  2 10  1  0  0  0  0
  3  6  1  0  0  0  0
  4  3  2  0  0  0  0
  4  2  1  0  0  0  0
  6  8  1  0  0  0  0
  6 11  2  0  0  0  0
  7  9  2  0  0  0  0
  9  5  1  0  0  0  0
 10 11  1  0  0  0  0
 10  5  2  0  0  0  0
 12 15  1  0  0  0  0
 12 14  1  0  0  0  0
 13 16  1  0  0  0  0
 13  1  1  1  0  0  0
 14 16  1  0  0  0  0
 15 13  1  0  0  0  0
 16 18  1  6  0  0  0
 17 18  1  0  0  0  0
 19 20  1  1  0  0  0
 19  7  1  0  0  0  0
 19 21  1  0  0  0  0
 21 23  1  0  0  0  0
 23 24  1  0  0  0  0
 23 22  1  1  0  0  0
 25 31  1  0  0  0  0
 25 28  1  0  0  0  0
 26 29  1  0  0  0  0
 27 25  2  0  0  0  0
 28 30  1  0  0  0  0
 30 29  2  0  0  0  0
 30 24  1  0  0  0  0
 31 26  1  0  0  0  0
M  END
>  <MODEL>
7

>  <REMARK>
 VINA RESULT:      -7.2      2.806      7.635
  Name = 
  7 active torsions:
  status: ('A' for Active; 'I' for Inactive)
    1  A    between atoms: O_3  and  C_9
    2  A    between atoms: O_3  and  C_22
    3  A    between atoms: C_4  and  C_12
    4  A    between atoms: C_9  and  C_23
    5  A    between atoms: C_15  and  C_21
    6  A    between atoms: C_15  and  C_23
    7  A    between atoms: C_27  and  C_28
                            x       y       z     vdW  Elec       q    Type
                         _______ _______ _______ _____ _____    ______ ____

>  <TORSDO>
F 7

$$$$
=
 OpenBabel11052417433D

 31 34  0  0  1  0  0  0  0  0999 V2000
  186.6970  177.9730  143.6710 C   0  0  0  0  0  0  0  0  0  0  0  0
  185.5140  178.0560  142.8870 C   0  0  0  0  0  0  0  0  0  0  0  0
  183.1140  178.4240  142.6740 C   0  0  0  0  0  3  0  0  0  0  0  0
  184.2640  178.3470  143.4620 C   0  0  0  0  0  3  0  0  0  0  0  0
  186.8020  177.5640  140.8770 C   0  0  0  0  0  3  0  0  0  0  0  0
  183.1950  178.2100  141.2960 C   0  0  0  0  0  0  0  0  0  0  0  0
  187.9250  177.6870  143.0300 C   0  0  0  0  0  0  0  0  0  0  0  0
  181.9690  178.2920  140.4600 C   0  0  0  0  0  1  0  0  0  0  0  0
  187.9630  177.4910  141.6410 C   0  0  0  0  0  3  0  0  0  0  0  0
  185.5820  177.8420  141.4870 C   0  0  0  0  0  0  0  0  0  0  0  0
  184.4260  177.9200  140.7040 C   0  0  0  0  0  3  0  0  0  0  0  0
  185.2790  179.0660  146.8350 O   0  0  0  0  0  0  0  0  0  0  0  0
  186.7010  178.1990  145.1690 C   0  0  1  0  0  3  0  0  0  0  0  0
  185.1120  177.6700  146.8460 C   0  0  0  0  0  2  0  0  0  0  0  0
  185.8380  179.3670  145.5820 C   0  0  0  0  0  2  0  0  0  0  0  0
  186.1570  177.0350  145.9460 C   0  0  2  0  0  3  0  0  0  0  0  0
  188.2160  177.5070  147.2550 C   0  0  0  0  0  1  0  0  0  0  0  0
  187.2690  176.4230  146.7780 C   0  0  0  0  0  2  0  0  0  0  0  0
  189.2140  177.6470  143.8080 C   0  0  2  0  0  3  0  0  0  0  0  0
  190.2930  178.2010  143.0090 N   0  0  0  0  0  1  0  0  0  0  0  0
  189.5680  176.2280  144.2390 C   0  0  0  0  0  2  0  0  0  0  0  0
  191.4240  175.8240  145.8070 C   0  0  0  0  0  1  0  0  0  0  0  0
  191.0720  176.0660  144.3510 C   0  0  1  0  0  3  0  0  0  0  0  0
  191.4810  174.9530  143.5570 O   0  0  0  0  0  0  0  0  0  0  0  0
  188.8310  173.6760  141.2960 C   0  0  0  0  0  0  0  0  0  0  0  0
  189.2000  171.9740  143.0860 C   0  0  0  0  0  2  0  0  0  0  0  0
  188.1180  174.1720  140.3840 O   0  0  0  0  0  0  0  0  0  0  0  0
  190.2140  174.2020  141.5480 C   0  0  0  0  0  2  0  0  0  0  0  0
  190.1130  172.9930  143.7090 C   0  0  0  0  0  3  0  0  0  0  0  0
  190.5980  174.0220  142.9940 C   0  0  0  0  0  0  0  0  0  0  0  0
  188.3260  172.6120  142.1060 N   0  0  0  0  0  2  0  0  0  0  0  0
  2  4  1  0  0  0  0
  2  1  2  0  0  0  0
  3  4  2  0  0  0  0
  5 10  2  0  0  0  0
  5  9  1  0  0  0  0
  6  3  1  0  0  0  0
  7  1  1  0  0  0  0
  7 19  1  0  0  0  0
  8  6  1  0  0  0  0
  9  7  2  0  0  0  0
 10  2  1  0  0  0  0
 11  6  2  0  0  0  0
 11 10  1  0  0  0  0
 12 14  1  0  0  0  0
 13  1  1  6  0  0  0
 13 15  1  0  0  0  0
 13 16  1  0  0  0  0
 15 12  1  0  0  0  0
 16 18  1  1  0  0  0
 16 14  1  0  0  0  0
 18 17  1  0  0  0  0
 19 20  1  6  0  0  0
 19 21  1  0  0  0  0
 21 23  1  0  0  0  0
 23 22  1  1  0  0  0
 24 23  1  0  0  0  0
 25 28  1  0  0  0  0
 25 31  1  0  0  0  0
 26 29  1  0  0  0  0
 27 25  2  0  0  0  0
 28 30  1  0  0  0  0
 30 24  1  0  0  0  0
 30 29  2  0  0  0  0
 31 26  1  0  0  0  0
M  END
>  <MODEL>
8

>  <REMARK>
 VINA RESULT:      -7.2      2.963      5.532
  Name = 
  7 active torsions:
  status: ('A' for Active; 'I' for Inactive)
    1  A    between atoms: O_3  and  C_9
    2  A    between atoms: O_3  and  C_22
    3  A    between atoms: C_4  and  C_12
    4  A    between atoms: C_9  and  C_23
    5  A    between atoms: C_15  and  C_21
    6  A    between atoms: C_15  and  C_23
    7  A    between atoms: C_27  and  C_28
                            x       y       z     vdW  Elec       q    Type
                         _______ _______ _______ _____ _____    ______ ____

>  <TORSDO>
F 7

$$$$
=
 OpenBabel11052417433D

 31 34  0  0  1  0  0  0  0  0999 V2000
  188.9150  175.9080  144.8340 C   0  0  0  0  0  0  0  0  0  0  0  0
  187.8790  176.6020  145.5180 C   0  0  0  0  0  0  0  0  0  0  0  0
  186.1170  178.2840  145.5830 C   0  0  0  0  0  3  0  0  0  0  0  0
  187.1300  177.6140  144.8940 C   0  0  0  0  0  3  0  0  0  0  0  0
  188.2950  175.2700  147.5160 C   0  0  0  0  0  3  0  0  0  0  0  0
  185.8370  177.9520  146.9100 C   0  0  0  0  0  0  0  0  0  0  0  0
  189.6250  174.8920  145.5160 C   0  0  0  0  0  0  0  0  0  0  0  0
  184.7590  178.6660  147.6420 C   0  0  0  0  0  1  0  0  0  0  0  0
  189.3030  174.5820  146.8450 C   0  0  0  0  0  3  0  0  0  0  0  0
  187.5840  176.2740  146.8650 C   0  0  0  0  0  0  0  0  0  0  0  0
  186.5690  176.9490  147.5500 C   0  0  0  0  0  3  0  0  0  0  0  0
  188.1990  176.6900  141.3560 O   0  0  0  0  0  0  0  0  0  0  0  0
  189.2780  176.1980  143.3920 C   0  0  1  0  0  3  0  0  0  0  0  0
  188.5960  177.9190  141.9120 C   0  0  0  0  0  2  0  0  0  0  0  0
  188.1970  175.7790  142.4250 C   0  0  0  0  0  2  0  0  0  0  0  0
  189.4840  177.6590  143.1150 C   0  0  2  0  0  3  0  0  0  0  0  0
  191.7910  177.8730  144.0130 C   0  0  0  0  0  1  0  0  0  0  0  0
  190.9390  177.9030  142.7590 C   0  0  0  0  0  2  0  0  0  0  0  0
  190.6890  174.0890  144.8160 C   0  0  2  0  0  3  0  0  0  0  0  0
  190.2760  172.7000  144.7150 N   0  0  0  0  0  1  0  0  0  0  0  0
  192.0280  174.1760  145.5400 C   0  0  0  0  0  2  0  0  0  0  0  0
  193.4000  174.6480  143.5480 C   0  0  0  0  0  1  0  0  0  0  0  0
  193.1450  173.6470  144.6610 C   0  0  1  0  0  3  0  0  0  0  0  0
  194.3210  173.4830  145.4510 O   0  0  0  0  0  0  0  0  0  0  0  0
  194.9880  169.8950  146.1210 C   0  0  0  0  0  0  0  0  0  0  0  0
  197.1830  171.0320  145.7660 C   0  0  0  0  0  2  0  0  0  0  0  0
  194.3130  168.9260  146.5580 O   0  0  0  0  0  0  0  0  0  0  0  0
  194.3240  170.9930  145.3440 C   0  0  0  0  0  2  0  0  0  0  0  0
  196.3890  172.3070  145.7320 C   0  0  0  0  0  3  0  0  0  0  0  0
  195.0620  172.2960  145.5220 C   0  0  0  0  0  0  0  0  0  0  0  0
  196.3950  169.9610  146.3690 N   0  0  0  0  0  2  0  0  0  0  0  0
  1  7  2  0  0  0  0
  1  2  1  0  0  0  0
  2 10  1  0  0  0  0
  3  6  2  0  0  0  0
  4  2  2  0  0  0  0
  4  3  1  0  0  0  0
  6 11  1  0  0  0  0
  6  8  1  0  0  0  0
  7  9  1  0  0  0  0
  9  5  2  0  0  0  0
 10  5  1  0  0  0  0
 10 11  2  0  0  0  0
 12 14  1  0  0  0  0
 12 15  1  0  0  0  0
 13  1  1  1  0  0  0
 14 16  1  0  0  0  0
 15 13  1  0  0  0  0
 16 18  1  6  0  0  0
 16 13  1  0  0  0  0
 18 17  1  0  0  0  0
 19 20  1  1  0  0  0
 19  7  1  0  0  0  0
 19 21  1  0  0  0  0
 23 22  1  6  0  0  0
 23 24  1  0  0  0  0
 23 21  1  0  0  0  0
 24 30  1  0  0  0  0
 25 31  1  0  0  0  0
 25 27  2  0  0  0  0
 26 31  1  0  0  0  0
 28 30  1  0  0  0  0
 28 25  1  0  0  0  0
 29 26  1  0  0  0  0
 30 29  2  0  0  0  0
M  END
>  <MODEL>
9

>  <REMARK>
 VINA RESULT:      -7.0      2.540      3.321
  Name = 
  7 active torsions:
  status: ('A' for Active; 'I' for Inactive)
    1  A    between atoms: O_3  and  C_9
    2  A    between atoms: O_3  and  C_22
    3  A    between atoms: C_4  and  C_12
    4  A    between atoms: C_9  and  C_23
    5  A    between atoms: C_15  and  C_21
    6  A    between atoms: C_15  and  C_23
    7  A    between atoms: C_27  and  C_28
                            x       y       z     vdW  Elec       q    Type
                         _______ _______ _______ _____ _____    ______ ____

>  <TORSDO>
F 7

$$$$
