=
 OpenBabel11052417423D

 31 35  0  0  1  0  0  0  0  0999 V2000
  189.4570  174.6780  142.2890 C   0  0  1  0  0  3  0  0  0  0  0  0
  190.2380  176.7120  144.6410 C   0  0  1  0  0  3  0  0  0  0  0  0
  191.5610  175.9430  144.8690 C   0  0  1  0  0  3  0  0  0  0  0  0
  187.4190  178.0280  144.9030 C   0  0  1  0  0  3  0  0  0  0  0  0
  194.0600  176.1020  144.2750 C   0  0  0  0  0  2  0  0  0  0  0  0
  189.0430  175.7830  144.2650 C   0  0  2  0  0  0  0  0  0  0  0  0
  188.8240  176.0370  142.0140 C   0  0  0  0  0  2  0  0  0  0  0  0
  192.6150  176.3630  143.8340 C   0  0  0  0  0  2  0  0  0  0  0  0
  188.2300  177.1760  145.9360 C   0  0  1  0  0  0  0  0  0  0  0  0
  190.7560  174.6510  141.7830 O   0  0  0  0  0  1  0  0  0  0  0  0
  191.0460  176.0930  147.3500 C   0  0  0  0  0  2  0  0  0  0  0  0
  194.3940  174.6230  144.5030 C   0  0  0  0  0  2  0  0  0  0  0  0
  188.2400  175.7010  145.5380 C   0  0  0  0  0  2  0  0  0  0  0  0
  189.7060  177.5810  145.8120 C   0  0  1  0  0  3  0  0  0  0  0  0
  187.7420  177.3470  147.2350 O   0  0  0  0  0  1  0  0  0  0  0  0
  189.4830  174.4940  143.7440 N   0  0  0  0  0  2  0  0  0  0  0  0
  193.3660  173.8440  145.3320 C   0  0  0  0  0  2  0  0  0  0  0  0
  187.9220  177.7910  143.4550 C   0  0  0  0  0  2  0  0  0  0  0  0
  188.1560  176.3580  143.2520 N   0  0  2  0  0  0  0  0  0  0  0  0
  190.4810  177.4800  147.1340 C   0  0  0  0  0  2  0  0  0  0  0  0
  192.1180  175.8790  146.3060 C   0  0  1  0  0  3  0  0  0  0  0  0
  192.8830  174.5780  146.5910 C   0  0  0  0  0  2  0  0  0  0  0  0
  185.8840  177.9280  144.9610 C   0  0  1  0  0  3  0  0  0  0  0  0
  184.8230  176.4080  146.4850 O   0  0  0  0  0  1  0  0  0  0  0  0
  184.1610  178.5880  146.5280 O   0  0  0  0  0  1  0  0  0  0  0  0
  185.2460  177.7290  146.3410 C   0  0  0  0  0  3  0  0  0  0  0  0
  185.1650  178.8650  144.0300 C   0  0  0  0  0  0  0  0  0  0  0  0
  185.3590  180.1750  144.1620 C   0  0  0  0  0  2  0  0  0  0  0  0
  184.1310  178.3730  143.0680 C   0  0  0  0  0  2  0  0  0  0  0  0
  184.7080  177.4840  142.1610 O   0  0  0  0  0  0  0  0  0  0  0  0
  184.8400  178.2220  140.9860 C   0  0  0  0  0  1  0  0  0  0  0  0
  1 10  1  1  0  0  0
  1 16  1  0  0  0  0
  2  3  1  0  0  0  0
  2 14  1  0  0  0  0
  3 21  1  0  0  0  0
  4 23  1  0  0  0  0
  4  9  1  0  0  0  0
  5 12  1  0  0  0  0
  6  2  1  0  0  0  0
  6 13  1  0  0  0  0
  7  1  1  0  0  0  0
  7 19  1  0  0  0  0
  8  5  1  0  0  0  0
  8  3  1  0  0  0  0
  9 15  1  0  0  0  0
 12 17  1  0  0  0  0
 13  9  1  0  0  0  0
 14  9  1  0  0  0  0
 14 20  1  0  0  0  0
 16  6  1  0  0  0  0
 17 22  1  0  0  0  0
 18  4  1  0  0  0  0
 19 18  1  0  0  0  0
 19  6  1  0  0  0  0
 20 11  1  0  0  0  0
 21 22  1  0  0  0  0
 21 11  1  0  0  0  0
 23 26  1  0  0  0  0
 26 24  1  0  0  0  0
 26 25  1  0  0  0  0
 27 28  2  0  0  0  0
 27 23  1  0  0  0  0
 29 27  1  0  0  0  0
 30 29  1  0  0  0  0
 31 30  1  0  0  0  0
M  END
>  <MODEL>
1

>  <REMARK>
 VINA RESULT:      -8.2      0.000      0.000
  Name = 
  5 active torsions:
  status: ('A' for Active; 'I' for Inactive)
    1  A    between atoms: O_1  and  C_8
    2  A    between atoms: C_7  and  C_22
    3  A    between atoms: C_8  and  C_19
    4  A    between atoms: C_9  and  C_22
    5  A    between atoms: C_19  and  C_22
                            x       y       z     vdW  Elec       q    Type
                         _______ _______ _______ _____ _____    ______ ____

>  <TORSDO>
F 5

$$$$
=
 OpenBabel11052417423D

 31 35  0  0  1  0  0  0  0  0999 V2000
  190.0730  177.4060  145.6070 C   0  0  1  0  0  3  0  0  0  0  0  0
  188.8660  175.2140  143.6020 C   0  0  1  0  0  3  0  0  0  0  0  0
  190.2490  174.5280  143.5170 C   0  0  1  0  0  3  0  0  0  0  0  0
  186.1950  176.7220  143.0200 C   0  0  1  0  0  3  0  0  0  0  0  0
  191.5170  172.5200  144.5090 C   0  0  0  0  0  2  0  0  0  0  0  0
  188.9550  176.7690  143.7000 C   0  0  2  0  0  0  0  0  0  0  0  0
  188.5910  177.2140  145.9010 C   0  0  0  0  0  2  0  0  0  0  0  0
  190.4820  173.6270  144.7380 C   0  0  0  0  0  2  0  0  0  0  0  0
  187.3690  176.3500  142.0550 C   0  0  1  0  0  0  0  0  0  0  0  0
  190.8210  176.4590  146.3060 O   0  0  0  0  0  1  0  0  0  0  0  0
  189.8690  174.4120  141.0100 C   0  0  0  0  0  2  0  0  0  0  0  0
  192.9300  173.0300  144.2030 C   0  0  0  0  0  2  0  0  0  0  0  0
  188.5880  177.2350  142.3130 C   0  0  0  0  0  2  0  0  0  0  0  0
  187.8640  174.9500  142.4460 C   0  0  1  0  0  3  0  0  0  0  0  0
  186.9720  176.4160  140.7160 O   0  0  0  0  0  1  0  0  0  0  0  0
  190.2610  177.2230  144.1640 N   0  0  0  0  0  2  0  0  0  0  0  0
  193.0070  174.1460  143.1550 C   0  0  0  0  0  2  0  0  0  0  0  0
  186.6530  176.7080  144.5010 C   0  0  0  0  0  2  0  0  0  0  0  0
  187.9660  177.3520  144.6070 N   0  0  2  0  0  0  0  0  0  0  0  0
  188.4020  174.1380  141.2590 C   0  0  0  0  0  2  0  0  0  0  0  0
  190.6360  173.8510  142.1850 C   0  0  1  0  0  3  0  0  0  0  0  0
  192.1460  173.9020  141.9080 C   0  0  0  0  0  2  0  0  0  0  0  0
  185.4140  178.0120  142.7120 C   0  0  1  0  0  3  0  0  0  0  0  0
  184.6140  178.6910  140.5540 O   0  0  0  0  0  1  0  0  0  0  0  0
  183.0730  178.3540  142.1980 O   0  0  0  0  0  1  0  0  0  0  0  0
  184.2910  177.9210  141.6720 C   0  0  0  0  0  3  0  0  0  0  0  0
  185.1290  178.8690  143.9160 C   0  0  0  0  0  0  0  0  0  0  0  0
  185.6690  180.0830  143.9820 C   0  0  0  0  0  2  0  0  0  0  0  0
  184.3830  178.3350  145.0970 C   0  0  0  0  0  2  0  0  0  0  0  0
  184.5840  179.1630  146.2020 O   0  0  0  0  0  0  0  0  0  0  0  0
  184.8260  178.2840  147.2560 C   0  0  0  0  0  1  0  0  0  0  0  0
  1  7  1  0  0  0  0
  1 10  1  1  0  0  0
  2  6  1  0  0  0  0
  3  2  1  0  0  0  0
  3  8  1  0  0  0  0
  4 18  1  0  0  0  0
  5  8  1  0  0  0  0
  6 16  1  0  0  0  0
  6 19  1  0  0  0  0
  9 13  1  0  0  0  0
  9 14  1  0  0  0  0
  9  4  1  0  0  0  0
 11 20  1  0  0  0  0
 11 21  1  0  0  0  0
 12  5  1  0  0  0  0
 13  6  1  0  0  0  0
 14  2  1  0  0  0  0
 15  9  1  0  0  0  0
 16  1  1  0  0  0  0
 17 12  1  0  0  0  0
 18 19  1  0  0  0  0
 19  7  1  0  0  0  0
 20 14  1  0  0  0  0
 21  3  1  0  0  0  0
 22 21  1  0  0  0  0
 22 17  1  0  0  0  0
 23  4  1  0  0  0  0
 23 27  1  0  0  0  0
 24 26  1  0  0  0  0
 26 25  1  0  0  0  0
 26 23  1  0  0  0  0
 27 28  2  0  0  0  0
 27 29  1  0  0  0  0
 29 30  1  0  0  0  0
 30 31  1  0  0  0  0
M  END
>  <MODEL>
2

>  <REMARK>
 VINA RESULT:      -7.5      1.953      4.102
  Name = 
  5 active torsions:
  status: ('A' for Active; 'I' for Inactive)
    1  A    between atoms: O_1  and  C_8
    2  A    between atoms: C_7  and  C_22
    3  A    between atoms: C_8  and  C_19
    4  A    between atoms: C_9  and  C_22
    5  A    between atoms: C_19  and  C_22
                            x       y       z     vdW  Elec       q    Type
                         _______ _______ _______ _____ _____    ______ ____

>  <TORSDO>
F 5

$$$$
=
 OpenBabel11052417423D

 31 35  0  0  1  0  0  0  0  0999 V2000
  190.7010  178.1450  142.9930 C   0  0  1  0  0  3  0  0  0  0  0  0
  189.5980  175.7970  144.8770 C   0  0  1  0  0  3  0  0  0  0  0  0
  188.2310  176.5140  144.9740 C   0  0  1  0  0  3  0  0  0  0  0  0
  192.3740  174.4850  145.4440 C   0  0  1  0  0  3  0  0  0  0  0  0
  185.8770  176.4150  143.9400 C   0  0  0  0  0  2  0  0  0  0  0  0
  190.8080  176.7810  144.8430 C   0  0  2  0  0  0  0  0  0  0  0  0
  191.4170  176.8440  142.6510 C   0  0  0  0  0  2  0  0  0  0  0  0
  187.3840  176.2320  143.7250 C   0  0  0  0  0  2  0  0  0  0  0  0
  191.3710  175.1770  146.4260 C   0  0  1  0  0  0  0  0  0  0  0  0
  189.5070  178.2300  142.2780 O   0  0  0  0  0  1  0  0  0  0  0  0
  188.3200  176.0260  147.4630 C   0  0  0  0  0  2  0  0  0  0  0  0
  185.4600  177.8440  144.3030 C   0  0  0  0  0  2  0  0  0  0  0  0
  191.3790  176.6930  146.2350 C   0  0  0  0  0  2  0  0  0  0  0  0
  189.9520  174.7790  145.9950 C   0  0  1  0  0  3  0  0  0  0  0  0
  191.6350  174.8320  147.7550 O   0  0  0  0  0  1  0  0  0  0  0  0
  190.4210  178.1250  144.4330 N   0  0  0  0  0  2  0  0  0  0  0  0
  186.3040  178.5110  145.3960 C   0  0  0  0  0  2  0  0  0  0  0  0
  192.1170  174.9150  143.9770 C   0  0  0  0  0  2  0  0  0  0  0  0
  191.8740  176.3600  143.9320 N   0  0  2  0  0  0  0  0  0  0  0  0
  188.9600  174.6880  147.1630 C   0  0  0  0  0  2  0  0  0  0  0  0
  187.4350  176.3730  146.2880 C   0  0  1  0  0  3  0  0  0  0  0  0
  186.5900  177.6140  146.6090 C   0  0  0  0  0  2  0  0  0  0  0  0
  193.8720  174.5910  145.7800 C   0  0  1  0  0  3  0  0  0  0  0  0
  194.1210  172.2050  145.8640 O   0  0  0  0  0  1  0  0  0  0  0  0
  196.0020  173.4760  146.0690 O   0  0  0  0  0  1  0  0  0  0  0  0
  194.7530  173.3790  145.4520 C   0  0  0  0  0  3  0  0  0  0  0  0
  194.4780  175.9400  145.5020 C   0  0  0  0  0  0  0  0  0  0  0  0
  194.4200  176.8760  146.4460 C   0  0  0  0  0  2  0  0  0  0  0  0
  195.0040  176.2980  144.1490 C   0  0  0  0  0  2  0  0  0  0  0  0
  196.3890  176.1290  144.1160 O   0  0  0  0  0  0  0  0  0  0  0  0
  196.7880  176.7570  142.9380 C   0  0  0  0  0  1  0  0  0  0  0  0
  1 10  1  6  0  0  0
  1 16  1  0  0  0  0
  2  3  1  0  0  0  0
  2 14  1  0  0  0  0
  3 21  1  0  0  0  0
  4 23  1  0  0  0  0
  4  9  1  0  0  0  0
  5 12  1  0  0  0  0
  6  2  1  0  0  0  0
  6 13  1  0  0  0  0
  7  1  1  0  0  0  0
  7 19  1  0  0  0  0
  8  5  1  0  0  0  0
  8  3  1  0  0  0  0
  9 15  1  0  0  0  0
 12 17  1  0  0  0  0
 13  9  1  0  0  0  0
 14  9  1  0  0  0  0
 14 20  1  0  0  0  0
 16  6  1  0  0  0  0
 17 22  1  0  0  0  0
 18  4  1  0  0  0  0
 19 18  1  0  0  0  0
 19  6  1  0  0  0  0
 20 11  1  0  0  0  0
 21 22  1  0  0  0  0
 21 11  1  0  0  0  0
 26 23  1  0  0  0  0
 26 24  1  0  0  0  0
 26 25  1  0  0  0  0
 27 23  1  0  0  0  0
 27 28  2  0  0  0  0
 29 27  1  0  0  0  0
 30 29  1  0  0  0  0
 31 30  1  0  0  0  0
M  END
>  <MODEL>
3

>  <REMARK>
 VINA RESULT:      -7.5      2.755      7.214
  Name = 
  5 active torsions:
  status: ('A' for Active; 'I' for Inactive)
    1  A    between atoms: O_1  and  C_8
    2  A    between atoms: C_7  and  C_22
    3  A    between atoms: C_8  and  C_19
    4  A    between atoms: C_9  and  C_22
    5  A    between atoms: C_19  and  C_22
                            x       y       z     vdW  Elec       q    Type
                         _______ _______ _______ _____ _____    ______ ____

>  <TORSDO>
F 5

$$$$
=
 OpenBabel11052417423D

 31 35  0  0  1  0  0  0  0  0999 V2000
  189.8120  173.9850  141.8980 C   0  0  1  0  0  3  0  0  0  0  0  0
  190.9560  175.8870  144.2120 C   0  0  1  0  0  3  0  0  0  0  0  0
  192.2690  175.0700  144.2370 C   0  0  1  0  0  3  0  0  0  0  0  0
  188.2410  177.2720  144.8860 C   0  0  1  0  0  3  0  0  0  0  0  0
  194.6770  175.1820  143.3350 C   0  0  0  0  0  2  0  0  0  0  0  0
  189.6910  175.0110  143.9540 C   0  0  2  0  0  0  0  0  0  0  0  0
  189.1970  175.3730  141.7620 C   0  0  0  0  0  2  0  0  0  0  0  0
  193.1970  175.5050  143.0940 C   0  0  0  0  0  2  0  0  0  0  0  0
  189.1460  176.3510  145.7720 C   0  0  1  0  0  0  0  0  0  0  0  0
  191.0340  173.9420  141.2300 O   0  0  0  0  0  1  0  0  0  0  0  0
  192.0780  175.1230  146.7670 C   0  0  0  0  0  2  0  0  0  0  0  0
  194.9850  173.6850  143.4570 C   0  0  0  0  0  2  0  0  0  0  0  0
  189.0540  174.8950  145.3150 C   0  0  0  0  0  2  0  0  0  0  0  0
  190.6070  176.7170  145.4770 C   0  0  1  0  0  3  0  0  0  0  0  0
  188.8330  176.4770  147.1280 O   0  0  0  0  0  1  0  0  0  0  0  0
  190.0160  173.7350  143.3290 N   0  0  0  0  0  2  0  0  0  0  0  0
  194.0440  172.9000  144.3790 C   0  0  0  0  0  2  0  0  0  0  0  0
  188.5480  177.0860  143.3780 C   0  0  0  0  0  2  0  0  0  0  0  0
  188.7030  175.6580  143.0880 N   0  0  2  0  0  0  0  0  0  0  0  0
  191.5400  176.5340  146.6830 C   0  0  0  0  0  2  0  0  0  0  0  0
  193.0020  174.9240  145.5870 C   0  0  1  0  0  3  0  0  0  0  0  0
  193.7500  173.5900  145.7180 C   0  0  0  0  0  2  0  0  0  0  0  0
  186.7230  177.2140  145.1370 C   0  0  1  0  0  3  0  0  0  0  0  0
  184.9210  176.7160  146.6410 O   0  0  0  0  0  1  0  0  0  0  0  0
  186.3940  178.3430  147.2530 O   0  0  0  0  0  1  0  0  0  0  0  0
  186.2550  177.1200  146.5940 C   0  0  0  0  0  3  0  0  0  0  0  0
  185.9110  178.1090  144.2410 C   0  0  0  0  0  0  0  0  0  0  0  0
  185.9400  179.4230  144.4480 C   0  0  0  0  0  2  0  0  0  0  0  0
  184.9630  177.5500  143.2270 C   0  0  0  0  0  2  0  0  0  0  0  0
  184.1140  178.5550  142.7620 O   0  0  0  0  0  0  0  0  0  0  0  0
  183.7310  178.1280  141.4930 C   0  0  0  0  0  1  0  0  0  0  0  0
  1 10  1  6  0  0  0
  1 16  1  0  0  0  0
  2  3  1  0  0  0  0
  2 14  1  0  0  0  0
  3 21  1  0  0  0  0
  4 23  1  0  0  0  0
  4  9  1  0  0  0  0
  5 12  1  0  0  0  0
  6  2  1  0  0  0  0
  6 13  1  0  0  0  0
  7  1  1  0  0  0  0
  7 19  1  0  0  0  0
  8  5  1  0  0  0  0
  8  3  1  0  0  0  0
  9 15  1  0  0  0  0
 12 17  1  0  0  0  0
 13  9  1  0  0  0  0
 14  9  1  0  0  0  0
 14 20  1  0  0  0  0
 16  6  1  0  0  0  0
 17 22  1  0  0  0  0
 18  4  1  0  0  0  0
 19 18  1  0  0  0  0
 19  6  1  0  0  0  0
 20 11  1  0  0  0  0
 21 22  1  0  0  0  0
 21 11  1  0  0  0  0
 23 26  1  0  0  0  0
 26 24  1  0  0  0  0
 26 25  1  0  0  0  0
 27 28  2  0  0  0  0
 27 23  1  0  0  0  0
 29 27  1  0  0  0  0
 30 29  1  0  0  0  0
 31 30  1  0  0  0  0
M  END
>  <MODEL>
4

>  <REMARK>
 VINA RESULT:      -7.3      1.119      1.268
  Name = 
  5 active torsions:
  status: ('A' for Active; 'I' for Inactive)
    1  A    between atoms: O_1  and  C_8
    2  A    between atoms: C_7  and  C_22
    3  A    between atoms: C_8  and  C_19
    4  A    between atoms: C_9  and  C_22
    5  A    between atoms: C_19  and  C_22
                            x       y       z     vdW  Elec       q    Type
                         _______ _______ _______ _____ _____    ______ ____

>  <TORSDO>
F 5

$$$$
=
 OpenBabel11052417423D

 31 35  0  0  1  0  0  0  0  0999 V2000
  187.1270  177.8130  141.9180 C   0  0  1  0  0  3  0  0  0  0  0  0
  188.0790  176.2270  144.5380 C   0  0  1  0  0  3  0  0  0  0  0  0
  187.0950  177.0540  145.3990 C   0  0  1  0  0  3  0  0  0  0  0  0
  190.5950  174.9090  143.2410 C   0  0  1  0  0  3  0  0  0  0  0  0
  184.7610  176.8540  146.4630 C   0  0  0  0  0  2  0  0  0  0  0  0
  188.7290  177.0510  143.3830 C   0  0  2  0  0  0  0  0  0  0  0  0
  187.5820  176.4130  141.5250 C   0  0  0  0  0  2  0  0  0  0  0  0
  185.6720  176.4890  145.2850 C   0  0  0  0  0  2  0  0  0  0  0  0
  190.4930  175.9430  144.4120 C   0  0  1  0  0  0  0  0  0  0  0  0
  185.7860  177.7840  142.3010 O   0  0  0  0  0  1  0  0  0  0  0  0
  189.0000  177.3160  147.0550 C   0  0  0  0  0  2  0  0  0  0  0  0
  184.5060  178.3580  146.6210 C   0  0  0  0  0  2  0  0  0  0  0  0
  190.1230  177.3290  143.8850 C   0  0  0  0  0  2  0  0  0  0  0  0
  189.2760  175.5570  145.2650 C   0  0  1  0  0  3  0  0  0  0  0  0
  191.6720  175.9840  145.1610 O   0  0  0  0  0  1  0  0  0  0  0  0
  187.9590  178.2420  143.0470 N   0  0  0  0  0  2  0  0  0  0  0  0
  185.7550  179.2430  146.5360 C   0  0  0  0  0  2  0  0  0  0  0  0
  189.3090  174.9080  142.3740 C   0  0  0  0  0  2  0  0  0  0  0  0
  188.8810  176.2910  142.1410 N   0  0  2  0  0  0  0  0  0  0  0  0
  189.4390  175.9000  146.7530 C   0  0  0  0  0  2  0  0  0  0  0  0
  187.5040  177.3750  146.8510 C   0  0  1  0  0  3  0  0  0  0  0  0
  186.9550  178.7230  147.3410 C   0  0  0  0  0  2  0  0  0  0  0  0
  191.8450  174.9820  142.3460 C   0  0  1  0  0  3  0  0  0  0  0  0
  193.6540  176.5340  142.0600 O   0  0  0  0  0  1  0  0  0  0  0  0
  194.0600  174.6420  143.2630 O   0  0  0  0  0  1  0  0  0  0  0  0
  193.1050  175.6120  142.9520 C   0  0  0  0  0  3  0  0  0  0  0  0
  192.0640  173.7690  141.4840 C   0  0  0  0  0  0  0  0  0  0  0  0
  192.2620  173.9370  140.1790 C   0  0  0  0  0  2  0  0  0  0  0  0
  191.9150  172.3840  142.0290 C   0  0  0  0  0  2  0  0  0  0  0  0
  190.8760  171.7230  141.3740 O   0  0  0  0  0  0  0  0  0  0  0  0
  190.0800  171.2210  142.4020 C   0  0  0  0  0  1  0  0  0  0  0  0
  1 10  1  1  0  0  0
  1 16  1  0  0  0  0
  2 14  1  0  0  0  0
  2  3  1  0  0  0  0
  3 21  1  0  0  0  0
  4  9  1  0  0  0  0
  5 12  1  0  0  0  0
  6 13  1  0  0  0  0
  6  2  1  0  0  0  0
  7  1  1  0  0  0  0
  7 19  1  0  0  0  0
  8  3  1  0  0  0  0
  8  5  1  0  0  0  0
  9 15  1  0  0  0  0
  9 14  1  0  0  0  0
 13  9  1  0  0  0  0
 14 20  1  0  0  0  0
 16  6  1  0  0  0  0
 17 12  1  0  0  0  0
 17 22  1  0  0  0  0
 18  4  1  0  0  0  0
 19 18  1  0  0  0  0
 19  6  1  0  0  0  0
 20 11  1  0  0  0  0
 21 11  1  0  0  0  0
 21 22  1  0  0  0  0
 23 26  1  0  0  0  0
 23  4  1  0  0  0  0
 24 26  1  0  0  0  0
 26 25  1  0  0  0  0
 27 29  1  0  0  0  0
 27 23  1  0  0  0  0
 28 27  2  0  0  0  0
 30 29  1  0  0  0  0
 30 31  1  0  0  0  0
M  END
>  <MODEL>
5

>  <REMARK>
 VINA RESULT:      -7.3      2.333      6.700
  Name = 
  5 active torsions:
  status: ('A' for Active; 'I' for Inactive)
    1  A    between atoms: O_1  and  C_8
    2  A    between atoms: C_7  and  C_22
    3  A    between atoms: C_8  and  C_19
    4  A    between atoms: C_9  and  C_22
    5  A    between atoms: C_19  and  C_22
                            x       y       z     vdW  Elec       q    Type
                         _______ _______ _______ _____ _____    ______ ____

>  <TORSDO>
F 5

$$$$
=
 OpenBabel11052417423D

 31 35  0  0  1  0  0  0  0  0999 V2000
  188.0830  177.9340  142.1770 C   0  0  1  0  0  3  0  0  0  0  0  0
  188.3770  176.0150  144.7290 C   0  0  1  0  0  3  0  0  0  0  0  0
  187.3160  176.8520  145.4830 C   0  0  1  0  0  3  0  0  0  0  0  0
  190.9790  174.5780  143.7750 C   0  0  1  0  0  3  0  0  0  0  0  0
  184.8110  176.7900  146.0700 C   0  0  0  0  0  2  0  0  0  0  0  0
  189.3040  176.8750  143.8160 C   0  0  2  0  0  0  0  0  0  0  0  0
  188.4890  176.5390  141.7170 C   0  0  0  0  0  2  0  0  0  0  0  0
  185.9010  176.4480  145.0470 C   0  0  0  0  0  2  0  0  0  0  0  0
  190.7380  175.4990  145.0180 C   0  0  1  0  0  0  0  0  0  0  0  0
  186.6970  178.0060  142.3010 O   0  0  0  0  0  1  0  0  0  0  0  0
  188.8790  176.7570  147.4800 C   0  0  0  0  0  2  0  0  0  0  0  0
  184.6550  178.2900  146.3490 C   0  0  0  0  0  2  0  0  0  0  0  0
  190.5920  176.9600  144.5940 C   0  0  0  0  0  2  0  0  0  0  0  0
  189.3510  175.1600  145.5830 C   0  0  1  0  0  3  0  0  0  0  0  0
  191.7490  175.3470  145.9710 O   0  0  0  0  0  1  0  0  0  0  0  0
  188.7140  178.1660  143.4820 N   0  0  0  0  0  2  0  0  0  0  0  0
  185.9660  179.0460  146.5960 C   0  0  0  0  0  2  0  0  0  0  0  0
  189.8900  174.7910  142.6930 C   0  0  0  0  0  2  0  0  0  0  0  0
  189.6310  176.2260  142.5440 N   0  0  2  0  0  0  0  0  0  0  0  0
  189.2500  175.3390  147.1050 C   0  0  0  0  0  2  0  0  0  0  0  0
  187.4610  176.9880  147.0130 C   0  0  1  0  0  3  0  0  0  0  0  0
  186.9400  178.3310  147.5430 C   0  0  0  0  0  2  0  0  0  0  0  0
  192.3810  174.6080  143.1400 C   0  0  1  0  0  3  0  0  0  0  0  0
  193.4890  176.4110  142.0090 O   0  0  0  0  0  1  0  0  0  0  0  0
  194.3640  175.7060  143.9910 O   0  0  0  0  0  1  0  0  0  0  0  0
  193.1840  175.9080  143.2740 C   0  0  0  0  0  3  0  0  0  0  0  0
  193.1620  173.3320  143.2980 C   0  0  0  0  0  0  0  0  0  0  0  0
  193.9550  172.9380  142.3040 C   0  0  0  0  0  2  0  0  0  0  0  0
  192.9560  172.4270  144.4710 C   0  0  0  0  0  2  0  0  0  0  0  0
  193.8160  172.7870  145.5090 O   0  0  0  0  0  0  0  0  0  0  0  0
  194.6190  171.6650  145.7000 C   0  0  0  0  0  1  0  0  0  0  0  0
  1 10  1  1  0  0  0
  1 16  1  0  0  0  0
  2  3  1  0  0  0  0
  2 14  1  0  0  0  0
  3 21  1  0  0  0  0
  4  9  1  0  0  0  0
  5 12  1  0  0  0  0
  6 13  1  0  0  0  0
  6  2  1  0  0  0  0
  7  1  1  0  0  0  0
  7 19  1  0  0  0  0
  8  3  1  0  0  0  0
  8  5  1  0  0  0  0
  9 14  1  0  0  0  0
  9 15  1  0  0  0  0
 12 17  1  0  0  0  0
 13  9  1  0  0  0  0
 14 20  1  0  0  0  0
 16  6  1  0  0  0  0
 17 22  1  0  0  0  0
 18  4  1  0  0  0  0
 19 18  1  0  0  0  0
 19  6  1  0  0  0  0
 20 11  1  0  0  0  0
 21 11  1  0  0  0  0
 21 22  1  0  0  0  0
 23 26  1  0  0  0  0
 23 27  1  0  0  0  0
 23  4  1  0  0  0  0
 24 26  1  0  0  0  0
 26 25  1  0  0  0  0
 27 29  1  0  0  0  0
 28 27  2  0  0  0  0
 29 30  1  0  0  0  0
 30 31  1  0  0  0  0
M  END
>  <MODEL>
6

>  <REMARK>
 VINA RESULT:      -7.2      2.345      7.063
  Name = 
  5 active torsions:
  status: ('A' for Active; 'I' for Inactive)
    1  A    between atoms: O_1  and  C_8
    2  A    between atoms: C_7  and  C_22
    3  A    between atoms: C_8  and  C_19
    4  A    between atoms: C_9  and  C_22
    5  A    between atoms: C_19  and  C_22
                            x       y       z     vdW  Elec       q    Type
                         _______ _______ _______ _____ _____    ______ ____

>  <TORSDO>
F 5

$$$$
=
 OpenBabel11052417423D

 31 35  0  0  1  0  0  0  0  0999 V2000
  189.4400  174.5330  147.0160 C   0  0  1  0  0  3  0  0  0  0  0  0
  189.9470  177.0380  145.0790 C   0  0  1  0  0  3  0  0  0  0  0  0
  188.4210  177.1890  144.8720 C   0  0  1  0  0  3  0  0  0  0  0  0
  193.0170  176.5850  144.7370 C   0  0  1  0  0  3  0  0  0  0  0  0
  186.4480  178.6030  145.7280 C   0  0  0  0  0  2  0  0  0  0  0  0
  190.4080  175.5520  145.1940 C   0  0  2  0  0  0  0  0  0  0  0  0
  190.7290  175.2360  147.4250 C   0  0  0  0  0  2  0  0  0  0  0  0
  187.7870  177.9320  146.0570 C   0  0  0  0  0  2  0  0  0  0  0  0
  191.8690  176.5280  143.6740 C   0  0  1  0  0  0  0  0  0  0  0  0
  188.3510  175.1440  147.6380 O   0  0  0  0  0  1  0  0  0  0  0  0
  188.9360  177.4650  142.4020 C   0  0  0  0  0  2  0  0  0  0  0  0
  185.3380  177.6280  145.3180 C   0  0  0  0  0  2  0  0  0  0  0  0
  191.0260  175.2650  143.8490 C   0  0  0  0  0  2  0  0  0  0  0  0
  190.8790  177.6560  144.0020 C   0  0  1  0  0  3  0  0  0  0  0  0
  192.3700  176.6260  142.3730 O   0  0  0  0  0  1  0  0  0  0  0  0
  189.3160  174.6570  145.5600 N   0  0  0  0  0  2  0  0  0  0  0  0
  185.7470  176.5710  144.2850 C   0  0  0  0  0  2  0  0  0  0  0  0
  192.4660  176.4160  146.1760 C   0  0  0  0  0  2  0  0  0  0  0  0
  191.4640  175.3460  146.1870 N   0  0  2  0  0  0  0  0  0  0  0  0
  190.1850  178.2390  142.7630 C   0  0  0  0  0  2  0  0  0  0  0  0
  187.9280  177.7020  143.5030 C   0  0  1  0  0  3  0  0  0  0  0  0
  186.5630  177.1210  143.1070 C   0  0  0  0  0  2  0  0  0  0  0  0
  194.2270  175.6600  144.5130 C   0  0  1  0  0  3  0  0  0  0  0  0
  195.6480  177.5910  144.6380 O   0  0  0  0  0  1  0  0  0  0  0  0
  195.6240  176.4160  142.6850 O   0  0  0  0  0  1  0  0  0  0  0  0
  195.5410  176.3180  144.0750 C   0  0  0  0  0  3  0  0  0  0  0  0
  194.3500  174.5440  145.5140 C   0  0  0  0  0  0  0  0  0  0  0  0
  195.2200  174.6710  146.5130 C   0  0  0  0  0  2  0  0  0  0  0  0
  193.6340  173.2450  145.3290 C   0  0  0  0  0  2  0  0  0  0  0  0
  193.6180  172.8960  143.9770 O   0  0  0  0  0  0  0  0  0  0  0  0
  194.6520  171.9720  143.8440 C   0  0  0  0  0  1  0  0  0  0  0  0
  1  7  1  0  0  0  0
  1 10  1  1  0  0  0
  2  6  1  0  0  0  0
  3  2  1  0  0  0  0
  3  8  1  0  0  0  0
  4 18  1  0  0  0  0
  5  8  1  0  0  0  0
  6 16  1  0  0  0  0
  6 19  1  0  0  0  0
  9 13  1  0  0  0  0
  9 14  1  0  0  0  0
  9  4  1  0  0  0  0
 11 20  1  0  0  0  0
 11 21  1  0  0  0  0
 12  5  1  0  0  0  0
 13  6  1  0  0  0  0
 14  2  1  0  0  0  0
 15  9  1  0  0  0  0
 16  1  1  0  0  0  0
 17 12  1  0  0  0  0
 18 19  1  0  0  0  0
 19  7  1  0  0  0  0
 20 14  1  0  0  0  0
 21  3  1  0  0  0  0
 22 21  1  0  0  0  0
 22 17  1  0  0  0  0
 23  4  1  0  0  0  0
 23 27  1  0  0  0  0
 25 26  1  0  0  0  0
 26 23  1  0  0  0  0
 26 24  1  0  0  0  0
 27 28  2  0  0  0  0
 29 27  1  0  0  0  0
 30 29  1  0  0  0  0
 31 30  1  0  0  0  0
M  END
>  <MODEL>
7

>  <REMARK>
 VINA RESULT:      -7.1      2.384      7.490
  Name = 
  5 active torsions:
  status: ('A' for Active; 'I' for Inactive)
    1  A    between atoms: O_1  and  C_8
    2  A    between atoms: C_7  and  C_22
    3  A    between atoms: C_8  and  C_19
    4  A    between atoms: C_9  and  C_22
    5  A    between atoms: C_19  and  C_22
                            x       y       z     vdW  Elec       q    Type
                         _______ _______ _______ _____ _____    ______ ____

>  <TORSDO>
F 5

$$$$
=
 OpenBabel11052417423D

 31 35  0  0  1  0  0  0  0  0999 V2000
  189.2190  174.4870  147.2280 C   0  0  1  0  0  3  0  0  0  0  0  0
  190.0960  176.7580  145.1410 C   0  0  1  0  0  3  0  0  0  0  0  0
  188.6100  177.0200  144.7990 C   0  0  1  0  0  3  0  0  0  0  0  0
  193.1280  176.0170  145.0880 C   0  0  1  0  0  3  0  0  0  0  0  0
  186.7170  178.6670  145.3730 C   0  0  0  0  0  2  0  0  0  0  0  0
  190.4090  175.2540  145.4140 C   0  0  2  0  0  0  0  0  0  0  0  0
  190.5330  175.1100  147.6820 C   0  0  0  0  0  2  0  0  0  0  0  0
  187.9610  177.9160  145.8640 C   0  0  0  0  0  2  0  0  0  0  0  0
  192.0610  175.9650  143.9440 C   0  0  1  0  0  0  0  0  0  0  0  0
  188.1480  175.2400  147.7070 O   0  0  0  0  0  1  0  0  0  0  0  0
  189.3290  177.0330  142.3650 C   0  0  0  0  0  2  0  0  0  0  0  0
  185.5560  177.7580  144.9560 C   0  0  0  0  0  2  0  0  0  0  0  0
  191.0960  174.7980  144.1520 C   0  0  0  0  0  2  0  0  0  0  0  0
  191.1580  177.1970  144.0970 C   0  0  1  0  0  3  0  0  0  0  0  0
  192.6640  175.9040  142.6850 O   0  0  0  0  0  1  0  0  0  0  0  0
  189.2150  174.4920  145.7610 N   0  0  0  0  0  2  0  0  0  0  0  0
  185.9410  176.5830  144.0480 C   0  0  0  0  0  2  0  0  0  0  0  0
  192.4590  176.0230  146.4870 C   0  0  0  0  0  2  0  0  0  0  0  0
  191.3650  175.0470  146.5030 N   0  0  2  0  0  0  0  0  0  0  0  0
  190.6140  177.7260  142.7630 C   0  0  0  0  0  2  0  0  0  0  0  0
  188.2680  177.4510  143.3580 C   0  0  1  0  0  3  0  0  0  0  0  0
  186.8890  176.9560  142.9000 C   0  0  0  0  0  2  0  0  0  0  0  0
  194.2620  174.9760  145.0390 C   0  0  1  0  0  3  0  0  0  0  0  0
  194.2150  172.6160  145.4680 O   0  0  0  0  0  1  0  0  0  0  0  0
  194.6010  173.2980  143.3280 O   0  0  0  0  0  1  0  0  0  0  0  0
  193.9110  173.5820  144.5080 C   0  0  0  0  0  3  0  0  0  0  0  0
  195.5940  175.5290  144.6130 C   0  0  0  0  0  0  0  0  0  0  0  0
  196.7030  174.9110  145.0120 C   0  0  0  0  0  2  0  0  0  0  0  0
  195.7050  176.8290  143.8820 C   0  0  0  0  0  2  0  0  0  0  0  0
  196.7310  176.7610  142.9390 O   0  0  0  0  0  0  0  0  0  0  0  0
  196.0740  176.6580  141.7150 C   0  0  0  0  0  1  0  0  0  0  0  0
  1  7  1  0  0  0  0
  1 10  1  1  0  0  0
  2  6  1  0  0  0  0
  3  2  1  0  0  0  0
  3  8  1  0  0  0  0
  4 18  1  0  0  0  0
  5  8  1  0  0  0  0
  6 16  1  0  0  0  0
  6 19  1  0  0  0  0
  9 14  1  0  0  0  0
  9 13  1  0  0  0  0
  9  4  1  0  0  0  0
 11 20  1  0  0  0  0
 11 21  1  0  0  0  0
 12  5  1  0  0  0  0
 13  6  1  0  0  0  0
 14  2  1  0  0  0  0
 15  9  1  0  0  0  0
 16  1  1  0  0  0  0
 17 12  1  0  0  0  0
 18 19  1  0  0  0  0
 19  7  1  0  0  0  0
 20 14  1  0  0  0  0
 21  3  1  0  0  0  0
 22 21  1  0  0  0  0
 22 17  1  0  0  0  0
 23  4  1  0  0  0  0
 25 26  1  0  0  0  0
 26 23  1  0  0  0  0
 26 24  1  0  0  0  0
 27 28  2  0  0  0  0
 27 23  1  0  0  0  0
 29 27  1  0  0  0  0
 30 29  1  0  0  0  0
 31 30  1  0  0  0  0
M  END
>  <MODEL>
8

>  <REMARK>
 VINA RESULT:      -7.0      2.337      7.581
  Name = 
  5 active torsions:
  status: ('A' for Active; 'I' for Inactive)
    1  A    between atoms: O_1  and  C_8
    2  A    between atoms: C_7  and  C_22
    3  A    between atoms: C_8  and  C_19
    4  A    between atoms: C_9  and  C_22
    5  A    between atoms: C_19  and  C_22
                            x       y       z     vdW  Elec       q    Type
                         _______ _______ _______ _____ _____    ______ ____

>  <TORSDO>
F 5

$$$$
=
 OpenBabel11052417423D

 31 35  0  0  1  0  0  0  0  0999 V2000
  188.6650  177.9160  142.3050 C   0  0  1  0  0  3  0  0  0  0  0  0
  188.3970  175.9570  144.8290 C   0  0  1  0  0  3  0  0  0  0  0  0
  187.3630  176.9160  145.4660 C   0  0  1  0  0  3  0  0  0  0  0  0
  190.8990  174.2100  144.1700 C   0  0  1  0  0  3  0  0  0  0  0  0
  184.8160  177.1660  145.7390 C   0  0  0  0  0  2  0  0  0  0  0  0
  189.5300  176.7000  144.0560 C   0  0  2  0  0  0  0  0  0  0  0  0
  188.9490  176.4840  141.8670 C   0  0  0  0  0  2  0  0  0  0  0  0
  185.9740  176.6970  144.8490 C   0  0  0  0  0  2  0  0  0  0  0  0
  190.6210  175.1450  145.3950 C   0  0  1  0  0  0  0  0  0  0  0  0
  187.2930  178.1610  142.2590 O   0  0  0  0  0  1  0  0  0  0  0  0
  188.6400  176.6100  147.6370 C   0  0  0  0  0  2  0  0  0  0  0  0
  184.8140  178.6720  146.0300 C   0  0  0  0  0  2  0  0  0  0  0  0
  190.7120  176.6160  144.9890 C   0  0  0  0  0  2  0  0  0  0  0  0
  189.1430  174.9800  145.7770 C   0  0  1  0  0  3  0  0  0  0  0  0
  191.4780  174.8610  146.4610 O   0  0  0  0  0  1  0  0  0  0  0  0
  189.1510  178.0570  143.6820 N   0  0  0  0  0  2  0  0  0  0  0  0
  186.1670  179.2550  146.4540 C   0  0  0  0  0  2  0  0  0  0  0  0
  189.9890  174.5670  142.9670 C   0  0  0  0  0  2  0  0  0  0  0  0
  189.9300  176.0240  142.8200 N   0  0  2  0  0  0  0  0  0  0  0  0
  188.8760  175.1590  147.2780 C   0  0  0  0  0  2  0  0  0  0  0  0
  187.3310  177.0210  147.0050 C   0  0  1  0  0  3  0  0  0  0  0  0
  186.9190  178.4160  147.4970 C   0  0  0  0  0  2  0  0  0  0  0  0
  192.3620  174.0680  143.7130 C   0  0  1  0  0  3  0  0  0  0  0  0
  192.1000  171.7460  144.2620 O   0  0  0  0  0  1  0  0  0  0  0  0
  193.9540  172.8170  145.0410 O   0  0  0  0  0  1  0  0  0  0  0  0
  193.0530  172.7250  143.9790 C   0  0  0  0  0  3  0  0  0  0  0  0
  192.6650  174.7140  142.3890 C   0  0  0  0  0  0  0  0  0  0  0  0
  192.5030  174.0040  141.2760 C   0  0  0  0  0  2  0  0  0  0  0  0
  193.2830  176.0740  142.3050 C   0  0  0  0  0  2  0  0  0  0  0  0
  194.0270  176.3320  143.4570 O   0  0  0  0  0  0  0  0  0  0  0  0
  195.3410  176.0410  143.0960 C   0  0  0  0  0  1  0  0  0  0  0  0
  1 10  1  1  0  0  0
  1 16  1  0  0  0  0
  2  3  1  0  0  0  0
  2 14  1  0  0  0  0
  3 21  1  0  0  0  0
  4  9  1  0  0  0  0
  5 12  1  0  0  0  0
  6  2  1  0  0  0  0
  6 13  1  0  0  0  0
  7  1  1  0  0  0  0
  7 19  1  0  0  0  0
  8  3  1  0  0  0  0
  8  5  1  0  0  0  0
  9 14  1  0  0  0  0
  9 15  1  0  0  0  0
 12 17  1  0  0  0  0
 13  9  1  0  0  0  0
 14 20  1  0  0  0  0
 16  6  1  0  0  0  0
 17 22  1  0  0  0  0
 18  4  1  0  0  0  0
 19 18  1  0  0  0  0
 19  6  1  0  0  0  0
 20 11  1  0  0  0  0
 21 22  1  0  0  0  0
 21 11  1  0  0  0  0
 23 26  1  0  0  0  0
 23  4  1  0  0  0  0
 26 24  1  0  0  0  0
 26 25  1  0  0  0  0
 27 23  1  0  0  0  0
 28 27  2  0  0  0  0
 29 27  1  0  0  0  0
 29 30  1  0  0  0  0
 31 30  1  0  0  0  0
M  END
>  <MODEL>
9

>  <REMARK>
 VINA RESULT:      -6.9      2.470      6.754
  Name = 
  5 active torsions:
  status: ('A' for Active; 'I' for Inactive)
    1  A    between atoms: O_1  and  C_8
    2  A    between atoms: C_7  and  C_22
    3  A    between atoms: C_8  and  C_19
    4  A    between atoms: C_9  and  C_22
    5  A    between atoms: C_19  and  C_22
                            x       y       z     vdW  Elec       q    Type
                         _______ _______ _______ _____ _____    ______ ____

>  <TORSDO>
F 5

$$$$
