=
 OpenBabel11052420413D

 43 48  0  0  1  0  0  0  0  0999 V2000
  191.2230  177.3640  148.4220 C   0  0  0  0  0  0  0  0  0  0  0  0
  188.5520  176.0320  144.3650 C   0  0  0  0  0  0  0  0  0  0  0  0
  190.1280  174.4260  142.7470 C   0  0  2  0  0  3  0  0  0  0  0  0
  189.4590  177.0720  146.7960 C   0  0  0  0  0  0  0  0  0  0  0  0
  192.0610  176.5450  147.6660 C   0  0  0  0  0  3  0  0  0  0  0  0
  191.7220  177.9780  149.6790 C   0  0  0  0  0  1  0  0  0  0  0  0
  190.2980  176.2120  146.0390 C   0  0  0  0  0  0  0  0  0  0  0  0
  189.9230  177.6330  147.9860 C   0  0  0  0  0  3  0  0  0  0  0  0
  191.5990  175.9740  146.4750 C   0  0  0  0  0  3  0  0  0  0  0  0
  190.6000  174.7990  144.0480 O   0  0  0  0  0  0  0  0  0  0  0  0
  189.8290  175.6800  144.8310 C   0  0  0  0  0  0  0  0  0  0  0  0
  187.7360  176.9010  145.1060 C   0  0  0  0  0  3  0  0  0  0  0  0
  188.2310  175.5700  142.9650 C   0  0  1  0  0  3  0  0  0  0  0  0
  188.7290  174.2660  142.7570 O   0  0  0  0  0  0  0  0  0  0  0  0
  188.1830  177.3970  146.3310 C   0  0  0  0  0  3  0  0  0  0  0  0
  190.7880  173.1930  142.2400 C   0  0  0  0  0  0  0  0  0  0  0  0
  193.2340  170.5720  143.4430 N   0  0  0  0  0  2  0  0  0  0  0  0
  191.8030  172.5400  143.0050 N   0  0  0  0  0  2  0  0  0  0  0  0
  190.3840  172.6860  141.1580 O   0  0  0  0  0  0  0  0  0  0  0  0
  192.0220  171.1270  142.9510 C   0  0  0  0  0  0  0  0  0  0  0  0
  191.1250  170.3630  142.4910 O   0  0  0  0  0  0  0  0  0  0  0  0
  194.5440  170.2610  143.9780 C   0  0  2  0  0  3  0  0  0  0  0  0
  195.4130  171.2170  145.8780 O   0  0  0  0  0  0  0  0  0  0  0  0
  195.3920  172.6970  143.9030 C   0  0  0  0  0  0  0  0  0  0  0  0
  194.4260  169.3520  145.1680 C   0  0  0  0  0  3  0  0  0  0  0  0
  195.1330  171.4560  144.5600 N   0  0  0  0  0  0  0  0  0  0  0  0
  195.0900  172.8480  142.6850 O   0  0  0  0  0  0  0  0  0  0  0  0
  194.9660  169.9560  146.2300 C   0  0  0  0  0  3  0  0  0  0  0  0
  195.9760  173.8370  144.6810 C   0  0  2  0  0  3  0  0  0  0  0  0
  196.6860  177.0170  143.4230 O   0  0  0  0  0  0  0  0  0  0  0  0
  195.0430  176.1010  144.9350 C   0  0  0  0  0  3  0  0  0  0  0  0
  196.1920  176.0240  144.0130 C   0  0  0  0  0  0  0  0  0  0  0  0
  194.8790  174.6490  145.3890 C   0  0  0  0  0  3  0  0  0  0  0  0
  196.6510  174.7410  143.8230 O   0  0  0  0  0  0  0  0  0  0  0  0
  186.7810  175.7600  142.4770 C   0  0  0  0  0  2  0  0  0  0  0  0
  186.6670  176.6840  141.4110 O   0  0  0  0  0  0  0  0  0  0  0  0
  185.0030  177.2070  142.8840 O   0  0  0  0  0  0  0  0  0  0  0  0
  184.7210  178.3790  143.5890 C   0  0  2  0  0  3  0  0  0  0  0  0
  186.4180  178.9130  142.2540 C   0  0  0  0  0  2  0  0  0  0  0  0
  185.7360  177.6640  141.7950 C   0  0  1  0  0  3  0  0  0  0  0  0
  185.7540  179.3210  143.4120 O   0  0  0  0  0  0  0  0  0  0  0  0
  183.7310  179.0190  145.6680 O   0  0  0  0  0  1  0  0  0  0  0  0
  184.5530  178.0630  145.0640 C   0  0  0  0  0  2  0  0  0  0  0  0
  1  6  1  0  0  0  0
  2 11  2  0  0  0  0
  2 12  1  0  0  0  0
  3 16  1  1  0  0  0
  3 14  1  0  0  0  0
  3 10  1  0  0  0  0
  4  8  2  0  0  0  0
  5  1  2  0  0  0  0
  7  9  2  0  0  0  0
  7  4  1  0  0  0  0
  8  1  1  0  0  0  0
  9  5  1  0  0  0  0
 10 11  1  0  0  0  0
 11  7  1  0  0  0  0
 12 15  2  0  0  0  0
 13 35  1  1  0  0  0
 13  2  1  0  0  0  0
 14 13  1  0  0  0  0
 15  4  1  0  0  0  0
 16 18  1  0  0  0  0
 19 16  2  0  0  0  0
 20 18  1  0  0  0  0
 20 17  1  0  0  0  0
 21 20  2  0  0  0  0
 22 17  1  1  0  0  0
 22 26  1  0  0  0  0
 22 25  1  0  0  0  0
 23 28  1  0  0  0  0
 24 26  1  0  0  0  0
 25 28  2  0  0  0  0
 26 23  1  0  0  0  0
 27 24  2  0  0  0  0
 29 24  1  6  0  0  0
 29 33  1  0  0  0  0
 30 32  2  0  0  0  0
 31 33  2  0  0  0  0
 32 31  1  0  0  0  0
 34 32  1  0  0  0  0
 34 29  1  0  0  0  0
 36 35  1  0  0  0  0
 37 38  1  0  0  0  0
 38 43  1  1  0  0  0
 39 41  1  0  0  0  0
 40 36  1  1  0  0  0
 40 39  1  0  0  0  0
 40 37  1  0  0  0  0
 41 38  1  0  0  0  0
 43 42  1  0  0  0  0
M  END
>  <MODEL>
1

>  <REMARK>
 VINA RESULT:      -8.4      0.000      0.000
  Name = 
  7 active torsions:
  status: ('A' for Active; 'I' for Inactive)
    1  A    between atoms: C_1  and  O_32
    2  A    between atoms: C_1  and  C_34
    3  A    between atoms: C_2  and  C_13
    4  A    between atoms: N_3  and  C_4
    5  A    between atoms: C_11  and  C_14
    6  A    between atoms: C_19  and  C_37
    7  A    between atoms: O_32  and  C_35
                            x       y       z     vdW  Elec       q    Type
                         _______ _______ _______ _____ _____    ______ ____

>  <TORSDO>
F 7

$$$$
=
 OpenBabel11052420413D

 43 48  0  0  1  0  0  0  0  0999 V2000
  185.4560  177.9340  146.2430 C   0  0  0  0  0  0  0  0  0  0  0  0
  188.6920  175.5770  143.1870 C   0  0  0  0  0  0  0  0  0  0  0  0
  191.2390  175.7720  144.2640 C   0  0  2  0  0  3  0  0  0  0  0  0
  186.4410  176.6630  144.4390 C   0  0  0  0  0  0  0  0  0  0  0  0
  186.7060  178.0500  146.8500 C   0  0  0  0  0  3  0  0  0  0  0  0
  184.2670  178.5700  146.8660 C   0  0  0  0  0  1  0  0  0  0  0  0
  187.7100  176.7520  145.0690 C   0  0  0  0  0  0  0  0  0  0  0  0
  185.3220  177.2460  145.0350 C   0  0  0  0  0  3  0  0  0  0  0  0
  187.8310  177.4630  146.2610 C   0  0  0  0  0  3  0  0  0  0  0  0
  190.1120  176.2180  145.0300 O   0  0  0  0  0  0  0  0  0  0  0  0
  188.8310  176.1890  144.4450 C   0  0  0  0  0  0  0  0  0  0  0  0
  187.4390  175.5130  142.5590 C   0  0  0  0  0  3  0  0  0  0  0  0
  189.9870  175.1900  142.5180 C   0  0  1  0  0  3  0  0  0  0  0  0
  190.8890  174.6650  143.4690 O   0  0  0  0  0  0  0  0  0  0  0  0
  186.3140  176.0340  143.2000 C   0  0  0  0  0  3  0  0  0  0  0  0
  192.4090  175.4470  145.1220 C   0  0  0  0  0  0  0  0  0  0  0  0
  196.1500  175.0010  144.7880 N   0  0  0  0  0  2  0  0  0  0  0  0
  193.7000  175.2300  144.5480 N   0  0  0  0  0  2  0  0  0  0  0  0
  192.2640  175.4420  146.3750 O   0  0  0  0  0  0  0  0  0  0  0  0
  194.9140  175.5400  145.2380 C   0  0  0  0  0  0  0  0  0  0  0  0
  194.8970  176.3180  146.2350 O   0  0  0  0  0  0  0  0  0  0  0  0
  197.2580  174.3140  144.1560 C   0  0  2  0  0  3  0  0  0  0  0  0
  197.0460  172.3540  142.9750 O   0  0  0  0  0  0  0  0  0  0  0  0
  196.8900  172.0960  145.4240 C   0  0  0  0  0  0  0  0  0  0  0  0
  197.2480  174.5510  142.6730 C   0  0  0  0  0  3  0  0  0  0  0  0
  197.0570  172.8760  144.2400 N   0  0  0  0  0  0  0  0  0  0  0  0
  196.8960  172.6530  146.5590 O   0  0  0  0  0  0  0  0  0  0  0  0
  197.1440  173.3760  142.0460 C   0  0  0  0  0  3  0  0  0  0  0  0
  196.6580  170.6200  145.3110 C   0  0  2  0  0  3  0  0  0  0  0  0
  197.3730  168.2450  147.7700 O   0  0  0  0  0  0  0  0  0  0  0  0
  195.3580  169.1950  146.8410 C   0  0  0  0  0  3  0  0  0  0  0  0
  196.8190  169.0450  146.9740 C   0  0  0  0  0  0  0  0  0  0  0  0
  195.2280  170.2470  145.7380 C   0  0  0  0  0  3  0  0  0  0  0  0
  197.5290  169.9040  146.1680 O   0  0  0  0  0  0  0  0  0  0  0  0
  189.8890  174.3460  141.2310 C   0  0  0  0  0  2  0  0  0  0  0  0
  191.1490  173.9610  140.7170 O   0  0  0  0  0  0  0  0  0  0  0  0
  192.2090  172.1280  141.5690 O   0  0  0  0  0  0  0  0  0  0  0  0
  191.7180  170.9130  142.0520 C   0  0  2  0  0  3  0  0  0  0  0  0
  189.9330  171.9670  141.2480 C   0  0  0  0  0  2  0  0  0  0  0  0
  191.1990  172.5570  140.7160 C   0  0  1  0  0  3  0  0  0  0  0  0
  190.3110  170.9380  142.1130 O   0  0  0  0  0  0  0  0  0  0  0  0
  192.0210  171.7080  144.2850 O   0  0  0  0  0  1  0  0  0  0  0  0
  192.2930  170.6370  143.4290 C   0  0  0  0  0  2  0  0  0  0  0  0
  1  5  1  0  0  0  0
  1  6  1  0  0  0  0
  2 11  1  0  0  0  0
  3 10  1  0  0  0  0
  3 16  1  1  0  0  0
  4  8  1  0  0  0  0
  4  7  1  0  0  0  0
  7  9  1  0  0  0  0
  8  1  2  0  0  0  0
  9  5  2  0  0  0  0
 11 10  1  0  0  0  0
 11  7  2  0  0  0  0
 12  2  2  0  0  0  0
 12 15  1  0  0  0  0
 13 35  1  6  0  0  0
 13  2  1  0  0  0  0
 13 14  1  0  0  0  0
 14  3  1  0  0  0  0
 15  4  2  0  0  0  0
 16 19  2  0  0  0  0
 17 20  1  0  0  0  0
 18 16  1  0  0  0  0
 18 20  1  0  0  0  0
 20 21  2  0  0  0  0
 22 26  1  0  0  0  0
 22 17  1  1  0  0  0
 23 26  1  0  0  0  0
 24 27  2  0  0  0  0
 25 22  1  0  0  0  0
 26 24  1  0  0  0  0
 28 25  2  0  0  0  0
 28 23  1  0  0  0  0
 29 24  1  1  0  0  0
 29 33  1  0  0  0  0
 29 34  1  0  0  0  0
 31 32  1  0  0  0  0
 32 30  2  0  0  0  0
 33 31  2  0  0  0  0
 34 32  1  0  0  0  0
 36 35  1  0  0  0  0
 37 38  1  0  0  0  0
 38 41  1  0  0  0  0
 38 43  1  1  0  0  0
 39 41  1  0  0  0  0
 40 36  1  1  0  0  0
 40 39  1  0  0  0  0
 40 37  1  0  0  0  0
 43 42  1  0  0  0  0
M  END
>  <MODEL>
2

>  <REMARK>
 VINA RESULT:      -8.4      2.747      5.963
  Name = 
  7 active torsions:
  status: ('A' for Active; 'I' for Inactive)
    1  A    between atoms: C_1  and  O_32
    2  A    between atoms: C_1  and  C_34
    3  A    between atoms: C_2  and  C_13
    4  A    between atoms: N_3  and  C_4
    5  A    between atoms: C_11  and  C_14
    6  A    between atoms: C_19  and  C_37
    7  A    between atoms: O_32  and  C_35
                            x       y       z     vdW  Elec       q    Type
                         _______ _______ _______ _____ _____    ______ ____

>  <TORSDO>
F 7

$$$$
=
 OpenBabel11052420413D

 43 48  0  0  1  0  0  0  0  0999 V2000
  185.3810  177.9750  146.2700 C   0  0  0  0  0  0  0  0  0  0  0  0
  188.5870  175.6230  143.1790 C   0  0  0  0  0  0  0  0  0  0  0  0
  191.1320  175.7500  144.2680 C   0  0  2  0  0  3  0  0  0  0  0  0
  186.3510  176.7230  144.4440 C   0  0  0  0  0  0  0  0  0  0  0  0
  186.6300  178.0560  146.8840 C   0  0  0  0  0  3  0  0  0  0  0  0
  184.2010  178.6200  146.9020 C   0  0  0  0  0  1  0  0  0  0  0  0
  187.6190  176.7760  145.0800 C   0  0  0  0  0  0  0  0  0  0  0  0
  185.2400  177.3140  145.0480 C   0  0  0  0  0  3  0  0  0  0  0  0
  187.7470  177.4610  146.2870 C   0  0  0  0  0  3  0  0  0  0  0  0
  190.0100  176.2000  145.0390 O   0  0  0  0  0  0  0  0  0  0  0  0
  188.7310  176.2060  144.4490 C   0  0  0  0  0  0  0  0  0  0  0  0
  187.3350  175.5930  142.5450 C   0  0  0  0  0  3  0  0  0  0  0  0
  189.8770  175.2250  142.5060 C   0  0  1  0  0  3  0  0  0  0  0  0
  190.7660  174.6650  143.4490 O   0  0  0  0  0  0  0  0  0  0  0  0
  186.2170  176.1210  143.1920 C   0  0  0  0  0  3  0  0  0  0  0  0
  192.2930  175.3870  145.1240 C   0  0  0  0  0  0  0  0  0  0  0  0
  196.0490  175.0540  144.8370 N   0  0  0  0  0  2  0  0  0  0  0  0
  193.6000  175.2450  144.5630 N   0  0  0  0  0  2  0  0  0  0  0  0
  192.1240  175.2820  146.3700 O   0  0  0  0  0  0  0  0  0  0  0  0
  194.7920  175.5280  145.3000 C   0  0  0  0  0  0  0  0  0  0  0  0
  194.7370  176.2270  146.3530 O   0  0  0  0  0  0  0  0  0  0  0  0
  197.1860  174.4440  144.1780 C   0  0  2  0  0  3  0  0  0  0  0  0
  197.0610  172.5250  142.9200 O   0  0  0  0  0  0  0  0  0  0  0  0
  196.9220  172.1630  145.3570 C   0  0  0  0  0  0  0  0  0  0  0  0
  197.1620  174.7390  142.7050 C   0  0  0  0  0  3  0  0  0  0  0  0
  197.0510  172.9960  144.2050 N   0  0  0  0  0  0  0  0  0  0  0  0
  196.9050  172.6740  146.5130 O   0  0  0  0  0  0  0  0  0  0  0  0
  197.1110  173.5860  142.0330 C   0  0  0  0  0  3  0  0  0  0  0  0
  196.7570  170.6840  145.1850 C   0  0  2  0  0  3  0  0  0  0  0  0
  197.4990  168.2530  147.5820 O   0  0  0  0  0  0  0  0  0  0  0  0
  195.4740  169.1520  146.6240 C   0  0  0  0  0  3  0  0  0  0  0  0
  196.9350  169.0580  146.7970 C   0  0  0  0  0  0  0  0  0  0  0  0
  195.3320  170.2360  145.5540 C   0  0  0  0  0  3  0  0  0  0  0  0
  197.6320  169.9740  146.0440 O   0  0  0  0  0  0  0  0  0  0  0  0
  189.7680  174.4090  141.2030 C   0  0  0  0  0  2  0  0  0  0  0  0
  189.5000  173.0370  141.4230 O   0  0  0  0  0  0  0  0  0  0  0  0
  188.2840  173.6150  139.5800 O   0  0  0  0  0  0  0  0  0  0  0  0
  188.3280  173.1630  138.2590 C   0  0  2  0  0  3  0  0  0  0  0  0
  189.7540  171.8540  139.3560 C   0  0  0  0  0  2  0  0  0  0  0  0
  188.8210  172.5500  140.2940 C   0  0  1  0  0  3  0  0  0  0  0  0
  189.4190  172.2900  138.0720 O   0  0  0  0  0  0  0  0  0  0  0  0
  187.3960  175.2440  137.5460 O   0  0  0  0  0  1  0  0  0  0  0  0
  188.4410  174.3450  137.3140 C   0  0  0  0  0  2  0  0  0  0  0  0
  1  5  1  0  0  0  0
  1  6  1  0  0  0  0
  2 11  1  0  0  0  0
  3 10  1  0  0  0  0
  3 16  1  1  0  0  0
  4  8  1  0  0  0  0
  4  7  1  0  0  0  0
  7  9  1  0  0  0  0
  8  1  2  0  0  0  0
  9  5  2  0  0  0  0
 11 10  1  0  0  0  0
 11  7  2  0  0  0  0
 12  2  2  0  0  0  0
 12 15  1  0  0  0  0
 13 35  1  6  0  0  0
 13  2  1  0  0  0  0
 13 14  1  0  0  0  0
 14  3  1  0  0  0  0
 15  4  2  0  0  0  0
 16 19  2  0  0  0  0
 17 20  1  0  0  0  0
 18 16  1  0  0  0  0
 18 20  1  0  0  0  0
 20 21  2  0  0  0  0
 22 26  1  0  0  0  0
 22 17  1  1  0  0  0
 23 26  1  0  0  0  0
 24 27  2  0  0  0  0
 25 22  1  0  0  0  0
 26 24  1  0  0  0  0
 28 25  2  0  0  0  0
 28 23  1  0  0  0  0
 29 24  1  1  0  0  0
 29 33  1  0  0  0  0
 29 34  1  0  0  0  0
 31 32  1  0  0  0  0
 32 30  2  0  0  0  0
 33 31  2  0  0  0  0
 34 32  1  0  0  0  0
 35 36  1  0  0  0  0
 37 40  1  0  0  0  0
 38 43  1  6  0  0  0
 38 37  1  0  0  0  0
 39 40  1  0  0  0  0
 40 36  1  1  0  0  0
 41 38  1  0  0  0  0
 41 39  1  0  0  0  0
 43 42  1  0  0  0  0
M  END
>  <MODEL>
3

>  <REMARK>
 VINA RESULT:      -8.3      2.803      5.636
  Name = 
  7 active torsions:
  status: ('A' for Active; 'I' for Inactive)
    1  A    between atoms: C_1  and  O_32
    2  A    between atoms: C_1  and  C_34
    3  A    between atoms: C_2  and  C_13
    4  A    between atoms: N_3  and  C_4
    5  A    between atoms: C_11  and  C_14
    6  A    between atoms: C_19  and  C_37
    7  A    between atoms: O_32  and  C_35
                            x       y       z     vdW  Elec       q    Type
                         _______ _______ _______ _____ _____    ______ ____

>  <TORSDO>
F 7

$$$$
=
 OpenBabel11052420413D

 43 48  0  0  1  0  0  0  0  0999 V2000
  186.6990  178.6200  147.4290 C   0  0  0  0  0  0  0  0  0  0  0  0
  184.7950  178.4320  142.7700 C   0  0  0  0  0  0  0  0  0  0  0  0
  186.6870  177.3220  141.0770 C   0  0  2  0  0  3  0  0  0  0  0  0
  185.2410  178.7770  145.5080 C   0  0  0  0  0  0  0  0  0  0  0  0
  187.6870  178.0360  146.6380 C   0  0  0  0  0  3  0  0  0  0  0  0
  186.9560  178.8730  148.8710 C   0  0  0  0  0  1  0  0  0  0  0  0
  186.2320  178.1540  144.7050 C   0  0  0  0  0  0  0  0  0  0  0  0
  185.4780  178.9970  146.8660 C   0  0  0  0  0  3  0  0  0  0  0  0
  187.4530  177.8070  145.2770 C   0  0  0  0  0  3  0  0  0  0  0  0
  186.9220  177.3310  142.4920 O   0  0  0  0  0  0  0  0  0  0  0  0
  185.9930  177.9670  143.3370 C   0  0  0  0  0  0  0  0  0  0  0  0
  183.8290  179.0680  143.5650 C   0  0  0  0  0  3  0  0  0  0  0  0
  184.7300  178.3640  141.2650 C   0  0  1  0  0  3  0  0  0  0  0  0
  185.3150  177.1650  140.8060 O   0  0  0  0  0  0  0  0  0  0  0  0
  184.0450  179.2150  144.9360 C   0  0  0  0  0  3  0  0  0  0  0  0
  187.4790  176.2730  140.3810 C   0  0  0  0  0  0  0  0  0  0  0  0
  190.2100  173.7770  141.1630 N   0  0  0  0  0  2  0  0  0  0  0  0
  188.5650  175.6180  141.0390 N   0  0  0  0  0  2  0  0  0  0  0  0
  187.1270  175.9100  139.2250 O   0  0  0  0  0  0  0  0  0  0  0  0
  188.9400  174.2680  140.7550 C   0  0  0  0  0  0  0  0  0  0  0  0
  188.1320  173.4950  140.1630 O   0  0  0  0  0  0  0  0  0  0  0  0
  191.5500  173.5300  141.6550 C   0  0  2  0  0  3  0  0  0  0  0  0
  192.0230  172.2340  143.4930 O   0  0  0  0  0  0  0  0  0  0  0  0
  191.0870  174.4560  144.0190 C   0  0  0  0  0  0  0  0  0  0  0  0
  192.0090  172.1520  141.2670 C   0  0  0  0  0  3  0  0  0  0  0  0
  191.5340  173.4520  143.1070 N   0  0  0  0  0  0  0  0  0  0  0  0
  190.6330  175.5530  143.5860 O   0  0  0  0  0  0  0  0  0  0  0  0
  192.2860  171.4600  142.3760 C   0  0  0  0  0  3  0  0  0  0  0  0
  191.1140  174.1800  145.4920 C   0  0  2  0  0  3  0  0  0  0  0  0
  191.1840  176.5900  148.0200 O   0  0  0  0  0  0  0  0  0  0  0  0
  189.5450  175.0230  147.1930 C   0  0  0  0  0  3  0  0  0  0  0  0
  190.8600  175.6900  147.2040 C   0  0  0  0  0  0  0  0  0  0  0  0
  189.6920  174.0130  146.0530 C   0  0  0  0  0  3  0  0  0  0  0  0
  191.6960  175.2620  146.1980 O   0  0  0  0  0  0  0  0  0  0  0  0
  183.3720  178.6790  140.6050 C   0  0  0  0  0  2  0  0  0  0  0  0
  182.3350  177.8080  141.0170 O   0  0  0  0  0  0  0  0  0  0  0  0
  180.1010  177.5420  140.6350 O   0  0  0  0  0  0  0  0  0  0  0  0
  178.9830  178.1820  141.1760 C   0  0  2  0  0  3  0  0  0  0  0  0
  180.7280  179.2740  142.0190 C   0  0  0  0  0  2  0  0  0  0  0  0
  181.1150  178.4750  140.8170 C   0  0  1  0  0  3  0  0  0  0  0  0
  179.3670  179.0410  142.2260 O   0  0  0  0  0  0  0  0  0  0  0  0
  177.7550  177.3450  143.0480 O   0  0  0  0  0  1  0  0  0  0  0  0
  177.9960  177.1480  141.6850 C   0  0  0  0  0  2  0  0  0  0  0  0
  1  6  1  0  0  0  0
  2 11  2  0  0  0  0
  2 12  1  0  0  0  0
  3 16  1  6  0  0  0
  3 10  1  0  0  0  0
  4  8  2  0  0  0  0
  5  1  2  0  0  0  0
  7  9  2  0  0  0  0
  7  4  1  0  0  0  0
  8  1  1  0  0  0  0
  9  5  1  0  0  0  0
 10 11  1  0  0  0  0
 11  7  1  0  0  0  0
 12 15  2  0  0  0  0
 13 35  1  1  0  0  0
 13  2  1  0  0  0  0
 14  3  1  0  0  0  0
 14 13  1  0  0  0  0
 15  4  1  0  0  0  0
 16 18  1  0  0  0  0
 19 16  2  0  0  0  0
 20 18  1  0  0  0  0
 20 17  1  0  0  0  0
 21 20  2  0  0  0  0
 22 17  1  6  0  0  0
 22 26  1  0  0  0  0
 25 22  1  0  0  0  0
 25 28  2  0  0  0  0
 26 23  1  0  0  0  0
 26 24  1  0  0  0  0
 27 24  2  0  0  0  0
 28 23  1  0  0  0  0
 29 24  1  6  0  0  0
 29 33  1  0  0  0  0
 29 34  1  0  0  0  0
 31 32  1  0  0  0  0
 32 30  2  0  0  0  0
 33 31  2  0  0  0  0
 34 32  1  0  0  0  0
 35 36  1  0  0  0  0
 37 40  1  0  0  0  0
 37 38  1  0  0  0  0
 38 43  1  1  0  0  0
 38 41  1  0  0  0  0
 39 41  1  0  0  0  0
 40 36  1  1  0  0  0
 40 39  1  0  0  0  0
 43 42  1  0  0  0  0
M  END
>  <MODEL>
4

>  <REMARK>
 VINA RESULT:      -8.3      3.048      5.218
  Name = 
  7 active torsions:
  status: ('A' for Active; 'I' for Inactive)
    1  A    between atoms: C_1  and  O_32
    2  A    between atoms: C_1  and  C_34
    3  A    between atoms: C_2  and  C_13
    4  A    between atoms: N_3  and  C_4
    5  A    between atoms: C_11  and  C_14
    6  A    between atoms: C_19  and  C_37
    7  A    between atoms: O_32  and  C_35
                            x       y       z     vdW  Elec       q    Type
                         _______ _______ _______ _____ _____    ______ ____

>  <TORSDO>
F 7

$$$$
=
 OpenBabel11052420413D

 43 48  0  0  1  0  0  0  0  0999 V2000
  188.9300  173.6570  140.0090 C   0  0  0  0  0  0  0  0  0  0  0  0
  188.8190  176.4250  144.2140 C   0  0  0  0  0  0  0  0  0  0  0  0
  191.2080  176.0760  145.5750 C   0  0  2  0  0  3  0  0  0  0  0  0
  188.2790  175.1720  141.7750 C   0  0  0  0  0  0  0  0  0  0  0  0
  190.1610  173.4540  140.6300 C   0  0  0  0  0  3  0  0  0  0  0  0
  188.6080  172.9380  138.7480 C   0  0  0  0  0  1  0  0  0  0  0  0
  189.5430  174.9940  142.3950 C   0  0  0  0  0  0  0  0  0  0  0  0
  187.9850  174.5110  140.5810 C   0  0  0  0  0  3  0  0  0  0  0  0
  190.4650  174.1190  141.8230 C   0  0  0  0  0  3  0  0  0  0  0  0
  191.0570  175.5260  144.2600 O   0  0  0  0  0  0  0  0  0  0  0  0
  189.8140  175.6400  143.6080 C   0  0  0  0  0  0  0  0  0  0  0  0
  187.5630  176.5800  143.6080 C   0  0  0  0  0  3  0  0  0  0  0  0
  189.1420  176.9040  145.6080 C   0  0  1  0  0  3  0  0  0  0  0  0
  190.4990  177.2870  145.6890 O   0  0  0  0  0  0  0  0  0  0  0  0
  187.3070  175.9730  142.3770 C   0  0  0  0  0  3  0  0  0  0  0  0
  192.6360  176.2740  145.9420 C   0  0  0  0  0  0  0  0  0  0  0  0
  196.0120  176.4690  144.2480 N   0  0  0  0  0  2  0  0  0  0  0  0
  193.6690  176.1360  144.9640 N   0  0  0  0  0  2  0  0  0  0  0  0
  192.9190  176.6450  147.1150 O   0  0  0  0  0  0  0  0  0  0  0  0
  194.8910  176.8770  145.0210 C   0  0  0  0  0  0  0  0  0  0  0  0
  194.9710  177.9160  145.7380 O   0  0  0  0  0  0  0  0  0  0  0  0
  197.0020  175.8410  143.3970 C   0  0  2  0  0  3  0  0  0  0  0  0
  196.5970  173.9750  142.1200 O   0  0  0  0  0  0  0  0  0  0  0  0
  196.8330  173.5320  144.5360 C   0  0  0  0  0  0  0  0  0  0  0  0
  196.7570  176.1900  141.9570 C   0  0  0  0  0  3  0  0  0  0  0  0
  196.8120  174.4000  143.4030 N   0  0  0  0  0  0  0  0  0  0  0  0
  197.0230  174.0010  145.6950 O   0  0  0  0  0  0  0  0  0  0  0  0
  196.5490  175.0640  141.2680 C   0  0  0  0  0  3  0  0  0  0  0  0
  196.5800  172.0670  144.3500 C   0  0  2  0  0  3  0  0  0  0  0  0
  197.0790  169.5850  146.7570 O   0  0  0  0  0  0  0  0  0  0  0  0
  195.1510  170.6140  145.7330 C   0  0  0  0  0  3  0  0  0  0  0  0
  196.5970  170.4270  145.9570 C   0  0  0  0  0  0  0  0  0  0  0  0
  195.1180  171.7090  144.6650 C   0  0  0  0  0  3  0  0  0  0  0  0
  197.3770  171.2990  145.2350 O   0  0  0  0  0  0  0  0  0  0  0  0
  188.1760  177.9240  146.2430 C   0  0  0  0  0  2  0  0  0  0  0  0
  187.3800  177.3730  147.2750 O   0  0  0  0  0  0  0  0  0  0  0  0
  186.0680  178.8870  146.1830 O   0  0  0  0  0  0  0  0  0  0  0  0
  184.8270  178.7590  145.5550 C   0  0  2  0  0  3  0  0  0  0  0  0
  185.1890  176.7820  146.5080 C   0  0  0  0  0  2  0  0  0  0  0  0
  186.0680  177.8390  147.0960 C   0  0  1  0  0  3  0  0  0  0  0  0
  184.4320  177.4070  145.5160 O   0  0  0  0  0  0  0  0  0  0  0  0
  185.5600  180.5530  144.1580 O   0  0  0  0  0  1  0  0  0  0  0  0
  184.9030  179.3200  144.1470 C   0  0  0  0  0  2  0  0  0  0  0  0
  1  8  2  0  0  0  0
  1  5  1  0  0  0  0
  2 13  1  0  0  0  0
  3 14  1  0  0  0  0
  3 16  1  6  0  0  0
  4 15  1  0  0  0  0
  4  7  2  0  0  0  0
  5  9  2  0  0  0  0
  6  1  1  0  0  0  0
  7 11  1  0  0  0  0
  8  4  1  0  0  0  0
  9  7  1  0  0  0  0
 10  3  1  0  0  0  0
 11  2  2  0  0  0  0
 11 10  1  0  0  0  0
 12  2  1  0  0  0  0
 13 14  1  0  0  0  0
 13 35  1  6  0  0  0
 15 12  2  0  0  0  0
 16 19  2  0  0  0  0
 17 20  1  0  0  0  0
 18 20  1  0  0  0  0
 18 16  1  0  0  0  0
 20 21  2  0  0  0  0
 22 26  1  0  0  0  0
 22 17  1  1  0  0  0
 23 26  1  0  0  0  0
 24 27  2  0  0  0  0
 25 22  1  0  0  0  0
 26 24  1  0  0  0  0
 28 25  2  0  0  0  0
 28 23  1  0  0  0  0
 29 24  1  1  0  0  0
 29 33  1  0  0  0  0
 29 34  1  0  0  0  0
 31 32  1  0  0  0  0
 32 30  2  0  0  0  0
 33 31  2  0  0  0  0
 34 32  1  0  0  0  0
 35 36  1  0  0  0  0
 37 40  1  0  0  0  0
 38 43  1  6  0  0  0
 38 37  1  0  0  0  0
 39 40  1  0  0  0  0
 40 36  1  6  0  0  0
 41 38  1  0  0  0  0
 41 39  1  0  0  0  0
 43 42  1  0  0  0  0
M  END
>  <MODEL>
5

>  <REMARK>
 VINA RESULT:      -8.1      2.477      5.504
  Name = 
  7 active torsions:
  status: ('A' for Active; 'I' for Inactive)
    1  A    between atoms: C_1  and  O_32
    2  A    between atoms: C_1  and  C_34
    3  A    between atoms: C_2  and  C_13
    4  A    between atoms: N_3  and  C_4
    5  A    between atoms: C_11  and  C_14
    6  A    between atoms: C_19  and  C_37
    7  A    between atoms: O_32  and  C_35
                            x       y       z     vdW  Elec       q    Type
                         _______ _______ _______ _____ _____    ______ ____

>  <TORSDO>
F 7

$$$$
=
 OpenBabel11052420413D

 43 48  0  0  1  0  0  0  0  0999 V2000
  185.4440  177.9750  146.0490 C   0  0  0  0  0  0  0  0  0  0  0  0
  188.6320  175.4650  143.0660 C   0  0  0  0  0  0  0  0  0  0  0  0
  191.1680  175.5710  144.1800 C   0  0  2  0  0  3  0  0  0  0  0  0
  186.4070  176.6500  144.2720 C   0  0  0  0  0  0  0  0  0  0  0  0
  186.6880  178.0490  146.6740 C   0  0  0  0  0  3  0  0  0  0  0  0
  184.2710  178.6640  146.6470 C   0  0  0  0  0  1  0  0  0  0  0  0
  187.6680  176.6950  144.9210 C   0  0  0  0  0  0  0  0  0  0  0  0
  185.3020  177.2810  144.8450 C   0  0  0  0  0  3  0  0  0  0  0  0
  187.7980  177.4130  146.1080 C   0  0  0  0  0  3  0  0  0  0  0  0
  190.0470  176.0680  144.9240 O   0  0  0  0  0  0  0  0  0  0  0  0
  188.7750  176.0830  144.3190 C   0  0  0  0  0  0  0  0  0  0  0  0
  187.3870  175.4430  142.4190 C   0  0  0  0  0  3  0  0  0  0  0  0
  189.9210  175.0210  142.4200 C   0  0  1  0  0  3  0  0  0  0  0  0
  190.7870  174.4700  143.3900 O   0  0  0  0  0  0  0  0  0  0  0  0
  186.2730  176.0130  143.0370 C   0  0  0  0  0  3  0  0  0  0  0  0
  192.3110  175.2100  145.0590 C   0  0  0  0  0  0  0  0  0  0  0  0
  196.0890  175.1100  144.9230 N   0  0  0  0  0  2  0  0  0  0  0  0
  193.6460  175.1840  144.5510 N   0  0  0  0  0  2  0  0  0  0  0  0
  192.0960  175.0010  146.2850 O   0  0  0  0  0  0  0  0  0  0  0  0
  194.7880  175.4770  145.3610 C   0  0  0  0  0  0  0  0  0  0  0  0
  194.6470  176.0890  146.4590 O   0  0  0  0  0  0  0  0  0  0  0  0
  197.2870  174.6170  144.2740 C   0  0  2  0  0  3  0  0  0  0  0  0
  197.3230  172.8160  142.8470 O   0  0  0  0  0  0  0  0  0  0  0  0
  197.0840  172.2290  145.2320 C   0  0  0  0  0  0  0  0  0  0  0  0
  197.3200  175.0430  142.8340 C   0  0  0  0  0  3  0  0  0  0  0  0
  197.2260  173.1680  144.1660 N   0  0  0  0  0  0  0  0  0  0  0  0
  196.9850  172.6320  146.4260 O   0  0  0  0  0  0  0  0  0  0  0  0
  197.3610  173.9550  142.0610 C   0  0  0  0  0  3  0  0  0  0  0  0
  197.0040  170.7650  144.9220 C   0  0  2  0  0  3  0  0  0  0  0  0
  197.9240  168.1690  147.0690 O   0  0  0  0  0  0  0  0  0  0  0  0
  195.8350  169.0290  146.2190 C   0  0  0  0  0  3  0  0  0  0  0  0
  197.3020  169.0080  146.3700 C   0  0  0  0  0  0  0  0  0  0  0  0
  195.6140  170.1990  145.2590 C   0  0  0  0  0  3  0  0  0  0  0  0
  197.9330  170.0320  145.7010 O   0  0  0  0  0  0  0  0  0  0  0  0
  189.8090  174.1680  141.1400 C   0  0  0  0  0  2  0  0  0  0  0  0
  190.5810  172.9830  141.1890 O   0  0  0  0  0  0  0  0  0  0  0  0
  192.1960  174.1520  140.0770 O   0  0  0  0  0  0  0  0  0  0  0  0
  193.3960  173.7470  139.4880 C   0  0  2  0  0  3  0  0  0  0  0  0
  192.4160  171.8590  140.1360 C   0  0  0  0  0  2  0  0  0  0  0  0
  191.4370  172.9870  140.0750 C   0  0  1  0  0  3  0  0  0  0  0  0
  193.6550  172.3930  139.7760 O   0  0  0  0  0  0  0  0  0  0  0  0
  194.0430  175.5920  140.8630 O   0  0  0  0  0  1  0  0  0  0  0  0
  194.5340  174.6140  139.9940 C   0  0  0  0  0  2  0  0  0  0  0  0
  1  6  1  0  0  0  0
  1  5  1  0  0  0  0
  2 11  1  0  0  0  0
  3 10  1  0  0  0  0
  3 16  1  1  0  0  0
  4  8  1  0  0  0  0
  4  7  1  0  0  0  0
  7  9  1  0  0  0  0
  8  1  2  0  0  0  0
  9  5  2  0  0  0  0
 11  7  2  0  0  0  0
 11 10  1  0  0  0  0
 12 15  1  0  0  0  0
 12  2  2  0  0  0  0
 13 35  1  6  0  0  0
 13  2  1  0  0  0  0
 13 14  1  0  0  0  0
 14  3  1  0  0  0  0
 15  4  2  0  0  0  0
 16 19  2  0  0  0  0
 17 20  1  0  0  0  0
 18 16  1  0  0  0  0
 18 20  1  0  0  0  0
 20 21  2  0  0  0  0
 22 17  1  6  0  0  0
 23 26  1  0  0  0  0
 24 27  2  0  0  0  0
 25 22  1  0  0  0  0
 26 22  1  0  0  0  0
 26 24  1  0  0  0  0
 28 25  2  0  0  0  0
 28 23  1  0  0  0  0
 29 24  1  1  0  0  0
 29 33  1  0  0  0  0
 29 34  1  0  0  0  0
 31 32  1  0  0  0  0
 32 30  2  0  0  0  0
 33 31  2  0  0  0  0
 34 32  1  0  0  0  0
 35 36  1  0  0  0  0
 38 41  1  0  0  0  0
 38 43  1  1  0  0  0
 38 37  1  0  0  0  0
 40 37  1  0  0  0  0
 40 39  1  0  0  0  0
 40 36  1  1  0  0  0
 41 39  1  0  0  0  0
 43 42  1  0  0  0  0
M  END
>  <MODEL>
6

>  <REMARK>
 VINA RESULT:      -7.9      2.837      6.159
  Name = 
  7 active torsions:
  status: ('A' for Active; 'I' for Inactive)
    1  A    between atoms: C_1  and  O_32
    2  A    between atoms: C_1  and  C_34
    3  A    between atoms: C_2  and  C_13
    4  A    between atoms: N_3  and  C_4
    5  A    between atoms: C_11  and  C_14
    6  A    between atoms: C_19  and  C_37
    7  A    between atoms: O_32  and  C_35
                            x       y       z     vdW  Elec       q    Type
                         _______ _______ _______ _____ _____    ______ ____

>  <TORSDO>
F 7

$$$$
=
 OpenBabel11052420413D

 43 48  0  0  1  0  0  0  0  0999 V2000
  185.4110  178.0700  144.1150 C   0  0  0  0  0  0  0  0  0  0  0  0
  189.3180  174.8990  144.3140 C   0  0  0  0  0  0  0  0  0  0  0  0
  189.5160  173.5730  141.8890 C   0  0  2  0  0  3  0  0  0  0  0  0
  187.3580  176.8260  144.8220 C   0  0  0  0  0  0  0  0  0  0  0  0
  185.4660  177.4550  142.8650 C   0  0  0  0  0  3  0  0  0  0  0  0
  184.3280  179.0420  144.4160 C   0  0  0  0  0  1  0  0  0  0  0  0
  187.4380  176.2210  143.5400 C   0  0  0  0  0  0  0  0  0  0  0  0
  186.3520  177.7530  145.0970 C   0  0  0  0  0  3  0  0  0  0  0  0
  186.4770  176.5300  142.5800 C   0  0  0  0  0  3  0  0  0  0  0  0
  188.5850  174.6540  142.0290 O   0  0  0  0  0  0  0  0  0  0  0  0
  188.4350  175.2700  143.2870 C   0  0  0  0  0  0  0  0  0  0  0  0
  189.2200  175.4830  145.5860 C   0  0  0  0  0  3  0  0  0  0  0  0
  190.2130  173.7270  143.9970 C   0  0  1  0  0  3  0  0  0  0  0  0
  190.6680  173.8090  142.6630 O   0  0  0  0  0  0  0  0  0  0  0  0
  188.2560  176.4640  145.8270 C   0  0  0  0  0  3  0  0  0  0  0  0
  189.8850  173.3290  140.4690 C   0  0  0  0  0  0  0  0  0  0  0  0
  192.8540  173.8030  138.1750 N   0  0  0  0  0  2  0  0  0  0  0  0
  191.1260  173.8040  139.9430 N   0  0  0  0  0  2  0  0  0  0  0  0
  189.1200  172.6270  139.7520 O   0  0  0  0  0  0  0  0  0  0  0  0
  191.8290  173.1310  138.8950 C   0  0  0  0  0  0  0  0  0  0  0  0
  191.5600  171.9260  138.6210 O   0  0  0  0  0  0  0  0  0  0  0  0
  193.8250  174.7020  137.5850 C   0  0  2  0  0  3  0  0  0  0  0  0
  196.0990  174.4540  137.7980 O   0  0  0  0  0  0  0  0  0  0  0  0
  194.9650  175.2910  139.8240 C   0  0  0  0  0  0  0  0  0  0  0  0
  194.4390  174.0850  136.3600 C   0  0  0  0  0  3  0  0  0  0  0  0
  194.9700  174.8390  138.4700 N   0  0  0  0  0  0  0  0  0  0  0  0
  193.8780  175.6150  140.3820 O   0  0  0  0  0  0  0  0  0  0  0  0
  195.7590  173.9880  136.5400 C   0  0  0  0  0  3  0  0  0  0  0  0
  196.2490  175.3320  140.5940 C   0  0  2  0  0  3  0  0  0  0  0  0
  196.8240  177.1670  143.5100 O   0  0  0  0  0  0  0  0  0  0  0  0
  196.5700  174.8260  142.9830 C   0  0  0  0  0  3  0  0  0  0  0  0
  196.6140  176.2650  142.6610 C   0  0  0  0  0  0  0  0  0  0  0  0
  196.3230  174.1850  141.6160 C   0  0  0  0  0  3  0  0  0  0  0  0
  196.3550  176.5340  141.3370 O   0  0  0  0  0  0  0  0  0  0  0  0
  191.3300  173.4000  145.0090 C   0  0  0  0  0  2  0  0  0  0  0  0
  192.6230  173.3990  144.4330 O   0  0  0  0  0  0  0  0  0  0  0  0
  192.8810  175.6140  143.9510 O   0  0  0  0  0  0  0  0  0  0  0  0
  192.9140  176.7450  144.7710 C   0  0  2  0  0  3  0  0  0  0  0  0
  192.8330  175.0260  146.1790 C   0  0  0  0  0  2  0  0  0  0  0  0
  193.2590  174.5920  144.8130 C   0  0  1  0  0  3  0  0  0  0  0  0
  192.6020  176.4010  146.1000 O   0  0  0  0  0  0  0  0  0  0  0  0
  191.4540  177.4060  142.9980 O   0  0  0  0  0  1  0  0  0  0  0  0
  191.9310  177.7810  144.2570 C   0  0  0  0  0  2  0  0  0  0  0  0
  1  6  1  0  0  0  0
  1  8  1  0  0  0  0
  2 12  1  0  0  0  0
  3 16  1  6  0  0  0
  3 10  1  0  0  0  0
  3 14  1  0  0  0  0
  4  8  2  0  0  0  0
  4 15  1  0  0  0  0
  5  1  2  0  0  0  0
  7  4  1  0  0  0  0
  9  5  1  0  0  0  0
  9  7  2  0  0  0  0
 10 11  1  0  0  0  0
 11  7  1  0  0  0  0
 11  2  2  0  0  0  0
 12 15  2  0  0  0  0
 13  2  1  0  0  0  0
 13 35  1  1  0  0  0
 14 13  1  0  0  0  0
 17 20  1  0  0  0  0
 18 16  1  0  0  0  0
 19 16  2  0  0  0  0
 20 18  1  0  0  0  0
 21 20  2  0  0  0  0
 22 17  1  1  0  0  0
 22 26  1  0  0  0  0
 23 26  1  0  0  0  0
 24 27  2  0  0  0  0
 25 28  2  0  0  0  0
 25 22  1  0  0  0  0
 26 24  1  0  0  0  0
 28 23  1  0  0  0  0
 29 24  1  1  0  0  0
 29 34  1  0  0  0  0
 29 33  1  0  0  0  0
 32 31  1  0  0  0  0
 32 30  2  0  0  0  0
 33 31  2  0  0  0  0
 34 32  1  0  0  0  0
 36 35  1  0  0  0  0
 37 38  1  0  0  0  0
 37 40  1  0  0  0  0
 38 43  1  6  0  0  0
 38 41  1  0  0  0  0
 40 36  1  6  0  0  0
 40 39  1  0  0  0  0
 41 39  1  0  0  0  0
 42 43  1  0  0  0  0
M  END
>  <MODEL>
7

>  <REMARK>
 VINA RESULT:      -7.8      3.137      5.842
  Name = 
  7 active torsions:
  status: ('A' for Active; 'I' for Inactive)
    1  A    between atoms: C_1  and  O_32
    2  A    between atoms: C_1  and  C_34
    3  A    between atoms: C_2  and  C_13
    4  A    between atoms: N_3  and  C_4
    5  A    between atoms: C_11  and  C_14
    6  A    between atoms: C_19  and  C_37
    7  A    between atoms: O_32  and  C_35
                            x       y       z     vdW  Elec       q    Type
                         _______ _______ _______ _____ _____    ______ ____

>  <TORSDO>
F 7

$$$$
=
 OpenBabel11052420413D

 43 48  0  0  1  0  0  0  0  0999 V2000
  186.3570  178.1360  146.4200 C   0  0  0  0  0  0  0  0  0  0  0  0
  189.5690  174.6690  144.6800 C   0  0  0  0  0  0  0  0  0  0  0  0
  188.9580  174.1380  142.0290 C   0  0  2  0  0  3  0  0  0  0  0  0
  188.1590  176.5400  146.2040 C   0  0  0  0  0  0  0  0  0  0  0  0
  186.0110  177.9320  145.0850 C   0  0  0  0  0  3  0  0  0  0  0  0
  185.5670  179.0760  147.2570 C   0  0  0  0  0  1  0  0  0  0  0  0
  187.8300  176.3530  144.8360 C   0  0  0  0  0  0  0  0  0  0  0  0
  187.4270  177.4380  146.9830 C   0  0  0  0  0  3  0  0  0  0  0  0
  186.7440  177.0390  144.2970 C   0  0  0  0  0  3  0  0  0  0  0  0
  188.2960  175.2150  142.7050 O   0  0  0  0  0  0  0  0  0  0  0  0
  188.5540  175.4270  144.0740 C   0  0  0  0  0  0  0  0  0  0  0  0
  189.8750  174.8430  146.0380 C   0  0  0  0  0  3  0  0  0  0  0  0
  190.1410  173.5650  143.8260 C   0  0  1  0  0  3  0  0  0  0  0  0
  190.2810  174.0040  142.4920 O   0  0  0  0  0  0  0  0  0  0  0  0
  189.1860  175.7960  146.7890 C   0  0  0  0  0  3  0  0  0  0  0  0
  188.9390  174.3040  140.5510 C   0  0  0  0  0  0  0  0  0  0  0  0
  190.2140  172.5270  137.4670 N   0  0  0  0  0  2  0  0  0  0  0  0
  189.6970  173.4370  139.7070 N   0  0  0  0  0  2  0  0  0  0  0  0
  188.1790  175.1760  140.0460 O   0  0  0  0  0  0  0  0  0  0  0  0
  189.2860  173.0960  138.3800 C   0  0  0  0  0  0  0  0  0  0  0  0
  188.0860  173.2740  138.0220 O   0  0  0  0  0  0  0  0  0  0  0  0
  191.3410  171.9910  136.7300 C   0  0  2  0  0  3  0  0  0  0  0  0
  193.0800  170.8450  137.7010 O   0  0  0  0  0  0  0  0  0  0  0  0
  193.1180  173.2830  138.0840 C   0  0  0  0  0  0  0  0  0  0  0  0
  191.2000  170.5050  136.5570 C   0  0  0  0  0  3  0  0  0  0  0  0
  192.5480  172.0950  137.5340 N   0  0  0  0  0  0  0  0  0  0  0  0
  192.5590  174.4020  137.8990 O   0  0  0  0  0  0  0  0  0  0  0  0
  192.2490  169.9020  137.1230 C   0  0  0  0  0  3  0  0  0  0  0  0
  194.3570  173.1890  138.9220 C   0  0  2  0  0  3  0  0  0  0  0  0
  196.8010  175.6640  139.2400 O   0  0  0  0  0  0  0  0  0  0  0  0
  195.0890  174.7520  140.6770 C   0  0  0  0  0  3  0  0  0  0  0  0
  195.8450  174.8670  139.4160 C   0  0  0  0  0  0  0  0  0  0  0  0
  194.0870  173.6390  140.3670 C   0  0  0  0  0  3  0  0  0  0  0  0
  195.3720  174.0420  138.4220 O   0  0  0  0  0  0  0  0  0  0  0  0
  191.3840  172.8300  144.3660 C   0  0  0  0  0  2  0  0  0  0  0  0
  192.4960  172.8960  143.4930 O   0  0  0  0  0  0  0  0  0  0  0  0
  193.2380  175.0320  143.8000 O   0  0  0  0  0  0  0  0  0  0  0  0
  193.6950  175.7020  144.9370 C   0  0  2  0  0  3  0  0  0  0  0  0
  193.4000  173.5980  145.5970 C   0  0  0  0  0  2  0  0  0  0  0  0
  193.4720  173.6970  144.1070 C   0  0  1  0  0  3  0  0  0  0  0  0
  193.5230  174.9010  146.0840 O   0  0  0  0  0  0  0  0  0  0  0  0
  191.9610  177.1250  144.1130 O   0  0  0  0  0  1  0  0  0  0  0  0
  192.9440  177.0110  145.1000 C   0  0  0  0  0  2  0  0  0  0  0  0
  1  8  1  0  0  0  0
  1  6  1  0  0  0  0
  2 12  1  0  0  0  0
  3 16  1  6  0  0  0
  3 14  1  0  0  0  0
  3 10  1  0  0  0  0
  4 15  1  0  0  0  0
  4  8  2  0  0  0  0
  5  1  2  0  0  0  0
  7  4  1  0  0  0  0
  9  7  2  0  0  0  0
  9  5  1  0  0  0  0
 10 11  1  0  0  0  0
 11  2  2  0  0  0  0
 11  7  1  0  0  0  0
 12 15  2  0  0  0  0
 13 35  1  1  0  0  0
 13  2  1  0  0  0  0
 14 13  1  0  0  0  0
 17 20  1  0  0  0  0
 18 16  1  0  0  0  0
 19 16  2  0  0  0  0
 20 18  1  0  0  0  0
 21 20  2  0  0  0  0
 22 17  1  1  0  0  0
 22 26  1  0  0  0  0
 25 22  1  0  0  0  0
 25 28  2  0  0  0  0
 26 23  1  0  0  0  0
 26 24  1  0  0  0  0
 27 24  2  0  0  0  0
 28 23  1  0  0  0  0
 29 24  1  6  0  0  0
 29 33  1  0  0  0  0
 30 32  2  0  0  0  0
 32 31  1  0  0  0  0
 33 31  2  0  0  0  0
 34 29  1  0  0  0  0
 34 32  1  0  0  0  0
 36 35  1  0  0  0  0
 37 40  1  0  0  0  0
 37 38  1  0  0  0  0
 38 43  1  1  0  0  0
 38 41  1  0  0  0  0
 39 41  1  0  0  0  0
 40 36  1  6  0  0  0
 40 39  1  0  0  0  0
 42 43  1  0  0  0  0
M  END
>  <MODEL>
8

>  <REMARK>
 VINA RESULT:      -7.7      3.388      6.113
  Name = 
  7 active torsions:
  status: ('A' for Active; 'I' for Inactive)
    1  A    between atoms: C_1  and  O_32
    2  A    between atoms: C_1  and  C_34
    3  A    between atoms: C_2  and  C_13
    4  A    between atoms: N_3  and  C_4
    5  A    between atoms: C_11  and  C_14
    6  A    between atoms: C_19  and  C_37
    7  A    between atoms: O_32  and  C_35
                            x       y       z     vdW  Elec       q    Type
                         _______ _______ _______ _____ _____    ______ ____

>  <TORSDO>
F 7

$$$$
=
 OpenBabel11052420413D

 43 48  0  0  1  0  0  0  0  0999 V2000
  188.3060  177.4260  147.2300 C   0  0  0  0  0  0  0  0  0  0  0  0
  192.3900  174.7960  145.8990 C   0  0  0  0  0  0  0  0  0  0  0  0
  191.5980  172.6510  144.3340 C   0  0  2  0  0  3  0  0  0  0  0  0
  190.5780  176.6600  146.9280 C   0  0  0  0  0  0  0  0  0  0  0  0
  187.8420  176.3810  146.4320 C   0  0  0  0  0  3  0  0  0  0  0  0
  187.3420  178.3790  147.8390 C   0  0  0  0  0  1  0  0  0  0  0  0
  190.1130  175.6130  146.0890 C   0  0  0  0  0  0  0  0  0  0  0  0
  189.6720  177.5650  147.4840 C   0  0  0  0  0  3  0  0  0  0  0  0
  188.7450  175.4750  145.8660 C   0  0  0  0  0  3  0  0  0  0  0  0
  190.6380  173.6500  144.7010 O   0  0  0  0  0  0  0  0  0  0  0  0
  191.0300  174.6940  145.5620 C   0  0  0  0  0  0  0  0  0  0  0  0
  192.8390  175.8200  146.7470 C   0  0  0  0  0  3  0  0  0  0  0  0
  193.2510  173.6430  145.4460 C   0  0  1  0  0  3  0  0  0  0  0  0
  192.8680  173.2290  144.1520 O   0  0  0  0  0  0  0  0  0  0  0  0
  191.9350  176.7630  147.2370 C   0  0  0  0  0  3  0  0  0  0  0  0
  191.1900  171.8990  143.1170 C   0  0  0  0  0  0  0  0  0  0  0  0
  189.4720  172.5450  139.8110 N   0  0  0  0  0  2  0  0  0  0  0  0
  190.4000  172.5210  142.1030 N   0  0  0  0  0  2  0  0  0  0  0  0
  191.6180  170.7230  142.9550 O   0  0  0  0  0  0  0  0  0  0  0  0
  190.4940  172.1620  140.7210 C   0  0  0  0  0  0  0  0  0  0  0  0
  191.5020  171.5260  140.2980 O   0  0  0  0  0  0  0  0  0  0  0  0
  188.3030  173.0250  139.1030 C   0  0  2  0  0  3  0  0  0  0  0  0
  188.0940  175.1570  138.2710 O   0  0  0  0  0  0  0  0  0  0  0  0
  187.8590  174.9860  140.7210 C   0  0  0  0  0  0  0  0  0  0  0  0
  188.5670  173.0790  137.6250 C   0  0  0  0  0  3  0  0  0  0  0  0
  188.0720  174.4240  139.4260 N   0  0  0  0  0  0  0  0  0  0  0  0
  187.8680  174.2450  141.7460 O   0  0  0  0  0  0  0  0  0  0  0  0
  188.4100  174.3360  137.2020 C   0  0  0  0  0  3  0  0  0  0  0  0
  187.6720  176.4650  140.8630 C   0  0  2  0  0  3  0  0  0  0  0  0
  185.1800  178.0400  142.7370 O   0  0  0  0  0  0  0  0  0  0  0  0
  187.5670  177.7590  142.9560 C   0  0  0  0  0  3  0  0  0  0  0  0
  186.2600  177.5680  142.3000 C   0  0  0  0  0  0  0  0  0  0  0  0
  188.5240  177.0260  142.0140 C   0  0  0  0  0  3  0  0  0  0  0  0
  186.3260  176.7780  141.1760 O   0  0  0  0  0  0  0  0  0  0  0  0
  194.7750  173.7940  145.6190 C   0  0  0  0  0  2  0  0  0  0  0  0
  195.5050  173.4690  144.4510 O   0  0  0  0  0  0  0  0  0  0  0  0
  196.4160  174.7860  142.8250 O   0  0  0  0  0  0  0  0  0  0  0  0
  196.6490  176.1620  142.7660 C   0  0  2  0  0  3  0  0  0  0  0  0
  195.9220  175.7960  144.8360 C   0  0  0  0  0  2  0  0  0  0  0  0
  196.3870  174.5310  144.1910 C   0  0  1  0  0  3  0  0  0  0  0  0
  196.0850  176.8060  143.8850 O   0  0  0  0  0  0  0  0  0  0  0  0
  194.6820  176.4920  141.4490 O   0  0  0  0  0  1  0  0  0  0  0  0
  196.0590  176.7300  141.4880 C   0  0  0  0  0  2  0  0  0  0  0  0
  1  8  1  0  0  0  0
  1  6  1  0  0  0  0
  2 12  1  0  0  0  0
  3 16  1  6  0  0  0
  3 10  1  0  0  0  0
  4 15  1  0  0  0  0
  4  8  2  0  0  0  0
  5  1  2  0  0  0  0
  7  4  1  0  0  0  0
  9  7  2  0  0  0  0
  9  5  1  0  0  0  0
 10 11  1  0  0  0  0
 11  2  2  0  0  0  0
 11  7  1  0  0  0  0
 12 15  2  0  0  0  0
 13 35  1  6  0  0  0
 13  2  1  0  0  0  0
 14  3  1  0  0  0  0
 14 13  1  0  0  0  0
 17 20  1  0  0  0  0
 18 16  1  0  0  0  0
 19 16  2  0  0  0  0
 20 18  1  0  0  0  0
 21 20  2  0  0  0  0
 22 26  1  0  0  0  0
 22 17  1  1  0  0  0
 23 26  1  0  0  0  0
 24 27  2  0  0  0  0
 25 22  1  0  0  0  0
 26 24  1  0  0  0  0
 28 25  2  0  0  0  0
 28 23  1  0  0  0  0
 29 24  1  1  0  0  0
 29 34  1  0  0  0  0
 29 33  1  0  0  0  0
 32 30  2  0  0  0  0
 32 31  1  0  0  0  0
 33 31  2  0  0  0  0
 34 32  1  0  0  0  0
 36 35  1  0  0  0  0
 37 40  1  0  0  0  0
 38 43  1  6  0  0  0
 38 37  1  0  0  0  0
 38 41  1  0  0  0  0
 40 36  1  6  0  0  0
 40 39  1  0  0  0  0
 41 39  1  0  0  0  0
 42 43  1  0  0  0  0
M  END
>  <MODEL>
9

>  <REMARK>
 VINA RESULT:      -7.7      2.277      7.743
  Name = 
  7 active torsions:
  status: ('A' for Active; 'I' for Inactive)
    1  A    between atoms: C_1  and  O_32
    2  A    between atoms: C_1  and  C_34
    3  A    between atoms: C_2  and  C_13
    4  A    between atoms: N_3  and  C_4
    5  A    between atoms: C_11  and  C_14
    6  A    between atoms: C_19  and  C_37
    7  A    between atoms: O_32  and  C_35
                            x       y       z     vdW  Elec       q    Type
                         _______ _______ _______ _____ _____    ______ ____

>  <TORSDO>
F 7

$$$$
