=
 OpenBabel11052418073D

 28 32  0  0  1  0  0  0  0  0999 V2000
  187.2980  176.9380  145.2900 C   0  0  1  0  0  0  0  0  0  0  0  0
  185.6880  179.6190  143.5140 O   0  0  0  0  0  0  0  0  0  0  0  0
  188.1380  175.4330  141.8540 C   0  0  0  0  0  0  0  0  0  0  0  0
  186.9060  177.6100  143.0510 C   0  0  0  0  0  0  0  0  0  0  0  0
  188.0960  175.5300  143.2590 C   0  0  0  0  0  3  0  0  0  0  0  0
  186.5970  178.3040  145.3600 C   0  0  1  0  0  3  0  0  0  0  0  0
  186.9250  177.5440  141.6580 C   0  0  0  0  0  3  0  0  0  0  0  0
  186.3250  178.6100  143.9160 C   0  0  0  0  0  0  0  0  0  0  0  0
  187.5530  176.4410  141.0610 C   0  0  0  0  0  3  0  0  0  0  0  0
  185.8810  177.0380  145.8170 C   0  0  0  0  0  2  0  0  0  0  0  0
  187.4750  176.6380  143.8320 C   0  0  0  0  0  0  0  0  0  0  0  0
  188.3900  174.2150  139.7370 C   0  0  0  0  0  3  0  0  0  0  0  0
  191.0980  173.2120  140.6260 C   0  0  0  0  0  2  0  0  0  0  0  0
  189.4400  172.0020  139.2480 C   0  0  0  0  0  0  0  0  0  0  0  0
  188.8040  174.2700  141.1820 C   0  0  1  0  0  3  0  0  0  0  0  0
  190.7100  174.1150  143.1360 Cl  0  0  0  0  0  0  0  0  0  0  0  0
  190.2990  171.9240  140.4720 C   0  0  0  0  0  2  0  0  0  0  0  0
  190.3310  174.2890  141.4010 C   0  0  1  0  0  3  0  0  0  0  0  0
  189.4150  171.0170  138.4650 O   0  0  0  0  0  0  0  0  0  0  0  0
  188.6450  173.1980  138.9090 C   0  0  0  0  0  3  0  0  0  0  0  0
  188.4390  176.7980  146.3010 C   0  0  1  0  0  3  0  0  0  0  0  0
  188.4250  175.4080  146.8900 C   0  0  0  0  0  3  0  0  0  0  0  0
  190.9530  176.4330  146.2150 N   0  0  0  0  0  0  0  0  0  0  0  0
  189.5320  174.8440  147.3930 C   0  0  0  0  0  3  0  0  0  0  0  0
  189.9250  178.0250  144.8480 O   0  0  0  0  0  0  0  0  0  0  0  0
  189.7960  177.1200  145.7180 C   0  0  0  0  0  0  0  0  0  0  0  0
  192.1810  176.7310  145.7270 O   0  0  0  0  0  1  0  0  0  0  0  0
  190.8420  175.5810  147.3960 C   0  0  0  0  0  2  0  0  0  0  0  0
  1  6  1  0  0  0  0
  1 10  1  1  0  0  0
  1 21  1  0  0  0  0
  2  8  2  0  0  0  0
  3  5  1  0  0  0  0
  4 11  1  0  0  0  0
  4  8  1  0  0  0  0
  5 11  2  0  0  0  0
  6 10  1  1  0  0  0
  7  4  2  0  0  0  0
  8  6  1  0  0  0  0
  9  7  1  0  0  0  0
  9  3  2  0  0  0  0
 11  1  1  0  0  0  0
 12 15  1  0  0  0  0
 13 18  1  0  0  0  0
 14 17  1  0  0  0  0
 15 18  1  0  0  0  0
 15  3  1  6  0  0  0
 17 13  1  0  0  0  0
 18 16  1  1  0  0  0
 19 14  2  0  0  0  0
 20 14  1  0  0  0  0
 20 12  2  0  0  0  0
 21 22  1  6  0  0  0
 22 24  2  0  0  0  0
 23 28  1  0  0  0  0
 24 28  1  0  0  0  0
 25 26  2  0  0  0  0
 26 23  1  0  0  0  0
 26 21  1  0  0  0  0
 27 23  1  0  0  0  0
M  END
>  <MODEL>
1

>  <REMARK>
 VINA RESULT:      -8.7      0.000      0.000
  Name = 
  2 active torsions:
  status: ('A' for Active; 'I' for Inactive)
    1  A    between atoms: C_1  and  C_2
    2  A    between atoms: C_10  and  C_13
                            x       y       z     vdW  Elec       q    Type
                         _______ _______ _______ _____ _____    ______ ____

>  <TORSDO>
F 2

$$$$
=
 OpenBabel11052418073D

 28 32  0  0  1  0  0  0  0  0999 V2000
  185.7180  178.0480  144.1150 C   0  0  1  0  0  0  0  0  0  0  0  0
  184.5430  178.3660  147.4990 O   0  0  0  0  0  0  0  0  0  0  0  0
  188.6320  175.9790  145.5340 C   0  0  0  0  0  0  0  0  0  0  0  0
  186.3300  177.3300  146.2890 C   0  0  0  0  0  0  0  0  0  0  0  0
  187.8430  176.6210  144.5590 C   0  0  0  0  0  3  0  0  0  0  0  0
  184.6100  178.5320  145.0640 C   0  0  1  0  0  3  0  0  0  0  0  0
  187.0890  176.7090  147.2820 C   0  0  0  0  0  3  0  0  0  0  0  0
  185.1160  178.1020  146.4090 C   0  0  0  0  0  0  0  0  0  0  0  0
  188.2500  176.0250  146.8900 C   0  0  0  0  0  3  0  0  0  0  0  0
  185.5520  179.5280  144.3950 C   0  0  0  0  0  2  0  0  0  0  0  0
  186.6890  177.2880  144.9680 C   0  0  0  0  0  0  0  0  0  0  0  0
  189.5390  173.7980  144.8650 C   0  0  0  0  0  3  0  0  0  0  0  0
  191.8370  175.1750  143.4660 C   0  0  0  0  0  2  0  0  0  0  0  0
  191.9020  173.0120  144.6630 C   0  0  0  0  0  0  0  0  0  0  0  0
  189.8760  175.2360  145.1510 C   0  0  1  0  0  3  0  0  0  0  0  0
  191.1840  177.5580  144.5420 Cl  0  0  0  0  0  0  0  0  0  0  0  0
  192.5420  174.3610  144.5440 C   0  0  0  0  0  2  0  0  0  0  0  0
  190.6300  175.9480  144.0090 C   0  0  1  0  0  3  0  0  0  0  0  0
  192.6420  171.9960  144.7180 O   0  0  0  0  0  0  0  0  0  0  0  0
  190.4390  172.8260  144.6870 C   0  0  0  0  0  3  0  0  0  0  0  0
  185.1780  177.4950  142.7950 C   0  0  1  0  0  3  0  0  0  0  0  0
  183.8680  178.1670  142.4620 C   0  0  0  0  0  3  0  0  0  0  0  0
  185.6530  177.8210  140.3190 N   0  0  0  0  0  0  0  0  0  0  0  0
  183.4260  178.2660  141.2010 C   0  0  0  0  0  3  0  0  0  0  0  0
  187.3950  177.5030  141.8420 O   0  0  0  0  0  0  0  0  0  0  0  0
  186.1540  177.6240  141.6480 C   0  0  0  0  0  0  0  0  0  0  0  0
  186.5110  177.9090  139.2750 O   0  0  0  0  0  1  0  0  0  0  0  0
  184.2210  177.7000  140.0570 C   0  0  0  0  0  2  0  0  0  0  0  0
  1 10  1  6  0  0  0
  1 11  1  0  0  0  0
  1  6  1  0  0  0  0
  3  9  1  0  0  0  0
  4  8  1  0  0  0  0
  4  7  1  0  0  0  0
  5 11  1  0  0  0  0
  5  3  2  0  0  0  0
  6 10  1  1  0  0  0
  6  8  1  0  0  0  0
  8  2  2  0  0  0  0
  9  7  2  0  0  0  0
 11  4  2  0  0  0  0
 12 15  1  0  0  0  0
 13 18  1  0  0  0  0
 13 17  1  0  0  0  0
 14 20  1  0  0  0  0
 14 19  2  0  0  0  0
 15  3  1  6  0  0  0
 17 14  1  0  0  0  0
 18 16  1  1  0  0  0
 18 15  1  0  0  0  0
 20 12  2  0  0  0  0
 21 22  1  6  0  0  0
 21  1  1  0  0  0  0
 23 26  1  0  0  0  0
 24 22  2  0  0  0  0
 26 25  2  0  0  0  0
 26 21  1  0  0  0  0
 27 23  1  0  0  0  0
 28 23  1  0  0  0  0
 28 24  1  0  0  0  0
M  END
>  <MODEL>
2

>  <REMARK>
 VINA RESULT:      -8.3      3.545      5.415
  Name = 
  2 active torsions:
  status: ('A' for Active; 'I' for Inactive)
    1  A    between atoms: C_1  and  C_2
    2  A    between atoms: C_10  and  C_13
                            x       y       z     vdW  Elec       q    Type
                         _______ _______ _______ _____ _____    ______ ____

>  <TORSDO>
F 2

$$$$
=
 OpenBabel11052418073D

 28 32  0  0  1  0  0  0  0  0999 V2000
  185.7970  178.4240  144.0640 C   0  0  1  0  0  0  0  0  0  0  0  0
  184.7940  178.8430  147.4920 O   0  0  0  0  0  0  0  0  0  0  0  0
  189.0080  176.7960  145.4110 C   0  0  0  0  0  0  0  0  0  0  0  0
  186.6150  177.9310  146.2330 C   0  0  0  0  0  0  0  0  0  0  0  0
  188.0940  177.2770  144.4530 C   0  0  0  0  0  3  0  0  0  0  0  0
  184.6980  178.8470  145.0520 C   0  0  1  0  0  3  0  0  0  0  0  0
  187.4970  177.4700  147.2090 C   0  0  0  0  0  3  0  0  0  0  0  0
  185.3280  178.5690  146.3850 C   0  0  0  0  0  0  0  0  0  0  0  0
  188.7040  176.8940  146.7840 C   0  0  0  0  0  3  0  0  0  0  0  0
  185.4770  179.8920  144.2610 C   0  0  0  0  0  2  0  0  0  0  0  0
  186.8970  177.8380  144.8950 C   0  0  0  0  0  0  0  0  0  0  0  0
  191.3410  177.2440  144.7920 C   0  0  0  0  0  3  0  0  0  0  0  0
  192.1200  174.4640  145.6870 C   0  0  0  0  0  2  0  0  0  0  0  0
  193.0780  175.7450  143.8010 C   0  0  0  0  0  0  0  0  0  0  0  0
  190.3050  176.1720  144.9940 C   0  0  1  0  0  3  0  0  0  0  0  0
  189.5410  173.7260  145.9490 Cl  0  0  0  0  0  0  0  0  0  0  0  0
  192.4560  174.4430  144.2010 C   0  0  0  0  0  2  0  0  0  0  0  0
  190.7340  175.0540  145.9670 C   0  0  1  0  0  3  0  0  0  0  0  0
  194.1140  175.7250  143.0880 O   0  0  0  0  0  0  0  0  0  0  0  0
  192.5400  177.0490  144.2360 C   0  0  0  0  0  3  0  0  0  0  0  0
  185.2470  177.7240  142.8190 C   0  0  1  0  0  3  0  0  0  0  0  0
  183.8700  178.2570  142.5040 C   0  0  0  0  0  3  0  0  0  0  0  0
  185.5790  177.8880  140.3040 N   0  0  0  0  0  0  0  0  0  0  0  0
  183.3650  178.2170  141.2640 C   0  0  0  0  0  3  0  0  0  0  0  0
  187.4100  177.8400  141.7550 O   0  0  0  0  0  0  0  0  0  0  0  0
  186.1560  177.8420  141.6170 C   0  0  0  0  0  0  0  0  0  0  0  0
  186.3790  177.9630  139.2130 O   0  0  0  0  0  1  0  0  0  0  0  0
  184.1530  177.6290  140.1270 C   0  0  0  0  0  2  0  0  0  0  0  0
  1 10  1  6  0  0  0
  1 11  1  0  0  0  0
  1  6  1  0  0  0  0
  3  9  1  0  0  0  0
  4  8  1  0  0  0  0
  4  7  1  0  0  0  0
  5 11  1  0  0  0  0
  5  3  2  0  0  0  0
  6 10  1  1  0  0  0
  6  8  1  0  0  0  0
  8  2  2  0  0  0  0
  9  7  2  0  0  0  0
 11  4  2  0  0  0  0
 12 15  1  0  0  0  0
 13 18  1  0  0  0  0
 14 17  1  0  0  0  0
 14 20  1  0  0  0  0
 15  3  1  1  0  0  0
 15 18  1  0  0  0  0
 17 13  1  0  0  0  0
 18 16  1  6  0  0  0
 19 14  2  0  0  0  0
 20 12  2  0  0  0  0
 21 22  1  6  0  0  0
 21  1  1  0  0  0  0
 23 26  1  0  0  0  0
 24 22  2  0  0  0  0
 26 25  2  0  0  0  0
 26 21  1  0  0  0  0
 27 23  1  0  0  0  0
 28 23  1  0  0  0  0
 28 24  1  0  0  0  0
M  END
>  <MODEL>
3

>  <REMARK>
 VINA RESULT:      -8.1      3.663      5.712
  Name = 
  2 active torsions:
  status: ('A' for Active; 'I' for Inactive)
    1  A    between atoms: C_1  and  C_2
    2  A    between atoms: C_10  and  C_13
                            x       y       z     vdW  Elec       q    Type
                         _______ _______ _______ _____ _____    ______ ____

>  <TORSDO>
F 2

$$$$
=
 OpenBabel11052418073D

 28 32  0  0  1  0  0  0  0  0999 V2000
  186.2670  178.3720  144.0510 C   0  0  1  0  0  0  0  0  0  0  0  0
  184.6230  178.2890  147.2480 O   0  0  0  0  0  0  0  0  0  0  0  0
  189.4740  177.3290  145.8980 C   0  0  0  0  0  0  0  0  0  0  0  0
  186.7870  177.8770  146.3100 C   0  0  0  0  0  0  0  0  0  0  0  0
  188.6570  177.6910  144.8090 C   0  0  0  0  0  3  0  0  0  0  0  0
  184.9500  178.4760  144.8350 C   0  0  1  0  0  3  0  0  0  0  0  0
  187.5660  177.5260  147.4120 C   0  0  0  0  0  3  0  0  0  0  0  0
  185.3860  178.2240  146.2490 C   0  0  0  0  0  0  0  0  0  0  0  0
  188.9240  177.2470  147.1940 C   0  0  0  0  0  3  0  0  0  0  0  0
  185.6090  179.7220  144.2520 C   0  0  0  0  0  2  0  0  0  0  0  0
  187.3090  177.9560  145.0460 C   0  0  0  0  0  0  0  0  0  0  0  0
  191.2750  175.7430  146.4150 C   0  0  0  0  0  3  0  0  0  0  0  0
  192.7480  176.5890  143.9160 C   0  0  0  0  0  2  0  0  0  0  0  0
  193.7440  175.9180  146.0770 C   0  0  0  0  0  0  0  0  0  0  0  0
  190.9270  177.0200  145.7020 C   0  0  1  0  0  3  0  0  0  0  0  0
  191.0750  178.6650  143.5220 Cl  0  0  0  0  0  0  0  0  0  0  0  0
  193.7170  176.9820  145.0240 C   0  0  0  0  0  2  0  0  0  0  0  0
  191.3110  177.0340  144.2070 C   0  0  1  0  0  3  0  0  0  0  0  0
  194.8590  175.5280  146.5120 O   0  0  0  0  0  0  0  0  0  0  0  0
  192.5170  175.2890  146.6030 C   0  0  0  0  0  3  0  0  0  0  0  0
  186.1050  177.6800  142.6960 C   0  0  1  0  0  3  0  0  0  0  0  0
  186.8340  178.4670  141.6340 C   0  0  0  0  0  3  0  0  0  0  0  0
  187.1200  175.6740  141.5090 N   0  0  0  0  0  0  0  0  0  0  0  0
  187.2810  177.8900  140.5100 C   0  0  0  0  0  3  0  0  0  0  0  0
  186.3980  175.5170  143.7250 O   0  0  0  0  0  0  0  0  0  0  0  0
  186.5600  176.2380  142.7030 C   0  0  0  0  0  0  0  0  0  0  0  0
  187.5050  174.3760  141.4860 O   0  0  0  0  0  1  0  0  0  0  0  0
  187.0670  176.4240  140.2570 C   0  0  0  0  0  2  0  0  0  0  0  0
  1 10  1  6  0  0  0
  1  6  1  0  0  0  0
  1 11  1  0  0  0  0
  3  9  1  0  0  0  0
  4  7  1  0  0  0  0
  5 11  1  0  0  0  0
  5  3  2  0  0  0  0
  6 10  1  1  0  0  0
  6  8  1  0  0  0  0
  8  4  1  0  0  0  0
  8  2  2  0  0  0  0
  9  7  2  0  0  0  0
 11  4  2  0  0  0  0
 12 20  2  0  0  0  0
 13 18  1  0  0  0  0
 13 17  1  0  0  0  0
 14 19  2  0  0  0  0
 14 20  1  0  0  0  0
 15  3  1  6  0  0  0
 15 12  1  0  0  0  0
 17 14  1  0  0  0  0
 18 16  1  1  0  0  0
 18 15  1  0  0  0  0
 21 22  1  6  0  0  0
 21 26  1  0  0  0  0
 21  1  1  0  0  0  0
 23 26  1  0  0  0  0
 24 22  2  0  0  0  0
 26 25  2  0  0  0  0
 27 23  1  0  0  0  0
 28 24  1  0  0  0  0
 28 23  1  0  0  0  0
M  END
>  <MODEL>
4

>  <REMARK>
 VINA RESULT:      -8.0      3.182      5.821
  Name = 
  2 active torsions:
  status: ('A' for Active; 'I' for Inactive)
    1  A    between atoms: C_1  and  C_2
    2  A    between atoms: C_10  and  C_13
                            x       y       z     vdW  Elec       q    Type
                         _______ _______ _______ _____ _____    ______ ____

>  <TORSDO>
F 2

$$$$
=
 OpenBabel11052418073D

 28 32  0  0  1  0  0  0  0  0999 V2000
  191.6340  174.6790  144.9060 C   0  0  1  0  0  0  0  0  0  0  0  0
  194.2220  177.1730  145.0080 O   0  0  0  0  0  0  0  0  0  0  0  0
  189.3310  177.4140  143.4920 C   0  0  0  0  0  0  0  0  0  0  0  0
  191.9300  176.9640  144.3490 C   0  0  0  0  0  0  0  0  0  0  0  0
  189.7080  176.1360  143.9490 C   0  0  0  0  0  3  0  0  0  0  0  0
  193.1140  175.0030  145.1620 C   0  0  1  0  0  3  0  0  0  0  0  0
  191.5930  178.2420  143.9070 C   0  0  0  0  0  3  0  0  0  0  0  0
  193.1890  176.4700  144.8570 C   0  0  0  0  0  0  0  0  0  0  0  0
  190.2760  178.4600  143.4710 C   0  0  0  0  0  3  0  0  0  0  0  0
  192.1700  174.7120  146.3230 C   0  0  0  0  0  2  0  0  0  0  0  0
  191.0220  175.9380  144.3690 C   0  0  0  0  0  0  0  0  0  0  0  0
  187.7860  177.2150  141.5950 C   0  0  0  0  0  3  0  0  0  0  0  0
  185.4380  177.2100  143.4970 C   0  0  0  0  0  2  0  0  0  0  0  0
  185.5190  178.2000  141.2330 C   0  0  0  0  0  0  0  0  0  0  0  0
  187.9360  177.6830  143.0160 C   0  0  1  0  0  3  0  0  0  0  0  0
  187.0060  177.8960  145.5800 Cl  0  0  0  0  0  0  0  0  0  0  0  0
  185.1950  178.4660  142.6700 C   0  0  0  0  0  2  0  0  0  0  0  0
  186.8860  177.1000  143.9870 C   0  0  1  0  0  3  0  0  0  0  0  0
  184.7080  178.5840  140.3510 O   0  0  0  0  0  0  0  0  0  0  0  0
  186.7360  177.4790  140.8120 C   0  0  0  0  0  3  0  0  0  0  0  0
  191.4240  173.3170  144.2410 C   0  0  1  0  0  3  0  0  0  0  0  0
  190.0820  172.7570  144.6460 C   0  0  0  0  0  3  0  0  0  0  0  0
  190.7720  172.4630  141.9380 N   0  0  0  0  0  0  0  0  0  0  0  0
  189.4260  171.8740  143.8810 C   0  0  0  0  0  3  0  0  0  0  0  0
  192.3860  174.1320  142.1840 O   0  0  0  0  0  0  0  0  0  0  0  0
  191.5550  173.3600  142.7360 C   0  0  0  0  0  0  0  0  0  0  0  0
  190.8980  172.4650  140.5890 O   0  0  0  0  0  1  0  0  0  0  0  0
  190.0080  171.3960  142.5800 C   0  0  0  0  0  2  0  0  0  0  0  0
  1  6  1  0  0  0  0
  1 10  1  1  0  0  0
  3  5  1  0  0  0  0
  4 11  1  0  0  0  0
  4  8  1  0  0  0  0
  5 11  2  0  0  0  0
  6 10  1  1  0  0  0
  7  4  2  0  0  0  0
  8  2  2  0  0  0  0
  8  6  1  0  0  0  0
  9  3  2  0  0  0  0
  9  7  1  0  0  0  0
 11  1  1  0  0  0  0
 12 15  1  0  0  0  0
 13 18  1  0  0  0  0
 14 17  1  0  0  0  0
 15  3  1  1  0  0  0
 15 18  1  0  0  0  0
 17 13  1  0  0  0  0
 18 16  1  1  0  0  0
 19 14  2  0  0  0  0
 20 14  1  0  0  0  0
 20 12  2  0  0  0  0
 21 22  1  6  0  0  0
 21  1  1  0  0  0  0
 23 28  1  0  0  0  0
 23 26  1  0  0  0  0
 24 22  2  0  0  0  0
 25 26  2  0  0  0  0
 26 21  1  0  0  0  0
 27 23  1  0  0  0  0
 28 24  1  0  0  0  0
M  END
>  <MODEL>
5

>  <REMARK>
 VINA RESULT:      -8.0      2.906      5.903
  Name = 
  2 active torsions:
  status: ('A' for Active; 'I' for Inactive)
    1  A    between atoms: C_1  and  C_2
    2  A    between atoms: C_10  and  C_13
                            x       y       z     vdW  Elec       q    Type
                         _______ _______ _______ _____ _____    ______ ____

>  <TORSDO>
F 2

$$$$
=
 OpenBabel11052418073D

 28 32  0  0  1  0  0  0  0  0999 V2000
  191.3090  174.8100  142.9530 C   0  0  1  0  0  0  0  0  0  0  0  0
  190.2470  172.1180  140.8180 O   0  0  0  0  0  0  0  0  0  0  0  0
  187.6050  175.8130  143.1950 C   0  0  0  0  0  0  0  0  0  0  0  0
  189.2960  173.9260  142.0680 C   0  0  0  0  0  0  0  0  0  0  0  0
  188.9920  175.8840  143.4310 C   0  0  0  0  0  3  0  0  0  0  0  0
  191.6930  173.5400  142.1780 C   0  0  1  0  0  3  0  0  0  0  0  0
  187.9290  173.8260  141.8100 C   0  0  0  0  0  3  0  0  0  0  0  0
  190.3820  173.0970  141.5980 C   0  0  0  0  0  0  0  0  0  0  0  0
  187.0800  174.7840  142.3880 C   0  0  0  0  0  3  0  0  0  0  0  0
  192.1040  174.9170  141.6670 C   0  0  0  0  0  2  0  0  0  0  0  0
  189.8170  174.9190  142.8540 C   0  0  0  0  0  0  0  0  0  0  0  0
  186.8360  176.8300  145.2930 C   0  0  0  0  0  3  0  0  0  0  0  0
  185.9950  179.3130  143.7910 C   0  0  0  0  0  2  0  0  0  0  0  0
  184.8830  178.3150  145.7610 C   0  0  0  0  0  0  0  0  0  0  0  0
  186.6690  176.8150  143.7990 C   0  0  1  0  0  3  0  0  0  0  0  0
  186.3690  178.1100  141.4080 Cl  0  0  0  0  0  0  0  0  0  0  0  0
  184.6760  178.8050  144.3610 C   0  0  0  0  0  2  0  0  0  0  0  0
  186.8170  178.2000  143.1330 C   0  0  1  0  0  3  0  0  0  0  0  0
  184.0640  178.6660  146.6500 O   0  0  0  0  0  0  0  0  0  0  0  0
  186.0250  177.4630  146.1450 C   0  0  0  0  0  3  0  0  0  0  0  0
  192.0560  174.9510  144.2810 C   0  0  1  0  0  3  0  0  0  0  0  0
  192.5930  176.3550  144.4140 C   0  0  0  0  0  3  0  0  0  0  0  0
  191.4380  175.2570  146.7280 N   0  0  0  0  0  0  0  0  0  0  0  0
  192.8380  176.9070  145.6100 C   0  0  0  0  0  3  0  0  0  0  0  0
  190.3630  173.6550  145.4120 O   0  0  0  0  0  0  0  0  0  0  0  0
  191.2140  174.5840  145.4820 C   0  0  0  0  0  0  0  0  0  0  0  0
  190.7150  174.9200  147.8230 O   0  0  0  0  0  1  0  0  0  0  0  0
  192.5900  176.1410  146.8790 C   0  0  0  0  0  2  0  0  0  0  0  0
  1 10  1  6  0  0  0
  1 21  1  0  0  0  0
  2  8  2  0  0  0  0
  3  5  1  0  0  0  0
  4 11  1  0  0  0  0
  6 10  1  6  0  0  0
  6  1  1  0  0  0  0
  7  4  2  0  0  0  0
  7  9  1  0  0  0  0
  8  4  1  0  0  0  0
  8  6  1  0  0  0  0
  9  3  2  0  0  0  0
 11  1  1  0  0  0  0
 11  5  2  0  0  0  0
 12 20  2  0  0  0  0
 13 17  1  0  0  0  0
 14 20  1  0  0  0  0
 14 19  2  0  0  0  0
 15  3  1  6  0  0  0
 15 12  1  0  0  0  0
 17 14  1  0  0  0  0
 18 16  1  6  0  0  0
 18 13  1  0  0  0  0
 18 15  1  0  0  0  0
 21 22  1  1  0  0  0
 21 26  1  0  0  0  0
 22 24  2  0  0  0  0
 23 28  1  0  0  0  0
 23 27  1  0  0  0  0
 24 28  1  0  0  0  0
 25 26  2  0  0  0  0
 26 23  1  0  0  0  0
M  END
>  <MODEL>
6

>  <REMARK>
 VINA RESULT:      -7.7      2.386      6.180
  Name = 
  2 active torsions:
  status: ('A' for Active; 'I' for Inactive)
    1  A    between atoms: C_1  and  C_2
    2  A    between atoms: C_10  and  C_13
                            x       y       z     vdW  Elec       q    Type
                         _______ _______ _______ _____ _____    ______ ____

>  <TORSDO>
F 2

$$$$
=
 OpenBabel11052418073D

 28 32  0  0  1  0  0  0  0  0999 V2000
  192.6820  173.2810  143.9760 C   0  0  1  0  0  0  0  0  0  0  0  0
  195.3250  175.5870  144.7710 O   0  0  0  0  0  0  0  0  0  0  0  0
  190.2260  176.1050  144.8570 C   0  0  0  0  0  0  0  0  0  0  0  0
  192.9330  175.5310  144.6800 C   0  0  0  0  0  0  0  0  0  0  0  0
  190.6460  174.8230  144.4500 C   0  0  0  0  0  3  0  0  0  0  0  0
  194.1920  173.5660  143.9990 C   0  0  1  0  0  3  0  0  0  0  0  0
  192.5540  176.8090  145.0900 C   0  0  0  0  0  3  0  0  0  0  0  0
  194.2550  174.9710  144.5210 C   0  0  0  0  0  0  0  0  0  0  0  0
  191.1820  177.0910  145.1730 C   0  0  0  0  0  3  0  0  0  0  0  0
  193.5650  172.6120  145.0100 C   0  0  0  0  0  2  0  0  0  0  0  0
  192.0130  174.5660  144.3650 C   0  0  0  0  0  0  0  0  0  0  0  0
  188.3810  176.6020  146.3980 C   0  0  0  0  0  3  0  0  0  0  0  0
  186.9670  178.1490  144.2200 C   0  0  0  0  0  2  0  0  0  0  0  0
  185.9220  176.7750  145.9900 C   0  0  0  0  0  0  0  0  0  0  0  0
  188.7690  176.4440  144.9540 C   0  0  1  0  0  3  0  0  0  0  0  0
  188.6940  177.2680  142.3470 Cl  0  0  0  0  0  0  0  0  0  0  0  0
  185.9900  177.0180  144.5140 C   0  0  0  0  0  2  0  0  0  0  0  0
  188.4090  177.6540  144.0660 C   0  0  1  0  0  3  0  0  0  0  0  0
  184.7920  176.6450  146.5280 O   0  0  0  0  0  0  0  0  0  0  0  0
  187.1250  176.7110  146.8420 C   0  0  0  0  0  3  0  0  0  0  0  0
  192.2440  172.4650  142.7580 C   0  0  1  0  0  3  0  0  0  0  0  0
  191.1300  171.5260  143.1510 C   0  0  0  0  0  3  0  0  0  0  0  0
  190.8150  172.8460  140.6910 N   0  0  0  0  0  0  0  0  0  0  0  0
  190.2410  171.0710  142.2570 C   0  0  0  0  0  3  0  0  0  0  0  0
  192.4200  174.4120  141.3440 O   0  0  0  0  0  0  0  0  0  0  0  0
  191.8350  173.3200  141.5810 C   0  0  0  0  0  0  0  0  0  0  0  0
  190.4560  173.5850  139.6140 O   0  0  0  0  0  1  0  0  0  0  0  0
  190.3230  171.4760  140.8120 C   0  0  0  0  0  2  0  0  0  0  0  0
  1  6  1  0  0  0  0
  1 11  1  0  0  0  0
  1 10  1  1  0  0  0
  3  9  1  0  0  0  0
  4  7  1  0  0  0  0
  5  3  2  0  0  0  0
  6  8  1  0  0  0  0
  6 10  1  1  0  0  0
  7  9  2  0  0  0  0
  8  4  1  0  0  0  0
  8  2  2  0  0  0  0
 11  5  1  0  0  0  0
 11  4  2  0  0  0  0
 12 20  2  0  0  0  0
 13 17  1  0  0  0  0
 14 19  2  0  0  0  0
 14 20  1  0  0  0  0
 15  3  1  1  0  0  0
 15 12  1  0  0  0  0
 17 14  1  0  0  0  0
 18 16  1  6  0  0  0
 18 13  1  0  0  0  0
 18 15  1  0  0  0  0
 21 22  1  1  0  0  0
 21  1  1  0  0  0  0
 23 28  1  0  0  0  0
 23 26  1  0  0  0  0
 24 22  2  0  0  0  0
 25 26  2  0  0  0  0
 26 21  1  0  0  0  0
 27 23  1  0  0  0  0
 28 24  1  0  0  0  0
M  END
>  <MODEL>
7

>  <REMARK>
 VINA RESULT:      -7.6      3.111      7.070
  Name = 
  2 active torsions:
  status: ('A' for Active; 'I' for Inactive)
    1  A    between atoms: C_1  and  C_2
    2  A    between atoms: C_10  and  C_13
                            x       y       z     vdW  Elec       q    Type
                         _______ _______ _______ _____ _____    ______ ____

>  <TORSDO>
F 2

$$$$
=
 OpenBabel11052418073D

 28 32  0  0  1  0  0  0  0  0999 V2000
  191.9030  174.8590  142.8750 C   0  0  1  0  0  0  0  0  0  0  0  0
  190.6520  172.1350  140.8890 O   0  0  0  0  0  0  0  0  0  0  0  0
  188.2470  175.9780  143.2820 C   0  0  0  0  0  0  0  0  0  0  0  0
  189.8210  174.0080  142.1280 C   0  0  0  0  0  0  0  0  0  0  0  0
  189.6470  176.0160  143.4410 C   0  0  0  0  0  3  0  0  0  0  0  0
  192.2090  173.5550  142.1230 C   0  0  1  0  0  3  0  0  0  0  0  0
  188.4400  173.9410  141.9470 C   0  0  0  0  0  3  0  0  0  0  0  0
  190.8560  173.1330  141.6290 C   0  0  0  0  0  0  0  0  0  0  0  0
  187.6510  174.9410  142.5380 C   0  0  0  0  0  3  0  0  0  0  0  0
  192.6300  174.9020  141.5460 C   0  0  0  0  0  2  0  0  0  0  0  0
  190.4120  175.0090  142.8530 C   0  0  0  0  0  0  0  0  0  0  0  0
  186.4640  177.6100  142.8560 C   0  0  0  0  0  3  0  0  0  0  0  0
  185.6200  177.4570  145.7540 C   0  0  0  0  0  2  0  0  0  0  0  0
  185.5640  179.4480  144.2890 C   0  0  0  0  0  0  0  0  0  0  0  0
  187.3740  177.0270  143.9020 C   0  0  1  0  0  3  0  0  0  0  0  0
  187.8160  176.0410  146.4140 Cl  0  0  0  0  0  0  0  0  0  0  0  0
  186.0390  178.9140  145.6050 C   0  0  0  0  0  2  0  0  0  0  0  0
  186.6400  176.4880  145.1480 C   0  0  1  0  0  3  0  0  0  0  0  0
  185.0020  180.5740  144.2630 O   0  0  0  0  0  0  0  0  0  0  0  0
  185.7020  178.6940  143.0280 C   0  0  0  0  0  3  0  0  0  0  0  0
  192.7250  175.0190  144.1570 C   0  0  1  0  0  3  0  0  0  0  0  0
  193.2930  176.4160  144.2230 C   0  0  0  0  0  3  0  0  0  0  0  0
  192.2490  175.3980  146.6250 N   0  0  0  0  0  0  0  0  0  0  0  0
  193.6140  176.9930  145.3890 C   0  0  0  0  0  3  0  0  0  0  0  0
  191.0750  173.7840  145.4110 O   0  0  0  0  0  0  0  0  0  0  0  0
  191.9440  174.6980  145.4110 C   0  0  0  0  0  0  0  0  0  0  0  0
  191.5820  175.1020  147.7660 O   0  0  0  0  0  1  0  0  0  0  0  0
  193.4240  176.2640  146.6890 C   0  0  0  0  0  2  0  0  0  0  0  0
  1 10  1  6  0  0  0
  1 21  1  0  0  0  0
  2  8  2  0  0  0  0
  3  5  1  0  0  0  0
  4 11  1  0  0  0  0
  6 10  1  6  0  0  0
  6  1  1  0  0  0  0
  7  4  2  0  0  0  0
  7  9  1  0  0  0  0
  8  6  1  0  0  0  0
  8  4  1  0  0  0  0
  9  3  2  0  0  0  0
 11  1  1  0  0  0  0
 11  5  2  0  0  0  0
 12 20  2  0  0  0  0
 12 15  1  0  0  0  0
 14 17  1  0  0  0  0
 15  3  1  6  0  0  0
 15 18  1  0  0  0  0
 17 13  1  0  0  0  0
 18 13  1  0  0  0  0
 18 16  1  1  0  0  0
 19 14  2  0  0  0  0
 20 14  1  0  0  0  0
 21 22  1  1  0  0  0
 21 26  1  0  0  0  0
 22 24  2  0  0  0  0
 23 28  1  0  0  0  0
 23 27  1  0  0  0  0
 24 28  1  0  0  0  0
 25 26  2  0  0  0  0
 26 23  1  0  0  0  0
M  END
>  <MODEL>
8

>  <REMARK>
 VINA RESULT:      -7.6      2.218      6.151
  Name = 
  2 active torsions:
  status: ('A' for Active; 'I' for Inactive)
    1  A    between atoms: C_1  and  C_2
    2  A    between atoms: C_10  and  C_13
                            x       y       z     vdW  Elec       q    Type
                         _______ _______ _______ _____ _____    ______ ____

>  <TORSDO>
F 2

$$$$
=
 OpenBabel11052418073D

 28 32  0  0  1  0  0  0  0  0999 V2000
  187.1830  177.4330  144.4800 C   0  0  1  0  0  0  0  0  0  0  0  0
  186.3220  176.4170  147.8200 O   0  0  0  0  0  0  0  0  0  0  0  0
  190.7440  176.1940  145.2350 C   0  0  0  0  0  0  0  0  0  0  0  0
  188.2170  176.4190  146.3560 C   0  0  0  0  0  0  0  0  0  0  0  0
  189.6920  176.7610  144.4870 C   0  0  0  0  0  3  0  0  0  0  0  0
  186.0810  177.2370  145.5320 C   0  0  1  0  0  3  0  0  0  0  0  0
  189.2340  175.8580  147.1270 C   0  0  0  0  0  3  0  0  0  0  0  0
  186.8350  176.6650  146.6970 C   0  0  0  0  0  0  0  0  0  0  0  0
  190.5090  175.7450  146.5500 C   0  0  0  0  0  3  0  0  0  0  0  0
  186.5700  178.6350  145.1700 C   0  0  0  0  0  2  0  0  0  0  0  0
  188.4320  176.8560  145.0750 C   0  0  0  0  0  0  0  0  0  0  0  0
  193.1420  176.5090  145.6520 C   0  0  0  0  0  3  0  0  0  0  0  0
  193.7850  174.3700  143.6160 C   0  0  0  0  0  2  0  0  0  0  0  0
  195.0910  176.4150  144.0910 C   0  0  0  0  0  0  0  0  0  0  0  0
  192.1160  176.0550  144.6500 C   0  0  1  0  0  3  0  0  0  0  0  0
  191.2310  174.2890  142.7600 Cl  0  0  0  0  0  0  0  0  0  0  0  0
  194.4330  175.6100  143.0140 C   0  0  0  0  0  2  0  0  0  0  0  0
  192.3550  174.6320  144.1020 C   0  0  1  0  0  3  0  0  0  0  0  0
  196.2560  176.8470  143.8960 O   0  0  0  0  0  0  0  0  0  0  0  0
  194.4380  176.6970  145.3840 C   0  0  0  0  0  3  0  0  0  0  0  0
  186.7220  177.1000  143.0590 C   0  0  1  0  0  3  0  0  0  0  0  0
  186.9460  178.2910  142.1600 C   0  0  0  0  0  3  0  0  0  0  0  0
  187.6280  175.7900  141.0790 N   0  0  0  0  0  0  0  0  0  0  0  0
  187.1090  178.1570  140.8370 C   0  0  0  0  0  3  0  0  0  0  0  0
  187.6690  174.8870  143.2330 O   0  0  0  0  0  0  0  0  0  0  0  0
  187.3840  175.8660  142.4900 C   0  0  0  0  0  0  0  0  0  0  0  0
  188.1930  174.6800  140.5460 O   0  0  0  0  0  1  0  0  0  0  0  0
  187.0680  176.8020  140.1880 C   0  0  0  0  0  2  0  0  0  0  0  0
  1 11  1  0  0  0  0
  1 10  1  6  0  0  0
  1  6  1  0  0  0  0
  3  9  1  0  0  0  0
  4  8  1  0  0  0  0
  4  7  1  0  0  0  0
  5 11  1  0  0  0  0
  5  3  2  0  0  0  0
  6 10  1  1  0  0  0
  6  8  1  0  0  0  0
  8  2  2  0  0  0  0
  9  7  2  0  0  0  0
 11  4  2  0  0  0  0
 13 18  1  0  0  0  0
 14 20  1  0  0  0  0
 15  3  1  1  0  0  0
 15 12  1  0  0  0  0
 17 13  1  0  0  0  0
 17 14  1  0  0  0  0
 18 16  1  6  0  0  0
 18 15  1  0  0  0  0
 19 14  2  0  0  0  0
 20 12  2  0  0  0  0
 21 22  1  6  0  0  0
 21  1  1  0  0  0  0
 23 26  1  0  0  0  0
 24 22  2  0  0  0  0
 26 21  1  0  0  0  0
 26 25  2  0  0  0  0
 27 23  1  0  0  0  0
 28 24  1  0  0  0  0
 28 23  1  0  0  0  0
M  END
>  <MODEL>
9

>  <REMARK>
 VINA RESULT:      -7.5      2.978      5.631
  Name = 
  2 active torsions:
  status: ('A' for Active; 'I' for Inactive)
    1  A    between atoms: C_1  and  C_2
    2  A    between atoms: C_10  and  C_13
                            x       y       z     vdW  Elec       q    Type
                         _______ _______ _______ _____ _____    ______ ____

>  <TORSDO>
F 2

$$$$
