=
 OpenBabel11052421023D

 43 48  0  0  1  0  0  0  0  0999 V2000
  193.0840  175.5280  144.3100 C   0  0  2  0  0  3  0  0  0  0  0  0
  187.1800  177.4630  146.2450 C   0  0  0  0  0  0  0  0  0  0  0  0
  191.7910  176.2100  144.6630 C   0  0  0  0  0  0  0  0  0  0  0  0
  189.3660  177.4610  145.2080 C   0  0  0  0  0  0  0  0  0  0  0  0
  187.4220  176.1870  146.7630 C   0  0  0  0  0  3  0  0  0  0  0  0
  185.9440  178.1170  146.5160 N   0  0  0  0  0  1  0  0  0  0  0  0
  189.6140  176.1700  145.7220 C   0  0  0  0  0  0  0  0  0  0  0  0
  188.1510  178.1000  145.4700 C   0  0  0  0  0  3  0  0  0  0  0  0
  188.6350  175.5420  146.5040 C   0  0  0  0  0  3  0  0  0  0  0  0
  191.0900  174.2550  145.9210 O   0  0  0  0  0  1  0  0  0  0  0  0
  190.8330  175.5380  145.4420 C   0  0  0  0  0  0  0  0  0  0  0  0
  191.5160  177.4530  144.1790 N   0  0  0  0  0  0  0  0  0  0  0  0
  190.3430  178.0870  144.4360 C   0  0  0  0  0  3  0  0  0  0  0  0
  194.1580  175.5420  145.4100 C   0  0  0  0  0  2  0  0  0  0  0  0
  194.9680  171.8380  145.6300 C   0  0  0  0  0  3  0  0  0  0  0  0
  196.3550  171.8680  145.8590 C   0  0  0  0  0  0  0  0  0  0  0  0
  196.2960  174.2930  145.7770 C   0  0  0  0  0  3  0  0  0  0  0  0
  194.2530  173.0290  145.4780 C   0  0  0  0  0  3  0  0  0  0  0  0
  194.9150  174.2590  145.5570 C   0  0  0  0  0  0  0  0  0  0  0  0
  197.0120  173.1010  145.9270 C   0  0  0  0  0  3  0  0  0  0  0  0
  197.0980  170.6960  146.0190 O   0  0  0  0  0  0  0  0  0  0  0  0
  196.5880  169.5450  146.6840 C   0  0  0  0  0  1  0  0  0  0  0  0
  193.5730  175.8070  142.8840 C   0  0  0  0  0  2  0  0  0  0  0  0
  193.0640  174.7790  141.8850 C   0  0  0  0  0  2  0  0  0  0  0  0
  194.5360  173.0840  141.7260 O   0  0  0  0  0  1  0  0  0  0  0  0
  193.3880  173.4410  142.3520 N   0  0  0  0  0  0  0  0  0  0  0  0
  190.9640  173.1180  142.2020 C   0  0  2  0  0  3  0  0  0  0  0  0
  192.1020  171.4400  142.9080 C   0  0  0  0  0  2  0  0  0  0  0  0
  192.3390  172.5380  141.8830 C   0  0  2  0  0  3  0  0  0  0  0  0
  190.7400  172.0240  143.2290 C   0  0  0  0  0  2  0  0  0  0  0  0
  189.9950  172.9440  141.0250 C   0  0  2  0  0  3  0  0  0  0  0  0
  188.2750  174.1350  139.7810 C   0  0  0  0  0  2  0  0  0  0  0  0
  190.5880  173.4310  139.7230 C   0  0  0  0  0  2  0  0  0  0  0  0
  188.6870  173.7150  141.1880 C   0  0  1  0  0  0  0  0  0  0  0  0
  187.7190  172.8740  141.7400 O   0  0  0  0  0  1  0  0  0  0  0  0
  189.3900  173.7100  138.8430 C   0  0  0  0  0  2  0  0  0  0  0  0
  188.8740  174.8690  142.0180 O   0  0  0  0  0  0  0  0  0  0  0  0
  187.9520  175.9130  142.1660 C   0  0  0  0  0  0  0  0  0  0  0  0
  185.8250  176.8010  142.9440 C   0  0  0  0  0  3  0  0  0  0  0  0
  187.3850  178.2420  141.7830 C   0  0  0  0  0  3  0  0  0  0  0  0
  186.1580  178.0550  142.4280 C   0  0  0  0  0  3  0  0  0  0  0  0
  188.2780  177.1740  141.6550 C   0  0  0  0  0  3  0  0  0  0  0  0
  186.7180  175.7330  142.8150 C   0  0  0  0  0  3  0  0  0  0  0  0
  1 23  1  6  0  0  0
  1  3  1  0  0  0  0
  1 14  1  0  0  0  0
  2  6  1  0  0  0  0
  2  5  1  0  0  0  0
  3 11  1  0  0  0  0
  4  8  1  0  0  0  0
  4  7  1  0  0  0  0
  7  9  1  0  0  0  0
  8  2  2  0  0  0  0
  9  5  2  0  0  0  0
 11  7  2  0  0  0  0
 11 10  1  0  0  0  0
 12 13  1  0  0  0  0
 12  3  2  0  0  0  0
 13  4  2  0  0  0  0
 14 19  1  0  0  0  0
 15 16  1  0  0  0  0
 16 20  2  0  0  0  0
 16 21  1  0  0  0  0
 17 20  1  0  0  0  0
 18 19  1  0  0  0  0
 18 15  2  0  0  0  0
 19 17  2  0  0  0  0
 21 22  1  0  0  0  0
 24 26  1  0  0  0  0
 24 23  1  0  0  0  0
 25 26  1  0  0  0  0
 27 30  1  1  0  0  0
 28 30  1  0  0  0  0
 29 27  1  0  0  0  0
 29 26  1  1  0  0  0
 29 28  1  0  0  0  0
 31 33  1  6  0  0  0
 31 34  1  0  0  0  0
 31 27  1  0  0  0  0
 32 34  1  0  0  0  0
 34 35  1  1  0  0  0
 34 37  1  0  0  0  0
 36 33  1  0  0  0  0
 36 32  1  0  0  0  0
 37 38  1  0  0  0  0
 38 43  1  0  0  0  0
 40 41  2  0  0  0  0
 41 39  1  0  0  0  0
 42 40  1  0  0  0  0
 42 38  2  0  0  0  0
 43 39  2  0  0  0  0
M  END
>  <MODEL>
1

>  <REMARK>
 VINA RESULT:      -7.4      0.000      0.000
  Name = 
  11 active torsions:
  status: ('A' for Active; 'I' for Inactive)
    1  A    between atoms: C_1  and  C_34
    2  A    between atoms: C_1  and  C_35
    3  A    between atoms: C_3  and  C_4
    4  A    between atoms: N_6  and  C_12
    5  A    between atoms: N_6  and  C_13
    6  A    between atoms: C_8  and  C_34
    7  A    between atoms: C_11  and  O_14
    8  A    between atoms: C_13  and  C_38
    9  A    between atoms: O_14  and  C_22
   10  A    between atoms: C_19  and  O_25
   11  A    between atoms: C_34  and  C_38
                            x       y       z     vdW  Elec       q    Type
                         _______ _______ _______ _____ _____    ______ ____

>  <TORSDO>
F 11

$$$$
=
 OpenBabel11052421023D

 43 48  0  0  1  0  0  0  0  0999 V2000
  188.6320  175.7130  142.9910 C   0  0  2  0  0  3  0  0  0  0  0  0
  190.7430  170.1920  140.2690 C   0  0  0  0  0  0  0  0  0  0  0  0
  189.0400  174.5450  142.1360 C   0  0  0  0  0  0  0  0  0  0  0  0
  189.8880  172.4410  140.5250 C   0  0  0  0  0  0  0  0  0  0  0  0
  190.7400  170.0300  141.6580 C   0  0  0  0  0  3  0  0  0  0  0  0
  191.1730  169.1240  139.4310 N   0  0  0  0  0  1  0  0  0  0  0  0
  189.8890  172.2870  141.9280 C   0  0  0  0  0  0  0  0  0  0  0  0
  190.3160  171.3940  139.7030 C   0  0  0  0  0  3  0  0  0  0  0  0
  190.3140  171.0740  142.4860 C   0  0  0  0  0  3  0  0  0  0  0  0
  189.4830  173.2270  144.1270 O   0  0  0  0  0  1  0  0  0  0  0  0
  189.4690  173.3490  142.7380 C   0  0  0  0  0  0  0  0  0  0  0  0
  189.0560  174.6600  140.7790 N   0  0  0  0  0  0  0  0  0  0  0  0
  189.4600  173.6460  139.9710 C   0  0  0  0  0  3  0  0  0  0  0  0
  187.1340  176.0540  142.9710 C   0  0  0  0  0  2  0  0  0  0  0  0
  185.9080  179.0460  144.9640 C   0  0  0  0  0  3  0  0  0  0  0  0
  185.8400  178.5080  146.2610 C   0  0  0  0  0  0  0  0  0  0  0  0
  186.6000  176.3720  145.3950 C   0  0  0  0  0  3  0  0  0  0  0  0
  186.3220  178.2490  143.8930 C   0  0  0  0  0  3  0  0  0  0  0  0
  186.6750  176.9120  144.1070 C   0  0  0  0  0  0  0  0  0  0  0  0
  186.1840  177.1680  146.4670 C   0  0  0  0  0  3  0  0  0  0  0  0
  185.4340  179.2770  147.3540 O   0  0  0  0  0  0  0  0  0  0  0  0
  186.3550  179.9070  148.2380 C   0  0  0  0  0  1  0  0  0  0  0  0
  189.5970  176.9030  142.9310 C   0  0  0  0  0  2  0  0  0  0  0  0
  190.7710  176.7480  143.8850 C   0  0  0  0  0  2  0  0  0  0  0  0
  189.7020  177.8780  145.5120 O   0  0  0  0  0  1  0  0  0  0  0  0
  190.2830  176.6810  145.2540 N   0  0  0  0  0  0  0  0  0  0  0  0
  191.7890  175.0900  146.3510 C   0  0  2  0  0  3  0  0  0  0  0  0
  191.0020  176.6590  147.5880 C   0  0  0  0  0  2  0  0  0  0  0  0
  191.4410  176.5610  146.1360 C   0  0  2  0  0  3  0  0  0  0  0  0
  191.3400  175.1960  147.7970 C   0  0  0  0  0  2  0  0  0  0  0  0
  193.3040  174.8570  146.2850 C   0  0  2  0  0  3  0  0  0  0  0  0
  195.0840  174.3370  144.7080 C   0  0  0  0  0  2  0  0  0  0  0  0
  194.0630  176.1260  145.9750 C   0  0  0  0  0  2  0  0  0  0  0  0
  193.7240  173.8600  145.2060 C   0  0  1  0  0  0  0  0  0  0  0  0
  193.8390  172.5890  145.7700 O   0  0  0  0  0  1  0  0  0  0  0  0
  195.3820  175.6500  145.4100 C   0  0  0  0  0  2  0  0  0  0  0  0
  192.7770  173.8420  144.1300 O   0  0  0  0  0  0  0  0  0  0  0  0
  193.0860  173.5820  142.7890 C   0  0  0  0  0  0  0  0  0  0  0  0
  193.9200  172.1320  141.0240 C   0  0  0  0  0  3  0  0  0  0  0  0
  193.1350  174.3580  140.4890 C   0  0  0  0  0  3  0  0  0  0  0  0
  193.6740  173.1340  140.0820 C   0  0  0  0  0  3  0  0  0  0  0  0
  192.8400  174.5790  141.8380 C   0  0  0  0  0  3  0  0  0  0  0  0
  193.6270  172.3530  142.3720 C   0  0  0  0  0  3  0  0  0  0  0  0
  1 23  1  6  0  0  0
  2  5  1  0  0  0  0
  3 11  1  0  0  0  0
  3  1  1  0  0  0  0
  4  7  1  0  0  0  0
  5  9  2  0  0  0  0
  6  2  1  0  0  0  0
  7  9  1  0  0  0  0
  7 11  2  0  0  0  0
  8  2  2  0  0  0  0
  8  4  1  0  0  0  0
 11 10  1  0  0  0  0
 12  3  2  0  0  0  0
 13  4  2  0  0  0  0
 13 12  1  0  0  0  0
 14  1  1  0  0  0  0
 14 19  1  0  0  0  0
 15 16  1  0  0  0  0
 16 20  2  0  0  0  0
 16 21  1  0  0  0  0
 17 20  1  0  0  0  0
 18 19  1  0  0  0  0
 18 15  2  0  0  0  0
 19 17  2  0  0  0  0
 21 22  1  0  0  0  0
 23 24  1  0  0  0  0
 24 26  1  0  0  0  0
 26 25  1  0  0  0  0
 27 30  1  1  0  0  0
 28 30  1  0  0  0  0
 29 26  1  6  0  0  0
 29 27  1  0  0  0  0
 29 28  1  0  0  0  0
 31 33  1  6  0  0  0
 31 27  1  0  0  0  0
 32 34  1  0  0  0  0
 32 36  1  0  0  0  0
 34 35  1  1  0  0  0
 34 31  1  0  0  0  0
 36 33  1  0  0  0  0
 37 34  1  0  0  0  0
 38 37  1  0  0  0  0
 39 43  2  0  0  0  0
 40 42  1  0  0  0  0
 41 40  2  0  0  0  0
 41 39  1  0  0  0  0
 42 38  2  0  0  0  0
 43 38  1  0  0  0  0
M  END
>  <MODEL>
2

>  <REMARK>
 VINA RESULT:      -7.3      2.429      8.078
  Name = 
  11 active torsions:
  status: ('A' for Active; 'I' for Inactive)
    1  A    between atoms: C_1  and  C_34
    2  A    between atoms: C_1  and  C_35
    3  A    between atoms: C_3  and  C_4
    4  A    between atoms: N_6  and  C_12
    5  A    between atoms: N_6  and  C_13
    6  A    between atoms: C_8  and  C_34
    7  A    between atoms: C_11  and  O_14
    8  A    between atoms: C_13  and  C_38
    9  A    between atoms: O_14  and  C_22
   10  A    between atoms: C_19  and  O_25
   11  A    between atoms: C_34  and  C_38
                            x       y       z     vdW  Elec       q    Type
                         _______ _______ _______ _____ _____    ______ ____

>  <TORSDO>
F 11

$$$$
=
 OpenBabel11052421023D

 43 48  0  0  1  0  0  0  0  0999 V2000
  188.7300  174.4620  142.3960 C   0  0  2  0  0  3  0  0  0  0  0  0
  194.6040  174.5680  145.1950 C   0  0  0  0  0  0  0  0  0  0  0  0
  190.1510  174.6540  142.8500 C   0  0  0  0  0  0  0  0  0  0  0  0
  192.7490  175.1060  143.7370 C   0  0  0  0  0  0  0  0  0  0  0  0
  193.8520  173.5420  145.7760 C   0  0  0  0  0  3  0  0  0  0  0  0
  195.9350  174.8120  145.6380 N   0  0  0  0  0  1  0  0  0  0  0  0
  191.9830  174.0760  144.3240 C   0  0  0  0  0  0  0  0  0  0  0  0
  194.0540  175.3480  144.1760 C   0  0  0  0  0  3  0  0  0  0  0  0
  192.5460  173.2950  145.3430 C   0  0  0  0  0  3  0  0  0  0  0  0
  189.8900  172.8570  144.4620 O   0  0  0  0  0  1  0  0  0  0  0  0
  190.6720  173.8540  143.8820 C   0  0  0  0  0  0  0  0  0  0  0  0
  190.9170  175.6410  142.3090 N   0  0  0  0  0  0  0  0  0  0  0  0
  192.1900  175.8780  142.7210 C   0  0  0  0  0  3  0  0  0  0  0  0
  188.3660  173.0350  141.9550 C   0  0  0  0  0  2  0  0  0  0  0  0
  190.7740  171.5760  139.4060 C   0  0  0  0  0  3  0  0  0  0  0  0
  190.1030  171.8480  138.2010 C   0  0  0  0  0  0  0  0  0  0  0  0
  188.3000  172.8750  139.4580 C   0  0  0  0  0  3  0  0  0  0  0  0
  190.2100  171.9550  140.6260 C   0  0  0  0  0  3  0  0  0  0  0  0
  188.9740  172.6110  140.6540 C   0  0  0  0  0  0  0  0  0  0  0  0
  188.8630  172.4950  138.2360 C   0  0  0  0  0  3  0  0  0  0  0  0
  190.6410  171.4850  136.9630 O   0  0  0  0  0  0  0  0  0  0  0  0
  189.8360  171.0680  135.8660 C   0  0  0  0  0  1  0  0  0  0  0  0
  188.1920  175.5980  141.5190 C   0  0  0  0  0  2  0  0  0  0  0  0
  187.0480  176.3510  142.1820 C   0  0  0  0  0  2  0  0  0  0  0  0
  188.3060  178.2100  142.0270 O   0  0  0  0  0  1  0  0  0  0  0  0
  187.0650  177.7410  141.7550 N   0  0  0  0  0  0  0  0  0  0  0  0
  185.3120  177.5100  143.4510 C   0  0  2  0  0  3  0  0  0  0  0  0
  184.8740  178.8200  141.8070 C   0  0  0  0  0  2  0  0  0  0  0  0
  186.1270  178.4780  142.5980 C   0  0  2  0  0  3  0  0  0  0  0  0
  184.0690  177.8510  142.6500 C   0  0  0  0  0  2  0  0  0  0  0  0
  185.1670  178.0170  144.8920 C   0  0  2  0  0  3  0  0  0  0  0  0
  186.3080  177.9970  147.0420 C   0  0  0  0  0  2  0  0  0  0  0  0
  185.8420  179.3540  145.0960 C   0  0  0  0  0  2  0  0  0  0  0  0
  185.7860  177.0880  145.9340 C   0  0  1  0  0  0  0  0  0  0  0  0
  184.8030  176.2360  146.4370 O   0  0  0  0  0  1  0  0  0  0  0  0
  186.0930  179.4290  146.5850 C   0  0  0  0  0  2  0  0  0  0  0  0
  186.8600  176.3270  145.3670 O   0  0  0  0  0  0  0  0  0  0  0  0
  188.1870  176.3440  145.8180 C   0  0  0  0  0  0  0  0  0  0  0  0
  189.9820  175.5050  147.2280 C   0  0  0  0  0  3  0  0  0  0  0  0
  190.4050  177.3200  145.6830 C   0  0  0  0  0  3  0  0  0  0  0  0
  190.8600  176.4360  146.6670 C   0  0  0  0  0  3  0  0  0  0  0  0
  189.0730  177.2720  145.2600 C   0  0  0  0  0  3  0  0  0  0  0  0
  188.6500  175.4580  146.8060 C   0  0  0  0  0  3  0  0  0  0  0  0
  1 23  1  6  0  0  0
  1  3  1  0  0  0  0
  2  6  1  0  0  0  0
  2  5  1  0  0  0  0
  3 11  1  0  0  0  0
  4  8  1  0  0  0  0
  4  7  1  0  0  0  0
  7  9  1  0  0  0  0
  8  2  2  0  0  0  0
  9  5  2  0  0  0  0
 11  7  2  0  0  0  0
 11 10  1  0  0  0  0
 12 13  1  0  0  0  0
 12  3  2  0  0  0  0
 13  4  2  0  0  0  0
 14  1  1  0  0  0  0
 15 18  1  0  0  0  0
 16 20  1  0  0  0  0
 16 15  2  0  0  0  0
 17 19  1  0  0  0  0
 18 19  2  0  0  0  0
 19 14  1  0  0  0  0
 20 17  2  0  0  0  0
 21 16  1  0  0  0  0
 22 21  1  0  0  0  0
 23 24  1  0  0  0  0
 26 25  1  0  0  0  0
 26 24  1  0  0  0  0
 27 30  1  6  0  0  0
 27 31  1  0  0  0  0
 28 29  1  0  0  0  0
 28 30  1  0  0  0  0
 29 26  1  6  0  0  0
 29 27  1  0  0  0  0
 31 33  1  6  0  0  0
 31 34  1  0  0  0  0
 33 36  1  0  0  0  0
 34 35  1  1  0  0  0
 34 32  1  0  0  0  0
 36 32  1  0  0  0  0
 37 38  1  0  0  0  0
 37 34  1  0  0  0  0
 38 43  1  0  0  0  0
 40 41  2  0  0  0  0
 41 39  1  0  0  0  0
 42 40  1  0  0  0  0
 42 38  2  0  0  0  0
 43 39  2  0  0  0  0
M  END
>  <MODEL>
3

>  <REMARK>
 VINA RESULT:      -7.2      2.501      7.314
  Name = 
  11 active torsions:
  status: ('A' for Active; 'I' for Inactive)
    1  A    between atoms: C_1  and  C_34
    2  A    between atoms: C_1  and  C_35
    3  A    between atoms: C_3  and  C_4
    4  A    between atoms: N_6  and  C_12
    5  A    between atoms: N_6  and  C_13
    6  A    between atoms: C_8  and  C_34
    7  A    between atoms: C_11  and  O_14
    8  A    between atoms: C_13  and  C_38
    9  A    between atoms: O_14  and  C_22
   10  A    between atoms: C_19  and  O_25
   11  A    between atoms: C_34  and  C_38
                            x       y       z     vdW  Elec       q    Type
                         _______ _______ _______ _____ _____    ______ ____

>  <TORSDO>
F 11

$$$$
=
 OpenBabel11052421023D

 43 48  0  0  1  0  0  0  0  0999 V2000
  189.1500  174.7120  141.5660 C   0  0  2  0  0  3  0  0  0  0  0  0
  191.1310  170.5270  136.9940 C   0  0  0  0  0  0  0  0  0  0  0  0
  189.3600  173.6570  140.5140 C   0  0  0  0  0  0  0  0  0  0  0  0
  189.7010  171.7750  138.4940 C   0  0  0  0  0  0  0  0  0  0  0  0
  192.2540  171.1620  137.5320 C   0  0  0  0  0  3  0  0  0  0  0  0
  191.2890  169.5600  135.9600 N   0  0  0  0  0  1  0  0  0  0  0  0
  190.8300  172.4260  139.0370 C   0  0  0  0  0  0  0  0  0  0  0  0
  189.8560  170.8310  137.4750 C   0  0  0  0  0  3  0  0  0  0  0  0
  192.1060  172.1080  138.5510 C   0  0  0  0  0  3  0  0  0  0  0  0
  191.7550  174.0480  140.5840 O   0  0  0  0  0  1  0  0  0  0  0  0
  190.6570  173.3780  140.0490 C   0  0  0  0  0  0  0  0  0  0  0  0
  188.2930  173.0140  139.9650 N   0  0  0  0  0  0  0  0  0  0  0  0
  188.4340  172.0870  138.9820 C   0  0  0  0  0  3  0  0  0  0  0  0
  189.2490  174.2220  143.0200 C   0  0  0  0  0  2  0  0  0  0  0  0
  192.4030  173.8770  145.1080 C   0  0  0  0  0  3  0  0  0  0  0  0
  192.9700  175.1560  144.9700 C   0  0  0  0  0  0  0  0  0  0  0  0
  191.1130  175.8060  143.5500 C   0  0  0  0  0  3  0  0  0  0  0  0
  191.1980  173.5690  144.4710 C   0  0  0  0  0  3  0  0  0  0  0  0
  190.5470  174.5360  143.6950 C   0  0  0  0  0  0  0  0  0  0  0  0
  192.3200  176.1140  144.1860 C   0  0  0  0  0  3  0  0  0  0  0  0
  194.1710  175.4970  145.5960 O   0  0  0  0  0  0  0  0  0  0  0  0
  194.3180  176.6650  146.3960 C   0  0  0  0  0  1  0  0  0  0  0  0
  188.0090  175.6880  141.2580 C   0  0  0  0  0  2  0  0  0  0  0  0
  187.5600  176.4620  142.4880 C   0  0  0  0  0  2  0  0  0  0  0  0
  188.7840  178.3370  142.7190 O   0  0  0  0  0  1  0  0  0  0  0  0
  187.6100  177.8900  142.2130 N   0  0  0  0  0  0  0  0  0  0  0  0
  185.6820  177.4720  143.6670 C   0  0  2  0  0  3  0  0  0  0  0  0
  185.3710  178.8550  142.0540 C   0  0  0  0  0  2  0  0  0  0  0  0
  186.5380  178.5280  142.9730 C   0  0  2  0  0  3  0  0  0  0  0  0
  184.5270  177.7990  142.7390 C   0  0  0  0  0  2  0  0  0  0  0  0
  185.3380  177.8840  145.1030 C   0  0  2  0  0  3  0  0  0  0  0  0
  186.2010  177.7720  147.3770 C   0  0  0  0  0  2  0  0  0  0  0  0
  185.9250  179.2290  145.4670 C   0  0  0  0  0  2  0  0  0  0  0  0
  185.8610  176.9150  146.1620 C   0  0  1  0  0  0  0  0  0  0  0  0
  184.8590  175.9990  146.4870 O   0  0  0  0  0  1  0  0  0  0  0  0
  185.9850  179.2200  146.9780 C   0  0  0  0  0  2  0  0  0  0  0  0
  187.0280  176.2290  145.6930 O   0  0  0  0  0  0  0  0  0  0  0  0
  188.2810  176.2470  146.3200 C   0  0  0  0  0  0  0  0  0  0  0  0
  190.3610  177.3550  146.9210 C   0  0  0  0  0  3  0  0  0  0  0  0
  189.9470  175.0840  147.6490 C   0  0  0  0  0  3  0  0  0  0  0  0
  190.7760  176.2100  147.6050 C   0  0  0  0  0  3  0  0  0  0  0  0
  188.7040  175.1050  147.0100 C   0  0  0  0  0  3  0  0  0  0  0  0
  189.1190  177.3760  146.2820 C   0  0  0  0  0  3  0  0  0  0  0  0
  1 23  1  1  0  0  0
  1 14  1  0  0  0  0
  2  8  2  0  0  0  0
  2  5  1  0  0  0  0
  3  1  1  0  0  0  0
  4 13  2  0  0  0  0
  4  7  1  0  0  0  0
  5  9  2  0  0  0  0
  6  2  1  0  0  0  0
  7 11  2  0  0  0  0
  8  4  1  0  0  0  0
  9  7  1  0  0  0  0
 11  3  1  0  0  0  0
 11 10  1  0  0  0  0
 12  3  2  0  0  0  0
 13 12  1  0  0  0  0
 14 19  1  0  0  0  0
 16 15  1  0  0  0  0
 16 21  1  0  0  0  0
 17 19  2  0  0  0  0
 17 20  1  0  0  0  0
 18 15  2  0  0  0  0
 19 18  1  0  0  0  0
 20 16  2  0  0  0  0
 21 22  1  0  0  0  0
 23 24  1  0  0  0  0
 26 24  1  0  0  0  0
 26 25  1  0  0  0  0
 27 30  1  6  0  0  0
 27 31  1  0  0  0  0
 28 30  1  0  0  0  0
 28 29  1  0  0  0  0
 29 26  1  6  0  0  0
 29 27  1  0  0  0  0
 31 33  1  1  0  0  0
 31 34  1  0  0  0  0
 33 36  1  0  0  0  0
 34 35  1  1  0  0  0
 34 32  1  0  0  0  0
 36 32  1  0  0  0  0
 37 34  1  0  0  0  0
 37 38  1  0  0  0  0
 38 42  1  0  0  0  0
 39 41  2  0  0  0  0
 41 40  1  0  0  0  0
 42 40  2  0  0  0  0
 43 38  2  0  0  0  0
 43 39  1  0  0  0  0
M  END
>  <MODEL>
4

>  <REMARK>
 VINA RESULT:      -7.2      2.788      7.549
  Name = 
  11 active torsions:
  status: ('A' for Active; 'I' for Inactive)
    1  A    between atoms: C_1  and  C_34
    2  A    between atoms: C_1  and  C_35
    3  A    between atoms: C_3  and  C_4
    4  A    between atoms: N_6  and  C_12
    5  A    between atoms: N_6  and  C_13
    6  A    between atoms: C_8  and  C_34
    7  A    between atoms: C_11  and  O_14
    8  A    between atoms: C_13  and  C_38
    9  A    between atoms: O_14  and  C_22
   10  A    between atoms: C_19  and  O_25
   11  A    between atoms: C_34  and  C_38
                            x       y       z     vdW  Elec       q    Type
                         _______ _______ _______ _____ _____    ______ ____

>  <TORSDO>
F 11

$$$$
=
 OpenBabel11052421023D

 43 48  0  0  1  0  0  0  0  0999 V2000
  190.7790  175.9410  144.7880 C   0  0  2  0  0  3  0  0  0  0  0  0
  184.8440  178.4260  145.7600 C   0  0  0  0  0  0  0  0  0  0  0  0
  189.3870  176.3330  145.2010 C   0  0  0  0  0  0  0  0  0  0  0  0
  186.8560  177.1140  146.0520 C   0  0  0  0  0  0  0  0  0  0  0  0
  185.3640  178.9660  144.5800 C   0  0  0  0  0  3  0  0  0  0  0  0
  183.5490  178.8140  146.2090 N   0  0  0  0  0  1  0  0  0  0  0  0
  187.3900  177.6600  144.8660 C   0  0  0  0  0  0  0  0  0  0  0  0
  185.5870  177.5000  146.4950 C   0  0  0  0  0  3  0  0  0  0  0  0
  186.6330  178.5840  144.1330 C   0  0  0  0  0  3  0  0  0  0  0  0
  189.2230  177.8150  143.2850 O   0  0  0  0  0  1  0  0  0  0  0  0
  188.6670  177.2710  144.4410 C   0  0  0  0  0  0  0  0  0  0  0  0
  188.8420  175.8290  146.3430 N   0  0  0  0  0  0  0  0  0  0  0  0
  187.6070  176.1900  146.7760 C   0  0  0  0  0  3  0  0  0  0  0  0
  190.9720  174.4550  144.4480 C   0  0  0  0  0  2  0  0  0  0  0  0
  189.4530  174.3180  140.9690 C   0  0  0  0  0  3  0  0  0  0  0  0
  188.7560  173.0980  141.0170 C   0  0  0  0  0  0  0  0  0  0  0  0
  189.5240  172.7700  143.2950 C   0  0  0  0  0  3  0  0  0  0  0  0
  190.1790  174.7580  142.0800 C   0  0  0  0  0  3  0  0  0  0  0  0
  190.2110  173.9870  143.2470 C   0  0  0  0  0  0  0  0  0  0  0  0
  188.8000  172.3280  142.1840 C   0  0  0  0  0  3  0  0  0  0  0  0
  188.0180  172.6310  139.9270 O   0  0  0  0  0  0  0  0  0  0  0  0
  188.3620  172.9330  138.5780 C   0  0  0  0  0  1  0  0  0  0  0  0
  191.8880  176.5930  145.6220 C   0  0  0  0  0  2  0  0  0  0  0  0
  193.2610  176.4340  144.9860 C   0  0  0  0  0  2  0  0  0  0  0  0
  194.5800  177.1690  146.6550 O   0  0  0  0  0  1  0  0  0  0  0  0
  194.2260  176.0370  145.9990 N   0  0  0  0  0  0  0  0  0  0  0  0
  195.0170  174.6760  144.1210 C   0  0  2  0  0  3  0  0  0  0  0  0
  195.9510  174.3080  146.0190 C   0  0  0  0  0  2  0  0  0  0  0  0
  195.4170  175.5440  145.3120 C   0  0  2  0  0  3  0  0  0  0  0  0
  195.5450  173.4480  144.8390 C   0  0  0  0  0  2  0  0  0  0  0  0
  195.8810  174.9800  142.8910 C   0  0  2  0  0  3  0  0  0  0  0  0
  195.7130  175.3670  140.4930 C   0  0  0  0  0  2  0  0  0  0  0  0
  195.9990  176.4640  142.6290 C   0  0  0  0  0  2  0  0  0  0  0  0
  195.3350  174.3830  141.5950 C   0  0  1  0  0  0  0  0  0  0  0  0
  195.9410  173.1470  141.3630 O   0  0  0  0  0  1  0  0  0  0  0  0
  196.3640  176.5630  141.1650 C   0  0  0  0  0  2  0  0  0  0  0  0
  193.9110  174.2330  141.6620 O   0  0  0  0  0  0  0  0  0  0  0  0
  193.1910  173.1390  141.1650 C   0  0  0  0  0  0  0  0  0  0  0  0
  191.9990  171.9870  139.3850 C   0  0  0  0  0  3  0  0  0  0  0  0
  192.2330  170.9420  141.5560 C   0  0  0  0  0  3  0  0  0  0  0  0
  191.7590  170.9090  140.2410 C   0  0  0  0  0  3  0  0  0  0  0  0
  192.9480  172.0530  142.0150 C   0  0  0  0  0  3  0  0  0  0  0  0
  192.7120  173.0980  139.8440 C   0  0  0  0  0  3  0  0  0  0  0  0
  1 14  1  1  0  0  0
  1  3  1  0  0  0  0
  1 23  1  0  0  0  0
  2  6  1  0  0  0  0
  2  8  1  0  0  0  0
  3 12  1  0  0  0  0
  4  8  2  0  0  0  0
  4 13  1  0  0  0  0
  5  2  2  0  0  0  0
  7  4  1  0  0  0  0
  9  5  1  0  0  0  0
  9  7  2  0  0  0  0
 10 11  1  0  0  0  0
 11  7  1  0  0  0  0
 11  3  2  0  0  0  0
 12 13  2  0  0  0  0
 15 16  2  0  0  0  0
 15 18  1  0  0  0  0
 16 20  1  0  0  0  0
 18 19  2  0  0  0  0
 19 17  1  0  0  0  0
 19 14  1  0  0  0  0
 20 17  2  0  0  0  0
 21 16  1  0  0  0  0
 22 21  1  0  0  0  0
 24 23  1  0  0  0  0
 24 26  1  0  0  0  0
 26 25  1  0  0  0  0
 27 30  1  1  0  0  0
 27 29  1  0  0  0  0
 29 26  1  1  0  0  0
 29 28  1  0  0  0  0
 30 28  1  0  0  0  0
 31 33  1  6  0  0  0
 31 27  1  0  0  0  0
 32 36  1  0  0  0  0
 32 34  1  0  0  0  0
 34 35  1  6  0  0  0
 34 37  1  0  0  0  0
 34 31  1  0  0  0  0
 36 33  1  0  0  0  0
 38 37  1  0  0  0  0
 38 42  1  0  0  0  0
 39 43  1  0  0  0  0
 39 41  2  0  0  0  0
 40 42  2  0  0  0  0
 41 40  1  0  0  0  0
 43 38  2  0  0  0  0
M  END
>  <MODEL>
5

>  <REMARK>
 VINA RESULT:      -7.1      2.232      6.255
  Name = 
  11 active torsions:
  status: ('A' for Active; 'I' for Inactive)
    1  A    between atoms: C_1  and  C_34
    2  A    between atoms: C_1  and  C_35
    3  A    between atoms: C_3  and  C_4
    4  A    between atoms: N_6  and  C_12
    5  A    between atoms: N_6  and  C_13
    6  A    between atoms: C_8  and  C_34
    7  A    between atoms: C_11  and  O_14
    8  A    between atoms: C_13  and  C_38
    9  A    between atoms: O_14  and  C_22
   10  A    between atoms: C_19  and  O_25
   11  A    between atoms: C_34  and  C_38
                            x       y       z     vdW  Elec       q    Type
                         _______ _______ _______ _____ _____    ______ ____

>  <TORSDO>
F 11

$$$$
=
 OpenBabel11052421023D

 43 48  0  0  1  0  0  0  0  0999 V2000
  190.8260  173.3500  144.1490 C   0  0  2  0  0  3  0  0  0  0  0  0
  196.3140  170.1060  145.4590 C   0  0  0  0  0  0  0  0  0  0  0  0
  192.1800  172.8290  144.5480 C   0  0  0  0  0  0  0  0  0  0  0  0
  194.6460  171.8590  145.3930 C   0  0  0  0  0  0  0  0  0  0  0  0
  195.5050  169.3030  144.6480 C   0  0  0  0  0  3  0  0  0  0  0  0
  197.5790  169.6240  145.8990 N   0  0  0  0  0  1  0  0  0  0  0  0
  193.8220  171.0510  144.5810 C   0  0  0  0  0  0  0  0  0  0  0  0
  195.8860  171.3830  145.8300 C   0  0  0  0  0  3  0  0  0  0  0  0
  194.2630  169.7730  144.2090 C   0  0  0  0  0  3  0  0  0  0  0  0
  191.7380  170.7490  143.3770 O   0  0  0  0  0  1  0  0  0  0  0  0
  192.5780  171.5380  144.1610 C   0  0  0  0  0  0  0  0  0  0  0  0
  192.9990  173.5800  145.3360 N   0  0  0  0  0  0  0  0  0  0  0  0
  194.2100  173.1310  145.7570 C   0  0  0  0  0  3  0  0  0  0  0  0
  190.8380  174.5520  143.1900 C   0  0  0  0  0  2  0  0  0  0  0  0
  188.3720  174.4730  140.3030 C   0  0  0  0  0  3  0  0  0  0  0  0
  189.0960  173.7520  139.3380 C   0  0  0  0  0  0  0  0  0  0  0  0
  190.9530  173.5740  140.8890 C   0  0  0  0  0  3  0  0  0  0  0  0
  188.9370  174.7390  141.5530 C   0  0  0  0  0  3  0  0  0  0  0  0
  190.2270  174.2850  141.8500 C   0  0  0  0  0  0  0  0  0  0  0  0
  190.3880  173.3090  139.6370 C   0  0  0  0  0  3  0  0  0  0  0  0
  188.5580  173.4660  138.0800 O   0  0  0  0  0  0  0  0  0  0  0  0
  188.9300  174.1760  136.9040 C   0  0  0  0  0  1  0  0  0  0  0  0
  189.8130  173.4120  145.2970 C   0  0  0  0  0  2  0  0  0  0  0  0
  189.1420  174.7730  145.4060 C   0  0  0  0  0  2  0  0  0  0  0  0
  188.7620  174.7980  147.6240 O   0  0  0  0  0  1  0  0  0  0  0  0
  189.5080  175.3990  146.6660 N   0  0  0  0  0  0  0  0  0  0  0  0
  187.9030  176.9550  145.6610 C   0  0  2  0  0  3  0  0  0  0  0  0
  189.9630  177.5590  145.6190 C   0  0  0  0  0  2  0  0  0  0  0  0
  189.0910  176.7980  146.6070 C   0  0  2  0  0  3  0  0  0  0  0  0
  188.7830  177.7050  144.6790 C   0  0  0  0  0  2  0  0  0  0  0  0
  186.8420  177.8970  146.2460 C   0  0  2  0  0  3  0  0  0  0  0  0
  184.4810  178.4570  146.0580 C   0  0  0  0  0  2  0  0  0  0  0  0
  186.1020  177.2720  147.4060 C   0  0  0  0  0  2  0  0  0  0  0  0
  185.7610  178.2990  145.2450 C   0  0  1  0  0  0  0  0  0  0  0  0
  186.1060  179.5150  144.6530 O   0  0  0  0  0  1  0  0  0  0  0  0
  184.8010  178.0400  147.4830 C   0  0  0  0  0  2  0  0  0  0  0  0
  185.5920  177.2890  144.2420 O   0  0  0  0  0  0  0  0  0  0  0  0
  185.3730  177.5330  142.8800 C   0  0  0  0  0  0  0  0  0  0  0  0
  183.9610  178.2330  141.0270 C   0  0  0  0  0  3  0  0  0  0  0  0
  186.2440  177.5400  140.6130 C   0  0  0  0  0  3  0  0  0  0  0  0
  185.0130  178.0030  140.1370 C   0  0  0  0  0  3  0  0  0  0  0  0
  186.4220  177.3080  141.9810 C   0  0  0  0  0  3  0  0  0  0  0  0
  184.1400  178.0000  142.3940 C   0  0  0  0  0  3  0  0  0  0  0  0
  1 14  1  1  0  0  0
  1  3  1  0  0  0  0
  1 23  1  0  0  0  0
  2  8  1  0  0  0  0
  2  6  1  0  0  0  0
  3 12  1  0  0  0  0
  4 13  1  0  0  0  0
  4  8  2  0  0  0  0
  5  2  2  0  0  0  0
  7  4  1  0  0  0  0
  9  7  2  0  0  0  0
  9  5  1  0  0  0  0
 10 11  1  0  0  0  0
 11  3  2  0  0  0  0
 11  7  1  0  0  0  0
 12 13  2  0  0  0  0
 15 18  1  0  0  0  0
 16 20  1  0  0  0  0
 16 15  2  0  0  0  0
 17 19  1  0  0  0  0
 18 19  2  0  0  0  0
 19 14  1  0  0  0  0
 20 17  2  0  0  0  0
 21 16  1  0  0  0  0
 22 21  1  0  0  0  0
 23 24  1  0  0  0  0
 24 26  1  0  0  0  0
 26 25  1  0  0  0  0
 27 30  1  6  0  0  0
 27 31  1  0  0  0  0
 27 29  1  0  0  0  0
 28 29  1  0  0  0  0
 29 26  1  6  0  0  0
 30 28  1  0  0  0  0
 31 33  1  1  0  0  0
 32 36  1  0  0  0  0
 33 36  1  0  0  0  0
 34 35  1  6  0  0  0
 34 32  1  0  0  0  0
 34 31  1  0  0  0  0
 37 34  1  0  0  0  0
 38 37  1  0  0  0  0
 39 43  2  0  0  0  0
 40 42  1  0  0  0  0
 41 40  2  0  0  0  0
 41 39  1  0  0  0  0
 42 38  2  0  0  0  0
 43 38  1  0  0  0  0
M  END
>  <MODEL>
6

>  <REMARK>
 VINA RESULT:      -6.9      2.461      7.538
  Name = 
  11 active torsions:
  status: ('A' for Active; 'I' for Inactive)
    1  A    between atoms: C_1  and  C_34
    2  A    between atoms: C_1  and  C_35
    3  A    between atoms: C_3  and  C_4
    4  A    between atoms: N_6  and  C_12
    5  A    between atoms: N_6  and  C_13
    6  A    between atoms: C_8  and  C_34
    7  A    between atoms: C_11  and  O_14
    8  A    between atoms: C_13  and  C_38
    9  A    between atoms: O_14  and  C_22
   10  A    between atoms: C_19  and  O_25
   11  A    between atoms: C_34  and  C_38
                            x       y       z     vdW  Elec       q    Type
                         _______ _______ _______ _____ _____    ______ ____

>  <TORSDO>
F 11

$$$$
=
 OpenBabel11052421023D

 43 48  0  0  1  0  0  0  0  0999 V2000
  191.3340  175.7050  144.6740 C   0  0  2  0  0  3  0  0  0  0  0  0
  185.4420  177.9870  146.2320 C   0  0  0  0  0  0  0  0  0  0  0  0
  189.9680  176.0370  145.2110 C   0  0  0  0  0  0  0  0  0  0  0  0
  187.4920  176.7030  146.2900 C   0  0  0  0  0  0  0  0  0  0  0  0
  185.8670  178.6160  145.0580 C   0  0  0  0  0  3  0  0  0  0  0  0
  184.1770  178.3160  146.7970 N   0  0  0  0  0  1  0  0  0  0  0  0
  187.9300  177.3390  145.1090 C   0  0  0  0  0  0  0  0  0  0  0  0
  186.2520  177.0300  146.8470 C   0  0  0  0  0  3  0  0  0  0  0  0
  187.1060  178.2940  144.4970 C   0  0  0  0  0  3  0  0  0  0  0  0
  189.6410  177.6410  143.4170 O   0  0  0  0  0  1  0  0  0  0  0  0
  189.1800  177.0080  144.5700 C   0  0  0  0  0  0  0  0  0  0  0  0
  189.5170  175.4460  146.3510 N   0  0  0  0  0  0  0  0  0  0  0  0
  188.3090  175.7490  146.8940 C   0  0  0  0  0  3  0  0  0  0  0  0
  191.5740  174.2200  144.3560 C   0  0  0  0  0  2  0  0  0  0  0  0
  190.0370  174.0710  140.8860 C   0  0  0  0  0  3  0  0  0  0  0  0
  189.5040  172.7700  140.8720 C   0  0  0  0  0  0  0  0  0  0  0  0
  190.3420  172.4240  143.1240 C   0  0  0  0  0  3  0  0  0  0  0  0
  190.7140  174.5430  142.0140 C   0  0  0  0  0  3  0  0  0  0  0  0
  190.8630  173.7220  143.1370 C   0  0  0  0  0  0  0  0  0  0  0  0
  189.6650  171.9510  141.9950 C   0  0  0  0  0  3  0  0  0  0  0  0
  188.8190  172.2700  139.7630 O   0  0  0  0  0  0  0  0  0  0  0  0
  188.1920  173.1110  138.8010 C   0  0  0  0  0  1  0  0  0  0  0  0
  192.4810  176.4390  145.3770 C   0  0  0  0  0  2  0  0  0  0  0  0
  193.6480  175.5180  145.7000 C   0  0  0  0  0  2  0  0  0  0  0  0
  194.6490  177.5240  145.4980 O   0  0  0  0  0  1  0  0  0  0  0  0
  194.9010  176.1960  145.4070 N   0  0  0  0  0  0  0  0  0  0  0  0
  196.1560  174.6890  143.9380 C   0  0  2  0  0  3  0  0  0  0  0  0
  196.4100  176.7910  143.5810 C   0  0  0  0  0  2  0  0  0  0  0  0
  195.2470  175.9130  144.0170 C   0  0  2  0  0  3  0  0  0  0  0  0
  197.3120  175.5740  143.5130 C   0  0  0  0  0  2  0  0  0  0  0  0
  195.7480  173.7620  142.7850 C   0  0  2  0  0  3  0  0  0  0  0  0
  194.4460  171.7580  142.3210 C   0  0  0  0  0  2  0  0  0  0  0  0
  194.4340  174.1710  142.1620 C   0  0  0  0  0  2  0  0  0  0  0  0
  195.5610  172.3060  143.2070 C   0  0  1  0  0  0  0  0  0  0  0  0
  196.7430  171.6010  142.9790 O   0  0  0  0  0  1  0  0  0  0  0  0
  193.9270  172.9160  141.4870 C   0  0  0  0  0  2  0  0  0  0  0  0
  195.1880  172.2170  144.5880 O   0  0  0  0  0  0  0  0  0  0  0  0
  195.3650  171.0890  145.4000 C   0  0  0  0  0  0  0  0  0  0  0  0
  194.5750  169.0070  146.3790 C   0  0  0  0  0  3  0  0  0  0  0  0
  196.7990  169.8150  146.8870 C   0  0  0  0  0  3  0  0  0  0  0  0
  195.7950  168.8550  147.0420 C   0  0  0  0  0  3  0  0  0  0  0  0
  196.5840  170.9270  146.0670 C   0  0  0  0  0  3  0  0  0  0  0  0
  194.3600  170.1200  145.5600 C   0  0  0  0  0  3  0  0  0  0  0  0
  1 14  1  1  0  0  0
  1  3  1  0  0  0  0
  1 23  1  0  0  0  0
  2  6  1  0  0  0  0
  2  8  1  0  0  0  0
  3 12  1  0  0  0  0
  4  8  2  0  0  0  0
  4 13  1  0  0  0  0
  5  2  2  0  0  0  0
  7  4  1  0  0  0  0
  9  5  1  0  0  0  0
  9  7  2  0  0  0  0
 10 11  1  0  0  0  0
 11  7  1  0  0  0  0
 11  3  2  0  0  0  0
 12 13  2  0  0  0  0
 15 18  1  0  0  0  0
 16 15  2  0  0  0  0
 16 20  1  0  0  0  0
 17 19  1  0  0  0  0
 18 19  2  0  0  0  0
 19 14  1  0  0  0  0
 20 17  2  0  0  0  0
 21 16  1  0  0  0  0
 22 21  1  0  0  0  0
 23 24  1  0  0  0  0
 26 25  1  0  0  0  0
 26 24  1  0  0  0  0
 27 30  1  6  0  0  0
 27 29  1  0  0  0  0
 28 29  1  0  0  0  0
 29 26  1  1  0  0  0
 30 28  1  0  0  0  0
 31 33  1  1  0  0  0
 31 34  1  0  0  0  0
 31 27  1  0  0  0  0
 32 34  1  0  0  0  0
 34 35  1  6  0  0  0
 34 37  1  0  0  0  0
 36 33  1  0  0  0  0
 36 32  1  0  0  0  0
 37 38  1  0  0  0  0
 38 43  2  0  0  0  0
 38 42  1  0  0  0  0
 39 41  2  0  0  0  0
 40 41  1  0  0  0  0
 42 40  2  0  0  0  0
 43 39  1  0  0  0  0
M  END
>  <MODEL>
7

>  <REMARK>
 VINA RESULT:      -6.8      2.071      6.949
  Name = 
  11 active torsions:
  status: ('A' for Active; 'I' for Inactive)
    1  A    between atoms: C_1  and  C_34
    2  A    between atoms: C_1  and  C_35
    3  A    between atoms: C_3  and  C_4
    4  A    between atoms: N_6  and  C_12
    5  A    between atoms: N_6  and  C_13
    6  A    between atoms: C_8  and  C_34
    7  A    between atoms: C_11  and  O_14
    8  A    between atoms: C_13  and  C_38
    9  A    between atoms: O_14  and  C_22
   10  A    between atoms: C_19  and  O_25
   11  A    between atoms: C_34  and  C_38
                            x       y       z     vdW  Elec       q    Type
                         _______ _______ _______ _____ _____    ______ ____

>  <TORSDO>
F 11

$$$$
=
 OpenBabel11052421023D

 43 48  0  0  1  0  0  0  0  0999 V2000
  190.2480  173.5220  143.3970 C   0  0  2  0  0  3  0  0  0  0  0  0
  196.4390  175.5160  143.1970 C   0  0  0  0  0  0  0  0  0  0  0  0
  191.5790  174.2110  143.2640 C   0  0  0  0  0  0  0  0  0  0  0  0
  194.0210  175.5350  143.1150 C   0  0  0  0  0  0  0  0  0  0  0  0
  196.4230  174.1360  143.4200 C   0  0  0  0  0  3  0  0  0  0  0  0
  197.6810  176.2080  143.1170 N   0  0  0  0  0  1  0  0  0  0  0  0
  193.9980  174.1430  143.3470 C   0  0  0  0  0  0  0  0  0  0  0  0
  195.2400  176.2150  143.0430 C   0  0  0  0  0  3  0  0  0  0  0  0
  195.2070  173.4500  143.4940 C   0  0  0  0  0  3  0  0  0  0  0  0
  192.7200  172.1080  143.6790 O   0  0  0  0  0  1  0  0  0  0  0  0
  192.7670  173.4780  143.4280 C   0  0  0  0  0  0  0  0  0  0  0  0
  191.6380  175.5530  143.0450 N   0  0  0  0  0  0  0  0  0  0  0  0
  192.8180  176.2220  142.9630 C   0  0  0  0  0  3  0  0  0  0  0  0
  189.2070  173.8870  142.3270 C   0  0  0  0  0  2  0  0  0  0  0  0
  188.6400  172.6940  138.7660 C   0  0  0  0  0  3  0  0  0  0  0  0
  189.5590  171.6340  138.6770 C   0  0  0  0  0  0  0  0  0  0  0  0
  190.2490  172.0660  140.9630 C   0  0  0  0  0  3  0  0  0  0  0  0
  188.5270  173.4310  139.9480 C   0  0  0  0  0  3  0  0  0  0  0  0
  189.3280  173.1140  141.0510 C   0  0  0  0  0  0  0  0  0  0  0  0
  190.3640  171.3290  139.7800 C   0  0  0  0  0  3  0  0  0  0  0  0
  189.6940  170.8750  137.5120 O   0  0  0  0  0  0  0  0  0  0  0  0
  189.8020  171.4600  136.2190 C   0  0  0  0  0  1  0  0  0  0  0  0
  189.7320  173.4270  144.8370 C   0  0  0  0  0  2  0  0  0  0  0  0
  188.9550  174.6660  145.2580 C   0  0  0  0  0  2  0  0  0  0  0  0
  188.9570  174.6240  147.5080 O   0  0  0  0  0  1  0  0  0  0  0  0
  189.5530  175.2340  146.4560 N   0  0  0  0  0  0  0  0  0  0  0  0
  188.1370  176.9610  145.4460 C   0  0  2  0  0  3  0  0  0  0  0  0
  190.2010  177.4770  145.7360 C   0  0  0  0  0  2  0  0  0  0  0  0
  189.1870  176.6470  146.5090 C   0  0  2  0  0  3  0  0  0  0  0  0
  189.1580  177.7790  144.6780 C   0  0  0  0  0  2  0  0  0  0  0  0
  187.0360  177.8750  145.9990 C   0  0  2  0  0  3  0  0  0  0  0  0
  184.6490  178.3130  145.8080 C   0  0  0  0  0  2  0  0  0  0  0  0
  186.3340  177.2660  147.1910 C   0  0  0  0  0  2  0  0  0  0  0  0
  185.9300  178.1820  144.9910 C   0  0  1  0  0  0  0  0  0  0  0  0
  186.2120  179.3860  144.3450 O   0  0  0  0  0  1  0  0  0  0  0  0
  184.9980  177.9730  147.2460 C   0  0  0  0  0  2  0  0  0  0  0  0
  185.8040  177.1230  144.0330 O   0  0  0  0  0  0  0  0  0  0  0  0
  185.8570  177.2820  142.6420 C   0  0  0  0  0  0  0  0  0  0  0  0
  184.9230  178.0660  140.5380 C   0  0  0  0  0  3  0  0  0  0  0  0
  187.0590  176.9280  140.5630 C   0  0  0  0  0  3  0  0  0  0  0  0
  186.0360  177.5680  139.8570 C   0  0  0  0  0  3  0  0  0  0  0  0
  186.9690  176.7880  141.9520 C   0  0  0  0  0  3  0  0  0  0  0  0
  184.8330  177.9260  141.9260 C   0  0  0  0  0  3  0  0  0  0  0  0
  1 14  1  6  0  0  0
  1 23  1  0  0  0  0
  2  5  1  0  0  0  0
  3  1  1  0  0  0  0
  3 11  1  0  0  0  0
  4  7  1  0  0  0  0
  5  9  2  0  0  0  0
  6  2  1  0  0  0  0
  7 11  2  0  0  0  0
  7  9  1  0  0  0  0
  8  4  1  0  0  0  0
  8  2  2  0  0  0  0
 11 10  1  0  0  0  0
 12  3  2  0  0  0  0
 13 12  1  0  0  0  0
 13  4  2  0  0  0  0
 15 18  1  0  0  0  0
 16 15  2  0  0  0  0
 16 20  1  0  0  0  0
 17 19  1  0  0  0  0
 18 19  2  0  0  0  0
 19 14  1  0  0  0  0
 20 17  2  0  0  0  0
 21 16  1  0  0  0  0
 22 21  1  0  0  0  0
 23 24  1  0  0  0  0
 24 26  1  0  0  0  0
 26 25  1  0  0  0  0
 27 30  1  6  0  0  0
 27 31  1  0  0  0  0
 27 29  1  0  0  0  0
 28 29  1  0  0  0  0
 29 26  1  6  0  0  0
 30 28  1  0  0  0  0
 31 33  1  1  0  0  0
 32 36  1  0  0  0  0
 33 36  1  0  0  0  0
 34 35  1  6  0  0  0
 34 32  1  0  0  0  0
 34 31  1  0  0  0  0
 37 34  1  0  0  0  0
 38 37  1  0  0  0  0
 39 43  1  0  0  0  0
 40 42  2  0  0  0  0
 41 39  2  0  0  0  0
 41 40  1  0  0  0  0
 42 38  1  0  0  0  0
 43 38  2  0  0  0  0
M  END
>  <MODEL>
8

>  <REMARK>
 VINA RESULT:      -6.7      2.395      7.070
  Name = 
  11 active torsions:
  status: ('A' for Active; 'I' for Inactive)
    1  A    between atoms: C_1  and  C_34
    2  A    between atoms: C_1  and  C_35
    3  A    between atoms: C_3  and  C_4
    4  A    between atoms: N_6  and  C_12
    5  A    between atoms: N_6  and  C_13
    6  A    between atoms: C_8  and  C_34
    7  A    between atoms: C_11  and  O_14
    8  A    between atoms: C_13  and  C_38
    9  A    between atoms: O_14  and  C_22
   10  A    between atoms: C_19  and  O_25
   11  A    between atoms: C_34  and  C_38
                            x       y       z     vdW  Elec       q    Type
                         _______ _______ _______ _____ _____    ______ ____

>  <TORSDO>
F 11

$$$$
=
 OpenBabel11052421023D

 43 48  0  0  1  0  0  0  0  0999 V2000
  190.0390  174.4170  143.1180 C   0  0  2  0  0  3  0  0  0  0  0  0
  190.6030  169.8010  138.5660 C   0  0  0  0  0  0  0  0  0  0  0  0
  190.3730  173.2650  142.2100 C   0  0  0  0  0  0  0  0  0  0  0  0
  190.9370  171.0670  140.6010 C   0  0  0  0  0  0  0  0  0  0  0  0
  189.6910  170.7600  138.1160 C   0  0  0  0  0  3  0  0  0  0  0  0
  190.9040  168.6700  137.7540 N   0  0  0  0  0  1  0  0  0  0  0  0
  190.0120  172.0350  140.1560 C   0  0  0  0  0  0  0  0  0  0  0  0
  191.2270  169.9540  139.8060 C   0  0  0  0  0  3  0  0  0  0  0  0
  189.3950  171.8740  138.9080 C   0  0  0  0  0  3  0  0  0  0  0  0
  188.7960  174.0950  140.5600 O   0  0  0  0  0  1  0  0  0  0  0  0
  189.7230  173.1380  140.9700 C   0  0  0  0  0  0  0  0  0  0  0  0
  191.2570  172.3100  142.6100 N   0  0  0  0  0  0  0  0  0  0  0  0
  191.5540  171.2310  141.8400 C   0  0  0  0  0  3  0  0  0  0  0  0
  190.6720  175.7640  142.7350 C   0  0  0  0  0  2  0  0  0  0  0  0
  194.4440  175.5830  142.3250 C   0  0  0  0  0  3  0  0  0  0  0  0
  194.8830  176.0410  143.5800 C   0  0  0  0  0  0  0  0  0  0  0  0
  192.5730  176.3270  144.2640 C   0  0  0  0  0  3  0  0  0  0  0  0
  193.0770  175.4980  142.0460 C   0  0  0  0  0  3  0  0  0  0  0  0
  192.1390  175.8640  143.0170 C   0  0  0  0  0  0  0  0  0  0  0  0
  193.9400  176.4150  144.5430 C   0  0  0  0  0  3  0  0  0  0  0  0
  196.2410  176.1350  143.8920 O   0  0  0  0  0  0  0  0  0  0  0  0
  197.2570  175.5140  143.1100 C   0  0  0  0  0  1  0  0  0  0  0  0
  190.0510  174.0640  144.6100 C   0  0  0  0  0  2  0  0  0  0  0  0
  188.9410  174.7640  145.3810 C   0  0  0  0  0  2  0  0  0  0  0  0
  188.8250  174.5410  147.6170 O   0  0  0  0  0  1  0  0  0  0  0  0
  189.4590  175.2480  146.6510 N   0  0  0  0  0  0  0  0  0  0  0  0
  188.0470  177.0150  145.7080 C   0  0  2  0  0  3  0  0  0  0  0  0
  190.0790  177.5560  146.1440 C   0  0  0  0  0  2  0  0  0  0  0  0
  189.0510  176.6430  146.7960 C   0  0  2  0  0  3  0  0  0  0  0  0
  189.0810  177.9160  145.0600 C   0  0  0  0  0  2  0  0  0  0  0  0
  186.8950  177.8560  146.2730 C   0  0  2  0  0  3  0  0  0  0  0  0
  184.4940  178.1940  146.0480 C   0  0  0  0  0  2  0  0  0  0  0  0
  186.1970  177.1680  147.4240 C   0  0  0  0  0  2  0  0  0  0  0  0
  185.7960  178.1540  145.2550 C   0  0  1  0  0  0  0  0  0  0  0  0
  186.0360  179.3960  144.6640 O   0  0  0  0  0  1  0  0  0  0  0  0
  184.8300  177.8110  147.4780 C   0  0  0  0  0  2  0  0  0  0  0  0
  185.7370  177.1310  144.2530 O   0  0  0  0  0  0  0  0  0  0  0  0
  185.8310  177.3480  142.8720 C   0  0  0  0  0  0  0  0  0  0  0  0
  187.0280  177.2250  140.7580 C   0  0  0  0  0  3  0  0  0  0  0  0
  184.7990  178.1660  140.8320 C   0  0  0  0  0  3  0  0  0  0  0  0
  185.9410  177.8110  140.1060 C   0  0  0  0  0  3  0  0  0  0  0  0
  184.7450  177.9330  142.2090 C   0  0  0  0  0  3  0  0  0  0  0  0
  186.9740  176.9930  142.1360 C   0  0  0  0  0  3  0  0  0  0  0  0
  1 14  1  1  0  0  0
  1 23  1  0  0  0  0
  2  8  1  0  0  0  0
  3 12  1  0  0  0  0
  3  1  1  0  0  0  0
  4 13  1  0  0  0  0
  5  2  2  0  0  0  0
  5  9  1  0  0  0  0
  6  2  1  0  0  0  0
  7  4  1  0  0  0  0
  7 11  1  0  0  0  0
  8  4  2  0  0  0  0
  9  7  2  0  0  0  0
 10 11  1  0  0  0  0
 11  3  2  0  0  0  0
 13 12  2  0  0  0  0
 14 19  1  0  0  0  0
 15 16  1  0  0  0  0
 16 21  1  0  0  0  0
 16 20  2  0  0  0  0
 17 20  1  0  0  0  0
 18 15  2  0  0  0  0
 18 19  1  0  0  0  0
 19 17  2  0  0  0  0
 22 21  1  0  0  0  0
 23 24  1  0  0  0  0
 24 26  1  0  0  0  0
 26 25  1  0  0  0  0
 27 30  1  6  0  0  0
 27 31  1  0  0  0  0
 27 29  1  0  0  0  0
 28 29  1  0  0  0  0
 29 26  1  6  0  0  0
 30 28  1  0  0  0  0
 31 33  1  1  0  0  0
 32 36  1  0  0  0  0
 33 36  1  0  0  0  0
 34 35  1  6  0  0  0
 34 32  1  0  0  0  0
 34 31  1  0  0  0  0
 37 34  1  0  0  0  0
 38 37  1  0  0  0  0
 39 43  1  0  0  0  0
 40 42  2  0  0  0  0
 41 39  2  0  0  0  0
 41 40  1  0  0  0  0
 42 38  1  0  0  0  0
 43 38  2  0  0  0  0
M  END
>  <MODEL>
9

>  <REMARK>
 VINA RESULT:      -6.7      2.589      6.749
  Name = 
  11 active torsions:
  status: ('A' for Active; 'I' for Inactive)
    1  A    between atoms: C_1  and  C_34
    2  A    between atoms: C_1  and  C_35
    3  A    between atoms: C_3  and  C_4
    4  A    between atoms: N_6  and  C_12
    5  A    between atoms: N_6  and  C_13
    6  A    between atoms: C_8  and  C_34
    7  A    between atoms: C_11  and  O_14
    8  A    between atoms: C_13  and  C_38
    9  A    between atoms: O_14  and  C_22
   10  A    between atoms: C_19  and  O_25
   11  A    between atoms: C_34  and  C_38
                            x       y       z     vdW  Elec       q    Type
                         _______ _______ _______ _____ _____    ______ ____

>  <TORSDO>
F 11

$$$$
