=
 OpenBabel11052420323D

 34 39  0  0  0  0  0  0  0  0999 V2000
  188.2260  177.1500  143.5160 C   0  0  0  0  0  3  0  0  0  0  0  0
  184.6190  178.2910  143.6300 C   0  0  0  0  0  0  0  0  0  0  0  0
  184.5070  178.5900  145.0700 C   0  0  0  0  0  0  0  0  0  0  0  0
  189.1800  177.2550  145.7010 N   0  0  0  0  0  0  0  0  0  0  0  0
  187.0040  177.6200  144.0120 C   0  0  0  0  0  0  0  0  0  0  0  0
  188.0140  177.7130  146.2230 C   0  0  0  0  0  0  0  0  0  0  0  0
  186.7270  178.4640  148.1320 C   0  0  0  0  0  3  0  0  0  0  0  0
  187.9240  177.9920  147.5890 C   0  0  0  0  0  3  0  0  0  0  0  0
  189.3180  176.9690  144.3750 C   0  0  0  0  0  0  0  0  0  0  0  0
  185.6830  178.3850  145.9400 C   0  0  0  0  0  0  0  0  0  0  0  0
  186.8920  177.9080  145.3870 C   0  0  0  0  0  0  0  0  0  0  0  0
  185.6130  178.6590  147.3130 C   0  0  0  0  0  3  0  0  0  0  0  0
  183.5220  178.4760  142.7770 C   0  0  0  0  0  3  0  0  0  0  0  0
  183.6300  178.1890  141.4140 C   0  0  0  0  0  0  0  0  0  0  0  0
  184.8420  177.7230  140.8940 C   0  0  0  0  0  3  0  0  0  0  0  0
  183.4230  179.0170  145.5530 O   0  0  0  0  0  0  0  0  0  0  0  0
  185.9400  177.5370  141.7360 C   0  0  0  0  0  3  0  0  0  0  0  0
  185.8410  177.8170  143.1080 C   0  0  0  0  0  0  0  0  0  0  0  0
  191.8910  175.2180  142.1760 C   0  0  0  0  0  3  0  0  0  0  0  0
  191.8050  176.7720  144.5480 C   0  0  0  0  0  3  0  0  0  0  0  0
  195.0720  175.7950  143.6680 C   0  0  0  0  0  0  0  0  0  0  0  0
  194.3590  175.2010  142.6210 C   0  0  0  0  0  3  0  0  0  0  0  0
  193.0450  175.5370  142.8850 C   0  0  0  0  0  0  0  0  0  0  0  0
  194.2420  176.4520  144.5200 N   0  0  0  0  0  0  0  0  0  0  0  0
  193.0050  176.2850  144.0290 C   0  0  0  0  0  0  0  0  0  0  0  0
  194.5960  177.1910  145.7240 C   0  0  0  0  0  1  0  0  0  0  0  0
  190.6110  176.4720  143.8590 C   0  0  0  0  0  0  0  0  0  0  0  0
  190.6660  175.6940  142.6750 C   0  0  0  0  0  3  0  0  0  0  0  0
  196.5380  175.7050  143.8110 C   0  0  0  0  0  0  0  0  0  0  0  0
  197.0600  174.8310  144.5510 O   0  0  0  0  0  0  0  0  0  0  0  0
  197.3790  176.6150  143.1090 N   0  0  0  0  0  1  0  0  0  0  0  0
  182.4660  178.4040  140.5120 C   0  0  0  0  0  2  0  0  0  0  0  0
  181.1710  178.2630  141.2870 C   0  0  0  0  0  2  0  0  0  0  0  0
  180.4490  179.4520  141.2080 O   0  0  0  0  0  1  0  0  0  0  0  0
  1  5  2  0  0  0  0
  1  9  1  0  0  0  0
  2  3  1  0  0  0  0
  3 16  2  0  0  0  0
  3 10  1  0  0  0  0
  4  6  1  0  0  0  0
  5 11  1  0  0  0  0
  6  8  1  0  0  0  0
  8  7  2  0  0  0  0
  9  4  2  0  0  0  0
 10 12  2  0  0  0  0
 11 10  1  0  0  0  0
 11  6  2  0  0  0  0
 12  7  1  0  0  0  0
 13  2  2  0  0  0  0
 14 13  1  0  0  0  0
 15 14  2  0  0  0  0
 15 17  1  0  0  0  0
 17 18  2  0  0  0  0
 18  2  1  0  0  0  0
 18  5  1  0  0  0  0
 19 28  2  0  0  0  0
 19 23  1  0  0  0  0
 21 29  1  0  0  0  0
 21 24  1  0  0  0  0
 22 23  1  0  0  0  0
 22 21  2  0  0  0  0
 23 25  2  0  0  0  0
 24 26  1  0  0  0  0
 25 24  1  0  0  0  0
 25 20  1  0  0  0  0
 27  9  1  0  0  0  0
 27 20  2  0  0  0  0
 28 27  1  0  0  0  0
 29 30  2  0  0  0  0
 31 29  1  0  0  0  0
 32 33  1  0  0  0  0
 32 14  1  0  0  0  0
 34 33  1  0  0  0  0
M  END
>  <MODEL>
1

>  <REMARK>
 VINA RESULT:      -9.1      0.000      0.000
  Name = 
  4 active torsions:
  status: ('A' for Active; 'I' for Inactive)
    1  A    between atoms: C_3  and  C_13
    2  A    between atoms: C_3  and  C_25
    3  A    between atoms: C_7  and  C_11
    4  A    between atoms: C_18  and  C_30
                            x       y       z     vdW  Elec       q    Type
                         _______ _______ _______ _____ _____    ______ ____

>  <TORSDO>
F 4

$$$$
=
 OpenBabel11052420323D

 34 39  0  0  0  0  0  0  0  0999 V2000
  188.9280  177.0530  144.4580 C   0  0  0  0  0  3  0  0  0  0  0  0
  185.7060  177.7940  142.6150 C   0  0  0  0  0  0  0  0  0  0  0  0
  184.8650  178.2000  143.7560 C   0  0  0  0  0  0  0  0  0  0  0  0
  188.6370  177.4470  146.7930 N   0  0  0  0  0  0  0  0  0  0  0  0
  187.6000  177.4250  144.2150 C   0  0  0  0  0  0  0  0  0  0  0  0
  187.3440  177.8160  146.6020 C   0  0  0  0  0  0  0  0  0  0  0  0
  185.2300  178.5790  147.5030 C   0  0  0  0  0  3  0  0  0  0  0  0
  186.5600  178.1980  147.6940 C   0  0  0  0  0  3  0  0  0  0  0  0
  189.4420  177.0660  145.7610 C   0  0  0  0  0  0  0  0  0  0  0  0
  185.4470  178.2000  145.1130 C   0  0  0  0  0  0  0  0  0  0  0  0
  186.7920  177.8150  145.3020 C   0  0  0  0  0  0  0  0  0  0  0  0
  184.6760  178.5800  146.2210 C   0  0  0  0  0  3  0  0  0  0  0  0
  185.1850  177.7840  141.3140 C   0  0  0  0  0  3  0  0  0  0  0  0
  185.9840  177.3960  140.2350 C   0  0  0  0  0  0  0  0  0  0  0  0
  187.3150  177.0250  140.4510 C   0  0  0  0  0  3  0  0  0  0  0  0
  183.6640  178.5440  143.5760 O   0  0  0  0  0  0  0  0  0  0  0  0
  187.8430  177.0320  141.7440 C   0  0  0  0  0  3  0  0  0  0  0  0
  187.0470  177.4150  142.8350 C   0  0  0  0  0  0  0  0  0  0  0  0
  192.6840  176.2890  147.6080 C   0  0  0  0  0  3  0  0  0  0  0  0
  191.6830  176.3050  144.9530 C   0  0  0  0  0  3  0  0  0  0  0  0
  195.0560  175.3100  145.1390 C   0  0  0  0  0  0  0  0  0  0  0  0
  194.8020  175.5330  146.4970 C   0  0  0  0  0  3  0  0  0  0  0  0
  193.4790  175.9330  146.5230 C   0  0  0  0  0  0  0  0  0  0  0  0
  193.9550  175.5610  144.3830 N   0  0  0  0  0  0  0  0  0  0  0  0
  192.9980  175.9410  145.2430 C   0  0  0  0  0  0  0  0  0  0  0  0
  193.8170  175.4480  142.9380 C   0  0  0  0  0  1  0  0  0  0  0  0
  190.8430  176.6730  146.0250 C   0  0  0  0  0  0  0  0  0  0  0  0
  191.3540  176.6620  147.3480 C   0  0  0  0  0  3  0  0  0  0  0  0
  196.3620  174.8630  144.6170 C   0  0  0  0  0  0  0  0  0  0  0  0
  197.0600  175.6210  143.8950 O   0  0  0  0  0  0  0  0  0  0  0  0
  196.8430  173.5580  144.9260 N   0  0  0  0  0  1  0  0  0  0  0  0
  185.4280  177.4040  138.8540 C   0  0  0  0  0  2  0  0  0  0  0  0
  186.3440  176.6430  137.9160 C   0  0  0  0  0  2  0  0  0  0  0  0
  185.5790  175.9210  137.0030 O   0  0  0  0  0  1  0  0  0  0  0  0
  1  9  1  0  0  0  0
  2 18  1  0  0  0  0
  2  3  1  0  0  0  0
  3 10  1  0  0  0  0
  5  1  2  0  0  0  0
  5 11  1  0  0  0  0
  6  4  1  0  0  0  0
  6  8  1  0  0  0  0
  7  8  2  0  0  0  0
  9 27  1  0  0  0  0
  9  4  2  0  0  0  0
 10 11  1  0  0  0  0
 10 12  2  0  0  0  0
 11  6  2  0  0  0  0
 12  7  1  0  0  0  0
 13  2  2  0  0  0  0
 14 15  2  0  0  0  0
 14 13  1  0  0  0  0
 15 17  1  0  0  0  0
 16  3  2  0  0  0  0
 17 18  2  0  0  0  0
 18  5  1  0  0  0  0
 20 25  2  0  0  0  0
 20 27  1  0  0  0  0
 21 22  2  0  0  0  0
 22 23  1  0  0  0  0
 23 19  2  0  0  0  0
 24 21  1  0  0  0  0
 24 25  1  0  0  0  0
 25 23  1  0  0  0  0
 26 24  1  0  0  0  0
 27 28  2  0  0  0  0
 28 19  1  0  0  0  0
 29 31  1  0  0  0  0
 29 21  1  0  0  0  0
 30 29  2  0  0  0  0
 32 14  1  0  0  0  0
 33 32  1  0  0  0  0
 34 33  1  0  0  0  0
M  END
>  <MODEL>
2

>  <REMARK>
 VINA RESULT:      -8.5      2.050      2.856
  Name = 
  4 active torsions:
  status: ('A' for Active; 'I' for Inactive)
    1  A    between atoms: C_3  and  C_13
    2  A    between atoms: C_3  and  C_25
    3  A    between atoms: C_7  and  C_11
    4  A    between atoms: C_18  and  C_30
                            x       y       z     vdW  Elec       q    Type
                         _______ _______ _______ _____ _____    ______ ____

>  <TORSDO>
F 4

$$$$
=
 OpenBabel11052420323D

 34 39  0  0  0  0  0  0  0  0999 V2000
  191.9880  176.7480  143.0790 C   0  0  0  0  0  3  0  0  0  0  0  0
  188.5160  177.4800  144.3950 C   0  0  0  0  0  0  0  0  0  0  0  0
  188.7290  177.1710  145.8210 C   0  0  0  0  0  0  0  0  0  0  0  0
  193.4020  176.0430  144.8670 N   0  0  0  0  0  0  0  0  0  0  0  0
  190.9140  176.8900  143.9660 C   0  0  0  0  0  0  0  0  0  0  0  0
  192.3880  176.1680  145.7610 C   0  0  0  0  0  0  0  0  0  0  0  0
  191.5670  175.9990  148.0330 C   0  0  0  0  0  3  0  0  0  0  0  0
  192.6070  175.8720  147.1090 C   0  0  0  0  0  3  0  0  0  0  0  0
  193.2390  176.3200  143.5430 C   0  0  0  0  0  0  0  0  0  0  0  0
  190.0640  176.7230  146.2670 C   0  0  0  0  0  0  0  0  0  0  0  0
  191.1130  176.5970  145.3300 C   0  0  0  0  0  0  0  0  0  0  0  0
  190.3030  176.4210  147.6150 C   0  0  0  0  0  3  0  0  0  0  0  0
  187.2610  177.9080  143.9390 C   0  0  0  0  0  3  0  0  0  0  0  0
  187.0610  178.1960  142.5860 C   0  0  0  0  0  0  0  0  0  0  0  0
  188.1200  178.0680  141.6820 C   0  0  0  0  0  3  0  0  0  0  0  0
  187.7850  177.2890  146.6500 O   0  0  0  0  0  0  0  0  0  0  0  0
  189.3740  177.6420  142.1270 C   0  0  0  0  0  3  0  0  0  0  0  0
  189.5840  177.3440  143.4830 C   0  0  0  0  0  0  0  0  0  0  0  0
  196.7930  176.2720  142.1680 C   0  0  0  0  0  3  0  0  0  0  0  0
  194.1470  175.7700  141.2780 C   0  0  0  0  0  3  0  0  0  0  0  0
  196.5550  175.2900  138.7530 C   0  0  0  0  0  0  0  0  0  0  0  0
  197.3930  175.6670  139.8090 C   0  0  0  0  0  3  0  0  0  0  0  0
  196.5220  175.8790  140.8610 C   0  0  0  0  0  0  0  0  0  0  0  0
  195.2520  175.2750  139.1390 N   0  0  0  0  0  0  0  0  0  0  0  0
  195.2470  175.6370  140.4310 C   0  0  0  0  0  0  0  0  0  0  0  0
  194.0840  174.9390  138.3370 C   0  0  0  0  0  1  0  0  0  0  0  0
  194.3780  176.1670  142.6120 C   0  0  0  0  0  0  0  0  0  0  0  0
  195.7050  176.4160  143.0460 C   0  0  0  0  0  3  0  0  0  0  0  0
  197.0450  174.9580  137.4020 C   0  0  0  0  0  0  0  0  0  0  0  0
  197.3910  173.7830  137.1140 O   0  0  0  0  0  0  0  0  0  0  0  0
  197.1310  175.9730  136.4060 N   0  0  0  0  0  1  0  0  0  0  0  0
  185.7300  178.6670  142.1130 C   0  0  0  0  0  2  0  0  0  0  0  0
  184.6280  178.0270  142.9320 C   0  0  0  0  0  2  0  0  0  0  0  0
  183.3950  178.2900  142.3390 O   0  0  0  0  0  1  0  0  0  0  0  0
  1  9  2  0  0  0  0
  1  5  1  0  0  0  0
  2  3  1  0  0  0  0
  3 10  1  0  0  0  0
  3 16  2  0  0  0  0
  4  6  2  0  0  0  0
  5 11  2  0  0  0  0
  6  8  1  0  0  0  0
  8  7  2  0  0  0  0
  9  4  1  0  0  0  0
 10 12  2  0  0  0  0
 11  6  1  0  0  0  0
 11 10  1  0  0  0  0
 12  7  1  0  0  0  0
 13  2  1  0  0  0  0
 14 13  2  0  0  0  0
 15 17  2  0  0  0  0
 15 14  1  0  0  0  0
 17 18  1  0  0  0  0
 18  5  1  0  0  0  0
 18  2  2  0  0  0  0
 19 28  1  0  0  0  0
 20 27  1  0  0  0  0
 21 24  1  0  0  0  0
 21 22  2  0  0  0  0
 22 23  1  0  0  0  0
 23 19  2  0  0  0  0
 24 25  1  0  0  0  0
 25 23  1  0  0  0  0
 25 20  2  0  0  0  0
 26 24  1  0  0  0  0
 27 28  2  0  0  0  0
 27  9  1  0  0  0  0
 29 21  1  0  0  0  0
 30 29  2  0  0  0  0
 31 29  1  0  0  0  0
 32 14  1  0  0  0  0
 32 33  1  0  0  0  0
 34 33  1  0  0  0  0
M  END
>  <MODEL>
3

>  <REMARK>
 VINA RESULT:      -8.4      3.084      4.781
  Name = 
  4 active torsions:
  status: ('A' for Active; 'I' for Inactive)
    1  A    between atoms: C_3  and  C_13
    2  A    between atoms: C_3  and  C_25
    3  A    between atoms: C_7  and  C_11
    4  A    between atoms: C_18  and  C_30
                            x       y       z     vdW  Elec       q    Type
                         _______ _______ _______ _____ _____    ______ ____

>  <TORSDO>
F 4

$$$$
=
 OpenBabel11052420323D

 34 39  0  0  0  0  0  0  0  0999 V2000
  191.0840  174.5950  144.6480 C   0  0  0  0  0  3  0  0  0  0  0  0
  187.7310  176.3130  144.2800 C   0  0  0  0  0  0  0  0  0  0  0  0
  187.4380  175.9680  142.8760 C   0  0  0  0  0  0  0  0  0  0  0  0
  191.6780  173.5280  142.5980 N   0  0  0  0  0  0  0  0  0  0  0  0
  189.8880  175.0510  144.0800 C   0  0  0  0  0  0  0  0  0  0  0  0
  190.5300  173.9490  142.0080 C   0  0  0  0  0  0  0  0  0  0  0  0
  189.0870  174.0440  140.0660 C   0  0  0  0  0  3  0  0  0  0  0  0
  190.2670  173.6140  140.6780 C   0  0  0  0  0  3  0  0  0  0  0  0
  191.9810  173.8280  143.8920 C   0  0  0  0  0  0  0  0  0  0  0  0
  188.4110  175.1580  142.1170 C   0  0  0  0  0  0  0  0  0  0  0  0
  189.6020  174.7240  142.7390 C   0  0  0  0  0  0  0  0  0  0  0  0
  188.1640  174.8120  140.7810 C   0  0  0  0  0  3  0  0  0  0  0  0
  186.8280  177.0800  145.0290 C   0  0  0  0  0  3  0  0  0  0  0  0
  187.1110  177.4070  146.3580 C   0  0  0  0  0  0  0  0  0  0  0  0
  188.2960  176.9590  146.9490 C   0  0  0  0  0  3  0  0  0  0  0  0
  186.3690  176.3600  142.3310 O   0  0  0  0  0  0  0  0  0  0  0  0
  189.2020  176.1940  146.2110 C   0  0  0  0  0  3  0  0  0  0  0  0
  188.9300  175.8640  144.8740 C   0  0  0  0  0  0  0  0  0  0  0  0
  195.4960  173.7990  145.3660 C   0  0  0  0  0  3  0  0  0  0  0  0
  193.4220  171.9670  144.7400 C   0  0  0  0  0  3  0  0  0  0  0  0
  196.2550  170.4050  146.1310 C   0  0  0  0  0  0  0  0  0  0  0  0
  196.6920  171.7340  146.1380 C   0  0  0  0  0  3  0  0  0  0  0  0
  195.6280  172.4340  145.6010 C   0  0  0  0  0  0  0  0  0  0  0  0
  195.0000  170.3010  145.6200 N   0  0  0  0  0  0  0  0  0  0  0  0
  194.6290  171.5500  145.3000 C   0  0  0  0  0  0  0  0  0  0  0  0
  194.2010  169.0960  145.4440 C   0  0  0  0  0  1  0  0  0  0  0  0
  193.2460  173.3440  144.4850 C   0  0  0  0  0  0  0  0  0  0  0  0
  194.2900  174.2500  144.8010 C   0  0  0  0  0  3  0  0  0  0  0  0
  197.0690  169.2760  146.6200 C   0  0  0  0  0  0  0  0  0  0  0  0
  197.0050  168.9090  147.8220 O   0  0  0  0  0  0  0  0  0  0  0  0
  197.9410  168.5890  145.7280 N   0  0  0  0  0  1  0  0  0  0  0  0
  186.1390  178.2080  147.1520 C   0  0  0  0  0  2  0  0  0  0  0  0
  185.2840  179.0560  146.2300 C   0  0  0  0  0  2  0  0  0  0  0  0
  183.9860  178.5500  146.2050 O   0  0  0  0  0  1  0  0  0  0  0  0
  2 18  2  0  0  0  0
  2 13  1  0  0  0  0
  3  2  1  0  0  0  0
  4  9  1  0  0  0  0
  5  1  1  0  0  0  0
  5 18  1  0  0  0  0
  6  4  2  0  0  0  0
  6 11  1  0  0  0  0
  7  8  2  0  0  0  0
  7 12  1  0  0  0  0
  8  6  1  0  0  0  0
  9 27  1  0  0  0  0
  9  1  2  0  0  0  0
 10 11  1  0  0  0  0
 10  3  1  0  0  0  0
 11  5  2  0  0  0  0
 12 10  2  0  0  0  0
 13 14  2  0  0  0  0
 14 15  1  0  0  0  0
 14 32  1  0  0  0  0
 16  3  2  0  0  0  0
 17 15  2  0  0  0  0
 18 17  1  0  0  0  0
 19 23  1  0  0  0  0
 20 25  1  0  0  0  0
 21 22  2  0  0  0  0
 21 29  1  0  0  0  0
 23 22  1  0  0  0  0
 24 21  1  0  0  0  0
 25 23  2  0  0  0  0
 25 24  1  0  0  0  0
 26 24  1  0  0  0  0
 27 20  2  0  0  0  0
 27 28  1  0  0  0  0
 28 19  2  0  0  0  0
 29 30  2  0  0  0  0
 31 29  1  0  0  0  0
 33 32  1  0  0  0  0
 34 33  1  0  0  0  0
M  END
>  <MODEL>
4

>  <REMARK>
 VINA RESULT:      -8.2      3.792      6.010
  Name = 
  4 active torsions:
  status: ('A' for Active; 'I' for Inactive)
    1  A    between atoms: C_3  and  C_13
    2  A    between atoms: C_3  and  C_25
    3  A    between atoms: C_7  and  C_11
    4  A    between atoms: C_18  and  C_30
                            x       y       z     vdW  Elec       q    Type
                         _______ _______ _______ _____ _____    ______ ____

>  <TORSDO>
F 4

$$$$
=
 OpenBabel11052420323D

 34 39  0  0  0  0  0  0  0  0999 V2000
  188.4040  177.2920  143.7420 C   0  0  0  0  0  3  0  0  0  0  0  0
  184.7590  178.3140  143.7020 C   0  0  0  0  0  0  0  0  0  0  0  0
  184.5860  178.6390  145.1310 C   0  0  0  0  0  0  0  0  0  0  0  0
  189.2730  177.4730  145.9570 N   0  0  0  0  0  0  0  0  0  0  0  0
  187.1500  177.7310  144.1840 C   0  0  0  0  0  0  0  0  0  0  0  0
  188.0740  177.9030  146.4270 C   0  0  0  0  0  0  0  0  0  0  0  0
  186.6950  178.6490  148.2720 C   0  0  0  0  0  3  0  0  0  0  0  0
  187.9260  178.2060  147.7830 C   0  0  0  0  0  3  0  0  0  0  0  0
  189.4690  177.1640  144.6440 C   0  0  0  0  0  0  0  0  0  0  0  0
  185.7350  178.4900  146.0460 C   0  0  0  0  0  0  0  0  0  0  0  0
  186.9780  178.0430  145.5480 C   0  0  0  0  0  0  0  0  0  0  0  0
  185.6050  178.7900  147.4090 C   0  0  0  0  0  3  0  0  0  0  0  0
  183.6890  178.4450  142.8070 C   0  0  0  0  0  3  0  0  0  0  0  0
  183.8560  178.1330  141.4550 C   0  0  0  0  0  0  0  0  0  0  0  0
  185.1010  177.6980  140.9880 C   0  0  0  0  0  3  0  0  0  0  0  0
  183.4710  179.0390  145.5650 O   0  0  0  0  0  0  0  0  0  0  0  0
  186.1730  177.5650  141.8730 C   0  0  0  0  0  3  0  0  0  0  0  0
  186.0140  177.8700  143.2340 C   0  0  0  0  0  0  0  0  0  0  0  0
  193.2460  176.7370  144.3730 C   0  0  0  0  0  3  0  0  0  0  0  0
  190.8880  175.7790  143.1200 C   0  0  0  0  0  3  0  0  0  0  0  0
  193.8260  174.4260  141.7270 C   0  0  0  0  0  0  0  0  0  0  0  0
  194.3880  175.2460  142.7110 C   0  0  0  0  0  3  0  0  0  0  0  0
  193.2930  175.8280  143.3210 C   0  0  0  0  0  0  0  0  0  0  0  0
  192.4690  174.5040  141.7360 N   0  0  0  0  0  0  0  0  0  0  0  0
  192.1570  175.3650  142.7160 C   0  0  0  0  0  0  0  0  0  0  0  0
  191.5260  173.8080  140.8710 C   0  0  0  0  0  1  0  0  0  0  0  0
  190.7950  176.7000  144.1850 C   0  0  0  0  0  0  0  0  0  0  0  0
  191.9800  177.1730  144.8030 C   0  0  0  0  0  3  0  0  0  0  0  0
  194.6230  173.5930  140.8060 C   0  0  0  0  0  0  0  0  0  0  0  0
  195.0650  172.4730  141.1720 O   0  0  0  0  0  0  0  0  0  0  0  0
  194.9000  174.0540  139.4870 N   0  0  0  0  0  1  0  0  0  0  0  0
  182.7190  178.2910  140.5070 C   0  0  0  0  0  2  0  0  0  0  0  0
  181.4060  178.3110  141.2650 C   0  0  0  0  0  2  0  0  0  0  0  0
  180.6890  179.4560  140.9220 O   0  0  0  0  0  1  0  0  0  0  0  0
  1  5  2  0  0  0  0
  1  9  1  0  0  0  0
  2  3  1  0  0  0  0
  3 16  2  0  0  0  0
  3 10  1  0  0  0  0
  4  6  1  0  0  0  0
  5 11  1  0  0  0  0
  6  8  1  0  0  0  0
  8  7  2  0  0  0  0
  9  4  2  0  0  0  0
 10 12  2  0  0  0  0
 11 10  1  0  0  0  0
 11  6  2  0  0  0  0
 12  7  1  0  0  0  0
 13  2  2  0  0  0  0
 14 13  1  0  0  0  0
 15 14  2  0  0  0  0
 15 17  1  0  0  0  0
 17 18  2  0  0  0  0
 18  2  1  0  0  0  0
 18  5  1  0  0  0  0
 19 28  1  0  0  0  0
 20 27  1  0  0  0  0
 21 24  1  0  0  0  0
 21 22  2  0  0  0  0
 22 23  1  0  0  0  0
 23 19  2  0  0  0  0
 24 25  1  0  0  0  0
 25 20  2  0  0  0  0
 25 23  1  0  0  0  0
 26 24  1  0  0  0  0
 27  9  1  0  0  0  0
 27 28  2  0  0  0  0
 29 30  2  0  0  0  0
 29 21  1  0  0  0  0
 31 29  1  0  0  0  0
 32 33  1  0  0  0  0
 32 14  1  0  0  0  0
 34 33  1  0  0  0  0
M  END
>  <MODEL>
5

>  <REMARK>
 VINA RESULT:      -8.1      1.497      2.147
  Name = 
  4 active torsions:
  status: ('A' for Active; 'I' for Inactive)
    1  A    between atoms: C_3  and  C_13
    2  A    between atoms: C_3  and  C_25
    3  A    between atoms: C_7  and  C_11
    4  A    between atoms: C_18  and  C_30
                            x       y       z     vdW  Elec       q    Type
                         _______ _______ _______ _____ _____    ______ ____

>  <TORSDO>
F 4

$$$$
=
 OpenBabel11052420323D

 34 39  0  0  0  0  0  0  0  0999 V2000
  189.4710  174.3900  143.2420 C   0  0  0  0  0  3  0  0  0  0  0  0
  188.2870  176.9960  145.7180 C   0  0  0  0  0  0  0  0  0  0  0  0
  189.4910  177.0850  146.5660 C   0  0  0  0  0  0  0  0  0  0  0  0
  191.6950  173.7120  143.7770 N   0  0  0  0  0  0  0  0  0  0  0  0
  189.4640  175.2750  144.3270 C   0  0  0  0  0  0  0  0  0  0  0  0
  191.7320  174.5580  144.8390 C   0  0  0  0  0  0  0  0  0  0  0  0
  192.9220  175.4990  146.7260 C   0  0  0  0  0  3  0  0  0  0  0  0
  192.8790  174.6300  145.6330 C   0  0  0  0  0  3  0  0  0  0  0  0
  190.6000  173.6050  142.9730 C   0  0  0  0  0  0  0  0  0  0  0  0
  190.6590  176.2400  146.2460 C   0  0  0  0  0  0  0  0  0  0  0  0
  190.6120  175.3640  145.1410 C   0  0  0  0  0  0  0  0  0  0  0  0
  191.8190  176.2990  147.0320 C   0  0  0  0  0  3  0  0  0  0  0  0
  187.1620  177.7850  145.9930 C   0  0  0  0  0  3  0  0  0  0  0  0
  186.0220  177.6960  145.1890 C   0  0  0  0  0  0  0  0  0  0  0  0
  186.0060  176.8240  144.0970 C   0  0  0  0  0  3  0  0  0  0  0  0
  189.5230  177.8730  147.5510 O   0  0  0  0  0  0  0  0  0  0  0  0
  187.1230  176.0350  143.8140 C   0  0  0  0  0  3  0  0  0  0  0  0
  188.2710  176.1120  144.6190 C   0  0  0  0  0  0  0  0  0  0  0  0
  190.6620  170.3680  140.9630 C   0  0  0  0  0  3  0  0  0  0  0  0
  190.5910  173.1670  140.5100 C   0  0  0  0  0  3  0  0  0  0  0  0
  190.6120  171.2980  137.5260 C   0  0  0  0  0  0  0  0  0  0  0  0
  190.6450  170.2540  138.4570 C   0  0  0  0  0  3  0  0  0  0  0  0
  190.6390  170.9020  139.6780 C   0  0  0  0  0  0  0  0  0  0  0  0
  190.5880  172.5080  138.1420 N   0  0  0  0  0  0  0  0  0  0  0  0
  190.6050  172.2510  139.4590 C   0  0  0  0  0  0  0  0  0  0  0  0
  190.5520  173.8270  137.5250 C   0  0  0  0  0  1  0  0  0  0  0  0
  190.6140  172.6670  141.8290 C   0  0  0  0  0  0  0  0  0  0  0  0
  190.6490  171.2670  142.0440 C   0  0  0  0  0  3  0  0  0  0  0  0
  190.6060  171.0880  136.0650 C   0  0  0  0  0  0  0  0  0  0  0  0
  189.5260  171.0920  135.4190 O   0  0  0  0  0  0  0  0  0  0  0  0
  191.8320  170.8760  135.3710 N   0  0  0  0  0  1  0  0  0  0  0  0
  184.8380  178.5500  145.4780 C   0  0  0  0  0  2  0  0  0  0  0  0
  184.5070  179.4100  144.2740 C   0  0  0  0  0  2  0  0  0  0  0  0
  185.5270  180.3380  144.0710 O   0  0  0  0  0  1  0  0  0  0  0  0
  1  5  1  0  0  0  0
  2 13  1  0  0  0  0
  2  3  1  0  0  0  0
  3 16  2  0  0  0  0
  4  6  2  0  0  0  0
  5 18  1  0  0  0  0
  5 11  2  0  0  0  0
  6 11  1  0  0  0  0
  6  8  1  0  0  0  0
  7 12  1  0  0  0  0
  8  7  2  0  0  0  0
  9  1  2  0  0  0  0
  9  4  1  0  0  0  0
 10  3  1  0  0  0  0
 10 12  2  0  0  0  0
 11 10  1  0  0  0  0
 14 32  1  0  0  0  0
 14 13  2  0  0  0  0
 15 14  1  0  0  0  0
 17 15  2  0  0  0  0
 17 18  1  0  0  0  0
 18  2  2  0  0  0  0
 19 28  1  0  0  0  0
 20 27  1  0  0  0  0
 21 24  1  0  0  0  0
 21 22  2  0  0  0  0
 22 23  1  0  0  0  0
 23 19  2  0  0  0  0
 24 25  1  0  0  0  0
 25 23  1  0  0  0  0
 25 20  2  0  0  0  0
 26 24  1  0  0  0  0
 27 28  2  0  0  0  0
 27  9  1  0  0  0  0
 29 21  1  0  0  0  0
 30 29  2  0  0  0  0
 31 29  1  0  0  0  0
 33 32  1  0  0  0  0
 34 33  1  0  0  0  0
M  END
>  <MODEL>
6

>  <REMARK>
 VINA RESULT:      -7.8      4.630      6.392
  Name = 
  4 active torsions:
  status: ('A' for Active; 'I' for Inactive)
    1  A    between atoms: C_3  and  C_13
    2  A    between atoms: C_3  and  C_25
    3  A    between atoms: C_7  and  C_11
    4  A    between atoms: C_18  and  C_30
                            x       y       z     vdW  Elec       q    Type
                         _______ _______ _______ _____ _____    ______ ____

>  <TORSDO>
F 4

$$$$
=
 OpenBabel11052420323D

 34 39  0  0  0  0  0  0  0  0999 V2000
  189.3390  174.7850  143.2210 C   0  0  0  0  0  3  0  0  0  0  0  0
  188.8050  176.9440  146.2840 C   0  0  0  0  0  0  0  0  0  0  0  0
  190.1340  176.8070  146.9090 C   0  0  0  0  0  0  0  0  0  0  0  0
  191.5550  173.8990  143.2290 N   0  0  0  0  0  0  0  0  0  0  0  0
  189.5860  175.4510  144.4280 C   0  0  0  0  0  0  0  0  0  0  0  0
  191.8370  174.5280  144.3990 C   0  0  0  0  0  0  0  0  0  0  0  0
  193.3960  175.0330  146.1820 C   0  0  0  0  0  3  0  0  0  0  0  0
  193.1000  174.3880  144.9790 C   0  0  0  0  0  3  0  0  0  0  0  0
  190.3380  174.0040  142.6250 C   0  0  0  0  0  0  0  0  0  0  0  0
  191.1570  175.9740  146.2460 C   0  0  0  0  0  0  0  0  0  0  0  0
  190.8550  175.3240  145.0300 C   0  0  0  0  0  0  0  0  0  0  0  0
  192.4300  175.8210  146.8120 C   0  0  0  0  0  3  0  0  0  0  0  0
  187.8110  177.7280  146.8870 C   0  0  0  0  0  3  0  0  0  0  0  0
  186.5520  177.8530  146.2930 C   0  0  0  0  0  0  0  0  0  0  0  0
  186.2830  177.2030  145.0850 C   0  0  0  0  0  3  0  0  0  0  0  0
  190.3940  177.3930  147.9960 O   0  0  0  0  0  0  0  0  0  0  0  0
  187.2670  176.4200  144.4770 C   0  0  0  0  0  3  0  0  0  0  0  0
  188.5330  176.2820  145.0680 C   0  0  0  0  0  0  0  0  0  0  0  0
  188.5530  172.6690  139.5340 C   0  0  0  0  0  3  0  0  0  0  0  0
  191.1240  172.5750  140.7290 C   0  0  0  0  0  3  0  0  0  0  0  0
  190.9480  170.7640  137.7130 C   0  0  0  0  0  0  0  0  0  0  0  0
  189.6310  171.2330  137.7830 C   0  0  0  0  0  3  0  0  0  0  0  0
  189.6050  171.9680  138.9530 C   0  0  0  0  0  0  0  0  0  0  0  0
  191.6790  171.1860  138.7780 N   0  0  0  0  0  0  0  0  0  0  0  0
  190.8450  171.9210  139.5280 C   0  0  0  0  0  0  0  0  0  0  0  0
  193.0790  170.9110  139.0690 C   0  0  0  0  0  1  0  0  0  0  0  0
  190.0840  173.2970  141.3510 C   0  0  0  0  0  0  0  0  0  0  0  0
  188.8030  173.3370  140.7450 C   0  0  0  0  0  3  0  0  0  0  0  0
  191.4550  169.9180  136.6160 C   0  0  0  0  0  0  0  0  0  0  0  0
  191.2210  168.6820  136.5950 O   0  0  0  0  0  0  0  0  0  0  0  0
  192.2220  170.4990  135.5650 N   0  0  0  0  0  1  0  0  0  0  0  0
  185.5090  178.7020  146.9310 C   0  0  0  0  0  2  0  0  0  0  0  0
  184.1270  178.2160  146.5380 C   0  0  0  0  0  2  0  0  0  0  0  0
  183.6150  179.0370  145.5350 O   0  0  0  0  0  1  0  0  0  0  0  0
  1  5  1  0  0  0  0
  2 13  1  0  0  0  0
  2  3  1  0  0  0  0
  3 16  2  0  0  0  0
  4  6  2  0  0  0  0
  5 11  2  0  0  0  0
  5 18  1  0  0  0  0
  6  8  1  0  0  0  0
  6 11  1  0  0  0  0
  7 12  1  0  0  0  0
  8  7  2  0  0  0  0
  9  1  2  0  0  0  0
  9  4  1  0  0  0  0
 10 12  2  0  0  0  0
 10  3  1  0  0  0  0
 11 10  1  0  0  0  0
 14 13  2  0  0  0  0
 14 32  1  0  0  0  0
 15 14  1  0  0  0  0
 17 18  1  0  0  0  0
 17 15  2  0  0  0  0
 18  2  2  0  0  0  0
 19 28  1  0  0  0  0
 20 27  1  0  0  0  0
 21 22  2  0  0  0  0
 21 24  1  0  0  0  0
 22 23  1  0  0  0  0
 23 25  1  0  0  0  0
 23 19  2  0  0  0  0
 24 26  1  0  0  0  0
 24 25  1  0  0  0  0
 25 20  2  0  0  0  0
 27  9  1  0  0  0  0
 28 27  2  0  0  0  0
 29 21  1  0  0  0  0
 30 29  2  0  0  0  0
 31 29  1  0  0  0  0
 33 32  1  0  0  0  0
 34 33  1  0  0  0  0
M  END
>  <MODEL>
7

>  <REMARK>
 VINA RESULT:      -7.6      4.587      6.603
  Name = 
  4 active torsions:
  status: ('A' for Active; 'I' for Inactive)
    1  A    between atoms: C_3  and  C_13
    2  A    between atoms: C_3  and  C_25
    3  A    between atoms: C_7  and  C_11
    4  A    between atoms: C_18  and  C_30
                            x       y       z     vdW  Elec       q    Type
                         _______ _______ _______ _____ _____    ______ ____

>  <TORSDO>
F 4

$$$$
=
 OpenBabel11052420323D

 34 39  0  0  0  0  0  0  0  0999 V2000
  190.7670  175.3370  143.0080 C   0  0  0  0  0  3  0  0  0  0  0  0
  189.4350  176.7920  146.2380 C   0  0  0  0  0  0  0  0  0  0  0  0
  190.6950  176.8740  147.0010 C   0  0  0  0  0  0  0  0  0  0  0  0
  193.1250  175.0090  143.1760 N   0  0  0  0  0  0  0  0  0  0  0  0
  190.7300  175.8410  144.3130 C   0  0  0  0  0  0  0  0  0  0  0  0
  193.1340  175.4930  144.4450 C   0  0  0  0  0  0  0  0  0  0  0  0
  194.3510  176.0610  146.4600 C   0  0  0  0  0  3  0  0  0  0  0  0
  194.3350  175.5640  145.1540 C   0  0  0  0  0  3  0  0  0  0  0  0
  191.9790  174.9190  142.4430 C   0  0  0  0  0  0  0  0  0  0  0  0
  191.9500  176.4230  146.3670 C   0  0  0  0  0  0  0  0  0  0  0  0
  191.9310  175.9230  145.0470 C   0  0  0  0  0  0  0  0  0  0  0  0
  193.1650  176.4880  147.0630 C   0  0  0  0  0  3  0  0  0  0  0  0
  188.2270  177.2120  146.8110 C   0  0  0  0  0  3  0  0  0  0  0  0
  187.0350  177.1300  146.0850 C   0  0  0  0  0  0  0  0  0  0  0  0
  187.0470  176.6350  144.7780 C   0  0  0  0  0  3  0  0  0  0  0  0
  190.7010  177.3250  148.1800 O   0  0  0  0  0  0  0  0  0  0  0  0
  188.2460  176.2140  144.1990 C   0  0  0  0  0  3  0  0  0  0  0  0
  189.4480  176.2870  144.9210 C   0  0  0  0  0  0  0  0  0  0  0  0
  193.2820  173.9150  139.0050 C   0  0  0  0  0  3  0  0  0  0  0  0
  190.8640  173.8320  140.4860 C   0  0  0  0  0  3  0  0  0  0  0  0
  190.5420  172.4600  137.2580 C   0  0  0  0  0  0  0  0  0  0  0  0
  191.8930  172.8230  137.2260 C   0  0  0  0  0  3  0  0  0  0  0  0
  192.1150  173.3790  138.4710 C   0  0  0  0  0  0  0  0  0  0  0  0
  189.9750  172.7770  138.4520 N   0  0  0  0  0  0  0  0  0  0  0  0
  190.9480  173.3380  139.1840 C   0  0  0  0  0  0  0  0  0  0  0  0
  188.5970  172.5630  138.8740 C   0  0  0  0  0  1  0  0  0  0  0  0
  192.0260  174.3850  141.0650 C   0  0  0  0  0  0  0  0  0  0  0  0
  193.2290  174.4210  140.3150 C   0  0  0  0  0  3  0  0  0  0  0  0
  189.8420  171.8180  136.1290 C   0  0  0  0  0  0  0  0  0  0  0  0
  189.5300  170.5990  136.1750 O   0  0  0  0  0  0  0  0  0  0  0  0
  189.5130  172.5770  134.9700 N   0  0  0  0  0  1  0  0  0  0  0  0
  185.7580  177.5940  146.6950 C   0  0  0  0  0  2  0  0  0  0  0  0
  185.3550  178.9330  146.1070 C   0  0  0  0  0  2  0  0  0  0  0  0
  184.0080  178.8980  145.7540 O   0  0  0  0  0  1  0  0  0  0  0  0
  1  5  1  0  0  0  0
  2 13  1  0  0  0  0
  2  3  1  0  0  0  0
  3 16  2  0  0  0  0
  4  6  2  0  0  0  0
  5 18  1  0  0  0  0
  5 11  2  0  0  0  0
  6 11  1  0  0  0  0
  6  8  1  0  0  0  0
  7 12  1  0  0  0  0
  8  7  2  0  0  0  0
  9  1  2  0  0  0  0
  9  4  1  0  0  0  0
 10  3  1  0  0  0  0
 10 12  2  0  0  0  0
 11 10  1  0  0  0  0
 14 32  1  0  0  0  0
 14 13  2  0  0  0  0
 15 14  1  0  0  0  0
 17 15  2  0  0  0  0
 17 18  1  0  0  0  0
 18  2  2  0  0  0  0
 19 28  1  0  0  0  0
 20 27  1  0  0  0  0
 21 24  1  0  0  0  0
 22 21  2  0  0  0  0
 22 23  1  0  0  0  0
 23 19  2  0  0  0  0
 23 25  1  0  0  0  0
 24 26  1  0  0  0  0
 24 25  1  0  0  0  0
 25 20  2  0  0  0  0
 27  9  1  0  0  0  0
 28 27  2  0  0  0  0
 29 30  2  0  0  0  0
 29 21  1  0  0  0  0
 31 29  1  0  0  0  0
 33 32  1  0  0  0  0
 34 33  1  0  0  0  0
M  END
>  <MODEL>
8

>  <REMARK>
 VINA RESULT:      -7.6      4.347      6.802
  Name = 
  4 active torsions:
  status: ('A' for Active; 'I' for Inactive)
    1  A    between atoms: C_3  and  C_13
    2  A    between atoms: C_3  and  C_25
    3  A    between atoms: C_7  and  C_11
    4  A    between atoms: C_18  and  C_30
                            x       y       z     vdW  Elec       q    Type
                         _______ _______ _______ _____ _____    ______ ____

>  <TORSDO>
F 4

$$$$
=
 OpenBabel11052420323D

 34 39  0  0  0  0  0  0  0  0999 V2000
  190.4850  176.8170  143.2280 C   0  0  0  0  0  3  0  0  0  0  0  0
  194.0650  176.1330  144.2510 C   0  0  0  0  0  0  0  0  0  0  0  0
  193.9230  176.2500  145.7140 C   0  0  0  0  0  0  0  0  0  0  0  0
  189.1490  177.2110  145.1650 N   0  0  0  0  0  0  0  0  0  0  0  0
  191.6180  176.6300  144.0300 C   0  0  0  0  0  0  0  0  0  0  0  0
  190.2210  177.0370  145.9800 C   0  0  0  0  0  0  0  0  0  0  0  0
  191.1700  176.9720  148.2070 C   0  0  0  0  0  3  0  0  0  0  0  0
  190.0700  177.1510  147.3640 C   0  0  0  0  0  3  0  0  0  0  0  0
  189.2450  177.1110  143.8100 C   0  0  0  0  0  0  0  0  0  0  0  0
  192.5970  176.5610  146.2840 C   0  0  0  0  0  0  0  0  0  0  0  0
  191.4880  176.7400  145.4300 C   0  0  0  0  0  0  0  0  0  0  0  0
  192.4260  176.6790  147.6710 C   0  0  0  0  0  3  0  0  0  0  0  0
  195.3100  175.8390  143.6770 C   0  0  0  0  0  3  0  0  0  0  0  0
  195.4410  175.7320  142.2890 C   0  0  0  0  0  0  0  0  0  0  0  0
  194.3240  175.9090  141.4680 C   0  0  0  0  0  3  0  0  0  0  0  0
  194.9210  176.0860  146.4690 O   0  0  0  0  0  0  0  0  0  0  0  0
  193.0800  176.2020  142.0310 C   0  0  0  0  0  3  0  0  0  0  0  0
  192.9380  176.3170  143.4220 C   0  0  0  0  0  0  0  0  0  0  0  0
  186.9650  177.2880  140.7610 C   0  0  0  0  0  3  0  0  0  0  0  0
  186.8300  177.7140  143.5620 C   0  0  0  0  0  3  0  0  0  0  0  0
  183.7600  178.2990  141.9390 C   0  0  0  0  0  0  0  0  0  0  0  0
  184.5440  177.9390  140.8370 C   0  0  0  0  0  3  0  0  0  0  0  0
  185.7870  177.6860  141.3850 C   0  0  0  0  0  0  0  0  0  0  0  0
  184.4830  178.2680  143.0890 N   0  0  0  0  0  0  0  0  0  0  0  0
  185.7210  177.8920  142.7360 C   0  0  0  0  0  0  0  0  0  0  0  0
  184.0310  178.5770  144.4390 C   0  0  0  0  0  1  0  0  0  0  0  0
  188.0450  177.3100  142.9690 C   0  0  0  0  0  0  0  0  0  0  0  0
  188.1010  177.1010  141.5680 C   0  0  0  0  0  3  0  0  0  0  0  0
  182.3340  178.6630  141.8410 C   0  0  0  0  0  0  0  0  0  0  0  0
  181.7630  179.2850  142.7740 O   0  0  0  0  0  0  0  0  0  0  0  0
  181.5860  178.3080  140.6820 N   0  0  0  0  0  1  0  0  0  0  0  0
  196.7630  175.4010  141.6890 C   0  0  0  0  0  2  0  0  0  0  0  0
  197.5800  174.5650  142.6540 C   0  0  0  0  0  2  0  0  0  0  0  0
  197.3080  173.2140  142.4430 O   0  0  0  0  0  1  0  0  0  0  0  0
  1  9  2  0  0  0  0
  1  5  1  0  0  0  0
  2  3  1  0  0  0  0
  3 10  1  0  0  0  0
  3 16  2  0  0  0  0
  4  6  2  0  0  0  0
  5 11  2  0  0  0  0
  6  8  1  0  0  0  0
  8  7  2  0  0  0  0
  9  4  1  0  0  0  0
 10 12  2  0  0  0  0
 11  6  1  0  0  0  0
 11 10  1  0  0  0  0
 12  7  1  0  0  0  0
 13  2  1  0  0  0  0
 14 13  2  0  0  0  0
 15 17  2  0  0  0  0
 15 14  1  0  0  0  0
 17 18  1  0  0  0  0
 18  5  1  0  0  0  0
 18  2  2  0  0  0  0
 19 23  2  0  0  0  0
 19 28  1  0  0  0  0
 21 24  1  0  0  0  0
 22 23  1  0  0  0  0
 22 21  2  0  0  0  0
 23 25  1  0  0  0  0
 24 26  1  0  0  0  0
 25 24  1  0  0  0  0
 25 20  2  0  0  0  0
 27 20  1  0  0  0  0
 27  9  1  0  0  0  0
 28 27  2  0  0  0  0
 29 21  1  0  0  0  0
 29 30  2  0  0  0  0
 31 29  1  0  0  0  0
 32 14  1  0  0  0  0
 32 33  1  0  0  0  0
 34 33  1  0  0  0  0
M  END
>  <MODEL>
9

>  <REMARK>
 VINA RESULT:      -7.5      2.402      9.722
  Name = 
  4 active torsions:
  status: ('A' for Active; 'I' for Inactive)
    1  A    between atoms: C_3  and  C_13
    2  A    between atoms: C_3  and  C_25
    3  A    between atoms: C_7  and  C_11
    4  A    between atoms: C_18  and  C_30
                            x       y       z     vdW  Elec       q    Type
                         _______ _______ _______ _____ _____    ______ ____

>  <TORSDO>
F 4

$$$$
