=
 OpenBabel11052419373D

 55 59  0  0  1  0  0  0  0  0999 V2000
  189.0120  172.4690  140.6220 O   0  0  0  0  0  1  0  0  0  0  0  0
  189.3830  173.7500  140.2080 C   0  0  1  0  0  3  0  0  0  0  0  0
  190.8700  173.7770  140.0320 C   0  0  0  0  0  3  0  0  0  0  0  0
  191.4450  173.4360  138.8780 C   0  0  0  0  0  3  0  0  0  0  0  0
  192.9280  173.4770  138.7520 C   0  0  0  0  0  2  0  0  0  0  0  0
  193.4630  172.2020  139.0220 O   0  0  0  0  0  0  0  0  0  0  0  0
  196.4370  170.7330  140.2880 C   0  0  0  0  0  3  0  0  0  0  0  0
  196.7990  173.1690  140.2620 N   0  0  1  0  0  0  0  0  0  0  0  0
  195.1200  170.9400  140.1770 C   0  0  0  0  0  3  0  0  0  0  0  0
  195.6310  173.2200  139.3860 C   0  0  0  0  0  2  0  0  0  0  0  0
  197.4240  171.8570  140.0880 C   0  0  0  0  0  2  0  0  0  0  0  0
  194.5180  172.3200  139.9600 C   0  0  1  0  0  0  0  0  0  0  0  0
  197.7540  174.1560  139.7770 C   0  0  0  0  0  3  0  0  0  0  0  0
  197.0190  175.3840  139.2620 C   0  0  0  0  0  2  0  0  0  0  0  0
  197.6630  175.4090  140.6370 C   0  0  0  0  0  2  0  0  0  0  0  0
  194.0700  172.9190  141.1840 O   0  0  0  0  0  0  0  0  0  0  0  0
  193.3470  171.0680  144.9410 C   0  0  0  0  0  3  0  0  0  0  0  0
  194.5680  171.5780  144.7090 C   0  0  0  0  0  3  0  0  0  0  0  0
  191.8580  171.2590  141.7240 O   0  0  0  0  0  0  0  0  0  0  0  0
  194.0150  172.0580  142.3170 C   0  0  1  0  0  3  0  0  0  0  0  0
  194.7930  172.5220  143.5610 C   0  0  0  0  0  2  0  0  0  0  0  0
  192.6190  171.5650  142.6310 C   0  0  0  0  0  0  0  0  0  0  0  0
  192.1700  171.4220  144.0660 C   0  0  2  0  0  3  0  0  0  0  0  0
  191.6030  172.6280  144.5170 O   0  0  0  0  0  0  0  0  0  0  0  0
  189.7570  173.3640  143.4230 F   0  0  0  0  0  0  0  0  0  0  0  0
  189.5900  172.9180  145.6170 F   0  0  0  0  0  0  0  0  0  0  0  0
  189.8180  171.2320  144.1180 F   0  0  0  0  0  0  0  0  0  0  0  0
  190.1970  172.5260  144.4310 C   0  0  0  0  0  0  0  0  0  0  0  0
  188.6630  174.1100  138.9050 C   0  0  1  0  0  3  0  0  0  0  0  0
  187.8200  173.0690  138.5150 O   0  0  0  0  0  1  0  0  0  0  0  0
  187.8320  175.3670  139.1010 C   0  0  0  0  0  2  0  0  0  0  0  0
  187.7160  175.7040  140.5790 C   0  0  0  0  0  2  0  0  0  0  0  0
  186.6510  176.7660  140.7820 C   0  0  0  0  0  2  0  0  0  0  0  0
  187.6130  177.6040  142.8750 C   0  0  0  0  0  3  0  0  0  0  0  0
  186.5590  177.1170  142.2270 C   0  0  0  0  0  3  0  0  0  0  0  0
  187.5080  177.9760  144.3200 C   0  0  0  0  0  2  0  0  0  0  0  0
  187.6840  176.7520  145.2190 C   0  0  2  0  0  3  0  0  0  0  0  0
  185.8430  177.5320  148.3090 O   0  0  0  0  0  1  0  0  0  0  0  0
  187.3600  177.0790  146.6030 N   0  0  0  0  0  2  0  0  0  0  0  0
  186.0280  177.2360  147.1000 C   0  0  0  0  0  0  0  0  0  0  0  0
  184.9360  177.0610  146.2620 O   0  0  0  0  0  0  0  0  0  0  0  0
  189.0920  176.1690  145.1160 C   0  0  0  0  0  2  0  0  0  0  0  0
  191.8640  177.2570  143.8070 C   0  0  2  0  0  3  0  0  0  0  0  0
  190.6560  175.0830  147.5040 O   0  0  0  0  0  0  0  0  0  0  0  0
  190.1110  177.1040  145.7480 C   0  0  1  0  0  3  0  0  0  0  0  0
  195.1520  176.0100  144.8430 C   0  0  0  0  0  2  0  0  0  0  0  0
  191.9930  177.1350  147.6910 O   0  0  0  0  0  0  0  0  0  0  0  0
  191.3080  176.2000  146.7350 S   0  0  0  0  0  0  0  0  0  0  0  0
  191.2590  176.2260  142.8620 C   0  0  0  0  0  1  0  0  0  0  0  0
  194.7120  175.5210  146.2500 C   0  0  0  0  0  2  0  0  0  0  0  0
  193.5060  174.7840  146.1960 O   0  0  0  0  0  0  0  0  0  0  0  0
  192.9790  176.6790  144.6790 C   0  0  1  0  0  3  0  0  0  0  0  0
  192.4750  175.5400  145.5750 C   0  0  2  0  0  3  0  0  0  0  0  0
  194.0800  176.2220  143.9380 O   0  0  0  0  0  0  0  0  0  0  0  0
  190.7980  177.9670  144.6680 C   0  0  0  0  0  2  0  0  0  0  0  0
  2  1  1  6  0  0  0
  3  2  1  0  0  0  0
  4  3  2  0  0  0  0
  5  4  1  0  0  0  0
  5  6  1  0  0  0  0
  8 13  1  6  0  0  0
  9  7  2  0  0  0  0
 10 12  1  0  0  0  0
 10  8  1  0  0  0  0
 11  8  1  0  0  0  0
 11  7  1  0  0  0  0
 12  6  1  6  0  0  0
 12  9  1  0  0  0  0
 12 16  1  0  0  0  0
 13 15  1  0  0  0  0
 14 13  1  0  0  0  0
 14 15  1  0  0  0  0
 18 17  2  0  0  0  0
 19 22  2  0  0  0  0
 20 16  1  6  0  0  0
 20 22  1  0  0  0  0
 20 21  1  0  0  0  0
 21 18  1  0  0  0  0
 22 23  1  0  0  0  0
 23 24  1  1  0  0  0
 23 17  1  0  0  0  0
 25 28  1  0  0  0  0
 27 28  1  0  0  0  0
 28 24  1  0  0  0  0
 28 26  1  0  0  0  0
 29 30  1  1  0  0  0
 29 31  1  0  0  0  0
 29  2  1  0  0  0  0
 31 32  1  0  0  0  0
 32 33  1  0  0  0  0
 33 35  1  0  0  0  0
 34 36  1  0  0  0  0
 35 34  2  0  0  0  0
 37 36  1  6  0  0  0
 37 39  1  0  0  0  0
 39 40  1  0  0  0  0
 40 38  1  0  0  0  0
 41 40  2  0  0  0  0
 42 37  1  0  0  0  0
 43 49  1  1  0  0  0
 43 55  1  0  0  0  0
 43 52  1  0  0  0  0
 45 42  1  6  0  0  0
 45 48  1  0  0  0  0
 46 50  1  0  0  0  0
 48 44  2  0  0  0  0
 48 47  2  0  0  0  0
 51 50  1  0  0  0  0
 52 54  1  6  0  0  0
 52 53  1  0  0  0  0
 53 51  1  1  0  0  0
 53 48  1  0  0  0  0
 54 46  1  0  0  0  0
 55 45  1  0  0  0  0
M  END
>  <MODEL>
1

>  <REMARK>
 VINA RESULT:      -5.6      0.000      0.000
  Name = 
  19 active torsions:
  status: ('A' for Active; 'I' for Inactive)
    1  A    between atoms: C_2  and  C_44
    2  A    between atoms: C_6  and  C_46
    3  A    between atoms: N_8  and  C_22
    4  A    between atoms: C_10  and  N_32
    5  A    between atoms: C_17  and  O_36
    6  A    between atoms: O_19  and  C_40
    7  A    between atoms: O_19  and  C_45
    8  A    between atoms: C_22  and  C_35
    9  A    between atoms: C_22  and  C_46
   10  A    between atoms: C_24  and  C_31
   11  A    between atoms: C_24  and  C_44
   12  A    between atoms: C_27  and  C_31
   13  A    between atoms: C_27  and  C_54
   14  A    between atoms: C_28  and  C_49
   15  A    between atoms: O_33  and  C_49
   16  A    between atoms: O_33  and  C_52
   17  A    between atoms: C_35  and  C_43
   18  A    between atoms: O_36  and  C_52
   19  A    between atoms: C_51  and  C_54
                            x       y       z     vdW  Elec       q    Type
                         _______ _______ _______ _____ _____    ______ ____

>  <TORSDO>
F 19

$$$$
=
 OpenBabel11052419373D

 55 59  0  0  1  0  0  0  0  0999 V2000
  187.1950  174.6050  142.3670 O   0  0  0  0  0  1  0  0  0  0  0  0
  188.0360  175.4940  141.6950 C   0  0  1  0  0  3  0  0  0  0  0  0
  188.4190  174.8820  140.3830 C   0  0  0  0  0  3  0  0  0  0  0  0
  188.9260  173.6510  140.3060 C   0  0  0  0  0  3  0  0  0  0  0  0
  189.2930  173.0860  138.9780 C   0  0  0  0  0  2  0  0  0  0  0  0
  189.2120  171.6810  139.0220 O   0  0  0  0  0  0  0  0  0  0  0  0
  190.5530  169.1410  136.9330 C   0  0  0  0  0  3  0  0  0  0  0  0
  191.8740  171.1790  136.5190 N   0  0  1  0  0  0  0  0  0  0  0  0
  190.0940  169.6850  138.0660 C   0  0  0  0  0  3  0  0  0  0  0  0
  190.7870  171.8860  137.1920 C   0  0  0  0  0  2  0  0  0  0  0  0
  191.3090  169.9670  135.9220 C   0  0  0  0  0  2  0  0  0  0  0  0
  190.3910  171.1210  138.4720 C   0  0  1  0  0  0  0  0  0  0  0  0
  192.3260  172.0180  135.4170 C   0  0  0  0  0  3  0  0  0  0  0  0
  192.6140  173.4250  135.9180 C   0  0  0  0  0  2  0  0  0  0  0  0
  193.7590  172.4580  135.6770 C   0  0  0  0  0  2  0  0  0  0  0  0
  191.4930  171.2130  139.3840 O   0  0  0  0  0  0  0  0  0  0  0  0
  193.0190  168.2890  142.0670 C   0  0  0  0  0  3  0  0  0  0  0  0
  193.3090  168.1660  140.7610 C   0  0  0  0  0  3  0  0  0  0  0  0
  190.5750  170.8640  142.0260 O   0  0  0  0  0  0  0  0  0  0  0  0
  191.7730  170.0420  140.1470 C   0  0  1  0  0  3  0  0  0  0  0  0
  193.0920  169.3190  139.8210 C   0  0  0  0  0  2  0  0  0  0  0  0
  191.5360  170.2190  141.6300 C   0  0  0  0  0  0  0  0  0  0  0  0
  192.4680  169.5760  142.6290 C   0  0  2  0  0  3  0  0  0  0  0  0
  193.5340  170.4460  142.9250 O   0  0  0  0  0  0  0  0  0  0  0  0
  192.3800  171.3870  144.6350 F   0  0  0  0  0  0  0  0  0  0  0  0
  194.6220  171.4880  144.6780 F   0  0  0  0  0  0  0  0  0  0  0  0
  193.5550  169.5190  145.0300 F   0  0  0  0  0  0  0  0  0  0  0  0
  193.5370  170.7020  144.3130 C   0  0  0  0  0  0  0  0  0  0  0  0
  187.3270  176.8380  141.4940 C   0  0  1  0  0  3  0  0  0  0  0  0
  186.8820  176.9570  140.1780 O   0  0  0  0  0  1  0  0  0  0  0  0
  186.1330  176.9400  142.4280 C   0  0  0  0  0  2  0  0  0  0  0  0
  186.2440  178.1770  143.3030 C   0  0  0  0  0  2  0  0  0  0  0  0
  186.2680  177.7730  144.7660 C   0  0  0  0  0  2  0  0  0  0  0  0
  187.9340  176.7440  146.2410 C   0  0  0  0  0  3  0  0  0  0  0  0
  187.6720  177.5260  145.1980 C   0  0  0  0  0  3  0  0  0  0  0  0
  189.3480  176.4830  146.6550 C   0  0  0  0  0  2  0  0  0  0  0  0
  190.0560  175.5670  145.6560 C   0  0  2  0  0  3  0  0  0  0  0  0
  189.4370  171.9430  145.4680 O   0  0  0  0  0  1  0  0  0  0  0  0
  189.8600  174.1660  146.0130 N   0  0  0  0  0  2  0  0  0  0  0  0
  189.6060  173.1240  145.0670 C   0  0  0  0  0  0  0  0  0  0  0  0
  189.5510  173.4020  143.7080 O   0  0  0  0  0  0  0  0  0  0  0  0
  191.5430  175.8930  145.5420 C   0  0  0  0  0  2  0  0  0  0  0  0
  194.7510  175.3660  145.6600 C   0  0  2  0  0  3  0  0  0  0  0  0
  191.6280  175.6770  142.4960 O   0  0  0  0  0  0  0  0  0  0  0  0
  192.3120  174.7160  144.9610 C   0  0  1  0  0  3  0  0  0  0  0  0
  196.9270  175.8120  142.7420 C   0  0  0  0  0  2  0  0  0  0  0  0
  193.0750  173.6940  142.5760 O   0  0  0  0  0  0  0  0  0  0  0  0
  192.7460  174.9990  143.2420 S   0  0  0  0  0  0  0  0  0  0  0  0
  194.4700  176.7480  146.2380 C   0  0  0  0  0  1  0  0  0  0  0  0
  195.8160  175.6290  141.6740 C   0  0  0  0  0  2  0  0  0  0  0  0
  194.6570  176.3780  141.9870 O   0  0  0  0  0  0  0  0  0  0  0  0
  195.2240  175.4180  144.2060 C   0  0  1  0  0  3  0  0  0  0  0  0
  194.1750  176.0480  143.2830 C   0  0  2  0  0  3  0  0  0  0  0  0
  196.4410  176.0990  144.0450 O   0  0  0  0  0  0  0  0  0  0  0  0
  193.5560  174.4040  145.8190 C   0  0  0  0  0  2  0  0  0  0  0  0
  2  1  1  6  0  0  0
  3  2  1  0  0  0  0
  4  3  2  0  0  0  0
  5  6  1  0  0  0  0
  5  4  1  0  0  0  0
  7  9  2  0  0  0  0
  8 13  1  6  0  0  0
  8 10  1  0  0  0  0
  9 12  1  0  0  0  0
 10 12  1  0  0  0  0
 11  8  1  0  0  0  0
 11  7  1  0  0  0  0
 12  6  1  1  0  0  0
 12 16  1  0  0  0  0
 13 15  1  0  0  0  0
 13 14  1  0  0  0  0
 15 14  1  0  0  0  0
 17 23  1  0  0  0  0
 18 17  2  0  0  0  0
 20 16  1  6  0  0  0
 20 22  1  0  0  0  0
 21 20  1  0  0  0  0
 21 18  1  0  0  0  0
 22 19  2  0  0  0  0
 22 23  1  0  0  0  0
 23 24  1  6  0  0  0
 24 28  1  0  0  0  0
 28 25  1  0  0  0  0
 28 26  1  0  0  0  0
 28 27  1  0  0  0  0
 29 30  1  6  0  0  0
 29  2  1  0  0  0  0
 29 31  1  0  0  0  0
 31 32  1  0  0  0  0
 32 33  1  0  0  0  0
 33 35  1  0  0  0  0
 34 36  1  0  0  0  0
 35 34  2  0  0  0  0
 37 42  1  1  0  0  0
 37 39  1  0  0  0  0
 37 36  1  0  0  0  0
 40 38  1  0  0  0  0
 40 39  1  0  0  0  0
 41 40  2  0  0  0  0
 43 55  1  0  0  0  0
 43 49  1  6  0  0  0
 44 48  2  0  0  0  0
 45 42  1  1  0  0  0
 45 55  1  0  0  0  0
 46 54  1  0  0  0  0
 47 48  2  0  0  0  0
 48 53  1  0  0  0  0
 48 45  1  0  0  0  0
 50 51  1  0  0  0  0
 50 46  1  0  0  0  0
 52 54  1  1  0  0  0
 52 43  1  0  0  0  0
 53 51  1  6  0  0  0
 53 52  1  0  0  0  0
M  END
>  <MODEL>
2

>  <REMARK>
 VINA RESULT:      -5.6      2.780      4.519
  Name = 
  19 active torsions:
  status: ('A' for Active; 'I' for Inactive)
    1  A    between atoms: C_2  and  C_44
    2  A    between atoms: C_6  and  C_46
    3  A    between atoms: N_8  and  C_22
    4  A    between atoms: C_10  and  N_32
    5  A    between atoms: C_17  and  O_36
    6  A    between atoms: O_19  and  C_40
    7  A    between atoms: O_19  and  C_45
    8  A    between atoms: C_22  and  C_35
    9  A    between atoms: C_22  and  C_46
   10  A    between atoms: C_24  and  C_31
   11  A    between atoms: C_24  and  C_44
   12  A    between atoms: C_27  and  C_31
   13  A    between atoms: C_27  and  C_54
   14  A    between atoms: C_28  and  C_49
   15  A    between atoms: O_33  and  C_49
   16  A    between atoms: O_33  and  C_52
   17  A    between atoms: C_35  and  C_43
   18  A    between atoms: O_36  and  C_52
   19  A    between atoms: C_51  and  C_54
                            x       y       z     vdW  Elec       q    Type
                         _______ _______ _______ _____ _____    ______ ____

>  <TORSDO>
F 19

$$$$
=
 OpenBabel11052419373D

 55 59  0  0  1  0  0  0  0  0999 V2000
  188.7280  172.0040  142.8530 O   0  0  0  0  0  1  0  0  0  0  0  0
  189.3040  173.2310  142.5170 C   0  0  1  0  0  3  0  0  0  0  0  0
  190.7800  173.0310  142.3570 C   0  0  0  0  0  3  0  0  0  0  0  0
  191.5520  173.9500  141.7790 C   0  0  0  0  0  3  0  0  0  0  0  0
  193.0150  173.7050  141.6410 C   0  0  0  0  0  2  0  0  0  0  0  0
  193.2380  172.3620  141.2780 O   0  0  0  0  0  0  0  0  0  0  0  0
  196.6020  173.2780  141.9540 C   0  0  0  0  0  3  0  0  0  0  0  0
  195.8560  171.8650  143.8280 N   0  0  1  0  0  0  0  0  0  0  0  0
  195.5730  172.8320  141.2250 C   0  0  0  0  0  3  0  0  0  0  0  0
  194.5050  172.1080  143.3270 C   0  0  0  0  0  2  0  0  0  0  0  0
  196.6850  173.0060  143.4360 C   0  0  0  0  0  2  0  0  0  0  0  0
  194.4860  171.9340  141.7960 C   0  0  1  0  0  0  0  0  0  0  0  0
  195.7930  171.8730  145.2840 C   0  0  0  0  0  3  0  0  0  0  0  0
  194.6370  171.0050  145.7600 C   0  0  0  0  0  2  0  0  0  0  0  0
  196.0570  170.4680  145.8060 C   0  0  0  0  0  2  0  0  0  0  0  0
  194.7220  170.5470  141.5180 O   0  0  0  0  0  0  0  0  0  0  0  0
  190.8490  169.0570  140.5970 C   0  0  0  0  0  3  0  0  0  0  0  0
  191.2540  169.0240  141.8770 C   0  0  0  0  0  3  0  0  0  0  0  0
  193.8480  169.9330  138.9100 O   0  0  0  0  0  0  0  0  0  0  0  0
  193.5660  169.7550  141.2620 C   0  0  1  0  0  3  0  0  0  0  0  0
  192.4490  169.8230  142.3180 C   0  0  0  0  0  2  0  0  0  0  0  0
  193.0580  169.8730  139.8420 C   0  0  0  0  0  0  0  0  0  0  0  0
  191.5730  169.8880  139.5670 C   0  0  2  0  0  3  0  0  0  0  0  0
  191.0870  171.2080  139.6120 O   0  0  0  0  0  0  0  0  0  0  0  0
  189.3720  170.7430  138.2020 F   0  0  0  0  0  0  0  0  0  0  0  0
  191.3760  171.2360  137.3180 F   0  0  0  0  0  0  0  0  0  0  0  0
  190.1330  172.8500  138.3130 F   0  0  0  0  0  0  0  0  0  0  0  0
  190.5060  171.5180  138.3620 C   0  0  0  0  0  0  0  0  0  0  0  0
  188.6750  173.7730  141.2300 C   0  0  1  0  0  3  0  0  0  0  0  0
  187.9650  172.7650  140.5780 O   0  0  0  0  0  1  0  0  0  0  0  0
  187.7220  174.9110  141.5580 C   0  0  0  0  0  2  0  0  0  0  0  0
  187.6870  175.9200  140.4220 C   0  0  0  0  0  2  0  0  0  0  0  0
  187.0130  177.1980  140.8900 C   0  0  0  0  0  2  0  0  0  0  0  0
  186.5240  177.5120  143.2720 C   0  0  0  0  0  3  0  0  0  0  0  0
  186.2150  176.9260  142.1180 C   0  0  0  0  0  3  0  0  0  0  0  0
  185.7050  177.2510  144.4950 C   0  0  0  0  0  2  0  0  0  0  0  0
  186.5930  176.9080  145.6930 C   0  0  2  0  0  3  0  0  0  0  0  0
  185.9640  179.7530  147.9420 O   0  0  0  0  0  1  0  0  0  0  0  0
  186.7760  178.0750  146.5480 N   0  0  0  0  0  2  0  0  0  0  0  0
  185.7140  178.7440  147.2330 C   0  0  0  0  0  0  0  0  0  0  0  0
  184.4070  178.2880  147.1280 O   0  0  0  0  0  0  0  0  0  0  0  0
  187.9400  176.3390  145.2550 C   0  0  0  0  0  2  0  0  0  0  0  0
  190.8630  177.5250  144.4580 C   0  0  2  0  0  3  0  0  0  0  0  0
  189.2870  174.1670  146.9280 O   0  0  0  0  0  0  0  0  0  0  0  0
  189.0470  176.7890  146.1970 C   0  0  1  0  0  3  0  0  0  0  0  0
  193.9410  175.5610  144.7940 C   0  0  0  0  0  2  0  0  0  0  0  0
  190.8600  175.7690  147.9270 O   0  0  0  0  0  0  0  0  0  0  0  0
  190.0940  175.4140  146.6840 S   0  0  0  0  0  0  0  0  0  0  0  0
  190.1650  177.0680  143.1820 C   0  0  0  0  0  1  0  0  0  0  0  0
  193.4020  174.5860  145.8750 C   0  0  0  0  0  2  0  0  0  0  0  0
  192.1170  174.0950  145.5460 O   0  0  0  0  0  0  0  0  0  0  0  0
  191.8720  176.5010  144.9790 C   0  0  1  0  0  3  0  0  0  0  0  0
  191.2060  175.1630  145.3260 C   0  0  2  0  0  3  0  0  0  0  0  0
  192.9310  176.2650  144.0880 O   0  0  0  0  0  0  0  0  0  0  0  0
  189.8670  177.9330  145.5630 C   0  0  0  0  0  2  0  0  0  0  0  0
  2  1  1  6  0  0  0
  3  2  1  0  0  0  0
  4  3  2  0  0  0  0
  5  4  1  0  0  0  0
  6  5  1  0  0  0  0
  7 11  1  0  0  0  0
  8 13  1  1  0  0  0
  9 12  1  0  0  0  0
  9  7  2  0  0  0  0
 10  8  1  0  0  0  0
 11  8  1  0  0  0  0
 12  6  1  6  0  0  0
 12 10  1  0  0  0  0
 13 14  1  0  0  0  0
 13 15  1  0  0  0  0
 14 15  1  0  0  0  0
 16 12  1  0  0  0  0
 17 18  2  0  0  0  0
 18 21  1  0  0  0  0
 19 22  2  0  0  0  0
 20 16  1  1  0  0  0
 20 21  1  0  0  0  0
 22 20  1  0  0  0  0
 23 24  1  1  0  0  0
 23 22  1  0  0  0  0
 23 17  1  0  0  0  0
 25 28  1  0  0  0  0
 26 28  1  0  0  0  0
 27 28  1  0  0  0  0
 28 24  1  0  0  0  0
 29 30  1  1  0  0  0
 29 31  1  0  0  0  0
 29  2  1  0  0  0  0
 32 33  1  0  0  0  0
 32 31  1  0  0  0  0
 33 35  1  0  0  0  0
 34 36  1  0  0  0  0
 35 34  2  0  0  0  0
 37 36  1  6  0  0  0
 37 39  1  0  0  0  0
 39 40  1  0  0  0  0
 40 38  1  0  0  0  0
 41 40  2  0  0  0  0
 42 37  1  0  0  0  0
 43 49  1  6  0  0  0
 43 52  1  0  0  0  0
 43 55  1  0  0  0  0
 45 42  1  6  0  0  0
 45 48  1  0  0  0  0
 46 50  1  0  0  0  0
 48 44  2  0  0  0  0
 48 47  2  0  0  0  0
 51 50  1  0  0  0  0
 52 54  1  6  0  0  0
 52 53  1  0  0  0  0
 53 51  1  1  0  0  0
 53 48  1  0  0  0  0
 54 46  1  0  0  0  0
 55 45  1  0  0  0  0
M  END
>  <MODEL>
3

>  <REMARK>
 VINA RESULT:      -5.6      2.260      3.478
  Name = 
  19 active torsions:
  status: ('A' for Active; 'I' for Inactive)
    1  A    between atoms: C_2  and  C_44
    2  A    between atoms: C_6  and  C_46
    3  A    between atoms: N_8  and  C_22
    4  A    between atoms: C_10  and  N_32
    5  A    between atoms: C_17  and  O_36
    6  A    between atoms: O_19  and  C_40
    7  A    between atoms: O_19  and  C_45
    8  A    between atoms: C_22  and  C_35
    9  A    between atoms: C_22  and  C_46
   10  A    between atoms: C_24  and  C_31
   11  A    between atoms: C_24  and  C_44
   12  A    between atoms: C_27  and  C_31
   13  A    between atoms: C_27  and  C_54
   14  A    between atoms: C_28  and  C_49
   15  A    between atoms: O_33  and  C_49
   16  A    between atoms: O_33  and  C_52
   17  A    between atoms: C_35  and  C_43
   18  A    between atoms: O_36  and  C_52
   19  A    between atoms: C_51  and  C_54
                            x       y       z     vdW  Elec       q    Type
                         _______ _______ _______ _____ _____    ______ ____

>  <TORSDO>
F 19

$$$$
=
 OpenBabel11052419373D

 55 59  0  0  1  0  0  0  0  0999 V2000
  188.8970  176.9900  142.6630 O   0  0  0  0  0  1  0  0  0  0  0  0
  187.7380  176.9600  141.8850 C   0  0  1  0  0  3  0  0  0  0  0  0
  187.8360  175.8030  140.9380 C   0  0  0  0  0  3  0  0  0  0  0  0
  188.7920  174.8820  141.0540 C   0  0  0  0  0  3  0  0  0  0  0  0
  188.8500  173.7520  140.0860 C   0  0  0  0  0  2  0  0  0  0  0  0
  189.9430  172.9180  140.3940 O   0  0  0  0  0  0  0  0  0  0  0  0
  189.6420  170.6060  137.7160 C   0  0  0  0  0  3  0  0  0  0  0  0
  190.5120  172.7010  136.7560 N   0  0  1  0  0  0  0  0  0  0  0  0
  189.9860  171.0360  138.9350 C   0  0  0  0  0  3  0  0  0  0  0  0
  190.0860  173.3210  138.0090 C   0  0  0  0  0  2  0  0  0  0  0  0
  189.6570  171.5360  136.5270 C   0  0  0  0  0  2  0  0  0  0  0  0
  190.5230  172.4360  139.1950 C   0  0  1  0  0  0  0  0  0  0  0  0
  190.2320  173.6450  135.6830 C   0  0  0  0  0  3  0  0  0  0  0  0
  191.0300  174.9240  135.8920 C   0  0  0  0  0  2  0  0  0  0  0  0
  191.5040  173.8910  134.8850 C   0  0  0  0  0  2  0  0  0  0  0  0
  191.9550  172.4700  139.2510 O   0  0  0  0  0  0  0  0  0  0  0  0
  194.6970  169.2720  139.8190 C   0  0  0  0  0  3  0  0  0  0  0  0
  194.2200  169.4880  138.5820 C   0  0  0  0  0  3  0  0  0  0  0  0
  192.6400  171.4090  141.7700 O   0  0  0  0  0  0  0  0  0  0  0  0
  192.6040  171.2120  139.4040 C   0  0  1  0  0  3  0  0  0  0  0  0
  193.5250  170.7780  138.2490 C   0  0  0  0  0  2  0  0  0  0  0  0
  193.2230  171.0160  140.7700 C   0  0  0  0  0  0  0  0  0  0  0  0
  194.5500  170.3060  140.9070 C   0  0  2  0  0  3  0  0  0  0  0  0
  195.6050  171.2330  140.8110 O   0  0  0  0  0  0  0  0  0  0  0  0
  195.6670  170.4240  142.9300 F   0  0  0  0  0  0  0  0  0  0  0  0
  195.8860  172.6370  142.6260 F   0  0  0  0  0  0  0  0  0  0  0  0
  197.5570  171.2260  142.0280 F   0  0  0  0  0  0  0  0  0  0  0  0
  196.1850  171.3920  142.0890 C   0  0  0  0  0  0  0  0  0  0  0  0
  186.5040  176.8380  142.7840 C   0  0  1  0  0  3  0  0  0  0  0  0
  186.2730  175.5010  143.1080 O   0  0  0  0  0  1  0  0  0  0  0  0
  186.7170  177.6240  144.0670 C   0  0  0  0  0  2  0  0  0  0  0  0
  186.0000  176.9550  145.2280 C   0  0  0  0  0  2  0  0  0  0  0  0
  186.7660  177.2000  146.5160 C   0  0  0  0  0  2  0  0  0  0  0  0
  188.4510  175.4550  146.8680 C   0  0  0  0  0  3  0  0  0  0  0  0
  188.1480  176.6590  146.3910 C   0  0  0  0  0  3  0  0  0  0  0  0
  189.8360  174.9090  146.7190 C   0  0  0  0  0  2  0  0  0  0  0  0
  190.3270  175.0350  145.2760 C   0  0  2  0  0  3  0  0  0  0  0  0
  189.5810  171.9410  143.4280 O   0  0  0  0  0  0  0  0  0  0  0  0
  189.6830  174.0420  144.4240 N   0  0  0  0  0  2  0  0  0  0  0  0
  190.2000  172.7290  144.1890 C   0  0  0  0  0  0  0  0  0  0  0  0
  191.3760  172.3130  144.7980 O   0  0  0  0  0  1  0  0  0  0  0  0
  191.8470  174.9260  145.1830 C   0  0  0  0  0  2  0  0  0  0  0  0
  192.9110  176.2660  142.4160 C   0  0  2  0  0  3  0  0  0  0  0  0
  194.5990  175.3530  146.4380 O   0  0  0  0  0  0  0  0  0  0  0  0
  192.4770  176.2980  144.9990 C   0  0  1  0  0  3  0  0  0  0  0  0
  196.4780  176.5950  141.6330 C   0  0  0  0  0  2  0  0  0  0  0  0
  194.7630  177.6370  145.5480 O   0  0  0  0  0  0  0  0  0  0  0  0
  194.2490  176.2500  145.2820 S   0  0  0  0  0  0  0  0  0  0  0  0
  192.5090  174.8240  142.1280 C   0  0  0  0  0  1  0  0  0  0  0  0
  196.9780  176.5490  143.1030 C   0  0  0  0  0  2  0  0  0  0  0  0
  196.3650  175.5040  143.8340 O   0  0  0  0  0  0  0  0  0  0  0  0
  194.4200  176.4340  142.6010 C   0  0  1  0  0  3  0  0  0  0  0  0
  194.9490  175.6110  143.7830 C   0  0  2  0  0  3  0  0  0  0  0  0
  195.1570  176.1070  141.4520 O   0  0  0  0  0  0  0  0  0  0  0  0
  192.1370  176.8690  143.6060 C   0  0  0  0  0  2  0  0  0  0  0  0
  2  1  1  1  0  0  0
  2 29  1  0  0  0  0
  3  4  2  0  0  0  0
  3  2  1  0  0  0  0
  5  6  1  0  0  0  0
  5  4  1  0  0  0  0
  7  9  2  0  0  0  0
  8 13  1  6  0  0  0
  8 10  1  0  0  0  0
  9 12  1  0  0  0  0
 10 12  1  0  0  0  0
 11  8  1  0  0  0  0
 11  7  1  0  0  0  0
 12 16  1  1  0  0  0
 12  6  1  0  0  0  0
 13 14  1  0  0  0  0
 15 13  1  0  0  0  0
 15 14  1  0  0  0  0
 17 23  1  0  0  0  0
 18 17  2  0  0  0  0
 20 16  1  6  0  0  0
 20 22  1  0  0  0  0
 21 18  1  0  0  0  0
 21 20  1  0  0  0  0
 22 23  1  0  0  0  0
 22 19  2  0  0  0  0
 23 24  1  6  0  0  0
 24 28  1  0  0  0  0
 27 28  1  0  0  0  0
 28 26  1  0  0  0  0
 28 25  1  0  0  0  0
 29 30  1  1  0  0  0
 29 31  1  0  0  0  0
 31 32  1  0  0  0  0
 32 33  1  0  0  0  0
 35 33  1  0  0  0  0
 35 34  2  0  0  0  0
 36 34  1  0  0  0  0
 37 42  1  1  0  0  0
 37 36  1  0  0  0  0
 38 40  2  0  0  0  0
 39 37  1  0  0  0  0
 40 39  1  0  0  0  0
 40 41  1  0  0  0  0
 43 49  1  1  0  0  0
 43 52  1  0  0  0  0
 43 55  1  0  0  0  0
 45 42  1  6  0  0  0
 45 48  1  0  0  0  0
 46 50  1  0  0  0  0
 48 47  2  0  0  0  0
 48 44  2  0  0  0  0
 50 51  1  0  0  0  0
 52 54  1  6  0  0  0
 52 53  1  0  0  0  0
 53 51  1  1  0  0  0
 53 48  1  0  0  0  0
 54 46  1  0  0  0  0
 55 45  1  0  0  0  0
M  END
>  <MODEL>
4

>  <REMARK>
 VINA RESULT:      -5.5      2.858      5.193
  Name = 
  19 active torsions:
  status: ('A' for Active; 'I' for Inactive)
    1  A    between atoms: C_2  and  C_44
    2  A    between atoms: C_6  and  C_46
    3  A    between atoms: N_8  and  C_22
    4  A    between atoms: C_10  and  N_32
    5  A    between atoms: C_17  and  O_36
    6  A    between atoms: O_19  and  C_40
    7  A    between atoms: O_19  and  C_45
    8  A    between atoms: C_22  and  C_35
    9  A    between atoms: C_22  and  C_46
   10  A    between atoms: C_24  and  C_31
   11  A    between atoms: C_24  and  C_44
   12  A    between atoms: C_27  and  C_31
   13  A    between atoms: C_27  and  C_54
   14  A    between atoms: C_28  and  C_49
   15  A    between atoms: O_33  and  C_49
   16  A    between atoms: O_33  and  C_52
   17  A    between atoms: C_35  and  C_43
   18  A    between atoms: O_36  and  C_52
   19  A    between atoms: C_51  and  C_54
                            x       y       z     vdW  Elec       q    Type
                         _______ _______ _______ _____ _____    ______ ____

>  <TORSDO>
F 19

$$$$
=
 OpenBabel11052419373D

 55 59  0  0  1  0  0  0  0  0999 V2000
  188.1690  178.4800  141.8670 O   0  0  0  0  0  1  0  0  0  0  0  0
  187.0080  177.7820  141.5290 C   0  0  1  0  0  3  0  0  0  0  0  0
  187.2750  176.3170  141.6900 C   0  0  0  0  0  3  0  0  0  0  0  0
  188.5160  175.8340  141.7540 C   0  0  0  0  0  3  0  0  0  0  0  0
  188.7310  174.3690  141.9110 C   0  0  0  0  0  2  0  0  0  0  0  0
  188.3690  173.7060  140.7230 O   0  0  0  0  0  0  0  0  0  0  0  0
  191.8850  173.3000  140.4300 C   0  0  0  0  0  3  0  0  0  0  0  0
  190.9730  171.1270  141.1430 N   0  0  1  0  0  0  0  0  0  0  0  0
  190.6570  173.6800  140.0590 C   0  0  0  0  0  3  0  0  0  0  0  0
  189.7600  171.8720  141.4780 C   0  0  0  0  0  2  0  0  0  0  0  0
  192.1020  172.0520  141.2480 C   0  0  0  0  0  2  0  0  0  0  0  0
  189.4180  172.8390  140.3270 C   0  0  1  0  0  0  0  0  0  0  0  0
  191.1620  170.1130  142.1730 C   0  0  0  0  0  3  0  0  0  0  0  0
  190.8040  168.7400  141.6250 C   0  0  0  0  0  2  0  0  0  0  0  0
  192.2610  169.1540  141.7370 C   0  0  0  0  0  2  0  0  0  0  0  0
  189.0440  172.0430  139.1940 O   0  0  0  0  0  0  0  0  0  0  0  0
  189.4940  174.6510  135.8690 C   0  0  0  0  0  3  0  0  0  0  0  0
  188.3990  174.7840  136.6360 C   0  0  0  0  0  3  0  0  0  0  0  0
  190.8770  171.6210  137.0970 O   0  0  0  0  0  0  0  0  0  0  0  0
  188.9570  172.7290  137.9490 C   0  0  1  0  0  3  0  0  0  0  0  0
  188.3380  174.1370  137.9910 C   0  0  0  0  0  2  0  0  0  0  0  0
  190.2290  172.6570  137.1330 C   0  0  0  0  0  0  0  0  0  0  0  0
  190.6880  173.8560  136.3360 C   0  0  2  0  0  3  0  0  0  0  0  0
  191.5100  174.6770  137.1300 O   0  0  0  0  0  0  0  0  0  0  0  0
  193.6770  175.2850  137.4100 F   0  0  0  0  0  0  0  0  0  0  0  0
  192.6850  175.7440  135.4490 F   0  0  0  0  0  0  0  0  0  0  0  0
  193.2040  173.6070  136.0000 F   0  0  0  0  0  0  0  0  0  0  0  0
  192.7580  174.8230  136.4860 C   0  0  0  0  0  0  0  0  0  0  0  0
  185.8450  178.2350  142.4170 C   0  0  1  0  0  3  0  0  0  0  0  0
  184.9930  177.1620  142.6820 O   0  0  0  0  0  1  0  0  0  0  0  0
  186.3770  178.7750  143.7340 C   0  0  0  0  0  2  0  0  0  0  0  0
  186.0120  177.8440  144.8790 C   0  0  0  0  0  2  0  0  0  0  0  0
  187.2020  177.6790  145.8060 C   0  0  0  0  0  2  0  0  0  0  0  0
  189.5750  177.8060  145.2030 C   0  0  0  0  0  3  0  0  0  0  0  0
  188.3890  177.2290  145.0270 C   0  0  0  0  0  3  0  0  0  0  0  0
  190.7670  177.3350  144.4330 C   0  0  0  0  0  2  0  0  0  0  0  0
  191.1550  175.9100  144.8330 C   0  0  2  0  0  3  0  0  0  0  0  0
  191.2620  175.2410  148.4500 O   0  0  0  0  0  1  0  0  0  0  0  0
  191.5730  175.8630  146.2290 N   0  0  0  0  0  2  0  0  0  0  0  0
  190.8300  175.2210  147.2680 C   0  0  0  0  0  0  0  0  0  0  0  0
  189.6370  174.5700  146.9860 O   0  0  0  0  0  0  0  0  0  0  0  0
  192.2400  175.3410  143.9220 C   0  0  0  0  0  2  0  0  0  0  0  0
  195.2450  175.9550  142.8360 C   0  0  2  0  0  3  0  0  0  0  0  0
  193.0850  172.4900  144.6210 O   0  0  0  0  0  0  0  0  0  0  0  0
  193.5510  175.1820  144.6780 C   0  0  1  0  0  3  0  0  0  0  0  0
  197.6010  173.2880  141.9510 C   0  0  0  0  0  2  0  0  0  0  0  0
  195.1910  173.2530  145.6310 O   0  0  0  0  0  0  0  0  0  0  0  0
  194.1890  173.5090  144.5410 S   0  0  0  0  0  0  0  0  0  0  0  0
  194.2720  176.1130  141.6740 C   0  0  0  0  0  1  0  0  0  0  0  0
  196.9470  172.1870  142.8290 C   0  0  0  0  0  2  0  0  0  0  0  0
  195.5410  172.1590  142.6760 O   0  0  0  0  0  0  0  0  0  0  0  0
  195.9590  174.6030  142.8320 C   0  0  1  0  0  3  0  0  0  0  0  0
  194.9740  173.4330  142.9530 C   0  0  2  0  0  3  0  0  0  0  0  0
  196.7630  174.4060  141.6980 O   0  0  0  0  0  0  0  0  0  0  0  0
  194.5820  176.2270  144.2030 C   0  0  0  0  0  2  0  0  0  0  0  0
  2  3  1  0  0  0  0
  2  1  1  1  0  0  0
  2 29  1  0  0  0  0
  3  4  2  0  0  0  0
  4  5  1  0  0  0  0
  6  5  1  0  0  0  0
  7 11  1  0  0  0  0
  8 11  1  0  0  0  0
  8 10  1  0  0  0  0
  8 13  1  1  0  0  0
  9 12  1  0  0  0  0
  9  7  2  0  0  0  0
 12 16  1  6  0  0  0
 12  6  1  0  0  0  0
 12 10  1  0  0  0  0
 14 15  1  0  0  0  0
 14 13  1  0  0  0  0
 15 13  1  0  0  0  0
 17 23  1  0  0  0  0
 17 18  2  0  0  0  0
 18 21  1  0  0  0  0
 19 22  2  0  0  0  0
 20 21  1  0  0  0  0
 20 16  1  1  0  0  0
 22 20  1  0  0  0  0
 23 24  1  1  0  0  0
 23 22  1  0  0  0  0
 26 28  1  0  0  0  0
 27 28  1  0  0  0  0
 28 24  1  0  0  0  0
 28 25  1  0  0  0  0
 29 30  1  1  0  0  0
 29 31  1  0  0  0  0
 31 32  1  0  0  0  0
 32 33  1  0  0  0  0
 35 34  2  0  0  0  0
 35 33  1  0  0  0  0
 36 37  1  0  0  0  0
 36 34  1  0  0  0  0
 37 42  1  6  0  0  0
 37 39  1  0  0  0  0
 39 40  1  0  0  0  0
 40 38  1  0  0  0  0
 41 40  2  0  0  0  0
 43 49  1  6  0  0  0
 43 55  1  0  0  0  0
 45 42  1  6  0  0  0
 46 50  1  0  0  0  0
 48 44  2  0  0  0  0
 48 45  1  0  0  0  0
 48 47  2  0  0  0  0
 51 50  1  0  0  0  0
 52 54  1  6  0  0  0
 52 43  1  0  0  0  0
 52 53  1  0  0  0  0
 53 51  1  1  0  0  0
 53 48  1  0  0  0  0
 54 46  1  0  0  0  0
 55 45  1  0  0  0  0
M  END
>  <MODEL>
5

>  <REMARK>
 VINA RESULT:      -5.4      3.149      6.120
  Name = 
  19 active torsions:
  status: ('A' for Active; 'I' for Inactive)
    1  A    between atoms: C_2  and  C_44
    2  A    between atoms: C_6  and  C_46
    3  A    between atoms: N_8  and  C_22
    4  A    between atoms: C_10  and  N_32
    5  A    between atoms: C_17  and  O_36
    6  A    between atoms: O_19  and  C_40
    7  A    between atoms: O_19  and  C_45
    8  A    between atoms: C_22  and  C_35
    9  A    between atoms: C_22  and  C_46
   10  A    between atoms: C_24  and  C_31
   11  A    between atoms: C_24  and  C_44
   12  A    between atoms: C_27  and  C_31
   13  A    between atoms: C_27  and  C_54
   14  A    between atoms: C_28  and  C_49
   15  A    between atoms: O_33  and  C_49
   16  A    between atoms: O_33  and  C_52
   17  A    between atoms: C_35  and  C_43
   18  A    between atoms: O_36  and  C_52
   19  A    between atoms: C_51  and  C_54
                            x       y       z     vdW  Elec       q    Type
                         _______ _______ _______ _____ _____    ______ ____

>  <TORSDO>
F 19

$$$$
=
 OpenBabel11052419373D

 55 59  0  0  1  0  0  0  0  0999 V2000
  186.0190  177.2980  140.8890 O   0  0  0  0  0  1  0  0  0  0  0  0
  186.9310  176.5530  141.6400 C   0  0  1  0  0  3  0  0  0  0  0  0
  187.8310  175.8180  140.6950 C   0  0  0  0  0  3  0  0  0  0  0  0
  188.4650  174.7030  141.0570 C   0  0  0  0  0  3  0  0  0  0  0  0
  189.3520  174.0080  140.0820 C   0  0  0  0  0  2  0  0  0  0  0  0
  190.6060  173.7630  140.6730 O   0  0  0  0  0  0  0  0  0  0  0  0
  191.3590  170.3140  141.0630 C   0  0  0  0  0  3  0  0  0  0  0  0
  190.7100  170.6420  138.7100 N   0  0  1  0  0  0  0  0  0  0  0  0
  191.5450  171.6340  141.1820 C   0  0  0  0  0  3  0  0  0  0  0  0
  190.1730  171.9260  139.1540 C   0  0  0  0  0  2  0  0  0  0  0  0
  190.6730  169.7290  139.8540 C   0  0  0  0  0  2  0  0  0  0  0  0
  191.1940  172.6190  140.0780 C   0  0  1  0  0  0  0  0  0  0  0  0
  189.7940  170.1040  137.7130 C   0  0  0  0  0  3  0  0  0  0  0  0
  189.4750  171.1660  136.6710 C   0  0  0  0  0  2  0  0  0  0  0  0
  190.4850  170.0770  136.3580 C   0  0  0  0  0  2  0  0  0  0  0  0
  192.3310  172.9680  139.2760 O   0  0  0  0  0  0  0  0  0  0  0  0
  196.4590  172.4890  140.1700 C   0  0  0  0  0  3  0  0  0  0  0  0
  195.6610  171.4110  140.2550 C   0  0  0  0  0  3  0  0  0  0  0  0
  194.0960  175.1090  139.7710 O   0  0  0  0  0  0  0  0  0  0  0  0
  193.6050  172.7880  139.8870 C   0  0  1  0  0  3  0  0  0  0  0  0
  194.2890  171.4310  139.6430 C   0  0  0  0  0  2  0  0  0  0  0  0
  194.5330  173.9680  139.7030 C   0  0  0  0  0  0  0  0  0  0  0  0
  196.0070  173.7450  139.4660 C   0  0  2  0  0  3  0  0  0  0  0  0
  196.2610  173.6190  138.0870 O   0  0  0  0  0  0  0  0  0  0  0  0
  197.5360  175.3790  138.7400 F   0  0  0  0  0  0  0  0  0  0  0  0
  196.0690  175.6850  137.0670 F   0  0  0  0  0  0  0  0  0  0  0  0
  197.9370  174.4410  136.7430 F   0  0  0  0  0  0  0  0  0  0  0  0
  196.9440  174.7740  137.6460 C   0  0  0  0  0  0  0  0  0  0  0  0
  187.7310  177.4770  142.5630 C   0  0  1  0  0  3  0  0  0  0  0  0
  188.4830  178.3790  141.8100 O   0  0  0  0  0  1  0  0  0  0  0  0
  186.7860  178.2560  143.4630 C   0  0  0  0  0  2  0  0  0  0  0  0
  186.0990  177.3250  144.4480 C   0  0  0  0  0  2  0  0  0  0  0  0
  186.7210  177.4810  145.8240 C   0  0  0  0  0  2  0  0  0  0  0  0
  189.0220  176.6360  145.8800 C   0  0  0  0  0  3  0  0  0  0  0  0
  187.7230  176.4030  146.0490 C   0  0  0  0  0  3  0  0  0  0  0  0
  190.0240  175.5550  146.1300 C   0  0  0  0  0  2  0  0  0  0  0  0
  190.8460  175.2630  144.8740 C   0  0  2  0  0  3  0  0  0  0  0  0
  189.0530  172.3740  143.4660 O   0  0  0  0  0  0  0  0  0  0  0  0
  190.1120  174.3830  143.9710 N   0  0  0  0  0  2  0  0  0  0  0  0
  189.6710  173.0670  144.3140 C   0  0  0  0  0  0  0  0  0  0  0  0
  189.9120  172.5480  145.5790 O   0  0  0  0  0  1  0  0  0  0  0  0
  192.2120  174.6720  145.2150 C   0  0  0  0  0  2  0  0  0  0  0  0
  194.3200  172.9670  143.4160 C   0  0  2  0  0  3  0  0  0  0  0  0
  194.5400  176.1680  146.5080 O   0  0  0  0  0  0  0  0  0  0  0  0
  193.2830  175.2120  144.2780 C   0  0  1  0  0  3  0  0  0  0  0  0
  197.8720  172.6890  144.2820 C   0  0  0  0  0  2  0  0  0  0  0  0
  195.6640  176.4940  144.3480 O   0  0  0  0  0  0  0  0  0  0  0  0
  194.8090  175.5610  145.1580 S   0  0  0  0  0  0  0  0  0  0  0  0
  193.5530  171.9960  144.3070 C   0  0  0  0  0  1  0  0  0  0  0  0
  197.9410  173.9880  145.1290 C   0  0  0  0  0  2  0  0  0  0  0  0
  196.8550  174.0850  146.0310 O   0  0  0  0  0  0  0  0  0  0  0  0
  195.7010  173.3150  143.9710 C   0  0  1  0  0  3  0  0  0  0  0  0
  195.6140  173.9920  145.3450 C   0  0  2  0  0  3  0  0  0  0  0  0
  196.5550  172.2040  144.0640 O   0  0  0  0  0  0  0  0  0  0  0  0
  193.5120  174.2430  143.1000 C   0  0  0  0  0  2  0  0  0  0  0  0
  2  1  1  6  0  0  0
  2 29  1  0  0  0  0
  3  4  2  0  0  0  0
  3  2  1  0  0  0  0
  5  6  1  0  0  0  0
  5  4  1  0  0  0  0
  7  9  2  0  0  0  0
  8 13  1  6  0  0  0
  8 10  1  0  0  0  0
  8 11  1  0  0  0  0
 10 12  1  0  0  0  0
 11  7  1  0  0  0  0
 12 16  1  6  0  0  0
 12  6  1  0  0  0  0
 12  9  1  0  0  0  0
 14 13  1  0  0  0  0
 15 14  1  0  0  0  0
 15 13  1  0  0  0  0
 17 18  2  0  0  0  0
 20 16  1  6  0  0  0
 21 20  1  0  0  0  0
 21 18  1  0  0  0  0
 22 19  2  0  0  0  0
 22 20  1  0  0  0  0
 23 24  1  6  0  0  0
 23 22  1  0  0  0  0
 23 17  1  0  0  0  0
 26 28  1  0  0  0  0
 27 28  1  0  0  0  0
 28 24  1  0  0  0  0
 28 25  1  0  0  0  0
 29 30  1  6  0  0  0
 29 31  1  0  0  0  0
 31 32  1  0  0  0  0
 32 33  1  0  0  0  0
 33 35  1  0  0  0  0
 34 35  2  0  0  0  0
 34 36  1  0  0  0  0
 37 42  1  1  0  0  0
 37 36  1  0  0  0  0
 38 40  2  0  0  0  0
 39 40  1  0  0  0  0
 39 37  1  0  0  0  0
 40 41  1  0  0  0  0
 43 52  1  0  0  0  0
 43 49  1  1  0  0  0
 45 48  1  0  0  0  0
 45 42  1  1  0  0  0
 46 50  1  0  0  0  0
 47 48  2  0  0  0  0
 48 53  1  0  0  0  0
 48 44  2  0  0  0  0
 50 51  1  0  0  0  0
 52 54  1  1  0  0  0
 52 53  1  0  0  0  0
 53 51  1  6  0  0  0
 54 46  1  0  0  0  0
 55 43  1  0  0  0  0
 55 45  1  0  0  0  0
M  END
>  <MODEL>
6

>  <REMARK>
 VINA RESULT:      -5.3      3.400      5.779
  Name = 
  19 active torsions:
  status: ('A' for Active; 'I' for Inactive)
    1  A    between atoms: C_2  and  C_44
    2  A    between atoms: C_6  and  C_46
    3  A    between atoms: N_8  and  C_22
    4  A    between atoms: C_10  and  N_32
    5  A    between atoms: C_17  and  O_36
    6  A    between atoms: O_19  and  C_40
    7  A    between atoms: O_19  and  C_45
    8  A    between atoms: C_22  and  C_35
    9  A    between atoms: C_22  and  C_46
   10  A    between atoms: C_24  and  C_31
   11  A    between atoms: C_24  and  C_44
   12  A    between atoms: C_27  and  C_31
   13  A    between atoms: C_27  and  C_54
   14  A    between atoms: C_28  and  C_49
   15  A    between atoms: O_33  and  C_49
   16  A    between atoms: O_33  and  C_52
   17  A    between atoms: C_35  and  C_43
   18  A    between atoms: O_36  and  C_52
   19  A    between atoms: C_51  and  C_54
                            x       y       z     vdW  Elec       q    Type
                         _______ _______ _______ _____ _____    ______ ____

>  <TORSDO>
F 19

$$$$
=
 OpenBabel11052419373D

 55 59  0  0  1  0  0  0  0  0999 V2000
  193.5320  175.5120  143.2070 O   0  0  0  0  0  1  0  0  0  0  0  0
  193.5110  176.0170  144.5090 C   0  0  1  0  0  3  0  0  0  0  0  0
  192.1770  176.6570  144.7460 C   0  0  0  0  0  3  0  0  0  0  0  0
  191.5590  176.5710  145.9240 C   0  0  0  0  0  3  0  0  0  0  0  0
  190.2330  177.2220  146.1100 C   0  0  0  0  0  2  0  0  0  0  0  0
  189.5630  177.2980  144.8730 O   0  0  0  0  0  0  0  0  0  0  0  0
  186.9300  176.4610  147.1040 C   0  0  0  0  0  3  0  0  0  0  0  0
  185.8780  177.2480  145.0210 N   0  0  1  0  0  0  0  0  0  0  0  0
  188.0810  176.2920  146.4440 C   0  0  0  0  0  3  0  0  0  0  0  0
  187.1970  177.7830  144.6890 C   0  0  0  0  0  2  0  0  0  0  0  0
  185.7740  177.2030  146.4800 C   0  0  0  0  0  2  0  0  0  0  0  0
  188.2730  176.7240  144.9980 C   0  0  1  0  0  0  0  0  0  0  0  0
  184.8860  178.2100  144.5580 C   0  0  0  0  0  3  0  0  0  0  0  0
  185.5730  179.3710  143.8550 C   0  0  0  0  0  2  0  0  0  0  0  0
  184.9160  178.2720  143.0390 C   0  0  0  0  0  2  0  0  0  0  0  0
  188.0880  175.6410  144.0760 O   0  0  0  0  0  0  0  0  0  0  0  0
  191.0000  173.3050  142.0430 C   0  0  0  0  0  3  0  0  0  0  0  0
  190.8130  173.0860  143.3560 C   0  0  0  0  0  3  0  0  0  0  0  0
  189.1130  176.2680  141.5270 O   0  0  0  0  0  0  0  0  0  0  0  0
  189.2760  175.0500  143.5590 C   0  0  1  0  0  3  0  0  0  0  0  0
  189.5960  173.6270  144.0510 C   0  0  0  0  0  2  0  0  0  0  0  0
  189.4300  175.2160  142.0630 C   0  0  0  0  0  0  0  0  0  0  0  0
  190.0020  174.0930  141.2310 C   0  0  2  0  0  3  0  0  0  0  0  0
  188.9720  173.2350  140.8020 O   0  0  0  0  0  0  0  0  0  0  0  0
  187.5590  174.0970  139.2510 F   0  0  0  0  0  0  0  0  0  0  0  0
  188.6930  172.2280  138.7400 F   0  0  0  0  0  0  0  0  0  0  0  0
  189.7670  174.2190  138.8810 F   0  0  0  0  0  0  0  0  0  0  0  0
  188.7620  173.4370  139.4200 C   0  0  0  0  0  0  0  0  0  0  0  0
  193.7720  174.8900  145.5140 C   0  0  1  0  0  3  0  0  0  0  0  0
  193.5190  173.6510  144.9260 O   0  0  0  0  0  1  0  0  0  0  0  0
  195.2200  174.9300  145.9730 C   0  0  0  0  0  2  0  0  0  0  0  0
  196.0620  173.9560  145.1650 C   0  0  0  0  0  2  0  0  0  0  0  0
  197.0930  174.7200  144.3530 C   0  0  0  0  0  2  0  0  0  0  0  0
  196.1490  173.3870  142.5250 C   0  0  0  0  0  3  0  0  0  0  0  0
  197.0830  174.2370  142.9440 C   0  0  0  0  0  3  0  0  0  0  0  0
  196.1310  172.9240  141.1030 C   0  0  0  0  0  2  0  0  0  0  0  0
  196.0640  171.3980  141.0200 C   0  0  2  0  0  3  0  0  0  0  0  0
  195.6660  170.2390  137.5490 O   0  0  0  0  0  0  0  0  0  0  0  0
  195.4850  170.9770  139.7490 N   0  0  0  0  0  2  0  0  0  0  0  0
  196.2520  170.5760  138.6110 C   0  0  0  0  0  0  0  0  0  0  0  0
  197.6390  170.5500  138.6660 O   0  0  0  0  0  1  0  0  0  0  0  0
  195.2920  170.7990  142.1930 C   0  0  0  0  0  2  0  0  0  0  0  0
  194.0510  168.6110  144.2560 C   0  0  2  0  0  3  0  0  0  0  0  0
  197.8180  170.9660  143.9030 O   0  0  0  0  0  0  0  0  0  0  0  0
  195.9110  169.4800  142.6290 C   0  0  1  0  0  3  0  0  0  0  0  0
  195.3210  168.1830  147.6690 C   0  0  0  0  0  2  0  0  0  0  0  0
  197.9360  168.5250  144.1480 O   0  0  0  0  0  0  0  0  0  0  0  0
  197.0110  169.7020  144.0310 S   0  0  0  0  0  0  0  0  0  0  0  0
  193.1460  169.8380  144.2540 C   0  0  0  0  0  1  0  0  0  0  0  0
  196.7330  168.7690  147.3980 C   0  0  0  0  0  2  0  0  0  0  0  0
  196.6690  169.9770  146.6650 O   0  0  0  0  0  0  0  0  0  0  0  0
  195.0110  168.5860  145.4460 C   0  0  1  0  0  3  0  0  0  0  0  0
  195.9520  169.7970  145.4500 C   0  0  2  0  0  3  0  0  0  0  0  0
  194.3540  168.5150  146.6850 O   0  0  0  0  0  0  0  0  0  0  0  0
  194.8130  168.4370  142.9260 C   0  0  0  0  0  2  0  0  0  0  0  0
  2  1  1  6  0  0  0
  2  3  1  0  0  0  0
  2 29  1  0  0  0  0
  3  4  2  0  0  0  0
  4  5  1  0  0  0  0
  6 12  1  0  0  0  0
  6  5  1  0  0  0  0
  8 13  1  1  0  0  0
  8 11  1  0  0  0  0
  9  7  2  0  0  0  0
 10 12  1  0  0  0  0
 10  8  1  0  0  0  0
 11  7  1  0  0  0  0
 12 16  1  6  0  0  0
 12  9  1  0  0  0  0
 14 13  1  0  0  0  0
 15 14  1  0  0  0  0
 15 13  1  0  0  0  0
 17 18  2  0  0  0  0
 18 21  1  0  0  0  0
 19 22  2  0  0  0  0
 20 21  1  0  0  0  0
 20 16  1  6  0  0  0
 22 20  1  0  0  0  0
 23 24  1  1  0  0  0
 23 17  1  0  0  0  0
 23 22  1  0  0  0  0
 25 28  1  0  0  0  0
 26 28  1  0  0  0  0
 27 28  1  0  0  0  0
 28 24  1  0  0  0  0
 29 30  1  6  0  0  0
 29 31  1  0  0  0  0
 32 31  1  0  0  0  0
 33 32  1  0  0  0  0
 34 35  2  0  0  0  0
 35 33  1  0  0  0  0
 36 34  1  0  0  0  0
 37 36  1  1  0  0  0
 37 42  1  0  0  0  0
 38 40  2  0  0  0  0
 39 37  1  0  0  0  0
 40 41  1  0  0  0  0
 40 39  1  0  0  0  0
 43 49  1  6  0  0  0
 43 52  1  0  0  0  0
 44 48  2  0  0  0  0
 45 42  1  1  0  0  0
 45 55  1  0  0  0  0
 45 48  1  0  0  0  0
 48 47  2  0  0  0  0
 48 53  1  0  0  0  0
 50 46  1  0  0  0  0
 51 50  1  0  0  0  0
 52 53  1  0  0  0  0
 52 54  1  1  0  0  0
 53 51  1  1  0  0  0
 54 46  1  0  0  0  0
 55 43  1  0  0  0  0
M  END
>  <MODEL>
7

>  <REMARK>
 VINA RESULT:      -5.2      3.123      9.480
  Name = 
  19 active torsions:
  status: ('A' for Active; 'I' for Inactive)
    1  A    between atoms: C_2  and  C_44
    2  A    between atoms: C_6  and  C_46
    3  A    between atoms: N_8  and  C_22
    4  A    between atoms: C_10  and  N_32
    5  A    between atoms: C_17  and  O_36
    6  A    between atoms: O_19  and  C_40
    7  A    between atoms: O_19  and  C_45
    8  A    between atoms: C_22  and  C_35
    9  A    between atoms: C_22  and  C_46
   10  A    between atoms: C_24  and  C_31
   11  A    between atoms: C_24  and  C_44
   12  A    between atoms: C_27  and  C_31
   13  A    between atoms: C_27  and  C_54
   14  A    between atoms: C_28  and  C_49
   15  A    between atoms: O_33  and  C_49
   16  A    between atoms: O_33  and  C_52
   17  A    between atoms: C_35  and  C_43
   18  A    between atoms: O_36  and  C_52
   19  A    between atoms: C_51  and  C_54
                            x       y       z     vdW  Elec       q    Type
                         _______ _______ _______ _____ _____    ______ ____

>  <TORSDO>
F 19

$$$$
=
 OpenBabel11052419373D

 55 59  0  0  1  0  0  0  0  0999 V2000
  186.9130  174.5150  142.4180 O   0  0  0  0  0  1  0  0  0  0  0  0
  188.1490  175.0010  141.9870 C   0  0  1  0  0  3  0  0  0  0  0  0
  188.9790  173.8400  141.5320 C   0  0  0  0  0  3  0  0  0  0  0  0
  190.2970  173.9470  141.3580 C   0  0  0  0  0  3  0  0  0  0  0  0
  191.0790  172.7650  140.9020 C   0  0  0  0  0  2  0  0  0  0  0  0
  192.1290  173.1860  140.0630 O   0  0  0  0  0  0  0  0  0  0  0  0
  190.4990  170.7160  138.1000 C   0  0  0  0  0  3  0  0  0  0  0  0
  190.4430  172.8090  136.8040 N   0  0  1  0  0  0  0  0  0  0  0  0
  191.4620  171.2340  138.8710 C   0  0  0  0  0  3  0  0  0  0  0  0
  190.7920  173.4660  138.0620 C   0  0  0  0  0  2  0  0  0  0  0  0
  189.7240  171.5770  137.1340 C   0  0  0  0  0  2  0  0  0  0  0  0
  191.9220  172.6790  138.7550 C   0  0  1  0  0  0  0  0  0  0  0  0
  189.4980  173.6720  136.1060 C   0  0  0  0  0  3  0  0  0  0  0  0
  190.1920  174.9510  135.6610 C   0  0  0  0  0  2  0  0  0  0  0  0
  189.9420  173.8360  134.6600 C   0  0  0  0  0  2  0  0  0  0  0  0
  193.0980  172.8140  137.9460 O   0  0  0  0  0  0  0  0  0  0  0  0
  196.6730  174.9770  138.7300 C   0  0  0  0  0  3  0  0  0  0  0  0
  196.4330  173.8660  139.4460 C   0  0  0  0  0  3  0  0  0  0  0  0
  193.5740  175.4470  137.0620 O   0  0  0  0  0  0  0  0  0  0  0  0
  194.1360  173.6290  138.4830 C   0  0  1  0  0  3  0  0  0  0  0  0
  195.3810  172.8880  139.0040 C   0  0  0  0  0  2  0  0  0  0  0  0
  194.4680  174.8260  137.6200 C   0  0  0  0  0  0  0  0  0  0  0  0
  195.9010  175.2790  137.4700 C   0  0  2  0  0  3  0  0  0  0  0  0
  196.5060  174.6150  136.3860 O   0  0  0  0  0  0  0  0  0  0  0  0
  195.6900  175.8630  134.6770 F   0  0  0  0  0  0  0  0  0  0  0  0
  197.7860  175.0740  134.5160 F   0  0  0  0  0  0  0  0  0  0  0  0
  197.2950  176.7360  135.9770 F   0  0  0  0  0  0  0  0  0  0  0  0
  196.8330  175.5690  135.3970 C   0  0  0  0  0  0  0  0  0  0  0  0
  187.9500  176.0170  140.8580 C   0  0  1  0  0  3  0  0  0  0  0  0
  187.8000  175.3590  139.6370 O   0  0  0  0  0  1  0  0  0  0  0  0
  186.7070  176.8510  141.1230 C   0  0  0  0  0  2  0  0  0  0  0  0
  187.0450  178.0480  141.9970 C   0  0  0  0  0  2  0  0  0  0  0  0
  185.7670  178.7250  142.4570 C   0  0  0  0  0  2  0  0  0  0  0  0
  185.8520  177.1460  144.3300 C   0  0  0  0  0  3  0  0  0  0  0  0
  185.4640  178.3290  143.8610 C   0  0  0  0  0  3  0  0  0  0  0  0
  185.5640  176.7640  145.7470 C   0  0  0  0  0  2  0  0  0  0  0  0
  186.8240  176.8540  146.6100 C   0  0  2  0  0  3  0  0  0  0  0  0
  186.0040  180.0870  148.1660 O   0  0  0  0  0  1  0  0  0  0  0  0
  186.9340  178.1710  147.2260 N   0  0  0  0  0  2  0  0  0  0  0  0
  185.8150  178.9530  147.6540 C   0  0  0  0  0  0  0  0  0  0  0  0
  184.5210  178.4700  147.5160 O   0  0  0  0  0  0  0  0  0  0  0  0
  188.0830  176.5210  145.8130 C   0  0  0  0  0  2  0  0  0  0  0  0
  191.0280  177.5250  144.8610 C   0  0  2  0  0  3  0  0  0  0  0  0
  189.3280  173.9760  146.9530 O   0  0  0  0  0  0  0  0  0  0  0  0
  189.3270  176.6940  146.6720 C   0  0  1  0  0  3  0  0  0  0  0  0
  193.8700  175.2340  144.5140 C   0  0  0  0  0  2  0  0  0  0  0  0
  191.1750  175.2220  147.9900 O   0  0  0  0  0  0  0  0  0  0  0  0
  190.2480  175.1590  146.8090 S   0  0  0  0  0  0  0  0  0  0  0  0
  190.1530  177.3610  143.6240 C   0  0  0  0  0  1  0  0  0  0  0  0
  193.3330  174.1510  145.4880 C   0  0  0  0  0  2  0  0  0  0  0  0
  191.9720  173.8530  145.2440 O   0  0  0  0  0  0  0  0  0  0  0  0
  191.9560  176.3320  145.0910 C   0  0  1  0  0  3  0  0  0  0  0  0
  191.1760  175.0290  145.3040 C   0  0  2  0  0  3  0  0  0  0  0  0
  192.8820  176.1440  144.0530 O   0  0  0  0  0  0  0  0  0  0  0  0
  190.2060  177.8400  146.1290 C   0  0  0  0  0  2  0  0  0  0  0  0
  2  1  1  6  0  0  0
  3  2  1  0  0  0  0
  4  3  2  0  0  0  0
  5  4  1  0  0  0  0
  6  5  1  0  0  0  0
  7  9  2  0  0  0  0
  8 13  1  6  0  0  0
  8 11  1  0  0  0  0
  8 10  1  0  0  0  0
 10 12  1  0  0  0  0
 11  7  1  0  0  0  0
 12 16  1  6  0  0  0
 12  9  1  0  0  0  0
 12  6  1  0  0  0  0
 14 13  1  0  0  0  0
 15 14  1  0  0  0  0
 15 13  1  0  0  0  0
 17 18  2  0  0  0  0
 19 22  2  0  0  0  0
 20 16  1  6  0  0  0
 20 21  1  0  0  0  0
 21 18  1  0  0  0  0
 22 20  1  0  0  0  0
 23 24  1  6  0  0  0
 23 22  1  0  0  0  0
 23 17  1  0  0  0  0
 25 28  1  0  0  0  0
 26 28  1  0  0  0  0
 28 27  1  0  0  0  0
 28 24  1  0  0  0  0
 29 30  1  6  0  0  0
 29 31  1  0  0  0  0
 29  2  1  0  0  0  0
 31 32  1  0  0  0  0
 32 33  1  0  0  0  0
 33 35  1  0  0  0  0
 34 36  1  0  0  0  0
 35 34  2  0  0  0  0
 37 36  1  6  0  0  0
 37 39  1  0  0  0  0
 39 40  1  0  0  0  0
 40 38  1  0  0  0  0
 41 40  2  0  0  0  0
 42 37  1  0  0  0  0
 43 49  1  6  0  0  0
 43 52  1  0  0  0  0
 43 55  1  0  0  0  0
 45 42  1  6  0  0  0
 45 48  1  0  0  0  0
 46 50  1  0  0  0  0
 48 44  2  0  0  0  0
 48 47  2  0  0  0  0
 51 50  1  0  0  0  0
 52 54  1  6  0  0  0
 52 53  1  0  0  0  0
 53 51  1  1  0  0  0
 53 48  1  0  0  0  0
 54 46  1  0  0  0  0
 55 45  1  0  0  0  0
M  END
>  <MODEL>
8

>  <REMARK>
 VINA RESULT:      -5.2      3.480      5.397
  Name = 
  19 active torsions:
  status: ('A' for Active; 'I' for Inactive)
    1  A    between atoms: C_2  and  C_44
    2  A    between atoms: C_6  and  C_46
    3  A    between atoms: N_8  and  C_22
    4  A    between atoms: C_10  and  N_32
    5  A    between atoms: C_17  and  O_36
    6  A    between atoms: O_19  and  C_40
    7  A    between atoms: O_19  and  C_45
    8  A    between atoms: C_22  and  C_35
    9  A    between atoms: C_22  and  C_46
   10  A    between atoms: C_24  and  C_31
   11  A    between atoms: C_24  and  C_44
   12  A    between atoms: C_27  and  C_31
   13  A    between atoms: C_27  and  C_54
   14  A    between atoms: C_28  and  C_49
   15  A    between atoms: O_33  and  C_49
   16  A    between atoms: O_33  and  C_52
   17  A    between atoms: C_35  and  C_43
   18  A    between atoms: O_36  and  C_52
   19  A    between atoms: C_51  and  C_54
                            x       y       z     vdW  Elec       q    Type
                         _______ _______ _______ _____ _____    ______ ____

>  <TORSDO>
F 19

$$$$
=
 OpenBabel11052419373D

 55 59  0  0  1  0  0  0  0  0999 V2000
  197.3690  174.2020  145.1960 O   0  0  0  0  0  1  0  0  0  0  0  0
  196.1800  174.0560  145.9130 C   0  0  1  0  0  3  0  0  0  0  0  0
  195.3180  175.2520  145.6490 C   0  0  0  0  0  3  0  0  0  0  0  0
  194.3330  175.6020  146.4760 C   0  0  0  0  0  3  0  0  0  0  0  0
  193.5020  176.7990  146.1680 C   0  0  0  0  0  2  0  0  0  0  0  0
  192.1440  176.4290  146.1020 O   0  0  0  0  0  0  0  0  0  0  0  0
  193.1350  176.4060  142.6920 C   0  0  0  0  0  3  0  0  0  0  0  0
  191.0570  175.0940  142.8410 N   0  0  1  0  0  0  0  0  0  0  0  0
  192.8700  176.9380  143.8910 C   0  0  0  0  0  3  0  0  0  0  0  0
  191.3070  175.0700  144.2800 C   0  0  0  0  0  2  0  0  0  0  0  0
  192.3510  175.2290  142.1700 C   0  0  0  0  0  2  0  0  0  0  0  0
  191.7050  176.4810  144.7560 C   0  0  1  0  0  0  0  0  0  0  0  0
  190.5230  173.7910  142.4670 C   0  0  0  0  0  3  0  0  0  0  0  0
  189.0740  173.6730  142.9140 C   0  0  0  0  0  2  0  0  0  0  0  0
  189.3960  173.9790  141.4620 C   0  0  0  0  0  2  0  0  0  0  0  0
  190.5540  177.3240  144.6100 O   0  0  0  0  0  0  0  0  0  0  0  0
  186.5980  176.6560  146.0150 C   0  0  0  0  0  3  0  0  0  0  0  0
  187.6140  176.5100  146.8830 C   0  0  0  0  0  3  0  0  0  0  0  0
  188.3230  176.9650  142.9270 O   0  0  0  0  0  0  0  0  0  0  0  0
  189.3210  176.7840  145.0740 C   0  0  1  0  0  3  0  0  0  0  0  0
  188.9790  177.0440  146.5530 C   0  0  0  0  0  2  0  0  0  0  0  0
  188.1610  177.0390  144.1370 C   0  0  0  0  0  0  0  0  0  0  0  0
  186.7930  177.3550  144.6920 C   0  0  2  0  0  3  0  0  0  0  0  0
  186.6550  178.7430  144.8760 O   0  0  0  0  0  0  0  0  0  0  0  0
  184.4820  178.5020  144.2720 F   0  0  0  0  0  0  0  0  0  0  0  0
  185.9800  179.0260  142.6830 F   0  0  0  0  0  0  0  0  0  0  0  0
  185.3850  180.5550  144.2490 F   0  0  0  0  0  0  0  0  0  0  0  0
  185.6390  179.2150  144.0170 C   0  0  0  0  0  0  0  0  0  0  0  0
  195.4730  172.7600  145.5010 C   0  0  1  0  0  3  0  0  0  0  0  0
  194.6480  172.9900  144.3990 O   0  0  0  0  0  1  0  0  0  0  0  0
  196.5010  171.7030  145.1330 C   0  0  0  0  0  2  0  0  0  0  0  0
  195.8220  170.3690  144.8710 C   0  0  0  0  0  2  0  0  0  0  0  0
  196.2120  169.8550  143.4960 C   0  0  0  0  0  2  0  0  0  0  0  0
  196.8150  171.0090  141.4200 C   0  0  0  0  0  3  0  0  0  0  0  0
  196.9250  170.9230  142.7430 C   0  0  0  0  0  3  0  0  0  0  0  0
  197.5160  172.0980  140.6710 C   0  0  0  0  0  2  0  0  0  0  0  0
  196.5260  172.9410  139.8660 C   0  0  2  0  0  3  0  0  0  0  0  0
  196.2390  176.4340  140.9890 O   0  0  0  0  0  1  0  0  0  0  0  0
  196.1500  174.1400  140.6050 N   0  0  0  0  0  2  0  0  0  0  0  0
  196.6080  175.4570  140.2860 C   0  0  0  0  0  0  0  0  0  0  0  0
  197.4510  175.6700  139.2040 O   0  0  0  0  0  0  0  0  0  0  0  0
  195.2900  172.1380  139.4680 C   0  0  0  0  0  2  0  0  0  0  0  0
  192.0900  171.5540  139.4260 C   0  0  2  0  0  3  0  0  0  0  0  0
  195.2170  172.7050  136.4670 O   0  0  0  0  0  0  0  0  0  0  0  0
  194.1850  173.0590  138.9720 C   0  0  1  0  0  3  0  0  0  0  0  0
  190.2690  170.7930  136.3360 C   0  0  0  0  0  2  0  0  0  0  0  0
  193.1840  174.0700  136.6710 O   0  0  0  0  0  0  0  0  0  0  0  0
  193.9170  172.8730  137.2070 S   0  0  0  0  0  0  0  0  0  0  0  0
  192.8050  170.2810  139.8620 C   0  0  0  0  0  1  0  0  0  0  0  0
  191.2810  171.4700  135.3730 C   0  0  0  0  0  2  0  0  0  0  0  0
  192.6160  171.1130  135.6780 O   0  0  0  0  0  0  0  0  0  0  0  0
  191.7000  171.5370  137.9480 C   0  0  1  0  0  3  0  0  0  0  0  0
  192.9250  171.4140  137.0320 C   0  0  2  0  0  3  0  0  0  0  0  0
  190.7880  170.5180  137.6280 O   0  0  0  0  0  0  0  0  0  0  0  0
  192.8870  172.8290  139.7740 C   0  0  0  0  0  2  0  0  0  0  0  0
  2  1  1  6  0  0  0
  3  2  1  0  0  0  0
  3  4  2  0  0  0  0
  5  4  1  0  0  0  0
  6  5  1  0  0  0  0
  7  9  2  0  0  0  0
  8 13  1  6  0  0  0
  8 10  1  0  0  0  0
  9 12  1  0  0  0  0
 10 12  1  0  0  0  0
 11  7  1  0  0  0  0
 11  8  1  0  0  0  0
 12 16  1  6  0  0  0
 12  6  1  0  0  0  0
 13 14  1  0  0  0  0
 15 13  1  0  0  0  0
 15 14  1  0  0  0  0
 17 18  2  0  0  0  0
 19 22  2  0  0  0  0
 20 16  1  6  0  0  0
 20 21  1  0  0  0  0
 21 18  1  0  0  0  0
 22 23  1  0  0  0  0
 22 20  1  0  0  0  0
 23 24  1  1  0  0  0
 23 17  1  0  0  0  0
 26 28  1  0  0  0  0
 28 27  1  0  0  0  0
 28 25  1  0  0  0  0
 28 24  1  0  0  0  0
 29 30  1  6  0  0  0
 29  2  1  0  0  0  0
 31 29  1  0  0  0  0
 32 31  1  0  0  0  0
 33 32  1  0  0  0  0
 34 35  2  0  0  0  0
 35 33  1  0  0  0  0
 36 34  1  0  0  0  0
 37 42  1  1  0  0  0
 37 39  1  0  0  0  0
 37 36  1  0  0  0  0
 40 39  1  0  0  0  0
 40 38  1  0  0  0  0
 41 40  2  0  0  0  0
 43 55  1  0  0  0  0
 43 49  1  6  0  0  0
 44 48  2  0  0  0  0
 45 42  1  1  0  0  0
 45 55  1  0  0  0  0
 46 54  1  0  0  0  0
 47 48  2  0  0  0  0
 48 45  1  0  0  0  0
 50 51  1  0  0  0  0
 50 46  1  0  0  0  0
 52 54  1  1  0  0  0
 52 43  1  0  0  0  0
 53 51  1  6  0  0  0
 53 48  1  0  0  0  0
 53 52  1  0  0  0  0
M  END
>  <MODEL>
9

>  <REMARK>
 VINA RESULT:      -5.1      3.290      9.398
  Name = 
  19 active torsions:
  status: ('A' for Active; 'I' for Inactive)
    1  A    between atoms: C_2  and  C_44
    2  A    between atoms: C_6  and  C_46
    3  A    between atoms: N_8  and  C_22
    4  A    between atoms: C_10  and  N_32
    5  A    between atoms: C_17  and  O_36
    6  A    between atoms: O_19  and  C_40
    7  A    between atoms: O_19  and  C_45
    8  A    between atoms: C_22  and  C_35
    9  A    between atoms: C_22  and  C_46
   10  A    between atoms: C_24  and  C_31
   11  A    between atoms: C_24  and  C_44
   12  A    between atoms: C_27  and  C_31
   13  A    between atoms: C_27  and  C_54
   14  A    between atoms: C_28  and  C_49
   15  A    between atoms: O_33  and  C_49
   16  A    between atoms: O_33  and  C_52
   17  A    between atoms: C_35  and  C_43
   18  A    between atoms: O_36  and  C_52
   19  A    between atoms: C_51  and  C_54
                            x       y       z     vdW  Elec       q    Type
                         _______ _______ _______ _____ _____    ______ ____

>  <TORSDO>
F 19

$$$$
