=
 OpenBabel11052420253D

 34 38  0  0  1  0  0  0  0  0999 V2000
  189.6270  175.3270  144.8380 C   0  0  0  0  0  0  0  0  0  0  0  0
  187.1600  177.3830  146.7780 C   0  0  0  0  0  3  0  0  0  0  0  0
  189.5700  177.4850  146.8710 C   0  0  0  0  0  2  0  0  0  0  0  0
  190.7990  173.5390  143.6500 C   0  0  0  0  0  0  0  0  0  0  0  0
  189.6870  174.3750  143.8060 C   0  0  0  0  0  3  0  0  0  0  0  0
  191.8250  174.5800  145.5890 C   0  0  0  0  0  0  0  0  0  0  0  0
  192.9020  174.6270  146.4690 O   0  0  0  0  0  1  0  0  0  0  0  0
  191.8590  173.6490  144.5460 C   0  0  0  0  0  3  0  0  0  0  0  0
  190.6420  176.4360  146.8460 C   0  0  0  0  0  0  0  0  0  0  0  0
  190.7030  175.4280  145.7510 C   0  0  0  0  0  0  0  0  0  0  0  0
  191.5260  176.4700  147.7400 O   0  0  0  0  0  0  0  0  0  0  0  0
  185.8220  176.9510  146.2780 C   0  0  0  0  0  2  0  0  0  0  0  0
  185.5720  177.4810  144.9020 C   0  0  0  0  0  0  0  0  0  0  0  0
  186.3370  177.1090  143.8660 C   0  0  0  0  0  3  0  0  0  0  0  0
  188.3160  177.0180  146.2160 C   0  0  0  0  0  0  0  0  0  0  0  0
  187.5600  176.2830  143.9520 C   0  0  0  0  0  3  0  0  0  0  0  0
  188.4190  176.1830  144.9880 C   0  0  0  0  0  0  0  0  0  0  0  0
  184.3990  178.3470  144.6740 C   0  0  0  0  0  0  0  0  0  0  0  0
  183.9280  178.5550  143.3800 O   0  0  0  0  0  0  0  0  0  0  0  0
  183.8410  178.9420  145.6360 O   0  0  0  0  0  1  0  0  0  0  0  0
  190.8630  172.5460  142.6630 O   0  0  0  0  0  0  0  0  0  0  0  0
  188.3540  173.0560  139.9490 C   0  0  0  0  0  3  0  0  0  0  0  0
  191.1660  172.6710  140.3350 C   0  0  0  0  0  3  0  0  0  0  0  0
  189.8550  174.3620  136.7570 N   0  0  0  0  0  0  0  0  0  0  0  0
  189.4380  175.1730  135.6480 C   0  0  0  0  0  0  0  0  0  0  0  0
  188.9070  174.0300  137.7830 C   0  0  0  0  0  3  0  0  0  0  0  0
  190.2980  175.7270  134.9130 O   0  0  0  0  0  0  0  0  0  0  0  0
  189.2840  173.3080  138.8400 C   0  0  0  0  0  0  0  0  0  0  0  0
  188.0880  175.3320  135.3610 O   0  0  0  0  0  1  0  0  0  0  0  0
  191.6610  173.3480  137.9950 C   0  0  0  0  0  3  0  0  0  0  0  0
  190.6670  172.7040  138.9180 C   0  0  1  0  0  3  0  0  0  0  0  0
  191.2510  174.0930  136.9630 C   0  0  0  0  0  3  0  0  0  0  0  0
  190.3180  172.6170  141.3730 C   0  0  0  0  0  0  0  0  0  0  0  0
  188.8490  172.7110  141.1430 C   0  0  0  0  0  3  0  0  0  0  0  0
  1 17  1  0  0  0  0
  1 10  1  0  0  0  0
  4  5  1  0  0  0  0
  4  8  2  0  0  0  0
  5  1  2  0  0  0  0
  6 10  2  0  0  0  0
  6  7  1  0  0  0  0
  8  6  1  0  0  0  0
  9  3  1  0  0  0  0
  9 11  2  0  0  0  0
 10  9  1  0  0  0  0
 12  2  1  0  0  0  0
 13 12  1  0  0  0  0
 14 16  1  0  0  0  0
 14 13  2  0  0  0  0
 15  2  2  0  0  0  0
 15  3  1  0  0  0  0
 16 17  2  0  0  0  0
 17 15  1  0  0  0  0
 18 13  1  0  0  0  0
 18 20  1  0  0  0  0
 19 18  2  0  0  0  0
 21  4  1  0  0  0  0
 22 34  2  0  0  0  0
 23 33  2  0  0  0  0
 24 32  1  0  0  0  0
 24 26  1  0  0  0  0
 25 24  1  0  0  0  0
 26 28  2  0  0  0  0
 27 25  2  0  0  0  0
 28 31  1  0  0  0  0
 28 22  1  0  0  0  0
 29 25  1  0  0  0  0
 31 30  1  6  0  0  0
 31 23  1  0  0  0  0
 32 30  2  0  0  0  0
 33 21  1  0  0  0  0
 34 33  1  0  0  0  0
M  END
>  <MODEL>
1

>  <REMARK>
 VINA RESULT:      -8.6      0.000      0.000
  Name = 
  3 active torsions:
  status: ('A' for Active; 'I' for Inactive)
    1  A    between atoms: C_3  and  C_25
    2  A    between atoms: C_8  and  O_18
    3  A    between atoms: O_18  and  C_30
                            x       y       z     vdW  Elec       q    Type
                         _______ _______ _______ _____ _____    ______ ____

>  <TORSDO>
F 3

$$$$
=
 OpenBabel11052420253D

 34 38  0  0  1  0  0  0  0  0999 V2000
  190.2770  176.8970  144.6240 C   0  0  0  0  0  0  0  0  0  0  0  0
  186.6090  176.8250  143.8380 C   0  0  0  0  0  3  0  0  0  0  0  0
  187.6790  177.6530  145.8380 C   0  0  0  0  0  2  0  0  0  0  0  0
  192.6640  176.4010  144.8190 C   0  0  0  0  0  0  0  0  0  0  0  0
  191.5280  176.6400  144.0380 C   0  0  0  0  0  3  0  0  0  0  0  0
  191.3120  176.6480  146.8210 C   0  0  0  0  0  0  0  0  0  0  0  0
  191.2470  176.6140  148.2110 O   0  0  0  0  0  1  0  0  0  0  0  0
  192.5440  176.4050  146.2080 C   0  0  0  0  0  3  0  0  0  0  0  0
  188.8340  177.1630  146.6600 C   0  0  0  0  0  0  0  0  0  0  0  0
  190.1590  176.8920  146.0350 C   0  0  0  0  0  0  0  0  0  0  0  0
  188.6730  177.0490  147.9020 O   0  0  0  0  0  0  0  0  0  0  0  0
  186.5240  176.2780  142.4530 C   0  0  0  0  0  2  0  0  0  0  0  0
  186.9820  177.2890  141.4510 C   0  0  0  0  0  0  0  0  0  0  0  0
  188.2450  177.7370  141.4450 C   0  0  0  0  0  3  0  0  0  0  0  0
  187.7550  177.1790  144.4270 C   0  0  0  0  0  0  0  0  0  0  0  0
  189.2740  177.4250  142.4600 C   0  0  0  0  0  3  0  0  0  0  0  0
  189.0860  177.1250  143.7630 C   0  0  0  0  0  0  0  0  0  0  0  0
  186.0460  177.7190  140.3940 C   0  0  0  0  0  0  0  0  0  0  0  0
  186.2530  177.3170  139.0760 O   0  0  0  0  0  0  0  0  0  0  0  0
  185.0810  178.4860  140.6600 O   0  0  0  0  0  1  0  0  0  0  0  0
  193.9120  176.0900  144.2620 O   0  0  0  0  0  0  0  0  0  0  0  0
  196.5260  173.8210  145.6560 C   0  0  0  0  0  3  0  0  0  0  0  0
  194.1230  173.7540  144.0970 C   0  0  0  0  0  3  0  0  0  0  0  0
  195.3890  170.2490  145.9690 N   0  0  0  0  0  0  0  0  0  0  0  0
  195.6710  169.1210  146.8100 C   0  0  0  0  0  0  0  0  0  0  0  0
  196.1270  171.4670  146.1510 C   0  0  0  0  0  3  0  0  0  0  0  0
  194.8510  168.1680  146.8830 O   0  0  0  0  0  0  0  0  0  0  0  0
  195.8550  172.5390  145.4040 C   0  0  0  0  0  0  0  0  0  0  0  0
  196.8580  169.0580  147.5290 O   0  0  0  0  0  1  0  0  0  0  0  0
  193.9390  171.2870  144.3430 C   0  0  0  0  0  3  0  0  0  0  0  0
  194.8730  172.4610  144.2590 C   0  0  1  0  0  3  0  0  0  0  0  0
  194.2250  170.2420  145.1260 C   0  0  0  0  0  3  0  0  0  0  0  0
  194.6560  174.9220  144.4860 C   0  0  0  0  0  0  0  0  0  0  0  0
  195.9610  174.9460  145.2030 C   0  0  0  0  0  3  0  0  0  0  0  0
  1 10  1  0  0  0  0
  2 15  2  0  0  0  0
  3  9  1  0  0  0  0
  4  8  2  0  0  0  0
  5  1  2  0  0  0  0
  5  4  1  0  0  0  0
  6  7  1  0  0  0  0
  8  6  1  0  0  0  0
  9 11  2  0  0  0  0
 10  9  1  0  0  0  0
 10  6  2  0  0  0  0
 12  2  1  0  0  0  0
 13 12  1  0  0  0  0
 14 13  2  0  0  0  0
 14 16  1  0  0  0  0
 15  3  1  0  0  0  0
 16 17  2  0  0  0  0
 17 15  1  0  0  0  0
 17  1  1  0  0  0  0
 18 20  1  0  0  0  0
 18 13  1  0  0  0  0
 19 18  2  0  0  0  0
 21 33  1  0  0  0  0
 21  4  1  0  0  0  0
 23 33  2  0  0  0  0
 24 26  1  0  0  0  0
 24 25  1  0  0  0  0
 25 27  2  0  0  0  0
 25 29  1  0  0  0  0
 28 22  1  0  0  0  0
 28 26  2  0  0  0  0
 30 32  2  0  0  0  0
 31 23  1  1  0  0  0
 31 30  1  0  0  0  0
 31 28  1  0  0  0  0
 32 24  1  0  0  0  0
 33 34  1  0  0  0  0
 34 22  2  0  0  0  0
M  END
>  <MODEL>
2

>  <REMARK>
 VINA RESULT:      -8.4      4.253      7.029
  Name = 
  3 active torsions:
  status: ('A' for Active; 'I' for Inactive)
    1  A    between atoms: C_3  and  C_25
    2  A    between atoms: C_8  and  O_18
    3  A    between atoms: O_18  and  C_30
                            x       y       z     vdW  Elec       q    Type
                         _______ _______ _______ _____ _____    ______ ____

>  <TORSDO>
F 3

$$$$
=
 OpenBabel11052420253D

 34 38  0  0  0  0  0  0  0  0999 V2000
  186.6610  177.4550  143.8280 C   0  0  0  0  0  0  0  0  0  0  0  0
  188.3340  177.5220  147.1860 C   0  0  0  0  0  3  0  0  0  0  0  0
  185.9690  177.3930  146.7110 C   0  0  0  0  0  2  0  0  0  0  0  0
  186.0410  177.8010  141.4880 C   0  0  0  0  0  0  0  0  0  0  0  0
  186.9610  177.3840  142.4570 C   0  0  0  0  0  3  0  0  0  0  0  0
  184.4860  178.4010  143.2540 C   0  0  0  0  0  0  0  0  0  0  0  0
  183.2520  178.9400  143.6040 O   0  0  0  0  0  1  0  0  0  0  0  0
  184.8100  178.3090  141.8970 C   0  0  0  0  0  3  0  0  0  0  0  0
  185.0920  178.0560  145.6910 C   0  0  0  0  0  0  0  0  0  0  0  0
  185.4120  177.9790  144.2390 C   0  0  0  0  0  0  0  0  0  0  0  0
  184.0430  178.6240  146.0900 O   0  0  0  0  0  0  0  0  0  0  0  0
  189.7950  177.5350  146.8870 C   0  0  0  0  0  2  0  0  0  0  0  0
  190.2520  176.1980  146.4000 C   0  0  0  0  0  0  0  0  0  0  0  0
  189.7860  175.6810  145.2530 C   0  0  0  0  0  3  0  0  0  0  0  0
  187.3890  177.3170  146.2630 C   0  0  0  0  0  0  0  0  0  0  0  0
  188.7070  176.2590  144.4250 C   0  0  0  0  0  3  0  0  0  0  0  0
  187.6720  177.0240  144.8320 C   0  0  0  0  0  0  0  0  0  0  0  0
  191.3070  175.4890  147.1480 C   0  0  0  0  0  0  0  0  0  0  0  0
  192.4200  174.9870  146.4770 O   0  0  0  0  0  0  0  0  0  0  0  0
  191.1950  175.2890  148.3890 O   0  0  0  0  0  1  0  0  0  0  0  0
  186.3330  177.7920  140.1170 O   0  0  0  0  0  0  0  0  0  0  0  0
  187.0630  175.6680  137.1370 C   0  0  0  0  0  2  0  0  0  0  0  0
  187.4670  175.7370  139.9720 C   0  0  0  0  0  3  0  0  0  0  0  0
  189.9360  173.2990  137.6610 N   0  0  0  0  0  0  0  0  0  0  0  0
  190.9450  172.6680  136.8580 C   0  0  0  0  0  0  0  0  0  0  0  0
  188.9410  174.1170  137.0280 C   0  0  0  0  0  3  0  0  0  0  0  0
  191.9870  172.2120  137.3980 O   0  0  0  0  0  1  0  0  0  0  0  0
  188.0170  174.7420  137.7610 C   0  0  0  0  0  0  0  0  0  0  0  0
  190.7700  172.5320  135.4870 O   0  0  0  0  0  0  0  0  0  0  0  0
  189.1420  173.9030  139.8580 C   0  0  0  0  0  3  0  0  0  0  0  0
  187.9040  174.4950  139.2470 C   0  0  0  0  0  0  0  0  0  0  0  0
  190.0650  173.3120  139.0930 C   0  0  0  0  0  3  0  0  0  0  0  0
  186.7380  176.6830  139.3610 C   0  0  0  0  0  0  0  0  0  0  0  0
  186.4460  176.5750  137.9040 C   0  0  0  0  0  3  0  0  0  0  0  0
  1 10  1  0  0  0  0
  1 17  1  0  0  0  0
  4  8  2  0  0  0  0
  4  5  1  0  0  0  0
  5  1  2  0  0  0  0
  6  7  1  0  0  0  0
  6 10  2  0  0  0  0
  8  6  1  0  0  0  0
  9 11  2  0  0  0  0
  9  3  1  0  0  0  0
 10  9  1  0  0  0  0
 12  2  1  0  0  0  0
 13 12  1  0  0  0  0
 13 18  1  0  0  0  0
 14 13  2  0  0  0  0
 15  3  1  0  0  0  0
 15  2  2  0  0  0  0
 16 17  2  0  0  0  0
 16 14  1  0  0  0  0
 17 15  1  0  0  0  0
 18 20  1  0  0  0  0
 19 18  2  0  0  0  0
 21  4  1  0  0  0  0
 22 28  1  0  0  0  0
 22 34  1  0  0  0  0
 24 32  1  0  0  0  0
 25 27  1  0  0  0  0
 25 24  1  0  0  0  0
 26 24  1  0  0  0  0
 26 28  2  0  0  0  0
 28 31  1  0  0  0  0
 29 25  2  0  0  0  0
 31 30  1  0  0  0  0
 31 23  2  0  0  0  0
 32 30  2  0  0  0  0
 33 23  1  0  0  0  0
 33 21  1  0  0  0  0
 34 33  2  0  0  0  0
M  END
>  <MODEL>
3

>  <REMARK>
 VINA RESULT:      -8.4      1.961      5.513
  Name = 
  3 active torsions:
  status: ('A' for Active; 'I' for Inactive)
    1  A    between atoms: C_3  and  C_25
    2  A    between atoms: C_8  and  O_18
    3  A    between atoms: O_18  and  C_30
                            x       y       z     vdW  Elec       q    Type
                         _______ _______ _______ _____ _____    ______ ____

>  <TORSDO>
F 3

$$$$
=
 OpenBabel11052420253D

 34 38  0  0  1  0  0  0  0  0999 V2000
  190.1930  176.8730  144.9190 C   0  0  0  0  0  0  0  0  0  0  0  0
  187.0250  177.3160  146.8800 C   0  0  0  0  0  3  0  0  0  0  0  0
  189.2800  177.8320  147.5730 C   0  0  0  0  0  2  0  0  0  0  0  0
  191.9570  176.0750  143.4250 C   0  0  0  0  0  0  0  0  0  0  0  0
  190.6470  176.5180  143.6370 C   0  0  0  0  0  3  0  0  0  0  0  0
  192.3980  176.3110  145.8010 C   0  0  0  0  0  0  0  0  0  0  0  0
  193.2970  176.1650  146.8530 O   0  0  0  0  0  1  0  0  0  0  0  0
  192.8220  175.9740  144.5120 C   0  0  0  0  0  3  0  0  0  0  0  0
  190.5950  177.1350  147.3820 C   0  0  0  0  0  0  0  0  0  0  0  0
  191.0730  176.7600  146.0210 C   0  0  0  0  0  0  0  0  0  0  0  0
  191.3130  176.9350  148.3950 O   0  0  0  0  0  0  0  0  0  0  0  0
  185.9360  176.9060  145.9480 C   0  0  0  0  0  2  0  0  0  0  0  0
  185.7260  177.9370  144.8850 C   0  0  0  0  0  0  0  0  0  0  0  0
  186.6900  178.2270  144.0000 C   0  0  0  0  0  3  0  0  0  0  0  0
  188.2990  177.4750  146.5090 C   0  0  0  0  0  0  0  0  0  0  0  0
  188.0730  177.7050  144.0330 C   0  0  0  0  0  3  0  0  0  0  0  0
  188.7860  177.3180  145.1120 C   0  0  0  0  0  0  0  0  0  0  0  0
  184.3980  178.5670  144.7560 C   0  0  0  0  0  0  0  0  0  0  0  0
  183.8190  178.7190  143.4980 O   0  0  0  0  0  0  0  0  0  0  0  0
  183.7950  179.0150  145.7700 O   0  0  0  0  0  1  0  0  0  0  0  0
  192.4200  175.6640  142.1680 O   0  0  0  0  0  0  0  0  0  0  0  0
  191.0660  172.2360  141.5820 C   0  0  0  0  0  3  0  0  0  0  0  0
  192.8150  174.1700  140.3950 C   0  0  0  0  0  3  0  0  0  0  0  0
  191.2300  171.1630  137.9810 N   0  0  0  0  0  0  0  0  0  0  0  0
  190.4940  170.3010  137.1010 C   0  0  0  0  0  0  0  0  0  0  0  0
  190.8590  171.2420  139.3650 C   0  0  0  0  0  3  0  0  0  0  0  0
  190.5910  170.4410  135.8530 O   0  0  0  0  0  0  0  0  0  0  0  0
  191.5070  172.0660  140.1910 C   0  0  0  0  0  0  0  0  0  0  0  0
  189.6900  169.2910  137.6150 O   0  0  0  0  0  1  0  0  0  0  0  0
  192.8500  172.9330  138.2400 C   0  0  0  0  0  3  0  0  0  0  0  0
  192.7310  172.8240  139.7330 C   0  0  1  0  0  3  0  0  0  0  0  0
  192.1620  172.1140  137.4380 C   0  0  0  0  0  3  0  0  0  0  0  0
  192.2610  174.3930  141.5970 C   0  0  0  0  0  0  0  0  0  0  0  0
  191.4410  173.3340  142.2490 C   0  0  0  0  0  3  0  0  0  0  0  0
  1 17  1  0  0  0  0
  1 10  1  0  0  0  0
  4  5  1  0  0  0  0
  4  8  2  0  0  0  0
  5  1  2  0  0  0  0
  6 10  2  0  0  0  0
  6  7  1  0  0  0  0
  8  6  1  0  0  0  0
  9  3  1  0  0  0  0
  9 11  2  0  0  0  0
 10  9  1  0  0  0  0
 12  2  1  0  0  0  0
 13 12  1  0  0  0  0
 14 16  1  0  0  0  0
 14 13  2  0  0  0  0
 15  2  2  0  0  0  0
 15  3  1  0  0  0  0
 16 17  2  0  0  0  0
 17 15  1  0  0  0  0
 18 13  1  0  0  0  0
 18 20  1  0  0  0  0
 19 18  2  0  0  0  0
 21  4  1  0  0  0  0
 22 34  2  0  0  0  0
 23 33  2  0  0  0  0
 24 26  1  0  0  0  0
 25 29  1  0  0  0  0
 25 24  1  0  0  0  0
 26 28  2  0  0  0  0
 27 25  2  0  0  0  0
 28 22  1  0  0  0  0
 31 30  1  6  0  0  0
 31 28  1  0  0  0  0
 31 23  1  0  0  0  0
 32 24  1  0  0  0  0
 32 30  2  0  0  0  0
 33 21  1  0  0  0  0
 33 34  1  0  0  0  0
M  END
>  <MODEL>
4

>  <REMARK>
 VINA RESULT:      -8.3      2.328      2.598
  Name = 
  3 active torsions:
  status: ('A' for Active; 'I' for Inactive)
    1  A    between atoms: C_3  and  C_25
    2  A    between atoms: C_8  and  O_18
    3  A    between atoms: O_18  and  C_30
                            x       y       z     vdW  Elec       q    Type
                         _______ _______ _______ _____ _____    ______ ____

>  <TORSDO>
F 3

$$$$
=
 OpenBabel11052420253D

 34 38  0  0  0  0  0  0  0  0999 V2000
  191.5070  174.4540  145.1760 C   0  0  0  0  0  0  0  0  0  0  0  0
  193.3290  172.0810  142.9120 C   0  0  0  0  0  3  0  0  0  0  0  0
  194.0840  172.9950  145.0160 C   0  0  0  0  0  2  0  0  0  0  0  0
  190.1140  176.2360  146.1060 C   0  0  0  0  0  0  0  0  0  0  0  0
  190.2590  175.0810  145.3290 C   0  0  0  0  0  3  0  0  0  0  0  0
  192.4940  176.1840  146.5870 C   0  0  0  0  0  0  0  0  0  0  0  0
  193.5830  176.7850  147.2100 O   0  0  0  0  0  1  0  0  0  0  0  0
  191.2360  176.7790  146.7280 C   0  0  0  0  0  3  0  0  0  0  0  0
  193.9700  174.3530  145.6420 C   0  0  0  0  0  0  0  0  0  0  0  0
  192.6460  175.0150  145.8030 C   0  0  0  0  0  0  0  0  0  0  0  0
  195.0170  174.8900  146.0880 O   0  0  0  0  0  0  0  0  0  0  0  0
  192.3740  171.8010  141.8010 C   0  0  0  0  0  2  0  0  0  0  0  0
  191.2630  170.9130  142.2630 C   0  0  0  0  0  0  0  0  0  0  0  0
  190.4040  171.3140  143.2110 C   0  0  0  0  0  3  0  0  0  0  0  0
  192.9990  172.7440  144.0240 C   0  0  0  0  0  0  0  0  0  0  0  0
  190.5090  172.5620  143.9960 C   0  0  0  0  0  3  0  0  0  0  0  0
  191.6290  173.2400  144.3240 C   0  0  0  0  0  0  0  0  0  0  0  0
  191.0590  169.6170  141.5880 C   0  0  0  0  0  0  0  0  0  0  0  0
  191.2910  168.4290  142.2760 O   0  0  0  0  0  1  0  0  0  0  0  0
  190.7170  169.5690  140.3740 O   0  0  0  0  0  0  0  0  0  0  0  0
  188.8930  176.9120  146.2320 O   0  0  0  0  0  0  0  0  0  0  0  0
  187.8130  177.7990  142.7720 C   0  0  0  0  0  2  0  0  0  0  0  0
  186.9720  178.0520  145.4990 C   0  0  0  0  0  3  0  0  0  0  0  0
  184.1200  178.4510  142.4830 N   0  0  0  0  0  0  0  0  0  0  0  0
  183.1020  178.3310  141.4790 C   0  0  0  0  0  0  0  0  0  0  0  0
  185.4820  178.1450  142.1470 C   0  0  0  0  0  3  0  0  0  0  0  0
  181.8880  178.2900  141.8120 O   0  0  0  0  0  1  0  0  0  0  0  0
  186.4380  178.2150  143.0760 C   0  0  0  0  0  0  0  0  0  0  0  0
  183.4430  178.2850  140.1330 O   0  0  0  0  0  0  0  0  0  0  0  0
  184.6830  178.7390  144.8120 C   0  0  0  0  0  3  0  0  0  0  0  0
  186.1430  178.7510  144.4570 C   0  0  0  0  0  0  0  0  0  0  0  0
  183.7510  178.6350  143.8600 C   0  0  0  0  0  3  0  0  0  0  0  0
  188.1610  177.5080  145.1960 C   0  0  0  0  0  0  0  0  0  0  0  0
  188.6310  177.4820  143.7830 C   0  0  0  0  0  3  0  0  0  0  0  0
  1  5  2  0  0  0  0
  1 10  1  0  0  0  0
  2 15  2  0  0  0  0
  3  9  1  0  0  0  0
  4 21  1  0  0  0  0
  4  8  2  0  0  0  0
  5  4  1  0  0  0  0
  6  8  1  0  0  0  0
  6  7  1  0  0  0  0
  9 10  1  0  0  0  0
  9 11  2  0  0  0  0
 10  6  2  0  0  0  0
 12 13  1  0  0  0  0
 12  2  1  0  0  0  0
 13 14  2  0  0  0  0
 14 16  1  0  0  0  0
 15 17  1  0  0  0  0
 15  3  1  0  0  0  0
 16 17  2  0  0  0  0
 17  1  1  0  0  0  0
 18 13  1  0  0  0  0
 18 19  1  0  0  0  0
 20 18  2  0  0  0  0
 22 28  1  0  0  0  0
 22 34  1  0  0  0  0
 24 32  1  0  0  0  0
 25 27  1  0  0  0  0
 25 24  1  0  0  0  0
 26 24  1  0  0  0  0
 26 28  2  0  0  0  0
 28 31  1  0  0  0  0
 29 25  2  0  0  0  0
 31 30  1  0  0  0  0
 31 23  2  0  0  0  0
 32 30  2  0  0  0  0
 33 23  1  0  0  0  0
 33 21  1  0  0  0  0
 34 33  2  0  0  0  0
M  END
>  <MODEL>
5

>  <REMARK>
 VINA RESULT:      -8.2      3.769      7.595
  Name = 
  3 active torsions:
  status: ('A' for Active; 'I' for Inactive)
    1  A    between atoms: C_3  and  C_25
    2  A    between atoms: C_8  and  O_18
    3  A    between atoms: O_18  and  C_30
                            x       y       z     vdW  Elec       q    Type
                         _______ _______ _______ _____ _____    ______ ____

>  <TORSDO>
F 3

$$$$
=
 OpenBabel11052420253D

 34 38  0  0  1  0  0  0  0  0999 V2000
  194.1280  175.9280  143.1460 C   0  0  0  0  0  0  0  0  0  0  0  0
  197.3510  174.8300  141.5720 C   0  0  0  0  0  3  0  0  0  0  0  0
  196.3360  174.0020  143.6000 C   0  0  0  0  0  2  0  0  0  0  0  0
  192.2060  177.2070  143.9550 C   0  0  0  0  0  0  0  0  0  0  0  0
  193.0210  176.7600  142.9090 C   0  0  0  0  0  3  0  0  0  0  0  0
  193.6120  176.0080  145.5310 C   0  0  0  0  0  0  0  0  0  0  0  0
  193.8840  175.6810  146.8560 O   0  0  0  0  0  1  0  0  0  0  0  0
  192.5120  176.8270  145.2610 C   0  0  0  0  0  3  0  0  0  0  0  0
  195.6130  174.6710  144.7310 C   0  0  0  0  0  0  0  0  0  0  0  0
  194.4390  175.5520  144.4750 C   0  0  0  0  0  0  0  0  0  0  0  0
  195.9830  174.4160  145.9050 O   0  0  0  0  0  0  0  0  0  0  0  0
  197.4520  175.6220  140.3120 C   0  0  0  0  0  2  0  0  0  0  0  0
  196.4830  175.1210  139.2880 C   0  0  0  0  0  0  0  0  0  0  0  0
  195.1610  175.1860  139.4960 C   0  0  0  0  0  3  0  0  0  0  0  0
  196.2580  174.7940  142.3400 C   0  0  0  0  0  0  0  0  0  0  0  0
  194.5060  175.6030  140.7550 C   0  0  0  0  0  3  0  0  0  0  0  0
  194.9850  175.4910  142.0120 C   0  0  0  0  0  0  0  0  0  0  0  0
  197.0000  174.6440  137.9910 C   0  0  0  0  0  0  0  0  0  0  0  0
  197.1230  175.5290  136.9220 O   0  0  0  0  0  0  0  0  0  0  0  0
  197.2920  173.4280  137.8210 O   0  0  0  0  0  1  0  0  0  0  0  0
  191.1280  178.0800  143.7530 O   0  0  0  0  0  0  0  0  0  0  0  0
  187.5300  177.6630  144.6490 C   0  0  0  0  0  3  0  0  0  0  0  0
  189.3080  177.4290  142.4150 C   0  0  0  0  0  3  0  0  0  0  0  0
  185.2250  177.8410  141.6820 N   0  0  0  0  0  0  0  0  0  0  0  0
  183.8710  178.2400  141.4190 C   0  0  0  0  0  0  0  0  0  0  0  0
  185.7170  177.8670  143.0300 C   0  0  0  0  0  3  0  0  0  0  0  0
  183.5130  178.5210  140.2440 O   0  0  0  0  0  0  0  0  0  0  0  0
  186.9840  177.5350  143.2910 C   0  0  0  0  0  0  0  0  0  0  0  0
  182.9400  178.2950  142.4490 O   0  0  0  0  0  1  0  0  0  0  0  0
  187.4090  177.2950  140.8160 C   0  0  0  0  0  3  0  0  0  0  0  0
  187.8850  176.9910  142.2080 C   0  0  1  0  0  3  0  0  0  0  0  0
  186.1420  177.6560  140.5910 C   0  0  0  0  0  3  0  0  0  0  0  0
  189.7780  177.7210  143.6380 C   0  0  0  0  0  0  0  0  0  0  0  0
  188.8570  177.7320  144.8080 C   0  0  0  0  0  3  0  0  0  0  0  0
  1 10  1  0  0  0  0
  2 15  2  0  0  0  0
  3  9  1  0  0  0  0
  4  8  2  0  0  0  0
  5  1  2  0  0  0  0
  5  4  1  0  0  0  0
  6  7  1  0  0  0  0
  8  6  1  0  0  0  0
  9 11  2  0  0  0  0
 10  9  1  0  0  0  0
 10  6  2  0  0  0  0
 12  2  1  0  0  0  0
 13 14  2  0  0  0  0
 13 12  1  0  0  0  0
 14 16  1  0  0  0  0
 15  3  1  0  0  0  0
 16 17  2  0  0  0  0
 17 15  1  0  0  0  0
 17  1  1  0  0  0  0
 18 13  1  0  0  0  0
 19 18  2  0  0  0  0
 20 18  1  0  0  0  0
 21  4  1  0  0  0  0
 22 34  2  0  0  0  0
 23 33  2  0  0  0  0
 24 26  1  0  0  0  0
 25 24  1  0  0  0  0
 25 29  1  0  0  0  0
 26 28  2  0  0  0  0
 27 25  2  0  0  0  0
 28 22  1  0  0  0  0
 31 30  1  6  0  0  0
 31 23  1  0  0  0  0
 31 28  1  0  0  0  0
 32 30  2  0  0  0  0
 32 24  1  0  0  0  0
 33 21  1  0  0  0  0
 33 34  1  0  0  0  0
M  END
>  <MODEL>
6

>  <REMARK>
 VINA RESULT:      -8.2      4.152      8.396
  Name = 
  3 active torsions:
  status: ('A' for Active; 'I' for Inactive)
    1  A    between atoms: C_3  and  C_25
    2  A    between atoms: C_8  and  O_18
    3  A    between atoms: O_18  and  C_30
                            x       y       z     vdW  Elec       q    Type
                         _______ _______ _______ _____ _____    ______ ____

>  <TORSDO>
F 3

$$$$
=
 OpenBabel11052420253D

 34 38  0  0  1  0  0  0  0  0999 V2000
  191.7020  176.5470  144.3870 C   0  0  0  0  0  0  0  0  0  0  0  0
  195.3890  175.8780  144.5800 C   0  0  0  0  0  3  0  0  0  0  0  0
  193.6340  174.8990  145.9190 C   0  0  0  0  0  2  0  0  0  0  0  0
  189.4940  177.5660  144.1300 C   0  0  0  0  0  0  0  0  0  0  0  0
  190.7540  177.2400  143.6160 C   0  0  0  0  0  3  0  0  0  0  0  0
  190.1080  176.5230  146.2350 C   0  0  0  0  0  0  0  0  0  0  0  0
  189.7520  176.2110  147.5440 O   0  0  0  0  0  1  0  0  0  0  0  0
  189.1830  177.2050  145.4400 C   0  0  0  0  0  3  0  0  0  0  0  0
  192.3880  175.4550  146.5400 C   0  0  0  0  0  0  0  0  0  0  0  0
  191.3840  176.1900  145.7190 C   0  0  0  0  0  0  0  0  0  0  0  0
  192.1810  175.2290  147.7600 O   0  0  0  0  0  0  0  0  0  0  0  0
  195.9860  176.6970  143.4850 C   0  0  0  0  0  2  0  0  0  0  0  0
  195.6860  176.0980  142.1480 C   0  0  0  0  0  0  0  0  0  0  0  0
  194.4270  175.9960  141.7010 C   0  0  0  0  0  3  0  0  0  0  0  0
  194.0750  175.6950  144.7390 C   0  0  0  0  0  0  0  0  0  0  0  0
  193.2090  176.3090  142.4790 C   0  0  0  0  0  3  0  0  0  0  0  0
  193.0410  176.2360  143.8160 C   0  0  0  0  0  0  0  0  0  0  0  0
  196.8090  175.7080  141.2740 C   0  0  0  0  0  0  0  0  0  0  0  0
  196.6700  175.7760  139.8900 O   0  0  0  0  0  0  0  0  0  0  0  0
  197.8860  175.2700  141.7640 O   0  0  0  0  0  1  0  0  0  0  0  0
  188.5500  178.3030  143.4030 O   0  0  0  0  0  0  0  0  0  0  0  0
  184.9820  178.0940  144.4770 C   0  0  0  0  0  3  0  0  0  0  0  0
  186.6150  177.8940  142.1310 C   0  0  0  0  0  3  0  0  0  0  0  0
  182.5440  178.6690  141.6710 N   0  0  0  0  0  0  0  0  0  0  0  0
  181.2150  179.1880  141.5170 C   0  0  0  0  0  0  0  0  0  0  0  0
  183.1080  178.5560  142.9860 C   0  0  0  0  0  3  0  0  0  0  0  0
  180.8180  179.5820  140.3880 O   0  0  0  0  0  0  0  0  0  0  0  0
  184.3560  178.1110  143.1480 C   0  0  0  0  0  0  0  0  0  0  0  0
  180.3470  179.2360  142.6010 O   0  0  0  0  0  1  0  0  0  0  0  0
  184.6290  178.0250  140.6420 C   0  0  0  0  0  3  0  0  0  0  0  0
  185.1520  177.5830  141.9780 C   0  0  1  0  0  3  0  0  0  0  0  0
  183.3840  178.4970  140.5180 C   0  0  0  0  0  3  0  0  0  0  0  0
  187.1710  178.0570  143.3420 C   0  0  0  0  0  0  0  0  0  0  0  0
  186.3170  178.0510  144.5620 C   0  0  0  0  0  3  0  0  0  0  0  0
  1 10  1  0  0  0  0
  2 15  2  0  0  0  0
  3  9  1  0  0  0  0
  4  8  2  0  0  0  0
  5  4  1  0  0  0  0
  5  1  2  0  0  0  0
  6  7  1  0  0  0  0
  8  6  1  0  0  0  0
  9 11  2  0  0  0  0
 10  6  2  0  0  0  0
 10  9  1  0  0  0  0
 12  2  1  0  0  0  0
 13 12  1  0  0  0  0
 14 13  2  0  0  0  0
 14 16  1  0  0  0  0
 15  3  1  0  0  0  0
 16 17  2  0  0  0  0
 17  1  1  0  0  0  0
 17 15  1  0  0  0  0
 18 20  1  0  0  0  0
 18 13  1  0  0  0  0
 19 18  2  0  0  0  0
 21  4  1  0  0  0  0
 22 34  2  0  0  0  0
 23 33  2  0  0  0  0
 24 26  1  0  0  0  0
 25 24  1  0  0  0  0
 25 29  1  0  0  0  0
 26 28  2  0  0  0  0
 27 25  2  0  0  0  0
 28 22  1  0  0  0  0
 31 30  1  6  0  0  0
 31 23  1  0  0  0  0
 31 28  1  0  0  0  0
 32 30  2  0  0  0  0
 32 24  1  0  0  0  0
 33 21  1  0  0  0  0
 33 34  1  0  0  0  0
M  END
>  <MODEL>
7

>  <REMARK>
 VINA RESULT:      -8.1      4.542      8.129
  Name = 
  3 active torsions:
  status: ('A' for Active; 'I' for Inactive)
    1  A    between atoms: C_3  and  C_25
    2  A    between atoms: C_8  and  O_18
    3  A    between atoms: O_18  and  C_30
                            x       y       z     vdW  Elec       q    Type
                         _______ _______ _______ _____ _____    ______ ____

>  <TORSDO>
F 3

$$$$
=
 OpenBabel11052420253D

 34 38  0  0  1  0  0  0  0  0999 V2000
  194.8540  175.6770  142.8200 C   0  0  0  0  0  0  0  0  0  0  0  0
  197.8890  174.8160  140.7870 C   0  0  0  0  0  3  0  0  0  0  0  0
  197.1960  173.8590  142.8930 C   0  0  0  0  0  2  0  0  0  0  0  0
  192.9980  176.8180  143.9300 C   0  0  0  0  0  0  0  0  0  0  0  0
  193.6860  176.4560  142.7660 C   0  0  0  0  0  3  0  0  0  0  0  0
  194.6590  175.6400  145.2520 C   0  0  0  0  0  0  0  0  0  0  0  0
  195.1220  175.2800  146.5140 O   0  0  0  0  0  1  0  0  0  0  0  0
  193.4940  176.4070  145.1650 C   0  0  0  0  0  3  0  0  0  0  0  0
  196.5980  174.4450  144.1380 C   0  0  0  0  0  0  0  0  0  0  0  0
  195.3590  175.2700  144.0780 C   0  0  0  0  0  0  0  0  0  0  0  0
  197.1340  174.1680  145.2410 O   0  0  0  0  0  0  0  0  0  0  0  0
  197.7810  175.6580  139.5610 C   0  0  0  0  0  2  0  0  0  0  0  0
  196.7100  175.1440  138.6530 C   0  0  0  0  0  0  0  0  0  0  0  0
  195.4250  175.1280  139.0360 C   0  0  0  0  0  3  0  0  0  0  0  0
  196.9120  174.6910  141.6900 C   0  0  0  0  0  0  0  0  0  0  0  0
  194.9260  175.4610  140.3870 C   0  0  0  0  0  3  0  0  0  0  0  0
  195.5730  175.3300  141.5640 C   0  0  0  0  0  0  0  0  0  0  0  0
  197.0710  174.7430  137.2800 C   0  0  0  0  0  0  0  0  0  0  0  0
  197.3070  175.7160  136.3110 O   0  0  0  0  0  0  0  0  0  0  0  0
  197.1260  173.5250  136.9560 O   0  0  0  0  0  1  0  0  0  0  0  0
  191.8610  177.6370  143.9100 O   0  0  0  0  0  0  0  0  0  0  0  0
  189.2300  177.0690  146.4950 C   0  0  0  0  0  3  0  0  0  0  0  0
  189.5390  177.3610  143.6620 C   0  0  0  0  0  3  0  0  0  0  0  0
  185.7750  178.0040  145.3370 N   0  0  0  0  0  0  0  0  0  0  0  0
  184.5550  178.4760  145.9270 C   0  0  0  0  0  0  0  0  0  0  0  0
  186.8930  177.6910  146.1820 C   0  0  0  0  0  3  0  0  0  0  0  0
  183.6860  179.0400  145.2120 O   0  0  0  0  0  0  0  0  0  0  0  0
  188.0480  177.2860  145.6500 C   0  0  0  0  0  0  0  0  0  0  0  0
  184.3110  178.2910  147.2820 O   0  0  0  0  0  1  0  0  0  0  0  0
  187.0910  177.6530  143.3450 C   0  0  0  0  0  3  0  0  0  0  0  0
  188.1690  177.0100  144.1690 C   0  0  1  0  0  3  0  0  0  0  0  0
  185.9580  178.0770  143.9130 C   0  0  0  0  0  3  0  0  0  0  0  0
  190.6100  177.3380  144.4690 C   0  0  0  0  0  0  0  0  0  0  0  0
  190.4410  177.0770  145.9260 C   0  0  0  0  0  3  0  0  0  0  0  0
  1 10  1  0  0  0  0
  2 15  2  0  0  0  0
  3  9  1  0  0  0  0
  4  8  2  0  0  0  0
  5  1  2  0  0  0  0
  5  4  1  0  0  0  0
  6  7  1  0  0  0  0
  8  6  1  0  0  0  0
  9 11  2  0  0  0  0
 10  9  1  0  0  0  0
 10  6  2  0  0  0  0
 12  2  1  0  0  0  0
 13 14  2  0  0  0  0
 13 12  1  0  0  0  0
 14 16  1  0  0  0  0
 15  3  1  0  0  0  0
 16 17  2  0  0  0  0
 17 15  1  0  0  0  0
 17  1  1  0  0  0  0
 18 13  1  0  0  0  0
 19 18  2  0  0  0  0
 20 18  1  0  0  0  0
 21  4  1  0  0  0  0
 21 33  1  0  0  0  0
 23 31  1  0  0  0  0
 23 33  2  0  0  0  0
 24 25  1  0  0  0  0
 24 26  1  0  0  0  0
 25 29  1  0  0  0  0
 27 25  2  0  0  0  0
 28 26  2  0  0  0  0
 28 22  1  0  0  0  0
 30 32  2  0  0  0  0
 31 30  1  6  0  0  0
 31 28  1  0  0  0  0
 32 24  1  0  0  0  0
 33 34  1  0  0  0  0
 34 22  2  0  0  0  0
M  END
>  <MODEL>
8

>  <REMARK>
 VINA RESULT:      -8.1      4.425      9.445
  Name = 
  3 active torsions:
  status: ('A' for Active; 'I' for Inactive)
    1  A    between atoms: C_3  and  C_25
    2  A    between atoms: C_8  and  O_18
    3  A    between atoms: O_18  and  C_30
                            x       y       z     vdW  Elec       q    Type
                         _______ _______ _______ _____ _____    ______ ____

>  <TORSDO>
F 3

$$$$
=
 OpenBabel11052420253D

 34 38  0  0  0  0  0  0  0  0999 V2000
  191.1620  175.7770  144.2710 C   0  0  0  0  0  0  0  0  0  0  0  0
  194.4870  176.4350  145.8800 C   0  0  0  0  0  3  0  0  0  0  0  0
  192.5230  175.4560  146.8870 C   0  0  0  0  0  2  0  0  0  0  0  0
  189.1270  175.8830  142.9190 C   0  0  0  0  0  0  0  0  0  0  0  0
  190.5210  175.8260  143.0220 C   0  0  0  0  0  3  0  0  0  0  0  0
  188.9710  175.8670  145.3430 C   0  0  0  0  0  0  0  0  0  0  0  0
  188.1590  175.9180  146.4710 O   0  0  0  0  0  1  0  0  0  0  0  0
  188.3630  175.9050  144.0840 C   0  0  0  0  0  3  0  0  0  0  0  0
  191.0580  175.7580  146.7780 C   0  0  0  0  0  0  0  0  0  0  0  0
  190.3810  175.8090  145.4520 C   0  0  0  0  0  0  0  0  0  0  0  0
  190.4010  175.9030  147.8410 O   0  0  0  0  0  0  0  0  0  0  0  0
  195.3410  176.9820  144.7860 C   0  0  0  0  0  2  0  0  0  0  0  0
  195.7300  175.9050  143.8250 C   0  0  0  0  0  0  0  0  0  0  0  0
  194.8080  175.2590  143.0970 C   0  0  0  0  0  3  0  0  0  0  0  0
  193.2770  175.9050  145.6820 C   0  0  0  0  0  0  0  0  0  0  0  0
  193.3440  175.4060  143.2360 C   0  0  0  0  0  3  0  0  0  0  0  0
  192.6480  175.7400  144.3430 C   0  0  0  0  0  0  0  0  0  0  0  0
  197.1630  175.6260  143.6080 C   0  0  0  0  0  0  0  0  0  0  0  0
  197.7360  174.4720  144.1380 O   0  0  0  0  0  1  0  0  0  0  0  0
  197.8920  176.4460  142.9840 O   0  0  0  0  0  0  0  0  0  0  0  0
  188.4640  175.9860  141.6890 O   0  0  0  0  0  0  0  0  0  0  0  0
  185.7660  177.6590  139.7270 C   0  0  0  0  0  2  0  0  0  0  0  0
  186.7330  177.4030  142.4120 C   0  0  0  0  0  3  0  0  0  0  0  0
  182.7990  178.6500  141.8160 N   0  0  0  0  0  0  0  0  0  0  0  0
  181.3870  178.8240  141.6290 C   0  0  0  0  0  0  0  0  0  0  0  0
  183.6240  178.3130  140.6900 C   0  0  0  0  0  3  0  0  0  0  0  0
  180.6130  178.8110  142.6220 O   0  0  0  0  0  1  0  0  0  0  0  0
  184.9330  178.1110  140.8500 C   0  0  0  0  0  0  0  0  0  0  0  0
  180.8660  179.0330  140.3580 O   0  0  0  0  0  0  0  0  0  0  0  0
  184.6530  178.3980  143.3400 C   0  0  0  0  0  3  0  0  0  0  0  0
  185.6040  178.3680  142.1780 C   0  0  0  0  0  0  0  0  0  0  0  0
  183.3420  178.5710  143.1440 C   0  0  0  0  0  3  0  0  0  0  0  0
  187.3950  176.8420  141.3880 C   0  0  0  0  0  0  0  0  0  0  0  0
  186.9410  177.0740  139.9890 C   0  0  0  0  0  3  0  0  0  0  0  0
  1 17  1  0  0  0  0
  1 10  1  0  0  0  0
  4  5  1  0  0  0  0
  4  8  2  0  0  0  0
  5  1  2  0  0  0  0
  6 10  2  0  0  0  0
  6  7  1  0  0  0  0
  8  6  1  0  0  0  0
  9  3  1  0  0  0  0
  9 11  2  0  0  0  0
 10  9  1  0  0  0  0
 12  2  1  0  0  0  0
 13 12  1  0  0  0  0
 14 16  1  0  0  0  0
 14 13  2  0  0  0  0
 15  2  2  0  0  0  0
 15  3  1  0  0  0  0
 16 17  2  0  0  0  0
 17 15  1  0  0  0  0
 18 13  1  0  0  0  0
 18 19  1  0  0  0  0
 20 18  2  0  0  0  0
 21  4  1  0  0  0  0
 22 34  1  0  0  0  0
 22 28  1  0  0  0  0
 24 32  1  0  0  0  0
 25 24  1  0  0  0  0
 25 27  1  0  0  0  0
 26 28  2  0  0  0  0
 26 24  1  0  0  0  0
 28 31  1  0  0  0  0
 29 25  2  0  0  0  0
 31 23  2  0  0  0  0
 31 30  1  0  0  0  0
 32 30  2  0  0  0  0
 33 21  1  0  0  0  0
 33 23  1  0  0  0  0
 34 33  2  0  0  0  0
M  END
>  <MODEL>
9

>  <REMARK>
 VINA RESULT:      -8.0      3.931      7.821
  Name = 
  3 active torsions:
  status: ('A' for Active; 'I' for Inactive)
    1  A    between atoms: C_3  and  C_25
    2  A    between atoms: C_8  and  O_18
    3  A    between atoms: O_18  and  C_30
                            x       y       z     vdW  Elec       q    Type
                         _______ _______ _______ _____ _____    ______ ____

>  <TORSDO>
F 3

$$$$
