=
 OpenBabel11052421183D

 43 50  0  0  1  0  0  0  0  0999 V2000
  189.1240  175.2950  144.1760 C   0  0  0  0  0  0  0  0  0  0  0  0
  185.1490  178.2410  144.2270 C   0  0  1  0  0  3  0  0  0  0  0  0
  187.7220  177.8750  145.7170 O   0  0  0  0  0  0  0  0  0  0  0  0
  189.7590  175.8770  146.5120 C   0  0  2  0  0  3  0  0  0  0  0  0
  186.8080  178.6090  142.3900 C   0  0  0  0  0  2  0  0  0  0  0  0
  185.1220  178.4740  145.7470 C   0  0  1  0  0  3  0  0  0  0  0  0
  183.8330  178.8500  146.1230 O   0  0  0  0  0  1  0  0  0  0  0  0
  187.0490  177.2280  146.8030 C   0  0  1  0  0  3  0  0  0  0  0  0
  186.1590  179.2080  143.6230 C   0  0  2  0  0  3  0  0  0  0  0  0
  185.5390  177.2410  146.5450 C   0  0  0  0  0  2  0  0  0  0  0  0
  188.7850  175.6010  147.4990 O   0  0  0  0  0  0  0  0  0  0  0  0
  187.4990  175.7580  146.9410 C   0  0  0  0  0  2  0  0  0  0  0  0
  187.5980  177.3680  144.4230 C   0  0  0  0  0  0  0  0  0  0  0  0
  188.3550  176.3520  144.1380 C   0  0  0  0  0  0  0  0  0  0  0  0
  189.6970  174.9490  145.4140 O   0  0  0  0  0  0  0  0  0  0  0  0
  186.4270  177.7160  143.5510 C   0  0  1  0  0  0  0  0  0  0  0  0
  188.5770  174.2920  140.6280 C   0  0  0  0  0  3  0  0  0  0  0  0
  189.6590  172.1420  140.9700 N   0  0  0  0  0  0  0  0  0  0  0  0
  187.9250  172.3740  139.4580 F   0  0  0  0  0  0  0  0  0  0  0  0
  189.9990  173.2630  143.1320 C   0  0  0  0  0  3  0  0  0  0  0  0
  188.9740  175.0030  141.6780 C   0  0  0  0  0  3  0  0  0  0  0  0
  189.3690  174.4460  142.9910 C   0  0  0  0  0  0  0  0  0  0  0  0
  188.4010  172.8120  140.6780 C   0  0  2  0  0  3  0  0  0  0  0  0
  190.3400  172.3030  142.0630 C   0  0  0  0  0  3  0  0  0  0  0  0
  191.1740  175.8730  147.1030 C   0  0  2  0  0  3  0  0  0  0  0  0
  191.3520  176.9980  148.1110 C   0  0  0  0  0  1  0  0  0  0  0  0
  192.2010  176.0680  145.9940 C   0  0  2  0  0  3  0  0  0  0  0  0
  193.3230  175.0490  146.1110 C   0  0  2  0  0  3  0  0  0  0  0  0
  193.5380  176.4700  146.5900 C   0  0  0  0  0  2  0  0  0  0  0  0
  193.9550  174.8590  144.7440 C   0  0  0  0  0  2  0  0  0  0  0  0
  195.4060  174.9250  144.8570 N   0  0  0  0  0  0  0  0  0  0  0  0
  197.0630  173.7600  143.5280 C   0  0  0  0  0  2  0  0  0  0  0  0
  195.8840  175.8080  143.8050 C   0  0  0  0  0  2  0  0  0  0  0  0
  195.9210  173.6020  144.5270 C   0  0  1  0  0  3  0  0  0  0  0  0
  197.1970  175.2470  143.3250 C   0  0  0  0  0  2  0  0  0  0  0  0
  196.3480  172.8700  145.7980 C   0  0  2  0  0  3  0  0  0  0  0  0
  197.1730  173.6720  146.5980 O   0  0  0  0  0  1  0  0  0  0  0  0
  196.9580  171.5070  145.4480 C   0  0  1  0  0  3  0  0  0  0  0  0
  196.4620  170.3750  146.3320 C   0  0  1  0  0  3  0  0  0  0  0  0
  195.8920  170.5620  144.9370 C   0  0  0  0  0  2  0  0  0  0  0  0
  197.4840  169.2580  146.3080 C   0  0  0  0  0  2  0  0  0  0  0  0
  197.3020  168.3690  147.5230 C   0  0  0  0  0  2  0  0  0  0  0  0
  195.8240  168.2040  147.8040 C   0  0  0  0  0  1  0  0  0  0  0  0
  1 15  1  0  0  0  0
  2  6  1  0  0  0  0
  3  8  1  0  0  0  0
  4 25  1  0  0  0  0
  4 11  1  0  0  0  0
  5 16  1  0  0  0  0
  5  9  1  0  0  0  0
  6  7  1  0  0  0  0
  6 10  1  0  0  0  0
  8 12  1  0  0  0  0
  9  2  1  0  0  0  0
 10  8  1  0  0  0  0
 12 11  1  0  0  0  0
 13  3  1  0  0  0  0
 14  1  2  0  0  0  0
 14 13  2  0  0  0  0
 15  4  1  0  0  0  0
 16  9  1  0  0  0  0
 16  2  1  0  0  0  0
 16 13  1  0  0  0  0
 17 23  1  0  0  0  0
 17 21  2  0  0  0  0
 18 24  2  0  0  0  0
 19 23  1  0  0  0  0
 21 22  1  0  0  0  0
 22 20  2  0  0  0  0
 22  1  1  0  0  0  0
 23 18  1  0  0  0  0
 24 20  1  0  0  0  0
 25 26  1  0  0  0  0
 27 28  1  0  0  0  0
 27 29  1  0  0  0  0
 27 25  1  0  0  0  0
 28 29  1  0  0  0  0
 30 31  1  0  0  0  0
 30 28  1  0  0  0  0
 32 34  1  0  0  0  0
 33 31  1  0  0  0  0
 34 31  1  0  0  0  0
 34 36  1  0  0  0  0
 35 32  1  0  0  0  0
 35 33  1  0  0  0  0
 36 37  1  0  0  0  0
 38 36  1  0  0  0  0
 38 39  1  0  0  0  0
 40 38  1  0  0  0  0
 40 39  1  0  0  0  0
 41 39  1  0  0  0  0
 41 42  1  0  0  0  0
 42 43  1  0  0  0  0
M  END
>  <MODEL>
1

>  <REMARK>
 VINA RESULT:      -9.2      0.000      0.000
  Name = 
  9 active torsions:
  status: ('A' for Active; 'I' for Inactive)
    1  A    between atoms: C_1  and  C_35
    2  A    between atoms: C_2  and  C_6
    3  A    between atoms: C_2  and  C_13
    4  A    between atoms: C_3  and  N_4
    5  A    between atoms: C_3  and  C_12
    6  A    between atoms: C_11  and  C_14
    7  A    between atoms: C_14  and  C_22
    8  A    between atoms: C_26  and  C_29
    9  A    between atoms: C_29  and  C_36
                            x       y       z     vdW  Elec       q    Type
                         _______ _______ _______ _____ _____    ______ ____

>  <TORSDO>
F 9

$$$$
=
 OpenBabel11052421183D

 43 50  0  0  1  0  0  0  0  0999 V2000
  189.3540  176.3230  144.4670 C   0  0  0  0  0  0  0  0  0  0  0  0
  185.0500  178.5370  145.4960 C   0  0  1  0  0  3  0  0  0  0  0  0
  186.1030  176.2930  143.8130 O   0  0  0  0  0  0  0  0  0  0  0  0
  188.4910  175.3130  142.3610 C   0  0  2  0  0  3  0  0  0  0  0  0
  186.0030  177.0380  147.2590 C   0  0  0  0  0  2  0  0  0  0  0  0
  184.4130  178.3370  144.1100 C   0  0  1  0  0  3  0  0  0  0  0  0
  183.4080  179.2860  143.9340 O   0  0  0  0  0  1  0  0  0  0  0  0
  186.0420  177.0970  142.6300 C   0  0  1  0  0  3  0  0  0  0  0  0
  184.8570  177.2510  146.2890 C   0  0  2  0  0  3  0  0  0  0  0  0
  185.4220  178.4560  142.9690 C   0  0  0  0  0  2  0  0  0  0  0  0
  188.0090  176.2270  141.3960 O   0  0  0  0  0  0  0  0  0  0  0  0
  187.4510  177.3450  142.0510 C   0  0  0  0  0  2  0  0  0  0  0  0
  186.8400  176.7320  144.9140 C   0  0  0  0  0  0  0  0  0  0  0  0
  188.1220  176.5370  144.8510 C   0  0  0  0  0  0  0  0  0  0  0  0
  189.5580  175.8710  143.1500 O   0  0  0  0  0  0  0  0  0  0  0  0
  186.2620  177.6870  145.9160 C   0  0  1  0  0  0  0  0  0  0  0  0
  193.0030  176.6910  145.1370 C   0  0  0  0  0  3  0  0  0  0  0  0
  192.6730  176.5420  147.5410 N   0  0  0  0  0  0  0  0  0  0  0  0
  194.6010  175.7370  146.5530 F   0  0  0  0  0  0  0  0  0  0  0  0
  190.3680  176.5430  146.6830 C   0  0  0  0  0  3  0  0  0  0  0  0
  191.7840  176.9550  144.6780 C   0  0  0  0  0  3  0  0  0  0  0  0
  190.5170  176.5790  145.3440 C   0  0  0  0  0  0  0  0  0  0  0  0
  193.2420  175.8890  146.3710 C   0  0  2  0  0  3  0  0  0  0  0  0
  191.4090  176.7900  147.7010 C   0  0  0  0  0  3  0  0  0  0  0  0
  188.9680  174.0090  141.7110 C   0  0  2  0  0  3  0  0  0  0  0  0
  187.8450  172.9850  141.6470 C   0  0  0  0  0  1  0  0  0  0  0  0
  190.1070  173.4080  142.5250 C   0  0  2  0  0  3  0  0  0  0  0  0
  191.4020  173.4110  141.7270 C   0  0  2  0  0  3  0  0  0  0  0  0
  190.6010  172.1330  141.8650 C   0  0  0  0  0  2  0  0  0  0  0  0
  192.5720  173.3980  142.6950 C   0  0  0  0  0  2  0  0  0  0  0  0
  193.4610  174.5150  142.4100 N   0  0  0  0  0  0  0  0  0  0  0  0
  195.5280  174.4970  141.1480 C   0  0  0  0  0  2  0  0  0  0  0  0
  193.1940  174.9460  141.0460 C   0  0  0  0  0  2  0  0  0  0  0  0
  194.8200  173.9900  142.3990 C   0  0  1  0  0  3  0  0  0  0  0  0
  194.5130  175.3680  140.4540 C   0  0  0  0  0  2  0  0  0  0  0  0
  195.5460  174.3790  143.6860 C   0  0  2  0  0  3  0  0  0  0  0  0
  196.2390  175.5880  143.5360 O   0  0  0  0  0  1  0  0  0  0  0  0
  196.4210  173.2190  144.1760 C   0  0  1  0  0  3  0  0  0  0  0  0
  195.7840  172.4100  145.2930 C   0  0  1  0  0  3  0  0  0  0  0  0
  195.7650  171.8910  143.8670 C   0  0  0  0  0  2  0  0  0  0  0  0
  196.8800  171.7050  146.0650 C   0  0  0  0  0  2  0  0  0  0  0  0
  196.4730  170.2710  146.3420 C   0  0  0  0  0  2  0  0  0  0  0  0
  197.6060  169.3460  145.9510 C   0  0  0  0  0  1  0  0  0  0  0  0
  1 14  2  0  0  0  0
  1 22  1  0  0  0  0
  2 16  1  0  0  0  0
  2  9  1  0  0  0  0
  3 13  1  0  0  0  0
  4 15  1  0  0  0  0
  6  2  1  0  0  0  0
  7  6  1  0  0  0  0
  8 10  1  0  0  0  0
  8  3  1  0  0  0  0
  9  5  1  0  0  0  0
 10  6  1  0  0  0  0
 11 12  1  0  0  0  0
 11  4  1  0  0  0  0
 12  8  1  0  0  0  0
 13 16  1  0  0  0  0
 14 13  2  0  0  0  0
 15  1  1  0  0  0  0
 16  9  1  0  0  0  0
 16  5  1  0  0  0  0
 17 23  1  0  0  0  0
 18 24  2  0  0  0  0
 20 24  1  0  0  0  0
 21 17  2  0  0  0  0
 21 22  1  0  0  0  0
 22 20  2  0  0  0  0
 23 19  1  0  0  0  0
 23 18  1  0  0  0  0
 25  4  1  0  0  0  0
 25 27  1  0  0  0  0
 26 25  1  0  0  0  0
 28 29  1  0  0  0  0
 28 27  1  0  0  0  0
 28 30  1  0  0  0  0
 29 27  1  0  0  0  0
 31 30  1  0  0  0  0
 32 34  1  0  0  0  0
 33 31  1  0  0  0  0
 34 31  1  0  0  0  0
 34 36  1  0  0  0  0
 35 33  1  0  0  0  0
 35 32  1  0  0  0  0
 36 38  1  0  0  0  0
 37 36  1  0  0  0  0
 38 39  1  0  0  0  0
 39 41  1  0  0  0  0
 40 38  1  0  0  0  0
 40 39  1  0  0  0  0
 41 42  1  0  0  0  0
 43 42  1  0  0  0  0
M  END
>  <MODEL>
2

>  <REMARK>
 VINA RESULT:      -8.8      2.496      4.605
  Name = 
  9 active torsions:
  status: ('A' for Active; 'I' for Inactive)
    1  A    between atoms: C_1  and  C_35
    2  A    between atoms: C_2  and  C_6
    3  A    between atoms: C_2  and  C_13
    4  A    between atoms: C_3  and  N_4
    5  A    between atoms: C_3  and  C_12
    6  A    between atoms: C_11  and  C_14
    7  A    between atoms: C_14  and  C_22
    8  A    between atoms: C_26  and  C_29
    9  A    between atoms: C_29  and  C_36
                            x       y       z     vdW  Elec       q    Type
                         _______ _______ _______ _____ _____    ______ ____

>  <TORSDO>
F 9

$$$$
=
 OpenBabel11052421183D

 43 50  0  0  1  0  0  0  0  0999 V2000
  189.2400  176.2680  144.5880 C   0  0  0  0  0  0  0  0  0  0  0  0
  184.9970  178.6810  145.3980 C   0  0  1  0  0  3  0  0  0  0  0  0
  185.9930  176.2740  143.9170 O   0  0  0  0  0  0  0  0  0  0  0  0
  188.3590  175.1080  142.5700 C   0  0  2  0  0  3  0  0  0  0  0  0
  185.8990  177.3100  147.2880 C   0  0  0  0  0  2  0  0  0  0  0  0
  184.3610  178.3820  144.0290 C   0  0  1  0  0  3  0  0  0  0  0  0
  183.3840  179.3410  143.7670 O   0  0  0  0  0  1  0  0  0  0  0  0
  185.9600  176.9770  142.6700 C   0  0  1  0  0  3  0  0  0  0  0  0
  184.7640  177.4720  146.2950 C   0  0  2  0  0  3  0  0  0  0  0  0
  185.3780  178.3770  142.8900 C   0  0  0  0  0  2  0  0  0  0  0  0
  187.9070  175.9500  141.5280 O   0  0  0  0  0  0  0  0  0  0  0  0
  187.3790  177.1350  142.0830 C   0  0  0  0  0  2  0  0  0  0  0  0
  186.7370  176.7840  144.9820 C   0  0  0  0  0  0  0  0  0  0  0  0
  188.0140  176.5480  144.9450 C   0  0  0  0  0  0  0  0  0  0  0  0
  189.4370  175.7010  143.3160 O   0  0  0  0  0  0  0  0  0  0  0  0
  186.1820  177.8360  145.8970 C   0  0  1  0  0  0  0  0  0  0  0  0
  192.8930  176.6530  145.2320 C   0  0  0  0  0  3  0  0  0  0  0  0
  192.5660  176.6330  147.6410 N   0  0  0  0  0  0  0  0  0  0  0  0
  194.4890  175.7670  146.6940 F   0  0  0  0  0  0  0  0  0  0  0  0
  190.2600  176.6000  146.7880 C   0  0  0  0  0  3  0  0  0  0  0  0
  191.6730  176.8980  144.7610 C   0  0  0  0  0  3  0  0  0  0  0  0
  190.4060  176.5640  145.4490 C   0  0  0  0  0  0  0  0  0  0  0  0
  193.1300  175.9160  146.5070 C   0  0  2  0  0  3  0  0  0  0  0  0
  191.3040  176.8950  147.7900 C   0  0  0  0  0  3  0  0  0  0  0  0
  188.8010  173.7410  142.0350 C   0  0  2  0  0  3  0  0  0  0  0  0
  187.6010  172.8600  141.7210 C   0  0  0  0  0  1  0  0  0  0  0  0
  189.6510  173.0250  143.0770 C   0  0  2  0  0  3  0  0  0  0  0  0
  191.1130  172.9990  142.6580 C   0  0  2  0  0  3  0  0  0  0  0  0
  190.2520  171.7650  142.4800 C   0  0  0  0  0  2  0  0  0  0  0  0
  191.9750  172.8580  143.8990 C   0  0  0  0  0  2  0  0  0  0  0  0
  193.3130  173.3650  143.6310 N   0  0  0  0  0  0  0  0  0  0  0  0
  195.0510  172.3570  142.2790 C   0  0  0  0  0  2  0  0  0  0  0  0
  193.2950  173.9610  142.3040 C   0  0  0  0  0  2  0  0  0  0  0  0
  194.1970  172.2110  143.5330 C   0  0  1  0  0  3  0  0  0  0  0  0
  194.6330  173.6730  141.6760 C   0  0  0  0  0  2  0  0  0  0  0  0
  195.0350  172.0800  144.8040 C   0  0  2  0  0  3  0  0  0  0  0  0
  194.4070  172.6920  145.8970 O   0  0  0  0  0  1  0  0  0  0  0  0
  196.4650  172.5750  144.5530 C   0  0  1  0  0  3  0  0  0  0  0  0
  196.6490  174.0580  144.8260 C   0  0  1  0  0  3  0  0  0  0  0  0
  197.1040  173.0310  145.8460 C   0  0  0  0  0  2  0  0  0  0  0  0
  197.8480  174.5490  144.0420 C   0  0  0  0  0  2  0  0  0  0  0  0
  197.4620  175.7600  143.2160 C   0  0  0  0  0  2  0  0  0  0  0  0
  196.1600  176.3280  143.7390 C   0  0  0  0  0  1  0  0  0  0  0  0
  1 14  2  0  0  0  0
  1 22  1  0  0  0  0
  2 16  1  0  0  0  0
  2  9  1  0  0  0  0
  3 13  1  0  0  0  0
  4 15  1  0  0  0  0
  6  2  1  0  0  0  0
  7  6  1  0  0  0  0
  8 10  1  0  0  0  0
  8  3  1  0  0  0  0
  9  5  1  0  0  0  0
 10  6  1  0  0  0  0
 11 12  1  0  0  0  0
 11  4  1  0  0  0  0
 12  8  1  0  0  0  0
 13 16  1  0  0  0  0
 14 13  2  0  0  0  0
 15  1  1  0  0  0  0
 16  9  1  0  0  0  0
 16  5  1  0  0  0  0
 17 23  1  0  0  0  0
 18 24  2  0  0  0  0
 20 24  1  0  0  0  0
 21 17  2  0  0  0  0
 21 22  1  0  0  0  0
 22 20  2  0  0  0  0
 23 19  1  0  0  0  0
 23 18  1  0  0  0  0
 25  4  1  0  0  0  0
 25 27  1  0  0  0  0
 26 25  1  0  0  0  0
 28 27  1  0  0  0  0
 28 30  1  0  0  0  0
 29 28  1  0  0  0  0
 29 27  1  0  0  0  0
 31 30  1  0  0  0  0
 32 34  1  0  0  0  0
 33 31  1  0  0  0  0
 34 31  1  0  0  0  0
 34 36  1  0  0  0  0
 35 32  1  0  0  0  0
 35 33  1  0  0  0  0
 36 37  1  0  0  0  0
 38 36  1  0  0  0  0
 38 39  1  0  0  0  0
 38 40  1  0  0  0  0
 39 40  1  0  0  0  0
 41 39  1  0  0  0  0
 42 43  1  0  0  0  0
 42 41  1  0  0  0  0
M  END
>  <MODEL>
3

>  <REMARK>
 VINA RESULT:      -8.7      2.632      4.998
  Name = 
  9 active torsions:
  status: ('A' for Active; 'I' for Inactive)
    1  A    between atoms: C_1  and  C_35
    2  A    between atoms: C_2  and  C_6
    3  A    between atoms: C_2  and  C_13
    4  A    between atoms: C_3  and  N_4
    5  A    between atoms: C_3  and  C_12
    6  A    between atoms: C_11  and  C_14
    7  A    between atoms: C_14  and  C_22
    8  A    between atoms: C_26  and  C_29
    9  A    between atoms: C_29  and  C_36
                            x       y       z     vdW  Elec       q    Type
                         _______ _______ _______ _____ _____    ______ ____

>  <TORSDO>
F 9

$$$$
=
 OpenBabel11052421183D

 43 50  0  0  1  0  0  0  0  0999 V2000
  189.3420  176.2550  144.6370 C   0  0  0  0  0  0  0  0  0  0  0  0
  185.0630  178.6200  145.3960 C   0  0  1  0  0  3  0  0  0  0  0  0
  186.1010  176.2180  143.9370 O   0  0  0  0  0  0  0  0  0  0  0  0
  188.4920  175.0740  142.6170 C   0  0  2  0  0  3  0  0  0  0  0  0
  185.9640  177.2710  147.3010 C   0  0  0  0  0  2  0  0  0  0  0  0
  184.4420  178.3060  144.0230 C   0  0  1  0  0  3  0  0  0  0  0  0
  183.4560  179.2510  143.7470 O   0  0  0  0  0  1  0  0  0  0  0  0
  186.0710  176.9130  142.6860 C   0  0  1  0  0  3  0  0  0  0  0  0
  184.8360  177.4140  146.2980 C   0  0  2  0  0  3  0  0  0  0  0  0
  185.4690  178.3070  142.8930 C   0  0  0  0  0  2  0  0  0  0  0  0
  188.0390  175.9040  141.5670 O   0  0  0  0  0  0  0  0  0  0  0  0
  187.4920  177.0850  142.1100 C   0  0  0  0  0  2  0  0  0  0  0  0
  186.8290  176.7420  145.0060 C   0  0  0  0  0  0  0  0  0  0  0  0
  188.1090  176.5220  144.9810 C   0  0  0  0  0  0  0  0  0  0  0  0
  189.5570  175.6830  143.3700 O   0  0  0  0  0  0  0  0  0  0  0  0
  186.2540  177.7930  145.9100 C   0  0  1  0  0  0  0  0  0  0  0  0
  192.9840  176.6880  145.3100 C   0  0  0  0  0  3  0  0  0  0  0  0
  192.6360  176.6770  147.7160 N   0  0  0  0  0  0  0  0  0  0  0  0
  194.5780  175.8300  146.7910 F   0  0  0  0  0  0  0  0  0  0  0  0
  190.3380  176.6110  146.8430 C   0  0  0  0  0  3  0  0  0  0  0  0
  191.7660  176.9160  144.8280 C   0  0  0  0  0  3  0  0  0  0  0  0
  190.4960  176.5700  145.5060 C   0  0  0  0  0  0  0  0  0  0  0  0
  193.2180  175.9620  146.5910 C   0  0  2  0  0  3  0  0  0  0  0  0
  191.3700  176.9250  147.8530 C   0  0  0  0  0  3  0  0  0  0  0  0
  188.9560  173.7090  142.0940 C   0  0  2  0  0  3  0  0  0  0  0  0
  187.7800  172.8840  141.5930 C   0  0  0  0  0  1  0  0  0  0  0  0
  189.6360  172.9270  143.2110 C   0  0  2  0  0  3  0  0  0  0  0  0
  191.1030  172.6860  142.8870 C   0  0  2  0  0  3  0  0  0  0  0  0
  190.0920  171.5740  142.6950 C   0  0  0  0  0  2  0  0  0  0  0  0
  191.8620  172.4800  144.1850 C   0  0  0  0  0  2  0  0  0  0  0  0
  193.2440  172.1230  143.8970 N   0  0  0  0  0  0  0  0  0  0  0  0
  195.2620  173.0780  144.8380 C   0  0  0  0  0  2  0  0  0  0  0  0
  193.7110  171.2800  144.9870 C   0  0  0  0  0  2  0  0  0  0  0  0
  194.0300  173.3480  143.9810 C   0  0  1  0  0  3  0  0  0  0  0  0
  195.1590  171.6230  145.2170 C   0  0  0  0  0  2  0  0  0  0  0  0
  194.3840  173.8450  142.5810 C   0  0  2  0  0  3  0  0  0  0  0  0
  194.2980  172.8140  141.6350 O   0  0  0  0  0  1  0  0  0  0  0  0
  195.7400  174.5610  142.5960 C   0  0  1  0  0  3  0  0  0  0  0  0
  195.9590  175.4700  141.3990 C   0  0  1  0  0  3  0  0  0  0  0  0
  195.5500  176.0560  142.7370 C   0  0  0  0  0  2  0  0  0  0  0  0
  197.4490  175.6630  141.2040 C   0  0  0  0  0  2  0  0  0  0  0  0
  197.7810  175.6430  139.7250 C   0  0  0  0  0  2  0  0  0  0  0  0
  196.6620  174.9560  138.9710 C   0  0  0  0  0  1  0  0  0  0  0  0
  1 14  2  0  0  0  0
  1 22  1  0  0  0  0
  2 16  1  0  0  0  0
  2  9  1  0  0  0  0
  3 13  1  0  0  0  0
  4 15  1  0  0  0  0
  6  2  1  0  0  0  0
  7  6  1  0  0  0  0
  8 10  1  0  0  0  0
  8  3  1  0  0  0  0
  9  5  1  0  0  0  0
 10  6  1  0  0  0  0
 11 12  1  0  0  0  0
 11  4  1  0  0  0  0
 12  8  1  0  0  0  0
 13 16  1  0  0  0  0
 14 13  2  0  0  0  0
 15  1  1  0  0  0  0
 16  9  1  0  0  0  0
 16  5  1  0  0  0  0
 17 23  1  0  0  0  0
 18 24  2  0  0  0  0
 20 24  1  0  0  0  0
 21 17  2  0  0  0  0
 21 22  1  0  0  0  0
 22 20  2  0  0  0  0
 23 19  1  0  0  0  0
 23 18  1  0  0  0  0
 25  4  1  0  0  0  0
 25 27  1  0  0  0  0
 26 25  1  0  0  0  0
 28 27  1  0  0  0  0
 28 30  1  0  0  0  0
 29 28  1  0  0  0  0
 29 27  1  0  0  0  0
 31 34  1  0  0  0  0
 31 30  1  0  0  0  0
 31 33  1  0  0  0  0
 32 35  1  0  0  0  0
 33 35  1  0  0  0  0
 34 32  1  0  0  0  0
 36 38  1  0  0  0  0
 36 34  1  0  0  0  0
 37 36  1  0  0  0  0
 38 40  1  0  0  0  0
 39 38  1  0  0  0  0
 39 40  1  0  0  0  0
 41 39  1  0  0  0  0
 42 41  1  0  0  0  0
 43 42  1  0  0  0  0
M  END
>  <MODEL>
4

>  <REMARK>
 VINA RESULT:      -8.7      2.723      5.582
  Name = 
  9 active torsions:
  status: ('A' for Active; 'I' for Inactive)
    1  A    between atoms: C_1  and  C_35
    2  A    between atoms: C_2  and  C_6
    3  A    between atoms: C_2  and  C_13
    4  A    between atoms: C_3  and  N_4
    5  A    between atoms: C_3  and  C_12
    6  A    between atoms: C_11  and  C_14
    7  A    between atoms: C_14  and  C_22
    8  A    between atoms: C_26  and  C_29
    9  A    between atoms: C_29  and  C_36
                            x       y       z     vdW  Elec       q    Type
                         _______ _______ _______ _____ _____    ______ ____

>  <TORSDO>
F 9

$$$$
=
 OpenBabel11052421183D

 43 50  0  0  1  0  0  0  0  0999 V2000
  189.2900  175.2300  144.1280 C   0  0  0  0  0  0  0  0  0  0  0  0
  185.2650  178.0970  144.3850 C   0  0  1  0  0  3  0  0  0  0  0  0
  187.9220  177.7880  145.7340 O   0  0  0  0  0  0  0  0  0  0  0  0
  190.0390  175.8350  146.4240 C   0  0  2  0  0  3  0  0  0  0  0  0
  186.8150  178.4900  142.4590 C   0  0  0  0  0  2  0  0  0  0  0  0
  185.3160  178.3360  145.9030 C   0  0  1  0  0  3  0  0  0  0  0  0
  184.0430  178.6880  146.3480 O   0  0  0  0  0  1  0  0  0  0  0  0
  187.3220  177.1330  146.8570 C   0  0  1  0  0  3  0  0  0  0  0  0
  186.2220  179.0810  143.7240 C   0  0  2  0  0  3  0  0  0  0  0  0
  185.8000  177.1140  146.6820 C   0  0  0  0  0  2  0  0  0  0  0  0
  189.1260  175.5440  147.4630 O   0  0  0  0  0  0  0  0  0  0  0  0
  187.8080  175.6730  146.9750 C   0  0  0  0  0  2  0  0  0  0  0  0
  187.7390  177.2740  144.4500 C   0  0  0  0  0  0  0  0  0  0  0  0
  188.4990  176.2710  144.1280 C   0  0  0  0  0  0  0  0  0  0  0  0
  189.9360  174.9010  145.3330 O   0  0  0  0  0  0  0  0  0  0  0  0
  186.5150  177.5940  143.6420 C   0  0  1  0  0  0  0  0  0  0  0  0
  188.6870  174.2960  140.5690 C   0  0  0  0  0  3  0  0  0  0  0  0
  189.6470  172.0850  140.8890 N   0  0  0  0  0  0  0  0  0  0  0  0
  187.9290  172.4290  139.3810 F   0  0  0  0  0  0  0  0  0  0  0  0
  190.0500  173.1620  143.0620 C   0  0  0  0  0  3  0  0  0  0  0  0
  189.1230  174.9730  141.6270 C   0  0  0  0  0  3  0  0  0  0  0  0
  189.4870  174.3800  142.9340 C   0  0  0  0  0  0  0  0  0  0  0  0
  188.4290  172.8280  140.6040 C   0  0  2  0  0  3  0  0  0  0  0  0
  190.3360  172.1960  141.9830 C   0  0  0  0  0  3  0  0  0  0  0  0
  191.4840  175.8610  146.9360 C   0  0  2  0  0  3  0  0  0  0  0  0
  191.6490  176.8720  148.0610 C   0  0  0  0  0  1  0  0  0  0  0  0
  192.4290  176.2540  145.8080 C   0  0  2  0  0  3  0  0  0  0  0  0
  193.6410  175.3350  145.7720 C   0  0  2  0  0  3  0  0  0  0  0  0
  193.7570  176.7170  146.3800 C   0  0  0  0  0  2  0  0  0  0  0  0
  194.2130  175.3350  144.3670 C   0  0  0  0  0  2  0  0  0  0  0  0
  195.0380  174.1520  144.1690 N   0  0  0  0  0  0  0  0  0  0  0  0
  196.8580  173.3500  145.5530 C   0  0  0  0  0  2  0  0  0  0  0  0
  194.5400  173.1200  145.0660 C   0  0  0  0  0  2  0  0  0  0  0  0
  196.3760  174.4780  144.6470 C   0  0  1  0  0  3  0  0  0  0  0  0
  195.7370  172.3420  145.5470 C   0  0  0  0  0  2  0  0  0  0  0  0
  197.3120  174.7250  143.4650 C   0  0  2  0  0  3  0  0  0  0  0  0
  197.3910  176.0880  143.1500 O   0  0  0  0  0  1  0  0  0  0  0  0
  196.9180  173.8360  142.2790 C   0  0  1  0  0  3  0  0  0  0  0  0
  197.9020  173.8960  141.1230 C   0  0  1  0  0  3  0  0  0  0  0  0
  197.9290  172.7260  142.0890 C   0  0  0  0  0  2  0  0  0  0  0  0
  197.1860  173.4820  139.8560 C   0  0  0  0  0  2  0  0  0  0  0  0
  197.1130  174.6560  138.8980 C   0  0  0  0  0  2  0  0  0  0  0  0
  197.9370  175.8000  139.4490 C   0  0  0  0  0  1  0  0  0  0  0  0
  1 15  1  0  0  0  0
  2  6  1  0  0  0  0
  3  8  1  0  0  0  0
  4 25  1  0  0  0  0
  4 11  1  0  0  0  0
  5 16  1  0  0  0  0
  5  9  1  0  0  0  0
  6  7  1  0  0  0  0
  6 10  1  0  0  0  0
  8 12  1  0  0  0  0
  9  2  1  0  0  0  0
 10  8  1  0  0  0  0
 12 11  1  0  0  0  0
 13  3  1  0  0  0  0
 14  1  2  0  0  0  0
 14 13  2  0  0  0  0
 15  4  1  0  0  0  0
 16  9  1  0  0  0  0
 16  2  1  0  0  0  0
 16 13  1  0  0  0  0
 17 23  1  0  0  0  0
 17 21  2  0  0  0  0
 18 24  2  0  0  0  0
 19 23  1  0  0  0  0
 21 22  1  0  0  0  0
 22 20  2  0  0  0  0
 22  1  1  0  0  0  0
 23 18  1  0  0  0  0
 24 20  1  0  0  0  0
 25 26  1  0  0  0  0
 27 29  1  0  0  0  0
 27 25  1  0  0  0  0
 28 27  1  0  0  0  0
 28 29  1  0  0  0  0
 30 28  1  0  0  0  0
 31 30  1  0  0  0  0
 31 34  1  0  0  0  0
 31 33  1  0  0  0  0
 33 35  1  0  0  0  0
 34 32  1  0  0  0  0
 35 32  1  0  0  0  0
 36 34  1  0  0  0  0
 37 36  1  0  0  0  0
 38 36  1  0  0  0  0
 39 40  1  0  0  0  0
 39 38  1  0  0  0  0
 40 38  1  0  0  0  0
 41 39  1  0  0  0  0
 42 43  1  0  0  0  0
 42 41  1  0  0  0  0
M  END
>  <MODEL>
5

>  <REMARK>
 VINA RESULT:      -8.5      1.488      3.206
  Name = 
  9 active torsions:
  status: ('A' for Active; 'I' for Inactive)
    1  A    between atoms: C_1  and  C_35
    2  A    between atoms: C_2  and  C_6
    3  A    between atoms: C_2  and  C_13
    4  A    between atoms: C_3  and  N_4
    5  A    between atoms: C_3  and  C_12
    6  A    between atoms: C_11  and  C_14
    7  A    between atoms: C_14  and  C_22
    8  A    between atoms: C_26  and  C_29
    9  A    between atoms: C_29  and  C_36
                            x       y       z     vdW  Elec       q    Type
                         _______ _______ _______ _____ _____    ______ ____

>  <TORSDO>
F 9

$$$$
=
 OpenBabel11052421183D

 43 50  0  0  1  0  0  0  0  0999 V2000
  189.3060  176.4240  144.5800 C   0  0  0  0  0  0  0  0  0  0  0  0
  185.0230  178.7290  145.4890 C   0  0  1  0  0  3  0  0  0  0  0  0
  186.0560  176.3940  143.9210 O   0  0  0  0  0  0  0  0  0  0  0  0
  188.4370  175.3200  142.5250 C   0  0  2  0  0  3  0  0  0  0  0  0
  185.9580  177.3100  147.3260 C   0  0  0  0  0  2  0  0  0  0  0  0
  184.3860  178.4660  144.1130 C   0  0  1  0  0  3  0  0  0  0  0  0
  183.3900  179.4150  143.8880 O   0  0  0  0  0  1  0  0  0  0  0  0
  186.0050  177.1390  142.7000 C   0  0  1  0  0  3  0  0  0  0  0  0
  184.8150  177.4860  146.3440 C   0  0  2  0  0  3  0  0  0  0  0  0
  185.3980  178.5190  142.9700 C   0  0  0  0  0  2  0  0  0  0  0  0
  187.9650  176.1890  141.5150 O   0  0  0  0  0  0  0  0  0  0  0  0
  187.4180  177.3440  142.1130 C   0  0  0  0  0  2  0  0  0  0  0  0
  186.7950  176.8800  145.0000 C   0  0  0  0  0  0  0  0  0  0  0  0
  188.0760  176.6690  144.9500 C   0  0  0  0  0  0  0  0  0  0  0  0
  189.5080  175.9060  143.2880 O   0  0  0  0  0  0  0  0  0  0  0  0
  186.2250  177.8890  145.9540 C   0  0  1  0  0  0  0  0  0  0  0  0
  192.9570  176.7910  145.2380 C   0  0  0  0  0  3  0  0  0  0  0  0
  192.6220  176.7610  147.6460 N   0  0  0  0  0  0  0  0  0  0  0  0
  194.5450  175.8920  146.7020 F   0  0  0  0  0  0  0  0  0  0  0  0
  190.3190  176.7420  146.7840 C   0  0  0  0  0  3  0  0  0  0  0  0
  191.7410  177.0440  144.7640 C   0  0  0  0  0  3  0  0  0  0  0  0
  190.4700  176.7120  145.4450 C   0  0  0  0  0  0  0  0  0  0  0  0
  193.1870  176.0480  146.5100 C   0  0  2  0  0  3  0  0  0  0  0  0
  191.3610  177.0280  147.7910 C   0  0  0  0  0  3  0  0  0  0  0  0
  188.9020  173.9800  141.9410 C   0  0  2  0  0  3  0  0  0  0  0  0
  187.7190  173.0730  141.6380 C   0  0  0  0  0  1  0  0  0  0  0  0
  189.8020  173.2620  142.9390 C   0  0  2  0  0  3  0  0  0  0  0  0
  190.6660  172.2250  142.2390 C   0  0  2  0  0  3  0  0  0  0  0  0
  189.4340  171.7910  143.0050 C   0  0  0  0  0  2  0  0  0  0  0  0
  191.9100  171.9820  143.0730 C   0  0  0  0  0  2  0  0  0  0  0  0
  192.8910  171.2410  142.2940 N   0  0  0  0  0  0  0  0  0  0  0  0
  194.7930  169.9750  143.0990 C   0  0  0  0  0  2  0  0  0  0  0  0
  192.5330  169.8330  142.3700 C   0  0  0  0  0  2  0  0  0  0  0  0
  194.1680  171.3610  142.9860 C   0  0  1  0  0  3  0  0  0  0  0  0
  193.8220  169.0540  142.4060 C   0  0  0  0  0  2  0  0  0  0  0  0
  195.0710  172.3570  142.2590 C   0  0  2  0  0  3  0  0  0  0  0  0
  195.8630  171.7200  141.2950 O   0  0  0  0  0  1  0  0  0  0  0  0
  195.8710  173.1870  143.2700 C   0  0  1  0  0  3  0  0  0  0  0  0
  195.3330  174.5940  143.4610 C   0  0  1  0  0  3  0  0  0  0  0  0
  195.0230  173.5130  144.4800 C   0  0  0  0  0  2  0  0  0  0  0  0
  196.4490  175.4720  143.9880 C   0  0  0  0  0  2  0  0  0  0  0  0
  196.4640  176.7900  143.2380 C   0  0  0  0  0  2  0  0  0  0  0  0
  196.2840  176.5260  141.7590 C   0  0  0  0  0  1  0  0  0  0  0  0
  1 14  2  0  0  0  0
  1 22  1  0  0  0  0
  2 16  1  0  0  0  0
  2  9  1  0  0  0  0
  3 13  1  0  0  0  0
  4 15  1  0  0  0  0
  6  2  1  0  0  0  0
  7  6  1  0  0  0  0
  8 10  1  0  0  0  0
  8  3  1  0  0  0  0
  9  5  1  0  0  0  0
 10  6  1  0  0  0  0
 11 12  1  0  0  0  0
 11  4  1  0  0  0  0
 12  8  1  0  0  0  0
 13 16  1  0  0  0  0
 14 13  2  0  0  0  0
 15  1  1  0  0  0  0
 16  9  1  0  0  0  0
 16  5  1  0  0  0  0
 17 23  1  0  0  0  0
 18 24  2  0  0  0  0
 20 24  1  0  0  0  0
 21 17  2  0  0  0  0
 21 22  1  0  0  0  0
 22 20  2  0  0  0  0
 23 19  1  0  0  0  0
 23 18  1  0  0  0  0
 25  4  1  0  0  0  0
 25 27  1  0  0  0  0
 26 25  1  0  0  0  0
 27 29  1  0  0  0  0
 28 27  1  0  0  0  0
 28 29  1  0  0  0  0
 28 30  1  0  0  0  0
 31 33  1  0  0  0  0
 31 34  1  0  0  0  0
 31 30  1  0  0  0  0
 33 35  1  0  0  0  0
 34 32  1  0  0  0  0
 35 32  1  0  0  0  0
 36 34  1  0  0  0  0
 36 38  1  0  0  0  0
 37 36  1  0  0  0  0
 38 39  1  0  0  0  0
 38 40  1  0  0  0  0
 39 41  1  0  0  0  0
 39 40  1  0  0  0  0
 42 41  1  0  0  0  0
 43 42  1  0  0  0  0
M  END
>  <MODEL>
6

>  <REMARK>
 VINA RESULT:      -8.3      2.855      5.530
  Name = 
  9 active torsions:
  status: ('A' for Active; 'I' for Inactive)
    1  A    between atoms: C_1  and  C_35
    2  A    between atoms: C_2  and  C_6
    3  A    between atoms: C_2  and  C_13
    4  A    between atoms: C_3  and  N_4
    5  A    between atoms: C_3  and  C_12
    6  A    between atoms: C_11  and  C_14
    7  A    between atoms: C_14  and  C_22
    8  A    between atoms: C_26  and  C_29
    9  A    between atoms: C_29  and  C_36
                            x       y       z     vdW  Elec       q    Type
                         _______ _______ _______ _____ _____    ______ ____

>  <TORSDO>
F 9

$$$$
=
 OpenBabel11052421183D

 43 50  0  0  1  0  0  0  0  0999 V2000
  189.2970  176.2630  144.6790 C   0  0  0  0  0  0  0  0  0  0  0  0
  185.0510  178.7030  145.3910 C   0  0  1  0  0  3  0  0  0  0  0  0
  186.0430  176.2190  144.0420 O   0  0  0  0  0  0  0  0  0  0  0  0
  188.4000  174.9850  142.7400 C   0  0  2  0  0  3  0  0  0  0  0  0
  185.9780  177.4480  147.3480 C   0  0  0  0  0  2  0  0  0  0  0  0
  184.4030  178.3230  144.0490 C   0  0  1  0  0  3  0  0  0  0  0  0
  183.4190  179.2610  143.7420 O   0  0  0  0  0  1  0  0  0  0  0  0
  185.9940  176.8470  142.7570 C   0  0  1  0  0  3  0  0  0  0  0  0
  184.8320  177.5480  146.3590 C   0  0  2  0  0  3  0  0  0  0  0  0
  185.4080  178.2550  142.9010 C   0  0  0  0  0  2  0  0  0  0  0  0
  187.9330  175.7630  141.6560 O   0  0  0  0  0  0  0  0  0  0  0  0
  187.4060  176.9770  142.1470 C   0  0  0  0  0  2  0  0  0  0  0  0
  186.7950  176.7920  145.0680 C   0  0  0  0  0  0  0  0  0  0  0  0
  188.0730  176.5590  145.0310 C   0  0  0  0  0  0  0  0  0  0  0  0
  189.4830  175.6240  143.4400 O   0  0  0  0  0  0  0  0  0  0  0  0
  186.2450  177.8930  145.9260 C   0  0  1  0  0  0  0  0  0  0  0  0
  192.9460  176.7870  145.2340 C   0  0  0  0  0  3  0  0  0  0  0  0
  192.6740  176.7910  147.6500 N   0  0  0  0  0  0  0  0  0  0  0  0
  194.6050  175.9800  146.6720 F   0  0  0  0  0  0  0  0  0  0  0  0
  190.3520  176.6630  146.8500 C   0  0  0  0  0  3  0  0  0  0  0  0
  191.7090  176.9820  144.7880 C   0  0  0  0  0  3  0  0  0  0  0  0
  190.4700  176.6140  145.5080 C   0  0  0  0  0  0  0  0  0  0  0  0
  193.2380  176.0780  146.5130 C   0  0  2  0  0  3  0  0  0  0  0  0
  191.4070  177.0100  147.8240 C   0  0  0  0  0  3  0  0  0  0  0  0
  188.8420  173.5910  142.2810 C   0  0  2  0  0  3  0  0  0  0  0  0
  187.6430  172.6950  142.0130 C   0  0  0  0  0  1  0  0  0  0  0  0
  189.6900  172.9320  143.3630 C   0  0  2  0  0  3  0  0  0  0  0  0
  191.1620  172.9500  142.9820 C   0  0  2  0  0  3  0  0  0  0  0  0
  190.3520  171.6810  142.8130 C   0  0  0  0  0  2  0  0  0  0  0  0
  191.9950  172.8710  144.2480 C   0  0  0  0  0  2  0  0  0  0  0  0
  193.3410  172.4200  143.9270 N   0  0  0  0  0  0  0  0  0  0  0  0
  195.4430  173.2480  144.8010 C   0  0  0  0  0  2  0  0  0  0  0  0
  193.7820  171.5580  145.0130 C   0  0  0  0  0  2  0  0  0  0  0  0
  194.2080  173.5910  143.9760 C   0  0  1  0  0  3  0  0  0  0  0  0
  195.2560  171.8060  145.2000 C   0  0  0  0  0  2  0  0  0  0  0  0
  194.5550  174.0490  142.5600 C   0  0  2  0  0  3  0  0  0  0  0  0
  193.7800  175.1520  142.1760 O   0  0  0  0  0  1  0  0  0  0  0  0
  194.4800  172.8680  141.5840 C   0  0  1  0  0  3  0  0  0  0  0  0
  193.6380  173.1530  140.3520 C   0  0  1  0  0  3  0  0  0  0  0  0
  195.1530  173.2170  140.2750 C   0  0  0  0  0  2  0  0  0  0  0  0
  193.1650  171.8360  139.7750 C   0  0  0  0  0  2  0  0  0  0  0  0
  191.7210  171.9590  139.3290 C   0  0  0  0  0  2  0  0  0  0  0  0
  191.3120  173.4160  139.3570 C   0  0  0  0  0  1  0  0  0  0  0  0
  1 14  2  0  0  0  0
  1 22  1  0  0  0  0
  2 16  1  0  0  0  0
  2  9  1  0  0  0  0
  3 13  1  0  0  0  0
  4 15  1  0  0  0  0
  6  2  1  0  0  0  0
  7  6  1  0  0  0  0
  8 10  1  0  0  0  0
  8  3  1  0  0  0  0
  9  5  1  0  0  0  0
 10  6  1  0  0  0  0
 11 12  1  0  0  0  0
 11  4  1  0  0  0  0
 12  8  1  0  0  0  0
 13 16  1  0  0  0  0
 14 13  2  0  0  0  0
 15  1  1  0  0  0  0
 16  9  1  0  0  0  0
 16  5  1  0  0  0  0
 17 23  1  0  0  0  0
 18 24  2  0  0  0  0
 20 24  1  0  0  0  0
 21 17  2  0  0  0  0
 21 22  1  0  0  0  0
 22 20  2  0  0  0  0
 23 19  1  0  0  0  0
 23 18  1  0  0  0  0
 25  4  1  0  0  0  0
 25 27  1  0  0  0  0
 26 25  1  0  0  0  0
 28 27  1  0  0  0  0
 28 30  1  0  0  0  0
 29 28  1  0  0  0  0
 29 27  1  0  0  0  0
 31 34  1  0  0  0  0
 31 30  1  0  0  0  0
 31 33  1  0  0  0  0
 32 35  1  0  0  0  0
 33 35  1  0  0  0  0
 34 32  1  0  0  0  0
 36 34  1  0  0  0  0
 37 36  1  0  0  0  0
 38 36  1  0  0  0  0
 39 38  1  0  0  0  0
 40 39  1  0  0  0  0
 40 38  1  0  0  0  0
 41 39  1  0  0  0  0
 42 43  1  0  0  0  0
 42 41  1  0  0  0  0
M  END
>  <MODEL>
7

>  <REMARK>
 VINA RESULT:      -8.3      2.782      5.515
  Name = 
  9 active torsions:
  status: ('A' for Active; 'I' for Inactive)
    1  A    between atoms: C_1  and  C_35
    2  A    between atoms: C_2  and  C_6
    3  A    between atoms: C_2  and  C_13
    4  A    between atoms: C_3  and  N_4
    5  A    between atoms: C_3  and  C_12
    6  A    between atoms: C_11  and  C_14
    7  A    between atoms: C_14  and  C_22
    8  A    between atoms: C_26  and  C_29
    9  A    between atoms: C_29  and  C_36
                            x       y       z     vdW  Elec       q    Type
                         _______ _______ _______ _____ _____    ______ ____

>  <TORSDO>
F 9

$$$$
=
 OpenBabel11052421183D

 43 50  0  0  1  0  0  0  0  0999 V2000
  189.3030  175.1790  144.0550 C   0  0  0  0  0  0  0  0  0  0  0  0
  185.3290  178.1200  144.2530 C   0  0  1  0  0  3  0  0  0  0  0  0
  187.9740  177.7840  145.6190 O   0  0  0  0  0  0  0  0  0  0  0  0
  190.0530  175.8040  146.3450 C   0  0  2  0  0  3  0  0  0  0  0  0
  186.8930  178.4580  142.3290 C   0  0  0  0  0  2  0  0  0  0  0  0
  185.3780  178.3810  145.7690 C   0  0  1  0  0  3  0  0  0  0  0  0
  184.1090  178.7620  146.2030 O   0  0  0  0  0  1  0  0  0  0  0  0
  187.3580  177.1560  146.7480 C   0  0  1  0  0  3  0  0  0  0  0  0
  186.3060  179.0780  143.5830 C   0  0  2  0  0  3  0  0  0  0  0  0
  185.8370  177.1620  146.5660 C   0  0  0  0  0  2  0  0  0  0  0  0
  189.1310  175.5440  147.3850 O   0  0  0  0  0  0  0  0  0  0  0  0
  187.8180  175.6900  146.8890 C   0  0  0  0  0  2  0  0  0  0  0  0
  187.7870  177.2550  144.3410 C   0  0  0  0  0  0  0  0  0  0  0  0
  188.5310  176.2340  144.0370 C   0  0  0  0  0  0  0  0  0  0  0  0
  189.9380  174.8560  145.2680 O   0  0  0  0  0  0  0  0  0  0  0  0
  186.5730  177.5850  143.5230 C   0  0  1  0  0  0  0  0  0  0  0  0
  191.3450  173.6390  141.3420 C   0  0  0  0  0  3  0  0  0  0  0  0
  189.3640  172.9280  140.1260 N   0  0  0  0  0  0  0  0  0  0  0  0
  191.2990  173.5170  139.0070 F   0  0  0  0  0  0  0  0  0  0  0  0
  188.4150  173.8630  142.1930 C   0  0  0  0  0  3  0  0  0  0  0  0
  190.8770  173.9020  142.5590 C   0  0  0  0  0  3  0  0  0  0  0  0
  189.4900  174.3090  142.8740 C   0  0  0  0  0  0  0  0  0  0  0  0
  190.5220  173.8080  140.1100 C   0  0  2  0  0  3  0  0  0  0  0  0
  188.4160  172.9780  141.0110 C   0  0  0  0  0  3  0  0  0  0  0  0
  191.4960  175.8120  146.8640 C   0  0  2  0  0  3  0  0  0  0  0  0
  191.6020  176.5600  148.1830 C   0  0  0  0  0  1  0  0  0  0  0  0
  192.4070  176.5030  145.8570 C   0  0  2  0  0  3  0  0  0  0  0  0
  193.5930  175.6180  145.5040 C   0  0  2  0  0  3  0  0  0  0  0  0
  193.7670  176.7630  146.4800 C   0  0  0  0  0  2  0  0  0  0  0  0
  194.1100  176.0190  144.1340 C   0  0  0  0  0  2  0  0  0  0  0  0
  195.4900  175.5810  143.9800 N   0  0  0  0  0  0  0  0  0  0  0  0
  196.7440  175.2830  141.9290 C   0  0  0  0  0  2  0  0  0  0  0  0
  196.2970  176.7670  143.7340 C   0  0  0  0  0  2  0  0  0  0  0  0
  195.5570  174.7970  142.7530 C   0  0  1  0  0  3  0  0  0  0  0  0
  197.3760  176.3690  142.7610 C   0  0  0  0  0  2  0  0  0  0  0  0
  195.6390  173.3080  143.0830 C   0  0  2  0  0  3  0  0  0  0  0  0
  196.7520  172.7100  142.4760 O   0  0  0  0  0  1  0  0  0  0  0  0
  194.3090  172.6160  142.7590 C   0  0  1  0  0  3  0  0  0  0  0  0
  194.3490  171.1090  142.9440 C   0  0  1  0  0  3  0  0  0  0  0  0
  193.7180  171.9930  144.0040 C   0  0  0  0  0  2  0  0  0  0  0  0
  193.2580  170.4890  142.0970 C   0  0  0  0  0  2  0  0  0  0  0  0
  192.0570  170.1610  142.9640 C   0  0  0  0  0  2  0  0  0  0  0  0
  190.8090  170.1600  142.1080 C   0  0  0  0  0  1  0  0  0  0  0  0
  1 15  1  0  0  0  0
  2  6  1  0  0  0  0
  3  8  1  0  0  0  0
  4 25  1  0  0  0  0
  4 11  1  0  0  0  0
  5 16  1  0  0  0  0
  5  9  1  0  0  0  0
  6  7  1  0  0  0  0
  6 10  1  0  0  0  0
  8 12  1  0  0  0  0
  9  2  1  0  0  0  0
 10  8  1  0  0  0  0
 12 11  1  0  0  0  0
 13  3  1  0  0  0  0
 14  1  2  0  0  0  0
 14 13  2  0  0  0  0
 15  4  1  0  0  0  0
 16  9  1  0  0  0  0
 16  2  1  0  0  0  0
 16 13  1  0  0  0  0
 17 21  2  0  0  0  0
 18 24  2  0  0  0  0
 19 23  1  0  0  0  0
 20 22  2  0  0  0  0
 21 22  1  0  0  0  0
 22  1  1  0  0  0  0
 23 18  1  0  0  0  0
 23 17  1  0  0  0  0
 24 20  1  0  0  0  0
 25 26  1  0  0  0  0
 27 29  1  0  0  0  0
 27 25  1  0  0  0  0
 28 27  1  0  0  0  0
 28 29  1  0  0  0  0
 30 28  1  0  0  0  0
 31 30  1  0  0  0  0
 32 34  1  0  0  0  0
 32 35  1  0  0  0  0
 33 31  1  0  0  0  0
 34 36  1  0  0  0  0
 34 31  1  0  0  0  0
 35 33  1  0  0  0  0
 37 36  1  0  0  0  0
 38 39  1  0  0  0  0
 38 36  1  0  0  0  0
 38 40  1  0  0  0  0
 39 40  1  0  0  0  0
 41 39  1  0  0  0  0
 41 42  1  0  0  0  0
 43 42  1  0  0  0  0
M  END
>  <MODEL>
8

>  <REMARK>
 VINA RESULT:      -8.2      2.099      2.540
  Name = 
  9 active torsions:
  status: ('A' for Active; 'I' for Inactive)
    1  A    between atoms: C_1  and  C_35
    2  A    between atoms: C_2  and  C_6
    3  A    between atoms: C_2  and  C_13
    4  A    between atoms: C_3  and  N_4
    5  A    between atoms: C_3  and  C_12
    6  A    between atoms: C_11  and  C_14
    7  A    between atoms: C_14  and  C_22
    8  A    between atoms: C_26  and  C_29
    9  A    between atoms: C_29  and  C_36
                            x       y       z     vdW  Elec       q    Type
                         _______ _______ _______ _____ _____    ______ ____

>  <TORSDO>
F 9

$$$$
=
 OpenBabel11052421183D

 43 50  0  0  1  0  0  0  0  0999 V2000
  189.4700  176.1770  143.9480 C   0  0  0  0  0  0  0  0  0  0  0  0
  185.3140  178.4210  145.4230 C   0  0  1  0  0  3  0  0  0  0  0  0
  186.1750  176.2250  143.5760 O   0  0  0  0  0  0  0  0  0  0  0  0
  188.4100  175.2600  141.8900 C   0  0  2  0  0  3  0  0  0  0  0  0
  186.3850  176.8430  147.0430 C   0  0  0  0  0  2  0  0  0  0  0  0
  184.5570  178.2830  144.0910 C   0  0  1  0  0  3  0  0  0  0  0  0
  183.5580  179.2540  144.0360 O   0  0  0  0  0  1  0  0  0  0  0  0
  186.0280  177.0730  142.4330 C   0  0  1  0  0  3  0  0  0  0  0  0
  185.1640  177.1110  146.1830 C   0  0  2  0  0  3  0  0  0  0  0  0
  185.4660  178.4280  142.8720 C   0  0  0  0  0  2  0  0  0  0  0  0
  187.8640  176.2160  141.0030 O   0  0  0  0  0  0  0  0  0  0  0  0
  187.3870  177.3190  141.7440 C   0  0  0  0  0  2  0  0  0  0  0  0
  187.0120  176.6100  144.6240 C   0  0  0  0  0  0  0  0  0  0  0  0
  188.2800  176.3970  144.4440 C   0  0  0  0  0  0  0  0  0  0  0  0
  189.5510  175.7710  142.6040 O   0  0  0  0  0  0  0  0  0  0  0  0
  186.5400  177.5370  145.7070 C   0  0  1  0  0  0  0  0  0  0  0  0
  193.1650  176.5250  144.3030 C   0  0  0  0  0  3  0  0  0  0  0  0
  193.0570  176.2110  146.7120 N   0  0  0  0  0  0  0  0  0  0  0  0
  194.8880  175.4880  145.4980 F   0  0  0  0  0  0  0  0  0  0  0  0
  190.6830  176.2540  146.0710 C   0  0  0  0  0  3  0  0  0  0  0  0
  191.9080  176.8110  143.9770 C   0  0  0  0  0  3  0  0  0  0  0  0
  190.7080  176.3820  144.7290 C   0  0  0  0  0  0  0  0  0  0  0  0
  193.5170  175.6430  145.4530 C   0  0  2  0  0  3  0  0  0  0  0  0
  191.8140  176.4390  147.0030 C   0  0  0  0  0  3  0  0  0  0  0  0
  188.8040  173.9730  141.1550 C   0  0  2  0  0  3  0  0  0  0  0  0
  188.0640  172.7700  141.7200 C   0  0  0  0  0  1  0  0  0  0  0  0
  190.2990  173.7220  141.3100 C   0  0  2  0  0  3  0  0  0  0  0  0
  190.9550  173.5090  139.9550 C   0  0  2  0  0  3  0  0  0  0  0  0
  190.6410  172.3200  140.8390 C   0  0  0  0  0  2  0  0  0  0  0  0
  192.4260  173.8650  140.0640 C   0  0  0  0  0  2  0  0  0  0  0  0
  192.9570  174.1820  138.7460 N   0  0  0  0  0  0  0  0  0  0  0  0
  194.5110  172.8920  137.4090 C   0  0  0  0  0  2  0  0  0  0  0  0
  192.2140  173.3910  137.7760 C   0  0  0  0  0  2  0  0  0  0  0  0
  194.3240  173.6790  138.7010 C   0  0  1  0  0  3  0  0  0  0  0  0
  193.1860  172.9950  136.6970 C   0  0  0  0  0  2  0  0  0  0  0  0
  195.3150  174.8340  138.8360 C   0  0  2  0  0  3  0  0  0  0  0  0
  195.7310  175.3000  137.5810 O   0  0  0  0  0  1  0  0  0  0  0  0
  196.4700  174.4380  139.7640 C   0  0  1  0  0  3  0  0  0  0  0  0
  196.5030  175.2290  141.0610 C   0  0  1  0  0  3  0  0  0  0  0  0
  195.9390  173.8200  141.0390 C   0  0  0  0  0  2  0  0  0  0  0  0
  197.9120  175.1940  141.6140 C   0  0  0  0  0  2  0  0  0  0  0  0
  197.9400  175.8270  142.9910 C   0  0  0  0  0  2  0  0  0  0  0  0
  196.8060  176.8230  143.1060 C   0  0  0  0  0  1  0  0  0  0  0  0
  1 14  2  0  0  0  0
  1 22  1  0  0  0  0
  2 16  1  0  0  0  0
  2  9  1  0  0  0  0
  3 13  1  0  0  0  0
  4 15  1  0  0  0  0
  6  2  1  0  0  0  0
  7  6  1  0  0  0  0
  8 10  1  0  0  0  0
  8  3  1  0  0  0  0
  9  5  1  0  0  0  0
 10  6  1  0  0  0  0
 11 12  1  0  0  0  0
 11  4  1  0  0  0  0
 12  8  1  0  0  0  0
 13 16  1  0  0  0  0
 14 13  2  0  0  0  0
 15  1  1  0  0  0  0
 16  9  1  0  0  0  0
 16  5  1  0  0  0  0
 17 23  1  0  0  0  0
 18 24  2  0  0  0  0
 20 24  1  0  0  0  0
 21 17  2  0  0  0  0
 21 22  1  0  0  0  0
 22 20  2  0  0  0  0
 23 19  1  0  0  0  0
 23 18  1  0  0  0  0
 25 27  1  0  0  0  0
 25 26  1  0  0  0  0
 25  4  1  0  0  0  0
 28 30  1  0  0  0  0
 28 29  1  0  0  0  0
 28 27  1  0  0  0  0
 29 27  1  0  0  0  0
 31 30  1  0  0  0  0
 32 34  1  0  0  0  0
 33 31  1  0  0  0  0
 34 31  1  0  0  0  0
 34 36  1  0  0  0  0
 35 32  1  0  0  0  0
 35 33  1  0  0  0  0
 36 38  1  0  0  0  0
 37 36  1  0  0  0  0
 38 40  1  0  0  0  0
 38 39  1  0  0  0  0
 39 41  1  0  0  0  0
 40 39  1  0  0  0  0
 41 42  1  0  0  0  0
 42 43  1  0  0  0  0
M  END
>  <MODEL>
9

>  <REMARK>
 VINA RESULT:      -8.2      3.712      6.008
  Name = 
  9 active torsions:
  status: ('A' for Active; 'I' for Inactive)
    1  A    between atoms: C_1  and  C_35
    2  A    between atoms: C_2  and  C_6
    3  A    between atoms: C_2  and  C_13
    4  A    between atoms: C_3  and  N_4
    5  A    between atoms: C_3  and  C_12
    6  A    between atoms: C_11  and  C_14
    7  A    between atoms: C_14  and  C_22
    8  A    between atoms: C_26  and  C_29
    9  A    between atoms: C_29  and  C_36
                            x       y       z     vdW  Elec       q    Type
                         _______ _______ _______ _____ _____    ______ ____

>  <TORSDO>
F 9

$$$$
