=
 OpenBabel11052420273D

 34 39  0  0  1  0  0  0  0  0999 V2000
  195.0540  174.2000  144.4570 C   0  0  2  0  0  3  0  0  0  0  0  0
  195.4010  170.4870  143.7100 C   0  0  0  0  0  3  0  0  0  0  0  0
  195.4870  172.3100  142.1240 C   0  0  0  0  0  2  0  0  0  0  0  0
  193.9160  176.1150  145.5750 C   0  0  0  0  0  2  0  0  0  0  0  0
  193.9600  174.5950  145.4430 C   0  0  0  0  0  2  0  0  0  0  0  0
  194.4380  175.8680  142.6760 C   0  0  1  0  0  3  0  0  0  0  0  0
  194.6110  175.9680  140.8700 S   0  0  0  0  0  0  0  0  0  0  0  0
  193.0570  176.3420  143.0980 C   0  0  0  0  0  2  0  0  0  0  0  0
  192.9900  176.8120  144.5610 C   0  0  1  0  0  3  0  0  0  0  0  0
  195.5450  173.8310  142.0450 C   0  0  2  0  0  3  0  0  0  0  0  0
  194.5660  174.4120  143.0250 C   0  0  1  0  0  3  0  0  0  0  0  0
  195.1700  174.2880  140.7190 N   0  0  0  0  0  2  0  0  0  0  0  0
  195.2670  169.8290  145.0400 C   0  0  0  0  0  2  0  0  0  0  0  0
  196.4790  170.0600  145.8830 C   0  0  0  0  0  0  0  0  0  0  0  0
  196.8160  171.2920  146.2770 C   0  0  0  0  0  3  0  0  0  0  0  0
  195.5080  171.8070  143.5460 C   0  0  0  0  0  0  0  0  0  0  0  0
  196.1630  172.5450  145.8470 C   0  0  0  0  0  3  0  0  0  0  0  0
  195.5240  172.7800  144.6890 C   0  0  0  0  0  0  0  0  0  0  0  0
  189.9350  176.7690  146.8330 C   0  0  0  0  0  3  0  0  0  0  0  0
  190.5420  177.0280  144.1100 C   0  0  0  0  0  3  0  0  0  0  0  0
  186.6940  177.8920  145.5160 N   0  0  0  0  0  0  0  0  0  0  0  0
  185.5540  178.5480  146.0950 C   0  0  0  0  0  0  0  0  0  0  0  0
  187.4780  176.9550  146.3320 C   0  0  0  0  0  2  0  0  0  0  0  0
  184.8920  179.3830  145.4220 O   0  0  0  0  0  0  0  0  0  0  0  0
  188.9100  176.9440  145.9000 C   0  0  0  0  0  0  0  0  0  0  0  0
  185.1290  178.2610  147.4960 C   0  0  0  0  0  1  0  0  0  0  0  0
  188.1000  177.2100  143.5550 C   0  0  0  0  0  2  0  0  0  0  0  0
  189.2140  177.0760  144.5400 C   0  0  0  0  0  0  0  0  0  0  0  0
  187.0090  178.1410  144.0970 C   0  0  0  0  0  2  0  0  0  0  0  0
  191.5750  176.8640  145.0410 C   0  0  0  0  0  0  0  0  0  0  0  0
  191.2660  176.7330  146.4050 C   0  0  0  0  0  3  0  0  0  0  0  0
  197.2490  168.9000  146.3590 C   0  0  0  0  0  0  0  0  0  0  0  0
  197.2530  168.5740  147.7110 O   0  0  0  0  0  1  0  0  0  0  0  0
  197.9020  168.1860  145.5520 O   0  0  0  0  0  0  0  0  0  0  0  0
  1 18  1  0  0  0  0
  1  5  1  1  0  0  0
  2 13  1  0  0  0  0
  3 16  1  0  0  0  0
  5  4  1  0  0  0  0
  6 11  1  0  0  0  0
  6  8  1  6  0  0  0
  7  6  1  0  0  0  0
  8  9  1  0  0  0  0
  9 30  1  1  0  0  0
  9  4  1  0  0  0  0
 10  3  1  6  0  0  0
 10 11  1  0  0  0  0
 11  1  1  0  0  0  0
 12  7  1  0  0  0  0
 12 10  1  0  0  0  0
 13 14  1  0  0  0  0
 14 15  2  0  0  0  0
 14 32  1  0  0  0  0
 16  2  2  0  0  0  0
 16 18  1  0  0  0  0
 17 15  1  0  0  0  0
 18 17  2  0  0  0  0
 20 28  2  0  0  0  0
 20 30  1  0  0  0  0
 21 22  1  0  0  0  0
 21 23  1  0  0  0  0
 22 26  1  0  0  0  0
 24 22  2  0  0  0  0
 25 23  1  0  0  0  0
 25 19  2  0  0  0  0
 27 29  1  0  0  0  0
 27 28  1  0  0  0  0
 28 25  1  0  0  0  0
 29 21  1  0  0  0  0
 30 31  2  0  0  0  0
 31 19  1  0  0  0  0
 32 33  1  0  0  0  0
 34 32  2  0  0  0  0
M  END
>  <MODEL>
1

>  <REMARK>
 VINA RESULT:      -8.6      0.000      0.000
  Name = 
  2 active torsions:
  status: ('A' for Active; 'I' for Inactive)
    1  A    between atoms: C_3  and  C_25
    2  A    between atoms: C_18  and  C_30
                            x       y       z     vdW  Elec       q    Type
                         _______ _______ _______ _____ _____    ______ ____

>  <TORSDO>
F 2

$$$$
=
 OpenBabel11052420273D

 34 39  0  0  1  0  0  0  0  0999 V2000
  192.3860  174.9530  144.6980 C   0  0  2  0  0  3  0  0  0  0  0  0
  195.5740  176.5940  143.4310 C   0  0  0  0  0  3  0  0  0  0  0  0
  194.5830  176.8300  145.6230 C   0  0  0  0  0  2  0  0  0  0  0  0
  189.9940  174.3060  144.4260 C   0  0  0  0  0  2  0  0  0  0  0  0
  191.2020  174.9350  143.7370 C   0  0  0  0  0  2  0  0  0  0  0  0
  191.1200  175.8500  146.6810 C   0  0  1  0  0  3  0  0  0  0  0  0
  191.5360  176.8200  148.1600 S   0  0  0  0  0  0  0  0  0  0  0  0
  189.8200  176.3500  146.0730 C   0  0  0  0  0  2  0  0  0  0  0  0
  189.1110  175.3060  145.1940 C   0  0  1  0  0  3  0  0  0  0  0  0
  193.4810  176.2610  146.5110 C   0  0  2  0  0  3  0  0  0  0  0  0
  192.2290  176.0980  145.6970 C   0  0  1  0  0  3  0  0  0  0  0  0
  193.1860  177.1710  147.6030 N   0  0  0  0  0  2  0  0  0  0  0  0
  195.7080  176.1060  142.0290 C   0  0  0  0  0  2  0  0  0  0  0  0
  196.1000  174.6650  141.9920 C   0  0  0  0  0  0  0  0  0  0  0  0
  195.2890  173.7200  142.4800 C   0  0  0  0  0  3  0  0  0  0  0  0
  194.6740  176.1200  144.2950 C   0  0  0  0  0  0  0  0  0  0  0  0
  194.0280  173.9580  143.2110 C   0  0  0  0  0  3  0  0  0  0  0  0
  193.7030  175.0270  143.9570 C   0  0  0  0  0  0  0  0  0  0  0  0
  186.9170  176.1030  142.1870 C   0  0  0  0  0  3  0  0  0  0  0  0
  187.3910  177.0670  144.7750 C   0  0  0  0  0  3  0  0  0  0  0  0
  184.0830  178.4080  142.5840 N   0  0  0  0  0  0  0  0  0  0  0  0
  182.7880  178.5120  141.9710 C   0  0  0  0  0  0  0  0  0  0  0  0
  185.2180  177.9140  141.7920 C   0  0  0  0  0  2  0  0  0  0  0  0
  181.7960  178.8980  142.6450 O   0  0  0  0  0  0  0  0  0  0  0  0
  186.2070  177.2070  142.6650 C   0  0  0  0  0  0  0  0  0  0  0  0
  182.5860  178.1690  140.5340 C   0  0  0  0  0  1  0  0  0  0  0  0
  185.7090  178.9000  144.4280 C   0  0  0  0  0  2  0  0  0  0  0  0
  186.4420  177.6880  143.9580 C   0  0  0  0  0  0  0  0  0  0  0  0
  184.2440  178.8530  143.9810 C   0  0  0  0  0  2  0  0  0  0  0  0
  188.0980  175.9540  144.3060 C   0  0  0  0  0  0  0  0  0  0  0  0
  187.8580  175.4740  143.0080 C   0  0  0  0  0  3  0  0  0  0  0  0
  197.3520  174.2820  141.3210 C   0  0  0  0  0  0  0  0  0  0  0  0
  197.9080  175.1150  140.3560 O   0  0  0  0  0  0  0  0  0  0  0  0
  197.9390  173.2070  141.6170 O   0  0  0  0  0  1  0  0  0  0  0  0
  1  5  1  6  0  0  0
  1 11  1  0  0  0  0
  2 16  2  0  0  0  0
  4  9  1  0  0  0  0
  5  4  1  0  0  0  0
  6  8  1  6  0  0  0
  6  7  1  0  0  0  0
  9 30  1  6  0  0  0
  9  8  1  0  0  0  0
 10  3  1  6  0  0  0
 10 12  1  0  0  0  0
 11 10  1  0  0  0  0
 11  6  1  0  0  0  0
 12  7  1  0  0  0  0
 13  2  1  0  0  0  0
 14 13  1  0  0  0  0
 14 15  2  0  0  0  0
 15 17  1  0  0  0  0
 16  3  1  0  0  0  0
 17 18  2  0  0  0  0
 18 16  1  0  0  0  0
 18  1  1  0  0  0  0
 19 25  2  0  0  0  0
 19 31  1  0  0  0  0
 21 29  1  0  0  0  0
 22 21  1  0  0  0  0
 22 24  2  0  0  0  0
 23 21  1  0  0  0  0
 23 25  1  0  0  0  0
 25 28  1  0  0  0  0
 26 22  1  0  0  0  0
 28 27  1  0  0  0  0
 28 20  2  0  0  0  0
 29 27  1  0  0  0  0
 30 20  1  0  0  0  0
 31 30  2  0  0  0  0
 32 34  1  0  0  0  0
 32 14  1  0  0  0  0
 33 32  2  0  0  0  0
M  END
>  <MODEL>
2

>  <REMARK>
 VINA RESULT:      -8.5      3.642      5.278
  Name = 
  2 active torsions:
  status: ('A' for Active; 'I' for Inactive)
    1  A    between atoms: C_3  and  C_25
    2  A    between atoms: C_18  and  C_30
                            x       y       z     vdW  Elec       q    Type
                         _______ _______ _______ _____ _____    ______ ____

>  <TORSDO>
F 2

$$$$
=
 OpenBabel11052420273D

 34 39  0  0  1  0  0  0  0  0999 V2000
  192.2870  173.6080  145.1430 C   0  0  2  0  0  3  0  0  0  0  0  0
  194.8820  172.3050  142.6870 C   0  0  0  0  0  3  0  0  0  0  0  0
  195.1880  174.0250  144.3580 C   0  0  0  0  0  2  0  0  0  0  0  0
  189.9980  174.4330  145.6830 C   0  0  0  0  0  2  0  0  0  0  0  0
  190.8870  173.8520  144.5880 C   0  0  0  0  0  2  0  0  0  0  0  0
  192.5270  175.8430  146.2780 C   0  0  1  0  0  3  0  0  0  0  0  0
  193.9110  176.9250  146.7420 S   0  0  0  0  0  0  0  0  0  0  0  0
  191.3940  176.6640  145.6850 C   0  0  0  0  0  2  0  0  0  0  0  0
  190.0230  175.9700  145.7700 C   0  0  1  0  0  3  0  0  0  0  0  0
  194.4980  174.6760  145.5520 C   0  0  2  0  0  3  0  0  0  0  0  0
  193.0560  174.9270  145.2110 C   0  0  1  0  0  3  0  0  0  0  0  0
  195.1100  175.9560  145.8590 N   0  0  0  0  0  2  0  0  0  0  0  0
  194.1570  171.2670  141.9010 C   0  0  0  0  0  2  0  0  0  0  0  0
  193.9080  170.0430  142.7210 C   0  0  0  0  0  0  0  0  0  0  0  0
  193.1240  170.0900  143.8040 C   0  0  0  0  0  3  0  0  0  0  0  0
  194.3790  172.8940  143.7740 C   0  0  0  0  0  0  0  0  0  0  0  0
  192.5400  171.3110  144.3940 C   0  0  0  0  0  3  0  0  0  0  0  0
  193.0290  172.5620  144.3400 C   0  0  0  0  0  0  0  0  0  0  0  0
  188.2790  177.0810  142.5730 C   0  0  0  0  0  3  0  0  0  0  0  0
  187.9800  177.3430  145.3470 C   0  0  0  0  0  3  0  0  0  0  0  0
  184.8840  178.4740  142.7630 N   0  0  0  0  0  0  0  0  0  0  0  0
  183.7470  178.4550  141.8850 C   0  0  0  0  0  0  0  0  0  0  0  0
  186.2380  178.4970  142.1900 C   0  0  0  0  0  2  0  0  0  0  0  0
  182.5810  178.3970  142.3580 O   0  0  0  0  0  0  0  0  0  0  0  0
  187.2100  177.8120  143.0970 C   0  0  0  0  0  0  0  0  0  0  0  0
  183.9160  178.5030  140.4040 C   0  0  0  0  0  1  0  0  0  0  0  0
  185.9390  178.7700  145.0180 C   0  0  0  0  0  2  0  0  0  0  0  0
  187.0590  177.9410  144.4820 C   0  0  0  0  0  0  0  0  0  0  0  0
  184.6550  178.5240  144.2190 C   0  0  0  0  0  2  0  0  0  0  0  0
  189.0470  176.6000  144.8280 C   0  0  0  0  0  0  0  0  0  0  0  0
  189.1940  176.4720  143.4370 C   0  0  0  0  0  3  0  0  0  0  0  0
  194.4580  168.7560  142.2680 C   0  0  0  0  0  0  0  0  0  0  0  0
  195.5110  168.1660  142.9590 O   0  0  0  0  0  1  0  0  0  0  0  0
  193.9780  168.1700  141.2610 O   0  0  0  0  0  0  0  0  0  0  0  0
  1  5  1  6  0  0  0
  1 11  1  0  0  0  0
  2 16  2  0  0  0  0
  4  9  1  0  0  0  0
  5  4  1  0  0  0  0
  6  8  1  6  0  0  0
  6  7  1  0  0  0  0
  8  9  1  0  0  0  0
  9 30  1  6  0  0  0
 10  3  1  6  0  0  0
 10 12  1  0  0  0  0
 11 10  1  0  0  0  0
 11  6  1  0  0  0  0
 12  7  1  0  0  0  0
 13  2  1  0  0  0  0
 13 14  1  0  0  0  0
 14 15  2  0  0  0  0
 15 17  1  0  0  0  0
 16 18  1  0  0  0  0
 16  3  1  0  0  0  0
 18 17  2  0  0  0  0
 18  1  1  0  0  0  0
 19 25  2  0  0  0  0
 19 31  1  0  0  0  0
 21 29  1  0  0  0  0
 22 24  2  0  0  0  0
 22 21  1  0  0  0  0
 23 21  1  0  0  0  0
 23 25  1  0  0  0  0
 25 28  1  0  0  0  0
 26 22  1  0  0  0  0
 28 27  1  0  0  0  0
 28 20  2  0  0  0  0
 29 27  1  0  0  0  0
 30 20  1  0  0  0  0
 31 30  2  0  0  0  0
 32 14  1  0  0  0  0
 32 33  1  0  0  0  0
 34 32  2  0  0  0  0
M  END
>  <MODEL>
3

>  <REMARK>
 VINA RESULT:      -8.0      2.740      3.970
  Name = 
  2 active torsions:
  status: ('A' for Active; 'I' for Inactive)
    1  A    between atoms: C_3  and  C_25
    2  A    between atoms: C_18  and  C_30
                            x       y       z     vdW  Elec       q    Type
                         _______ _______ _______ _____ _____    ______ ____

>  <TORSDO>
F 2

$$$$
=
 OpenBabel11052420273D

 34 39  0  0  1  0  0  0  0  0999 V2000
  193.6410  173.1700  143.4130 C   0  0  2  0  0  3  0  0  0  0  0  0
  194.1500  169.5200  144.3530 C   0  0  0  0  0  3  0  0  0  0  0  0
  193.6440  170.4070  142.1610 C   0  0  0  0  0  2  0  0  0  0  0  0
  192.6450  175.4190  143.8130 C   0  0  0  0  0  2  0  0  0  0  0  0
  192.8040  174.0090  144.3730 C   0  0  0  0  0  2  0  0  0  0  0  0
  192.4240  173.8510  141.3160 C   0  0  1  0  0  3  0  0  0  0  0  0
  192.1150  173.1040  139.6900 S   0  0  0  0  0  0  0  0  0  0  0  0
  191.1580  174.5100  141.8410 C   0  0  0  0  0  2  0  0  0  0  0  0
  191.4240  175.6010  142.8920 C   0  0  1  0  0  3  0  0  0  0  0  0
  193.5280  171.7190  141.3930 C   0  0  2  0  0  3  0  0  0  0  0  0
  192.7810  172.7160  142.2340 C   0  0  1  0  0  3  0  0  0  0  0  0
  192.7800  171.5260  140.1640 N   0  0  0  0  0  2  0  0  0  0  0  0
  194.4300  169.5520  145.8160 C   0  0  0  0  0  2  0  0  0  0  0  0
  195.7890  170.1060  146.0960 C   0  0  0  0  0  0  0  0  0  0  0  0
  196.0920  171.3700  145.7840 C   0  0  0  0  0  3  0  0  0  0  0  0
  194.0800  170.6130  143.5900 C   0  0  0  0  0  0  0  0  0  0  0  0
  195.2290  172.3050  145.0350 C   0  0  0  0  0  3  0  0  0  0  0  0
  194.2940  172.0020  144.1190 C   0  0  0  0  0  0  0  0  0  0  0  0
  189.0630  176.4800  145.7460 C   0  0  0  0  0  3  0  0  0  0  0  0
  188.9460  175.8920  143.0090 C   0  0  0  0  0  3  0  0  0  0  0  0
  185.6030  177.4580  144.9860 N   0  0  0  0  0  0  0  0  0  0  0  0
  184.6600  178.3490  145.6020 C   0  0  0  0  0  0  0  0  0  0  0  0
  186.5620  176.7290  145.8290 C   0  0  0  0  0  2  0  0  0  0  0  0
  183.8550  179.0100  144.8930 O   0  0  0  0  0  0  0  0  0  0  0  0
  187.8330  176.4690  145.0830 C   0  0  0  0  0  0  0  0  0  0  0  0
  184.6090  178.5140  147.0840 C   0  0  0  0  0  1  0  0  0  0  0  0
  186.4450  176.1210  143.0390 C   0  0  0  0  0  2  0  0  0  0  0  0
  187.7750  176.1780  143.7160 C   0  0  0  0  0  0  0  0  0  0  0  0
  185.5430  177.2600  143.5270 C   0  0  0  0  0  2  0  0  0  0  0  0
  190.1830  175.9130  143.6650 C   0  0  0  0  0  0  0  0  0  0  0  0
  190.2360  176.2060  145.0370 C   0  0  0  0  0  3  0  0  0  0  0  0
  196.7670  169.2710  146.8120 C   0  0  0  0  0  0  0  0  0  0  0  0
  196.4250  168.6830  148.0240 O   0  0  0  0  0  1  0  0  0  0  0  0
  197.9160  169.0730  146.3330 O   0  0  0  0  0  0  0  0  0  0  0  0
  1 18  1  0  0  0  0
  1  5  1  1  0  0  0
  2 13  1  0  0  0  0
  3 16  1  0  0  0  0
  4  5  1  0  0  0  0
  6  8  1  1  0  0  0
  6 11  1  0  0  0  0
  7 12  1  0  0  0  0
  7  6  1  0  0  0  0
  8  9  1  0  0  0  0
  9 30  1  1  0  0  0
  9  4  1  0  0  0  0
 10  3  1  1  0  0  0
 10 11  1  0  0  0  0
 11  1  1  0  0  0  0
 12 10  1  0  0  0  0
 13 14  1  0  0  0  0
 14 32  1  0  0  0  0
 15 14  2  0  0  0  0
 16 18  1  0  0  0  0
 16  2  2  0  0  0  0
 17 15  1  0  0  0  0
 18 17  2  0  0  0  0
 20 30  2  0  0  0  0
 20 28  1  0  0  0  0
 21 22  1  0  0  0  0
 21 23  1  0  0  0  0
 22 26  1  0  0  0  0
 24 22  2  0  0  0  0
 25 19  1  0  0  0  0
 25 23  1  0  0  0  0
 27 29  1  0  0  0  0
 27 28  1  0  0  0  0
 28 25  2  0  0  0  0
 29 21  1  0  0  0  0
 30 31  1  0  0  0  0
 31 19  2  0  0  0  0
 32 33  1  0  0  0  0
 34 32  2  0  0  0  0
M  END
>  <MODEL>
4

>  <REMARK>
 VINA RESULT:      -7.9      1.773      2.024
  Name = 
  2 active torsions:
  status: ('A' for Active; 'I' for Inactive)
    1  A    between atoms: C_3  and  C_25
    2  A    between atoms: C_18  and  C_30
                            x       y       z     vdW  Elec       q    Type
                         _______ _______ _______ _____ _____    ______ ____

>  <TORSDO>
F 2

$$$$
=
 OpenBabel11052420273D

 34 39  0  0  1  0  0  0  0  0999 V2000
  190.7960  176.9810  144.2360 C   0  0  2  0  0  3  0  0  0  0  0  0
  187.0590  176.3490  143.9190 C   0  0  0  0  0  3  0  0  0  0  0  0
  188.2940  176.8180  145.9440 C   0  0  0  0  0  2  0  0  0  0  0  0
  193.1670  176.4120  143.7220 C   0  0  0  0  0  2  0  0  0  0  0  0
  191.7110  176.0670  143.4270 C   0  0  0  0  0  2  0  0  0  0  0  0
  192.0120  176.7230  146.4250 C   0  0  1  0  0  3  0  0  0  0  0  0
  191.5660  176.8320  148.1830 S   0  0  0  0  0  0  0  0  0  0  0  0
  192.9180  175.5260  146.1870 C   0  0  0  0  0  2  0  0  0  0  0  0
  193.7710  175.6460  144.9120 C   0  0  1  0  0  3  0  0  0  0  0  0
  189.6690  177.2520  146.4390 C   0  0  2  0  0  3  0  0  0  0  0  0
  190.7250  176.4960  145.6830 C   0  0  1  0  0  3  0  0  0  0  0  0
  189.8250  176.9430  147.8490 N   0  0  0  0  0  2  0  0  0  0  0  0
  186.8460  176.1150  142.4630 C   0  0  0  0  0  2  0  0  0  0  0  0
  186.9840  177.3840  141.6850 C   0  0  0  0  0  0  0  0  0  0  0  0
  188.1490  178.0370  141.6380 C   0  0  0  0  0  3  0  0  0  0  0  0
  188.2110  176.7770  144.4380 C   0  0  0  0  0  0  0  0  0  0  0  0
  189.3590  177.7010  142.4140 C   0  0  0  0  0  3  0  0  0  0  0  0
  189.4230  177.0890  143.6090 C   0  0  0  0  0  0  0  0  0  0  0  0
  195.3840  172.8660  142.8710 C   0  0  0  0  0  3  0  0  0  0  0  0
  194.2080  173.2320  145.3880 C   0  0  0  0  0  3  0  0  0  0  0  0
  196.3450  169.7330  144.5340 N   0  0  0  0  0  0  0  0  0  0  0  0
  197.3980  168.7780  144.3310 C   0  0  0  0  0  0  0  0  0  0  0  0
  195.7730  170.4340  143.3750 C   0  0  0  0  0  2  0  0  0  0  0  0
  197.9260  168.1960  145.3150 O   0  0  0  0  0  0  0  0  0  0  0  0
  195.2890  171.7950  143.7630 C   0  0  0  0  0  0  0  0  0  0  0  0
  197.8910  168.4540  142.9610 C   0  0  0  0  0  1  0  0  0  0  0  0
  194.5660  170.8080  145.9370 C   0  0  0  0  0  2  0  0  0  0  0  0
  194.7040  171.9790  145.0210 C   0  0  0  0  0  0  0  0  0  0  0  0
  195.8310  169.9420  145.9000 C   0  0  0  0  0  2  0  0  0  0  0  0
  194.3100  174.3120  144.5030 C   0  0  0  0  0  0  0  0  0  0  0  0
  194.8990  174.1240  143.2410 C   0  0  0  0  0  3  0  0  0  0  0  0
  185.8420  177.8580  140.8860 C   0  0  0  0  0  0  0  0  0  0  0  0
  184.8720  178.6650  141.4690 O   0  0  0  0  0  1  0  0  0  0  0  0
  185.7360  177.5490  139.6690 O   0  0  0  0  0  0  0  0  0  0  0  0
  1  5  1  6  0  0  0
  1 11  1  0  0  0  0
  2 16  2  0  0  0  0
  4  9  1  0  0  0  0
  5  4  1  0  0  0  0
  6  8  1  1  0  0  0
  6  7  1  0  0  0  0
  9 30  1  6  0  0  0
  9  8  1  0  0  0  0
 10  3  1  6  0  0  0
 10 12  1  0  0  0  0
 11  6  1  0  0  0  0
 11 10  1  0  0  0  0
 12  7  1  0  0  0  0
 13  2  1  0  0  0  0
 14 13  1  0  0  0  0
 15 14  2  0  0  0  0
 15 17  1  0  0  0  0
 16  3  1  0  0  0  0
 17 18  2  0  0  0  0
 18  1  1  0  0  0  0
 18 16  1  0  0  0  0
 19 31  2  0  0  0  0
 19 25  1  0  0  0  0
 21 29  1  0  0  0  0
 22 21  1  0  0  0  0
 22 24  2  0  0  0  0
 23 25  1  0  0  0  0
 23 21  1  0  0  0  0
 25 28  2  0  0  0  0
 26 22  1  0  0  0  0
 28 20  1  0  0  0  0
 28 27  1  0  0  0  0
 29 27  1  0  0  0  0
 30 20  2  0  0  0  0
 31 30  1  0  0  0  0
 32 33  1  0  0  0  0
 32 14  1  0  0  0  0
 34 32  2  0  0  0  0
M  END
>  <MODEL>
5

>  <REMARK>
 VINA RESULT:      -7.8      2.611     10.212
  Name = 
  2 active torsions:
  status: ('A' for Active; 'I' for Inactive)
    1  A    between atoms: C_3  and  C_25
    2  A    between atoms: C_18  and  C_30
                            x       y       z     vdW  Elec       q    Type
                         _______ _______ _______ _____ _____    ______ ____

>  <TORSDO>
F 2

$$$$
=
 OpenBabel11052420273D

 34 39  0  0  1  0  0  0  0  0999 V2000
  189.8430  177.0200  144.4010 C   0  0  2  0  0  3  0  0  0  0  0  0
  186.7460  176.7660  146.5940 C   0  0  0  0  0  3  0  0  0  0  0  0
  189.0510  176.8260  147.3230 C   0  0  0  0  0  2  0  0  0  0  0  0
  191.1910  176.3300  142.4210 C   0  0  0  0  0  2  0  0  0  0  0  0
  189.8580  176.1590  143.1420 C   0  0  0  0  0  2  0  0  0  0  0  0
  192.1230  176.3410  145.2270 C   0  0  1  0  0  3  0  0  0  0  0  0
  192.9420  176.2310  146.8450 S   0  0  0  0  0  0  0  0  0  0  0  0
  192.4530  175.1180  144.3870 C   0  0  0  0  0  2  0  0  0  0  0  0
  192.2870  175.3490  142.8750 C   0  0  1  0  0  3  0  0  0  0  0  0
  190.4670  177.0630  146.8110 C   0  0  2  0  0  3  0  0  0  0  0  0
  190.6460  176.3370  145.5070 C   0  0  1  0  0  3  0  0  0  0  0  0
  191.4430  176.5400  147.7490 N   0  0  0  0  0  2  0  0  0  0  0  0
  185.6100  176.7670  145.6290 C   0  0  0  0  0  2  0  0  0  0  0  0
  185.4150  178.1180  145.0230 C   0  0  0  0  0  0  0  0  0  0  0  0
  186.3600  178.6690  144.2540 C   0  0  0  0  0  3  0  0  0  0  0  0
  188.0110  177.0120  146.2460 C   0  0  0  0  0  0  0  0  0  0  0  0
  187.7110  178.1200  144.0210 C   0  0  0  0  0  3  0  0  0  0  0  0
  188.4310  177.3370  144.8420 C   0  0  0  0  0  0  0  0  0  0  0  0
  191.8150  171.6510  142.1050 C   0  0  0  0  0  3  0  0  0  0  0  0
  192.5070  174.0170  140.7730 C   0  0  0  0  0  3  0  0  0  0  0  0
  191.5950  170.5510  138.6060 N   0  0  0  0  0  0  0  0  0  0  0  0
  190.8960  169.4910  137.9350 C   0  0  0  0  0  0  0  0  0  0  0  0
  192.0820  170.3400  139.9770 C   0  0  0  0  0  2  0  0  0  0  0  0
  190.4390  169.6670  136.7740 O   0  0  0  0  0  0  0  0  0  0  0  0
  192.1010  171.6270  140.7380 C   0  0  0  0  0  0  0  0  0  0  0  0
  190.6940  168.1660  138.5890 C   0  0  0  0  0  1  0  0  0  0  0  0
  192.7970  172.7520  138.6230 C   0  0  0  0  0  2  0  0  0  0  0  0
  192.4440  172.8090  140.0720 C   0  0  0  0  0  0  0  0  0  0  0  0
  191.8510  171.8060  137.8740 C   0  0  0  0  0  2  0  0  0  0  0  0
  192.2110  174.0480  142.1410 C   0  0  0  0  0  0  0  0  0  0  0  0
  191.8660  172.8590  142.8050 C   0  0  0  0  0  3  0  0  0  0  0  0
  184.1240  178.8010  145.2020 C   0  0  0  0  0  0  0  0  0  0  0  0
  183.3810  179.1880  144.0930 O   0  0  0  0  0  0  0  0  0  0  0  0
  183.6740  179.0340  146.3560 O   0  0  0  0  0  1  0  0  0  0  0  0
  1  5  1  6  0  0  0
  1 18  1  0  0  0  0
  1 11  1  0  0  0  0
  4  9  1  0  0  0  0
  4  5  1  0  0  0  0
  6  8  1  6  0  0  0
  6 11  1  0  0  0  0
  6  7  1  0  0  0  0
  7 12  1  0  0  0  0
  9 30  1  6  0  0  0
  9  8  1  0  0  0  0
 10  3  1  1  0  0  0
 10 12  1  0  0  0  0
 11 10  1  0  0  0  0
 13  2  1  0  0  0  0
 14 32  1  0  0  0  0
 14 13  1  0  0  0  0
 15 14  2  0  0  0  0
 16  2  2  0  0  0  0
 16  3  1  0  0  0  0
 17 15  1  0  0  0  0
 17 18  2  0  0  0  0
 18 16  1  0  0  0  0
 19 31  1  0  0  0  0
 20 30  1  0  0  0  0
 21 23  1  0  0  0  0
 22 26  1  0  0  0  0
 22 21  1  0  0  0  0
 23 25  1  0  0  0  0
 24 22  2  0  0  0  0
 25 19  2  0  0  0  0
 27 28  1  0  0  0  0
 28 25  1  0  0  0  0
 28 20  2  0  0  0  0
 29 21  1  0  0  0  0
 29 27  1  0  0  0  0
 30 31  2  0  0  0  0
 32 34  1  0  0  0  0
 33 32  2  0  0  0  0
M  END
>  <MODEL>
6

>  <REMARK>
 VINA RESULT:      -7.8      4.518     10.001
  Name = 
  2 active torsions:
  status: ('A' for Active; 'I' for Inactive)
    1  A    between atoms: C_3  and  C_25
    2  A    between atoms: C_18  and  C_30
                            x       y       z     vdW  Elec       q    Type
                         _______ _______ _______ _____ _____    ______ ____

>  <TORSDO>
F 2

$$$$
=
 OpenBabel11052420273D

 34 39  0  0  1  0  0  0  0  0999 V2000
  193.6800  174.1680  145.7110 C   0  0  2  0  0  3  0  0  0  0  0  0
  195.5380  172.2270  143.0200 C   0  0  0  0  0  3  0  0  0  0  0  0
  195.9930  174.4790  143.7730 C   0  0  0  0  0  2  0  0  0  0  0  0
  191.5750  174.9530  146.7920 C   0  0  0  0  0  2  0  0  0  0  0  0
  192.1580  174.0650  145.6960 C   0  0  0  0  0  2  0  0  0  0  0  0
  193.7860  176.6800  145.8590 C   0  0  1  0  0  3  0  0  0  0  0  0
  194.9720  177.9640  145.3650 S   0  0  0  0  0  0  0  0  0  0  0  0
  192.3690  177.1140  145.5170 C   0  0  0  0  0  2  0  0  0  0  0  0
  191.2910  176.4000  146.3500 C   0  0  1  0  0  3  0  0  0  0  0  0
  195.6110  175.4840  144.8540 C   0  0  2  0  0  3  0  0  0  0  0  0
  194.1200  175.4670  145.0370 C   0  0  1  0  0  3  0  0  0  0  0  0
  195.9940  176.8270  144.4590 N   0  0  0  0  0  2  0  0  0  0  0  0
  194.8400  170.9110  142.9670 C   0  0  0  0  0  2  0  0  0  0  0  0
  195.1490  170.0850  144.1730 C   0  0  0  0  0  0  0  0  0  0  0  0
  194.7770  170.4850  145.3930 C   0  0  0  0  0  3  0  0  0  0  0  0
  195.3060  173.1480  143.9570 C   0  0  0  0  0  0  0  0  0  0  0  0
  194.1680  171.7890  145.7250 C   0  0  0  0  0  3  0  0  0  0  0  0
  194.3260  172.9550  145.0780 C   0  0  0  0  0  0  0  0  0  0  0  0
  187.5980  177.1560  145.8150 C   0  0  0  0  0  3  0  0  0  0  0  0
  189.7750  176.1230  144.3840 C   0  0  0  0  0  3  0  0  0  0  0  0
  186.2360  177.1690  142.4030 N   0  0  0  0  0  0  0  0  0  0  0  0
  185.1900  177.9050  141.7480 C   0  0  0  0  0  0  0  0  0  0  0  0
  186.0970  176.8280  143.8260 C   0  0  0  0  0  2  0  0  0  0  0  0
  185.3100  178.2380  140.5390 O   0  0  0  0  0  0  0  0  0  0  0  0
  187.4360  176.7540  144.4880 C   0  0  0  0  0  0  0  0  0  0  0  0
  183.9480  178.2910  142.4770 C   0  0  0  0  0  1  0  0  0  0  0  0
  188.3150  175.7670  142.3710 C   0  0  0  0  0  2  0  0  0  0  0  0
  188.5240  176.2400  143.7720 C   0  0  0  0  0  0  0  0  0  0  0  0
  187.3980  176.7300  141.6080 C   0  0  0  0  0  2  0  0  0  0  0  0
  189.9460  176.5350  145.7110 C   0  0  0  0  0  0  0  0  0  0  0  0
  188.8520  177.0510  146.4260 C   0  0  0  0  0  3  0  0  0  0  0  0
  195.7870  168.7710  143.9940 C   0  0  0  0  0  0  0  0  0  0  0  0
  196.4640  168.1750  145.0520 O   0  0  0  0  0  1  0  0  0  0  0  0
  195.7200  168.1680  142.8890 O   0  0  0  0  0  0  0  0  0  0  0  0
  1  5  1  6  0  0  0
  2 16  2  0  0  0  0
  3 16  1  0  0  0  0
  5  4  1  0  0  0  0
  6  8  1  6  0  0  0
  7  6  1  0  0  0  0
  8  9  1  0  0  0  0
  9 30  1  6  0  0  0
  9  4  1  0  0  0  0
 10  3  1  6  0  0  0
 10 11  1  0  0  0  0
 11  1  1  0  0  0  0
 11  6  1  0  0  0  0
 12 10  1  0  0  0  0
 12  7  1  0  0  0  0
 13  2  1  0  0  0  0
 13 14  1  0  0  0  0
 14 15  2  0  0  0  0
 15 17  1  0  0  0  0
 16 18  1  0  0  0  0
 18  1  1  0  0  0  0
 18 17  2  0  0  0  0
 19 31  1  0  0  0  0
 20 30  1  0  0  0  0
 21 23  1  0  0  0  0
 22 21  1  0  0  0  0
 22 26  1  0  0  0  0
 23 25  1  0  0  0  0
 24 22  2  0  0  0  0
 25 19  2  0  0  0  0
 27 28  1  0  0  0  0
 28 20  2  0  0  0  0
 28 25  1  0  0  0  0
 29 27  1  0  0  0  0
 29 21  1  0  0  0  0
 30 31  2  0  0  0  0
 32 14  1  0  0  0  0
 32 33  1  0  0  0  0
 34 32  2  0  0  0  0
M  END
>  <MODEL>
7

>  <REMARK>
 VINA RESULT:      -7.8      2.181      2.916
  Name = 
  2 active torsions:
  status: ('A' for Active; 'I' for Inactive)
    1  A    between atoms: C_3  and  C_25
    2  A    between atoms: C_18  and  C_30
                            x       y       z     vdW  Elec       q    Type
                         _______ _______ _______ _____ _____    ______ ____

>  <TORSDO>
F 2

$$$$
=
 OpenBabel11052420273D

 34 39  0  0  1  0  0  0  0  0999 V2000
  190.7000  177.3110  144.7590 C   0  0  2  0  0  3  0  0  0  0  0  0
  186.9810  176.7140  144.2340 C   0  0  0  0  0  3  0  0  0  0  0  0
  188.0790  177.3670  146.2860 C   0  0  0  0  0  2  0  0  0  0  0  0
  193.0880  176.6530  144.4800 C   0  0  0  0  0  2  0  0  0  0  0  0
  191.6480  176.3040  144.1160 C   0  0  0  0  0  2  0  0  0  0  0  0
  191.7510  177.2590  147.0470 C   0  0  1  0  0  3  0  0  0  0  0  0
  191.1830  177.5560  148.7470 S   0  0  0  0  0  0  0  0  0  0  0  0
  192.6420  176.0280  146.9980 C   0  0  0  0  0  2  0  0  0  0  0  0
  193.5860  176.0020  145.7840 C   0  0  1  0  0  3  0  0  0  0  0  0
  189.4260  177.8270  146.8350 C   0  0  2  0  0  3  0  0  0  0  0  0
  190.5140  176.9790  146.2390 C   0  0  1  0  0  3  0  0  0  0  0  0
  189.4730  177.6620  148.2760 N   0  0  0  0  0  2  0  0  0  0  0  0
  186.8670  176.3360  142.7970 C   0  0  0  0  0  2  0  0  0  0  0  0
  187.0910  177.5150  141.9080 C   0  0  0  0  0  0  0  0  0  0  0  0
  188.2720  178.1410  141.8800 C   0  0  0  0  0  3  0  0  0  0  0  0
  188.1030  177.1730  144.7910 C   0  0  0  0  0  0  0  0  0  0  0  0
  189.4150  177.8650  142.7730 C   0  0  0  0  0  3  0  0  0  0  0  0
  189.3780  177.3780  144.0250 C   0  0  0  0  0  0  0  0  0  0  0  0
  193.8030  172.2190  145.4150 C   0  0  0  0  0  3  0  0  0  0  0  0
  195.4840  174.4570  145.2810 C   0  0  0  0  0  3  0  0  0  0  0  0
  196.8130  170.7220  143.9320 N   0  0  0  0  0  0  0  0  0  0  0  0
  197.0560  169.5530  143.1330 C   0  0  0  0  0  0  0  0  0  0  0  0
  195.7460  170.6950  144.9430 C   0  0  0  0  0  2  0  0  0  0  0  0
  197.9410  169.5700  142.2370 O   0  0  0  0  0  0  0  0  0  0  0  0
  195.1620  172.0590  145.1340 C   0  0  0  0  0  0  0  0  0  0  0  0
  196.2740  168.3000  143.3410 C   0  0  0  0  0  1  0  0  0  0  0  0
  197.4590  172.9780  144.8150 C   0  0  0  0  0  2  0  0  0  0  0  0
  196.0010  173.1770  145.0650 C   0  0  0  0  0  0  0  0  0  0  0  0
  197.6820  171.8990  143.7490 C   0  0  0  0  0  2  0  0  0  0  0  0
  194.1210  174.6250  145.5520 C   0  0  0  0  0  0  0  0  0  0  0  0
  193.2820  173.5000  145.6200 C   0  0  0  0  0  3  0  0  0  0  0  0
  186.0210  177.9250  140.9830 C   0  0  0  0  0  0  0  0  0  0  0  0
  184.9060  178.6010  141.4640 O   0  0  0  0  0  1  0  0  0  0  0  0
  186.1070  177.6770  139.7500 O   0  0  0  0  0  0  0  0  0  0  0  0
  1  5  1  6  0  0  0
  1 11  1  0  0  0  0
  2 16  2  0  0  0  0
  4  9  1  0  0  0  0
  5  4  1  0  0  0  0
  6  8  1  1  0  0  0
  6  7  1  0  0  0  0
  9 30  1  6  0  0  0
  9  8  1  0  0  0  0
 10  3  1  6  0  0  0
 10 12  1  0  0  0  0
 11 10  1  0  0  0  0
 11  6  1  0  0  0  0
 12  7  1  0  0  0  0
 13  2  1  0  0  0  0
 14 13  1  0  0  0  0
 15 14  2  0  0  0  0
 15 17  1  0  0  0  0
 16  3  1  0  0  0  0
 17 18  2  0  0  0  0
 18  1  1  0  0  0  0
 18 16  1  0  0  0  0
 19 31  1  0  0  0  0
 20 30  1  0  0  0  0
 21 23  1  0  0  0  0
 22 26  1  0  0  0  0
 22 21  1  0  0  0  0
 23 25  1  0  0  0  0
 24 22  2  0  0  0  0
 25 19  2  0  0  0  0
 27 28  1  0  0  0  0
 28 25  1  0  0  0  0
 28 20  2  0  0  0  0
 29 21  1  0  0  0  0
 29 27  1  0  0  0  0
 30 31  2  0  0  0  0
 32 33  1  0  0  0  0
 32 14  1  0  0  0  0
 34 32  2  0  0  0  0
M  END
>  <MODEL>
8

>  <REMARK>
 VINA RESULT:      -7.6      2.750     10.153
  Name = 
  2 active torsions:
  status: ('A' for Active; 'I' for Inactive)
    1  A    between atoms: C_3  and  C_25
    2  A    between atoms: C_18  and  C_30
                            x       y       z     vdW  Elec       q    Type
                         _______ _______ _______ _____ _____    ______ ____

>  <TORSDO>
F 2

$$$$
=
 OpenBabel11052420273D

 34 39  0  0  1  0  0  0  0  0999 V2000
  190.0980  177.3600  144.2920 C   0  0  2  0  0  3  0  0  0  0  0  0
  186.5480  176.0620  143.8710 C   0  0  0  0  0  3  0  0  0  0  0  0
  187.8930  176.0090  145.8790 C   0  0  0  0  0  2  0  0  0  0  0  0
  192.4590  177.5790  143.5240 C   0  0  0  0  0  2  0  0  0  0  0  0
  191.0750  177.0480  143.1640 C   0  0  0  0  0  2  0  0  0  0  0  0
  191.5870  176.5880  146.1700 C   0  0  1  0  0  3  0  0  0  0  0  0
  191.3360  175.9300  147.8440 S   0  0  0  0  0  0  0  0  0  0  0  0
  192.6780  175.8060  145.4560 C   0  0  0  0  0  2  0  0  0  0  0  0
  193.3370  176.5820  144.3030 C   0  0  1  0  0  3  0  0  0  0  0  0
  189.2030  176.5280  146.4610 C   0  0  2  0  0  3  0  0  0  0  0  0
  190.2930  176.3690  145.4390 C   0  0  1  0  0  3  0  0  0  0  0  0
  189.5800  175.7600  147.6340 N   0  0  0  0  0  2  0  0  0  0  0  0
  186.2180  176.3460  142.4450 C   0  0  0  0  0  2  0  0  0  0  0  0
  186.0120  177.8080  142.2190 C   0  0  0  0  0  0  0  0  0  0  0  0
  187.0110  178.6790  142.3940 C   0  0  0  0  0  3  0  0  0  0  0  0
  187.6460  176.5150  144.4790 C   0  0  0  0  0  0  0  0  0  0  0  0
  188.3460  178.3610  142.9400 C   0  0  0  0  0  3  0  0  0  0  0  0
  188.6670  177.3800  143.8000 C   0  0  0  0  0  0  0  0  0  0  0  0
  194.2570  173.5520  142.1910 C   0  0  0  0  0  3  0  0  0  0  0  0
  195.3320  176.0400  142.9020 C   0  0  0  0  0  3  0  0  0  0  0  0
  197.0470  173.7930  139.8110 N   0  0  0  0  0  0  0  0  0  0  0  0
  197.3260  173.1930  138.5360 C   0  0  0  0  0  0  0  0  0  0  0  0
  196.2980  173.0290  140.8200 C   0  0  0  0  0  2  0  0  0  0  0  0
  197.9330  173.8470  137.6460 O   0  0  0  0  0  0  0  0  0  0  0  0
  195.5040  173.9440  141.6970 C   0  0  0  0  0  0  0  0  0  0  0  0
  196.9070  171.7940  138.2350 C   0  0  0  0  0  1  0  0  0  0  0  0
  197.3960  175.5630  141.5530 C   0  0  0  0  0  2  0  0  0  0  0  0
  196.0400  175.1870  142.0510 C   0  0  0  0  0  0  0  0  0  0  0  0
  197.5690  175.1440  140.0890 C   0  0  0  0  0  2  0  0  0  0  0  0
  194.0770  175.6580  143.3910 C   0  0  0  0  0  0  0  0  0  0  0  0
  193.5430  174.4090  143.0330 C   0  0  0  0  0  3  0  0  0  0  0  0
  184.7140  178.2740  141.7040 C   0  0  0  0  0  0  0  0  0  0  0  0
  183.6000  178.2900  142.5350 O   0  0  0  0  0  1  0  0  0  0  0  0
  184.6000  178.6710  140.5130 O   0  0  0  0  0  0  0  0  0  0  0  0
  1  5  1  6  0  0  0
  1 11  1  0  0  0  0
  2 16  2  0  0  0  0
  4  9  1  0  0  0  0
  5  4  1  0  0  0  0
  6  8  1  6  0  0  0
  6  7  1  0  0  0  0
  9 30  1  6  0  0  0
  9  8  1  0  0  0  0
 10  3  1  6  0  0  0
 10 12  1  0  0  0  0
 11  6  1  0  0  0  0
 11 10  1  0  0  0  0
 12  7  1  0  0  0  0
 13  2  1  0  0  0  0
 14 15  2  0  0  0  0
 14 13  1  0  0  0  0
 15 17  1  0  0  0  0
 16  3  1  0  0  0  0
 17 18  2  0  0  0  0
 18  1  1  0  0  0  0
 18 16  1  0  0  0  0
 19 31  1  0  0  0  0
 20 30  1  0  0  0  0
 21 29  1  0  0  0  0
 21 23  1  0  0  0  0
 22 21  1  0  0  0  0
 23 25  1  0  0  0  0
 24 22  2  0  0  0  0
 25 28  1  0  0  0  0
 25 19  2  0  0  0  0
 26 22  1  0  0  0  0
 27 28  1  0  0  0  0
 28 20  2  0  0  0  0
 29 27  1  0  0  0  0
 31 30  2  0  0  0  0
 32 14  1  0  0  0  0
 32 33  1  0  0  0  0
 34 32  2  0  0  0  0
M  END
>  <MODEL>
9

>  <REMARK>
 VINA RESULT:      -7.4      3.998     10.347
  Name = 
  2 active torsions:
  status: ('A' for Active; 'I' for Inactive)
    1  A    between atoms: C_3  and  C_25
    2  A    between atoms: C_18  and  C_30
                            x       y       z     vdW  Elec       q    Type
                         _______ _______ _______ _____ _____    ______ ____

>  <TORSDO>
F 2

$$$$
