=
 OpenBabel11052421203D

 43 47  0  0  1  0  0  0  0  0999 V2000
  189.1210  174.3040  141.4280 N   0  0  0  0  0  0  0  0  0  0  0  0
  189.4000  173.9030  140.0720 C   0  0  0  0  0  0  0  0  0  0  0  0
  188.5200  174.0520  139.1810 O   0  0  0  0  0  0  0  0  0  0  0  0
  192.8970  176.2020  144.5450 C   0  0  0  0  0  0  0  0  0  0  0  0
  191.5910  174.2630  144.0290 C   0  0  0  0  0  0  0  0  0  0  0  0
  192.2110  176.9150  143.5370 C   0  0  0  0  0  3  0  0  0  0  0  0
  193.9570  176.8790  145.3350 C   0  0  0  0  0  1  0  0  0  0  0  0
  190.9120  174.9610  143.0690 C   0  0  0  0  0  0  0  0  0  0  0  0
  192.5930  174.8500  144.7960 C   0  0  0  0  0  3  0  0  0  0  0  0
  191.2050  176.2920  142.7780 C   0  0  0  0  0  3  0  0  0  0  0  0
  190.0330  174.0620  142.5080 C   0  0  0  0  0  0  0  0  0  0  0  0
  190.1880  172.8870  143.0880 O   0  0  0  0  0  0  0  0  0  0  0  0
  191.1210  172.9640  144.0240 C   0  0  0  0  0  3  0  0  0  0  0  0
  190.7640  173.4170  139.6750 C   0  0  0  0  0  2  0  0  0  0  0  0
  190.3390  169.9140  138.4930 C   0  0  0  0  0  2  0  0  0  0  0  0
  191.5960  169.7850  137.6280 C   0  0  0  0  0  0  0  0  0  0  0  0
  191.3170  168.8000  136.5120 C   0  0  0  0  0  1  0  0  0  0  0  0
  191.9820  172.2420  138.0630 C   0  0  0  0  0  2  0  0  0  0  0  0
  190.4530  171.0950  139.4560 C   0  0  0  0  0  2  0  0  0  0  0  0
  190.6760  172.3320  138.7080 N   0  0  0  0  0  0  0  0  0  0  0  0
  192.7520  169.2520  138.4590 C   0  0  0  0  0  1  0  0  0  0  0  0
  191.9700  171.1350  137.0070 C   0  0  0  0  0  2  0  0  0  0  0  0
  187.9390  175.1110  141.7160 C   0  0  0  0  0  2  0  0  0  0  0  0
  188.1360  176.4330  141.2740 O   0  0  0  0  0  0  0  0  0  0  0  0
  186.8910  177.0090  140.9300 C   0  0  2  0  0  3  0  0  0  0  0  0
  186.7530  177.2870  139.4370 C   0  0  0  0  0  1  0  0  0  0  0  0
  186.5370  178.2380  141.7700 C   0  0  0  0  0  2  0  0  0  0  0  0
  184.9030  178.3900  143.7150 N   0  0  0  0  0  2  0  0  0  0  0  0
  185.1430  178.1760  142.3230 C   0  0  0  0  0  0  0  0  0  0  0  0
  184.1740  177.8790  141.5750 O   0  0  0  0  0  0  0  0  0  0  0  0
  185.9710  178.6030  144.6830 C   0  0  1  0  0  3  0  0  0  0  0  0
  186.3890  176.8900  146.5670 C   0  0  0  0  0  2  0  0  0  0  0  0
  185.4420  179.3940  145.8820 C   0  0  0  0  0  2  0  0  0  0  0  0
  184.4790  178.5670  146.7430 C   0  0  0  0  0  2  0  0  0  0  0  0
  186.5930  177.2520  145.0940 C   0  0  2  0  0  3  0  0  0  0  0  0
  184.9320  177.1170  146.9610 C   0  0  0  0  0  2  0  0  0  0  0  0
  188.0620  177.1390  144.6800 C   0  0  0  0  0  2  0  0  0  0  0  0
  188.9320  176.5670  145.7530 C   0  0  0  0  0  0  0  0  0  0  0  0
  190.5730  175.4850  147.7450 C   0  0  0  0  0  3  0  0  0  0  0  0
  189.6440  174.6740  147.0880 C   0  0  0  0  0  3  0  0  0  0  0  0
  190.6830  176.8380  147.4070 C   0  0  0  0  0  3  0  0  0  0  0  0
  188.8240  175.2130  146.0930 C   0  0  0  0  0  3  0  0  0  0  0  0
  189.8630  177.3780  146.4130 C   0  0  0  0  0  3  0  0  0  0  0  0
  1 23  1  0  0  0  0
  1 11  1  0  0  0  0
  2  1  1  0  0  0  0
  3  2  2  0  0  0  0
  4  9  2  0  0  0  0
  4  7  1  0  0  0  0
  5  9  1  0  0  0  0
  6  4  1  0  0  0  0
  8  5  1  0  0  0  0
 10  8  1  0  0  0  0
 10  6  2  0  0  0  0
 11  8  2  0  0  0  0
 11 12  1  0  0  0  0
 12 13  1  0  0  0  0
 13  5  2  0  0  0  0
 14  2  1  0  0  0  0
 15 19  1  0  0  0  0
 16 21  1  0  0  0  0
 16 15  1  0  0  0  0
 17 16  1  0  0  0  0
 18 20  1  0  0  0  0
 20 19  1  0  0  0  0
 20 14  1  0  0  0  0
 22 16  1  0  0  0  0
 22 18  1  0  0  0  0
 24 23  1  0  0  0  0
 25 26  1  6  0  0  0
 25 24  1  0  0  0  0
 25 27  1  0  0  0  0
 27 29  1  0  0  0  0
 29 28  1  0  0  0  0
 30 29  2  0  0  0  0
 31 28  1  6  0  0  0
 31 35  1  0  0  0  0
 31 33  1  0  0  0  0
 32 36  1  0  0  0  0
 33 34  1  0  0  0  0
 34 36  1  0  0  0  0
 35 37  1  1  0  0  0
 35 32  1  0  0  0  0
 37 38  1  0  0  0  0
 38 42  2  0  0  0  0
 38 43  1  0  0  0  0
 40 39  2  0  0  0  0
 41 39  1  0  0  0  0
 42 40  1  0  0  0  0
 43 41  2  0  0  0  0
M  END
>  <MODEL>
1

>  <REMARK>
 VINA RESULT:      -8.2      0.000      0.000
  Name = 
  11 active torsions:
  status: ('A' for Active; 'I' for Inactive)
    1  A    between atoms: C_1  and  C_34
    2  A    between atoms: C_1  and  N_35
    3  A    between atoms: C_2  and  C_6
    4  A    between atoms: C_2  and  O_13
    5  A    between atoms: N_3  and  C_4
    6  A    between atoms: C_6  and  C_12
    7  A    between atoms: N_8  and  C_27
    8  A    between atoms: N_8  and  C_30
    9  A    between atoms: C_11  and  C_14
   10  A    between atoms: O_13  and  C_27
   11  A    between atoms: C_14  and  C_41
                            x       y       z     vdW  Elec       q    Type
                         _______ _______ _______ _____ _____    ______ ____

>  <TORSDO>
F 11

$$$$
=
 OpenBabel11052421203D

 43 47  0  0  1  0  0  0  0  0999 V2000
  189.4860  174.3040  142.0420 N   0  0  0  0  0  0  0  0  0  0  0  0
  188.3060  174.9240  141.4910 C   0  0  0  0  0  0  0  0  0  0  0  0
  188.2600  175.1990  140.2610 O   0  0  0  0  0  0  0  0  0  0  0  0
  190.6510  176.2830  146.7630 C   0  0  0  0  0  0  0  0  0  0  0  0
  190.0510  174.2880  145.5830 C   0  0  0  0  0  0  0  0  0  0  0  0
  190.5900  177.0030  145.5490 C   0  0  0  0  0  3  0  0  0  0  0  0
  191.0130  176.9880  148.0200 C   0  0  0  0  0  1  0  0  0  0  0  0
  189.9700  174.9910  144.4130 C   0  0  0  0  0  0  0  0  0  0  0  0
  190.3870  174.9010  146.7880 C   0  0  0  0  0  3  0  0  0  0  0  0
  190.2500  176.3540  144.3490 C   0  0  0  0  0  3  0  0  0  0  0  0
  189.6480  174.0650  143.4470 C   0  0  0  0  0  0  0  0  0  0  0  0
  189.5580  172.8720  144.0030 O   0  0  0  0  0  0  0  0  0  0  0  0
  189.7890  172.9620  145.3040 C   0  0  0  0  0  3  0  0  0  0  0  0
  187.0830  175.1420  142.3340 C   0  0  0  0  0  2  0  0  0  0  0  0
  186.2740  177.9210  144.6730 C   0  0  0  0  0  2  0  0  0  0  0  0
  185.4770  178.8240  143.7270 C   0  0  0  0  0  0  0  0  0  0  0  0
  185.6520  180.2620  144.1680 C   0  0  0  0  0  1  0  0  0  0  0  0
  186.1080  177.2180  141.8840 C   0  0  0  0  0  2  0  0  0  0  0  0
  186.3760  176.4990  144.1210 C   0  0  0  0  0  2  0  0  0  0  0  0
  187.0040  176.5190  142.8000 N   0  0  0  0  0  0  0  0  0  0  0  0
  183.9980  178.4790  143.7940 C   0  0  0  0  0  1  0  0  0  0  0  0
  185.9870  178.6890  142.2890 C   0  0  0  0  0  2  0  0  0  0  0  0
  190.5040  173.7640  141.1460 C   0  0  0  0  0  2  0  0  0  0  0  0
  190.1570  172.4580  140.7500 O   0  0  0  0  0  0  0  0  0  0  0  0
  191.2410  171.5830  140.9970 C   0  0  2  0  0  3  0  0  0  0  0  0
  190.7980  170.2120  141.4960 C   0  0  0  0  0  1  0  0  0  0  0  0
  192.3200  172.1910  141.8940 C   0  0  0  0  0  2  0  0  0  0  0  0
  194.5270  171.0660  142.4760 N   0  0  0  0  0  2  0  0  0  0  0  0
  193.7010  171.7360  141.5220 C   0  0  0  0  0  0  0  0  0  0  0  0
  194.1690  171.9890  140.3810 O   0  0  0  0  0  0  0  0  0  0  0  0
  194.1290  170.8510  143.8620 C   0  0  1  0  0  3  0  0  0  0  0  0
  195.7040  171.5180  145.7940 C   0  0  0  0  0  2  0  0  0  0  0  0
  194.5800  169.4640  144.3270 C   0  0  0  0  0  2  0  0  0  0  0  0
  196.1040  169.3710  144.4820 C   0  0  0  0  0  2  0  0  0  0  0  0
  194.6790  171.9820  144.7550 C   0  0  2  0  0  3  0  0  0  0  0  0
  196.7360  170.6080  145.1360 C   0  0  0  0  0  2  0  0  0  0  0  0
  193.5640  172.8150  145.3890 C   0  0  0  0  0  2  0  0  0  0  0  0
  193.8000  174.2880  145.2870 C   0  0  0  0  0  0  0  0  0  0  0  0
  194.2180  177.0480  145.0910 C   0  0  0  0  0  3  0  0  0  0  0  0
  193.8940  176.3080  143.9510 C   0  0  0  0  0  3  0  0  0  0  0  0
  194.3330  176.4100  146.3300 C   0  0  0  0  0  3  0  0  0  0  0  0
  193.6850  174.9300  144.0470 C   0  0  0  0  0  3  0  0  0  0  0  0
  194.1250  175.0310  146.4280 C   0  0  0  0  0  3  0  0  0  0  0  0
  1 11  1  0  0  0  0
  2  1  1  0  0  0  0
  2 14  1  0  0  0  0
  3  2  2  0  0  0  0
  4  9  2  0  0  0  0
  4  7  1  0  0  0  0
  5  9  1  0  0  0  0
  6  4  1  0  0  0  0
  8  5  1  0  0  0  0
 10  8  1  0  0  0  0
 10  6  2  0  0  0  0
 11 12  1  0  0  0  0
 11  8  2  0  0  0  0
 12 13  1  0  0  0  0
 13  5  2  0  0  0  0
 14 20  1  0  0  0  0
 16 21  1  0  0  0  0
 16 17  1  0  0  0  0
 16 15  1  0  0  0  0
 18 22  1  0  0  0  0
 18 20  1  0  0  0  0
 19 15  1  0  0  0  0
 20 19  1  0  0  0  0
 22 16  1  0  0  0  0
 23  1  1  0  0  0  0
 24 25  1  0  0  0  0
 24 23  1  0  0  0  0
 25 26  1  1  0  0  0
 25 27  1  0  0  0  0
 29 27  1  0  0  0  0
 29 28  1  0  0  0  0
 30 29  2  0  0  0  0
 31 28  1  6  0  0  0
 31 33  1  0  0  0  0
 31 35  1  0  0  0  0
 33 34  1  0  0  0  0
 34 36  1  0  0  0  0
 35 37  1  1  0  0  0
 35 32  1  0  0  0  0
 36 32  1  0  0  0  0
 38 37  1  0  0  0  0
 38 43  1  0  0  0  0
 39 41  1  0  0  0  0
 40 42  1  0  0  0  0
 40 39  2  0  0  0  0
 41 43  2  0  0  0  0
 42 38  2  0  0  0  0
M  END
>  <MODEL>
2

>  <REMARK>
 VINA RESULT:      -7.8      2.627      8.117
  Name = 
  11 active torsions:
  status: ('A' for Active; 'I' for Inactive)
    1  A    between atoms: C_1  and  C_34
    2  A    between atoms: C_1  and  N_35
    3  A    between atoms: C_2  and  C_6
    4  A    between atoms: C_2  and  O_13
    5  A    between atoms: N_3  and  C_4
    6  A    between atoms: C_6  and  C_12
    7  A    between atoms: N_8  and  C_27
    8  A    between atoms: N_8  and  C_30
    9  A    between atoms: C_11  and  C_14
   10  A    between atoms: O_13  and  C_27
   11  A    between atoms: C_14  and  C_41
                            x       y       z     vdW  Elec       q    Type
                         _______ _______ _______ _____ _____    ______ ____

>  <TORSDO>
F 11

$$$$
=
 OpenBabel11052421203D

 43 47  0  0  1  0  0  0  0  0999 V2000
  188.2560  176.7720  141.7640 N   0  0  0  0  0  0  0  0  0  0  0  0
  187.0210  177.4890  141.5670 C   0  0  0  0  0  0  0  0  0  0  0  0
  186.2510  177.1630  140.6230 O   0  0  0  0  0  0  0  0  0  0  0  0
  190.3790  175.8830  146.4830 C   0  0  0  0  0  0  0  0  0  0  0  0
  190.4460  177.2990  144.5540 C   0  0  0  0  0  0  0  0  0  0  0  0
  189.3530  175.1260  145.8740 C   0  0  0  0  0  3  0  0  0  0  0  0
  190.8630  175.5120  147.8370 C   0  0  0  0  0  1  0  0  0  0  0  0
  189.4690  176.5520  143.9570 C   0  0  0  0  0  0  0  0  0  0  0  0
  190.9340  176.9940  145.8220 C   0  0  0  0  0  3  0  0  0  0  0  0
  188.8800  175.4620  144.5940 C   0  0  0  0  0  3  0  0  0  0  0  0
  189.2260  177.1600  142.7460 C   0  0  0  0  0  0  0  0  0  0  0  0
  190.0020  178.2210  142.6300 O   0  0  0  0  0  0  0  0  0  0  0  0
  190.7660  178.3400  143.7050 C   0  0  0  0  0  3  0  0  0  0  0  0
  186.5760  178.5440  142.5390 C   0  0  0  0  0  2  0  0  0  0  0  0
  185.5910  176.5290  145.5080 C   0  0  0  0  0  2  0  0  0  0  0  0
  185.4580  177.6510  146.5420 C   0  0  0  0  0  0  0  0  0  0  0  0
  185.7760  177.0880  147.9110 C   0  0  0  0  0  1  0  0  0  0  0  0
  186.3640  179.2050  144.7700 C   0  0  0  0  0  2  0  0  0  0  0  0
  185.5670  177.0860  144.0850 C   0  0  0  0  0  2  0  0  0  0  0  0
  186.6440  178.0600  143.9100 N   0  0  0  0  0  0  0  0  0  0  0  0
  184.0330  178.1800  146.5610 C   0  0  0  0  0  1  0  0  0  0  0  0
  186.4400  178.7870  146.2400 C   0  0  0  0  0  2  0  0  0  0  0  0
  188.4890  175.5210  141.0470 C   0  0  0  0  0  2  0  0  0  0  0  0
  187.9240  174.4440  141.7580 O   0  0  0  0  0  0  0  0  0  0  0  0
  188.7800  173.3220  141.6770 C   0  0  2  0  0  3  0  0  0  0  0  0
  188.4220  172.2250  142.6740 C   0  0  0  0  0  1  0  0  0  0  0  0
  190.2650  173.6840  141.7430 C   0  0  0  0  0  2  0  0  0  0  0  0
  191.7950  171.7300  141.1810 N   0  0  0  0  0  2  0  0  0  0  0  0
  191.0920  172.9020  140.7650 C   0  0  0  0  0  0  0  0  0  0  0  0
  191.2220  173.3030  139.5780 O   0  0  0  0  0  0  0  0  0  0  0  0
  191.8190  171.2640  142.5610 C   0  0  1  0  0  3  0  0  0  0  0  0
  194.0530  171.0730  143.8380 C   0  0  0  0  0  2  0  0  0  0  0  0
  191.9730  169.7420  142.5990 C   0  0  0  0  0  2  0  0  0  0  0  0
  193.3690  169.2890  142.1520 C   0  0  0  0  0  2  0  0  0  0  0  0
  192.9300  171.9910  143.3480 C   0  0  2  0  0  3  0  0  0  0  0  0
  194.5090  170.1570  142.7060 C   0  0  0  0  0  2  0  0  0  0  0  0
  192.3700  172.8560  144.4780 C   0  0  0  0  0  2  0  0  0  0  0  0
  193.1360  174.1250  144.6800 C   0  0  0  0  0  0  0  0  0  0  0  0
  194.5490  176.5110  145.0590 C   0  0  0  0  0  3  0  0  0  0  0  0
  193.9600  176.2370  143.8220 C   0  0  0  0  0  3  0  0  0  0  0  0
  194.4330  175.5940  146.1080 C   0  0  0  0  0  3  0  0  0  0  0  0
  193.2540  175.0460  143.6310 C   0  0  0  0  0  3  0  0  0  0  0  0
  193.7270  174.4020  145.9190 C   0  0  0  0  0  3  0  0  0  0  0  0
  1 11  1  0  0  0  0
  2  1  1  0  0  0  0
  2 14  1  0  0  0  0
  3  2  2  0  0  0  0
  4  7  1  0  0  0  0
  5  9  1  0  0  0  0
  6  4  1  0  0  0  0
  8  5  1  0  0  0  0
  8 10  1  0  0  0  0
  9  4  2  0  0  0  0
 10  6  2  0  0  0  0
 11  8  2  0  0  0  0
 12 11  1  0  0  0  0
 12 13  1  0  0  0  0
 13  5  2  0  0  0  0
 14 20  1  0  0  0  0
 15 16  1  0  0  0  0
 16 21  1  0  0  0  0
 16 17  1  0  0  0  0
 18 22  1  0  0  0  0
 19 15  1  0  0  0  0
 20 19  1  0  0  0  0
 20 18  1  0  0  0  0
 22 16  1  0  0  0  0
 23 24  1  0  0  0  0
 23  1  1  0  0  0  0
 25 27  1  0  0  0  0
 25 24  1  0  0  0  0
 25 26  1  1  0  0  0
 29 28  1  0  0  0  0
 29 27  1  0  0  0  0
 30 29  2  0  0  0  0
 31 28  1  6  0  0  0
 31 33  1  0  0  0  0
 31 35  1  0  0  0  0
 34 33  1  0  0  0  0
 34 36  1  0  0  0  0
 35 32  1  0  0  0  0
 35 37  1  1  0  0  0
 36 32  1  0  0  0  0
 37 38  1  0  0  0  0
 38 43  1  0  0  0  0
 39 41  1  0  0  0  0
 40 39  2  0  0  0  0
 42 40  1  0  0  0  0
 42 38  2  0  0  0  0
 43 41  2  0  0  0  0
M  END
>  <MODEL>
3

>  <REMARK>
 VINA RESULT:      -7.7      2.215      7.953
  Name = 
  11 active torsions:
  status: ('A' for Active; 'I' for Inactive)
    1  A    between atoms: C_1  and  C_34
    2  A    between atoms: C_1  and  N_35
    3  A    between atoms: C_2  and  C_6
    4  A    between atoms: C_2  and  O_13
    5  A    between atoms: N_3  and  C_4
    6  A    between atoms: C_6  and  C_12
    7  A    between atoms: N_8  and  C_27
    8  A    between atoms: N_8  and  C_30
    9  A    between atoms: C_11  and  C_14
   10  A    between atoms: O_13  and  C_27
   11  A    between atoms: C_14  and  C_41
                            x       y       z     vdW  Elec       q    Type
                         _______ _______ _______ _____ _____    ______ ____

>  <TORSDO>
F 11

$$$$
=
 OpenBabel11052421203D

 43 47  0  0  1  0  0  0  0  0999 V2000
  189.6660  174.9660  141.8240 N   0  0  0  0  0  0  0  0  0  0  0  0
  188.5420  175.7300  141.3440 C   0  0  0  0  0  0  0  0  0  0  0  0
  187.8040  175.2550  140.4370 O   0  0  0  0  0  0  0  0  0  0  0  0
  191.1630  175.3210  146.8450 C   0  0  0  0  0  0  0  0  0  0  0  0
  191.6720  176.0080  144.6090 C   0  0  0  0  0  0  0  0  0  0  0  0
  190.0630  174.5830  146.3530 C   0  0  0  0  0  3  0  0  0  0  0  0
  191.4470  175.3340  148.3020 C   0  0  0  0  0  1  0  0  0  0  0  0
  190.6210  175.2750  144.1310 C   0  0  0  0  0  0  0  0  0  0  0  0
  191.9810  176.0550  145.9660 C   0  0  0  0  0  3  0  0  0  0  0  0
  189.7770  174.5590  144.9760 C   0  0  0  0  0  3  0  0  0  0  0  0
  190.6070  175.4900  142.7720 C   0  0  0  0  0  0  0  0  0  0  0  0
  191.5840  176.3180  142.4540 O   0  0  0  0  0  0  0  0  0  0  0  0
  192.2620  176.6540  143.5410 C   0  0  0  0  0  3  0  0  0  0  0  0
  188.1620  177.0330  141.9850 C   0  0  0  0  0  2  0  0  0  0  0  0
  185.3980  176.8560  144.4710 C   0  0  0  0  0  2  0  0  0  0  0  0
  185.9810  177.7580  145.5620 C   0  0  0  0  0  0  0  0  0  0  0  0
  185.4480  177.3010  146.9040 C   0  0  0  0  0  1  0  0  0  0  0  0
  188.0930  177.8330  144.1800 C   0  0  0  0  0  2  0  0  0  0  0  0
  186.1100  177.0750  143.1360 C   0  0  0  0  0  2  0  0  0  0  0  0
  187.5420  176.8200  143.2850 N   0  0  0  0  0  0  0  0  0  0  0  0
  185.5470  179.1980  145.3400 C   0  0  0  0  0  1  0  0  0  0  0  0
  187.5100  177.6650  145.5840 C   0  0  0  0  0  2  0  0  0  0  0  0
  189.7960  173.5590  141.4570 C   0  0  0  0  0  2  0  0  0  0  0  0
  191.1290  173.1360  141.6240 O   0  0  0  0  0  0  0  0  0  0  0  0
  191.1500  171.8860  142.2850 C   0  0  2  0  0  3  0  0  0  0  0  0
  189.7960  171.4950  142.8660 C   0  0  0  0  0  1  0  0  0  0  0  0
  192.2680  171.7660  143.3220 C   0  0  0  0  0  2  0  0  0  0  0  0
  194.1320  170.1850  144.0310 N   0  0  0  0  0  2  0  0  0  0  0  0
  193.1860  170.6090  143.0490 C   0  0  0  0  0  0  0  0  0  0  0  0
  193.1700  170.0360  141.9280 O   0  0  0  0  0  0  0  0  0  0  0  0
  194.3210  170.8700  145.3030 C   0  0  1  0  0  3  0  0  0  0  0  0
  196.6310  171.8270  145.9410 C   0  0  0  0  0  2  0  0  0  0  0  0
  194.7340  169.8670  146.3830 C   0  0  0  0  0  2  0  0  0  0  0  0
  196.1560  169.3340  146.1660 C   0  0  0  0  0  2  0  0  0  0  0  0
  195.3400  172.0180  145.1410 C   0  0  2  0  0  3  0  0  0  0  0  0
  197.1640  170.4120  145.7400 C   0  0  0  0  0  2  0  0  0  0  0  0
  194.7130  173.3900  145.3940 C   0  0  0  0  0  2  0  0  0  0  0  0
  195.1020  174.4110  144.3720 C   0  0  0  0  0  0  0  0  0  0  0  0
  195.8520  176.3170  142.4650 C   0  0  0  0  0  3  0  0  0  0  0  0
  196.0110  176.5900  143.8260 C   0  0  0  0  0  3  0  0  0  0  0  0
  195.3170  175.0910  142.0550 C   0  0  0  0  0  3  0  0  0  0  0  0
  195.6370  175.6390  144.7790 C   0  0  0  0  0  3  0  0  0  0  0  0
  194.9420  174.1390  143.0080 C   0  0  0  0  0  3  0  0  0  0  0  0
  1 11  1  0  0  0  0
  2  1  1  0  0  0  0
  2 14  1  0  0  0  0
  3  2  2  0  0  0  0
  4  7  1  0  0  0  0
  5  9  1  0  0  0  0
  6  4  1  0  0  0  0
  8  5  1  0  0  0  0
  8 10  1  0  0  0  0
  9  4  2  0  0  0  0
 10  6  2  0  0  0  0
 11  8  2  0  0  0  0
 12 11  1  0  0  0  0
 12 13  1  0  0  0  0
 13  5  2  0  0  0  0
 14 20  1  0  0  0  0
 15 16  1  0  0  0  0
 16 22  1  0  0  0  0
 16 17  1  0  0  0  0
 18 22  1  0  0  0  0
 19 20  1  0  0  0  0
 19 15  1  0  0  0  0
 20 18  1  0  0  0  0
 21 16  1  0  0  0  0
 23 24  1  0  0  0  0
 23  1  1  0  0  0  0
 24 25  1  0  0  0  0
 25 26  1  1  0  0  0
 25 27  1  0  0  0  0
 29 27  1  0  0  0  0
 29 28  1  0  0  0  0
 30 29  2  0  0  0  0
 31 28  1  6  0  0  0
 31 33  1  0  0  0  0
 34 33  1  0  0  0  0
 35 31  1  0  0  0  0
 35 37  1  1  0  0  0
 35 32  1  0  0  0  0
 36 32  1  0  0  0  0
 36 34  1  0  0  0  0
 38 42  1  0  0  0  0
 38 37  1  0  0  0  0
 39 40  1  0  0  0  0
 40 42  2  0  0  0  0
 41 39  2  0  0  0  0
 41 43  1  0  0  0  0
 43 38  2  0  0  0  0
M  END
>  <MODEL>
4

>  <REMARK>
 VINA RESULT:      -7.6      2.941      8.481
  Name = 
  11 active torsions:
  status: ('A' for Active; 'I' for Inactive)
    1  A    between atoms: C_1  and  C_34
    2  A    between atoms: C_1  and  N_35
    3  A    between atoms: C_2  and  C_6
    4  A    between atoms: C_2  and  O_13
    5  A    between atoms: N_3  and  C_4
    6  A    between atoms: C_6  and  C_12
    7  A    between atoms: N_8  and  C_27
    8  A    between atoms: N_8  and  C_30
    9  A    between atoms: C_11  and  C_14
   10  A    between atoms: O_13  and  C_27
   11  A    between atoms: C_14  and  C_41
                            x       y       z     vdW  Elec       q    Type
                         _______ _______ _______ _____ _____    ______ ____

>  <TORSDO>
F 11

$$$$
=
 OpenBabel11052421203D

 43 47  0  0  1  0  0  0  0  0999 V2000
  188.1640  176.5910  141.9300 N   0  0  0  0  0  0  0  0  0  0  0  0
  186.9860  177.3630  141.6220 C   0  0  0  0  0  0  0  0  0  0  0  0
  186.2030  176.9730  140.7130 O   0  0  0  0  0  0  0  0  0  0  0  0
  190.4870  175.8580  146.5810 C   0  0  0  0  0  0  0  0  0  0  0  0
  190.4290  177.2480  144.6330 C   0  0  0  0  0  0  0  0  0  0  0  0
  189.4730  175.0520  146.0200 C   0  0  0  0  0  3  0  0  0  0  0  0
  191.0340  175.5270  147.9220 C   0  0  0  0  0  1  0  0  0  0  0  0
  189.4620  176.4530  144.0810 C   0  0  0  0  0  0  0  0  0  0  0  0
  190.9730  176.9810  145.8860 C   0  0  0  0  0  3  0  0  0  0  0  0
  188.9410  175.3500  144.7530 C   0  0  0  0  0  3  0  0  0  0  0  0
  189.1520  177.0330  142.8720 C   0  0  0  0  0  0  0  0  0  0  0  0
  189.8790  178.1220  142.7140 O   0  0  0  0  0  0  0  0  0  0  0  0
  190.6760  178.2880  143.7600 C   0  0  0  0  0  3  0  0  0  0  0  0
  186.6120  178.5630  142.4420 C   0  0  0  0  0  2  0  0  0  0  0  0
  185.6520  176.7910  145.5700 C   0  0  0  0  0  2  0  0  0  0  0  0
  185.2930  177.9960  146.4440 C   0  0  0  0  0  0  0  0  0  0  0  0
  185.5660  177.6440  147.8910 C   0  0  0  0  0  1  0  0  0  0  0  0
  186.1340  179.4430  144.5540 C   0  0  0  0  0  2  0  0  0  0  0  0
  185.6740  177.1700  144.0900 C   0  0  0  0  0  2  0  0  0  0  0  0
  186.6290  178.2550  143.8650 N   0  0  0  0  0  0  0  0  0  0  0  0
  183.8150  178.3240  146.3020 C   0  0  0  0  0  1  0  0  0  0  0  0
  186.1430  179.2130  146.0670 C   0  0  0  0  0  2  0  0  0  0  0  0
  188.3110  175.2450  141.3840 C   0  0  0  0  0  2  0  0  0  0  0  0
  189.6760  174.9290  141.2370 O   0  0  0  0  0  0  0  0  0  0  0  0
  189.8140  173.5530  140.9400 C   0  0  2  0  0  3  0  0  0  0  0  0
  188.9710  172.6600  141.8440 C   0  0  0  0  0  1  0  0  0  0  0  0
  191.2710  173.0870  140.8830 C   0  0  0  0  0  2  0  0  0  0  0  0
  193.2870  174.1640  139.7650 N   0  0  0  0  0  2  0  0  0  0  0  0
  191.9860  173.5830  139.6600 C   0  0  0  0  0  0  0  0  0  0  0  0
  191.4240  173.5430  138.5340 O   0  0  0  0  0  0  0  0  0  0  0  0
  193.9620  174.3810  141.0390 C   0  0  1  0  0  3  0  0  0  0  0  0
  195.6680  176.2980  141.3050 C   0  0  0  0  0  2  0  0  0  0  0  0
  195.2610  173.5740  141.0870 C   0  0  0  0  0  2  0  0  0  0  0  0
  196.3270  174.1330  140.1360 C   0  0  0  0  0  2  0  0  0  0  0  0
  194.1930  175.8890  141.2680 C   0  0  2  0  0  3  0  0  0  0  0  0
  196.4130  175.6660  140.1340 C   0  0  0  0  0  2  0  0  0  0  0  0
  193.4270  176.4160  142.4820 C   0  0  0  0  0  2  0  0  0  0  0  0
  193.4720  175.4870  143.6540 C   0  0  0  0  0  0  0  0  0  0  0  0
  193.5660  173.7320  145.8320 C   0  0  0  0  0  3  0  0  0  0  0  0
  192.6300  173.5330  144.8140 C   0  0  0  0  0  3  0  0  0  0  0  0
  194.4570  174.8090  145.7630 C   0  0  0  0  0  3  0  0  0  0  0  0
  192.5820  174.4080  143.7260 C   0  0  0  0  0  3  0  0  0  0  0  0
  194.4090  175.6850  144.6750 C   0  0  0  0  0  3  0  0  0  0  0  0
  1 11  1  0  0  0  0
  2  1  1  0  0  0  0
  2 14  1  0  0  0  0
  3  2  2  0  0  0  0
  4  7  1  0  0  0  0
  5  9  1  0  0  0  0
  6  4  1  0  0  0  0
  8  5  1  0  0  0  0
  8 10  1  0  0  0  0
  9  4  2  0  0  0  0
 10  6  2  0  0  0  0
 11  8  2  0  0  0  0
 12 11  1  0  0  0  0
 12 13  1  0  0  0  0
 13  5  2  0  0  0  0
 14 20  1  0  0  0  0
 15 16  1  0  0  0  0
 16 17  1  0  0  0  0
 18 22  1  0  0  0  0
 19 15  1  0  0  0  0
 20 19  1  0  0  0  0
 20 18  1  0  0  0  0
 21 16  1  0  0  0  0
 22 16  1  0  0  0  0
 23  1  1  0  0  0  0
 24 23  1  0  0  0  0
 25 24  1  0  0  0  0
 25 26  1  1  0  0  0
 27 25  1  0  0  0  0
 29 28  1  0  0  0  0
 29 27  1  0  0  0  0
 30 29  2  0  0  0  0
 31 28  1  6  0  0  0
 31 33  1  0  0  0  0
 31 35  1  0  0  0  0
 34 33  1  0  0  0  0
 35 32  1  0  0  0  0
 35 37  1  1  0  0  0
 36 34  1  0  0  0  0
 36 32  1  0  0  0  0
 37 38  1  0  0  0  0
 38 42  2  0  0  0  0
 38 43  1  0  0  0  0
 40 39  2  0  0  0  0
 41 39  1  0  0  0  0
 42 40  1  0  0  0  0
 43 41  2  0  0  0  0
M  END
>  <MODEL>
5

>  <REMARK>
 VINA RESULT:      -7.5      2.269      8.103
  Name = 
  11 active torsions:
  status: ('A' for Active; 'I' for Inactive)
    1  A    between atoms: C_1  and  C_34
    2  A    between atoms: C_1  and  N_35
    3  A    between atoms: C_2  and  C_6
    4  A    between atoms: C_2  and  O_13
    5  A    between atoms: N_3  and  C_4
    6  A    between atoms: C_6  and  C_12
    7  A    between atoms: N_8  and  C_27
    8  A    between atoms: N_8  and  C_30
    9  A    between atoms: C_11  and  C_14
   10  A    between atoms: O_13  and  C_27
   11  A    between atoms: C_14  and  C_41
                            x       y       z     vdW  Elec       q    Type
                         _______ _______ _______ _____ _____    ______ ____

>  <TORSDO>
F 11

$$$$
=
 OpenBabel11052421203D

 43 47  0  0  1  0  0  0  0  0999 V2000
  190.6670  175.5260  145.4260 N   0  0  0  0  0  0  0  0  0  0  0  0
  189.8120  176.2900  146.3000 C   0  0  0  0  0  0  0  0  0  0  0  0
  190.2770  177.2870  146.9180 O   0  0  0  0  0  0  0  0  0  0  0  0
  188.7440  173.2690  141.0930 C   0  0  0  0  0  0  0  0  0  0  0  0
  189.4510  172.8710  143.3450 C   0  0  0  0  0  0  0  0  0  0  0  0
  189.0680  174.6350  141.2480 C   0  0  0  0  0  3  0  0  0  0  0  0
  188.1910  172.7850  139.8020 C   0  0  0  0  0  1  0  0  0  0  0  0
  189.7850  174.1890  143.4860 C   0  0  0  0  0  0  0  0  0  0  0  0
  188.9280  172.3670  142.1570 C   0  0  0  0  0  3  0  0  0  0  0  0
  189.5920  175.1130  142.4620 C   0  0  0  0  0  3  0  0  0  0  0  0
  190.2330  174.3210  144.7810 C   0  0  0  0  0  0  0  0  0  0  0  0
  190.1560  173.1520  145.3880 O   0  0  0  0  0  0  0  0  0  0  0  0
  189.6910  172.2380  144.5490 C   0  0  0  0  0  3  0  0  0  0  0  0
  188.3440  175.9920  146.3990 C   0  0  0  0  0  2  0  0  0  0  0  0
  185.2430  177.9830  145.8720 C   0  0  0  0  0  2  0  0  0  0  0  0
  185.4980  178.4740  144.4450 C   0  0  0  0  0  0  0  0  0  0  0  0
  184.8100  179.8110  144.2630 C   0  0  0  0  0  1  0  0  0  0  0  0
  187.7850  177.4220  144.6360 C   0  0  0  0  0  2  0  0  0  0  0  0
  186.1380  176.7910  146.2130 C   0  0  0  0  0  2  0  0  0  0  0  0
  187.5450  177.1590  146.0520 N   0  0  0  0  0  0  0  0  0  0  0  0
  184.9120  177.4940  143.4410 C   0  0  0  0  0  1  0  0  0  0  0  0
  186.9970  178.6560  144.1920 C   0  0  0  0  0  2  0  0  0  0  0  0
  191.9790  176.0500  145.0580 C   0  0  0  0  0  2  0  0  0  0  0  0
  192.9750  175.0900  145.3190 O   0  0  0  0  0  0  0  0  0  0  0  0
  194.0980  175.7180  145.9050 C   0  0  2  0  0  3  0  0  0  0  0  0
  193.7190  176.7910  146.9200 C   0  0  0  0  0  1  0  0  0  0  0  0
  195.1070  176.2400  144.8800 C   0  0  0  0  0  2  0  0  0  0  0  0
  196.0950  174.8730  142.9740 N   0  0  0  0  0  2  0  0  0  0  0  0
  196.0200  175.1620  144.3720 C   0  0  0  0  0  0  0  0  0  0  0  0
  196.6890  174.4620  145.1770 O   0  0  0  0  0  0  0  0  0  0  0  0
  195.2600  175.5320  141.9790 C   0  0  1  0  0  3  0  0  0  0  0  0
  195.1600  174.6430  139.5590 C   0  0  0  0  0  2  0  0  0  0  0  0
  196.0590  176.6230  141.2630 C   0  0  0  0  0  2  0  0  0  0  0  0
  197.1400  176.0410  140.3430 C   0  0  0  0  0  2  0  0  0  0  0  0
  194.6740  174.4910  141.0030 C   0  0  2  0  0  3  0  0  0  0  0  0
  196.6750  174.8200  139.5360 C   0  0  0  0  0  2  0  0  0  0  0  0
  193.1480  174.4140  141.0830 C   0  0  0  0  0  2  0  0  0  0  0  0
  192.6200  173.0260  140.9030 C   0  0  0  0  0  0  0  0  0  0  0  0
  191.6140  170.4340  140.5790 C   0  0  0  0  0  3  0  0  0  0  0  0
  192.1970  170.8110  141.7920 C   0  0  0  0  0  3  0  0  0  0  0  0
  191.5330  171.3520  139.5270 C   0  0  0  0  0  3  0  0  0  0  0  0
  192.7000  172.1050  141.9550 C   0  0  0  0  0  3  0  0  0  0  0  0
  192.0360  172.6460  139.6890 C   0  0  0  0  0  3  0  0  0  0  0  0
  1  2  1  0  0  0  0
  2 14  1  0  0  0  0
  2  3  2  0  0  0  0
  4  6  1  0  0  0  0
  4  9  2  0  0  0  0
  5  8  1  0  0  0  0
  5 13  2  0  0  0  0
  6 10  2  0  0  0  0
  7  4  1  0  0  0  0
  8 11  2  0  0  0  0
  9  5  1  0  0  0  0
 10  8  1  0  0  0  0
 11 12  1  0  0  0  0
 11  1  1  0  0  0  0
 13 12  1  0  0  0  0
 15 19  1  0  0  0  0
 16 15  1  0  0  0  0
 17 16  1  0  0  0  0
 18 20  1  0  0  0  0
 20 19  1  0  0  0  0
 20 14  1  0  0  0  0
 21 16  1  0  0  0  0
 22 16  1  0  0  0  0
 22 18  1  0  0  0  0
 23 24  1  0  0  0  0
 23  1  1  0  0  0  0
 24 25  1  0  0  0  0
 25 26  1  6  0  0  0
 27 25  1  0  0  0  0
 28 29  1  0  0  0  0
 29 27  1  0  0  0  0
 29 30  2  0  0  0  0
 31 28  1  1  0  0  0
 32 35  1  0  0  0  0
 33 31  1  0  0  0  0
 34 33  1  0  0  0  0
 35 37  1  6  0  0  0
 35 31  1  0  0  0  0
 36 32  1  0  0  0  0
 36 34  1  0  0  0  0
 38 37  1  0  0  0  0
 38 42  1  0  0  0  0
 39 40  1  0  0  0  0
 40 42  2  0  0  0  0
 41 43  1  0  0  0  0
 41 39  2  0  0  0  0
 43 38  2  0  0  0  0
M  END
>  <MODEL>
6

>  <REMARK>
 VINA RESULT:      -7.3      3.085      9.108
  Name = 
  11 active torsions:
  status: ('A' for Active; 'I' for Inactive)
    1  A    between atoms: C_1  and  C_34
    2  A    between atoms: C_1  and  N_35
    3  A    between atoms: C_2  and  C_6
    4  A    between atoms: C_2  and  O_13
    5  A    between atoms: N_3  and  C_4
    6  A    between atoms: C_6  and  C_12
    7  A    between atoms: N_8  and  C_27
    8  A    between atoms: N_8  and  C_30
    9  A    between atoms: C_11  and  C_14
   10  A    between atoms: O_13  and  C_27
   11  A    between atoms: C_14  and  C_41
                            x       y       z     vdW  Elec       q    Type
                         _______ _______ _______ _____ _____    ______ ____

>  <TORSDO>
F 11

$$$$
=
 OpenBabel11052421203D

 43 47  0  0  1  0  0  0  0  0999 V2000
  194.1360  175.4180  145.3430 N   0  0  0  0  0  0  0  0  0  0  0  0
  193.9650  176.0520  144.0590 C   0  0  0  0  0  0  0  0  0  0  0  0
  193.0580  176.9140  143.9020 O   0  0  0  0  0  0  0  0  0  0  0  0
  195.0310  170.2450  145.3640 C   0  0  0  0  0  0  0  0  0  0  0  0
  196.0120  172.3910  145.7640 C   0  0  0  0  0  0  0  0  0  0  0  0
  193.8190  170.8790  145.0130 C   0  0  0  0  0  3  0  0  0  0  0  0
  195.1210  168.7620  145.3350 C   0  0  0  0  0  1  0  0  0  0  0  0
  194.8450  173.0050  145.4020 C   0  0  0  0  0  0  0  0  0  0  0  0
  196.1490  171.0060  145.7550 C   0  0  0  0  0  3  0  0  0  0  0  0
  193.7130  172.2810  145.0360 C   0  0  0  0  0  3  0  0  0  0  0  0
  195.0720  174.3540  145.5600 C   0  0  0  0  0  0  0  0  0  0  0  0
  196.3000  174.5370  146.0070 O   0  0  0  0  0  0  0  0  0  0  0  0
  196.9110  173.3700  146.1390 C   0  0  0  0  0  3  0  0  0  0  0  0
  194.9240  175.7900  142.9340 C   0  0  0  0  0  2  0  0  0  0  0  0
  192.9530  173.7700  140.5090 C   0  0  0  0  0  2  0  0  0  0  0  0
  193.8370  173.9310  139.2690 C   0  0  0  0  0  0  0  0  0  0  0  0
  192.9620  173.8450  138.0360 C   0  0  0  0  0  1  0  0  0  0  0  0
  195.2100  175.5580  140.6260 C   0  0  0  0  0  2  0  0  0  0  0  0
  193.7190  174.1300  141.7820 C   0  0  0  0  0  2  0  0  0  0  0  0
  194.2170  175.5030  141.6950 N   0  0  0  0  0  0  0  0  0  0  0  0
  194.8620  172.8090  139.2070 C   0  0  0  0  0  1  0  0  0  0  0  0
  194.5410  175.2910  139.2760 C   0  0  0  0  0  2  0  0  0  0  0  0
  193.4440  175.9530  146.5120 C   0  0  0  0  0  2  0  0  0  0  0  0
  192.0870  175.5770  146.4860 O   0  0  0  0  0  0  0  0  0  0  0  0
  191.2960  176.6190  147.0240 C   0  0  2  0  0  3  0  0  0  0  0  0
  191.5660  176.8710  148.5030 C   0  0  0  0  0  1  0  0  0  0  0  0
  189.8010  176.4540  146.7420 C   0  0  0  0  0  2  0  0  0  0  0  0
  189.2800  174.7390  144.9360 N   0  0  0  0  0  2  0  0  0  0  0  0
  189.4460  175.0580  146.3180 C   0  0  0  0  0  0  0  0  0  0  0  0
  189.2340  174.1660  147.1810 O   0  0  0  0  0  0  0  0  0  0  0  0
  189.3680  175.7320  143.8730 C   0  0  1  0  0  3  0  0  0  0  0  0
  187.6520  175.7390  141.9460 C   0  0  0  0  0  2  0  0  0  0  0  0
  190.2450  175.2060  142.7350 C   0  0  0  0  0  2  0  0  0  0  0  0
  189.5710  174.0650  141.9620 C   0  0  0  0  0  2  0  0  0  0  0  0
  187.9540  176.1260  143.3960 C   0  0  2  0  0  3  0  0  0  0  0  0
  188.0770  174.2970  141.6920 C   0  0  0  0  0  2  0  0  0  0  0  0
  187.6390  177.5980  143.6700 C   0  0  0  0  0  2  0  0  0  0  0  0
  186.5310  177.7870  144.6560 C   0  0  0  0  0  0  0  0  0  0  0  0
  184.4410  178.1400  146.4850 C   0  0  0  0  0  3  0  0  0  0  0  0
  184.7220  179.1350  145.5440 C   0  0  0  0  0  3  0  0  0  0  0  0
  185.2040  176.9680  146.5120 C   0  0  0  0  0  3  0  0  0  0  0  0
  185.7650  178.9600  144.6310 C   0  0  0  0  0  3  0  0  0  0  0  0
  186.2480  176.7920  145.5990 C   0  0  0  0  0  3  0  0  0  0  0  0
  1 11  1  0  0  0  0
  1 23  1  0  0  0  0
  2  1  1  0  0  0  0
  3  2  2  0  0  0  0
  4  9  2  0  0  0  0
  5 13  2  0  0  0  0
  6 10  2  0  0  0  0
  6  4  1  0  0  0  0
  7  4  1  0  0  0  0
  8 11  2  0  0  0  0
  8  5  1  0  0  0  0
  9  5  1  0  0  0  0
 10  8  1  0  0  0  0
 11 12  1  0  0  0  0
 12 13  1  0  0  0  0
 14  2  1  0  0  0  0
 15 19  1  0  0  0  0
 16 22  1  0  0  0  0
 16 15  1  0  0  0  0
 17 16  1  0  0  0  0
 18 20  1  0  0  0  0
 20 19  1  0  0  0  0
 20 14  1  0  0  0  0
 21 16  1  0  0  0  0
 22 18  1  0  0  0  0
 24 23  1  0  0  0  0
 24 25  1  0  0  0  0
 25 26  1  1  0  0  0
 27 25  1  0  0  0  0
 28 29  1  0  0  0  0
 29 27  1  0  0  0  0
 29 30  2  0  0  0  0
 31 28  1  1  0  0  0
 32 35  1  0  0  0  0
 33 31  1  0  0  0  0
 34 33  1  0  0  0  0
 35 37  1  6  0  0  0
 35 31  1  0  0  0  0
 36 32  1  0  0  0  0
 36 34  1  0  0  0  0
 37 38  1  0  0  0  0
 38 43  1  0  0  0  0
 39 41  1  0  0  0  0
 40 39  2  0  0  0  0
 42 38  2  0  0  0  0
 42 40  1  0  0  0  0
 43 41  2  0  0  0  0
M  END
>  <MODEL>
7

>  <REMARK>
 VINA RESULT:      -7.3      3.279      6.088
  Name = 
  11 active torsions:
  status: ('A' for Active; 'I' for Inactive)
    1  A    between atoms: C_1  and  C_34
    2  A    between atoms: C_1  and  N_35
    3  A    between atoms: C_2  and  C_6
    4  A    between atoms: C_2  and  O_13
    5  A    between atoms: N_3  and  C_4
    6  A    between atoms: C_6  and  C_12
    7  A    between atoms: N_8  and  C_27
    8  A    between atoms: N_8  and  C_30
    9  A    between atoms: C_11  and  C_14
   10  A    between atoms: O_13  and  C_27
   11  A    between atoms: C_14  and  C_41
                            x       y       z     vdW  Elec       q    Type
                         _______ _______ _______ _____ _____    ______ ____

>  <TORSDO>
F 11

$$$$
=
 OpenBabel11052421203D

 43 47  0  0  1  0  0  0  0  0999 V2000
  189.8880  174.0470  144.4800 N   0  0  0  0  0  0  0  0  0  0  0  0
  189.0570  174.7360  143.5250 C   0  0  0  0  0  0  0  0  0  0  0  0
  188.4900  174.0860  142.6040 O   0  0  0  0  0  0  0  0  0  0  0  0
  194.0780  177.0030  145.6050 C   0  0  0  0  0  0  0  0  0  0  0  0
  192.1660  175.9030  146.5350 C   0  0  0  0  0  0  0  0  0  0  0  0
  193.6990  176.5490  144.3230 C   0  0  0  0  0  3  0  0  0  0  0  0
  195.3070  177.8220  145.7620 C   0  0  0  0  0  1  0  0  0  0  0  0
  191.7870  175.4830  145.2900 C   0  0  0  0  0  0  0  0  0  0  0  0
  193.3090  176.6720  146.7370 C   0  0  0  0  0  3  0  0  0  0  0  0
  192.5390  175.7710  144.1540 C   0  0  0  0  0  3  0  0  0  0  0  0
  190.6470  174.7360  145.4820 C   0  0  0  0  0  0  0  0  0  0  0  0
  190.3670  174.6960  146.7710 O   0  0  0  0  0  0  0  0  0  0  0  0
  191.2630  175.3990  147.4490 C   0  0  0  0  0  3  0  0  0  0  0  0
  188.7590  176.2000  143.6730 C   0  0  0  0  0  2  0  0  0  0  0  0
  185.2330  177.0940  144.4590 C   0  0  0  0  0  2  0  0  0  0  0  0
  185.4750  178.1280  145.5620 C   0  0  0  0  0  0  0  0  0  0  0  0
  184.2950  178.1090  146.5110 C   0  0  0  0  0  1  0  0  0  0  0  0
  187.9200  177.5150  145.4130 C   0  0  0  0  0  2  0  0  0  0  0  0
  186.5010  176.8590  143.6380 C   0  0  0  0  0  2  0  0  0  0  0  0
  187.5880  176.4170  144.5100 N   0  0  0  0  0  0  0  0  0  0  0  0
  185.5820  179.5210  144.9610 C   0  0  0  0  0  1  0  0  0  0  0  0
  186.7440  177.7940  146.3520 C   0  0  0  0  0  2  0  0  0  0  0  0
  189.8630  172.5880  144.5420 C   0  0  0  0  0  2  0  0  0  0  0  0
  191.1430  172.0700  144.2640 O   0  0  0  0  0  0  0  0  0  0  0  0
  191.3190  171.9650  142.8650 C   0  0  2  0  0  3  0  0  0  0  0  0
  190.4100  170.9200  142.2260 C   0  0  0  0  0  1  0  0  0  0  0  0
  192.7790  171.7760  142.4480 C   0  0  0  0  0  2  0  0  0  0  0  0
  194.6810  173.4630  142.3360 N   0  0  0  0  0  2  0  0  0  0  0  0
  193.3890  173.0340  141.9020 C   0  0  0  0  0  0  0  0  0  0  0  0
  192.7440  173.7550  141.0960 O   0  0  0  0  0  0  0  0  0  0  0  0
  195.4450  172.7710  143.3660 C   0  0  1  0  0  3  0  0  0  0  0  0
  196.4830  174.0860  145.3280 C   0  0  0  0  0  2  0  0  0  0  0  0
  196.9220  172.7110  142.9720 C   0  0  0  0  0  2  0  0  0  0  0  0
  197.5960  174.0880  143.0360 C   0  0  0  0  0  2  0  0  0  0  0  0
  195.2250  173.4480  144.7350 C   0  0  2  0  0  3  0  0  0  0  0  0
  197.1960  174.9170  144.2650 C   0  0  0  0  0  2  0  0  0  0  0  0
  194.5320  172.5210  145.7360 C   0  0  0  0  0  2  0  0  0  0  0  0
  195.1080  171.1400  145.7530 C   0  0  0  0  0  0  0  0  0  0  0  0
  196.1840  168.5570  145.7620 C   0  0  0  0  0  3  0  0  0  0  0  0
  194.8630  168.7620  145.3550 C   0  0  0  0  0  3  0  0  0  0  0  0
  196.9680  169.6420  146.1660 C   0  0  0  0  0  3  0  0  0  0  0  0
  194.3240  170.0510  145.3500 C   0  0  0  0  0  3  0  0  0  0  0  0
  196.4300  170.9330  146.1620 C   0  0  0  0  0  3  0  0  0  0  0  0
  1 23  1  0  0  0  0
  1 11  1  0  0  0  0
  2 14  1  0  0  0  0
  2  1  1  0  0  0  0
  3  2  2  0  0  0  0
  4  7  1  0  0  0  0
  4  9  2  0  0  0  0
  5  9  1  0  0  0  0
  5 13  2  0  0  0  0
  6  4  1  0  0  0  0
  8 11  2  0  0  0  0
  8  5  1  0  0  0  0
 10  6  2  0  0  0  0
 10  8  1  0  0  0  0
 11 12  1  0  0  0  0
 12 13  1  0  0  0  0
 14 20  1  0  0  0  0
 15 16  1  0  0  0  0
 16 22  1  0  0  0  0
 16 17  1  0  0  0  0
 18 22  1  0  0  0  0
 19 15  1  0  0  0  0
 19 20  1  0  0  0  0
 20 18  1  0  0  0  0
 21 16  1  0  0  0  0
 24 23  1  0  0  0  0
 25 26  1  1  0  0  0
 25 24  1  0  0  0  0
 27 25  1  0  0  0  0
 29 28  1  0  0  0  0
 29 27  1  0  0  0  0
 30 29  2  0  0  0  0
 31 28  1  6  0  0  0
 31 35  1  0  0  0  0
 33 34  1  0  0  0  0
 33 31  1  0  0  0  0
 34 36  1  0  0  0  0
 35 32  1  0  0  0  0
 35 37  1  1  0  0  0
 36 32  1  0  0  0  0
 37 38  1  0  0  0  0
 38 43  1  0  0  0  0
 39 41  1  0  0  0  0
 40 39  2  0  0  0  0
 42 40  1  0  0  0  0
 42 38  2  0  0  0  0
 43 41  2  0  0  0  0
M  END
>  <MODEL>
8

>  <REMARK>
 VINA RESULT:      -7.3      3.285      8.617
  Name = 
  11 active torsions:
  status: ('A' for Active; 'I' for Inactive)
    1  A    between atoms: C_1  and  C_34
    2  A    between atoms: C_1  and  N_35
    3  A    between atoms: C_2  and  C_6
    4  A    between atoms: C_2  and  O_13
    5  A    between atoms: N_3  and  C_4
    6  A    between atoms: C_6  and  C_12
    7  A    between atoms: N_8  and  C_27
    8  A    between atoms: N_8  and  C_30
    9  A    between atoms: C_11  and  C_14
   10  A    between atoms: O_13  and  C_27
   11  A    between atoms: C_14  and  C_41
                            x       y       z     vdW  Elec       q    Type
                         _______ _______ _______ _____ _____    ______ ____

>  <TORSDO>
F 11

$$$$
=
 OpenBabel11052421203D

 43 47  0  0  1  0  0  0  0  0999 V2000
  189.0820  175.0410  141.6650 N   0  0  0  0  0  0  0  0  0  0  0  0
  189.2360  174.0970  140.5860 C   0  0  0  0  0  0  0  0  0  0  0  0
  188.2150  173.5910  140.0460 O   0  0  0  0  0  0  0  0  0  0  0  0
  192.9170  174.1540  145.1390 C   0  0  0  0  0  0  0  0  0  0  0  0
  191.9020  175.8120  143.7420 C   0  0  0  0  0  0  0  0  0  0  0  0
  191.9860  173.2040  144.6660 C   0  0  0  0  0  3  0  0  0  0  0  0
  193.9380  173.7500  146.1400 C   0  0  0  0  0  1  0  0  0  0  0  0
  191.0150  174.8860  143.2680 C   0  0  0  0  0  0  0  0  0  0  0  0
  192.8770  175.4840  144.6810 C   0  0  0  0  0  3  0  0  0  0  0  0
  191.0110  173.5680  143.7200 C   0  0  0  0  0  3  0  0  0  0  0  0
  190.1980  175.5680  142.3950 C   0  0  0  0  0  0  0  0  0  0  0  0
  190.5640  176.8350  142.3590 O   0  0  0  0  0  0  0  0  0  0  0  0
  191.6020  177.0270  143.1600 C   0  0  0  0  0  3  0  0  0  0  0  0
  190.5900  173.7910  140.0140 C   0  0  0  0  0  2  0  0  0  0  0  0
  190.6010  170.2830  141.2570 C   0  0  0  0  0  2  0  0  0  0  0  0
  192.0730  169.9350  141.0190 C   0  0  0  0  0  0  0  0  0  0  0  0
  192.1820  168.4480  140.7550 C   0  0  0  0  0  1  0  0  0  0  0  0
  192.2780  172.1790  139.8810 C   0  0  0  0  0  2  0  0  0  0  0  0
  190.3840  171.7960  141.2450 C   0  0  0  0  0  2  0  0  0  0  0  0
  190.8310  172.3560  139.9700 N   0  0  0  0  0  0  0  0  0  0  0  0
  192.8950  170.2630  142.2550 C   0  0  0  0  0  1  0  0  0  0  0  0
  192.6200  170.6900  139.8040 C   0  0  0  0  0  2  0  0  0  0  0  0
  187.7660  175.6030  141.9520 C   0  0  0  0  0  2  0  0  0  0  0  0
  187.7360  176.9680  141.6060 O   0  0  0  0  0  0  0  0  0  0  0  0
  186.4190  177.3370  141.2460 C   0  0  2  0  0  3  0  0  0  0  0  0
  186.2460  177.5390  139.7440 C   0  0  0  0  0  1  0  0  0  0  0  0
  185.8820  178.5270  142.0430 C   0  0  0  0  0  2  0  0  0  0  0  0
  184.8680  178.0180  144.3210 N   0  0  0  0  0  2  0  0  0  0  0  0
  184.7110  178.1590  142.9080 C   0  0  0  0  0  0  0  0  0  0  0  0
  183.5890  177.9160  142.3900 O   0  0  0  0  0  0  0  0  0  0  0  0
  186.1530  178.1430  144.9960 C   0  0  1  0  0  3  0  0  0  0  0  0
  186.5940  176.8940  147.2100 C   0  0  0  0  0  2  0  0  0  0  0  0
  186.1200  179.3190  145.9740 C   0  0  0  0  0  2  0  0  0  0  0  0
  185.2210  179.0400  147.1860 C   0  0  0  0  0  2  0  0  0  0  0  0
  186.5240  176.8120  145.6830 C   0  0  2  0  0  3  0  0  0  0  0  0
  185.3650  177.6190  147.7500 C   0  0  0  0  0  2  0  0  0  0  0  0
  187.7860  176.1840  145.0900 C   0  0  0  0  0  2  0  0  0  0  0  0
  188.9290  176.1390  146.0530 C   0  0  0  0  0  0  0  0  0  0  0  0
  191.0560  176.0690  147.8710 C   0  0  0  0  0  3  0  0  0  0  0  0
  190.7470  177.2570  147.2040 C   0  0  0  0  0  3  0  0  0  0  0  0
  190.3030  174.9150  147.6320 C   0  0  0  0  0  3  0  0  0  0  0  0
  189.6850  177.2940  146.2950 C   0  0  0  0  0  3  0  0  0  0  0  0
  189.2410  174.9500  146.7230 C   0  0  0  0  0  3  0  0  0  0  0  0
  1 23  1  0  0  0  0
  1 11  1  0  0  0  0
  2  1  1  0  0  0  0
  3  2  2  0  0  0  0
  4  7  1  0  0  0  0
  5  9  1  0  0  0  0
  6  4  1  0  0  0  0
  8 10  1  0  0  0  0
  8  5  1  0  0  0  0
  9  4  2  0  0  0  0
 10  6  2  0  0  0  0
 11  8  2  0  0  0  0
 12 11  1  0  0  0  0
 12 13  1  0  0  0  0
 13  5  2  0  0  0  0
 14  2  1  0  0  0  0
 16 15  1  0  0  0  0
 16 21  1  0  0  0  0
 17 16  1  0  0  0  0
 18 20  1  0  0  0  0
 19 15  1  0  0  0  0
 20 14  1  0  0  0  0
 20 19  1  0  0  0  0
 22 18  1  0  0  0  0
 22 16  1  0  0  0  0
 24 23  1  0  0  0  0
 25 26  1  6  0  0  0
 25 24  1  0  0  0  0
 25 27  1  0  0  0  0
 27 29  1  0  0  0  0
 29 28  1  0  0  0  0
 30 29  2  0  0  0  0
 31 28  1  1  0  0  0
 31 35  1  0  0  0  0
 31 33  1  0  0  0  0
 32 36  1  0  0  0  0
 33 34  1  0  0  0  0
 34 36  1  0  0  0  0
 35 37  1  6  0  0  0
 35 32  1  0  0  0  0
 37 38  1  0  0  0  0
 38 42  2  0  0  0  0
 38 43  1  0  0  0  0
 40 39  2  0  0  0  0
 41 39  1  0  0  0  0
 42 40  1  0  0  0  0
 43 41  2  0  0  0  0
M  END
>  <MODEL>
9

>  <REMARK>
 VINA RESULT:      -7.3      1.432      2.071
  Name = 
  11 active torsions:
  status: ('A' for Active; 'I' for Inactive)
    1  A    between atoms: C_1  and  C_34
    2  A    between atoms: C_1  and  N_35
    3  A    between atoms: C_2  and  C_6
    4  A    between atoms: C_2  and  O_13
    5  A    between atoms: N_3  and  C_4
    6  A    between atoms: C_6  and  C_12
    7  A    between atoms: N_8  and  C_27
    8  A    between atoms: N_8  and  C_30
    9  A    between atoms: C_11  and  C_14
   10  A    between atoms: O_13  and  C_27
   11  A    between atoms: C_14  and  C_41
                            x       y       z     vdW  Elec       q    Type
                         _______ _______ _______ _____ _____    ______ ____

>  <TORSDO>
F 11

$$$$
