=
 OpenBabel11052418003D

 31 34  0  0  1  0  0  0  0  0999 V2000
  189.5060  175.4310  144.0340 C   0  0  0  0  0  0  0  0  0  0  0  0
  190.5900  175.3180  144.9350 C   0  0  0  0  0  0  0  0  0  0  0  0
  192.6320  174.2440  145.7050 C   0  0  0  0  0  3  0  0  0  0  0  0
  189.3160  174.5440  142.8650 C   0  0  0  0  0  0  0  0  0  0  0  0
  189.4340  173.1370  141.2120 C   0  0  0  0  0  0  0  0  0  0  0  0
  191.5770  174.3310  144.7950 C   0  0  0  0  0  3  0  0  0  0  0  0
  187.3970  176.6530  143.2410 C   0  0  2  0  0  3  0  0  0  0  0  0
  189.7340  177.1900  146.1760 N   0  0  0  0  0  0  0  0  0  0  0  0
  192.7140  175.1430  146.7690 C   0  0  0  0  0  3  0  0  0  0  0  0
  186.9730  175.3800  142.4840 C   0  0  0  0  0  2  0  0  0  0  0  0
  188.5240  176.4280  144.2500 C   0  0  0  0  0  0  0  0  0  0  0  0
  190.1740  173.6280  142.2790 C   0  0  0  0  0  3  0  0  0  0  0  0
  191.8380  177.0200  147.9950 O   0  0  0  0  0  1  0  0  0  0  0  0
  188.1610  174.5500  142.1320 C   0  0  0  0  0  0  0  0  0  0  0  0
  188.2450  173.6950  141.1460 O   0  0  0  0  0  0  0  0  0  0  0  0
  188.6860  177.3140  145.3230 C   0  0  0  0  0  3  0  0  0  0  0  0
  190.6780  176.2250  146.0190 C   0  0  0  0  0  0  0  0  0  0  0  0
  191.7420  176.1330  146.9290 C   0  0  0  0  0  0  0  0  0  0  0  0
  189.8970  172.1430  140.2870 C   0  0  0  0  0  0  0  0  0  0  0  0
  190.2710  171.3400  139.5410 N   0  0  0  0  0  0  0  0  0  0  0  0
  186.1640  177.2830  143.8880 C   0  0  0  0  0  2  0  0  0  0  0  0
  186.4930  178.8350  142.0760 O   0  0  0  0  0  1  0  0  0  0  0  0
  184.2730  178.0970  142.4810 C   0  0  0  0  0  1  0  0  0  0  0  0
  185.6090  178.4690  143.0960 C   0  0  1  0  0  0  0  0  0  0  0  0
  185.3850  179.6550  144.0340 C   0  0  0  0  0  2  0  0  0  0  0  0
  183.7390  178.7350  145.4870 O   0  0  0  0  0  0  0  0  0  0  0  0
  184.8900  179.2380  145.3830 C   0  0  0  0  0  0  0  0  0  0  0  0
  186.1220  178.5510  147.3950 C   0  0  0  0  0  0  0  0  0  0  0  0
  185.7260  177.1130  147.3190 C   0  0  0  0  0  1  0  0  0  0  0  0
  186.9890  178.9810  148.5230 C   0  0  0  0  0  1  0  0  0  0  0  0
  185.7280  179.4420  146.5330 N   0  0  0  0  0  0  0  0  0  0  0  0
  1 11  2  0  0  0  0
  1  2  1  0  0  0  0
  2 17  1  0  0  0  0
  3  9  2  0  0  0  0
  4  1  1  0  0  0  0
  5 12  2  0  0  0  0
  6  2  2  0  0  0  0
  6  3  1  0  0  0  0
  7 21  1  1  0  0  0
  7 11  1  0  0  0  0
  9 18  1  0  0  0  0
 10  7  1  0  0  0  0
 11 16  1  0  0  0  0
 12  4  1  0  0  0  0
 14 10  1  0  0  0  0
 14  4  2  0  0  0  0
 15  5  1  0  0  0  0
 15 14  1  0  0  0  0
 16  8  2  0  0  0  0
 17  8  1  0  0  0  0
 17 18  2  0  0  0  0
 18 13  1  0  0  0  0
 19  5  1  0  0  0  0
 20 19  3  0  0  0  0
 22 24  1  0  0  0  0
 24 23  1  6  0  0  0
 24 21  1  0  0  0  0
 24 25  1  0  0  0  0
 25 27  1  0  0  0  0
 27 26  2  0  0  0  0
 27 31  1  0  0  0  0
 28 30  1  0  0  0  0
 29 28  1  0  0  0  0
 31 28  2  0  0  0  0
M  END
>  <MODEL>
1

>  <REMARK>
 VINA RESULT:      -7.9      0.000      0.000
  Name = 
  6 active torsions:
  status: ('A' for Active; 'I' for Inactive)
    1  A    between atoms: C_2  and  C_13
    2  A    between atoms: C_9  and  C_22
    3  A    between atoms: C_9  and  C_23
    4  A    between atoms: C_15  and  C_23
    5  A    between atoms: C_19  and  C_22
    6  A    between atoms: C_19  and  N_24
                            x       y       z     vdW  Elec       q    Type
                         _______ _______ _______ _____ _____    ______ ____

>  <TORSDO>
F 6

$$$$
=
 OpenBabel11052418003D

 31 34  0  0  1  0  0  0  0  0999 V2000
  187.7270  176.6380  143.6430 C   0  0  0  0  0  0  0  0  0  0  0  0
  186.4630  177.2660  143.5660 C   0  0  0  0  0  0  0  0  0  0  0  0
  184.4120  177.8150  142.3770 C   0  0  0  0  0  3  0  0  0  0  0  0
  188.3080  175.8270  142.5500 C   0  0  0  0  0  0  0  0  0  0  0  0
  188.7720  174.6330  140.7930 C   0  0  0  0  0  0  0  0  0  0  0  0
  185.6540  177.1780  142.4220 C   0  0  0  0  0  3  0  0  0  0  0  0
  189.8330  176.0420  144.9780 C   0  0  2  0  0  3  0  0  0  0  0  0
  186.7660  178.1140  145.7940 N   0  0  0  0  0  0  0  0  0  0  0  0
  183.9630  178.5490  143.4760 C   0  0  0  0  0  3  0  0  0  0  0  0
  190.5690  175.7740  143.6520 C   0  0  0  0  0  2  0  0  0  0  0  0
  188.5100  176.7930  144.8130 C   0  0  0  0  0  0  0  0  0  0  0  0
  187.7320  175.3320  141.3910 C   0  0  0  0  0  3  0  0  0  0  0  0
  184.2880  179.3870  145.7090 O   0  0  0  0  0  1  0  0  0  0  0  0
  189.6080  175.4000  142.5750 C   0  0  0  0  0  0  0  0  0  0  0  0
  189.8730  174.6900  141.5100 O   0  0  0  0  0  0  0  0  0  0  0  0
  187.9820  177.5200  145.8870 C   0  0  0  0  0  3  0  0  0  0  0  0
  186.0010  178.0150  144.6750 C   0  0  0  0  0  0  0  0  0  0  0  0
  184.7510  178.6510  144.6230 C   0  0  0  0  0  0  0  0  0  0  0  0
  188.6720  173.9310  139.5450 C   0  0  0  0  0  0  0  0  0  0  0  0
  188.5910  173.3650  138.5380 N   0  0  0  0  0  0  0  0  0  0  0  0
  190.7810  176.7560  145.9400 C   0  0  0  0  0  2  0  0  0  0  0  0
  191.2310  176.7550  148.3060 O   0  0  0  0  0  1  0  0  0  0  0  0
  190.0090  174.9150  147.4350 C   0  0  0  0  0  1  0  0  0  0  0  0
  191.1100  175.9290  147.1850 C   0  0  1  0  0  0  0  0  0  0  0  0
  192.4170  175.1650  146.9650 C   0  0  0  0  0  2  0  0  0  0  0  0
  193.9240  177.0060  147.0130 O   0  0  0  0  0  0  0  0  0  0  0  0
  193.4890  176.0190  146.3630 C   0  0  0  0  0  0  0  0  0  0  0  0
  195.0350  175.0120  144.7410 C   0  0  0  0  0  0  0  0  0  0  0  0
  195.9470  174.4200  145.7650 C   0  0  0  0  0  1  0  0  0  0  0  0
  195.3680  174.8120  143.3060 C   0  0  0  0  0  1  0  0  0  0  0  0
  193.9790  175.7060  145.0480 N   0  0  0  0  0  0  0  0  0  0  0  0
  1 11  1  0  0  0  0
  2  1  2  0  0  0  0
  2 17  1  0  0  0  0
  3  6  2  0  0  0  0
  3  9  1  0  0  0  0
  4 14  2  0  0  0  0
  4  1  1  0  0  0  0
  5 12  2  0  0  0  0
  5 15  1  0  0  0  0
  6  2  1  0  0  0  0
  7 21  1  1  0  0  0
  8 16  1  0  0  0  0
  9 18  2  0  0  0  0
 10  7  1  0  0  0  0
 11  7  1  0  0  0  0
 11 16  2  0  0  0  0
 12  4  1  0  0  0  0
 14 10  1  0  0  0  0
 15 14  1  0  0  0  0
 17  8  2  0  0  0  0
 18 17  1  0  0  0  0
 18 13  1  0  0  0  0
 19  5  1  0  0  0  0
 20 19  3  0  0  0  0
 21 24  1  0  0  0  0
 24 23  1  1  0  0  0
 24 22  1  0  0  0  0
 25 24  1  0  0  0  0
 27 25  1  0  0  0  0
 27 26  2  0  0  0  0
 28 31  2  0  0  0  0
 28 29  1  0  0  0  0
 30 28  1  0  0  0  0
 31 27  1  0  0  0  0
M  END
>  <MODEL>
2

>  <REMARK>
 VINA RESULT:      -7.8      1.813      6.694
  Name = 
  6 active torsions:
  status: ('A' for Active; 'I' for Inactive)
    1  A    between atoms: C_2  and  C_13
    2  A    between atoms: C_9  and  C_22
    3  A    between atoms: C_9  and  C_23
    4  A    between atoms: C_15  and  C_23
    5  A    between atoms: C_19  and  C_22
    6  A    between atoms: C_19  and  N_24
                            x       y       z     vdW  Elec       q    Type
                         _______ _______ _______ _____ _____    ______ ____

>  <TORSDO>
F 6

$$$$
=
 OpenBabel11052418003D

 31 34  0  0  1  0  0  0  0  0999 V2000
  188.1290  176.5040  144.8530 C   0  0  0  0  0  0  0  0  0  0  0  0
  186.9880  177.3390  144.8420 C   0  0  0  0  0  0  0  0  0  0  0  0
  185.5940  179.0740  145.8240 C   0  0  0  0  0  3  0  0  0  0  0  0
  189.1580  176.5360  145.9160 C   0  0  0  0  0  0  0  0  0  0  0  0
  190.4970  176.9480  147.5790 C   0  0  0  0  0  0  0  0  0  0  0  0
  186.7330  178.2680  145.8630 C   0  0  0  0  0  3  0  0  0  0  0  0
  189.5840  174.7190  143.7280 C   0  0  2  0  0  3  0  0  0  0  0  0
  186.2940  176.3370  142.7700 N   0  0  0  0  0  0  0  0  0  0  0  0
  184.6930  178.9620  144.7630 C   0  0  0  0  0  3  0  0  0  0  0  0
  190.2150  174.4040  145.0970 C   0  0  0  0  0  2  0  0  0  0  0  0
  188.3120  175.5630  143.8100 C   0  0  0  0  0  0  0  0  0  0  0  0
  189.3720  177.4480  146.9360 C   0  0  0  0  0  3  0  0  0  0  0  0
  184.0190  177.9450  142.6890 O   0  0  0  0  0  1  0  0  0  0  0  0
  190.1390  175.5860  146.0030 C   0  0  0  0  0  0  0  0  0  0  0  0
  190.9310  175.8440  147.0110 O   0  0  0  0  0  0  0  0  0  0  0  0
  187.3820  175.5270  142.7640 C   0  0  0  0  0  3  0  0  0  0  0  0
  186.0680  177.2290  143.7710 C   0  0  0  0  0  0  0  0  0  0  0  0
  184.9260  178.0440  143.7380 C   0  0  0  0  0  0  0  0  0  0  0  0
  191.1190  177.5500  148.7230 C   0  0  0  0  0  0  0  0  0  0  0  0
  191.6200  178.0360  149.6470 N   0  0  0  0  0  0  0  0  0  0  0  0
  189.3580  173.4120  142.9700 C   0  0  0  0  0  2  0  0  0  0  0  0
  191.0490  172.1060  141.8580 O   0  0  0  0  0  1  0  0  0  0  0  0
  189.4250  173.1670  140.4890 C   0  0  0  0  0  1  0  0  0  0  0  0
  190.2670  173.2600  141.7470 C   0  0  1  0  0  0  0  0  0  0  0  0
  191.1720  174.4860  141.6240 C   0  0  0  0  0  2  0  0  0  0  0  0
  193.3190  174.0040  140.7180 O   0  0  0  0  0  0  0  0  0  0  0  0
  192.6230  174.1470  141.7580 C   0  0  0  0  0  0  0  0  0  0  0  0
  193.4300  174.8880  143.9580 C   0  0  0  0  0  0  0  0  0  0  0  0
  193.1650  176.3390  143.7230 C   0  0  0  0  0  1  0  0  0  0  0  0
  194.0220  174.4850  145.2600 C   0  0  0  0  0  1  0  0  0  0  0  0
  193.1840  173.9690  143.0700 N   0  0  0  0  0  0  0  0  0  0  0  0
  1  4  1  0  0  0  0
  2  1  1  0  0  0  0
  2  6  1  0  0  0  0
  3  6  2  0  0  0  0
  4 14  2  0  0  0  0
  4 12  1  0  0  0  0
  5 19  1  0  0  0  0
  7 21  1  1  0  0  0
  7 11  1  0  0  0  0
  7 10  1  0  0  0  0
  8 17  1  0  0  0  0
  9  3  1  0  0  0  0
 10 14  1  0  0  0  0
 11  1  2  0  0  0  0
 12  5  2  0  0  0  0
 13 18  1  0  0  0  0
 14 15  1  0  0  0  0
 15  5  1  0  0  0  0
 16  8  2  0  0  0  0
 16 11  1  0  0  0  0
 17  2  2  0  0  0  0
 18 17  1  0  0  0  0
 18  9  2  0  0  0  0
 19 20  3  0  0  0  0
 24 23  1  6  0  0  0
 24 22  1  0  0  0  0
 24 21  1  0  0  0  0
 25 24  1  0  0  0  0
 25 27  1  0  0  0  0
 26 27  2  0  0  0  0
 27 31  1  0  0  0  0
 28 30  1  0  0  0  0
 29 28  1  0  0  0  0
 31 28  2  0  0  0  0
M  END
>  <MODEL>
3

>  <REMARK>
 VINA RESULT:      -7.4      2.299      7.419
  Name = 
  6 active torsions:
  status: ('A' for Active; 'I' for Inactive)
    1  A    between atoms: C_2  and  C_13
    2  A    between atoms: C_9  and  C_22
    3  A    between atoms: C_9  and  C_23
    4  A    between atoms: C_15  and  C_23
    5  A    between atoms: C_19  and  C_22
    6  A    between atoms: C_19  and  N_24
                            x       y       z     vdW  Elec       q    Type
                         _______ _______ _______ _____ _____    ______ ____

>  <TORSDO>
F 6

$$$$
=
 OpenBabel11052418003D

 31 34  0  0  1  0  0  0  0  0999 V2000
  189.8720  175.5900  143.2970 C   0  0  0  0  0  0  0  0  0  0  0  0
  190.0380  174.8640  142.0960 C   0  0  0  0  0  0  0  0  0  0  0  0
  191.4030  173.5990  140.5280 C   0  0  0  0  0  3  0  0  0  0  0  0
  190.9610  175.8200  144.2740 C   0  0  0  0  0  0  0  0  0  0  0  0
  192.7540  175.8520  145.5020 C   0  0  0  0  0  0  0  0  0  0  0  0
  191.2720  174.3080  141.7250 C   0  0  0  0  0  3  0  0  0  0  0  0
  188.3610  176.8550  144.9360 C   0  0  2  0  0  3  0  0  0  0  0  0
  187.7210  175.2290  141.5730 N   0  0  0  0  0  0  0  0  0  0  0  0
  190.3020  173.4390  139.6870 C   0  0  0  0  0  3  0  0  0  0  0  0
  189.6100  177.5320  145.5300 C   0  0  0  0  0  2  0  0  0  0  0  0
  188.6100  176.1560  143.5990 C   0  0  0  0  0  0  0  0  0  0  0  0
  192.2190  175.2510  144.3710 C   0  0  0  0  0  3  0  0  0  0  0  0
  187.9780  173.8160  139.1850 O   0  0  0  0  0  1  0  0  0  0  0  0
  190.8230  176.6890  145.3220 C   0  0  0  0  0  0  0  0  0  0  0  0
  191.9100  176.7020  146.0460 O   0  0  0  0  0  0  0  0  0  0  0  0
  187.5420  175.9300  142.7210 C   0  0  0  0  0  3  0  0  0  0  0  0
  188.9260  174.6990  141.2350 C   0  0  0  0  0  0  0  0  0  0  0  0
  189.0650  173.9850  140.0350 C   0  0  0  0  0  0  0  0  0  0  0  0
  194.0650  175.5900  146.0250 C   0  0  0  0  0  0  0  0  0  0  0  0
  195.1220  175.3780  146.4450 N   0  0  0  0  0  0  0  0  0  0  0  0
  187.2310  177.8810  144.8460 C   0  0  0  0  0  2  0  0  0  0  0  0
  185.3780  176.4380  145.3770 O   0  0  0  0  0  1  0  0  0  0  0  0
  186.5950  177.3540  147.1990 C   0  0  0  0  0  1  0  0  0  0  0  0
  186.0680  177.5800  145.7940 C   0  0  1  0  0  0  0  0  0  0  0  0
  185.1140  178.7740  145.8320 C   0  0  0  0  0  2  0  0  0  0  0  0
  185.6760  180.3720  144.1590 O   0  0  0  0  0  0  0  0  0  0  0  0
  184.9320  179.4100  144.4890 C   0  0  0  0  0  0  0  0  0  0  0  0
  184.0320  178.4530  142.4130 C   0  0  0  0  0  0  0  0  0  0  0  0
  185.3510  178.3560  141.7200 C   0  0  0  0  0  1  0  0  0  0  0  0
  182.8200  178.0090  141.6780 C   0  0  0  0  0  1  0  0  0  0  0  0
  183.8970  178.9250  143.6180 N   0  0  0  0  0  0  0  0  0  0  0  0
  1 11  1  0  0  0  0
  1  4  1  0  0  0  0
  2  1  2  0  0  0  0
  3  6  2  0  0  0  0
  4 12  1  0  0  0  0
  4 14  2  0  0  0  0
  5 19  1  0  0  0  0
  5 15  1  0  0  0  0
  6  2  1  0  0  0  0
  7 21  1  6  0  0  0
  7 10  1  0  0  0  0
  8 16  1  0  0  0  0
  9 18  2  0  0  0  0
  9  3  1  0  0  0  0
 11  7  1  0  0  0  0
 12  5  2  0  0  0  0
 13 18  1  0  0  0  0
 14 10  1  0  0  0  0
 14 15  1  0  0  0  0
 16 11  2  0  0  0  0
 17  8  2  0  0  0  0
 17  2  1  0  0  0  0
 18 17  1  0  0  0  0
 19 20  3  0  0  0  0
 21 24  1  0  0  0  0
 22 24  1  0  0  0  0
 24 25  1  0  0  0  0
 24 23  1  1  0  0  0
 26 27  2  0  0  0  0
 27 25  1  0  0  0  0
 28 31  2  0  0  0  0
 29 28  1  0  0  0  0
 30 28  1  0  0  0  0
 31 27  1  0  0  0  0
M  END
>  <MODEL>
4

>  <REMARK>
 VINA RESULT:      -7.4      2.044      5.214
  Name = 
  6 active torsions:
  status: ('A' for Active; 'I' for Inactive)
    1  A    between atoms: C_2  and  C_13
    2  A    between atoms: C_9  and  C_22
    3  A    between atoms: C_9  and  C_23
    4  A    between atoms: C_15  and  C_23
    5  A    between atoms: C_19  and  C_22
    6  A    between atoms: C_19  and  N_24
                            x       y       z     vdW  Elec       q    Type
                         _______ _______ _______ _____ _____    ______ ____

>  <TORSDO>
F 6

$$$$
=
 OpenBabel11052418003D

 31 34  0  0  1  0  0  0  0  0999 V2000
  187.4860  177.4440  144.5040 C   0  0  0  0  0  0  0  0  0  0  0  0
  186.3260  177.8690  145.1910 C   0  0  0  0  0  0  0  0  0  0  0  0
  184.0250  178.6590  145.2240 C   0  0  0  0  0  3  0  0  0  0  0  0
  187.5730  177.3330  143.0310 C   0  0  0  0  0  0  0  0  0  0  0  0
  187.2850  177.1920  140.8800 C   0  0  0  0  0  0  0  0  0  0  0  0
  185.1530  178.2380  144.5150 C   0  0  0  0  0  3  0  0  0  0  0  0
  189.8880  176.5510  144.5460 C   0  0  2  0  0  3  0  0  0  0  0  0
  187.4760  177.5800  147.2810 N   0  0  0  0  0  0  0  0  0  0  0  0
  184.0570  178.7160  146.6180 C   0  0  0  0  0  3  0  0  0  0  0  0
  190.0720  177.0420  143.0980 C   0  0  0  0  0  2  0  0  0  0  0  0
  188.6500  177.1170  145.2420 C   0  0  0  0  0  0  0  0  0  0  0  0
  186.5840  177.3840  142.0630 C   0  0  0  0  0  3  0  0  0  0  0  0
  185.2280  178.4190  148.6990 O   0  0  0  0  0  1  0  0  0  0  0  0
  188.7610  177.1120  142.3890 C   0  0  0  0  0  0  0  0  0  0  0  0
  188.5730  177.0370  141.0980 O   0  0  0  0  0  0  0  0  0  0  0  0
  188.6000  177.1710  146.6410 C   0  0  0  0  0  3  0  0  0  0  0  0
  186.3510  177.9330  146.6050 C   0  0  0  0  0  0  0  0  0  0  0  0
  185.2140  178.3550  147.3110 C   0  0  0  0  0  0  0  0  0  0  0  0
  186.6910  177.1660  139.5740 C   0  0  0  0  0  0  0  0  0  0  0  0
  186.2110  177.1450  138.5210 N   0  0  0  0  0  0  0  0  0  0  0  0
  191.1680  176.8300  145.3340 C   0  0  0  0  0  2  0  0  0  0  0  0
  192.3130  175.5020  146.9840 O   0  0  0  0  0  1  0  0  0  0  0  0
  191.1740  174.3370  145.2580 C   0  0  0  0  0  1  0  0  0  0  0  0
  191.9810  175.5670  145.6280 C   0  0  1  0  0  0  0  0  0  0  0  0
  193.2570  175.5690  144.7850 C   0  0  0  0  0  2  0  0  0  0  0  0
  194.6850  177.2010  145.7640 O   0  0  0  0  0  0  0  0  0  0  0  0
  194.4650  175.9770  145.5680 C   0  0  0  0  0  0  0  0  0  0  0  0
  196.3990  174.4660  145.4510 C   0  0  0  0  0  0  0  0  0  0  0  0
  196.8260  174.8890  144.0840 C   0  0  0  0  0  1  0  0  0  0  0  0
  197.1910  173.4120  146.1380 C   0  0  0  0  0  1  0  0  0  0  0  0
  195.3600  174.9630  146.0560 N   0  0  0  0  0  0  0  0  0  0  0  0
  1  2  2  0  0  0  0
  1 11  1  0  0  0  0
  2 17  1  0  0  0  0
  3  9  1  0  0  0  0
  4  1  1  0  0  0  0
  5 15  1  0  0  0  0
  5 12  2  0  0  0  0
  6  2  1  0  0  0  0
  6  3  2  0  0  0  0
  7 11  1  0  0  0  0
  7 21  1  1  0  0  0
  9 18  2  0  0  0  0
 10  7  1  0  0  0  0
 11 16  2  0  0  0  0
 12  4  1  0  0  0  0
 14  4  2  0  0  0  0
 14 10  1  0  0  0  0
 15 14  1  0  0  0  0
 16  8  1  0  0  0  0
 17  8  2  0  0  0  0
 17 18  1  0  0  0  0
 18 13  1  0  0  0  0
 19  5  1  0  0  0  0
 20 19  3  0  0  0  0
 21 24  1  0  0  0  0
 24 23  1  6  0  0  0
 24 22  1  0  0  0  0
 25 27  1  0  0  0  0
 25 24  1  0  0  0  0
 27 26  2  0  0  0  0
 27 31  1  0  0  0  0
 28 31  2  0  0  0  0
 28 30  1  0  0  0  0
 29 28  1  0  0  0  0
M  END
>  <MODEL>
5

>  <REMARK>
 VINA RESULT:      -7.2      2.798      7.242
  Name = 
  6 active torsions:
  status: ('A' for Active; 'I' for Inactive)
    1  A    between atoms: C_2  and  C_13
    2  A    between atoms: C_9  and  C_22
    3  A    between atoms: C_9  and  C_23
    4  A    between atoms: C_15  and  C_23
    5  A    between atoms: C_19  and  C_22
    6  A    between atoms: C_19  and  N_24
                            x       y       z     vdW  Elec       q    Type
                         _______ _______ _______ _____ _____    ______ ____

>  <TORSDO>
F 6

$$$$
=
 OpenBabel11052418003D

 31 34  0  0  1  0  0  0  0  0999 V2000
  188.0790  176.5200  144.6770 C   0  0  0  0  0  0  0  0  0  0  0  0
  186.9460  177.3670  144.6780 C   0  0  0  0  0  0  0  0  0  0  0  0
  185.5660  179.0970  145.6870 C   0  0  0  0  0  3  0  0  0  0  0  0
  189.1040  176.5210  145.7440 C   0  0  0  0  0  0  0  0  0  0  0  0
  190.4400  176.8870  147.4200 C   0  0  0  0  0  0  0  0  0  0  0  0
  186.6970  178.2780  145.7150 C   0  0  0  0  0  3  0  0  0  0  0  0
  189.5200  174.7420  143.5240 C   0  0  2  0  0  3  0  0  0  0  0  0
  186.2510  176.4120  142.5850 N   0  0  0  0  0  0  0  0  0  0  0  0
  184.6690  179.0140  144.6210 C   0  0  0  0  0  3  0  0  0  0  0  0
  190.1420  174.3940  144.8900 C   0  0  0  0  0  2  0  0  0  0  0  0
  188.2560  175.5970  143.6170 C   0  0  0  0  0  0  0  0  0  0  0  0
  189.3230  177.4110  146.7830 C   0  0  0  0  0  3  0  0  0  0  0  0
  183.9920  178.0440  142.5250 O   0  0  0  0  0  1  0  0  0  0  0  0
  190.0750  175.5600  145.8180 C   0  0  0  0  0  0  0  0  0  0  0  0
  190.8650  175.7900  146.8330 O   0  0  0  0  0  0  0  0  0  0  0  0
  187.3300  175.5900  142.5670 C   0  0  0  0  0  3  0  0  0  0  0  0
  186.0300  177.2860  143.6010 C   0  0  0  0  0  0  0  0  0  0  0  0
  184.8960  178.1130  143.5790 C   0  0  0  0  0  0  0  0  0  0  0  0
  191.0630  177.4610  148.5780 C   0  0  0  0  0  0  0  0  0  0  0  0
  191.5660  177.9250  149.5130 N   0  0  0  0  0  0  0  0  0  0  0  0
  189.2830  173.4520  142.7400 C   0  0  0  0  0  2  0  0  0  0  0  0
  190.5660  172.0310  141.2790 O   0  0  0  0  0  1  0  0  0  0  0  0
  189.3410  173.7970  140.2710 C   0  0  0  0  0  1  0  0  0  0  0  0
  190.1430  173.3480  141.4780 C   0  0  1  0  0  0  0  0  0  0  0  0
  191.3590  174.2650  141.6070 C   0  0  0  0  0  2  0  0  0  0  0  0
  193.1450  172.8620  140.8950 O   0  0  0  0  0  0  0  0  0  0  0  0
  192.6290  173.5100  141.8450 C   0  0  0  0  0  0  0  0  0  0  0  0
  193.0820  172.6270  144.0920 C   0  0  0  0  0  0  0  0  0  0  0  0
  192.2400  171.4030  143.9350 C   0  0  0  0  0  1  0  0  0  0  0  0
  193.7780  172.8370  145.3890 C   0  0  0  0  0  1  0  0  0  0  0  0
  193.2170  173.5210  143.1560 N   0  0  0  0  0  0  0  0  0  0  0  0
  1  2  1  0  0  0  0
  1  4  1  0  0  0  0
  2  6  1  0  0  0  0
  3  6  2  0  0  0  0
  4 14  2  0  0  0  0
  4 12  1  0  0  0  0
  5 19  1  0  0  0  0
  7 21  1  1  0  0  0
  7 11  1  0  0  0  0
  7 10  1  0  0  0  0
  8 17  1  0  0  0  0
  9  3  1  0  0  0  0
 10 14  1  0  0  0  0
 11  1  2  0  0  0  0
 12  5  2  0  0  0  0
 13 18  1  0  0  0  0
 14 15  1  0  0  0  0
 15  5  1  0  0  0  0
 16  8  2  0  0  0  0
 16 11  1  0  0  0  0
 17  2  2  0  0  0  0
 18 17  1  0  0  0  0
 18  9  2  0  0  0  0
 19 20  3  0  0  0  0
 22 24  1  0  0  0  0
 24 23  1  6  0  0  0
 24 25  1  0  0  0  0
 24 21  1  0  0  0  0
 25 27  1  0  0  0  0
 26 27  2  0  0  0  0
 27 31  1  0  0  0  0
 28 30  1  0  0  0  0
 29 28  1  0  0  0  0
 31 28  2  0  0  0  0
M  END
>  <MODEL>
6

>  <REMARK>
 VINA RESULT:      -7.2      2.288      7.529
  Name = 
  6 active torsions:
  status: ('A' for Active; 'I' for Inactive)
    1  A    between atoms: C_2  and  C_13
    2  A    between atoms: C_9  and  C_22
    3  A    between atoms: C_9  and  C_23
    4  A    between atoms: C_15  and  C_23
    5  A    between atoms: C_19  and  C_22
    6  A    between atoms: C_19  and  N_24
                            x       y       z     vdW  Elec       q    Type
                         _______ _______ _______ _____ _____    ______ ____

>  <TORSDO>
F 6

$$$$
=
 OpenBabel11052418003D

 31 34  0  0  1  0  0  0  0  0999 V2000
  187.8520  176.5360  144.5390 C   0  0  0  0  0  0  0  0  0  0  0  0
  186.7480  177.4140  144.6290 C   0  0  0  0  0  0  0  0  0  0  0  0
  185.4630  179.1290  145.7820 C   0  0  0  0  0  3  0  0  0  0  0  0
  188.9170  176.4500  145.5630 C   0  0  0  0  0  0  0  0  0  0  0  0
  190.3290  176.6880  147.2000 C   0  0  0  0  0  0  0  0  0  0  0  0
  186.5680  178.2770  145.7220 C   0  0  0  0  0  3  0  0  0  0  0  0
  189.1910  174.7790  143.2390 C   0  0  2  0  0  3  0  0  0  0  0  0
  185.9410  176.5920  142.5200 N   0  0  0  0  0  0  0  0  0  0  0  0
  184.5230  179.1290  144.7500 C   0  0  0  0  0  3  0  0  0  0  0  0
  189.8550  174.3420  144.5580 C   0  0  0  0  0  2  0  0  0  0  0  0
  187.9590  175.6660  143.4270 C   0  0  0  0  0  0  0  0  0  0  0  0
  189.2050  177.2770  146.6360 C   0  0  0  0  0  3  0  0  0  0  0  0
  183.7350  178.2910  142.6360 O   0  0  0  0  0  1  0  0  0  0  0  0
  189.8600  175.4590  145.5470 C   0  0  0  0  0  0  0  0  0  0  0  0
  190.6960  175.6110  146.5400 O   0  0  0  0  0  0  0  0  0  0  0  0
  186.9930  175.7410  142.4160 C   0  0  0  0  0  3  0  0  0  0  0  0
  185.7880  177.4180  143.5880 C   0  0  0  0  0  0  0  0  0  0  0  0
  184.6810  178.2780  143.6550 C   0  0  0  0  0  0  0  0  0  0  0  0
  191.0140  177.1820  148.3600 C   0  0  0  0  0  0  0  0  0  0  0  0
  191.5670  177.5810  149.2960 N   0  0  0  0  0  0  0  0  0  0  0  0
  188.8830  173.5400  142.3990 C   0  0  0  0  0  2  0  0  0  0  0  0
  189.0150  174.0890  140.0590 O   0  0  0  0  0  1  0  0  0  0  0  0
  191.0350  174.1650  141.3040 C   0  0  0  0  0  1  0  0  0  0  0  0
  189.7010  173.4700  141.1070 C   0  0  1  0  0  0  0  0  0  0  0  0
  189.9750  172.0090  140.7510 C   0  0  0  0  0  2  0  0  0  0  0  0
  192.1600  171.6140  139.8930 O   0  0  0  0  0  0  0  0  0  0  0  0
  190.9540  171.8620  139.6280 C   0  0  0  0  0  0  0  0  0  0  0  0
  190.0660  171.1150  137.4620 C   0  0  0  0  0  0  0  0  0  0  0  0
  189.9900  169.6700  137.8330 C   0  0  0  0  0  1  0  0  0  0  0  0
  189.6470  171.5100  136.0920 C   0  0  0  0  0  1  0  0  0  0  0  0
  190.4990  172.0340  138.2750 N   0  0  0  0  0  0  0  0  0  0  0  0
  1  2  1  0  0  0  0
  1  4  1  0  0  0  0
  2  6  1  0  0  0  0
  4 12  1  0  0  0  0
  5 19  1  0  0  0  0
  6  3  2  0  0  0  0
  7 21  1  1  0  0  0
  7 11  1  0  0  0  0
  7 10  1  0  0  0  0
  8 17  1  0  0  0  0
  9  3  1  0  0  0  0
 10 14  1  0  0  0  0
 11  1  2  0  0  0  0
 12  5  2  0  0  0  0
 13 18  1  0  0  0  0
 14  4  2  0  0  0  0
 14 15  1  0  0  0  0
 15  5  1  0  0  0  0
 16  8  2  0  0  0  0
 16 11  1  0  0  0  0
 17 18  1  0  0  0  0
 17  2  2  0  0  0  0
 18  9  2  0  0  0  0
 19 20  3  0  0  0  0
 22 24  1  0  0  0  0
 24 23  1  1  0  0  0
 24 21  1  0  0  0  0
 25 24  1  0  0  0  0
 27 26  2  0  0  0  0
 27 25  1  0  0  0  0
 28 29  1  0  0  0  0
 28 31  2  0  0  0  0
 30 28  1  0  0  0  0
 31 27  1  0  0  0  0
M  END
>  <MODEL>
7

>  <REMARK>
 VINA RESULT:      -7.1      2.130      8.206
  Name = 
  6 active torsions:
  status: ('A' for Active; 'I' for Inactive)
    1  A    between atoms: C_2  and  C_13
    2  A    between atoms: C_9  and  C_22
    3  A    between atoms: C_9  and  C_23
    4  A    between atoms: C_15  and  C_23
    5  A    between atoms: C_19  and  C_22
    6  A    between atoms: C_19  and  N_24
                            x       y       z     vdW  Elec       q    Type
                         _______ _______ _______ _____ _____    ______ ____

>  <TORSDO>
F 6

$$$$
=
 OpenBabel11052418003D

 31 34  0  0  1  0  0  0  0  0999 V2000
  187.7330  177.5050  144.5110 C   0  0  0  0  0  0  0  0  0  0  0  0
  186.6180  177.8430  145.3130 C   0  0  0  0  0  0  0  0  0  0  0  0
  184.2830  178.4720  145.5780 C   0  0  0  0  0  3  0  0  0  0  0  0
  187.6850  177.4160  143.0350 C   0  0  0  0  0  0  0  0  0  0  0  0
  187.2010  177.2780  140.9200 C   0  0  0  0  0  0  0  0  0  0  0  0
  185.3630  178.1380  144.7580 C   0  0  0  0  0  3  0  0  0  0  0  0
  190.1820  176.7790  144.3090 C   0  0  2  0  0  3  0  0  0  0  0  0
  187.9810  177.6120  147.2790 N   0  0  0  0  0  0  0  0  0  0  0  0
  184.4450  178.5170  146.9640 C   0  0  0  0  0  3  0  0  0  0  0  0
  190.1920  177.2970  142.8590 C   0  0  0  0  0  2  0  0  0  0  0  0
  188.9820  177.2520  145.1290 C   0  0  0  0  0  0  0  0  0  0  0  0
  186.6060  177.4090  142.1670 C   0  0  0  0  0  3  0  0  0  0  0  0
  185.8280  178.2790  148.9180 O   0  0  0  0  0  1  0  0  0  0  0  0
  188.8180  177.2840  142.2790 C   0  0  0  0  0  0  0  0  0  0  0  0
  188.5120  177.2090  141.0110 O   0  0  0  0  0  0  0  0  0  0  0  0
  189.0620  177.2880  146.5270 C   0  0  0  0  0  3  0  0  0  0  0  0
  186.7750  177.8940  146.7190 C   0  0  0  0  0  0  0  0  0  0  0  0
  185.6850  178.2290  147.5360 C   0  0  0  0  0  0  0  0  0  0  0  0
  186.4880  177.2250  139.6760 C   0  0  0  0  0  0  0  0  0  0  0  0
  185.9120  177.1810  138.6720 N   0  0  0  0  0  0  0  0  0  0  0  0
  191.5100  177.1370  144.9770 C   0  0  0  0  0  2  0  0  0  0  0  0
  193.4250  175.8460  144.2960 O   0  0  0  0  0  1  0  0  0  0  0  0
  193.0090  176.0190  146.6270 C   0  0  0  0  0  1  0  0  0  0  0  0
  192.3990  175.9190  145.2410 C   0  0  1  0  0  0  0  0  0  0  0  0
  191.5550  174.6450  145.1860 C   0  0  0  0  0  2  0  0  0  0  0  0
  192.8220  172.7470  144.5110 O   0  0  0  0  0  0  0  0  0  0  0  0
  192.0440  173.6730  144.1590 C   0  0  0  0  0  0  0  0  0  0  0  0
  190.5850  173.3280  142.2120 C   0  0  0  0  0  0  0  0  0  0  0  0
  189.6090  172.4480  142.9230 C   0  0  0  0  0  1  0  0  0  0  0  0
  190.3510  173.6160  140.7730 C   0  0  0  0  0  1  0  0  0  0  0  0
  191.6360  173.8340  142.7900 N   0  0  0  0  0  0  0  0  0  0  0  0
  1 11  2  0  0  0  0
  1  2  1  0  0  0  0
  2 17  1  0  0  0  0
  3  9  2  0  0  0  0
  4  1  1  0  0  0  0
  5 15  1  0  0  0  0
  5 12  2  0  0  0  0
  6  2  2  0  0  0  0
  6  3  1  0  0  0  0
  7 21  1  1  0  0  0
  7 11  1  0  0  0  0
  9 18  1  0  0  0  0
 10  7  1  0  0  0  0
 11 16  1  0  0  0  0
 12  4  1  0  0  0  0
 14 10  1  0  0  0  0
 14  4  2  0  0  0  0
 15 14  1  0  0  0  0
 16  8  2  0  0  0  0
 17  8  1  0  0  0  0
 17 18  2  0  0  0  0
 18 13  1  0  0  0  0
 19  5  1  0  0  0  0
 20 19  3  0  0  0  0
 21 24  1  0  0  0  0
 22 24  1  0  0  0  0
 24 23  1  1  0  0  0
 25 24  1  0  0  0  0
 27 26  2  0  0  0  0
 27 25  1  0  0  0  0
 28 31  2  0  0  0  0
 28 29  1  0  0  0  0
 30 28  1  0  0  0  0
 31 27  1  0  0  0  0
M  END
>  <MODEL>
8

>  <REMARK>
 VINA RESULT:      -7.0      2.580      6.665
  Name = 
  6 active torsions:
  status: ('A' for Active; 'I' for Inactive)
    1  A    between atoms: C_2  and  C_13
    2  A    between atoms: C_9  and  C_22
    3  A    between atoms: C_9  and  C_23
    4  A    between atoms: C_15  and  C_23
    5  A    between atoms: C_19  and  C_22
    6  A    between atoms: C_19  and  N_24
                            x       y       z     vdW  Elec       q    Type
                         _______ _______ _______ _____ _____    ______ ____

>  <TORSDO>
F 6

$$$$
=
 OpenBabel11052418003D

 31 34  0  0  1  0  0  0  0  0999 V2000
  189.0730  176.2040  144.2060 C   0  0  0  0  0  0  0  0  0  0  0  0
  187.8250  176.6210  144.7240 C   0  0  0  0  0  0  0  0  0  0  0  0
  185.4040  176.8120  144.5830 C   0  0  0  0  0  3  0  0  0  0  0  0
  189.2280  175.4740  142.9280 C   0  0  0  0  0  0  0  0  0  0  0  0
  189.0460  174.3350  141.0850 C   0  0  0  0  0  0  0  0  0  0  0  0
  186.6190  176.3830  144.0460 C   0  0  0  0  0  3  0  0  0  0  0  0
  191.6140  175.9790  144.4510 C   0  0  2  0  0  3  0  0  0  0  0  0
  188.9460  177.5510  146.6350 N   0  0  0  0  0  0  0  0  0  0  0  0
  185.3780  177.4870  145.8050 C   0  0  0  0  0  3  0  0  0  0  0  0
  191.7230  175.8040  142.9250 C   0  0  0  0  0  2  0  0  0  0  0  0
  190.2580  176.5050  144.9210 C   0  0  0  0  0  0  0  0  0  0  0  0
  188.2840  174.8710  142.1140 C   0  0  0  0  0  3  0  0  0  0  0  0
  186.5220  178.4110  147.7100 O   0  0  0  0  0  1  0  0  0  0  0  0
  190.4540  175.2610  142.3590 C   0  0  0  0  0  0  0  0  0  0  0  0
  190.3280  174.5810  141.2500 O   0  0  0  0  0  0  0  0  0  0  0  0
  190.1530  177.1610  146.1550 C   0  0  0  0  0  3  0  0  0  0  0  0
  187.7910  177.3090  145.9610 C   0  0  0  0  0  0  0  0  0  0  0  0
  186.5660  177.7370  146.4950 C   0  0  0  0  0  0  0  0  0  0  0  0
  188.5150  173.6010  139.9720 C   0  0  0  0  0  0  0  0  0  0  0  0
  188.0860  173.0090  139.0740 N   0  0  0  0  0  0  0  0  0  0  0  0
  192.7690  176.8540  144.9370 C   0  0  0  0  0  2  0  0  0  0  0  0
  194.9650  176.0020  144.4350 O   0  0  0  0  0  1  0  0  0  0  0  0
  194.5520  176.6800  146.6730 C   0  0  0  0  0  1  0  0  0  0  0  0
  193.9750  176.0450  145.4210 C   0  0  1  0  0  0  0  0  0  0  0  0
  193.5340  174.6230  145.7710 C   0  0  0  0  0  2  0  0  0  0  0  0
  195.3580  173.0950  145.7480 O   0  0  0  0  0  0  0  0  0  0  0  0
  194.3810  173.5780  145.1160 C   0  0  0  0  0  0  0  0  0  0  0  0
  193.0050  172.5610  143.3530 C   0  0  0  0  0  0  0  0  0  0  0  0
  191.8850  172.1670  144.2590 C   0  0  0  0  0  1  0  0  0  0  0  0
  192.8930  172.2200  141.9110 C   0  0  0  0  0  1  0  0  0  0  0  0
  194.0760  173.1690  143.7720 N   0  0  0  0  0  0  0  0  0  0  0  0
  1  2  2  0  0  0  0
  1 11  1  0  0  0  0
  2 17  1  0  0  0  0
  3  9  1  0  0  0  0
  4  1  1  0  0  0  0
  5 15  1  0  0  0  0
  5 12  2  0  0  0  0
  6  3  2  0  0  0  0
  6  2  1  0  0  0  0
  7 11  1  0  0  0  0
  7 21  1  6  0  0  0
  9 18  2  0  0  0  0
 10  7  1  0  0  0  0
 11 16  2  0  0  0  0
 12  4  1  0  0  0  0
 14 10  1  0  0  0  0
 14  4  2  0  0  0  0
 15 14  1  0  0  0  0
 16  8  1  0  0  0  0
 17 18  1  0  0  0  0
 17  8  2  0  0  0  0
 18 13  1  0  0  0  0
 19  5  1  0  0  0  0
 20 19  3  0  0  0  0
 21 24  1  0  0  0  0
 22 24  1  0  0  0  0
 24 25  1  0  0  0  0
 24 23  1  1  0  0  0
 27 26  2  0  0  0  0
 27 25  1  0  0  0  0
 28 31  2  0  0  0  0
 28 29  1  0  0  0  0
 30 28  1  0  0  0  0
 31 27  1  0  0  0  0
M  END
>  <MODEL>
9

>  <REMARK>
 VINA RESULT:      -7.0      2.456      6.822
  Name = 
  6 active torsions:
  status: ('A' for Active; 'I' for Inactive)
    1  A    between atoms: C_2  and  C_13
    2  A    between atoms: C_9  and  C_22
    3  A    between atoms: C_9  and  C_23
    4  A    between atoms: C_15  and  C_23
    5  A    between atoms: C_19  and  C_22
    6  A    between atoms: C_19  and  N_24
                            x       y       z     vdW  Elec       q    Type
                         _______ _______ _______ _____ _____    ______ ____

>  <TORSDO>
F 6

$$$$
