=
 OpenBabel11052420523D

 43 48  0  0  1  0  0  0  0  0999 V2000
  188.5440  174.2140  139.6420 N   0  0  0  0  0  0  0  0  0  0  0  0
  188.1040  174.7150  140.7540 C   0  0  0  0  0  0  0  0  0  0  0  0
  188.9270  172.8080  139.5630 C   0  0  0  0  0  2  0  0  0  0  0  0
  188.0300  173.8400  141.9740 C   0  0  0  0  0  2  0  0  0  0  0  0
  187.7500  176.0960  140.8060 N   0  0  0  0  0  2  0  0  0  0  0  0
  189.3140  172.9980  142.1060 C   0  0  1  0  0  3  0  0  0  0  0  0
  189.8240  172.4450  140.7510 C   0  0  0  0  0  2  0  0  0  0  0  0
  187.7830  177.9930  142.2880 C   0  0  0  0  0  2  0  0  0  0  0  0
  186.4930  178.0370  141.4900 C   0  0  1  0  0  3  0  0  0  0  0  0
  187.0750  176.7080  141.9380 C   0  0  1  0  0  3  0  0  0  0  0  0
  185.3800  178.4600  142.3450 N   0  0  0  0  0  0  0  0  0  0  0  0
  184.0190  178.3900  141.8790 C   0  0  0  0  0  0  0  0  0  0  0  0
  181.6970  178.6980  142.3090 C   0  0  0  0  0  3  0  0  0  0  0  0
  182.3970  177.8820  140.1570 C   0  0  0  0  0  3  0  0  0  0  0  0
  181.3750  178.2680  141.0210 C   0  0  0  0  0  3  0  0  0  0  0  0
  183.7240  177.9420  140.5840 C   0  0  0  0  0  3  0  0  0  0  0  0
  182.9970  178.7450  142.7070 N   0  0  0  0  0  0  0  0  0  0  0  0
  185.7670  179.5150  143.7230 S   0  0  0  0  0  0  0  0  0  0  0  0
  185.2710  178.2840  144.9680 C   0  0  0  0  0  0  0  0  0  0  0  0
  184.1710  178.6720  145.9260 C   0  0  0  0  0  2  0  0  0  0  0  0
  185.3670  176.9270  144.6750 O   0  0  0  0  0  1  0  0  0  0  0  0
  185.6210  178.6210  146.3940 C   0  0  0  0  0  2  0  0  0  0  0  0
  190.4020  173.8190  142.8120 C   0  0  2  0  0  3  0  0  0  0  0  0
  194.0170  171.5670  143.4410 C   0  0  0  0  0  0  0  0  0  0  0  0
  192.8450  173.4010  142.3560 C   0  0  0  0  0  0  0  0  0  0  0  0
  192.8440  171.2020  144.1020 C   0  0  0  0  0  3  0  0  0  0  0  0
  195.1870  170.8490  143.6530 O   0  0  0  0  0  1  0  0  0  0  0  0
  191.6680  173.0380  143.0350 C   0  0  0  0  0  0  0  0  0  0  0  0
  194.0180  172.6580  142.5690 C   0  0  0  0  0  3  0  0  0  0  0  0
  191.6720  171.9320  143.9000 C   0  0  0  0  0  3  0  0  0  0  0  0
  193.8650  174.7450  140.5430 C   0  0  0  0  0  1  0  0  0  0  0  0
  192.8290  174.4950  141.4810 O   0  0  0  0  0  0  0  0  0  0  0  0
  189.9220  174.3100  144.0310 O   0  0  0  0  0  0  0  0  0  0  0  0
  190.2200  175.6760  144.0130 C   0  0  0  0  0  2  0  0  0  0  0  0
  190.9070  176.0700  145.3100 C   0  0  0  0  0  2  0  0  0  0  0  0
  194.0810  174.1600  146.1090 C   0  0  0  0  0  3  0  0  0  0  0  0
  195.0220  174.8290  145.3100 C   0  0  0  0  0  0  0  0  0  0  0  0
  193.2710  176.3100  144.5190 C   0  0  0  0  0  3  0  0  0  0  0  0
  192.7410  174.5630  146.1090 C   0  0  0  0  0  3  0  0  0  0  0  0
  192.3340  175.6370  145.3080 C   0  0  0  0  0  0  0  0  0  0  0  0
  194.6080  175.9050  144.5190 C   0  0  0  0  0  3  0  0  0  0  0  0
  197.0050  173.7170  146.2390 C   0  0  0  0  0  2  0  0  0  0  0  0
  196.4360  174.4290  145.2760 C   0  0  0  0  0  3  0  0  0  0  0  0
  1  2  2  0  0  0  0
  2  5  1  0  0  0  0
  2  4  1  0  0  0  0
  3  1  1  0  0  0  0
  3  7  1  0  0  0  0
  4  6  1  0  0  0  0
  6 23  1  6  0  0  0
  7  6  1  0  0  0  0
  9 10  1  0  0  0  0
  9  8  1  0  0  0  0
  9 11  1  1  0  0  0
 10  5  1  6  0  0  0
 10  8  1  0  0  0  0
 11 18  1  0  0  0  0
 12 11  1  0  0  0  0
 12 17  1  0  0  0  0
 13 17  2  0  0  0  0
 14 16  1  0  0  0  0
 14 15  2  0  0  0  0
 15 13  1  0  0  0  0
 16 12  2  0  0  0  0
 18 19  1  0  0  0  0
 19 20  1  0  0  0  0
 19 22  1  0  0  0  0
 20 22  1  0  0  0  0
 21 19  1  0  0  0  0
 23 28  1  0  0  0  0
 23 33  1  1  0  0  0
 24 27  1  0  0  0  0
 24 26  1  0  0  0  0
 25 29  1  0  0  0  0
 25 28  2  0  0  0  0
 28 30  1  0  0  0  0
 29 24  2  0  0  0  0
 30 26  2  0  0  0  0
 31 32  1  0  0  0  0
 32 25  1  0  0  0  0
 34 33  1  0  0  0  0
 34 35  1  0  0  0  0
 36 39  1  0  0  0  0
 37 36  2  0  0  0  0
 38 40  1  0  0  0  0
 40 35  1  0  0  0  0
 40 39  2  0  0  0  0
 41 38  2  0  0  0  0
 41 37  1  0  0  0  0
 43 37  1  0  0  0  0
 43 42  2  0  0  0  0
M  END
>  <MODEL>
1

>  <REMARK>
 VINA RESULT:      -6.8      0.000      0.000
  Name = 
  13 active torsions:
  status: ('A' for Active; 'I' for Inactive)
    1  A    between atoms: C_1  and  C_8
    2  A    between atoms: C_1  and  C_35
    3  A    between atoms: C_4  and  N_14
    4  A    between atoms: C_8  and  O_34
    5  A    between atoms: C_10  and  S_41
    6  A    between atoms: C_11  and  N_14
    7  A    between atoms: C_12  and  N_17
    8  A    between atoms: N_14  and  S_41
    9  A    between atoms: C_16  and  O_43
   10  A    between atoms: C_19  and  C_37
   11  A    between atoms: C_21  and  C_30
   12  A    between atoms: C_27  and  C_30
   13  A    between atoms: C_30  and  O_34
                            x       y       z     vdW  Elec       q    Type
                         _______ _______ _______ _____ _____    ______ ____

>  <TORSDO>
F 13

$$$$
=
 OpenBabel11052420523D

 43 48  0  0  1  0  0  0  0  0999 V2000
  194.2350  176.6430  142.0110 N   0  0  0  0  0  0  0  0  0  0  0  0
  193.1310  176.1830  142.5100 C   0  0  0  0  0  0  0  0  0  0  0  0
  195.2320  175.7340  141.4530 C   0  0  0  0  0  2  0  0  0  0  0  0
  192.9040  174.6970  142.5440 C   0  0  0  0  0  2  0  0  0  0  0  0
  192.1810  177.0930  143.0600 N   0  0  0  0  0  2  0  0  0  0  0  0
  194.1800  173.9730  143.0180 C   0  0  1  0  0  3  0  0  0  0  0  0
  195.4800  174.5740  142.4230 C   0  0  0  0  0  2  0  0  0  0  0  0
  189.9870  177.9430  143.5770 C   0  0  0  0  0  2  0  0  0  0  0  0
  189.8750  177.0530  142.3510 C   0  0  1  0  0  3  0  0  0  0  0  0
  190.8420  176.7030  143.4700 C   0  0  1  0  0  3  0  0  0  0  0  0
  188.6530  176.2480  142.4170 N   0  0  0  0  0  0  0  0  0  0  0  0
  187.3630  176.8370  142.1630 C   0  0  0  0  0  0  0  0  0  0  0  0
  185.8830  177.9390  140.6560 C   0  0  0  0  0  3  0  0  0  0  0  0
  185.1430  177.4620  142.8950 C   0  0  0  0  0  3  0  0  0  0  0  0
  184.8860  177.9880  141.6310 C   0  0  0  0  0  3  0  0  0  0  0  0
  186.3840  176.8840  143.1650 C   0  0  0  0  0  3  0  0  0  0  0  0
  187.0880  177.3740  140.9420 N   0  0  0  0  0  0  0  0  0  0  0  0
  188.7380  174.7090  143.3010 S   0  0  0  0  0  0  0  0  0  0  0  0
  189.0180  173.7170  141.8010 C   0  0  0  0  0  0  0  0  0  0  0  0
  187.8450  172.9400  141.2550 C   0  0  0  0  0  2  0  0  0  0  0  0
  189.9580  174.1330  140.8630 O   0  0  0  0  0  1  0  0  0  0  0  0
  188.9720  172.2220  141.9890 C   0  0  0  0  0  2  0  0  0  0  0  0
  194.2290  173.9600  144.5520 C   0  0  2  0  0  3  0  0  0  0  0  0
  195.8790  170.3020  146.1130 C   0  0  0  0  0  0  0  0  0  0  0  0
  196.0970  172.6810  145.6600 C   0  0  0  0  0  0  0  0  0  0  0  0
  194.6030  170.3060  145.5490 C   0  0  0  0  0  3  0  0  0  0  0  0
  196.4060  169.1250  146.6290 O   0  0  0  0  0  1  0  0  0  0  0  0
  194.8050  172.6840  145.1040 C   0  0  0  0  0  0  0  0  0  0  0  0
  196.6250  171.4810  146.1650 C   0  0  0  0  0  3  0  0  0  0  0  0
  194.0670  171.4920  145.0430 C   0  0  0  0  0  3  0  0  0  0  0  0
  197.9400  174.1210  144.8450 C   0  0  0  0  0  1  0  0  0  0  0  0
  196.8360  173.8700  145.7010 O   0  0  0  0  0  0  0  0  0  0  0  0
  192.9520  174.1740  145.0780 O   0  0  0  0  0  0  0  0  0  0  0  0
  193.1210  175.1690  146.0460 C   0  0  0  0  0  2  0  0  0  0  0  0
  192.2490  174.8660  147.2520 C   0  0  0  0  0  2  0  0  0  0  0  0
  189.6390  177.6110  147.1310 C   0  0  0  0  0  3  0  0  0  0  0  0
  188.4590  176.8710  146.9550 C   0  0  0  0  0  0  0  0  0  0  0  0
  189.7600  174.8240  146.9810 C   0  0  0  0  0  3  0  0  0  0  0  0
  190.8730  176.9590  147.2270 C   0  0  0  0  0  3  0  0  0  0  0  0
  190.9340  175.5630  147.1460 C   0  0  0  0  0  0  0  0  0  0  0  0
  188.5290  175.4760  146.8830 C   0  0  0  0  0  3  0  0  0  0  0  0
  186.0080  176.8400  146.7920 C   0  0  0  0  0  2  0  0  0  0  0  0
  187.1460  177.5200  146.8400 C   0  0  0  0  0  3  0  0  0  0  0  0
  1  2  2  0  0  0  0
  2  4  1  0  0  0  0
  2  5  1  0  0  0  0
  3  1  1  0  0  0  0
  3  7  1  0  0  0  0
  4  6  1  0  0  0  0
  6 23  1  1  0  0  0
  7  6  1  0  0  0  0
  9 11  1  1  0  0  0
  9 10  1  0  0  0  0
  9  8  1  0  0  0  0
 10  5  1  6  0  0  0
 10  8  1  0  0  0  0
 11 18  1  0  0  0  0
 12 11  1  0  0  0  0
 12 16  1  0  0  0  0
 13 17  1  0  0  0  0
 13 15  2  0  0  0  0
 14 16  2  0  0  0  0
 15 14  1  0  0  0  0
 17 12  2  0  0  0  0
 19 22  1  0  0  0  0
 19 18  1  0  0  0  0
 20 19  1  0  0  0  0
 20 22  1  0  0  0  0
 21 19  1  0  0  0  0
 23 33  1  1  0  0  0
 23 28  1  0  0  0  0
 24 29  1  0  0  0  0
 24 27  1  0  0  0  0
 25 32  1  0  0  0  0
 25 29  2  0  0  0  0
 26 24  2  0  0  0  0
 28 25  1  0  0  0  0
 30 28  2  0  0  0  0
 30 26  1  0  0  0  0
 31 32  1  0  0  0  0
 33 34  1  0  0  0  0
 34 35  1  0  0  0  0
 36 39  1  0  0  0  0
 37 36  2  0  0  0  0
 38 40  1  0  0  0  0
 40 39  2  0  0  0  0
 40 35  1  0  0  0  0
 41 37  1  0  0  0  0
 41 38  2  0  0  0  0
 42 43  2  0  0  0  0
 43 37  1  0  0  0  0
M  END
>  <MODEL>
2

>  <REMARK>
 VINA RESULT:      -6.7      2.549      5.408
  Name = 
  13 active torsions:
  status: ('A' for Active; 'I' for Inactive)
    1  A    between atoms: C_1  and  C_8
    2  A    between atoms: C_1  and  C_35
    3  A    between atoms: C_4  and  N_14
    4  A    between atoms: C_8  and  O_34
    5  A    between atoms: C_10  and  S_41
    6  A    between atoms: C_11  and  N_14
    7  A    between atoms: C_12  and  N_17
    8  A    between atoms: N_14  and  S_41
    9  A    between atoms: C_16  and  O_43
   10  A    between atoms: C_19  and  C_37
   11  A    between atoms: C_21  and  C_30
   12  A    between atoms: C_27  and  C_30
   13  A    between atoms: C_30  and  O_34
                            x       y       z     vdW  Elec       q    Type
                         _______ _______ _______ _____ _____    ______ ____

>  <TORSDO>
F 13

$$$$
=
 OpenBabel11052420523D

 43 48  0  0  1  0  0  0  0  0999 V2000
  188.3620  174.6640  140.4360 N   0  0  0  0  0  0  0  0  0  0  0  0
  188.5100  175.1050  141.6460 C   0  0  0  0  0  0  0  0  0  0  0  0
  188.6420  173.2670  140.1170 C   0  0  0  0  0  2  0  0  0  0  0  0
  189.0120  174.1710  142.7110 C   0  0  0  0  0  2  0  0  0  0  0  0
  188.2420  176.4780  141.9260 N   0  0  0  0  0  2  0  0  0  0  0  0
  190.1940  173.3370  142.1760 C   0  0  1  0  0  3  0  0  0  0  0  0
  189.9900  172.8560  140.7160 C   0  0  0  0  0  2  0  0  0  0  0  0
  187.0890  178.0510  143.3400 C   0  0  0  0  0  2  0  0  0  0  0  0
  186.8600  176.6560  143.8950 C   0  0  1  0  0  3  0  0  0  0  0  0
  188.1950  177.0260  143.2720 C   0  0  1  0  0  3  0  0  0  0  0  0
  186.9200  176.6770  145.3590 N   0  0  0  0  0  0  0  0  0  0  0  0
  188.1650  176.4670  146.0530 C   0  0  0  0  0  0  0  0  0  0  0  0
  189.8290  174.9610  146.8490 C   0  0  0  0  0  3  0  0  0  0  0  0
  190.0780  177.3170  147.2690 C   0  0  0  0  0  3  0  0  0  0  0  0
  190.5640  176.0170  147.3900 C   0  0  0  0  0  3  0  0  0  0  0  0
  188.8750  177.5460  146.5980 C   0  0  0  0  0  3  0  0  0  0  0  0
  188.6570  175.2060  146.2030 N   0  0  0  0  0  0  0  0  0  0  0  0
  185.3930  176.4480  146.2410 S   0  0  0  0  0  0  0  0  0  0  0  0
  184.8830  178.1850  146.0640 C   0  0  0  0  0  0  0  0  0  0  0  0
  185.8150  179.2400  146.6080 C   0  0  0  0  0  2  0  0  0  0  0  0
  184.1030  178.5700  144.9760 O   0  0  0  0  0  1  0  0  0  0  0  0
  184.5260  178.8940  147.3450 C   0  0  0  0  0  2  0  0  0  0  0  0
  191.4980  174.1350  142.3180 C   0  0  2  0  0  3  0  0  0  0  0  0
  194.9080  171.6010  143.0170 C   0  0  0  0  0  0  0  0  0  0  0  0
  193.6520  173.0770  141.5480 C   0  0  0  0  0  0  0  0  0  0  0  0
  193.9490  171.7710  144.0160 C   0  0  0  0  0  3  0  0  0  0  0  0
  196.0160  170.7950  143.2460 O   0  0  0  0  0  1  0  0  0  0  0  0
  192.6940  173.2550  142.5630 C   0  0  0  0  0  0  0  0  0  0  0  0
  194.7590  172.2470  141.7880 C   0  0  0  0  0  3  0  0  0  0  0  0
  192.8430  172.5920  143.7910 C   0  0  0  0  0  3  0  0  0  0  0  0
  193.4900  173.0400  139.0770 C   0  0  0  0  0  1  0  0  0  0  0  0
  193.4860  173.7270  140.3190 O   0  0  0  0  0  0  0  0  0  0  0  0
  191.3790  175.0760  143.3460 O   0  0  0  0  0  0  0  0  0  0  0  0
  191.9180  176.2540  142.8220 C   0  0  0  0  0  2  0  0  0  0  0  0
  192.6880  176.9930  143.9030 C   0  0  0  0  0  2  0  0  0  0  0  0
  194.8890  174.9310  146.1990 C   0  0  0  0  0  3  0  0  0  0  0  0
  195.9650  174.6190  145.3520 C   0  0  0  0  0  0  0  0  0  0  0  0
  194.8980  175.8630  143.5650 C   0  0  0  0  0  3  0  0  0  0  0  0
  193.8220  175.7040  145.7270 C   0  0  0  0  0  3  0  0  0  0  0  0
  193.8240  176.1660  144.4060 C   0  0  0  0  0  0  0  0  0  0  0  0
  195.9620  175.0910  144.0360 C   0  0  0  0  0  3  0  0  0  0  0  0
  196.9760  172.5240  146.1420 C   0  0  0  0  0  2  0  0  0  0  0  0
  197.0990  173.8010  145.8070 C   0  0  0  0  0  3  0  0  0  0  0  0
  1  2  2  0  0  0  0
  2  5  1  0  0  0  0
  2  4  1  0  0  0  0
  3  1  1  0  0  0  0
  3  7  1  0  0  0  0
  6 23  1  6  0  0  0
  6  4  1  0  0  0  0
  7  6  1  0  0  0  0
  8  9  1  0  0  0  0
  9 11  1  1  0  0  0
 10  5  1  6  0  0  0
 10  8  1  0  0  0  0
 10  9  1  0  0  0  0
 11 12  1  0  0  0  0
 11 18  1  0  0  0  0
 12 17  2  0  0  0  0
 12 16  1  0  0  0  0
 13 15  2  0  0  0  0
 14 15  1  0  0  0  0
 16 14  2  0  0  0  0
 17 13  1  0  0  0  0
 19 18  1  0  0  0  0
 19 20  1  0  0  0  0
 19 22  1  0  0  0  0
 20 22  1  0  0  0  0
 21 19  1  0  0  0  0
 23 28  1  0  0  0  0
 23 33  1  1  0  0  0
 24 27  1  0  0  0  0
 24 26  1  0  0  0  0
 25 29  1  0  0  0  0
 25 28  2  0  0  0  0
 28 30  1  0  0  0  0
 29 24  2  0  0  0  0
 30 26  2  0  0  0  0
 31 32  1  0  0  0  0
 32 25  1  0  0  0  0
 34 33  1  0  0  0  0
 34 35  1  0  0  0  0
 35 40  1  0  0  0  0
 37 43  1  0  0  0  0
 37 36  2  0  0  0  0
 38 41  2  0  0  0  0
 38 40  1  0  0  0  0
 39 36  1  0  0  0  0
 40 39  2  0  0  0  0
 41 37  1  0  0  0  0
 43 42  2  0  0  0  0
M  END
>  <MODEL>
3

>  <REMARK>
 VINA RESULT:      -6.6      2.350      3.765
  Name = 
  13 active torsions:
  status: ('A' for Active; 'I' for Inactive)
    1  A    between atoms: C_1  and  C_8
    2  A    between atoms: C_1  and  C_35
    3  A    between atoms: C_4  and  N_14
    4  A    between atoms: C_8  and  O_34
    5  A    between atoms: C_10  and  S_41
    6  A    between atoms: C_11  and  N_14
    7  A    between atoms: C_12  and  N_17
    8  A    between atoms: N_14  and  S_41
    9  A    between atoms: C_16  and  O_43
   10  A    between atoms: C_19  and  C_37
   11  A    between atoms: C_21  and  C_30
   12  A    between atoms: C_27  and  C_30
   13  A    between atoms: C_30  and  O_34
                            x       y       z     vdW  Elec       q    Type
                         _______ _______ _______ _____ _____    ______ ____

>  <TORSDO>
F 13

$$$$
=
 OpenBabel11052420523D

 43 48  0  0  1  0  0  0  0  0999 V2000
  188.5640  174.0690  139.9770 N   0  0  0  0  0  0  0  0  0  0  0  0
  188.9710  174.0900  141.2080 C   0  0  0  0  0  0  0  0  0  0  0  0
  188.4600  172.8060  139.2530 C   0  0  0  0  0  2  0  0  0  0  0  0
  189.3740  172.8020  141.8690 C   0  0  0  0  0  2  0  0  0  0  0  0
  189.0760  175.3400  141.8870 N   0  0  0  0  0  2  0  0  0  0  0  0
  190.2430  171.9600  140.9130 C   0  0  1  0  0  3  0  0  0  0  0  0
  189.7390  171.9870  139.4470 C   0  0  0  0  0  2  0  0  0  0  0  0
  190.5000  176.4020  143.5140 C   0  0  0  0  0  2  0  0  0  0  0  0
  189.0800  176.8950  143.7310 C   0  0  1  0  0  3  0  0  0  0  0  0
  189.3390  175.4580  143.3120 C   0  0  1  0  0  3  0  0  0  0  0  0
  188.7920  176.9990  145.1640 N   0  0  0  0  0  0  0  0  0  0  0  0
  187.4490  177.2210  145.6360 C   0  0  0  0  0  0  0  0  0  0  0  0
  185.9710  177.6670  147.4490 C   0  0  0  0  0  3  0  0  0  0  0  0
  185.0690  177.4000  145.2350 C   0  0  0  0  0  3  0  0  0  0  0  0
  184.8700  177.6500  146.5910 C   0  0  0  0  0  3  0  0  0  0  0  0
  186.3610  177.1850  144.7530 C   0  0  0  0  0  3  0  0  0  0  0  0
  187.2210  177.4510  146.9590 N   0  0  0  0  0  0  0  0  0  0  0  0
  190.1550  177.3610  146.2450 S   0  0  0  0  0  0  0  0  0  0  0  0
  190.3100  175.6460  146.8330 C   0  0  0  0  0  0  0  0  0  0  0  0
  191.1920  175.4000  148.0320 C   0  0  0  0  0  2  0  0  0  0  0  0
  189.2450  174.7620  146.6740 O   0  0  0  0  0  1  0  0  0  0  0  0
  191.6600  175.0070  146.6350 C   0  0  0  0  0  2  0  0  0  0  0  0
  191.7060  172.4160  141.0040 C   0  0  2  0  0  3  0  0  0  0  0  0
  193.6540  170.9960  144.5720 C   0  0  0  0  0  0  0  0  0  0  0  0
  193.2780  170.8320  142.1750 C   0  0  0  0  0  0  0  0  0  0  0  0
  192.7650  172.0690  144.6420 C   0  0  0  0  0  3  0  0  0  0  0  0
  194.2940  170.5460  145.7200 O   0  0  0  0  0  1  0  0  0  0  0  0
  192.3930  171.9230  142.2480 C   0  0  0  0  0  0  0  0  0  0  0  0
  193.9070  170.3770  143.3450 C   0  0  0  0  0  3  0  0  0  0  0  0
  192.1330  172.5310  143.4860 C   0  0  0  0  0  3  0  0  0  0  0  0
  192.9190  168.9880  140.5600 C   0  0  0  0  0  1  0  0  0  0  0  0
  193.5180  170.2180  140.9390 O   0  0  0  0  0  0  0  0  0  0  0  0
  191.7820  173.8110  140.9380 O   0  0  0  0  0  0  0  0  0  0  0  0
  192.9910  174.0770  140.2890 C   0  0  0  0  0  2  0  0  0  0  0  0
  193.6370  175.3130  140.8910 C   0  0  0  0  0  2  0  0  0  0  0  0
  195.9800  173.6370  143.3540 C   0  0  0  0  0  3  0  0  0  0  0  0
  195.6930  174.3370  144.5370 C   0  0  0  0  0  0  0  0  0  0  0  0
  194.0600  175.6670  143.3340 C   0  0  0  0  0  3  0  0  0  0  0  0
  195.3110  173.9550  142.1670 C   0  0  0  0  0  3  0  0  0  0  0  0
  194.3530  174.9760  142.1560 C   0  0  0  0  0  0  0  0  0  0  0  0
  194.7300  175.3490  144.5180 C   0  0  0  0  0  3  0  0  0  0  0  0
  196.9000  172.8490  146.0750 C   0  0  0  0  0  2  0  0  0  0  0  0
  196.3820  174.0390  145.8010 C   0  0  0  0  0  3  0  0  0  0  0  0
  1  2  2  0  0  0  0
  2  4  1  0  0  0  0
  2  5  1  0  0  0  0
  3  7  1  0  0  0  0
  3  1  1  0  0  0  0
  6 23  1  6  0  0  0
  6  4  1  0  0  0  0
  7  6  1  0  0  0  0
  8  9  1  0  0  0  0
  9 11  1  1  0  0  0
 10  5  1  6  0  0  0
 10  8  1  0  0  0  0
 10  9  1  0  0  0  0
 11 12  1  0  0  0  0
 11 18  1  0  0  0  0
 12 17  1  0  0  0  0
 14 15  2  0  0  0  0
 15 13  1  0  0  0  0
 16 14  1  0  0  0  0
 16 12  2  0  0  0  0
 17 13  2  0  0  0  0
 18 19  1  0  0  0  0
 19 20  1  0  0  0  0
 21 19  1  0  0  0  0
 22 19  1  0  0  0  0
 22 20  1  0  0  0  0
 23 33  1  1  0  0  0
 23 28  1  0  0  0  0
 24 26  1  0  0  0  0
 24 27  1  0  0  0  0
 25 28  2  0  0  0  0
 25 29  1  0  0  0  0
 28 30  1  0  0  0  0
 29 24  2  0  0  0  0
 30 26  2  0  0  0  0
 31 32  1  0  0  0  0
 32 25  1  0  0  0  0
 34 35  1  0  0  0  0
 34 33  1  0  0  0  0
 35 40  1  0  0  0  0
 36 37  1  0  0  0  0
 37 43  1  0  0  0  0
 38 41  1  0  0  0  0
 39 36  2  0  0  0  0
 40 39  1  0  0  0  0
 40 38  2  0  0  0  0
 41 37  2  0  0  0  0
 43 42  2  0  0  0  0
M  END
>  <MODEL>
4

>  <REMARK>
 VINA RESULT:      -6.5      2.718      3.996
  Name = 
  13 active torsions:
  status: ('A' for Active; 'I' for Inactive)
    1  A    between atoms: C_1  and  C_8
    2  A    between atoms: C_1  and  C_35
    3  A    between atoms: C_4  and  N_14
    4  A    between atoms: C_8  and  O_34
    5  A    between atoms: C_10  and  S_41
    6  A    between atoms: C_11  and  N_14
    7  A    between atoms: C_12  and  N_17
    8  A    between atoms: N_14  and  S_41
    9  A    between atoms: C_16  and  O_43
   10  A    between atoms: C_19  and  C_37
   11  A    between atoms: C_21  and  C_30
   12  A    between atoms: C_27  and  C_30
   13  A    between atoms: C_30  and  O_34
                            x       y       z     vdW  Elec       q    Type
                         _______ _______ _______ _____ _____    ______ ____

>  <TORSDO>
F 13

$$$$
=
 OpenBabel11052420523D

 43 48  0  0  1  0  0  0  0  0999 V2000
  189.1930  176.5940  142.5250 N   0  0  0  0  0  0  0  0  0  0  0  0
  190.0420  175.6140  142.5170 C   0  0  0  0  0  0  0  0  0  0  0  0
  189.6480  177.9660  142.7300 C   0  0  0  0  0  2  0  0  0  0  0  0
  191.4970  175.9020  142.7600 C   0  0  0  0  0  2  0  0  0  0  0  0
  189.5680  174.2820  142.3280 N   0  0  0  0  0  2  0  0  0  0  0  0
  191.6570  176.8870  143.9350 C   0  0  1  0  0  3  0  0  0  0  0  0
  190.6040  178.0250  143.9250 C   0  0  0  0  0  2  0  0  0  0  0  0
  189.9560  171.9910  142.9590 C   0  0  0  0  0  2  0  0  0  0  0  0
  189.6360  172.0260  141.4750 C   0  0  1  0  0  3  0  0  0  0  0  0
  190.4450  173.1420  142.1150 C   0  0  1  0  0  3  0  0  0  0  0  0
  190.4910  171.0840  140.7480 N   0  0  0  0  0  0  0  0  0  0  0  0
  190.5250  171.0730  139.3080 C   0  0  0  0  0  0  0  0  0  0  0  0
  191.2810  172.0600  137.2770 C   0  0  0  0  0  3  0  0  0  0  0  0
  189.8790  170.1070  137.1850 C   0  0  0  0  0  3  0  0  0  0  0  0
  190.6130  171.0910  136.5270 C   0  0  0  0  0  3  0  0  0  0  0  0
  189.8330  170.0950  138.5800 C   0  0  0  0  0  3  0  0  0  0  0  0
  191.2200  172.0330  138.6360 N   0  0  0  0  0  0  0  0  0  0  0  0
  191.0650  169.6540  141.6340 S   0  0  0  0  0  0  0  0  0  0  0  0
  192.8150  169.9510  141.2340 C   0  0  0  0  0  0  0  0  0  0  0  0
  193.7820  170.0600  142.3880 C   0  0  0  0  0  2  0  0  0  0  0  0
  193.3460  169.4580  140.0450 O   0  0  0  0  0  1  0  0  0  0  0  0
  193.3520  171.3060  141.6200 C   0  0  0  0  0  2  0  0  0  0  0  0
  191.6290  176.1190  145.2640 C   0  0  2  0  0  3  0  0  0  0  0  0
  194.7860  173.2060  145.5510 C   0  0  0  0  0  0  0  0  0  0  0  0
  194.0070  175.4950  145.8150 C   0  0  0  0  0  0  0  0  0  0  0  0
  193.5230  172.8230  145.0990 C   0  0  0  0  0  3  0  0  0  0  0  0
  195.8020  172.2650  145.6570 O   0  0  0  0  0  1  0  0  0  0  0  0
  192.7320  175.1020  145.3710 C   0  0  0  0  0  0  0  0  0  0  0  0
  195.0290  174.5350  145.9030 C   0  0  0  0  0  3  0  0  0  0  0  0
  192.4990  173.7670  145.0060 C   0  0  0  0  0  3  0  0  0  0  0  0
  195.0430  177.7020  145.3790 C   0  0  0  0  0  1  0  0  0  0  0  0
  194.2380  176.8330  146.1610 O   0  0  0  0  0  0  0  0  0  0  0  0
  190.3870  175.4980  145.4360 O   0  0  0  0  0  0  0  0  0  0  0  0
  189.9300  175.9440  146.6800 C   0  0  0  0  0  2  0  0  0  0  0  0
  188.5740  175.3270  146.9800 C   0  0  0  0  0  2  0  0  0  0  0  0
  185.5890  177.6500  147.2220 C   0  0  0  0  0  3  0  0  0  0  0  0
  185.3910  177.9950  145.8750 C   0  0  0  0  0  0  0  0  0  0  0  0
  187.2690  176.5920  145.2560 C   0  0  0  0  0  3  0  0  0  0  0  0
  186.6250  176.7820  147.5810 C   0  0  0  0  0  3  0  0  0  0  0  0
  187.4710  176.2560  146.5970 C   0  0  0  0  0  0  0  0  0  0  0  0
  186.2350  177.4600  144.8980 C   0  0  0  0  0  3  0  0  0  0  0  0
  183.9490  179.0590  144.1940 C   0  0  0  0  0  2  0  0  0  0  0  0
  184.3200  178.9120  145.4590 C   0  0  0  0  0  3  0  0  0  0  0  0
  1  3  1  0  0  0  0
  2  1  2  0  0  0  0
  2  4  1  0  0  0  0
  3  7  1  0  0  0  0
  4  6  1  0  0  0  0
  5  2  1  0  0  0  0
  6 23  1  1  0  0  0
  7  6  1  0  0  0  0
  9 11  1  6  0  0  0
  9 10  1  0  0  0  0
  9  8  1  0  0  0  0
 10  5  1  1  0  0  0
 10  8  1  0  0  0  0
 11 18  1  0  0  0  0
 12 11  1  0  0  0  0
 13 17  2  0  0  0  0
 14 16  1  0  0  0  0
 15 14  2  0  0  0  0
 15 13  1  0  0  0  0
 16 12  2  0  0  0  0
 17 12  1  0  0  0  0
 19 22  1  0  0  0  0
 19 18  1  0  0  0  0
 19 20  1  0  0  0  0
 21 19  1  0  0  0  0
 22 20  1  0  0  0  0
 23 28  1  0  0  0  0
 23 33  1  6  0  0  0
 24 27  1  0  0  0  0
 24 29  1  0  0  0  0
 25 29  2  0  0  0  0
 25 32  1  0  0  0  0
 26 24  2  0  0  0  0
 28 25  1  0  0  0  0
 30 26  1  0  0  0  0
 30 28  2  0  0  0  0
 31 32  1  0  0  0  0
 33 34  1  0  0  0  0
 34 35  1  0  0  0  0
 36 39  1  0  0  0  0
 37 36  2  0  0  0  0
 38 40  1  0  0  0  0
 40 35  1  0  0  0  0
 40 39  2  0  0  0  0
 41 38  2  0  0  0  0
 41 37  1  0  0  0  0
 42 43  2  0  0  0  0
 43 37  1  0  0  0  0
M  END
>  <MODEL>
5

>  <REMARK>
 VINA RESULT:      -6.4      3.162      7.998
  Name = 
  13 active torsions:
  status: ('A' for Active; 'I' for Inactive)
    1  A    between atoms: C_1  and  C_8
    2  A    between atoms: C_1  and  C_35
    3  A    between atoms: C_4  and  N_14
    4  A    between atoms: C_8  and  O_34
    5  A    between atoms: C_10  and  S_41
    6  A    between atoms: C_11  and  N_14
    7  A    between atoms: C_12  and  N_17
    8  A    between atoms: N_14  and  S_41
    9  A    between atoms: C_16  and  O_43
   10  A    between atoms: C_19  and  C_37
   11  A    between atoms: C_21  and  C_30
   12  A    between atoms: C_27  and  C_30
   13  A    between atoms: C_30  and  O_34
                            x       y       z     vdW  Elec       q    Type
                         _______ _______ _______ _____ _____    ______ ____

>  <TORSDO>
F 13

$$$$
=
 OpenBabel11052420523D

 43 48  0  0  1  0  0  0  0  0999 V2000
  192.7820  176.4100  146.8280 N   0  0  0  0  0  0  0  0  0  0  0  0
  192.1060  176.5740  145.7340 C   0  0  0  0  0  0  0  0  0  0  0  0
  194.1930  176.7810  146.8890 C   0  0  0  0  0  2  0  0  0  0  0  0
  192.8020  177.1120  144.5150 C   0  0  0  0  0  2  0  0  0  0  0  0
  190.7320  176.1910  145.6980 N   0  0  0  0  0  2  0  0  0  0  0  0
  194.1700  176.4260  144.3340 C   0  0  1  0  0  3  0  0  0  0  0  0
  194.9310  176.2210  145.6690 C   0  0  0  0  0  2  0  0  0  0  0  0
  189.5030  175.2230  143.8670 C   0  0  0  0  0  2  0  0  0  0  0  0
  188.5070  175.8230  144.8430 C   0  0  1  0  0  3  0  0  0  0  0  0
  189.8420  176.5030  144.5920 C   0  0  1  0  0  3  0  0  0  0  0  0
  187.4170  176.4800  144.1170 N   0  0  0  0  0  0  0  0  0  0  0  0
  186.4620  177.3100  144.8060 C   0  0  0  0  0  0  0  0  0  0  0  0
  185.5670  179.4780  145.2210 C   0  0  0  0  0  3  0  0  0  0  0  0
  184.6350  177.5800  146.3690 C   0  0  0  0  0  3  0  0  0  0  0  0
  184.6370  178.9510  146.1190 C   0  0  0  0  0  3  0  0  0  0  0  0
  185.5480  176.7550  145.7120 C   0  0  0  0  0  3  0  0  0  0  0  0
  186.4520  178.6560  144.5950 N   0  0  0  0  0  0  0  0  0  0  0  0
  186.9990  175.8340  142.5150 S   0  0  0  0  0  0  0  0  0  0  0  0
  187.3130  177.4080  141.6580 C   0  0  0  0  0  0  0  0  0  0  0  0
  186.1130  178.2410  141.2770 C   0  0  0  0  0  2  0  0  0  0  0  0
  188.4830  178.1160  141.9180 O   0  0  0  0  0  1  0  0  0  0  0  0
  186.8810  177.4630  140.2150 C   0  0  0  0  0  2  0  0  0  0  0  0
  193.9890  175.0950  143.5920 C   0  0  2  0  0  3  0  0  0  0  0  0
  196.0000  171.8310  145.5510 C   0  0  0  0  0  0  0  0  0  0  0  0
  193.9400  172.9810  144.9640 C   0  0  0  0  0  0  0  0  0  0  0  0
  196.7410  172.8010  144.8750 C   0  0  0  0  0  3  0  0  0  0  0  0
  196.6480  170.7700  146.1720 O   0  0  0  0  0  1  0  0  0  0  0  0
  194.6890  173.9500  144.2720 C   0  0  0  0  0  0  0  0  0  0  0  0
  194.6080  171.9210  145.6000 C   0  0  0  0  0  3  0  0  0  0  0  0
  196.0890  173.8590  144.2390 C   0  0  0  0  0  3  0  0  0  0  0  0
  191.6830  172.2410  144.2610 C   0  0  0  0  0  1  0  0  0  0  0  0
  192.5440  173.0870  145.0080 O   0  0  0  0  0  0  0  0  0  0  0  0
  194.4360  175.2120  142.2720 O   0  0  0  0  0  0  0  0  0  0  0  0
  193.7800  174.1930  141.5760 C   0  0  0  0  0  2  0  0  0  0  0  0
  192.3070  174.5360  141.4290 C   0  0  0  0  0  2  0  0  0  0  0  0
  191.6940  172.2760  138.4490 C   0  0  0  0  0  3  0  0  0  0  0  0
  190.3720  171.8620  138.6760 C   0  0  0  0  0  0  0  0  0  0  0  0
  190.3190  173.2010  140.6980 C   0  0  0  0  0  3  0  0  0  0  0  0
  192.3250  173.1470  139.3450 C   0  0  0  0  0  3  0  0  0  0  0  0
  191.6370  173.6050  140.4750 C   0  0  0  0  0  0  0  0  0  0  0  0
  189.6910  172.3310  139.8030 C   0  0  0  0  0  3  0  0  0  0  0  0
  190.0090  169.6610  137.6470 C   0  0  0  0  0  2  0  0  0  0  0  0
  189.6800  170.9400  137.7640 C   0  0  0  0  0  3  0  0  0  0  0  0
  1  3  1  0  0  0  0
  2  1  2  0  0  0  0
  4  2  1  0  0  0  0
  5  2  1  0  0  0  0
  6 23  1  1  0  0  0
  6  4  1  0  0  0  0
  6  7  1  0  0  0  0
  7  3  1  0  0  0  0
  8 10  1  0  0  0  0
  8  9  1  0  0  0  0
  9 11  1  6  0  0  0
 10  9  1  0  0  0  0
 10  5  1  1  0  0  0
 11 12  1  0  0  0  0
 12 16  1  0  0  0  0
 13 15  2  0  0  0  0
 15 14  1  0  0  0  0
 16 14  2  0  0  0  0
 17 12  2  0  0  0  0
 17 13  1  0  0  0  0
 18 11  1  0  0  0  0
 19 21  1  0  0  0  0
 19 18  1  0  0  0  0
 20 19  1  0  0  0  0
 22 20  1  0  0  0  0
 22 19  1  0  0  0  0
 23 33  1  6  0  0  0
 23 28  1  0  0  0  0
 24 29  1  0  0  0  0
 24 27  1  0  0  0  0
 25 32  1  0  0  0  0
 25 29  2  0  0  0  0
 26 24  2  0  0  0  0
 28 25  1  0  0  0  0
 30 28  2  0  0  0  0
 30 26  1  0  0  0  0
 31 32  1  0  0  0  0
 34 33  1  0  0  0  0
 35 34  1  0  0  0  0
 36 37  2  0  0  0  0
 36 39  1  0  0  0  0
 37 41  1  0  0  0  0
 39 40  2  0  0  0  0
 40 38  1  0  0  0  0
 40 35  1  0  0  0  0
 41 38  2  0  0  0  0
 42 43  2  0  0  0  0
 43 37  1  0  0  0  0
M  END
>  <MODEL>
6

>  <REMARK>
 VINA RESULT:      -6.3      2.502      5.924
  Name = 
  13 active torsions:
  status: ('A' for Active; 'I' for Inactive)
    1  A    between atoms: C_1  and  C_8
    2  A    between atoms: C_1  and  C_35
    3  A    between atoms: C_4  and  N_14
    4  A    between atoms: C_8  and  O_34
    5  A    between atoms: C_10  and  S_41
    6  A    between atoms: C_11  and  N_14
    7  A    between atoms: C_12  and  N_17
    8  A    between atoms: N_14  and  S_41
    9  A    between atoms: C_16  and  O_43
   10  A    between atoms: C_19  and  C_37
   11  A    between atoms: C_21  and  C_30
   12  A    between atoms: C_27  and  C_30
   13  A    between atoms: C_30  and  O_34
                            x       y       z     vdW  Elec       q    Type
                         _______ _______ _______ _____ _____    ______ ____

>  <TORSDO>
F 13

$$$$
=
 OpenBabel11052420523D

 43 48  0  0  1  0  0  0  0  0999 V2000
  192.9870  176.4230  146.4830 N   0  0  0  0  0  0  0  0  0  0  0  0
  192.2330  176.4290  145.4290 C   0  0  0  0  0  0  0  0  0  0  0  0
  194.4360  176.5490  146.3590 C   0  0  0  0  0  2  0  0  0  0  0  0
  192.8720  176.5290  144.0720 C   0  0  0  0  0  2  0  0  0  0  0  0
  190.8210  176.2900  145.5790 N   0  0  0  0  0  2  0  0  0  0  0  0
  194.0960  175.5950  143.9870 C   0  0  1  0  0  3  0  0  0  0  0  0
  194.9520  175.5930  145.2800 C   0  0  0  0  0  2  0  0  0  0  0  0
  189.4480  175.1150  143.9880 C   0  0  0  0  0  2  0  0  0  0  0  0
  188.5360  175.9010  144.9120 C   0  0  1  0  0  3  0  0  0  0  0  0
  189.8780  176.4720  144.4870 C   0  0  1  0  0  3  0  0  0  0  0  0
  187.4300  176.4910  144.1540 N   0  0  0  0  0  0  0  0  0  0  0  0
  186.4530  177.3300  144.7990 C   0  0  0  0  0  0  0  0  0  0  0  0
  185.5610  179.5060  145.1760 C   0  0  0  0  0  3  0  0  0  0  0  0
  184.5580  177.6170  146.2780 C   0  0  0  0  0  3  0  0  0  0  0  0
  184.5860  178.9870  146.0290 C   0  0  0  0  0  3  0  0  0  0  0  0
  185.4930  176.7830  145.6620 C   0  0  0  0  0  3  0  0  0  0  0  0
  186.4650  178.6760  144.5890 N   0  0  0  0  0  0  0  0  0  0  0  0
  187.0310  175.7530  142.5870 S   0  0  0  0  0  0  0  0  0  0  0  0
  187.2950  177.2900  141.6510 C   0  0  0  0  0  0  0  0  0  0  0  0
  186.0710  178.0640  141.2290 C   0  0  0  0  0  2  0  0  0  0  0  0
  188.4420  178.0470  141.8740 O   0  0  0  0  0  1  0  0  0  0  0  0
  186.8640  177.2580  140.2070 C   0  0  0  0  0  2  0  0  0  0  0  0
  193.6400  174.1750  143.6240 C   0  0  2  0  0  3  0  0  0  0  0  0
  193.8740  173.4030  139.3950 C   0  0  0  0  0  0  0  0  0  0  0  0
  194.7670  173.1100  141.6370 C   0  0  0  0  0  0  0  0  0  0  0  0
  192.8440  174.1960  139.9030 C   0  0  0  0  0  3  0  0  0  0  0  0
  193.9420  173.1430  138.0320 O   0  0  0  0  0  1  0  0  0  0  0  0
  193.7200  173.8980  142.1470 C   0  0  0  0  0  0  0  0  0  0  0  0
  194.8330  172.8660  140.2560 C   0  0  0  0  0  3  0  0  0  0  0  0
  192.7680  174.4460  141.2740 C   0  0  0  0  0  3  0  0  0  0  0  0
  196.6430  171.5690  142.1280 C   0  0  0  0  0  1  0  0  0  0  0  0
  195.7250  172.5810  142.5120 O   0  0  0  0  0  0  0  0  0  0  0  0
  192.3380  173.9530  144.0820 O   0  0  0  0  0  0  0  0  0  0  0  0
  192.3630  172.6690  144.6360 C   0  0  0  0  0  2  0  0  0  0  0  0
  191.0790  171.9350  144.2890 C   0  0  0  0  0  2  0  0  0  0  0  0
  189.9860  171.8410  140.6610 C   0  0  0  0  0  3  0  0  0  0  0  0
  190.9390  170.9750  140.1020 C   0  0  0  0  0  0  0  0  0  0  0  0
  191.9750  170.7350  142.2820 C   0  0  0  0  0  3  0  0  0  0  0  0
  190.0320  172.1540  142.0240 C   0  0  0  0  0  3  0  0  0  0  0  0
  191.0320  171.6040  142.8350 C   0  0  0  0  0  0  0  0  0  0  0  0
  191.9290  170.4240  140.9200 C   0  0  0  0  0  3  0  0  0  0  0  0
  190.0380  169.8080  138.1370 C   0  0  0  0  0  2  0  0  0  0  0  0
  190.9300  170.6300  138.6730 C   0  0  0  0  0  3  0  0  0  0  0  0
  2  5  1  0  0  0  0
  2  1  2  0  0  0  0
  3  1  1  0  0  0  0
  4  2  1  0  0  0  0
  6 23  1  1  0  0  0
  6  4  1  0  0  0  0
  6  7  1  0  0  0  0
  7  3  1  0  0  0  0
  8 10  1  0  0  0  0
  8  9  1  0  0  0  0
  9 11  1  6  0  0  0
 10  9  1  0  0  0  0
 10  5  1  1  0  0  0
 11 12  1  0  0  0  0
 12 16  1  0  0  0  0
 13 15  2  0  0  0  0
 15 14  1  0  0  0  0
 16 14  2  0  0  0  0
 17 12  2  0  0  0  0
 17 13  1  0  0  0  0
 18 11  1  0  0  0  0
 19 21  1  0  0  0  0
 19 18  1  0  0  0  0
 20 19  1  0  0  0  0
 22 20  1  0  0  0  0
 22 19  1  0  0  0  0
 23 33  1  6  0  0  0
 24 26  2  0  0  0  0
 24 29  1  0  0  0  0
 25 28  1  0  0  0  0
 25 32  1  0  0  0  0
 26 30  1  0  0  0  0
 27 24  1  0  0  0  0
 28 23  1  0  0  0  0
 29 25  2  0  0  0  0
 30 28  2  0  0  0  0
 31 32  1  0  0  0  0
 33 34  1  0  0  0  0
 35 34  1  0  0  0  0
 36 39  1  0  0  0  0
 37 36  2  0  0  0  0
 37 41  1  0  0  0  0
 38 40  1  0  0  0  0
 39 40  2  0  0  0  0
 40 35  1  0  0  0  0
 41 38  2  0  0  0  0
 42 43  2  0  0  0  0
 43 37  1  0  0  0  0
M  END
>  <MODEL>
7

>  <REMARK>
 VINA RESULT:      -6.3      2.468      5.649
  Name = 
  13 active torsions:
  status: ('A' for Active; 'I' for Inactive)
    1  A    between atoms: C_1  and  C_8
    2  A    between atoms: C_1  and  C_35
    3  A    between atoms: C_4  and  N_14
    4  A    between atoms: C_8  and  O_34
    5  A    between atoms: C_10  and  S_41
    6  A    between atoms: C_11  and  N_14
    7  A    between atoms: C_12  and  N_17
    8  A    between atoms: N_14  and  S_41
    9  A    between atoms: C_16  and  O_43
   10  A    between atoms: C_19  and  C_37
   11  A    between atoms: C_21  and  C_30
   12  A    between atoms: C_27  and  C_30
   13  A    between atoms: C_30  and  O_34
                            x       y       z     vdW  Elec       q    Type
                         _______ _______ _______ _____ _____    ______ ____

>  <TORSDO>
F 13

$$$$
=
 OpenBabel11052420523D

 43 48  0  0  1  0  0  0  0  0999 V2000
  191.2890  175.6170  147.0740 N   0  0  0  0  0  0  0  0  0  0  0  0
  192.0720  175.1100  146.1740 C   0  0  0  0  0  0  0  0  0  0  0  0
  190.0470  174.9440  147.4400 C   0  0  0  0  0  2  0  0  0  0  0  0
  191.6660  173.8390  145.4810 C   0  0  0  0  0  2  0  0  0  0  0  0
  193.2730  175.7960  145.8260 N   0  0  0  0  0  2  0  0  0  0  0  0
  190.1770  173.8980  145.0860 C   0  0  1  0  0  3  0  0  0  0  0  0
  189.2810  174.5390  146.1770 C   0  0  0  0  0  2  0  0  0  0  0  0
  195.5590  176.0520  145.1130 C   0  0  0  0  0  2  0  0  0  0  0  0
  195.4380  174.7340  145.8570 C   0  0  1  0  0  3  0  0  0  0  0  0
  194.3040  175.2260  144.9740 C   0  0  1  0  0  3  0  0  0  0  0  0
  196.2350  173.7000  145.1910 N   0  0  0  0  0  0  0  0  0  0  0  0
  196.0060  172.3020  145.4560 C   0  0  0  0  0  0  0  0  0  0  0  0
  196.8570  170.1950  146.1670 C   0  0  0  0  0  3  0  0  0  0  0  0
  194.5500  170.3700  145.5050 C   0  0  0  0  0  3  0  0  0  0  0  0
  195.6100  169.5980  145.9770 C   0  0  0  0  0  3  0  0  0  0  0  0
  194.7460  171.7270  145.2440 C   0  0  0  0  0  3  0  0  0  0  0  0
  197.0270  171.5180  145.9020 N   0  0  0  0  0  0  0  0  0  0  0  0
  197.7850  174.1990  144.4770 S   0  0  0  0  0  0  0  0  0  0  0  0
  197.4270  173.4470  142.8600 C   0  0  0  0  0  0  0  0  0  0  0  0
  197.4480  174.3530  141.6540 C   0  0  0  0  0  2  0  0  0  0  0  0
  197.7700  172.1180  142.6250 O   0  0  0  0  0  1  0  0  0  0  0  0
  196.1240  173.8560  142.2230 C   0  0  0  0  0  2  0  0  0  0  0  0
  190.0250  174.6290  143.7450 C   0  0  2  0  0  3  0  0  0  0  0  0
  190.0240  171.9310  140.3900 C   0  0  0  0  0  0  0  0  0  0  0  0
  188.9940  173.7620  141.6150 C   0  0  0  0  0  0  0  0  0  0  0  0
  191.0390  171.8560  141.3450 C   0  0  0  0  0  3  0  0  0  0  0  0
  190.0310  171.0700  139.3000 O   0  0  0  0  0  1  0  0  0  0  0  0
  190.0260  173.6910  142.5680 C   0  0  0  0  0  0  0  0  0  0  0  0
  189.0050  172.8760  140.5250 C   0  0  0  0  0  3  0  0  0  0  0  0
  191.0400  172.7300  142.4330 C   0  0  0  0  0  3  0  0  0  0  0  0
  187.7460  175.7510  140.8270 C   0  0  0  0  0  1  0  0  0  0  0  0
  187.9760  174.7120  141.7660 O   0  0  0  0  0  0  0  0  0  0  0  0
  191.0360  175.5830  143.5970 O   0  0  0  0  0  0  0  0  0  0  0  0
  190.3840  176.7350  143.1500 C   0  0  0  0  0  2  0  0  0  0  0  0
  190.1930  177.7000  144.3080 C   0  0  0  0  0  2  0  0  0  0  0  0
  187.1690  177.7550  146.5920 C   0  0  0  0  0  3  0  0  0  0  0  0
  186.1160  177.6600  145.6690 C   0  0  0  0  0  0  0  0  0  0  0  0
  187.7310  177.5860  143.8610 C   0  0  0  0  0  3  0  0  0  0  0  0
  188.4970  177.7680  146.1490 C   0  0  0  0  0  3  0  0  0  0  0  0
  188.7780  177.6890  144.7800 C   0  0  0  0  0  0  0  0  0  0  0  0
  186.4060  177.5740  144.3040 C   0  0  0  0  0  3  0  0  0  0  0  0
  183.9350  178.7290  146.0360 C   0  0  0  0  0  2  0  0  0  0  0  0
  184.7090  177.6540  146.0950 C   0  0  0  0  0  3  0  0  0  0  0  0
  1  3  1  0  0  0  0
  2  1  2  0  0  0  0
  4  2  1  0  0  0  0
  5  2  1  0  0  0  0
  6 23  1  6  0  0  0
  6  4  1  0  0  0  0
  6  7  1  0  0  0  0
  7  3  1  0  0  0  0
  8  9  1  0  0  0  0
  9 11  1  6  0  0  0
 10  8  1  0  0  0  0
 10  5  1  1  0  0  0
 10  9  1  0  0  0  0
 11 12  1  0  0  0  0
 12 17  1  0  0  0  0
 14 15  2  0  0  0  0
 15 13  1  0  0  0  0
 16 12  2  0  0  0  0
 16 14  1  0  0  0  0
 17 13  2  0  0  0  0
 18 11  1  0  0  0  0
 19 18  1  0  0  0  0
 20 22  1  0  0  0  0
 20 19  1  0  0  0  0
 21 19  1  0  0  0  0
 22 19  1  0  0  0  0
 23 33  1  6  0  0  0
 24 29  2  0  0  0  0
 24 26  1  0  0  0  0
 25 32  1  0  0  0  0
 25 28  2  0  0  0  0
 26 30  2  0  0  0  0
 27 24  1  0  0  0  0
 28 23  1  0  0  0  0
 29 25  1  0  0  0  0
 30 28  1  0  0  0  0
 31 32  1  0  0  0  0
 34 33  1  0  0  0  0
 34 35  1  0  0  0  0
 35 40  1  0  0  0  0
 37 43  1  0  0  0  0
 37 36  2  0  0  0  0
 38 41  2  0  0  0  0
 38 40  1  0  0  0  0
 39 36  1  0  0  0  0
 40 39  2  0  0  0  0
 41 37  1  0  0  0  0
 42 43  2  0  0  0  0
M  END
>  <MODEL>
8

>  <REMARK>
 VINA RESULT:      -6.3      3.975      9.556
  Name = 
  13 active torsions:
  status: ('A' for Active; 'I' for Inactive)
    1  A    between atoms: C_1  and  C_8
    2  A    between atoms: C_1  and  C_35
    3  A    between atoms: C_4  and  N_14
    4  A    between atoms: C_8  and  O_34
    5  A    between atoms: C_10  and  S_41
    6  A    between atoms: C_11  and  N_14
    7  A    between atoms: C_12  and  N_17
    8  A    between atoms: N_14  and  S_41
    9  A    between atoms: C_16  and  O_43
   10  A    between atoms: C_19  and  C_37
   11  A    between atoms: C_21  and  C_30
   12  A    between atoms: C_27  and  C_30
   13  A    between atoms: C_30  and  O_34
                            x       y       z     vdW  Elec       q    Type
                         _______ _______ _______ _____ _____    ______ ____

>  <TORSDO>
F 13

$$$$
=
 OpenBabel11052420523D

 43 48  0  0  1  0  0  0  0  0999 V2000
  189.7930  172.0000  141.0500 N   0  0  0  0  0  0  0  0  0  0  0  0
  190.6490  172.3340  141.9650 C   0  0  0  0  0  0  0  0  0  0  0  0
  189.3140  172.9860  140.0860 C   0  0  0  0  0  2  0  0  0  0  0  0
  191.1130  173.7620  142.0470 C   0  0  0  0  0  2  0  0  0  0  0  0
  191.0890  171.3530  142.9020 N   0  0  0  0  0  2  0  0  0  0  0  0
  189.9170  174.7220  141.8960 C   0  0  1  0  0  3  0  0  0  0  0  0
  188.9030  174.2690  140.8150 C   0  0  0  0  0  2  0  0  0  0  0  0
  193.0700  170.3570  143.8410 C   0  0  0  0  0  2  0  0  0  0  0  0
  193.4830  171.5940  143.0650 C   0  0  1  0  0  3  0  0  0  0  0  0
  192.1770  171.5730  143.8400 C   0  0  1  0  0  3  0  0  0  0  0  0
  194.5320  172.3200  143.7870 N   0  0  0  0  0  0  0  0  0  0  0  0
  194.3160  173.6670  144.2510 C   0  0  0  0  0  0  0  0  0  0  0  0
  194.5320  176.0100  143.8840 C   0  0  0  0  0  3  0  0  0  0  0  0
  193.5180  175.2270  145.9210 C   0  0  0  0  0  3  0  0  0  0  0  0
  193.9240  176.2850  145.1100 C   0  0  0  0  0  3  0  0  0  0  0  0
  193.7140  173.9130  145.4920 C   0  0  0  0  0  3  0  0  0  0  0  0
  194.7170  174.7220  143.4880 N   0  0  0  0  0  0  0  0  0  0  0  0
  196.1970  171.7210  143.6240 S   0  0  0  0  0  0  0  0  0  0  0  0
  196.4520  171.5650  145.4190 C   0  0  0  0  0  0  0  0  0  0  0  0
  196.9260  170.2300  145.9380 C   0  0  0  0  0  2  0  0  0  0  0  0
  196.8430  172.6760  146.1610 O   0  0  0  0  0  1  0  0  0  0  0  0
  195.4790  170.6680  146.1400 C   0  0  0  0  0  2  0  0  0  0  0  0
  189.2280  174.9110  143.2550 C   0  0  2  0  0  3  0  0  0  0  0  0
  186.3270  178.0920  143.2450 C   0  0  0  0  0  0  0  0  0  0  0  0
  188.6170  177.3350  142.9340 C   0  0  0  0  0  0  0  0  0  0  0  0
  185.9350  176.7920  143.5650 C   0  0  0  0  0  3  0  0  0  0  0  0
  185.3900  179.1170  143.2280 O   0  0  0  0  0  1  0  0  0  0  0  0
  188.2150  176.0230  143.2450 C   0  0  0  0  0  0  0  0  0  0  0  0
  187.6610  178.3640  142.9350 C   0  0  0  0  0  3  0  0  0  0  0  0
  186.8750  175.7600  143.5680 C   0  0  0  0  0  3  0  0  0  0  0  0
  190.8310  178.2830  143.5130 C   0  0  0  0  0  1  0  0  0  0  0  0
  189.9600  177.5930  142.6290 O   0  0  0  0  0  0  0  0  0  0  0  0
  190.1820  175.1430  144.2520 O   0  0  0  0  0  0  0  0  0  0  0  0
  189.8130  174.3030  145.3070 C   0  0  0  0  0  2  0  0  0  0  0  0
  189.9220  175.0540  146.6230 C   0  0  0  0  0  2  0  0  0  0  0  0
  186.5000  176.5520  147.2640 C   0  0  0  0  0  3  0  0  0  0  0  0
  186.7380  177.9140  147.0150 C   0  0  0  0  0  0  0  0  0  0  0  0
  189.0530  177.4000  146.5060 C   0  0  0  0  0  3  0  0  0  0  0  0
  187.5370  175.6210  147.1360 C   0  0  0  0  0  3  0  0  0  0  0  0
  188.8170  176.0470  146.7620 C   0  0  0  0  0  0  0  0  0  0  0  0
  188.0170  178.3290  146.6350 C   0  0  0  0  0  3  0  0  0  0  0  0
  184.4310  178.7150  146.7440 C   0  0  0  0  0  2  0  0  0  0  0  0
  185.6770  178.9230  147.1480 C   0  0  0  0  0  3  0  0  0  0  0  0
  1  2  2  0  0  0  0
  2  4  1  0  0  0  0
  2  5  1  0  0  0  0
  3  7  1  0  0  0  0
  3  1  1  0  0  0  0
  6  4  1  0  0  0  0
  6 23  1  1  0  0  0
  7  6  1  0  0  0  0
  9 11  1  1  0  0  0
  9 10  1  0  0  0  0
  9  8  1  0  0  0  0
 10  5  1  6  0  0  0
 10  8  1  0  0  0  0
 11 12  1  0  0  0  0
 12 16  1  0  0  0  0
 13 15  2  0  0  0  0
 15 14  1  0  0  0  0
 16 14  2  0  0  0  0
 17 13  1  0  0  0  0
 17 12  2  0  0  0  0
 18 11  1  0  0  0  0
 18 19  1  0  0  0  0
 19 20  1  0  0  0  0
 19 22  1  0  0  0  0
 19 21  1  0  0  0  0
 20 22  1  0  0  0  0
 23 33  1  1  0  0  0
 24 26  1  0  0  0  0
 25 29  1  0  0  0  0
 25 28  2  0  0  0  0
 26 30  2  0  0  0  0
 27 24  1  0  0  0  0
 28 23  1  0  0  0  0
 28 30  1  0  0  0  0
 29 24  2  0  0  0  0
 32 25  1  0  0  0  0
 32 31  1  0  0  0  0
 33 34  1  0  0  0  0
 34 35  1  0  0  0  0
 35 40  1  0  0  0  0
 37 43  1  0  0  0  0
 37 36  2  0  0  0  0
 38 41  2  0  0  0  0
 38 40  1  0  0  0  0
 39 36  1  0  0  0  0
 40 39  2  0  0  0  0
 41 37  1  0  0  0  0
 42 43  2  0  0  0  0
M  END
>  <MODEL>
9

>  <REMARK>
 VINA RESULT:      -6.3      3.590      8.932
  Name = 
  13 active torsions:
  status: ('A' for Active; 'I' for Inactive)
    1  A    between atoms: C_1  and  C_8
    2  A    between atoms: C_1  and  C_35
    3  A    between atoms: C_4  and  N_14
    4  A    between atoms: C_8  and  O_34
    5  A    between atoms: C_10  and  S_41
    6  A    between atoms: C_11  and  N_14
    7  A    between atoms: C_12  and  N_17
    8  A    between atoms: N_14  and  S_41
    9  A    between atoms: C_16  and  O_43
   10  A    between atoms: C_19  and  C_37
   11  A    between atoms: C_21  and  C_30
   12  A    between atoms: C_27  and  C_30
   13  A    between atoms: C_30  and  O_34
                            x       y       z     vdW  Elec       q    Type
                         _______ _______ _______ _____ _____    ______ ____

>  <TORSDO>
F 13

$$$$
