=
 OpenBabel11052421083D

 43 47  0  0  1  0  0  0  0  0999 V2000
  187.7770  176.5370  145.8560 C   0  0  0  0  0  0  0  0  0  0  0  0
  187.8030  176.1320  143.0750 C   0  0  0  0  0  0  0  0  0  0  0  0
  186.2630  178.6410  146.9510 C   0  0  0  0  0  0  0  0  0  0  0  0
  186.2720  178.4490  145.5580 C   0  0  0  0  0  0  0  0  0  0  0  0
  185.5200  179.6680  147.5220 O   0  0  0  0  0  1  0  0  0  0  0  0
  187.0590  177.1770  143.6220 C   0  0  0  0  0  3  0  0  0  0  0  0
  187.0330  177.3960  145.0060 C   0  0  0  0  0  0  0  0  0  0  0  0
  187.7500  176.7520  147.2410 C   0  0  0  0  0  3  0  0  0  0  0  0
  188.5260  175.4770  145.3020 C   0  0  0  0  0  0  0  0  0  0  0  0
  188.5290  175.2820  143.9180 C   0  0  0  0  0  3  0  0  0  0  0  0
  187.0000  177.7960  147.7820 C   0  0  0  0  0  3  0  0  0  0  0  0
  187.7640  175.9190  141.5950 C   0  0  1  0  0  3  0  0  0  0  0  0
  187.5590  177.2240  140.8440 C   0  0  0  0  0  1  0  0  0  0  0  0
  189.0230  175.2090  141.1180 C   0  0  0  0  0  2  0  0  0  0  0  0
  188.6870  174.1950  140.0730 C   0  0  0  0  0  0  0  0  0  0  0  0
  188.1470  174.5430  139.0350 O   0  0  0  0  0  0  0  0  0  0  0  0
  189.0720  172.7520  140.2770 C   0  0  0  0  0  2  0  0  0  0  0  0
  190.2720  172.5520  141.1100 N   0  0  0  0  0  0  0  0  0  0  0  0
  189.4710  171.8440  143.3030 C   0  0  0  0  0  2  0  0  0  0  0  0
  190.1050  171.4000  141.9950 C   0  0  0  0  0  3  0  0  0  0  0  0
  190.9590  171.5780  143.2380 C   0  0  0  0  0  2  0  0  0  0  0  0
  191.6920  172.3310  140.1210 S   0  0  0  0  0  0  0  0  0  0  0  0
  192.1630  170.9040  140.1960 O   0  0  0  0  0  0  0  0  0  0  0  0
  191.3770  172.6750  138.6910 O   0  0  0  0  0  0  0  0  0  0  0  0
  192.9930  173.4010  140.7070 C   0  0  0  0  0  3  0  0  0  0  0  0
  194.8640  173.3510  142.4630 C   0  0  0  0  0  2  0  0  0  0  0  0
  193.5140  175.4540  142.0850 C   0  0  0  0  0  2  0  0  0  0  0  0
  194.9200  174.8400  142.1350 C   0  0  0  0  0  2  0  0  0  0  0  0
  192.4270  174.4630  141.6480 C   0  0  0  0  0  2  0  0  0  0  0  0
  194.0950  172.5750  141.3870 C   0  0  0  0  0  2  0  0  0  0  0  0
  189.3480  174.5610  146.1560 C   0  0  0  0  0  2  0  0  0  0  0  0
  193.0720  174.2460  145.5220 C   0  0  0  0  0  3  0  0  0  0  0  0
  193.5260  175.5150  145.8970 C   0  0  0  0  0  0  0  0  0  0  0  0
  191.2510  176.1670  146.4200 C   0  0  0  0  0  3  0  0  0  0  0  0
  191.7120  173.9360  145.6000 C   0  0  0  0  0  3  0  0  0  0  0  0
  190.7980  174.8980  146.0490 C   0  0  0  0  0  0  0  0  0  0  0  0
  192.6120  176.4780  146.3420 C   0  0  0  0  0  3  0  0  0  0  0  0
  194.9740  175.8490  145.7990 C   0  0  0  0  0  2  0  0  0  0  0  0
  195.8060  174.5820  145.8120 C   0  0  0  0  0  1  0  0  0  0  0  0
  185.4790  179.3810  144.6820 C   0  0  0  0  0  2  0  0  0  0  0  0
  184.0750  178.8490  144.4290 C   0  0  0  0  0  2  0  0  0  0  0  0
  183.9130  178.4550  143.0260 C   0  0  0  0  0  0  0  0  0  0  0  0
  183.7790  178.1310  141.8720 C   0  0  0  0  0  3  0  0  0  0  0  0
  1  8  1  0  0  0  0
  2  6  2  0  0  0  0
  2 10  1  0  0  0  0
  3  5  1  0  0  0  0
  3 11  1  0  0  0  0
  4  3  2  0  0  0  0
  6  7  1  0  0  0  0
  7  4  1  0  0  0  0
  7  1  2  0  0  0  0
  8 11  2  0  0  0  0
  9  1  1  0  0  0  0
  9 31  1  0  0  0  0
 10  9  2  0  0  0  0
 12 13  1  6  0  0  0
 12  2  1  0  0  0  0
 14 12  1  0  0  0  0
 15 17  1  0  0  0  0
 15 14  1  0  0  0  0
 16 15  2  0  0  0  0
 17 18  1  0  0  0  0
 18 20  1  0  0  0  0
 20 21  1  0  0  0  0
 20 19  1  0  0  0  0
 21 19  1  0  0  0  0
 22 23  2  0  0  0  0
 22 25  1  0  0  0  0
 22 18  1  0  0  0  0
 24 22  2  0  0  0  0
 25 30  1  0  0  0  0
 25 29  1  0  0  0  0
 27 28  1  0  0  0  0
 28 26  1  0  0  0  0
 29 27  1  0  0  0  0
 30 26  1  0  0  0  0
 32 35  2  0  0  0  0
 32 33  1  0  0  0  0
 33 37  2  0  0  0  0
 35 36  1  0  0  0  0
 36 31  1  0  0  0  0
 36 34  2  0  0  0  0
 37 34  1  0  0  0  0
 38 39  1  0  0  0  0
 38 33  1  0  0  0  0
 40  4  1  0  0  0  0
 41 40  1  0  0  0  0
 42 41  1  0  0  0  0
 43 42  3  0  0  0  0
M  END
>  <MODEL>
1

>  <REMARK>
 VINA RESULT:      -6.8      0.000      0.000
  Name = 
  14 active torsions:
  status: ('A' for Active; 'I' for Inactive)
    1  A    between atoms: C_1  and  C_34
    2  A    between atoms: C_1  and  C_35
    3  A    between atoms: C_2  and  C_6
    4  A    between atoms: C_2  and  C_13
    5  A    between atoms: C_3  and  N_4
    6  A    between atoms: C_3  and  C_12
    7  A    between atoms: N_4  and  S_14
    8  A    between atoms: N_4  and  C_15
    9  A    between atoms: C_5  and  C_18
   10  A    between atoms: C_6  and  C_12
   11  A    between atoms: C_11  and  S_14
   12  A    between atoms: C_18  and  C_24
   13  A    between atoms: C_19  and  C_25
   14  A    between atoms: C_21  and  C_24
                            x       y       z     vdW  Elec       q    Type
                         _______ _______ _______ _____ _____    ______ ____

>  <TORSDO>
F 14

$$$$
=
 OpenBabel11052421083D

 43 47  0  0  1  0  0  0  0  0999 V2000
  193.8170  175.0980  145.2800 C   0  0  0  0  0  0  0  0  0  0  0  0
  192.9020  172.7400  144.0540 C   0  0  0  0  0  0  0  0  0  0  0  0
  195.8350  176.6240  144.0480 C   0  0  0  0  0  0  0  0  0  0  0  0
  195.3870  175.4450  143.4280 C   0  0  0  0  0  0  0  0  0  0  0  0
  196.8260  177.4030  143.4600 O   0  0  0  0  0  1  0  0  0  0  0  0
  193.9050  173.4970  143.4500 C   0  0  0  0  0  3  0  0  0  0  0  0
  194.3760  174.6760  144.0450 C   0  0  0  0  0  0  0  0  0  0  0  0
  194.2850  176.2780  145.8750 C   0  0  0  0  0  3  0  0  0  0  0  0
  192.7990  174.3340  145.8870 C   0  0  0  0  0  0  0  0  0  0  0  0
  192.3470  173.1650  145.2670 C   0  0  0  0  0  3  0  0  0  0  0  0
  195.2850  177.0320  145.2640 C   0  0  0  0  0  3  0  0  0  0  0  0
  192.4080  171.5130  143.3560 C   0  0  1  0  0  3  0  0  0  0  0  0
  192.8960  170.2440  144.0370 C   0  0  0  0  0  1  0  0  0  0  0  0
  190.8900  171.5240  143.2520 C   0  0  0  0  0  2  0  0  0  0  0  0
  190.4460  170.8310  142.0040 C   0  0  0  0  0  0  0  0  0  0  0  0
  190.5160  169.6150  141.9230 O   0  0  0  0  0  0  0  0  0  0  0  0
  189.8550  171.6310  140.8720 C   0  0  0  0  0  2  0  0  0  0  0  0
  190.2990  173.0350  140.8180 N   0  0  0  0  0  0  0  0  0  0  0  0
  192.3410  172.5850  139.5620 C   0  0  0  0  0  2  0  0  0  0  0  0
  191.0060  173.3110  139.5690 C   0  0  0  0  0  3  0  0  0  0  0  0
  192.2900  174.0670  139.8600 C   0  0  0  0  0  2  0  0  0  0  0  0
  188.9480  174.1270  140.9800 S   0  0  0  0  0  0  0  0  0  0  0  0
  188.3400  174.4080  139.6340 O   0  0  0  0  0  0  0  0  0  0  0  0
  187.9050  173.5180  141.8780 O   0  0  0  0  0  0  0  0  0  0  0  0
  189.5100  175.6610  141.6940 C   0  0  0  0  0  3  0  0  0  0  0  0
  190.9750  176.4350  143.6550 C   0  0  0  0  0  2  0  0  0  0  0  0
  188.8370  177.6590  143.0880 C   0  0  0  0  0  2  0  0  0  0  0  0
  190.3520  177.7840  143.3110 C   0  0  0  0  0  2  0  0  0  0  0  0
  188.4080  176.2900  142.5450 C   0  0  0  0  0  2  0  0  0  0  0  0
  190.7900  175.4310  142.5100 C   0  0  0  0  0  2  0  0  0  0  0  0
  192.1970  174.7250  147.2020 C   0  0  0  0  0  2  0  0  0  0  0  0
  189.6630  177.5380  147.0050 C   0  0  0  0  0  3  0  0  0  0  0  0
  188.4990  176.8400  146.6660 C   0  0  0  0  0  0  0  0  0  0  0  0
  189.7530  174.7660  146.6550 C   0  0  0  0  0  3  0  0  0  0  0  0
  190.8680  176.8520  147.1740 C   0  0  0  0  0  3  0  0  0  0  0  0
  190.9150  175.4630  146.9980 C   0  0  0  0  0  0  0  0  0  0  0  0
  188.5460  175.4520  146.4860 C   0  0  0  0  0  3  0  0  0  0  0  0
  187.2180  177.5740  146.4710 C   0  0  0  0  0  2  0  0  0  0  0  0
  186.1100  176.9170  147.2720 C   0  0  0  0  0  1  0  0  0  0  0  0
  196.0030  175.0190  142.1230 C   0  0  0  0  0  2  0  0  0  0  0  0
  195.4010  175.7770  140.9480 C   0  0  0  0  0  2  0  0  0  0  0  0
  195.7610  175.1380  139.6780 C   0  0  0  0  0  0  0  0  0  0  0  0
  196.0560  174.6140  138.6320 C   0  0  0  0  0  3  0  0  0  0  0  0
  1  8  1  0  0  0  0
  1  9  1  0  0  0  0
  2 10  1  0  0  0  0
  3 11  1  0  0  0  0
  4  7  1  0  0  0  0
  4  3  2  0  0  0  0
  5  3  1  0  0  0  0
  6  7  1  0  0  0  0
  6  2  2  0  0  0  0
  7  1  2  0  0  0  0
  9 31  1  0  0  0  0
 10  9  2  0  0  0  0
 11  8  2  0  0  0  0
 12 13  1  1  0  0  0
 12  2  1  0  0  0  0
 14 12  1  0  0  0  0
 15 14  1  0  0  0  0
 16 15  2  0  0  0  0
 17 15  1  0  0  0  0
 18 17  1  0  0  0  0
 18 22  1  0  0  0  0
 19 20  1  0  0  0  0
 19 21  1  0  0  0  0
 20 21  1  0  0  0  0
 20 18  1  0  0  0  0
 22 25  1  0  0  0  0
 22 24  2  0  0  0  0
 23 22  2  0  0  0  0
 25 30  1  0  0  0  0
 25 29  1  0  0  0  0
 27 28  1  0  0  0  0
 28 26  1  0  0  0  0
 29 27  1  0  0  0  0
 30 26  1  0  0  0  0
 32 35  1  0  0  0  0
 33 32  2  0  0  0  0
 34 36  1  0  0  0  0
 36 35  2  0  0  0  0
 36 31  1  0  0  0  0
 37 34  2  0  0  0  0
 37 33  1  0  0  0  0
 38 33  1  0  0  0  0
 38 39  1  0  0  0  0
 40  4  1  0  0  0  0
 41 40  1  0  0  0  0
 42 41  1  0  0  0  0
 43 42  3  0  0  0  0
M  END
>  <MODEL>
2

>  <REMARK>
 VINA RESULT:      -6.5      2.410      6.930
  Name = 
  14 active torsions:
  status: ('A' for Active; 'I' for Inactive)
    1  A    between atoms: C_1  and  C_34
    2  A    between atoms: C_1  and  C_35
    3  A    between atoms: C_2  and  C_6
    4  A    between atoms: C_2  and  C_13
    5  A    between atoms: C_3  and  N_4
    6  A    between atoms: C_3  and  C_12
    7  A    between atoms: N_4  and  S_14
    8  A    between atoms: N_4  and  C_15
    9  A    between atoms: C_5  and  C_18
   10  A    between atoms: C_6  and  C_12
   11  A    between atoms: C_11  and  S_14
   12  A    between atoms: C_18  and  C_24
   13  A    between atoms: C_19  and  C_25
   14  A    between atoms: C_21  and  C_24
                            x       y       z     vdW  Elec       q    Type
                         _______ _______ _______ _____ _____    ______ ____

>  <TORSDO>
F 14

$$$$
=
 OpenBabel11052421083D

 43 47  0  0  1  0  0  0  0  0999 V2000
  187.9350  176.5540  145.6980 C   0  0  0  0  0  0  0  0  0  0  0  0
  188.4480  175.1730  143.3040 C   0  0  0  0  0  0  0  0  0  0  0  0
  185.6370  178.1630  145.9210 C   0  0  0  0  0  0  0  0  0  0  0  0
  185.8870  177.4790  144.7180 C   0  0  0  0  0  0  0  0  0  0  0  0
  184.5070  178.9600  146.0630 O   0  0  0  0  0  1  0  0  0  0  0  0
  187.3140  175.9760  143.4180 C   0  0  0  0  0  3  0  0  0  0  0  0
  187.0400  176.6730  144.6030 C   0  0  0  0  0  0  0  0  0  0  0  0
  187.6600  177.2480  146.8850 C   0  0  0  0  0  3  0  0  0  0  0  0
  189.0790  175.7380  145.5840 C   0  0  0  0  0  0  0  0  0  0  0  0
  189.3240  175.0520  144.3900 C   0  0  0  0  0  3  0  0  0  0  0  0
  186.5220  178.0450  146.9930 C   0  0  0  0  0  3  0  0  0  0  0  0
  188.6720  174.4200  142.0320 C   0  0  1  0  0  3  0  0  0  0  0  0
  188.2570  175.2330  140.8160 C   0  0  0  0  0  1  0  0  0  0  0  0
  190.1220  173.9730  141.9170 C   0  0  0  0  0  2  0  0  0  0  0  0
  190.2140  172.4820  141.9590 C   0  0  0  0  0  0  0  0  0  0  0  0
  189.2840  171.8230  142.3960 O   0  0  0  0  0  0  0  0  0  0  0  0
  191.4320  171.7890  141.4030 C   0  0  0  0  0  2  0  0  0  0  0  0
  192.7110  172.2500  141.9740 N   0  0  0  0  0  0  0  0  0  0  0  0
  192.7520  171.8290  144.3760 C   0  0  0  0  0  2  0  0  0  0  0  0
  193.1820  171.3300  143.0070 C   0  0  0  0  0  3  0  0  0  0  0  0
  194.1760  172.0360  143.9110 C   0  0  0  0  0  2  0  0  0  0  0  0
  193.9280  172.4140  140.7350 S   0  0  0  0  0  0  0  0  0  0  0  0
  194.8460  171.2230  140.7450 O   0  0  0  0  0  0  0  0  0  0  0  0
  193.2710  172.5220  139.3850 O   0  0  0  0  0  0  0  0  0  0  0  0
  194.8860  173.8870  141.0380 C   0  0  0  0  0  3  0  0  0  0  0  0
  194.4890  176.4130  141.2640 C   0  0  0  0  0  2  0  0  0  0  0  0
  196.5130  175.5360  140.0290 C   0  0  0  0  0  2  0  0  0  0  0  0
  196.0110  176.4460  141.1600 C   0  0  0  0  0  2  0  0  0  0  0  0
  195.6050  174.3280  139.7650 C   0  0  0  0  0  2  0  0  0  0  0  0
  193.9860  175.0010  141.5930 C   0  0  0  0  0  2  0  0  0  0  0  0
  190.0670  175.6010  146.7030 C   0  0  0  0  0  2  0  0  0  0  0  0
  193.7730  175.0100  146.1640 C   0  0  0  0  0  3  0  0  0  0  0  0
  194.0940  176.0490  145.2840 C   0  0  0  0  0  0  0  0  0  0  0  0
  191.7840  176.7810  145.3130 C   0  0  0  0  0  3  0  0  0  0  0  0
  192.4610  174.8600  146.6220 C   0  0  0  0  0  3  0  0  0  0  0  0
  191.4630  175.7450  146.1960 C   0  0  0  0  0  0  0  0  0  0  0  0
  193.0960  176.9320  144.8540 C   0  0  0  0  0  3  0  0  0  0  0  0
  195.4890  176.2000  144.7850 C   0  0  0  0  0  2  0  0  0  0  0  0
  196.2340  174.8850  144.9070 C   0  0  0  0  0  1  0  0  0  0  0  0
  184.9240  177.6310  143.5720 C   0  0  0  0  0  2  0  0  0  0  0  0
  185.3620  178.7340  142.6180 C   0  0  0  0  0  2  0  0  0  0  0  0
  185.5080  178.2140  141.2540 C   0  0  0  0  0  0  0  0  0  0  0  0
  185.6290  177.7860  140.1330 C   0  0  0  0  0  3  0  0  0  0  0  0
  1  8  1  0  0  0  0
  2  6  2  0  0  0  0
  2 10  1  0  0  0  0
  3  5  1  0  0  0  0
  3 11  1  0  0  0  0
  4  3  2  0  0  0  0
  6  7  1  0  0  0  0
  7  4  1  0  0  0  0
  7  1  2  0  0  0  0
  8 11  2  0  0  0  0
  9  1  1  0  0  0  0
  9 31  1  0  0  0  0
 10  9  2  0  0  0  0
 12 13  1  6  0  0  0
 12  2  1  0  0  0  0
 14 15  1  0  0  0  0
 14 12  1  0  0  0  0
 15 16  2  0  0  0  0
 17 15  1  0  0  0  0
 17 18  1  0  0  0  0
 18 20  1  0  0  0  0
 20 21  1  0  0  0  0
 20 19  1  0  0  0  0
 21 19  1  0  0  0  0
 22 23  2  0  0  0  0
 22 25  1  0  0  0  0
 22 18  1  0  0  0  0
 24 22  2  0  0  0  0
 25 30  1  0  0  0  0
 26 30  1  0  0  0  0
 27 28  1  0  0  0  0
 28 26  1  0  0  0  0
 29 27  1  0  0  0  0
 29 25  1  0  0  0  0
 32 35  1  0  0  0  0
 33 32  2  0  0  0  0
 34 36  1  0  0  0  0
 36 35  2  0  0  0  0
 36 31  1  0  0  0  0
 37 33  1  0  0  0  0
 37 34  2  0  0  0  0
 38 39  1  0  0  0  0
 38 33  1  0  0  0  0
 40  4  1  0  0  0  0
 41 40  1  0  0  0  0
 42 41  1  0  0  0  0
 43 42  3  0  0  0  0
M  END
>  <MODEL>
3

>  <REMARK>
 VINA RESULT:      -6.5      1.659      2.198
  Name = 
  14 active torsions:
  status: ('A' for Active; 'I' for Inactive)
    1  A    between atoms: C_1  and  C_34
    2  A    between atoms: C_1  and  C_35
    3  A    between atoms: C_2  and  C_6
    4  A    between atoms: C_2  and  C_13
    5  A    between atoms: C_3  and  N_4
    6  A    between atoms: C_3  and  C_12
    7  A    between atoms: N_4  and  S_14
    8  A    between atoms: N_4  and  C_15
    9  A    between atoms: C_5  and  C_18
   10  A    between atoms: C_6  and  C_12
   11  A    between atoms: C_11  and  S_14
   12  A    between atoms: C_18  and  C_24
   13  A    between atoms: C_19  and  C_25
   14  A    between atoms: C_21  and  C_24
                            x       y       z     vdW  Elec       q    Type
                         _______ _______ _______ _____ _____    ______ ____

>  <TORSDO>
F 14

$$$$
=
 OpenBabel11052421083D

 43 47  0  0  1  0  0  0  0  0999 V2000
  192.4370  175.6560  144.7610 C   0  0  0  0  0  0  0  0  0  0  0  0
  190.9850  173.9700  143.0430 C   0  0  0  0  0  0  0  0  0  0  0  0
  194.9230  174.8140  145.7750 C   0  0  0  0  0  0  0  0  0  0  0  0
  194.2030  173.9620  144.9200 C   0  0  0  0  0  0  0  0  0  0  0  0
  196.1570  174.4300  146.2870 O   0  0  0  0  0  1  0  0  0  0  0  0
  192.2150  173.5560  143.5530 C   0  0  0  0  0  3  0  0  0  0  0  0
  192.9540  174.3810  144.4110 C   0  0  0  0  0  0  0  0  0  0  0  0
  193.1770  176.4840  145.6160 C   0  0  0  0  0  3  0  0  0  0  0  0
  191.1950  176.0760  144.2400 C   0  0  0  0  0  0  0  0  0  0  0  0
  190.4820  175.2310  143.3830 C   0  0  0  0  0  3  0  0  0  0  0  0
  194.4080  176.0650  146.1180 C   0  0  0  0  0  3  0  0  0  0  0  0
  190.2560  173.0670  142.1000 C   0  0  1  0  0  3  0  0  0  0  0  0
  188.8340  172.7980  142.5650 C   0  0  0  0  0  1  0  0  0  0  0  0
  190.2680  173.6350  140.6890 C   0  0  0  0  0  2  0  0  0  0  0  0
  190.5550  172.5580  139.6930 C   0  0  0  0  0  0  0  0  0  0  0  0
  189.7440  171.6640  139.5090 O   0  0  0  0  0  0  0  0  0  0  0  0
  191.8170  172.6120  138.8720 C   0  0  0  0  0  2  0  0  0  0  0  0
  193.0610  172.6080  139.6640 N   0  0  0  0  0  0  0  0  0  0  0  0
  192.9000  170.7160  141.1960 C   0  0  0  0  0  2  0  0  0  0  0  0
  193.5180  171.2410  139.9110 C   0  0  0  0  0  3  0  0  0  0  0  0
  194.3350  171.1950  141.1890 C   0  0  0  0  0  2  0  0  0  0  0  0
  194.3190  173.5100  138.8600 S   0  0  0  0  0  0  0  0  0  0  0  0
  195.4510  172.5980  138.4750 O   0  0  0  0  0  0  0  0  0  0  0  0
  193.7670  174.1630  137.6220 O   0  0  0  0  0  0  0  0  0  0  0  0
  194.9380  174.7700  139.9590 C   0  0  0  0  0  3  0  0  0  0  0  0
  196.3640  174.9180  142.0890 C   0  0  0  0  0  2  0  0  0  0  0  0
  194.3240  176.3840  141.8040 C   0  0  0  0  0  2  0  0  0  0  0  0
  195.8330  176.3480  142.0890 C   0  0  0  0  0  2  0  0  0  0  0  0
  193.8400  175.2310  140.9160 C   0  0  0  0  0  2  0  0  0  0  0  0
  196.1690  174.2550  140.7190 C   0  0  0  0  0  2  0  0  0  0  0  0
  190.5960  177.4010  144.6000 C   0  0  0  0  0  2  0  0  0  0  0  0
  186.8160  177.6220  144.7840 C   0  0  0  0  0  3  0  0  0  0  0  0
  186.5580  176.9650  145.9920 C   0  0  0  0  0  0  0  0  0  0  0  0
  188.9320  176.5740  146.2790 C   0  0  0  0  0  3  0  0  0  0  0  0
  188.1290  177.7600  144.3280 C   0  0  0  0  0  3  0  0  0  0  0  0
  189.1900  177.2340  145.0740 C   0  0  0  0  0  0  0  0  0  0  0  0
  187.6180  176.4360  146.7370 C   0  0  0  0  0  3  0  0  0  0  0  0
  185.1570  176.8060  146.4710 C   0  0  0  0  0  2  0  0  0  0  0  0
  184.4240  178.1320  146.3970 C   0  0  0  0  0  1  0  0  0  0  0  0
  194.7740  172.6140  144.5740 C   0  0  0  0  0  2  0  0  0  0  0  0
  194.4280  171.5730  145.6310 C   0  0  0  0  0  2  0  0  0  0  0  0
  193.8420  170.3790  145.0130 C   0  0  0  0  0  0  0  0  0  0  0  0
  193.3600  169.3980  144.5040 C   0  0  0  0  0  3  0  0  0  0  0  0
  1  8  1  0  0  0  0
  2 10  2  0  0  0  0
  2  6  1  0  0  0  0
  3 11  1  0  0  0  0
  3  5  1  0  0  0  0
  4  3  2  0  0  0  0
  6  7  2  0  0  0  0
  7  1  1  0  0  0  0
  7  4  1  0  0  0  0
  8 11  2  0  0  0  0
  9 31  1  0  0  0  0
  9  1  2  0  0  0  0
 10  9  1  0  0  0  0
 12 13  1  1  0  0  0
 12  2  1  0  0  0  0
 14 12  1  0  0  0  0
 15 14  1  0  0  0  0
 16 15  2  0  0  0  0
 17 18  1  0  0  0  0
 17 15  1  0  0  0  0
 18 20  1  0  0  0  0
 20 21  1  0  0  0  0
 20 19  1  0  0  0  0
 21 19  1  0  0  0  0
 22 18  1  0  0  0  0
 22 25  1  0  0  0  0
 23 22  2  0  0  0  0
 24 22  2  0  0  0  0
 25 30  1  0  0  0  0
 25 29  1  0  0  0  0
 26 28  1  0  0  0  0
 27 28  1  0  0  0  0
 29 27  1  0  0  0  0
 30 26  1  0  0  0  0
 31 36  1  0  0  0  0
 32 33  1  0  0  0  0
 33 38  1  0  0  0  0
 33 37  2  0  0  0  0
 34 37  1  0  0  0  0
 35 32  2  0  0  0  0
 35 36  1  0  0  0  0
 36 34  2  0  0  0  0
 39 38  1  0  0  0  0
 40  4  1  0  0  0  0
 40 41  1  0  0  0  0
 42 41  1  0  0  0  0
 43 42  3  0  0  0  0
M  END
>  <MODEL>
4

>  <REMARK>
 VINA RESULT:      -6.4      2.757      6.461
  Name = 
  14 active torsions:
  status: ('A' for Active; 'I' for Inactive)
    1  A    between atoms: C_1  and  C_34
    2  A    between atoms: C_1  and  C_35
    3  A    between atoms: C_2  and  C_6
    4  A    between atoms: C_2  and  C_13
    5  A    between atoms: C_3  and  N_4
    6  A    between atoms: C_3  and  C_12
    7  A    between atoms: N_4  and  S_14
    8  A    between atoms: N_4  and  C_15
    9  A    between atoms: C_5  and  C_18
   10  A    between atoms: C_6  and  C_12
   11  A    between atoms: C_11  and  S_14
   12  A    between atoms: C_18  and  C_24
   13  A    between atoms: C_19  and  C_25
   14  A    between atoms: C_21  and  C_24
                            x       y       z     vdW  Elec       q    Type
                         _______ _______ _______ _____ _____    ______ ____

>  <TORSDO>
F 14

$$$$
=
 OpenBabel11052421083D

 43 47  0  0  1  0  0  0  0  0999 V2000
  191.1290  175.2590  146.5020 C   0  0  0  0  0  0  0  0  0  0  0  0
  190.5170  173.0980  144.8110 C   0  0  0  0  0  0  0  0  0  0  0  0
  193.6880  176.4250  146.4140 C   0  0  0  0  0  0  0  0  0  0  0  0
  193.3940  175.3420  145.5670 C   0  0  0  0  0  0  0  0  0  0  0  0
  194.9410  177.0260  146.3890 O   0  0  0  0  0  1  0  0  0  0  0  0
  191.7860  173.6760  144.7760 C   0  0  0  0  0  3  0  0  0  0  0  0
  192.1110  174.7540  145.6100 C   0  0  0  0  0  0  0  0  0  0  0  0
  191.4510  176.3400  147.3350 C   0  0  0  0  0  3  0  0  0  0  0  0
  189.8440  174.6770  146.5330 C   0  0  0  0  0  0  0  0  0  0  0  0
  189.5480  173.6050  145.6860 C   0  0  0  0  0  3  0  0  0  0  0  0
  192.7190  176.9150  147.2910 C   0  0  0  0  0  3  0  0  0  0  0  0
  190.2110  171.9760  143.8710 C   0  0  1  0  0  3  0  0  0  0  0  0
  188.7780  172.0390  143.3690 C   0  0  0  0  0  1  0  0  0  0  0  0
  191.1940  171.9610  142.7100 C   0  0  0  0  0  2  0  0  0  0  0  0
  190.8650  170.8550  141.7600 C   0  0  0  0  0  0  0  0  0  0  0  0
  190.8010  169.7030  142.1620 O   0  0  0  0  0  0  0  0  0  0  0  0
  190.5520  171.1700  140.3200 C   0  0  0  0  0  2  0  0  0  0  0  0
  190.7580  172.5800  139.9440 N   0  0  0  0  0  0  0  0  0  0  0  0
  193.1680  172.5810  139.5640 C   0  0  0  0  0  2  0  0  0  0  0  0
  191.7960  172.7010  138.9220 C   0  0  0  0  0  3  0  0  0  0  0  0
  192.6310  173.9420  139.1800 C   0  0  0  0  0  2  0  0  0  0  0  0
  189.2780  173.2980  139.3650 S   0  0  0  0  0  0  0  0  0  0  0  0
  189.5520  174.1640  138.1660 O   0  0  0  0  0  0  0  0  0  0  0  0
  188.3030  172.2180  138.9830 O   0  0  0  0  0  0  0  0  0  0  0  0
  188.5630  174.3020  140.6540 C   0  0  0  0  0  3  0  0  0  0  0  0
  187.5290  176.6380  140.9070 C   0  0  0  0  0  2  0  0  0  0  0  0
  189.0640  175.7130  142.6900 C   0  0  0  0  0  2  0  0  0  0  0  0
  187.6820  176.3120  142.3890 C   0  0  0  0  0  2  0  0  0  0  0  0
  189.6590  174.9250  141.5150 C   0  0  0  0  0  2  0  0  0  0  0  0
  187.6460  175.3730  140.0460 C   0  0  0  0  0  2  0  0  0  0  0  0
  188.7820  175.1590  147.4750 C   0  0  0  0  0  2  0  0  0  0  0  0
  185.7470  177.1790  146.4330 C   0  0  0  0  0  3  0  0  0  0  0  0
  186.3200  178.1070  145.5570 C   0  0  0  0  0  0  0  0  0  0  0  0
  188.5010  177.1260  145.9500 C   0  0  0  0  0  3  0  0  0  0  0  0
  186.5490  176.2220  147.0620 C   0  0  0  0  0  3  0  0  0  0  0  0
  187.9280  176.1950  146.8230 C   0  0  0  0  0  0  0  0  0  0  0  0
  187.6990  178.0830  145.3200 C   0  0  0  0  0  3  0  0  0  0  0  0
  185.4680  179.1350  144.8980 C   0  0  0  0  0  2  0  0  0  0  0  0
  185.9200  179.3530  143.4670 C   0  0  0  0  0  1  0  0  0  0  0  0
  194.4580  174.8240  144.6380 C   0  0  0  0  0  2  0  0  0  0  0  0
  195.4740  173.9640  145.3790 C   0  0  0  0  0  2  0  0  0  0  0  0
  195.0580  172.5580  145.3880 C   0  0  0  0  0  0  0  0  0  0  0  0
  194.7150  171.4020  145.3960 C   0  0  0  0  0  3  0  0  0  0  0  0
  1  9  1  0  0  0  0
  1  8  1  0  0  0  0
  2 10  1  0  0  0  0
  3 11  1  0  0  0  0
  4  7  1  0  0  0  0
  4  3  2  0  0  0  0
  5  3  1  0  0  0  0
  6  2  2  0  0  0  0
  6  7  1  0  0  0  0
  7  1  2  0  0  0  0
  9 31  1  0  0  0  0
 10  9  2  0  0  0  0
 11  8  2  0  0  0  0
 12 13  1  6  0  0  0
 12  2  1  0  0  0  0
 14 12  1  0  0  0  0
 15 16  2  0  0  0  0
 15 14  1  0  0  0  0
 17 15  1  0  0  0  0
 18 17  1  0  0  0  0
 20 21  1  0  0  0  0
 20 19  1  0  0  0  0
 20 18  1  0  0  0  0
 21 19  1  0  0  0  0
 22 18  1  0  0  0  0
 22 25  1  0  0  0  0
 23 22  2  0  0  0  0
 24 22  2  0  0  0  0
 25 29  1  0  0  0  0
 26 28  1  0  0  0  0
 28 27  1  0  0  0  0
 29 27  1  0  0  0  0
 30 25  1  0  0  0  0
 30 26  1  0  0  0  0
 32 35  1  0  0  0  0
 33 32  2  0  0  0  0
 34 36  1  0  0  0  0
 36 35  2  0  0  0  0
 36 31  1  0  0  0  0
 37 33  1  0  0  0  0
 37 34  2  0  0  0  0
 38 33  1  0  0  0  0
 39 38  1  0  0  0  0
 40 41  1  0  0  0  0
 40  4  1  0  0  0  0
 41 42  1  0  0  0  0
 42 43  3  0  0  0  0
M  END
>  <MODEL>
5

>  <REMARK>
 VINA RESULT:      -6.3      2.172      6.614
  Name = 
  14 active torsions:
  status: ('A' for Active; 'I' for Inactive)
    1  A    between atoms: C_1  and  C_34
    2  A    between atoms: C_1  and  C_35
    3  A    between atoms: C_2  and  C_6
    4  A    between atoms: C_2  and  C_13
    5  A    between atoms: C_3  and  N_4
    6  A    between atoms: C_3  and  C_12
    7  A    between atoms: N_4  and  S_14
    8  A    between atoms: N_4  and  C_15
    9  A    between atoms: C_5  and  C_18
   10  A    between atoms: C_6  and  C_12
   11  A    between atoms: C_11  and  S_14
   12  A    between atoms: C_18  and  C_24
   13  A    between atoms: C_19  and  C_25
   14  A    between atoms: C_21  and  C_24
                            x       y       z     vdW  Elec       q    Type
                         _______ _______ _______ _____ _____    ______ ____

>  <TORSDO>
F 14

$$$$
=
 OpenBabel11052421083D

 43 47  0  0  1  0  0  0  0  0999 V2000
  192.0440  172.4530  144.2340 C   0  0  0  0  0  0  0  0  0  0  0  0
  190.8060  174.1930  146.0630 C   0  0  0  0  0  0  0  0  0  0  0  0
  194.8460  172.4420  143.9880 C   0  0  0  0  0  0  0  0  0  0  0  0
  194.2370  173.3190  144.9030 C   0  0  0  0  0  0  0  0  0  0  0  0
  196.2290  172.4100  143.8490 O   0  0  0  0  0  1  0  0  0  0  0  0
  192.1940  174.1870  145.9330 C   0  0  0  0  0  3  0  0  0  0  0  0
  192.8310  173.3280  145.0270 C   0  0  0  0  0  0  0  0  0  0  0  0
  192.6780  171.5900  143.3300 C   0  0  0  0  0  3  0  0  0  0  0  0
  190.6390  172.4550  144.3700 C   0  0  0  0  0  0  0  0  0  0  0  0
  190.0330  173.3220  145.2850 C   0  0  0  0  0  3  0  0  0  0  0  0
  194.0670  171.5870  143.2090 C   0  0  0  0  0  3  0  0  0  0  0  0
  190.1810  175.1010  147.0730 C   0  0  1  0  0  3  0  0  0  0  0  0
  191.0760  175.2940  148.2860 C   0  0  0  0  0  1  0  0  0  0  0  0
  189.8210  176.4400  146.4460 C   0  0  0  0  0  2  0  0  0  0  0  0
  188.3440  176.6610  146.4980 C   0  0  0  0  0  0  0  0  0  0  0  0
  187.6240  175.8550  147.0670 O   0  0  0  0  0  0  0  0  0  0  0  0
  187.7510  177.9120  145.9020 C   0  0  0  0  0  2  0  0  0  0  0  0
  186.7180  177.6710  144.8780 N   0  0  0  0  0  0  0  0  0  0  0  0
  184.6340  178.5520  145.7900 C   0  0  0  0  0  2  0  0  0  0  0  0
  185.7760  178.7870  144.8150 C   0  0  0  0  0  3  0  0  0  0  0  0
  184.4300  178.2960  144.3130 C   0  0  0  0  0  2  0  0  0  0  0  0
  187.4380  177.4220  143.3080 S   0  0  0  0  0  0  0  0  0  0  0  0
  186.7480  176.2930  142.5910 O   0  0  0  0  0  0  0  0  0  0  0  0
  187.3180  178.6770  142.4870 O   0  0  0  0  0  0  0  0  0  0  0  0
  189.1620  177.0140  143.5060 C   0  0  0  0  0  3  0  0  0  0  0  0
  191.4470  178.0830  143.0300 C   0  0  0  0  0  2  0  0  0  0  0  0
  191.0700  175.6190  142.6110 C   0  0  0  0  0  2  0  0  0  0  0  0
  191.9330  176.6680  143.3270 C   0  0  0  0  0  2  0  0  0  0  0  0
  189.6150  176.0600  142.4020 C   0  0  0  0  0  2  0  0  0  0  0  0
  190.0120  178.2930  143.5290 C   0  0  0  0  0  2  0  0  0  0  0  0
  189.7640  171.5680  143.5370 C   0  0  0  0  0  2  0  0  0  0  0  0
  187.7420  173.3790  140.8900 C   0  0  0  0  0  3  0  0  0  0  0  0
  188.6700  173.4690  139.8460 C   0  0  0  0  0  0  0  0  0  0  0  0
  190.3170  172.3390  141.2190 C   0  0  0  0  0  3  0  0  0  0  0  0
  188.0990  172.7650  142.0940 C   0  0  0  0  0  3  0  0  0  0  0  0
  189.3890  172.2450  142.2610 C   0  0  0  0  0  0  0  0  0  0  0  0
  189.9600  172.9520  140.0140 C   0  0  0  0  0  3  0  0  0  0  0  0
  188.2930  174.1350  138.5690 C   0  0  0  0  0  2  0  0  0  0  0  0
  189.2430  173.7210  137.4620 C   0  0  0  0  0  1  0  0  0  0  0  0
  195.0980  174.2410  145.7240 C   0  0  0  0  0  2  0  0  0  0  0  0
  195.2620  175.5970  145.0520 C   0  0  0  0  0  2  0  0  0  0  0  0
  194.6750  176.6600  145.8750 C   0  0  0  0  0  0  0  0  0  0  0  0
  194.1930  177.5330  146.5530 C   0  0  0  0  0  3  0  0  0  0  0  0
  1  9  2  0  0  0  0
  1  7  1  0  0  0  0
  2 12  1  0  0  0  0
  3  4  2  0  0  0  0
  4  7  1  0  0  0  0
  4 40  1  0  0  0  0
  5  3  1  0  0  0  0
  6  2  1  0  0  0  0
  7  6  2  0  0  0  0
  8  1  1  0  0  0  0
  9 10  1  0  0  0  0
 10  2  2  0  0  0  0
 11  8  2  0  0  0  0
 11  3  1  0  0  0  0
 12 13  1  1  0  0  0
 14 15  1  0  0  0  0
 14 12  1  0  0  0  0
 15 16  2  0  0  0  0
 17 15  1  0  0  0  0
 18 17  1  0  0  0  0
 20 18  1  0  0  0  0
 20 19  1  0  0  0  0
 21 20  1  0  0  0  0
 21 19  1  0  0  0  0
 22 25  1  0  0  0  0
 22 18  1  0  0  0  0
 23 22  2  0  0  0  0
 24 22  2  0  0  0  0
 25 30  1  0  0  0  0
 26 28  1  0  0  0  0
 26 30  1  0  0  0  0
 27 28  1  0  0  0  0
 29 27  1  0  0  0  0
 29 25  1  0  0  0  0
 31  9  1  0  0  0  0
 32 35  1  0  0  0  0
 33 37  1  0  0  0  0
 33 32  2  0  0  0  0
 34 36  1  0  0  0  0
 35 36  2  0  0  0  0
 36 31  1  0  0  0  0
 37 34  2  0  0  0  0
 38 33  1  0  0  0  0
 39 38  1  0  0  0  0
 41 40  1  0  0  0  0
 41 42  1  0  0  0  0
 42 43  3  0  0  0  0
M  END
>  <MODEL>
6

>  <REMARK>
 VINA RESULT:      -6.3      2.764      7.926
  Name = 
  14 active torsions:
  status: ('A' for Active; 'I' for Inactive)
    1  A    between atoms: C_1  and  C_34
    2  A    between atoms: C_1  and  C_35
    3  A    between atoms: C_2  and  C_6
    4  A    between atoms: C_2  and  C_13
    5  A    between atoms: C_3  and  N_4
    6  A    between atoms: C_3  and  C_12
    7  A    between atoms: N_4  and  S_14
    8  A    between atoms: N_4  and  C_15
    9  A    between atoms: C_5  and  C_18
   10  A    between atoms: C_6  and  C_12
   11  A    between atoms: C_11  and  S_14
   12  A    between atoms: C_18  and  C_24
   13  A    between atoms: C_19  and  C_25
   14  A    between atoms: C_21  and  C_24
                            x       y       z     vdW  Elec       q    Type
                         _______ _______ _______ _____ _____    ______ ____

>  <TORSDO>
F 14

$$$$
=
 OpenBabel11052421083D

 43 47  0  0  1  0  0  0  0  0999 V2000
  190.0390  174.7370  142.4180 C   0  0  0  0  0  0  0  0  0  0  0  0
  192.0070  173.3080  143.8280 C   0  0  0  0  0  0  0  0  0  0  0  0
  188.7010  173.5210  140.2620 C   0  0  0  0  0  0  0  0  0  0  0  0
  189.6860  172.7990  140.9580 C   0  0  0  0  0  0  0  0  0  0  0  0
  188.0180  172.9440  139.1970 O   0  0  0  0  0  1  0  0  0  0  0  0
  191.3440  172.7120  142.7550 C   0  0  0  0  0  3  0  0  0  0  0  0
  190.3610  173.4070  142.0390 C   0  0  0  0  0  0  0  0  0  0  0  0
  189.0520  175.4320  141.7050 C   0  0  0  0  0  3  0  0  0  0  0  0
  190.7060  175.3370  143.5060 C   0  0  0  0  0  0  0  0  0  0  0  0
  191.6800  174.6170  144.2040 C   0  0  0  0  0  3  0  0  0  0  0  0
  188.3910  174.8290  140.6360 C   0  0  0  0  0  3  0  0  0  0  0  0
  193.0200  172.5080  144.5820 C   0  0  1  0  0  3  0  0  0  0  0  0
  192.7150  171.0200  144.5280 C   0  0  0  0  0  1  0  0  0  0  0  0
  194.4240  172.7940  144.0720 C   0  0  0  0  0  2  0  0  0  0  0  0
  195.3760  172.9420  145.2140 C   0  0  0  0  0  0  0  0  0  0  0  0
  195.6980  171.9640  145.8720 O   0  0  0  0  0  0  0  0  0  0  0  0
  195.9860  174.2870  145.5140 C   0  0  0  0  0  2  0  0  0  0  0  0
  195.4490  175.3950  144.7050 N   0  0  0  0  0  0  0  0  0  0  0  0
  193.9460  176.2500  146.4270 C   0  0  0  0  0  2  0  0  0  0  0  0
  195.1450  176.5540  145.5430 C   0  0  0  0  0  3  0  0  0  0  0  0
  193.7740  177.1010  145.1890 C   0  0  0  0  0  2  0  0  0  0  0  0
  196.5700  175.8580  143.4500 S   0  0  0  0  0  0  0  0  0  0  0  0
  196.9410  177.3090  143.5910 O   0  0  0  0  0  0  0  0  0  0  0  0
  197.8140  175.0170  143.5430 O   0  0  0  0  0  0  0  0  0  0  0  0
  195.8110  175.6050  141.8570 C   0  0  0  0  0  3  0  0  0  0  0  0
  193.5050  174.9870  140.9130 C   0  0  0  0  0  2  0  0  0  0  0  0
  195.6090  174.0290  139.8920 C   0  0  0  0  0  2  0  0  0  0  0  0
  194.3130  174.8110  139.6310 C   0  0  0  0  0  2  0  0  0  0  0  0
  196.1710  174.2280  141.3060 C   0  0  0  0  0  2  0  0  0  0  0  0
  194.2900  175.7930  141.9570 C   0  0  0  0  0  2  0  0  0  0  0  0
  190.4190  176.7460  143.9280 C   0  0  0  0  0  2  0  0  0  0  0  0
  187.7780  176.0860  146.5660 C   0  0  0  0  0  3  0  0  0  0  0  0
  186.7370  176.9120  146.1290 C   0  0  0  0  0  0  0  0  0  0  0  0
  188.1070  177.6460  144.2700 C   0  0  0  0  0  3  0  0  0  0  0  0
  188.9790  176.0350  145.8530 C   0  0  0  0  0  3  0  0  0  0  0  0
  189.1460  176.8170  144.7040 C   0  0  0  0  0  0  0  0  0  0  0  0
  186.9040  177.6960  144.9820 C   0  0  0  0  0  3  0  0  0  0  0  0
  185.4630  176.9760  146.8970 C   0  0  0  0  0  2  0  0  0  0  0  0
  185.1470  178.4120  147.2710 C   0  0  0  0  0  1  0  0  0  0  0  0
  190.0110  171.3940  140.5280 C   0  0  0  0  0  2  0  0  0  0  0  0
  190.9930  171.3800  139.3640 C   0  0  0  0  0  2  0  0  0  0  0  0
  192.3670  171.2040  139.8450 C   0  0  0  0  0  0  0  0  0  0  0  0
  193.4970  171.0600  140.2420 C   0  0  0  0  0  3  0  0  0  0  0  0
  1  9  1  0  0  0  0
  2 10  1  0  0  0  0
  2 12  1  0  0  0  0
  3 11  2  0  0  0  0
  3  4  1  0  0  0  0
  4  7  2  0  0  0  0
  5  3  1  0  0  0  0
  6  2  2  0  0  0  0
  7  1  1  0  0  0  0
  7  6  1  0  0  0  0
  8  1  2  0  0  0  0
  9 31  1  0  0  0  0
  9 10  2  0  0  0  0
 11  8  1  0  0  0  0
 12 13  1  6  0  0  0
 14 12  1  0  0  0  0
 14 15  1  0  0  0  0
 15 17  1  0  0  0  0
 15 16  2  0  0  0  0
 18 17  1  0  0  0  0
 18 20  1  0  0  0  0
 20 19  1  0  0  0  0
 21 20  1  0  0  0  0
 21 19  1  0  0  0  0
 22 24  2  0  0  0  0
 22 23  2  0  0  0  0
 22 18  1  0  0  0  0
 25 30  1  0  0  0  0
 25 22  1  0  0  0  0
 26 30  1  0  0  0  0
 27 29  1  0  0  0  0
 28 27  1  0  0  0  0
 28 26  1  0  0  0  0
 29 25  1  0  0  0  0
 31 36  1  0  0  0  0
 33 32  1  0  0  0  0
 33 38  1  0  0  0  0
 34 36  2  0  0  0  0
 34 37  1  0  0  0  0
 35 32  2  0  0  0  0
 36 35  1  0  0  0  0
 37 33  2  0  0  0  0
 38 39  1  0  0  0  0
 40  4  1  0  0  0  0
 41 42  1  0  0  0  0
 41 40  1  0  0  0  0
 42 43  3  0  0  0  0
M  END
>  <MODEL>
7

>  <REMARK>
 VINA RESULT:      -6.3      2.953      7.297
  Name = 
  14 active torsions:
  status: ('A' for Active; 'I' for Inactive)
    1  A    between atoms: C_1  and  C_34
    2  A    between atoms: C_1  and  C_35
    3  A    between atoms: C_2  and  C_6
    4  A    between atoms: C_2  and  C_13
    5  A    between atoms: C_3  and  N_4
    6  A    between atoms: C_3  and  C_12
    7  A    between atoms: N_4  and  S_14
    8  A    between atoms: N_4  and  C_15
    9  A    between atoms: C_5  and  C_18
   10  A    between atoms: C_6  and  C_12
   11  A    between atoms: C_11  and  S_14
   12  A    between atoms: C_18  and  C_24
   13  A    between atoms: C_19  and  C_25
   14  A    between atoms: C_21  and  C_24
                            x       y       z     vdW  Elec       q    Type
                         _______ _______ _______ _____ _____    ______ ____

>  <TORSDO>
F 14

$$$$
=
 OpenBabel11052421083D

 43 47  0  0  1  0  0  0  0  0999 V2000
  193.5380  172.1590  144.9300 C   0  0  0  0  0  0  0  0  0  0  0  0
  193.0150  174.9180  145.0440 C   0  0  0  0  0  0  0  0  0  0  0  0
  196.0790  171.1850  145.6480 C   0  0  0  0  0  0  0  0  0  0  0  0
  195.8280  172.5670  145.7040 C   0  0  0  0  0  0  0  0  0  0  0  0
  197.3220  170.6730  146.0020 O   0  0  0  0  0  1  0  0  0  0  0  0
  194.2730  174.4310  145.3930 C   0  0  0  0  0  3  0  0  0  0  0  0
  194.5550  173.0590  145.3430 C   0  0  0  0  0  0  0  0  0  0  0  0
  193.8170  170.7860  144.8830 C   0  0  0  0  0  3  0  0  0  0  0  0
  192.2630  172.6520  144.5820 C   0  0  0  0  0  0  0  0  0  0  0  0
  192.0120  174.0260  144.6450 C   0  0  0  0  0  3  0  0  0  0  0  0
  195.0760  170.3050  145.2370 C   0  0  0  0  0  3  0  0  0  0  0  0
  192.7560  176.3870  145.1530 C   0  0  1  0  0  3  0  0  0  0  0  0
  194.0370  177.1680  145.3980 C   0  0  0  0  0  1  0  0  0  0  0  0
  192.0340  176.9020  143.9170 C   0  0  0  0  0  2  0  0  0  0  0  0
  190.9150  177.8140  144.3060 C   0  0  0  0  0  0  0  0  0  0  0  0
  190.5190  178.6630  143.5240 O   0  0  0  0  0  0  0  0  0  0  0  0
  190.2360  177.6420  145.6400 C   0  0  0  0  0  2  0  0  0  0  0  0
  189.3490  176.4680  145.7280 N   0  0  0  0  0  0  0  0  0  0  0  0
  190.4630  175.3950  147.6150 C   0  0  0  0  0  2  0  0  0  0  0  0
  189.1820  176.0430  147.1170 C   0  0  0  0  0  3  0  0  0  0  0  0
  189.2890  174.5310  147.2090 C   0  0  0  0  0  2  0  0  0  0  0  0
  187.7880  176.8070  145.0260 S   0  0  0  0  0  0  0  0  0  0  0  0
  186.6960  176.2090  145.8700 O   0  0  0  0  0  0  0  0  0  0  0  0
  187.5840  178.2940  144.9320 O   0  0  0  0  0  0  0  0  0  0  0  0
  187.7090  176.1000  143.3910 C   0  0  0  0  0  3  0  0  0  0  0  0
  189.3170  175.0850  141.6660 C   0  0  0  0  0  2  0  0  0  0  0  0
  187.4420  176.6130  140.9310 C   0  0  0  0  0  2  0  0  0  0  0  0
  188.1000  175.2360  140.7590 C   0  0  0  0  0  2  0  0  0  0  0  0
  187.6110  177.2010  142.3380 C   0  0  0  0  0  2  0  0  0  0  0  0
  188.9220  175.1910  143.1450 C   0  0  0  0  0  2  0  0  0  0  0  0
  191.1660  171.7440  144.1160 C   0  0  0  0  0  2  0  0  0  0  0  0
  189.5840  171.7310  140.6700 C   0  0  0  0  0  3  0  0  0  0  0  0
  190.6980  171.9530  139.8530 C   0  0  0  0  0  0  0  0  0  0  0  0
  192.1120  172.0600  141.8180 C   0  0  0  0  0  3  0  0  0  0  0  0
  189.7340  171.6690  142.0580 C   0  0  0  0  0  3  0  0  0  0  0  0
  190.9990  171.8350  142.6350 C   0  0  0  0  0  0  0  0  0  0  0  0
  191.9620  172.1220  140.4290 C   0  0  0  0  0  3  0  0  0  0  0  0
  190.5340  172.0340  138.3750 C   0  0  0  0  0  2  0  0  0  0  0  0
  189.7540  173.2790  138.0010 C   0  0  0  0  0  1  0  0  0  0  0  0
  196.9290  173.4970  146.1380 C   0  0  0  0  0  2  0  0  0  0  0  0
  197.9180  173.7560  145.0090 C   0  0  0  0  0  2  0  0  0  0  0  0
  197.4400  174.8340  144.1370 C   0  0  0  0  0  0  0  0  0  0  0  0
  197.0460  175.7210  143.4200 C   0  0  0  0  0  3  0  0  0  0  0  0
  1  7  1  0  0  0  0
  2 12  1  0  0  0  0
  2  6  1  0  0  0  0
  3  4  2  0  0  0  0
  3  5  1  0  0  0  0
  4 40  1  0  0  0  0
  7  6  2  0  0  0  0
  7  4  1  0  0  0  0
  8  1  1  0  0  0  0
  8 11  2  0  0  0  0
  9 10  1  0  0  0  0
  9  1  2  0  0  0  0
 10  2  2  0  0  0  0
 11  3  1  0  0  0  0
 12 13  1  6  0  0  0
 14 15  1  0  0  0  0
 14 12  1  0  0  0  0
 15 17  1  0  0  0  0
 16 15  2  0  0  0  0
 17 18  1  0  0  0  0
 18 20  1  0  0  0  0
 20 21  1  0  0  0  0
 20 19  1  0  0  0  0
 21 19  1  0  0  0  0
 22 18  1  0  0  0  0
 22 23  2  0  0  0  0
 24 22  2  0  0  0  0
 25 22  1  0  0  0  0
 26 30  1  0  0  0  0
 27 29  1  0  0  0  0
 28 27  1  0  0  0  0
 28 26  1  0  0  0  0
 29 25  1  0  0  0  0
 30 25  1  0  0  0  0
 31  9  1  0  0  0  0
 32 35  1  0  0  0  0
 33 37  1  0  0  0  0
 33 32  2  0  0  0  0
 34 36  1  0  0  0  0
 35 36  2  0  0  0  0
 36 31  1  0  0  0  0
 37 34  2  0  0  0  0
 38 33  1  0  0  0  0
 39 38  1  0  0  0  0
 41 40  1  0  0  0  0
 42 41  1  0  0  0  0
 43 42  3  0  0  0  0
M  END
>  <MODEL>
8

>  <REMARK>
 VINA RESULT:      -6.3      3.242      8.409
  Name = 
  14 active torsions:
  status: ('A' for Active; 'I' for Inactive)
    1  A    between atoms: C_1  and  C_34
    2  A    between atoms: C_1  and  C_35
    3  A    between atoms: C_2  and  C_6
    4  A    between atoms: C_2  and  C_13
    5  A    between atoms: C_3  and  N_4
    6  A    between atoms: C_3  and  C_12
    7  A    between atoms: N_4  and  S_14
    8  A    between atoms: N_4  and  C_15
    9  A    between atoms: C_5  and  C_18
   10  A    between atoms: C_6  and  C_12
   11  A    between atoms: C_11  and  S_14
   12  A    between atoms: C_18  and  C_24
   13  A    between atoms: C_19  and  C_25
   14  A    between atoms: C_21  and  C_24
                            x       y       z     vdW  Elec       q    Type
                         _______ _______ _______ _____ _____    ______ ____

>  <TORSDO>
F 14

$$$$
=
 OpenBabel11052421083D

 43 47  0  0  1  0  0  0  0  0999 V2000
  187.7410  176.4160  145.8280 C   0  0  0  0  0  0  0  0  0  0  0  0
  188.0200  175.4800  143.1930 C   0  0  0  0  0  0  0  0  0  0  0  0
  185.5950  178.1110  146.4920 C   0  0  0  0  0  0  0  0  0  0  0  0
  185.7280  177.6520  145.1700 C   0  0  0  0  0  0  0  0  0  0  0  0
  184.5420  178.9450  146.8520 O   0  0  0  0  0  1  0  0  0  0  0  0
  186.9620  176.3250  143.5260 C   0  0  0  0  0  3  0  0  0  0  0  0
  186.8050  176.8030  144.8340 C   0  0  0  0  0  0  0  0  0  0  0  0
  187.5830  176.8900  147.1380 C   0  0  0  0  0  3  0  0  0  0  0  0
  188.8080  175.5570  145.4910 C   0  0  0  0  0  0  0  0  0  0  0  0
  188.9360  175.0940  144.1790 C   0  0  0  0  0  3  0  0  0  0  0  0
  186.5210  177.7310  147.4650 C   0  0  0  0  0  3  0  0  0  0  0  0
  188.1180  174.9670  141.7910 C   0  0  1  0  0  3  0  0  0  0  0  0
  187.8060  176.0510  140.7720 C   0  0  0  0  0  1  0  0  0  0  0  0
  189.4870  174.3570  141.5340 C   0  0  0  0  0  2  0  0  0  0  0  0
  189.3650  173.1390  140.6760 C   0  0  0  0  0  0  0  0  0  0  0  0
  188.2660  172.6560  140.4540 O   0  0  0  0  0  0  0  0  0  0  0  0
  190.5930  172.5450  140.0370 C   0  0  0  0  0  2  0  0  0  0  0  0
  190.5290  171.0870  139.8270 N   0  0  0  0  0  0  0  0  0  0  0  0
  189.6800  170.8140  137.5560 C   0  0  0  0  0  2  0  0  0  0  0  0
  190.9020  170.7400  138.4570 C   0  0  0  0  0  3  0  0  0  0  0  0
  190.1850  169.4710  138.0340 C   0  0  0  0  0  2  0  0  0  0  0  0
  191.5670  170.2450  140.9480 S   0  0  0  0  0  0  0  0  0  0  0  0
  190.8090  169.1410  141.6330 O   0  0  0  0  0  0  0  0  0  0  0  0
  192.7420  169.6590  140.2140 O   0  0  0  0  0  0  0  0  0  0  0  0
  192.1600  171.3910  142.1800 C   0  0  0  0  0  3  0  0  0  0  0  0
  193.9410  171.4600  144.0270 C   0  0  0  0  0  2  0  0  0  0  0  0
  191.6550  172.4710  144.4080 C   0  0  0  0  0  2  0  0  0  0  0  0
  193.1720  172.7150  144.4270 C   0  0  0  0  0  2  0  0  0  0  0  0
  191.2170  171.4200  143.3800 C   0  0  0  0  0  2  0  0  0  0  0  0
  193.5930  171.0280  142.5970 C   0  0  0  0  0  2  0  0  0  0  0  0
  189.8360  175.1420  146.5000 C   0  0  0  0  0  2  0  0  0  0  0  0
  193.5820  175.7270  146.4930 C   0  0  0  0  0  3  0  0  0  0  0  0
  193.7500  176.4310  145.2960 C   0  0  0  0  0  0  0  0  0  0  0  0
  191.3690  176.2730  144.8750 C   0  0  0  0  0  3  0  0  0  0  0  0
  192.3090  175.3030  146.8830 C   0  0  0  0  0  3  0  0  0  0  0  0
  191.1990  175.5740  146.0730 C   0  0  0  0  0  0  0  0  0  0  0  0
  192.6420  176.6990  144.4830 C   0  0  0  0  0  3  0  0  0  0  0  0
  195.1080  176.8700  144.8730 C   0  0  0  0  0  2  0  0  0  0  0  0
  195.8960  175.6930  144.3310 C   0  0  0  0  0  1  0  0  0  0  0  0
  184.7240  178.0850  144.1360 C   0  0  0  0  0  2  0  0  0  0  0  0
  185.3410  179.0490  143.1300 C   0  0  0  0  0  2  0  0  0  0  0  0
  185.0320  178.6350  141.7570 C   0  0  0  0  0  0  0  0  0  0  0  0
  184.7770  178.2940  140.6290 C   0  0  0  0  0  3  0  0  0  0  0  0
  1  8  1  0  0  0  0
  2  6  2  0  0  0  0
  2 10  1  0  0  0  0
  3  5  1  0  0  0  0
  3 11  1  0  0  0  0
  4  3  2  0  0  0  0
  6  7  1  0  0  0  0
  7  4  1  0  0  0  0
  7  1  2  0  0  0  0
  8 11  2  0  0  0  0
  9  1  1  0  0  0  0
  9 31  1  0  0  0  0
 10  9  2  0  0  0  0
 12 13  1  6  0  0  0
 12  2  1  0  0  0  0
 14 12  1  0  0  0  0
 15 14  1  0  0  0  0
 16 15  2  0  0  0  0
 17 15  1  0  0  0  0
 18 17  1  0  0  0  0
 18 22  1  0  0  0  0
 19 21  1  0  0  0  0
 19 20  1  0  0  0  0
 20 18  1  0  0  0  0
 21 20  1  0  0  0  0
 22 23  2  0  0  0  0
 22 25  1  0  0  0  0
 24 22  2  0  0  0  0
 25 30  1  0  0  0  0
 25 29  1  0  0  0  0
 26 28  1  0  0  0  0
 27 28  1  0  0  0  0
 29 27  1  0  0  0  0
 30 26  1  0  0  0  0
 32 35  1  0  0  0  0
 33 32  2  0  0  0  0
 34 36  1  0  0  0  0
 36 31  1  0  0  0  0
 36 35  2  0  0  0  0
 37 34  2  0  0  0  0
 37 33  1  0  0  0  0
 38 33  1  0  0  0  0
 39 38  1  0  0  0  0
 40  4  1  0  0  0  0
 41 40  1  0  0  0  0
 42 41  1  0  0  0  0
 43 42  3  0  0  0  0
M  END
>  <MODEL>
9

>  <REMARK>
 VINA RESULT:      -6.2      1.657      2.280
  Name = 
  14 active torsions:
  status: ('A' for Active; 'I' for Inactive)
    1  A    between atoms: C_1  and  C_34
    2  A    between atoms: C_1  and  C_35
    3  A    between atoms: C_2  and  C_6
    4  A    between atoms: C_2  and  C_13
    5  A    between atoms: C_3  and  N_4
    6  A    between atoms: C_3  and  C_12
    7  A    between atoms: N_4  and  S_14
    8  A    between atoms: N_4  and  C_15
    9  A    between atoms: C_5  and  C_18
   10  A    between atoms: C_6  and  C_12
   11  A    between atoms: C_11  and  S_14
   12  A    between atoms: C_18  and  C_24
   13  A    between atoms: C_19  and  C_25
   14  A    between atoms: C_21  and  C_24
                            x       y       z     vdW  Elec       q    Type
                         _______ _______ _______ _____ _____    ______ ____

>  <TORSDO>
F 14

$$$$
