=
 OpenBabel11052421363D

 32 36  0  0  1  0  0  0  0  0999 V2000
  192.6670  173.8960  145.7250 C   0  0  0  0  0  3  0  0  0  0  0  0
  190.0810  177.6620  144.0140 C   0  0  0  0  0  0  0  0  0  0  0  0
  186.1540  176.8500  147.6270 C   0  0  0  0  0  3  0  0  0  0  0  0
  185.4430  177.7160  146.7990 C   0  0  0  0  0  3  0  0  0  0  0  0
  192.5370  176.3110  144.3110 C   0  0  0  0  0  0  0  0  0  0  0  0
  190.1360  176.4870  144.8190 C   0  0  0  0  0  0  0  0  0  0  0  0
  191.4530  174.5720  145.6130 C   0  0  0  0  0  3  0  0  0  0  0  0
  187.3740  176.3280  147.1990 C   0  0  0  0  0  3  0  0  0  0  0  0
  189.1710  176.0890  145.6060 N   0  0  0  0  0  0  0  0  0  0  0  0
  187.9040  176.6630  145.9470 C   0  0  0  0  0  0  0  0  0  0  0  0
  187.6320  177.8100  143.7710 N   0  0  0  0  0  0  0  0  0  0  0  0
  194.8850  176.1390  143.8630 F   0  0  0  0  0  0  0  0  0  0  0  0
  193.7590  175.6290  144.4300 C   0  0  0  0  0  0  0  0  0  0  0  0
  191.3630  175.7820  144.9010 C   0  0  0  0  0  0  0  0  0  0  0  0
  192.4790  177.5240  143.6290 C   0  0  0  0  0  3  0  0  0  0  0  0
  193.8210  174.4230  145.1410 C   0  0  0  0  0  0  0  0  0  0  0  0
  185.9500  178.0400  145.5400 C   0  0  0  0  0  3  0  0  0  0  0  0
  187.1750  177.5080  145.0950 C   0  0  0  0  0  0  0  0  0  0  0  0
  191.2630  178.1780  143.4740 C   0  0  0  0  0  3  0  0  0  0  0  0
  188.9750  178.2530  143.5620 C   0  0  0  0  0  3  0  0  0  0  0  0
  186.2340  177.7280  140.2450 C   0  0  0  0  0  0  0  0  0  0  0  0
  184.9280  177.9410  140.3960 C   0  0  0  0  0  3  0  0  0  0  0  0
  185.2890  178.4110  142.9040 C   0  0  2  0  0  3  0  0  0  0  0  0
  183.1270  178.2480  141.8900 O   0  0  0  0  0  0  0  0  0  0  0  0
  184.3730  178.1810  141.7350 C   0  0  0  0  0  0  0  0  0  0  0  0
  187.1280  177.6620  141.4130 C   0  0  0  0  0  3  0  0  0  0  0  0
  186.7350  177.5020  139.0070 F   0  0  0  0  0  0  0  0  0  0  0  0
  185.3170  179.7640  143.1920 F   0  0  0  0  0  0  0  0  0  0  0  0
  186.7040  177.9130  142.6660 C   0  0  0  0  0  0  0  0  0  0  0  0
  195.1040  173.6700  145.2490 C   0  0  0  0  0  2  0  0  0  0  0  0
  195.9700  174.3370  146.1130 O   0  0  0  0  0  0  0  0  0  0  0  0
  197.1320  173.5670  146.1100 C   0  0  0  0  0  1  0  0  0  0  0  0
  2  6  1  0  0  0  0
  4  3  2  0  0  0  0
  5 13  2  0  0  0  0
  5 14  1  0  0  0  0
  6 14  1  0  0  0  0
  6  9  2  0  0  0  0
  7  1  1  0  0  0  0
  8  3  1  0  0  0  0
  9 10  1  0  0  0  0
 10  8  2  0  0  0  0
 11 18  1  0  0  0  0
 12 13  1  0  0  0  0
 13 16  1  0  0  0  0
 14  7  2  0  0  0  0
 15  5  1  0  0  0  0
 16 30  1  0  0  0  0
 16  1  2  0  0  0  0
 17  4  1  0  0  0  0
 18 17  2  0  0  0  0
 18 10  1  0  0  0  0
 19 15  2  0  0  0  0
 19  2  1  0  0  0  0
 20 11  1  0  0  0  0
 20  2  2  0  0  0  0
 21 22  2  0  0  0  0
 21 26  1  0  0  0  0
 22 25  1  0  0  0  0
 23 28  1  6  0  0  0
 25 24  2  0  0  0  0
 25 23  1  0  0  0  0
 26 29  2  0  0  0  0
 27 21  1  0  0  0  0
 29 23  1  0  0  0  0
 29 11  1  0  0  0  0
 30 31  1  0  0  0  0
 32 31  1  0  0  0  0
M  END
>  <MODEL>
1

>  <REMARK>
 VINA RESULT:      -9.0      0.000      0.000
  Name = 
  3 active torsions:
  status: ('A' for Active; 'I' for Inactive)
    1  A    between atoms: O_1  and  C_10
    2  A    between atoms: C_10  and  C_24
    3  A    between atoms: N_16  and  C_32
                            x       y       z     vdW  Elec       q    Type
                         _______ _______ _______ _____ _____    ______ ____

>  <TORSDO>
F 3

$$$$
=
 OpenBabel11052421363D

 32 36  0  0  1  0  0  0  0  0999 V2000
  186.6190  177.0300  138.5690 C   0  0  0  0  0  3  0  0  0  0  0  0
  188.5010  174.6710  142.4020 C   0  0  0  0  0  0  0  0  0  0  0  0
  185.4280  177.4510  145.8620 C   0  0  0  0  0  3  0  0  0  0  0  0
  186.3060  176.9230  146.8050 C   0  0  0  0  0  3  0  0  0  0  0  0
  187.9530  174.8120  139.6420 C   0  0  0  0  0  0  0  0  0  0  0  0
  187.7370  175.7650  141.9000 C   0  0  0  0  0  0  0  0  0  0  0  0
  186.8550  176.9570  139.9420 C   0  0  0  0  0  3  0  0  0  0  0  0
  185.7210  177.3380  144.5020 C   0  0  0  0  0  3  0  0  0  0  0  0
  187.0890  176.6160  142.6510 N   0  0  0  0  0  0  0  0  0  0  0  0
  186.8860  176.6960  144.0660 C   0  0  0  0  0  0  0  0  0  0  0  0
  189.0380  175.6060  144.6210 N   0  0  0  0  0  0  0  0  0  0  0  0
  188.1160  173.8840  137.4380 F   0  0  0  0  0  0  0  0  0  0  0  0
  187.7090  174.8870  138.2600 C   0  0  0  0  0  0  0  0  0  0  0  0
  187.5300  175.8560  140.5000 C   0  0  0  0  0  0  0  0  0  0  0  0
  188.5940  173.6970  140.1760 C   0  0  0  0  0  3  0  0  0  0  0  0
  187.0390  175.9980  137.7280 C   0  0  0  0  0  0  0  0  0  0  0  0
  187.4810  176.3000  146.3820 C   0  0  0  0  0  3  0  0  0  0  0  0
  187.7910  176.1920  145.0140 C   0  0  0  0  0  0  0  0  0  0  0  0
  188.8740  173.6400  141.5360 C   0  0  0  0  0  3  0  0  0  0  0  0
  189.0650  174.5970  143.6090 C   0  0  0  0  0  3  0  0  0  0  0  0
  191.5710  175.4680  147.4420 C   0  0  0  0  0  0  0  0  0  0  0  0
  192.6480  176.0820  146.9560 C   0  0  0  0  0  3  0  0  0  0  0  0
  191.3220  176.7590  144.8520 C   0  0  2  0  0  3  0  0  0  0  0  0
  193.6760  177.1160  145.1000 O   0  0  0  0  0  0  0  0  0  0  0  0
  192.6190  176.6570  145.6050 C   0  0  0  0  0  0  0  0  0  0  0  0
  190.3630  175.2960  146.6160 C   0  0  0  0  0  3  0  0  0  0  0  0
  191.6090  174.9360  148.6870 F   0  0  0  0  0  0  0  0  0  0  0  0
  190.8750  178.0670  144.9050 F   0  0  0  0  0  0  0  0  0  0  0  0
  190.2440  175.8310  145.3870 C   0  0  0  0  0  0  0  0  0  0  0  0
  186.8010  176.1090  136.2600 C   0  0  0  0  0  2  0  0  0  0  0  0
  185.4400  175.9690  135.9910 O   0  0  0  0  0  0  0  0  0  0  0  0
  185.3060  176.3380  134.6540 C   0  0  0  0  0  1  0  0  0  0  0  0
  1  7  1  0  0  0  0
  2 20  2  0  0  0  0
  3  4  1  0  0  0  0
  5 15  1  0  0  0  0
  5 14  1  0  0  0  0
  6  2  1  0  0  0  0
  6  9  2  0  0  0  0
  7 14  2  0  0  0  0
  8  3  2  0  0  0  0
  9 10  1  0  0  0  0
 10  8  1  0  0  0  0
 10 18  2  0  0  0  0
 11 18  1  0  0  0  0
 11 29  1  0  0  0  0
 12 13  1  0  0  0  0
 13  5  2  0  0  0  0
 14  6  1  0  0  0  0
 15 19  2  0  0  0  0
 16 13  1  0  0  0  0
 16  1  2  0  0  0  0
 17  4  2  0  0  0  0
 18 17  1  0  0  0  0
 19  2  1  0  0  0  0
 20 11  1  0  0  0  0
 21 27  1  0  0  0  0
 22 21  2  0  0  0  0
 23 28  1  1  0  0  0
 23 29  1  0  0  0  0
 23 25  1  0  0  0  0
 24 25  2  0  0  0  0
 25 22  1  0  0  0  0
 26 21  1  0  0  0  0
 29 26  2  0  0  0  0
 30 16  1  0  0  0  0
 31 30  1  0  0  0  0
 32 31  1  0  0  0  0
M  END
>  <MODEL>
2

>  <REMARK>
 VINA RESULT:      -8.7      3.153      7.889
  Name = 
  3 active torsions:
  status: ('A' for Active; 'I' for Inactive)
    1  A    between atoms: O_1  and  C_10
    2  A    between atoms: C_10  and  C_24
    3  A    between atoms: N_16  and  C_32
                            x       y       z     vdW  Elec       q    Type
                         _______ _______ _______ _____ _____    ______ ____

>  <TORSDO>
F 3

$$$$
=
 OpenBabel11052421363D

 32 36  0  0  1  0  0  0  0  0999 V2000
  188.0910  177.6100  143.8000 C   0  0  0  0  0  3  0  0  0  0  0  0
  191.8880  175.3870  145.9060 C   0  0  0  0  0  0  0  0  0  0  0  0
  195.0000  176.1760  141.5660 C   0  0  0  0  0  3  0  0  0  0  0  0
  195.8200  175.2420  142.1930 C   0  0  0  0  0  3  0  0  0  0  0  0
  189.4220  176.7340  146.1050 C   0  0  0  0  0  0  0  0  0  0  0  0
  191.2820  175.9050  144.7250 C   0  0  0  0  0  0  0  0  0  0  0  0
  189.3270  176.9730  143.6910 C   0  0  0  0  0  3  0  0  0  0  0  0
  193.7050  176.3900  142.0400 C   0  0  0  0  0  3  0  0  0  0  0  0
  191.8800  175.9850  143.5650 N   0  0  0  0  0  0  0  0  0  0  0  0
  193.2140  175.6820  143.1450 C   0  0  0  0  0  0  0  0  0  0  0  0
  193.5400  173.9020  144.8330 N   0  0  0  0  0  0  0  0  0  0  0  0
  187.6160  177.5860  147.4320 F   0  0  0  0  0  0  0  0  0  0  0  0
  188.1780  177.3800  146.2110 C   0  0  0  0  0  0  0  0  0  0  0  0
  190.0090  176.5190  144.8340 C   0  0  0  0  0  0  0  0  0  0  0  0
  190.0930  176.3230  147.2530 C   0  0  0  0  0  3  0  0  0  0  0  0
  187.5170  177.8190  145.0560 C   0  0  0  0  0  0  0  0  0  0  0  0
  195.3350  174.5140  143.2800 C   0  0  0  0  0  3  0  0  0  0  0  0
  194.0270  174.7140  143.7580 C   0  0  0  0  0  0  0  0  0  0  0  0
  191.3020  175.6460  147.1490 C   0  0  0  0  0  3  0  0  0  0  0  0
  192.8940  174.5120  145.9530 C   0  0  0  0  0  3  0  0  0  0  0  0
  195.3620  170.7320  145.8430 C   0  0  0  0  0  0  0  0  0  0  0  0
  194.6270  169.7450  145.3350 C   0  0  0  0  0  3  0  0  0  0  0  0
  193.1500  171.4670  144.1120 C   0  0  2  0  0  3  0  0  0  0  0  0
  192.6650  169.1240  144.1790 O   0  0  0  0  0  0  0  0  0  0  0  0
  193.4290  170.0540  144.5440 C   0  0  0  0  0  0  0  0  0  0  0  0
  194.9550  172.1380  145.6800 C   0  0  0  0  0  3  0  0  0  0  0  0
  196.4620  170.4360  146.5770 F   0  0  0  0  0  0  0  0  0  0  0  0
  193.4880  171.6030  142.7780 F   0  0  0  0  0  0  0  0  0  0  0  0
  193.8960  172.5040  144.9340 C   0  0  0  0  0  0  0  0  0  0  0  0
  186.1820  178.4760  145.1480 C   0  0  0  0  0  2  0  0  0  0  0  0
  185.1940  177.5120  145.3390 O   0  0  0  0  0  0  0  0  0  0  0  0
  184.4280  177.9970  146.3980 C   0  0  0  0  0  1  0  0  0  0  0  0
  1 16  1  0  0  0  0
  2 20  2  0  0  0  0
  2 19  1  0  0  0  0
  3  8  2  0  0  0  0
  3  4  1  0  0  0  0
  4 17  2  0  0  0  0
  5 13  1  0  0  0  0
  5 15  1  0  0  0  0
  6 14  1  0  0  0  0
  6  2  1  0  0  0  0
  7  1  2  0  0  0  0
  7 14  1  0  0  0  0
  8 10  1  0  0  0  0
  9  6  2  0  0  0  0
 10  9  1  0  0  0  0
 10 18  2  0  0  0  0
 11 29  1  0  0  0  0
 11 20  1  0  0  0  0
 13 12  1  0  0  0  0
 14  5  2  0  0  0  0
 16 30  1  0  0  0  0
 16 13  2  0  0  0  0
 17 18  1  0  0  0  0
 18 11  1  0  0  0  0
 19 15  2  0  0  0  0
 21 27  1  0  0  0  0
 22 21  2  0  0  0  0
 23 28  1  6  0  0  0
 23 25  1  0  0  0  0
 23 29  1  0  0  0  0
 24 25  2  0  0  0  0
 25 22  1  0  0  0  0
 26 21  1  0  0  0  0
 29 26  2  0  0  0  0
 30 31  1  0  0  0  0
 31 32  1  0  0  0  0
M  END
>  <MODEL>
3

>  <REMARK>
 VINA RESULT:      -8.4      3.173      9.067
  Name = 
  3 active torsions:
  status: ('A' for Active; 'I' for Inactive)
    1  A    between atoms: O_1  and  C_10
    2  A    between atoms: C_10  and  C_24
    3  A    between atoms: N_16  and  C_32
                            x       y       z     vdW  Elec       q    Type
                         _______ _______ _______ _____ _____    ______ ____

>  <TORSDO>
F 3

$$$$
=
 OpenBabel11052421363D

 32 36  0  0  1  0  0  0  0  0999 V2000
  194.0370  176.3770  143.0490 C   0  0  0  0  0  3  0  0  0  0  0  0
  189.7460  175.3360  145.1210 C   0  0  0  0  0  0  0  0  0  0  0  0
  187.0170  177.2260  140.8630 C   0  0  0  0  0  3  0  0  0  0  0  0
  185.9380  177.1670  141.7420 C   0  0  0  0  0  3  0  0  0  0  0  0
  192.5270  174.9330  144.9150 C   0  0  0  0  0  0  0  0  0  0  0  0
  190.4720  176.0120  144.0980 C   0  0  0  0  0  0  0  0  0  0  0  0
  192.6560  176.5610  143.1180 C   0  0  0  0  0  3  0  0  0  0  0  0
  188.3150  177.0610  141.3490 C   0  0  0  0  0  3  0  0  0  0  0  0
  189.9180  176.6590  143.1070 N   0  0  0  0  0  0  0  0  0  0  0  0
  188.5530  176.8320  142.7100 C   0  0  0  0  0  0  0  0  0  0  0  0
  187.6690  176.6620  145.0150 N   0  0  0  0  0  0  0  0  0  0  0  0
  194.5370  173.8660  145.6670 F   0  0  0  0  0  0  0  0  0  0  0  0
  193.9180  174.7480  144.8390 C   0  0  0  0  0  0  0  0  0  0  0  0
  191.8800  175.8520  144.0530 C   0  0  0  0  0  0  0  0  0  0  0  0
  191.7750  174.1960  145.8260 C   0  0  0  0  0  3  0  0  0  0  0  0
  194.6700  175.4700  143.9020 C   0  0  0  0  0  0  0  0  0  0  0  0
  186.1650  176.9610  143.1030 C   0  0  0  0  0  3  0  0  0  0  0  0
  187.4700  176.8050  143.6030 C   0  0  0  0  0  0  0  0  0  0  0  0
  190.4060  174.4090  145.9330 C   0  0  0  0  0  3  0  0  0  0  0  0
  188.5030  175.6150  145.5160 C   0  0  0  0  0  3  0  0  0  0  0  0
  186.6870  178.8230  147.9750 C   0  0  0  0  0  0  0  0  0  0  0  0
  185.3760  179.0100  147.8330 C   0  0  0  0  0  3  0  0  0  0  0  0
  185.3430  177.3450  145.8670 C   0  0  2  0  0  3  0  0  0  0  0  0
  183.4530  178.6640  146.5090 O   0  0  0  0  0  0  0  0  0  0  0  0
  184.6600  178.3790  146.7170 C   0  0  0  0  0  0  0  0  0  0  0  0
  187.4480  178.0410  146.9860 C   0  0  0  0  0  3  0  0  0  0  0  0
  187.3390  179.4150  149.0030 F   0  0  0  0  0  0  0  0  0  0  0  0
  184.8980  176.0900  146.2420 F   0  0  0  0  0  0  0  0  0  0  0  0
  186.8590  177.3960  145.9620 C   0  0  0  0  0  0  0  0  0  0  0  0
  196.1500  175.3090  143.8300 C   0  0  0  0  0  2  0  0  0  0  0  0
  196.7170  176.4310  143.2270 O   0  0  0  0  0  0  0  0  0  0  0  0
  197.8000  175.9320  142.5040 C   0  0  0  0  0  1  0  0  0  0  0  0
  1  7  2  0  0  0  0
  1 16  1  0  0  0  0
  2 20  2  0  0  0  0
  2 19  1  0  0  0  0
  3  8  2  0  0  0  0
  3  4  1  0  0  0  0
  4 17  2  0  0  0  0
  5 15  1  0  0  0  0
  6  2  1  0  0  0  0
  7 14  1  0  0  0  0
  8 10  1  0  0  0  0
  9  6  2  0  0  0  0
 10  9  1  0  0  0  0
 10 18  2  0  0  0  0
 11 20  1  0  0  0  0
 11 29  1  0  0  0  0
 13  5  1  0  0  0  0
 13 12  1  0  0  0  0
 14  6  1  0  0  0  0
 14  5  2  0  0  0  0
 15 19  2  0  0  0  0
 16 13  2  0  0  0  0
 17 18  1  0  0  0  0
 18 11  1  0  0  0  0
 21 27  1  0  0  0  0
 22 21  2  0  0  0  0
 23 29  1  0  0  0  0
 23 28  1  1  0  0  0
 23 25  1  0  0  0  0
 24 25  2  0  0  0  0
 25 22  1  0  0  0  0
 26 21  1  0  0  0  0
 29 26  2  0  0  0  0
 30 16  1  0  0  0  0
 31 30  1  0  0  0  0
 32 31  1  0  0  0  0
M  END
>  <MODEL>
4

>  <REMARK>
 VINA RESULT:      -8.4      2.387      4.402
  Name = 
  3 active torsions:
  status: ('A' for Active; 'I' for Inactive)
    1  A    between atoms: O_1  and  C_10
    2  A    between atoms: C_10  and  C_24
    3  A    between atoms: N_16  and  C_32
                            x       y       z     vdW  Elec       q    Type
                         _______ _______ _______ _____ _____    ______ ____

>  <TORSDO>
F 3

$$$$
=
 OpenBabel11052421363D

 32 36  0  0  1  0  0  0  0  0999 V2000
  188.7630  177.3910  143.6340 C   0  0  0  0  0  3  0  0  0  0  0  0
  192.7320  175.5950  145.8300 C   0  0  0  0  0  0  0  0  0  0  0  0
  195.7200  176.2480  141.3810 C   0  0  0  0  0  3  0  0  0  0  0  0
  196.6110  175.4220  142.0620 C   0  0  0  0  0  3  0  0  0  0  0  0
  190.1830  176.7880  145.9740 C   0  0  0  0  0  0  0  0  0  0  0  0
  192.0750  175.9790  144.6250 C   0  0  0  0  0  0  0  0  0  0  0  0
  190.0380  176.8310  143.5500 C   0  0  0  0  0  3  0  0  0  0  0  0
  194.4210  176.4120  141.8630 C   0  0  0  0  0  3  0  0  0  0  0  0
  192.6490  176.0070  143.4510 N   0  0  0  0  0  0  0  0  0  0  0  0
  193.9950  175.7610  143.0280 C   0  0  0  0  0  0  0  0  0  0  0  0
  194.4640  174.1440  144.8420 N   0  0  0  0  0  0  0  0  0  0  0  0
  188.3440  177.6190  147.2660 F   0  0  0  0  0  0  0  0  0  0  0  0
  188.9010  177.3560  146.0540 C   0  0  0  0  0  0  0  0  0  0  0  0
  190.7650  176.5130  144.7120 C   0  0  0  0  0  0  0  0  0  0  0  0
  190.8970  176.5130  147.1360 C   0  0  0  0  0  3  0  0  0  0  0  0
  188.1940  177.6590  144.8820 C   0  0  0  0  0  0  0  0  0  0  0  0
  196.1910  174.7500  143.2110 C   0  0  0  0  0  3  0  0  0  0  0  0
  194.8800  174.9010  143.6980 C   0  0  0  0  0  0  0  0  0  0  0  0
  192.1480  175.9110  147.0600 C   0  0  0  0  0  3  0  0  0  0  0  0
  193.7950  174.7950  145.9240 C   0  0  0  0  0  3  0  0  0  0  0  0
  194.4080  170.3760  145.2840 C   0  0  0  0  0  0  0  0  0  0  0  0
  195.6910  170.0210  145.2960 C   0  0  0  0  0  3  0  0  0  0  0  0
  196.3870  172.5020  145.3010 C   0  0  2  0  0  3  0  0  0  0  0  0
  197.9410  170.6980  145.0700 O   0  0  0  0  0  0  0  0  0  0  0  0
  196.7390  171.0450  145.1930 C   0  0  0  0  0  0  0  0  0  0  0  0
  194.0170  171.7850  145.1010 C   0  0  0  0  0  3  0  0  0  0  0  0
  193.4500  169.4240  145.3730 F   0  0  0  0  0  0  0  0  0  0  0  0
  196.7300  172.9540  146.5630 F   0  0  0  0  0  0  0  0  0  0  0  0
  194.9160  172.7850  145.0430 C   0  0  0  0  0  0  0  0  0  0  0  0
  186.8200  178.2320  144.9500 C   0  0  0  0  0  2  0  0  0  0  0  0
  185.8770  177.2100  144.8410 O   0  0  0  0  0  0  0  0  0  0  0  0
  185.1250  177.3000  146.0110 C   0  0  0  0  0  1  0  0  0  0  0  0
  1 16  1  0  0  0  0
  2 20  2  0  0  0  0
  2 19  1  0  0  0  0
  3  8  2  0  0  0  0
  3  4  1  0  0  0  0
  4 17  2  0  0  0  0
  5 13  1  0  0  0  0
  5 15  1  0  0  0  0
  6 14  1  0  0  0  0
  6  2  1  0  0  0  0
  7  1  2  0  0  0  0
  7 14  1  0  0  0  0
  8 10  1  0  0  0  0
  9  6  2  0  0  0  0
 10  9  1  0  0  0  0
 10 18  2  0  0  0  0
 11 29  1  0  0  0  0
 11 20  1  0  0  0  0
 13 12  1  0  0  0  0
 14  5  2  0  0  0  0
 16 30  1  0  0  0  0
 16 13  2  0  0  0  0
 17 18  1  0  0  0  0
 18 11  1  0  0  0  0
 19 15  2  0  0  0  0
 21 22  2  0  0  0  0
 21 27  1  0  0  0  0
 23 28  1  1  0  0  0
 24 25  2  0  0  0  0
 25 22  1  0  0  0  0
 25 23  1  0  0  0  0
 26 21  1  0  0  0  0
 29 26  2  0  0  0  0
 29 23  1  0  0  0  0
 31 30  1  0  0  0  0
 31 32  1  0  0  0  0
M  END
>  <MODEL>
5

>  <REMARK>
 VINA RESULT:      -8.3      3.136      9.451
  Name = 
  3 active torsions:
  status: ('A' for Active; 'I' for Inactive)
    1  A    between atoms: O_1  and  C_10
    2  A    between atoms: C_10  and  C_24
    3  A    between atoms: N_16  and  C_32
                            x       y       z     vdW  Elec       q    Type
                         _______ _______ _______ _____ _____    ______ ____

>  <TORSDO>
F 3

$$$$
=
 OpenBabel11052421363D

 32 36  0  0  1  0  0  0  0  0999 V2000
  188.8850  173.6340  137.6190 C   0  0  0  0  0  3  0  0  0  0  0  0
  189.4440  173.1350  142.4390 C   0  0  0  0  0  0  0  0  0  0  0  0
  186.1370  177.2830  143.4420 C   0  0  0  0  0  3  0  0  0  0  0  0
  186.6820  177.1900  144.7210 C   0  0  0  0  0  3  0  0  0  0  0  0
  189.5710  172.0640  139.8360 C   0  0  0  0  0  0  0  0  0  0  0  0
  188.9970  173.9250  141.3400 C   0  0  0  0  0  0  0  0  0  0  0  0
  188.7860  174.1650  138.9050 C   0  0  0  0  0  3  0  0  0  0  0  0
  186.7120  176.5690  142.3910 C   0  0  0  0  0  3  0  0  0  0  0  0
  188.3370  175.0470  141.4600 N   0  0  0  0  0  0  0  0  0  0  0  0
  187.8300  175.7520  142.5990 C   0  0  0  0  0  0  0  0  0  0  0  0
  189.5980  174.9300  144.1240 N   0  0  0  0  0  0  0  0  0  0  0  0
  190.0860  170.2530  138.3540 F   0  0  0  0  0  0  0  0  0  0  0  0
  189.6650  171.5320  138.5390 C   0  0  0  0  0  0  0  0  0  0  0  0
  189.1330  173.3970  140.0310 C   0  0  0  0  0  0  0  0  0  0  0  0
  189.8880  171.2750  140.9380 C   0  0  0  0  0  3  0  0  0  0  0  0
  189.3180  172.3200  137.4330 C   0  0  0  0  0  0  0  0  0  0  0  0
  187.8090  176.3960  144.9360 C   0  0  0  0  0  3  0  0  0  0  0  0
  188.4030  175.6820  143.8790 C   0  0  0  0  0  0  0  0  0  0  0  0
  189.8380  171.8130  142.2180 C   0  0  0  0  0  3  0  0  0  0  0  0
  189.6970  173.5780  143.6720 C   0  0  0  0  0  3  0  0  0  0  0  0
  191.6420  175.4560  147.2760 C   0  0  0  0  0  0  0  0  0  0  0  0
  192.6710  176.2060  146.8880 C   0  0  0  0  0  3  0  0  0  0  0  0
  191.6050  176.4750  144.5570 C   0  0  2  0  0  3  0  0  0  0  0  0
  193.8030  177.2510  145.1000 O   0  0  0  0  0  0  0  0  0  0  0  0
  192.7660  176.6580  145.4940 C   0  0  0  0  0  0  0  0  0  0  0  0
  190.6230  175.0130  146.3090 C   0  0  0  0  0  3  0  0  0  0  0  0
  191.5660  175.0380  148.5630 F   0  0  0  0  0  0  0  0  0  0  0  0
  190.9530  177.6860  144.4090 F   0  0  0  0  0  0  0  0  0  0  0  0
  190.6170  175.4200  145.0260 C   0  0  0  0  0  0  0  0  0  0  0  0
  189.4430  171.7810  136.0480 C   0  0  0  0  0  2  0  0  0  0  0  0
  190.7840  171.7620  135.6690 O   0  0  0  0  0  0  0  0  0  0  0  0
  190.9680  170.5090  135.0870 C   0  0  0  0  0  1  0  0  0  0  0  0
  1  7  1  0  0  0  0
  2 20  2  0  0  0  0
  3  4  1  0  0  0  0
  4 17  2  0  0  0  0
  5 14  1  0  0  0  0
  5 15  1  0  0  0  0
  6  9  2  0  0  0  0
  6  2  1  0  0  0  0
  7 14  2  0  0  0  0
  8 10  1  0  0  0  0
  8  3  2  0  0  0  0
  9 10  1  0  0  0  0
 10 18  2  0  0  0  0
 11 29  1  0  0  0  0
 12 13  1  0  0  0  0
 13  5  2  0  0  0  0
 14  6  1  0  0  0  0
 15 19  2  0  0  0  0
 16  1  2  0  0  0  0
 16 13  1  0  0  0  0
 18 11  1  0  0  0  0
 18 17  1  0  0  0  0
 19  2  1  0  0  0  0
 20 11  1  0  0  0  0
 21 27  1  0  0  0  0
 22 21  2  0  0  0  0
 23 28  1  1  0  0  0
 23 29  1  0  0  0  0
 23 25  1  0  0  0  0
 24 25  2  0  0  0  0
 25 22  1  0  0  0  0
 26 21  1  0  0  0  0
 29 26  2  0  0  0  0
 30 16  1  0  0  0  0
 31 30  1  0  0  0  0
 32 31  1  0  0  0  0
M  END
>  <MODEL>
6

>  <REMARK>
 VINA RESULT:      -8.3      4.979      7.559
  Name = 
  3 active torsions:
  status: ('A' for Active; 'I' for Inactive)
    1  A    between atoms: O_1  and  C_10
    2  A    between atoms: C_10  and  C_24
    3  A    between atoms: N_16  and  C_32
                            x       y       z     vdW  Elec       q    Type
                         _______ _______ _______ _____ _____    ______ ____

>  <TORSDO>
F 3

$$$$
=
 OpenBabel11052421363D

 32 36  0  0  1  0  0  0  0  0999 V2000
  187.8890  176.0420  146.9640 C   0  0  0  0  0  3  0  0  0  0  0  0
  190.4950  175.9280  142.8420 C   0  0  0  0  0  0  0  0  0  0  0  0
  192.1130  170.8650  143.7820 C   0  0  0  0  0  3  0  0  0  0  0  0
  193.0320  171.1500  142.7750 C   0  0  0  0  0  3  0  0  0  0  0  0
  188.4170  177.0290  144.3960 C   0  0  0  0  0  0  0  0  0  0  0  0
  190.1860  175.3430  144.1050 C   0  0  0  0  0  0  0  0  0  0  0  0
  188.8980  175.4670  146.1920 C   0  0  0  0  0  3  0  0  0  0  0  0
  191.3540  171.8940  144.3390 C   0  0  0  0  0  3  0  0  0  0  0  0
  190.6590  174.1980  144.5200 N   0  0  0  0  0  0  0  0  0  0  0  0
  191.4950  173.2160  143.8980 C   0  0  0  0  0  0  0  0  0  0  0  0
  192.6890  174.8600  142.4850 N   0  0  0  0  0  0  0  0  0  0  0  0
  186.6640  178.6360  144.6870 F   0  0  0  0  0  0  0  0  0  0  0  0
  187.3990  177.6020  145.1760 C   0  0  0  0  0  0  0  0  0  0  0  0
  189.1850  175.9520  144.9030 C   0  0  0  0  0  0  0  0  0  0  0  0
  188.6620  177.5040  143.1110 C   0  0  0  0  0  3  0  0  0  0  0  0
  187.1360  177.1040  146.4590 C   0  0  0  0  0  0  0  0  0  0  0  0
  193.1970  172.4660  142.3430 C   0  0  0  0  0  3  0  0  0  0  0  0
  192.4440  173.5130  142.9070 C   0  0  0  0  0  0  0  0  0  0  0  0
  189.6970  176.9670  142.3540 C   0  0  0  0  0  3  0  0  0  0  0  0
  191.5940  175.7050  142.1220 C   0  0  0  0  0  3  0  0  0  0  0  0
  195.8260  175.7340  140.5390 C   0  0  0  0  0  0  0  0  0  0  0  0
  196.6180  176.3290  141.4290 C   0  0  0  0  0  3  0  0  0  0  0  0
  194.9550  175.7480  143.3090 C   0  0  2  0  0  3  0  0  0  0  0  0
  196.8710  177.1460  143.6290 O   0  0  0  0  0  0  0  0  0  0  0  0
  196.1820  176.4670  142.8240 C   0  0  0  0  0  0  0  0  0  0  0  0
  194.4820  175.2660  140.9190 C   0  0  0  0  0  3  0  0  0  0  0  0
  196.2340  175.6160  139.2530 F   0  0  0  0  0  0  0  0  0  0  0  0
  195.3450  174.6380  144.0380 F   0  0  0  0  0  0  0  0  0  0  0  0
  194.0280  175.3180  142.1850 C   0  0  0  0  0  0  0  0  0  0  0  0
  186.0810  177.7220  147.3120 C   0  0  0  0  0  2  0  0  0  0  0  0
  184.8220  177.3040  146.8830 O   0  0  0  0  0  0  0  0  0  0  0  0
  184.1290  178.4850  146.6210 C   0  0  0  0  0  1  0  0  0  0  0  0
  2  6  1  0  0  0  0
  3  8  1  0  0  0  0
  4  3  2  0  0  0  0
  5 14  2  0  0  0  0
  5 13  1  0  0  0  0
  6  9  2  0  0  0  0
  6 14  1  0  0  0  0
  7  1  2  0  0  0  0
 10  8  2  0  0  0  0
 10  9  1  0  0  0  0
 11 18  1  0  0  0  0
 12 13  1  0  0  0  0
 13 16  2  0  0  0  0
 14  7  1  0  0  0  0
 15  5  1  0  0  0  0
 16  1  1  0  0  0  0
 16 30  1  0  0  0  0
 17  4  1  0  0  0  0
 17 18  2  0  0  0  0
 18 10  1  0  0  0  0
 19  2  1  0  0  0  0
 19 15  2  0  0  0  0
 20 11  1  0  0  0  0
 20  2  2  0  0  0  0
 21 26  1  0  0  0  0
 21 22  2  0  0  0  0
 22 25  1  0  0  0  0
 23 28  1  6  0  0  0
 25 23  1  0  0  0  0
 25 24  2  0  0  0  0
 26 29  2  0  0  0  0
 27 21  1  0  0  0  0
 29 11  1  0  0  0  0
 29 23  1  0  0  0  0
 31 30  1  0  0  0  0
 32 31  1  0  0  0  0
M  END
>  <MODEL>
7

>  <REMARK>
 VINA RESULT:      -8.2      2.879      8.253
  Name = 
  3 active torsions:
  status: ('A' for Active; 'I' for Inactive)
    1  A    between atoms: O_1  and  C_10
    2  A    between atoms: C_10  and  C_24
    3  A    between atoms: N_16  and  C_32
                            x       y       z     vdW  Elec       q    Type
                         _______ _______ _______ _____ _____    ______ ____

>  <TORSDO>
F 3

$$$$
=
 OpenBabel11052421363D

 32 36  0  0  1  0  0  0  0  0999 V2000
  190.8360  170.6190  142.3600 C   0  0  0  0  0  3  0  0  0  0  0  0
  189.1580  175.1770  142.8080 C   0  0  0  0  0  0  0  0  0  0  0  0
  191.7770  175.8840  147.4750 C   0  0  0  0  0  3  0  0  0  0  0  0
  190.9460  176.9970  147.5790 C   0  0  0  0  0  3  0  0  0  0  0  0
  189.7560  172.9340  141.2100 C   0  0  0  0  0  0  0  0  0  0  0  0
  189.7950  174.0500  143.4030 C   0  0  0  0  0  0  0  0  0  0  0  0
  190.5750  171.7340  143.1560 C   0  0  0  0  0  3  0  0  0  0  0  0
  191.5350  174.9290  146.4870 C   0  0  0  0  0  3  0  0  0  0  0  0
  190.3140  174.0460  144.6030 N   0  0  0  0  0  0  0  0  0  0  0  0
  190.4690  175.0710  145.5900 C   0  0  0  0  0  0  0  0  0  0  0  0
  188.4540  176.3180  144.8780 N   0  0  0  0  0  0  0  0  0  0  0  0
  189.7660  171.8410  139.0770 F   0  0  0  0  0  0  0  0  0  0  0  0
  190.0250  171.8100  140.4110 C   0  0  0  0  0  0  0  0  0  0  0  0
  190.0260  172.9040  142.6000 C   0  0  0  0  0  0  0  0  0  0  0  0
  189.2440  174.0930  140.6330 C   0  0  0  0  0  3  0  0  0  0  0  0
  190.5680  170.6540  140.9900 C   0  0  0  0  0  0  0  0  0  0  0  0
  189.8670  177.1380  146.7050 C   0  0  0  0  0  3  0  0  0  0  0  0
  189.6090  176.1740  145.7140 C   0  0  0  0  0  0  0  0  0  0  0  0
  188.9370  175.1910  141.4280 C   0  0  0  0  0  3  0  0  0  0  0  0
  188.5770  176.1850  143.4600 C   0  0  0  0  0  3  0  0  0  0  0  0
  185.7790  177.3990  147.3410 C   0  0  0  0  0  0  0  0  0  0  0  0
  184.8390  177.9680  146.5880 C   0  0  0  0  0  3  0  0  0  0  0  0
  186.0880  177.2290  144.4590 C   0  0  2  0  0  3  0  0  0  0  0  0
  184.1740  178.6660  144.4340 O   0  0  0  0  0  0  0  0  0  0  0  0
  184.9950  178.0130  145.1290 C   0  0  0  0  0  0  0  0  0  0  0  0
  187.0120  176.8690  146.7360 C   0  0  0  0  0  3  0  0  0  0  0  0
  185.6300  177.3680  148.6870 F   0  0  0  0  0  0  0  0  0  0  0  0
  185.5400  176.0920  143.8910 F   0  0  0  0  0  0  0  0  0  0  0  0
  187.2100  176.8340  145.4050 C   0  0  0  0  0  0  0  0  0  0  0  0
  190.8280  169.4420  140.1620 C   0  0  0  0  0  2  0  0  0  0  0  0
  192.0970  169.5250  139.5910 O   0  0  0  0  0  0  0  0  0  0  0  0
  191.8820  169.3290  138.2280 C   0  0  0  0  0  1  0  0  0  0  0  0
  1  7  1  0  0  0  0
  2  6  1  0  0  0  0
  2 20  2  0  0  0  0
  3  4  1  0  0  0  0
  5 14  1  0  0  0  0
  6  9  2  0  0  0  0
  8  3  2  0  0  0  0
  9 10  1  0  0  0  0
 10 18  2  0  0  0  0
 10  8  1  0  0  0  0
 11 29  1  0  0  0  0
 11 18  1  0  0  0  0
 12 13  1  0  0  0  0
 13 16  1  0  0  0  0
 13  5  2  0  0  0  0
 14  7  2  0  0  0  0
 14  6  1  0  0  0  0
 15  5  1  0  0  0  0
 15 19  2  0  0  0  0
 16  1  2  0  0  0  0
 17  4  2  0  0  0  0
 18 17  1  0  0  0  0
 19  2  1  0  0  0  0
 20 11  1  0  0  0  0
 21 27  1  0  0  0  0
 22 21  2  0  0  0  0
 23 28  1  1  0  0  0
 23 25  1  0  0  0  0
 23 29  1  0  0  0  0
 24 25  2  0  0  0  0
 25 22  1  0  0  0  0
 26 21  1  0  0  0  0
 29 26  2  0  0  0  0
 30 16  1  0  0  0  0
 31 30  1  0  0  0  0
 32 31  1  0  0  0  0
M  END
>  <MODEL>
8

>  <REMARK>
 VINA RESULT:      -8.2      4.122      5.446
  Name = 
  3 active torsions:
  status: ('A' for Active; 'I' for Inactive)
    1  A    between atoms: O_1  and  C_10
    2  A    between atoms: C_10  and  C_24
    3  A    between atoms: N_16  and  C_32
                            x       y       z     vdW  Elec       q    Type
                         _______ _______ _______ _____ _____    ______ ____

>  <TORSDO>
F 3

$$$$
=
 OpenBabel11052421363D

 32 36  0  0  1  0  0  0  0  0999 V2000
  187.2340  178.2900  141.9040 C   0  0  0  0  0  3  0  0  0  0  0  0
  190.5200  174.9760  143.3260 C   0  0  0  0  0  0  0  0  0  0  0  0
  190.8020  177.1050  148.2790 C   0  0  0  0  0  3  0  0  0  0  0  0
  191.9410  176.3090  148.3730 C   0  0  0  0  0  3  0  0  0  0  0  0
  188.4590  175.7910  141.5850 C   0  0  0  0  0  0  0  0  0  0  0  0
  189.8500  176.2100  143.5710 C   0  0  0  0  0  0  0  0  0  0  0  0
  188.2300  177.8840  142.7930 C   0  0  0  0  0  3  0  0  0  0  0  0
  190.1850  177.2870  147.0410 C   0  0  0  0  0  3  0  0  0  0  0  0
  189.9760  176.9110  144.6670 N   0  0  0  0  0  0  0  0  0  0  0  0
  190.6900  176.6770  145.8860 C   0  0  0  0  0  0  0  0  0  0  0  0
  192.4620  175.3300  144.8040 N   0  0  0  0  0  0  0  0  0  0  0  0
  187.0670  175.3880  139.6760 F   0  0  0  0  0  0  0  0  0  0  0  0
  187.4530  176.2010  140.6950 C   0  0  0  0  0  0  0  0  0  0  0  0
  188.8640  176.6370  142.6460 C   0  0  0  0  0  0  0  0  0  0  0  0
  189.0500  174.5380  141.4390 C   0  0  0  0  0  3  0  0  0  0  0  0
  186.8400  177.4510  140.8590 C   0  0  0  0  0  0  0  0  0  0  0  0
  192.4660  175.7140  147.2250 C   0  0  0  0  0  3  0  0  0  0  0  0
  191.8570  175.9020  145.9710 C   0  0  0  0  0  0  0  0  0  0  0  0
  190.0750  174.1480  142.2920 C   0  0  0  0  0  3  0  0  0  0  0  0
  191.6670  174.5830  143.8810 C   0  0  0  0  0  3  0  0  0  0  0  0
  196.0210  174.0150  144.7800 C   0  0  0  0  0  0  0  0  0  0  0  0
  196.7420  175.0090  144.2640 C   0  0  0  0  0  3  0  0  0  0  0  0
  194.6720  176.5430  144.3030 C   0  0  2  0  0  3  0  0  0  0  0  0
  196.7500  177.1580  143.2880 O   0  0  0  0  0  0  0  0  0  0  0  0
  196.0940  176.2740  143.8970 C   0  0  0  0  0  0  0  0  0  0  0  0
  194.5610  174.1420  144.9290 C   0  0  0  0  0  3  0  0  0  0  0  0
  196.6270  172.8500  145.1100 F   0  0  0  0  0  0  0  0  0  0  0  0
  194.6700  177.4040  145.3860 F   0  0  0  0  0  0  0  0  0  0  0  0
  193.9000  175.2820  144.6560 C   0  0  0  0  0  0  0  0  0  0  0  0
  185.7940  177.9160  139.9050 C   0  0  0  0  0  2  0  0  0  0  0  0
  184.9360  178.8090  140.5440 O   0  0  0  0  0  0  0  0  0  0  0  0
  183.6900  178.1840  140.5130 C   0  0  0  0  0  1  0  0  0  0  0  0
  1  7  1  0  0  0  0
  2  6  1  0  0  0  0
  2 20  2  0  0  0  0
  3  4  1  0  0  0  0
  5 14  1  0  0  0  0
  6  9  2  0  0  0  0
  8  3  2  0  0  0  0
  9 10  1  0  0  0  0
 10 18  2  0  0  0  0
 10  8  1  0  0  0  0
 11 18  1  0  0  0  0
 12 13  1  0  0  0  0
 13 16  1  0  0  0  0
 13  5  2  0  0  0  0
 14  7  2  0  0  0  0
 14  6  1  0  0  0  0
 15  5  1  0  0  0  0
 15 19  2  0  0  0  0
 16  1  2  0  0  0  0
 17  4  2  0  0  0  0
 18 17  1  0  0  0  0
 19  2  1  0  0  0  0
 20 11  1  0  0  0  0
 21 26  1  0  0  0  0
 21 27  1  0  0  0  0
 22 21  2  0  0  0  0
 23 29  1  0  0  0  0
 23 28  1  1  0  0  0
 24 25  2  0  0  0  0
 25 22  1  0  0  0  0
 25 23  1  0  0  0  0
 29 11  1  0  0  0  0
 29 26  2  0  0  0  0
 30 31  1  0  0  0  0
 30 16  1  0  0  0  0
 32 31  1  0  0  0  0
M  END
>  <MODEL>
9

>  <REMARK>
 VINA RESULT:      -8.1      2.446      8.414
  Name = 
  3 active torsions:
  status: ('A' for Active; 'I' for Inactive)
    1  A    between atoms: O_1  and  C_10
    2  A    between atoms: C_10  and  C_24
    3  A    between atoms: N_16  and  C_32
                            x       y       z     vdW  Elec       q    Type
                         _______ _______ _______ _____ _____    ______ ____

>  <TORSDO>
F 3

$$$$
