=
 OpenBabel11052420173D

 34 38  0  0  1  0  0  0  0  0999 V2000
  194.5960  173.9660  143.8550 C   0  0  1  0  0  3  0  0  0  0  0  0
  197.2360  173.7510  142.2560 O   0  0  0  0  0  0  0  0  0  0  0  0
  194.7240  176.7060  144.7400 C   0  0  0  0  0  3  0  0  0  0  0  0
  193.6100  174.5490  144.7810 N   0  0  0  0  0  0  0  0  0  0  0  0
  195.7640  176.1640  144.1180 C   0  0  0  0  0  0  0  0  0  0  0  0
  196.8040  176.8820  143.4640 N   0  0  0  0  0  0  0  0  0  0  0  0
  193.6370  175.7980  145.1680 C   0  0  0  0  0  0  0  0  0  0  0  0
  196.8730  174.7690  142.9010 C   0  0  0  0  0  0  0  0  0  0  0  0
  195.8100  174.7780  143.8410 N   0  0  0  0  0  0  0  0  0  0  0  0
  197.4600  176.0590  142.7460 N   0  0  0  0  0  0  0  0  0  0  0  0
  194.2660  170.2130  143.6320 C   0  0  0  0  0  3  0  0  0  0  0  0
  194.2130  169.7460  145.0480 C   0  0  0  0  0  2  0  0  0  0  0  0
  195.5350  169.8960  145.7230 C   0  0  0  0  0  0  0  0  0  0  0  0
  196.1090  171.0870  145.9020 C   0  0  0  0  0  3  0  0  0  0  0  0
  194.5400  171.4730  143.2960 C   0  0  0  0  0  3  0  0  0  0  0  0
  195.6260  172.3700  145.3540 C   0  0  0  0  0  3  0  0  0  0  0  0
  194.9020  172.5540  144.2410 C   0  0  0  0  0  0  0  0  0  0  0  0
  195.7520  168.4200  147.8580 O   0  0  0  0  0  1  0  0  0  0  0  0
  197.9230  168.8870  146.6130 O   0  0  0  0  0  1  0  0  0  0  0  0
  196.2860  168.4530  146.4330 S   0  0  0  0  0  3  0  0  0  0  0  0
  192.5430  176.3240  146.0410 C   0  0  0  0  0  2  0  0  0  0  0  0
  189.7630  177.6130  143.6810 C   0  0  0  0  0  2  0  0  0  0  0  0
  190.1200  176.3960  146.2520 O   0  0  0  0  0  0  0  0  0  0  0  0
  186.2990  177.8490  145.2350 C   0  0  0  0  0  0  0  0  0  0  0  0
  187.3700  177.9760  144.3360 C   0  0  0  0  0  3  0  0  0  0  0  0
  188.6410  177.5020  144.6700 C   0  0  0  0  0  0  0  0  0  0  0  0
  187.7910  176.7410  146.8100 C   0  0  0  0  0  3  0  0  0  0  0  0
  188.8500  176.8690  145.9090 C   0  0  0  0  0  0  0  0  0  0  0  0
  186.5240  177.2270  146.4760 C   0  0  0  0  0  3  0  0  0  0  0  0
  191.2000  176.3890  145.3170 C   0  0  1  0  0  3  0  0  0  0  0  0
  191.1220  177.5950  144.3790 C   0  0  0  0  0  2  0  0  0  0  0  0
  184.9910  178.3430  144.8910 N   0  0  0  0  0  0  0  0  0  0  0  0
  184.0330  178.7200  145.9190 C   0  0  0  0  0  1  0  0  0  0  0  0
  184.5800  178.4860  143.5030 C   0  0  0  0  0  1  0  0  0  0  0  0
  1 17  1  1  0  0  0
  1  4  1  0  0  0  0
  2  8  2  0  0  0  0
  3  7  1  0  0  0  0
  4  7  2  0  0  0  0
  5  3  2  0  0  0  0
  6  5  1  0  0  0  0
  7 21  1  0  0  0  0
  8  9  1  0  0  0  0
  9  1  1  0  0  0  0
  9  5  1  0  0  0  0
 10  8  1  0  0  0  0
 10  6  2  0  0  0  0
 11 12  1  0  0  0  0
 12 13  1  0  0  0  0
 13 14  2  0  0  0  0
 13 20  1  0  0  0  0
 15 11  2  0  0  0  0
 15 17  1  0  0  0  0
 16 14  1  0  0  0  0
 17 16  2  0  0  0  0
 20 19  1  0  0  0  0
 20 18  1  0  0  0  0
 22 31  1  0  0  0  0
 22 26  1  0  0  0  0
 24 29  1  0  0  0  0
 25 26  1  0  0  0  0
 25 24  2  0  0  0  0
 26 28  2  0  0  0  0
 28 23  1  0  0  0  0
 28 27  1  0  0  0  0
 29 27  2  0  0  0  0
 30 21  1  1  0  0  0
 30 23  1  0  0  0  0
 31 30  1  0  0  0  0
 32 24  1  0  0  0  0
 32 33  1  0  0  0  0
 34 32  1  0  0  0  0
M  END
>  <MODEL>
1

>  <REMARK>
 VINA RESULT:      -8.1      0.000      0.000
  Name = 
  5 active torsions:
  status: ('A' for Active; 'I' for Inactive)
    1  A    between atoms: C_1  and  C_34
    2  A    between atoms: C_7  and  N_11
    3  A    between atoms: C_17  and  C_18
    4  A    between atoms: C_18  and  C_30
    5  A    between atoms: S_24  and  C_25
                            x       y       z     vdW  Elec       q    Type
                         _______ _______ _______ _____ _____    ______ ____

>  <TORSDO>
F 5

$$$$
=
 OpenBabel11052420173D

 34 38  0  0  1  0  0  0  0  0999 V2000
  193.0240  174.1130  144.6310 C   0  0  1  0  0  3  0  0  0  0  0  0
  195.6640  174.6330  143.1030 O   0  0  0  0  0  0  0  0  0  0  0  0
  192.9520  176.4070  146.3760 C   0  0  0  0  0  3  0  0  0  0  0  0
  192.0020  174.2840  145.6780 N   0  0  0  0  0  0  0  0  0  0  0  0
  194.0260  176.1790  145.6300 C   0  0  0  0  0  0  0  0  0  0  0  0
  195.0060  177.1460  145.2700 N   0  0  0  0  0  0  0  0  0  0  0  0
  191.9380  175.3320  146.4580 C   0  0  0  0  0  0  0  0  0  0  0  0
  195.2290  175.3500  144.0420 C   0  0  0  0  0  0  0  0  0  0  0  0
  194.1730  174.9700  144.9100 N   0  0  0  0  0  0  0  0  0  0  0  0
  195.7170  176.6580  144.3340 N   0  0  0  0  0  0  0  0  0  0  0  0
  193.0860  170.6730  143.0840 C   0  0  0  0  0  3  0  0  0  0  0  0
  192.9670  169.7310  144.2340 C   0  0  0  0  0  2  0  0  0  0  0  0
  194.2090  169.7150  145.0600 C   0  0  0  0  0  0  0  0  0  0  0  0
  194.6460  170.8000  145.7030 C   0  0  0  0  0  3  0  0  0  0  0  0
  193.2600  171.9840  143.2380 C   0  0  0  0  0  3  0  0  0  0  0  0
  194.0840  172.1600  145.5850 C   0  0  0  0  0  3  0  0  0  0  0  0
  193.4360  172.6800  144.5340 C   0  0  0  0  0  0  0  0  0  0  0  0
  195.4200  168.1760  146.7770 O   0  0  0  0  0  1  0  0  0  0  0  0
  196.5250  168.3640  144.4900 O   0  0  0  0  0  1  0  0  0  0  0  0
  195.0410  168.1660  145.3020 S   0  0  0  0  0  3  0  0  0  0  0  0
  190.8130  175.4590  147.4340 C   0  0  0  0  0  2  0  0  0  0  0  0
  187.1860  176.5010  146.5860 C   0  0  0  0  0  2  0  0  0  0  0  0
  189.8370  176.5550  145.4930 O   0  0  0  0  0  0  0  0  0  0  0  0
  186.6140  177.5930  142.9860 C   0  0  0  0  0  0  0  0  0  0  0  0
  186.3850  177.2150  144.3200 C   0  0  0  0  0  3  0  0  0  0  0  0
  187.4490  176.8640  145.1540 C   0  0  0  0  0  0  0  0  0  0  0  0
  189.0030  177.2800  143.3410 C   0  0  0  0  0  3  0  0  0  0  0  0
  188.7670  176.9100  144.6660 C   0  0  0  0  0  0  0  0  0  0  0  0
  187.9350  177.6200  142.5070 C   0  0  0  0  0  3  0  0  0  0  0  0
  189.6570  176.2940  146.8870 C   0  0  1  0  0  3  0  0  0  0  0  0
  188.3050  175.6280  147.1510 C   0  0  0  0  0  2  0  0  0  0  0  0
  185.5150  177.9480  142.1270 N   0  0  0  0  0  0  0  0  0  0  0  0
  185.6990  178.1000  140.6910 C   0  0  0  0  0  1  0  0  0  0  0  0
  184.1800  178.1680  142.6610 C   0  0  0  0  0  1  0  0  0  0  0  0
  1 17  1  1  0  0  0
  1  9  1  0  0  0  0
  1  4  1  0  0  0  0
  2  8  2  0  0  0  0
  3  7  1  0  0  0  0
  4  7  2  0  0  0  0
  5  3  2  0  0  0  0
  6  5  1  0  0  0  0
  7 21  1  0  0  0  0
  8 10  1  0  0  0  0
  8  9  1  0  0  0  0
  9  5  1  0  0  0  0
 10  6  2  0  0  0  0
 11 15  2  0  0  0  0
 11 12  1  0  0  0  0
 12 13  1  0  0  0  0
 13 20  1  0  0  0  0
 13 14  2  0  0  0  0
 15 17  1  0  0  0  0
 16 14  1  0  0  0  0
 17 16  2  0  0  0  0
 19 20  1  0  0  0  0
 20 18  1  0  0  0  0
 22 31  1  0  0  0  0
 23 30  1  0  0  0  0
 24 25  1  0  0  0  0
 25 26  2  0  0  0  0
 26 22  1  0  0  0  0
 27 28  2  0  0  0  0
 28 26  1  0  0  0  0
 28 23  1  0  0  0  0
 29 24  2  0  0  0  0
 29 27  1  0  0  0  0
 30 31  1  0  0  0  0
 30 21  1  6  0  0  0
 32 34  1  0  0  0  0
 32 24  1  0  0  0  0
 33 32  1  0  0  0  0
M  END
>  <MODEL>
2

>  <REMARK>
 VINA RESULT:      -7.9      1.585      2.438
  Name = 
  5 active torsions:
  status: ('A' for Active; 'I' for Inactive)
    1  A    between atoms: C_1  and  C_34
    2  A    between atoms: C_7  and  N_11
    3  A    between atoms: C_17  and  C_18
    4  A    between atoms: C_18  and  C_30
    5  A    between atoms: S_24  and  C_25
                            x       y       z     vdW  Elec       q    Type
                         _______ _______ _______ _____ _____    ______ ____

>  <TORSDO>
F 5

$$$$
=
 OpenBabel11052420173D

 34 38  0  0  1  0  0  0  0  0999 V2000
  188.3420  175.5180  143.1630 C   0  0  1  0  0  3  0  0  0  0  0  0
  187.4470  177.0310  140.6160 O   0  0  0  0  0  0  0  0  0  0  0  0
  187.3600  177.2900  145.2140 C   0  0  0  0  0  3  0  0  0  0  0  0
  188.6240  175.3110  144.5940 N   0  0  0  0  0  0  0  0  0  0  0  0
  187.2950  177.6550  143.9390 C   0  0  0  0  0  0  0  0  0  0  0  0
  186.4290  178.6520  143.4070 N   0  0  0  0  0  0  0  0  0  0  0  0
  188.1610  176.0890  145.5390 C   0  0  0  0  0  0  0  0  0  0  0  0
  187.2950  177.4570  141.7910 C   0  0  0  0  0  0  0  0  0  0  0  0
  187.9350  176.9010  142.9280 N   0  0  0  0  0  0  0  0  0  0  0  0
  186.4290  178.5360  142.1380 N   0  0  0  0  0  0  0  0  0  0  0  0
  190.2330  173.5820  140.5340 C   0  0  0  0  0  3  0  0  0  0  0  0
  191.5640  173.3010  141.1450 C   0  0  0  0  0  2  0  0  0  0  0  0
  192.3860  174.5400  141.2590 C   0  0  0  0  0  0  0  0  0  0  0  0
  192.0070  175.5750  142.0130 C   0  0  0  0  0  3  0  0  0  0  0  0
  189.3330  174.3870  141.0980 C   0  0  0  0  0  3  0  0  0  0  0  0
  190.7080  175.7150  142.6990 C   0  0  0  0  0  3  0  0  0  0  0  0
  189.5390  175.1670  142.3400 C   0  0  0  0  0  0  0  0  0  0  0  0
  194.7890  173.5360  141.2540 O   0  0  0  0  0  1  0  0  0  0  0  0
  194.6460  176.0610  140.9590 O   0  0  0  0  0  1  0  0  0  0  0  0
  193.9800  174.5690  140.4810 S   0  0  0  0  0  3  0  0  0  0  0  0
  188.4270  175.7500  146.9700 C   0  0  0  0  0  2  0  0  0  0  0  0
  192.1490  176.6020  147.5840 C   0  0  0  0  0  2  0  0  0  0  0  0
  190.4900  174.6520  146.2930 O   0  0  0  0  0  0  0  0  0  0  0  0
  194.6350  174.5720  145.5400 C   0  0  0  0  0  0  0  0  0  0  0  0
  194.0850  175.5440  146.3920 C   0  0  0  0  0  3  0  0  0  0  0  0
  192.7110  175.5790  146.6410 C   0  0  0  0  0  0  0  0  0  0  0  0
  192.4050  173.6520  145.2010 C   0  0  0  0  0  3  0  0  0  0  0  0
  191.8680  174.6200  146.0530 C   0  0  0  0  0  0  0  0  0  0  0  0
  193.7780  173.6280  144.9470 C   0  0  0  0  0  3  0  0  0  0  0  0
  189.9130  175.5390  147.2520 C   0  0  1  0  0  3  0  0  0  0  0  0
  190.6720  176.8670  147.2990 C   0  0  0  0  0  2  0  0  0  0  0  0
  196.0500  174.5410  145.2810 N   0  0  0  0  0  0  0  0  0  0  0  0
  196.9580  173.7940  146.1390 C   0  0  0  0  0  1  0  0  0  0  0  0
  196.6260  175.2530  144.1510 C   0  0  0  0  0  1  0  0  0  0  0  0
  1 17  1  6  0  0  0
  1  4  1  0  0  0  0
  2  8  2  0  0  0  0
  3  7  1  0  0  0  0
  4  7  2  0  0  0  0
  5  3  2  0  0  0  0
  6  5  1  0  0  0  0
  7 21  1  0  0  0  0
  8 10  1  0  0  0  0
  8  9  1  0  0  0  0
  9  1  1  0  0  0  0
  9  5  1  0  0  0  0
 10  6  2  0  0  0  0
 11 15  2  0  0  0  0
 11 12  1  0  0  0  0
 12 13  1  0  0  0  0
 13 14  2  0  0  0  0
 14 16  1  0  0  0  0
 15 17  1  0  0  0  0
 17 16  2  0  0  0  0
 20 19  1  0  0  0  0
 20 18  1  0  0  0  0
 20 13  1  0  0  0  0
 23 30  1  0  0  0  0
 24 25  1  0  0  0  0
 25 26  2  0  0  0  0
 26 22  1  0  0  0  0
 27 28  2  0  0  0  0
 28 23  1  0  0  0  0
 28 26  1  0  0  0  0
 29 27  1  0  0  0  0
 29 24  2  0  0  0  0
 30 21  1  6  0  0  0
 30 31  1  0  0  0  0
 31 22  1  0  0  0  0
 32 24  1  0  0  0  0
 32 33  1  0  0  0  0
 34 32  1  0  0  0  0
M  END
>  <MODEL>
3

>  <REMARK>
 VINA RESULT:      -7.7      3.339      7.861
  Name = 
  5 active torsions:
  status: ('A' for Active; 'I' for Inactive)
    1  A    between atoms: C_1  and  C_34
    2  A    between atoms: C_7  and  N_11
    3  A    between atoms: C_17  and  C_18
    4  A    between atoms: C_18  and  C_30
    5  A    between atoms: S_24  and  C_25
                            x       y       z     vdW  Elec       q    Type
                         _______ _______ _______ _____ _____    ______ ____

>  <TORSDO>
F 5

$$$$
=
 OpenBabel11052420173D

 34 38  0  0  1  0  0  0  0  0999 V2000
  193.1920  173.1600  143.1420 C   0  0  1  0  0  3  0  0  0  0  0  0
  192.9810  170.1180  142.6190 O   0  0  0  0  0  0  0  0  0  0  0  0
  194.3550  173.1730  145.7800 C   0  0  0  0  0  3  0  0  0  0  0  0
  193.3890  174.3970  143.9170 N   0  0  0  0  0  0  0  0  0  0  0  0
  193.9700  172.0260  145.2340 C   0  0  0  0  0  0  0  0  0  0  0  0
  194.4230  170.7330  145.6180 N   0  0  0  0  0  0  0  0  0  0  0  0
  193.9420  174.4230  145.1030 C   0  0  0  0  0  0  0  0  0  0  0  0
  193.3810  170.6310  143.6960 C   0  0  0  0  0  0  0  0  0  0  0  0
  193.2270  172.0020  144.0300 N   0  0  0  0  0  0  0  0  0  0  0  0
  194.0750  169.9090  144.7110 N   0  0  0  0  0  0  0  0  0  0  0  0
  189.4560  173.5450  142.7850 C   0  0  0  0  0  3  0  0  0  0  0  0
  189.0490  172.4800  141.8230 C   0  0  0  0  0  2  0  0  0  0  0  0
  189.5190  172.7830  140.4400 C   0  0  0  0  0  0  0  0  0  0  0  0
  190.8160  172.8760  140.1370 C   0  0  0  0  0  3  0  0  0  0  0  0
  190.7290  173.8340  143.0480 C   0  0  0  0  0  3  0  0  0  0  0  0
  191.9330  172.8450  141.1010 C   0  0  0  0  0  3  0  0  0  0  0  0
  191.9030  173.2170  142.3880 C   0  0  0  0  0  0  0  0  0  0  0  0
  189.0590  172.3900  137.9070 O   0  0  0  0  0  1  0  0  0  0  0  0
  188.1220  174.5490  138.8780 O   0  0  0  0  0  1  0  0  0  0  0  0
  188.3130  172.8780  139.1410 S   0  0  0  0  0  3  0  0  0  0  0  0
  194.1790  175.7350  145.7780 C   0  0  0  0  0  2  0  0  0  0  0  0
  190.7870  176.1960  147.5770 C   0  0  0  0  0  2  0  0  0  0  0  0
  192.1050  176.8160  145.1070 O   0  0  0  0  0  0  0  0  0  0  0  0
  187.9570  177.4950  145.3910 C   0  0  0  0  0  0  0  0  0  0  0  0
  188.6660  176.9620  146.4800 C   0  0  0  0  0  3  0  0  0  0  0  0
  190.0410  176.7290  146.3900 C   0  0  0  0  0  0  0  0  0  0  0  0
  190.0320  177.5770  144.1180 C   0  0  0  0  0  3  0  0  0  0  0  0
  190.7300  177.0510  145.2070 C   0  0  0  0  0  0  0  0  0  0  0  0
  188.6550  177.7980  144.2090 C   0  0  0  0  0  3  0  0  0  0  0  0
  192.8820  176.4000  146.2320 C   0  0  1  0  0  3  0  0  0  0  0  0
  192.0710  175.4850  147.1520 C   0  0  0  0  0  2  0  0  0  0  0  0
  186.5390  177.7290  145.4840 N   0  0  0  0  0  0  0  0  0  0  0  0
  185.6550  176.7600  146.1150 C   0  0  0  0  0  1  0  0  0  0  0  0
  185.9390  178.9420  144.9530 C   0  0  0  0  0  1  0  0  0  0  0  0
  1 17  1  1  0  0  0
  1  4  1  0  0  0  0
  1  9  1  0  0  0  0
  2  8  2  0  0  0  0
  4  7  2  0  0  0  0
  5  6  1  0  0  0  0
  5  3  2  0  0  0  0
  7 21  1  0  0  0  0
  7  3  1  0  0  0  0
  8  9  1  0  0  0  0
  8 10  1  0  0  0  0
  9  5  1  0  0  0  0
 10  6  2  0  0  0  0
 11 15  2  0  0  0  0
 12 11  1  0  0  0  0
 13 12  1  0  0  0  0
 14 13  2  0  0  0  0
 14 16  1  0  0  0  0
 16 17  2  0  0  0  0
 17 15  1  0  0  0  0
 18 20  1  0  0  0  0
 19 20  1  0  0  0  0
 20 13  1  0  0  0  0
 23 28  1  0  0  0  0
 23 30  1  0  0  0  0
 24 32  1  0  0  0  0
 24 25  1  0  0  0  0
 26 25  2  0  0  0  0
 26 22  1  0  0  0  0
 27 29  1  0  0  0  0
 27 28  2  0  0  0  0
 28 26  1  0  0  0  0
 29 24  2  0  0  0  0
 30 21  1  6  0  0  0
 30 31  1  0  0  0  0
 31 22  1  0  0  0  0
 32 33  1  0  0  0  0
 34 32  1  0  0  0  0
M  END
>  <MODEL>
4

>  <REMARK>
 VINA RESULT:      -7.6      3.982      5.645
  Name = 
  5 active torsions:
  status: ('A' for Active; 'I' for Inactive)
    1  A    between atoms: C_1  and  C_34
    2  A    between atoms: C_7  and  N_11
    3  A    between atoms: C_17  and  C_18
    4  A    between atoms: C_18  and  C_30
    5  A    between atoms: S_24  and  C_25
                            x       y       z     vdW  Elec       q    Type
                         _______ _______ _______ _____ _____    ______ ____

>  <TORSDO>
F 5

$$$$
=
 OpenBabel11052420173D

 34 38  0  0  1  0  0  0  0  0999 V2000
  187.3670  178.3460  144.7650 C   0  0  1  0  0  3  0  0  0  0  0  0
  186.8840  178.2910  147.8210 O   0  0  0  0  0  0  0  0  0  0  0  0
  184.6540  178.4430  143.7940 C   0  0  0  0  0  3  0  0  0  0  0  0
  187.0320  178.2620  143.3330 N   0  0  0  0  0  0  0  0  0  0  0  0
  184.8860  178.2690  145.0890 C   0  0  0  0  0  0  0  0  0  0  0  0
  183.9580  178.5240  146.1380 N   0  0  0  0  0  0  0  0  0  0  0  0
  185.8090  178.3340  142.8740 C   0  0  0  0  0  0  0  0  0  0  0  0
  185.9730  178.2700  146.9530 C   0  0  0  0  0  0  0  0  0  0  0  0
  186.1930  178.0270  145.5730 N   0  0  0  0  0  0  0  0  0  0  0  0
  184.5990  178.5240  147.2390 N   0  0  0  0  0  0  0  0  0  0  0  0
  188.9600  175.2730  146.2680 C   0  0  0  0  0  3  0  0  0  0  0  0
  190.2180  175.7620  146.9010 C   0  0  0  0  0  2  0  0  0  0  0  0
  191.2280  176.1580  145.8770 C   0  0  0  0  0  0  0  0  0  0  0  0
  191.0100  177.1520  145.0140 C   0  0  0  0  0  3  0  0  0  0  0  0
  188.1940  176.0410  145.4940 C   0  0  0  0  0  3  0  0  0  0  0  0
  189.7400  177.8850  144.8420 C   0  0  0  0  0  3  0  0  0  0  0  0
  188.5040  177.4310  145.0890 C   0  0  0  0  0  0  0  0  0  0  0  0
  193.5930  176.0480  144.7910 O   0  0  0  0  0  1  0  0  0  0  0  0
  192.5150  173.8030  145.3190 O   0  0  0  0  0  1  0  0  0  0  0  0
  192.8180  175.3700  145.9120 S   0  0  0  0  0  3  0  0  0  0  0  0
  185.5730  178.3260  141.3980 C   0  0  0  0  0  2  0  0  0  0  0  0
  187.1840  176.1810  138.6130 C   0  0  0  0  0  2  0  0  0  0  0  0
  187.1680  176.4900  141.4640 O   0  0  0  0  0  0  0  0  0  0  0  0
  189.0880  173.1170  139.8250 C   0  0  0  0  0  0  0  0  0  0  0  0
  188.4600  174.0550  138.9880 C   0  0  0  0  0  3  0  0  0  0  0  0
  187.8160  175.1720  139.5260 C   0  0  0  0  0  0  0  0  0  0  0  0
  188.4330  174.4490  141.7570 C   0  0  0  0  0  3  0  0  0  0  0  0
  187.8140  175.3770  140.9170 C   0  0  0  0  0  0  0  0  0  0  0  0
  189.0660  173.3270  141.2150 C   0  0  0  0  0  3  0  0  0  0  0  0
  186.6340  177.5300  140.6420 C   0  0  1  0  0  3  0  0  0  0  0  0
  186.0870  176.9660  139.3290 C   0  0  0  0  0  2  0  0  0  0  0  0
  189.7450  171.9640  139.2680 N   0  0  0  0  0  0  0  0  0  0  0  0
  189.7070  171.6900  137.8400 C   0  0  0  0  0  1  0  0  0  0  0  0
  190.4730  171.0300  140.1130 C   0  0  0  0  0  1  0  0  0  0  0  0
  1 17  1  6  0  0  0
  1  9  1  0  0  0  0
  3  5  2  0  0  0  0
  4  1  1  0  0  0  0
  5  9  1  0  0  0  0
  5  6  1  0  0  0  0
  6 10  2  0  0  0  0
  7  4  2  0  0  0  0
  7  3  1  0  0  0  0
  8 10  1  0  0  0  0
  8  2  2  0  0  0  0
  9  8  1  0  0  0  0
 11 12  1  0  0  0  0
 13 20  1  0  0  0  0
 13 12  1  0  0  0  0
 14 13  2  0  0  0  0
 15 11  2  0  0  0  0
 16 14  1  0  0  0  0
 16 17  2  0  0  0  0
 17 15  1  0  0  0  0
 18 20  1  0  0  0  0
 19 20  1  0  0  0  0
 21  7  1  0  0  0  0
 22 31  1  0  0  0  0
 22 26  1  0  0  0  0
 24 29  1  0  0  0  0
 25 26  1  0  0  0  0
 25 24  2  0  0  0  0
 26 28  2  0  0  0  0
 28 23  1  0  0  0  0
 28 27  1  0  0  0  0
 29 27  2  0  0  0  0
 30 21  1  1  0  0  0
 30 23  1  0  0  0  0
 31 30  1  0  0  0  0
 32 24  1  0  0  0  0
 32 34  1  0  0  0  0
 33 32  1  0  0  0  0
M  END
>  <MODEL>
5

>  <REMARK>
 VINA RESULT:      -7.6      5.098      8.843
  Name = 
  5 active torsions:
  status: ('A' for Active; 'I' for Inactive)
    1  A    between atoms: C_1  and  C_34
    2  A    between atoms: C_7  and  N_11
    3  A    between atoms: C_17  and  C_18
    4  A    between atoms: C_18  and  C_30
    5  A    between atoms: S_24  and  C_25
                            x       y       z     vdW  Elec       q    Type
                         _______ _______ _______ _____ _____    ______ ____

>  <TORSDO>
F 5

$$$$
=
 OpenBabel11052420173D

 34 38  0  0  1  0  0  0  0  0999 V2000
  189.6130  174.8890  146.2170 C   0  0  1  0  0  3  0  0  0  0  0  0
  191.0540  177.1400  147.7770 O   0  0  0  0  0  0  0  0  0  0  0  0
  191.8580  173.5710  144.9780 C   0  0  0  0  0  3  0  0  0  0  0  0
  189.4540  173.7950  145.2440 N   0  0  0  0  0  0  0  0  0  0  0  0
  192.0430  174.7040  145.6450 C   0  0  0  0  0  0  0  0  0  0  0  0
  193.2820  175.1580  146.1790 N   0  0  0  0  0  0  0  0  0  0  0  0
  190.4630  173.1670  144.6950 C   0  0  0  0  0  0  0  0  0  0  0  0
  191.6270  176.3210  147.0120 C   0  0  0  0  0  0  0  0  0  0  0  0
  190.9470  175.4730  146.1010 N   0  0  0  0  0  0  0  0  0  0  0  0
  193.0370  176.1130  146.9840 N   0  0  0  0  0  0  0  0  0  0  0  0
  186.4240  176.7280  147.0470 C   0  0  0  0  0  3  0  0  0  0  0  0
  185.7350  176.9150  145.7380 C   0  0  0  0  0  2  0  0  0  0  0  0
  186.4460  177.9090  144.8820 C   0  0  0  0  0  0  0  0  0  0  0  0
  187.6940  177.7110  144.4530 C   0  0  0  0  0  3  0  0  0  0  0  0
  187.6650  176.2540  147.1500 C   0  0  0  0  0  3  0  0  0  0  0  0
  188.5820  176.6030  144.8580 C   0  0  0  0  0  3  0  0  0  0  0  0
  188.5560  175.9250  146.0130 C   0  0  0  0  0  0  0  0  0  0  0  0
  184.1930  179.2100  145.0030 O   0  0  0  0  0  1  0  0  0  0  0  0
  185.2030  178.9650  142.6800 O   0  0  0  0  0  1  0  0  0  0  0  0
  185.5430  179.3250  144.3080 S   0  0  0  0  0  3  0  0  0  0  0  0
  190.2050  172.0110  143.7840 C   0  0  0  0  0  2  0  0  0  0  0  0
  189.0930  173.0850  140.2390 C   0  0  0  0  0  2  0  0  0  0  0  0
  190.9750  171.3750  141.5650 O   0  0  0  0  0  0  0  0  0  0  0  0
  190.5260  171.0070  137.3920 C   0  0  0  0  0  0  0  0  0  0  0  0
  189.7570  171.9370  138.1110 C   0  0  0  0  0  3  0  0  0  0  0  0
  189.8960  172.0590  139.4950 C   0  0  0  0  0  0  0  0  0  0  0  0
  191.5980  170.3320  139.4720 C   0  0  0  0  0  3  0  0  0  0  0  0
  190.8320  171.2620  140.1780 C   0  0  0  0  0  0  0  0  0  0  0  0
  191.4470  170.2050  138.0890 C   0  0  0  0  0  3  0  0  0  0  0  0
  190.3080  172.3960  142.3100 C   0  0  1  0  0  3  0  0  0  0  0  0
  188.9350  172.7060  141.7100 C   0  0  0  0  0  2  0  0  0  0  0  0
  190.3750  170.8780  135.9660 N   0  0  0  0  0  0  0  0  0  0  0  0
  189.3870  171.6600  135.2380 C   0  0  0  0  0  1  0  0  0  0  0  0
  191.2070  169.9630  135.2000 C   0  0  0  0  0  1  0  0  0  0  0  0
  1 17  1  6  0  0  0
  3  5  2  0  0  0  0
  4  1  1  0  0  0  0
  5  9  1  0  0  0  0
  5  6  1  0  0  0  0
  6 10  2  0  0  0  0
  7  3  1  0  0  0  0
  7  4  2  0  0  0  0
  8  2  2  0  0  0  0
  9  1  1  0  0  0  0
  9  8  1  0  0  0  0
 10  8  1  0  0  0  0
 11 15  2  0  0  0  0
 12 11  1  0  0  0  0
 13 12  1  0  0  0  0
 14 16  1  0  0  0  0
 14 13  2  0  0  0  0
 16 17  2  0  0  0  0
 17 15  1  0  0  0  0
 19 20  1  0  0  0  0
 20 13  1  0  0  0  0
 20 18  1  0  0  0  0
 21  7  1  0  0  0  0
 22 31  1  0  0  0  0
 23 30  1  0  0  0  0
 24 29  2  0  0  0  0
 24 25  1  0  0  0  0
 25 26  2  0  0  0  0
 26 28  1  0  0  0  0
 26 22  1  0  0  0  0
 27 28  2  0  0  0  0
 28 23  1  0  0  0  0
 29 27  1  0  0  0  0
 30 21  1  1  0  0  0
 31 30  1  0  0  0  0
 32 24  1  0  0  0  0
 33 32  1  0  0  0  0
 34 32  1  0  0  0  0
M  END
>  <MODEL>
6

>  <REMARK>
 VINA RESULT:      -7.6      5.538      9.558
  Name = 
  5 active torsions:
  status: ('A' for Active; 'I' for Inactive)
    1  A    between atoms: C_1  and  C_34
    2  A    between atoms: C_7  and  N_11
    3  A    between atoms: C_17  and  C_18
    4  A    between atoms: C_18  and  C_30
    5  A    between atoms: S_24  and  C_25
                            x       y       z     vdW  Elec       q    Type
                         _______ _______ _______ _____ _____    ______ ____

>  <TORSDO>
F 5

$$$$
=
 OpenBabel11052420173D

 34 38  0  0  1  0  0  0  0  0999 V2000
  195.4900  174.9080  143.5840 C   0  0  1  0  0  3  0  0  0  0  0  0
  196.7090  172.0800  143.2720 O   0  0  0  0  0  0  0  0  0  0  0  0
  193.5270  174.4230  145.6390 C   0  0  0  0  0  3  0  0  0  0  0  0
  194.5280  175.9340  144.0220 N   0  0  0  0  0  0  0  0  0  0  0  0
  194.1920  173.4050  145.1080 C   0  0  0  0  0  0  0  0  0  0  0  0
  194.3570  172.1220  145.7040 N   0  0  0  0  0  0  0  0  0  0  0  0
  193.6510  175.7390  144.9730 C   0  0  0  0  0  0  0  0  0  0  0  0
  195.7430  172.3630  144.0280 C   0  0  0  0  0  0  0  0  0  0  0  0
  195.0190  173.5810  143.9740 N   0  0  0  0  0  0  0  0  0  0  0  0
  195.2710  171.5060  145.0670 N   0  0  0  0  0  0  0  0  0  0  0  0
  194.5000  174.5110  139.9650 C   0  0  0  0  0  3  0  0  0  0  0  0
  195.6990  173.9260  139.2990 C   0  0  0  0  0  2  0  0  0  0  0  0
  196.8100  174.9160  139.2030 C   0  0  0  0  0  0  0  0  0  0  0  0
  197.3880  175.4390  140.2870 C   0  0  0  0  0  3  0  0  0  0  0  0
  194.5110  174.9460  141.2240 C   0  0  0  0  0  3  0  0  0  0  0  0
  196.9440  175.2480  141.6810 C   0  0  0  0  0  3  0  0  0  0  0  0
  195.7000  174.9870  142.1070 C   0  0  0  0  0  0  0  0  0  0  0  0
  196.2450  175.6640  136.7730 O   0  0  0  0  0  1  0  0  0  0  0  0
  197.9400  173.7760  136.9820 O   0  0  0  0  0  1  0  0  0  0  0  0
  197.4690  175.2910  137.5990 S   0  0  0  0  0  3  0  0  0  0  0  0
  192.7740  176.8680  145.4100 C   0  0  0  0  0  2  0  0  0  0  0  0
  189.6390  177.7220  143.3130 C   0  0  0  0  0  2  0  0  0  0  0  0
  190.3940  176.7420  145.9000 O   0  0  0  0  0  0  0  0  0  0  0  0
  186.3610  177.7710  145.2440 C   0  0  0  0  0  0  0  0  0  0  0  0
  187.3100  177.9230  144.2190 C   0  0  0  0  0  3  0  0  0  0  0  0
  188.6490  177.5890  144.4320 C   0  0  0  0  0  0  0  0  0  0  0  0
  188.1190  176.9240  146.7030 C   0  0  0  0  0  3  0  0  0  0  0  0
  189.0540  177.0740  145.6770 C   0  0  0  0  0  0  0  0  0  0  0  0
  186.7820  177.2690  146.4890 C   0  0  0  0  0  3  0  0  0  0  0  0
  191.3590  176.7580  144.8460 C   0  0  1  0  0  3  0  0  0  0  0  0
  191.0620  177.8770  143.8460 C   0  0  0  0  0  2  0  0  0  0  0  0
  184.9820  178.1210  145.0240 N   0  0  0  0  0  0  0  0  0  0  0  0
  184.4530  178.2910  143.6800 C   0  0  0  0  0  1  0  0  0  0  0  0
  184.0670  178.3170  146.1380 C   0  0  0  0  0  1  0  0  0  0  0  0
  1 17  1  6  0  0  0
  1  9  1  0  0  0  0
  1  4  1  0  0  0  0
  2  8  2  0  0  0  0
  4  7  2  0  0  0  0
  5  3  2  0  0  0  0
  5  6  1  0  0  0  0
  7 21  1  0  0  0  0
  7  3  1  0  0  0  0
  8 10  1  0  0  0  0
  9  8  1  0  0  0  0
  9  5  1  0  0  0  0
 10  6  2  0  0  0  0
 11 15  2  0  0  0  0
 12 11  1  0  0  0  0
 13 12  1  0  0  0  0
 13 14  2  0  0  0  0
 14 16  1  0  0  0  0
 15 17  1  0  0  0  0
 16 17  2  0  0  0  0
 18 20  1  0  0  0  0
 19 20  1  0  0  0  0
 20 13  1  0  0  0  0
 22 31  1  0  0  0  0
 22 26  1  0  0  0  0
 24 29  1  0  0  0  0
 25 26  1  0  0  0  0
 25 24  2  0  0  0  0
 26 28  2  0  0  0  0
 28 23  1  0  0  0  0
 28 27  1  0  0  0  0
 29 27  2  0  0  0  0
 30 21  1  1  0  0  0
 30 23  1  0  0  0  0
 31 30  1  0  0  0  0
 32 24  1  0  0  0  0
 32 34  1  0  0  0  0
 33 32  1  0  0  0  0
M  END
>  <MODEL>
7

>  <REMARK>
 VINA RESULT:      -7.4      2.918      4.831
  Name = 
  5 active torsions:
  status: ('A' for Active; 'I' for Inactive)
    1  A    between atoms: C_1  and  C_34
    2  A    between atoms: C_7  and  N_11
    3  A    between atoms: C_17  and  C_18
    4  A    between atoms: C_18  and  C_30
    5  A    between atoms: S_24  and  C_25
                            x       y       z     vdW  Elec       q    Type
                         _______ _______ _______ _____ _____    ______ ____

>  <TORSDO>
F 5

$$$$
=
 OpenBabel11052420173D

 34 38  0  0  1  0  0  0  0  0999 V2000
  194.6310  175.0200  143.2680 C   0  0  1  0  0  3  0  0  0  0  0  0
  197.1920  173.4120  142.6130 O   0  0  0  0  0  0  0  0  0  0  0  0
  194.8420  175.2220  146.1360 C   0  0  0  0  0  3  0  0  0  0  0  0
  193.5680  175.6040  144.1040 N   0  0  0  0  0  0  0  0  0  0  0  0
  195.7020  174.4680  145.4620 C   0  0  0  0  0  0  0  0  0  0  0  0
  196.9810  174.0520  145.9290 N   0  0  0  0  0  0  0  0  0  0  0  0
  193.6610  175.7300  145.4020 C   0  0  0  0  0  0  0  0  0  0  0  0
  196.8070  173.6990  143.7760 C   0  0  0  0  0  0  0  0  0  0  0  0
  195.5150  174.1940  144.0870 N   0  0  0  0  0  0  0  0  0  0  0  0
  197.6330  173.5970  144.9340 N   0  0  0  0  0  0  0  0  0  0  0  0
  193.6820  174.3420  139.6790 C   0  0  0  0  0  3  0  0  0  0  0  0
  192.2980  173.7910  139.7440 C   0  0  0  0  0  2  0  0  0  0  0  0
  192.2810  172.4180  140.3270 C   0  0  0  0  0  0  0  0  0  0  0  0
  192.6790  172.1750  141.5780 C   0  0  0  0  0  3  0  0  0  0  0  0
  194.4260  174.5590  140.7630 C   0  0  0  0  0  3  0  0  0  0  0  0
  193.3080  173.1500  142.4900 C   0  0  0  0  0  3  0  0  0  0  0  0
  194.0370  174.2220  142.1520 C   0  0  0  0  0  0  0  0  0  0  0  0
  190.3450  171.7300  138.7270 O   0  0  0  0  0  1  0  0  0  0  0  0
  190.9410  170.0370  140.5320 O   0  0  0  0  0  1  0  0  0  0  0  0
  191.5760  171.1030  139.3670 S   0  0  0  0  0  3  0  0  0  0  0  0
  192.5680  176.4160  146.1580 C   0  0  0  0  0  2  0  0  0  0  0  0
  189.8440  177.8000  143.7870 C   0  0  0  0  0  2  0  0  0  0  0  0
  190.1380  176.3220  146.2270 O   0  0  0  0  0  0  0  0  0  0  0  0
  186.2920  177.6570  145.1430 C   0  0  0  0  0  0  0  0  0  0  0  0
  187.4010  177.9470  144.3300 C   0  0  0  0  0  3  0  0  0  0  0  0
  188.6790  177.5130  144.6880 C   0  0  0  0  0  0  0  0  0  0  0  0
  187.7650  176.4670  146.6750 C   0  0  0  0  0  3  0  0  0  0  0  0
  188.8600  176.7570  145.8600 C   0  0  0  0  0  0  0  0  0  0  0  0
  186.4890  176.9130  146.3190 C   0  0  0  0  0  3  0  0  0  0  0  0
  191.2650  176.4840  145.3640 C   0  0  1  0  0  3  0  0  0  0  0  0
  191.1610  177.7820  144.5610 C   0  0  0  0  0  2  0  0  0  0  0  0
  184.9760  178.1110  144.7750 N   0  0  0  0  0  0  0  0  0  0  0  0
  184.0660  178.6650  145.7660 C   0  0  0  0  0  1  0  0  0  0  0  0
  184.5090  178.0340  143.4000 C   0  0  0  0  0  1  0  0  0  0  0  0
  1 17  1  6  0  0  0
  1  9  1  0  0  0  0
  1  4  1  0  0  0  0
  2  8  2  0  0  0  0
  4  7  2  0  0  0  0
  5  6  1  0  0  0  0
  5  3  2  0  0  0  0
  7  3  1  0  0  0  0
  7 21  1  0  0  0  0
  8  9  1  0  0  0  0
  8 10  1  0  0  0  0
  9  5  1  0  0  0  0
 10  6  2  0  0  0  0
 11 12  1  0  0  0  0
 11 15  2  0  0  0  0
 12 13  1  0  0  0  0
 13 14  2  0  0  0  0
 14 16  1  0  0  0  0
 15 17  1  0  0  0  0
 17 16  2  0  0  0  0
 18 20  1  0  0  0  0
 20 13  1  0  0  0  0
 20 19  1  0  0  0  0
 22 31  1  0  0  0  0
 22 26  1  0  0  0  0
 24 29  1  0  0  0  0
 25 26  1  0  0  0  0
 25 24  2  0  0  0  0
 26 28  2  0  0  0  0
 28 23  1  0  0  0  0
 28 27  1  0  0  0  0
 29 27  2  0  0  0  0
 30 21  1  1  0  0  0
 30 23  1  0  0  0  0
 31 30  1  0  0  0  0
 32 24  1  0  0  0  0
 32 33  1  0  0  0  0
 34 32  1  0  0  0  0
M  END
>  <MODEL>
8

>  <REMARK>
 VINA RESULT:      -7.3      2.994      3.937
  Name = 
  5 active torsions:
  status: ('A' for Active; 'I' for Inactive)
    1  A    between atoms: C_1  and  C_34
    2  A    between atoms: C_7  and  N_11
    3  A    between atoms: C_17  and  C_18
    4  A    between atoms: C_18  and  C_30
    5  A    between atoms: S_24  and  C_25
                            x       y       z     vdW  Elec       q    Type
                         _______ _______ _______ _____ _____    ______ ____

>  <TORSDO>
F 5

$$$$
=
 OpenBabel11052420173D

 34 38  0  0  1  0  0  0  0  0999 V2000
  192.7680  175.2170  143.3260 C   0  0  1  0  0  3  0  0  0  0  0  0
  194.9310  175.8080  141.1940 O   0  0  0  0  0  0  0  0  0  0  0  0
  194.1050  176.1220  145.7140 C   0  0  0  0  0  3  0  0  0  0  0  0
  192.1970  175.0390  144.6720 N   0  0  0  0  0  0  0  0  0  0  0  0
  194.7660  176.0780  144.5640 C   0  0  0  0  0  0  0  0  0  0  0  0
  195.9520  176.8040  144.2620 N   0  0  0  0  0  0  0  0  0  0  0  0
  192.7770  175.4700  145.7630 C   0  0  0  0  0  0  0  0  0  0  0  0
  195.0820  175.9790  142.4320 C   0  0  0  0  0  0  0  0  0  0  0  0
  194.2040  175.4650  143.4200 N   0  0  0  0  0  0  0  0  0  0  0  0
  196.1400  176.7460  143.0040 N   0  0  0  0  0  0  0  0  0  0  0  0
  193.3770  171.7260  142.0320 C   0  0  0  0  0  3  0  0  0  0  0  0
  193.1870  171.8230  140.5560 C   0  0  0  0  0  2  0  0  0  0  0  0
  191.7530  172.0330  140.2010 C   0  0  0  0  0  0  0  0  0  0  0  0
  191.0790  173.1200  140.5860 C   0  0  0  0  0  3  0  0  0  0  0  0
  193.0910  172.7250  142.8650 C   0  0  0  0  0  3  0  0  0  0  0  0
  191.5740  174.1630  141.5060 C   0  0  0  0  0  3  0  0  0  0  0  0
  192.4860  174.0200  142.4780 C   0  0  0  0  0  0  0  0  0  0  0  0
  189.5590  171.4040  138.9460 O   0  0  0  0  0  1  0  0  0  0  0  0
  190.7790  169.4750  140.0750 O   0  0  0  0  0  1  0  0  0  0  0  0
  190.9740  170.8670  139.1140 S   0  0  0  0  0  3  0  0  0  0  0  0
  192.0820  175.3200  147.0780 C   0  0  0  0  0  2  0  0  0  0  0  0
  188.2300  175.6140  147.2590 C   0  0  0  0  0  2  0  0  0  0  0  0
  190.4900  176.7280  145.8910 O   0  0  0  0  0  0  0  0  0  0  0  0
  186.6320  177.6950  144.5040 C   0  0  0  0  0  0  0  0  0  0  0  0
  186.7980  176.8340  145.6020 C   0  0  0  0  0  3  0  0  0  0  0  0
  188.0750  176.5050  146.0620 C   0  0  0  0  0  0  0  0  0  0  0  0
  189.0530  177.9100  144.3450 C   0  0  0  0  0  3  0  0  0  0  0  0
  189.2090  177.0560  145.4390 C   0  0  0  0  0  0  0  0  0  0  0  0
  187.7740  178.2280  143.8810 C   0  0  0  0  0  3  0  0  0  0  0  0
  190.6970  175.9630  147.0810 C   0  0  1  0  0  3  0  0  0  0  0  0
  189.5920  174.9210  147.2630 C   0  0  0  0  0  2  0  0  0  0  0  0
  185.3150  178.0280  144.0280 N   0  0  0  0  0  0  0  0  0  0  0  0
  184.8860  177.6700  142.6840 C   0  0  0  0  0  1  0  0  0  0  0  0
  184.3640  178.7350  144.8720 C   0  0  0  0  0  1  0  0  0  0  0  0
  1 17  1  6  0  0  0
  1  9  1  0  0  0  0
  1  4  1  0  0  0  0
  2  8  2  0  0  0  0
  3  7  1  0  0  0  0
  4  7  2  0  0  0  0
  5  3  2  0  0  0  0
  6  5  1  0  0  0  0
  7 21  1  0  0  0  0
  8 10  1  0  0  0  0
  8  9  1  0  0  0  0
  9  5  1  0  0  0  0
 10  6  2  0  0  0  0
 11 15  2  0  0  0  0
 12 11  1  0  0  0  0
 13 12  1  0  0  0  0
 13 14  2  0  0  0  0
 14 16  1  0  0  0  0
 16 17  2  0  0  0  0
 17 15  1  0  0  0  0
 18 20  1  0  0  0  0
 20 19  1  0  0  0  0
 20 13  1  0  0  0  0
 22 31  1  0  0  0  0
 23 30  1  0  0  0  0
 24 25  1  0  0  0  0
 25 26  2  0  0  0  0
 26 22  1  0  0  0  0
 27 28  2  0  0  0  0
 28 23  1  0  0  0  0
 28 26  1  0  0  0  0
 29 27  1  0  0  0  0
 29 24  2  0  0  0  0
 30 21  1  6  0  0  0
 30 31  1  0  0  0  0
 32 24  1  0  0  0  0
 32 34  1  0  0  0  0
 33 32  1  0  0  0  0
M  END
>  <MODEL>
9

>  <REMARK>
 VINA RESULT:      -7.2      3.394      4.250
  Name = 
  5 active torsions:
  status: ('A' for Active; 'I' for Inactive)
    1  A    between atoms: C_1  and  C_34
    2  A    between atoms: C_7  and  N_11
    3  A    between atoms: C_17  and  C_18
    4  A    between atoms: C_18  and  C_30
    5  A    between atoms: S_24  and  C_25
                            x       y       z     vdW  Elec       q    Type
                         _______ _______ _______ _____ _____    ______ ____

>  <TORSDO>
F 5

$$$$
