=
 OpenBabel11052421283D

 32 36  0  0  1  0  0  0  0  0999 V2000
  186.4190  176.3370  142.7290 C   0  0  1  0  0  3  0  0  0  0  0  0
  191.0090  176.8940  144.2640 C   0  0  0  0  0  2  0  0  0  0  0  0
  190.6270  172.9100  139.6630 C   0  0  0  0  0  2  0  0  0  0  0  0
  192.1070  172.6940  140.0100 C   0  0  0  0  0  2  0  0  0  0  0  0
  189.4180  178.0410  142.8090 O   0  0  0  0  0  0  0  0  0  0  0  0
  188.6150  175.1380  143.2420 C   0  0  0  0  0  2  0  0  0  0  0  0
  187.3130  176.5930  141.5190 C   0  0  0  0  0  2  0  0  0  0  0  0
  189.8090  173.2630  140.9130 C   0  0  0  0  0  2  0  0  0  0  0  0
  190.0220  175.1020  142.7330 C   0  0  0  0  0  0  0  0  0  0  0  0
  190.5110  174.3210  141.7060 C   0  0  0  0  0  0  0  0  0  0  0  0
  192.2090  175.5540  142.4860 N   0  0  0  0  0  0  0  0  0  0  0  0
  187.9290  176.4550  142.8960 C   0  0  1  0  0  0  0  0  0  0  0  0
  188.3740  177.6420  143.5130 O   0  0  0  0  0  0  0  0  0  0  0  0
  192.7430  173.9780  140.5610 C   0  0  0  0  0  2  0  0  0  0  0  0
  191.8560  174.5950  141.6030 C   0  0  0  0  0  0  0  0  0  0  0  0
  190.4610  178.2220  143.7340 C   0  0  0  0  0  2  0  0  0  0  0  0
  191.0940  175.8540  143.1900 C   0  0  0  0  0  0  0  0  0  0  0  0
  184.4840  177.7910  142.1650 C   0  0  0  0  0  1  0  0  0  0  0  0
  185.6750  177.6160  143.0910 C   0  0  1  0  0  3  0  0  0  0  0  0
  185.3350  178.6360  145.3790 C   0  0  0  0  0  0  0  0  0  0  0  0
  185.2190  177.5400  144.4720 N   0  0  0  0  0  2  0  0  0  0  0  0
  185.8430  179.7270  145.0080 O   0  0  0  0  0  0  0  0  0  0  0  0
  184.7580  178.4550  147.0590 S   0  0  0  0  0  1  0  0  0  0  0  0
  193.5390  176.1270  142.6640 C   0  0  0  0  0  2  0  0  0  0  0  0
  196.0310  174.9680  142.1650 O   0  0  0  0  0  1  0  0  0  0  0  0
  196.4280  174.2180  144.4190 C   0  0  2  0  0  3  0  0  0  0  0  0
  194.2800  175.4120  143.7880 C   0  0  2  0  0  3  0  0  0  0  0  0
  194.9350  175.6330  145.9310 C   0  0  0  0  0  2  0  0  0  0  0  0
  195.8090  174.3640  145.8120 C   0  0  0  0  0  2  0  0  0  0  0  0
  197.4930  175.0970  144.3070 F   0  0  0  0  0  0  0  0  0  0  0  0
  194.8000  176.3310  144.7110 O   0  0  0  0  0  0  0  0  0  0  0  0
  195.3930  174.4640  143.3030 C   0  0  1  0  0  3  0  0  0  0  0  0
  1 12  1  0  0  0  0
  1 19  1  1  0  0  0
  3  4  1  0  0  0  0
  3  8  1  0  0  0  0
  4 14  1  0  0  0  0
  5 13  1  0  0  0  0
  5 16  1  0  0  0  0
  7  1  1  0  0  0  0
  8 10  1  0  0  0  0
  9 17  2  0  0  0  0
  9  6  1  0  0  0  0
 10  9  1  0  0  0  0
 11 24  1  0  0  0  0
 11 17  1  0  0  0  0
 12  7  1  6  0  0  0
 12  6  1  0  0  0  0
 12 13  1  0  0  0  0
 14 15  1  0  0  0  0
 15 10  2  0  0  0  0
 15 11  1  0  0  0  0
 16  2  1  0  0  0  0
 17  2  1  0  0  0  0
 19 18  1  6  0  0  0
 19 21  1  0  0  0  0
 20 23  1  0  0  0  0
 21 20  1  0  0  0  0
 22 20  2  0  0  0  0
 26 30  1  1  0  0  0
 26 29  1  0  0  0  0
 27 24  1  6  0  0  0
 27 31  1  0  0  0  0
 29 28  1  0  0  0  0
 31 28  1  0  0  0  0
 32 25  1  6  0  0  0
 32 27  1  0  0  0  0
 32 26  1  0  0  0  0
M  END
>  <MODEL>
1

>  <REMARK>
 VINA RESULT:      -7.4      0.000      0.000
  Name = 
  4 active torsions:
  status: ('A' for Active; 'I' for Inactive)
    1  A    between atoms: C_2  and  C_24
    2  A    between atoms: N_10  and  C_24
    3  A    between atoms: C_11  and  C_27
    4  A    between atoms: N_16  and  C_27
                            x       y       z     vdW  Elec       q    Type
                         _______ _______ _______ _____ _____    ______ ____

>  <TORSDO>
F 4

$$$$
=
 OpenBabel11052421283D

 32 36  0  0  1  0  0  0  0  0999 V2000
  191.2530  175.4490  145.8500 C   0  0  1  0  0  3  0  0  0  0  0  0
  188.2560  177.2220  142.4430 C   0  0  0  0  0  2  0  0  0  0  0  0
  185.9100  177.7930  148.0420 C   0  0  0  0  0  2  0  0  0  0  0  0
  184.6760  178.2420  147.2470 C   0  0  0  0  0  2  0  0  0  0  0  0
  190.2330  177.9360  143.6860 O   0  0  0  0  0  0  0  0  0  0  0  0
  188.8210  175.6370  145.0930 C   0  0  0  0  0  2  0  0  0  0  0  0
  190.8040  176.8470  146.2700 C   0  0  0  0  0  2  0  0  0  0  0  0
  186.7190  176.7450  147.2660 C   0  0  0  0  0  2  0  0  0  0  0  0
  187.7830  176.6970  144.8990 C   0  0  0  0  0  0  0  0  0  0  0  0
  186.9140  177.1900  145.8500 C   0  0  0  0  0  0  0  0  0  0  0  0
  186.5040  178.2730  143.9340 N   0  0  0  0  0  0  0  0  0  0  0  0
  190.2300  176.2150  145.0190 C   0  0  1  0  0  0  0  0  0  0  0  0
  190.7050  176.7060  143.7860 O   0  0  0  0  0  0  0  0  0  0  0  0
  185.0790  178.9320  145.9360 C   0  0  0  0  0  2  0  0  0  0  0  0
  186.1240  178.1270  145.2220 C   0  0  0  0  0  0  0  0  0  0  0  0
  189.5760  177.9980  142.4450 C   0  0  0  0  0  2  0  0  0  0  0  0
  187.5060  177.3890  143.7280 C   0  0  0  0  0  0  0  0  0  0  0  0
  193.6760  175.4140  146.4030 C   0  0  0  0  0  1  0  0  0  0  0  0
  192.6630  175.5210  145.2770 C   0  0  1  0  0  3  0  0  0  0  0  0
  193.5490  174.6030  143.0940 C   0  0  0  0  0  0  0  0  0  0  0  0
  192.8600  174.4290  144.3320 N   0  0  0  0  0  2  0  0  0  0  0  0
  194.0210  175.7250  142.7720 O   0  0  0  0  0  0  0  0  0  0  0  0
  193.7380  173.2130  141.9890 S   0  0  0  0  0  1  0  0  0  0  0  0
  185.9230  179.1830  142.9530 C   0  0  0  0  0  2  0  0  0  0  0  0
  183.1480  179.3900  143.2010 O   0  0  0  0  0  1  0  0  0  0  0  0
  182.6110  178.0090  141.3030 C   0  0  2  0  0  3  0  0  0  0  0  0
  185.0180  178.4230  141.9910 C   0  0  2  0  0  3  0  0  0  0  0  0
  184.6810  177.9900  139.8070 C   0  0  0  0  0  2  0  0  0  0  0  0
  183.3230  177.3250  140.1320 C   0  0  0  0  0  2  0  0  0  0  0  0
  182.0500  179.1940  140.8560 F   0  0  0  0  0  0  0  0  0  0  0  0
  185.0310  179.0110  140.7180 O   0  0  0  0  0  0  0  0  0  0  0  0
  183.5680  178.2640  142.4850 C   0  0  1  0  0  3  0  0  0  0  0  0
  1 19  1  6  0  0  0
  1  7  1  0  0  0  0
  2 16  1  0  0  0  0
  2 17  1  0  0  0  0
  4  3  1  0  0  0  0
  5 13  1  0  0  0  0
  8  3  1  0  0  0  0
  9  6  1  0  0  0  0
  9 10  1  0  0  0  0
 10  8  1  0  0  0  0
 11 15  1  0  0  0  0
 12  6  1  1  0  0  0
 12  1  1  0  0  0  0
 12  7  1  0  0  0  0
 13 12  1  0  0  0  0
 14  4  1  0  0  0  0
 15 10  2  0  0  0  0
 15 14  1  0  0  0  0
 16  5  1  0  0  0  0
 17 11  1  0  0  0  0
 17  9  2  0  0  0  0
 19 18  1  1  0  0  0
 20 21  1  0  0  0  0
 21 19  1  0  0  0  0
 22 20  2  0  0  0  0
 23 20  1  0  0  0  0
 24 11  1  0  0  0  0
 26 30  1  6  0  0  0
 26 32  1  0  0  0  0
 27 32  1  0  0  0  0
 27 24  1  1  0  0  0
 28 29  1  0  0  0  0
 28 31  1  0  0  0  0
 29 26  1  0  0  0  0
 31 27  1  0  0  0  0
 32 25  1  6  0  0  0
M  END
>  <MODEL>
2

>  <REMARK>
 VINA RESULT:      -7.3      4.223      9.180
  Name = 
  4 active torsions:
  status: ('A' for Active; 'I' for Inactive)
    1  A    between atoms: C_2  and  C_24
    2  A    between atoms: N_10  and  C_24
    3  A    between atoms: C_11  and  C_27
    4  A    between atoms: N_16  and  C_27
                            x       y       z     vdW  Elec       q    Type
                         _______ _______ _______ _____ _____    ______ ____

>  <TORSDO>
F 4

$$$$
=
 OpenBabel11052421283D

 32 36  0  0  1  0  0  0  0  0999 V2000
  186.4410  176.8020  141.6240 C   0  0  1  0  0  3  0  0  0  0  0  0
  189.1140  175.2940  145.4070 C   0  0  0  0  0  2  0  0  0  0  0  0
  191.1520  173.0010  140.1370 C   0  0  0  0  0  2  0  0  0  0  0  0
  192.0540  172.1960  141.0830 C   0  0  0  0  0  2  0  0  0  0  0  0
  188.9350  177.2570  143.9660 O   0  0  0  0  0  0  0  0  0  0  0  0
  187.6670  174.8170  142.6630 C   0  0  0  0  0  2  0  0  0  0  0  0
  187.9170  177.0220  141.3010 C   0  0  0  0  0  2  0  0  0  0  0  0
  189.7900  173.2930  140.7820 C   0  0  0  0  0  2  0  0  0  0  0  0
  189.0670  174.4150  143.0080 C   0  0  0  0  0  0  0  0  0  0  0  0
  189.9800  173.7970  142.1790 C   0  0  0  0  0  0  0  0  0  0  0  0
  190.9710  174.1110  144.1620 N   0  0  0  0  0  0  0  0  0  0  0  0
  187.5220  176.3330  142.5910 C   0  0  1  0  0  0  0  0  0  0  0  0
  187.6380  177.0890  143.7750 O   0  0  0  0  0  0  0  0  0  0  0  0
  192.3720  172.9890  142.3590 C   0  0  0  0  0  2  0  0  0  0  0  0
  191.1210  173.5960  142.9230 C   0  0  0  0  0  0  0  0  0  0  0  0
  189.1920  176.8180  145.2750 C   0  0  0  0  0  2  0  0  0  0  0  0
  189.7110  174.5980  144.2240 C   0  0  0  0  0  0  0  0  0  0  0  0
  184.8440  178.5830  140.9510 C   0  0  0  0  0  1  0  0  0  0  0  0
  185.8080  178.1260  142.0320 C   0  0  1  0  0  3  0  0  0  0  0  0
  184.9780  179.0050  144.2520 C   0  0  0  0  0  0  0  0  0  0  0  0
  185.0940  177.9570  143.2900 N   0  0  0  0  0  2  0  0  0  0  0  0
  185.4950  180.1340  144.0400 O   0  0  0  0  0  0  0  0  0  0  0  0
  184.0920  178.7110  145.7740 S   0  0  0  0  0  1  0  0  0  0  0  0
  191.9640  174.1120  145.2300 C   0  0  0  0  0  2  0  0  0  0  0  0
  192.2820  176.4910  146.6610 O   0  0  0  0  0  1  0  0  0  0  0  0
  194.2910  177.2040  145.5400 C   0  0  2  0  0  3  0  0  0  0  0  0
  193.1130  175.0530  144.8890 C   0  0  2  0  0  3  0  0  0  0  0  0
  195.3320  175.1130  144.5090 C   0  0  0  0  0  2  0  0  0  0  0  0
  195.3110  176.6580  144.5370 C   0  0  0  0  0  2  0  0  0  0  0  0
  194.8070  177.0770  146.8190 F   0  0  0  0  0  0  0  0  0  0  0  0
  194.3390  174.5300  145.3260 O   0  0  0  0  0  0  0  0  0  0  0  0
  192.9310  176.4870  145.4220 C   0  0  1  0  0  3  0  0  0  0  0  0
  1 19  1  1  0  0  0
  1 12  1  0  0  0  0
  3  8  1  0  0  0  0
  3  4  1  0  0  0  0
  4 14  1  0  0  0  0
  5 16  1  0  0  0  0
  6  9  1  0  0  0  0
  7  1  1  0  0  0  0
  8 10  1  0  0  0  0
  9 17  2  0  0  0  0
 10 15  2  0  0  0  0
 10  9  1  0  0  0  0
 11 17  1  0  0  0  0
 11 24  1  0  0  0  0
 12  7  1  6  0  0  0
 12  6  1  0  0  0  0
 12 13  1  0  0  0  0
 13  5  1  0  0  0  0
 14 15  1  0  0  0  0
 15 11  1  0  0  0  0
 16  2  1  0  0  0  0
 17  2  1  0  0  0  0
 19 18  1  6  0  0  0
 19 21  1  0  0  0  0
 20 23  1  0  0  0  0
 21 20  1  0  0  0  0
 22 20  2  0  0  0  0
 26 30  1  1  0  0  0
 27 24  1  1  0  0  0
 27 31  1  0  0  0  0
 27 32  1  0  0  0  0
 28 29  1  0  0  0  0
 28 31  1  0  0  0  0
 29 26  1  0  0  0  0
 32 26  1  0  0  0  0
 32 25  1  1  0  0  0
M  END
>  <MODEL>
3

>  <REMARK>
 VINA RESULT:      -7.1      1.756      2.276
  Name = 
  4 active torsions:
  status: ('A' for Active; 'I' for Inactive)
    1  A    between atoms: C_2  and  C_24
    2  A    between atoms: N_10  and  C_24
    3  A    between atoms: C_11  and  C_27
    4  A    between atoms: N_16  and  C_27
                            x       y       z     vdW  Elec       q    Type
                         _______ _______ _______ _____ _____    ______ ____

>  <TORSDO>
F 4

$$$$
=
 OpenBabel11052421283D

 32 36  0  0  1  0  0  0  0  0999 V2000
  192.4190  171.9480  144.0200 C   0  0  1  0  0  3  0  0  0  0  0  0
  188.5800  174.7100  142.8500 C   0  0  0  0  0  2  0  0  0  0  0  0
  191.2820  176.6360  147.9660 C   0  0  0  0  0  2  0  0  0  0  0  0
  190.0580  177.5610  148.0100 C   0  0  0  0  0  2  0  0  0  0  0  0
  190.9300  174.4920  142.2250 O   0  0  0  0  0  0  0  0  0  0  0  0
  190.3880  173.2030  144.9270 C   0  0  0  0  0  2  0  0  0  0  0  0
  192.8370  173.4160  144.0680 C   0  0  0  0  0  2  0  0  0  0  0  0
  190.9360  175.2880  147.3190 C   0  0  0  0  0  2  0  0  0  0  0  0
  189.8940  174.6110  145.0400 C   0  0  0  0  0  0  0  0  0  0  0  0
  190.1700  175.5070  146.0520 C   0  0  0  0  0  0  0  0  0  0  0  0
  188.8430  176.5420  144.5750 N   0  0  0  0  0  0  0  0  0  0  0  0
  191.3930  173.0520  143.7910 C   0  0  1  0  0  0  0  0  0  0  0  0
  190.9480  173.1920  142.4610 O   0  0  0  0  0  0  0  0  0  0  0  0
  189.5690  177.9060  146.5960 C   0  0  0  0  0  2  0  0  0  0  0  0
  189.4860  176.6650  145.7560 C   0  0  0  0  0  0  0  0  0  0  0  0
  189.6400  174.7800  141.7480 C   0  0  0  0  0  2  0  0  0  0  0  0
  189.0760  175.2820  144.1420 C   0  0  0  0  0  0  0  0  0  0  0  0
  194.4110  171.0510  142.8340 C   0  0  0  0  0  1  0  0  0  0  0  0
  192.9200  171.3200  142.7250 C   0  0  1  0  0  3  0  0  0  0  0  0
  191.6770  169.7280  141.2040 C   0  0  0  0  0  0  0  0  0  0  0  0
  192.2100  170.0710  142.4830 N   0  0  0  0  0  2  0  0  0  0  0  0
  191.8080  170.5060  140.2230 O   0  0  0  0  0  0  0  0  0  0  0  0
  190.8120  168.1800  140.9960 S   0  0  0  0  0  1  0  0  0  0  0  0
  188.0310  177.5580  143.9150 C   0  0  0  0  0  2  0  0  0  0  0  0
  185.9530  179.0610  142.8070 O   0  0  0  0  0  1  0  0  0  0  0  0
  184.5130  178.9810  144.7360 C   0  0  2  0  0  3  0  0  0  0  0  0
  186.8030  177.8880  144.7560 C   0  0  2  0  0  3  0  0  0  0  0  0
  185.2660  176.9740  146.1230 C   0  0  0  0  0  2  0  0  0  0  0  0
  184.4400  178.2800  146.0950 C   0  0  0  0  0  2  0  0  0  0  0  0
  183.6920  178.3120  143.8420 F   0  0  0  0  0  0  0  0  0  0  0  0
  185.9980  176.7540  144.9350 O   0  0  0  0  0  0  0  0  0  0  0  0
  185.9600  179.0540  144.2050 C   0  0  1  0  0  3  0  0  0  0  0  0
  1 19  1  6  0  0  0
  1  7  1  0  0  0  0
  2 17  1  0  0  0  0
  3  4  1  0  0  0  0
  5 13  1  0  0  0  0
  6  9  1  0  0  0  0
  8  3  1  0  0  0  0
  9 10  1  0  0  0  0
 10  8  1  0  0  0  0
 11 15  1  0  0  0  0
 12  1  1  0  0  0  0
 12  7  1  1  0  0  0
 12  6  1  0  0  0  0
 13 12  1  0  0  0  0
 14  4  1  0  0  0  0
 15 10  2  0  0  0  0
 15 14  1  0  0  0  0
 16  5  1  0  0  0  0
 16  2  1  0  0  0  0
 17 11  1  0  0  0  0
 17  9  2  0  0  0  0
 19 18  1  1  0  0  0
 20 21  1  0  0  0  0
 21 19  1  0  0  0  0
 22 20  2  0  0  0  0
 23 20  1  0  0  0  0
 24 11  1  0  0  0  0
 26 30  1  6  0  0  0
 26 29  1  0  0  0  0
 27 24  1  6  0  0  0
 27 31  1  0  0  0  0
 29 28  1  0  0  0  0
 31 28  1  0  0  0  0
 32 25  1  6  0  0  0
 32 26  1  0  0  0  0
 32 27  1  0  0  0  0
M  END
>  <MODEL>
4

>  <REMARK>
 VINA RESULT:      -7.0      4.573      8.630
  Name = 
  4 active torsions:
  status: ('A' for Active; 'I' for Inactive)
    1  A    between atoms: C_2  and  C_24
    2  A    between atoms: N_10  and  C_24
    3  A    between atoms: C_11  and  C_27
    4  A    between atoms: N_16  and  C_27
                            x       y       z     vdW  Elec       q    Type
                         _______ _______ _______ _____ _____    ______ ____

>  <TORSDO>
F 4

$$$$
=
 OpenBabel11052421283D

 32 36  0  0  1  0  0  0  0  0999 V2000
  188.3540  177.4580  146.6200 C   0  0  1  0  0  3  0  0  0  0  0  0
  189.9940  176.1690  142.2170 C   0  0  0  0  0  2  0  0  0  0  0  0
  194.2700  175.4990  146.5130 C   0  0  0  0  0  2  0  0  0  0  0  0
  195.1510  175.2120  145.2890 C   0  0  0  0  0  2  0  0  0  0  0  0
  188.6660  175.2050  144.0250 O   0  0  0  0  0  0  0  0  0  0  0  0
  190.3430  177.5410  145.0200 C   0  0  0  0  0  2  0  0  0  0  0  0
  189.0170  176.0860  146.7250 C   0  0  0  0  0  2  0  0  0  0  0  0
  193.1650  176.5100  146.1780 C   0  0  0  0  0  2  0  0  0  0  0  0
  191.3040  176.5950  144.3700 C   0  0  0  0  0  0  0  0  0  0  0  0
  192.4920  176.1300  144.8950 C   0  0  0  0  0  0  0  0  0  0  0  0
  192.2370  175.2020  142.8740 N   0  0  0  0  0  0  0  0  0  0  0  0
  189.0470  176.8390  145.4110 C   0  0  1  0  0  0  0  0  0  0  0  0
  188.1850  176.3780  144.3960 O   0  0  0  0  0  0  0  0  0  0  0  0
  194.3390  174.5640  144.1580 C   0  0  0  0  0  2  0  0  0  0  0  0
  193.0540  175.3080  143.9440 C   0  0  0  0  0  0  0  0  0  0  0  0
  188.8220  175.2750  142.6300 C   0  0  0  0  0  2  0  0  0  0  0  0
  191.1740  175.9990  143.1230 C   0  0  0  0  0  0  0  0  0  0  0  0
  186.3160  177.1650  148.0130 C   0  0  0  0  0  1  0  0  0  0  0  0
  186.8400  177.2890  146.5920 C   0  0  1  0  0  3  0  0  0  0  0  0
  185.3970  178.3220  144.7920 C   0  0  0  0  0  0  0  0  0  0  0  0
  186.2340  178.4430  145.9430 N   0  0  0  0  0  2  0  0  0  0  0  0
  185.1480  177.1930  144.2930 O   0  0  0  0  0  0  0  0  0  0  0  0
  184.7000  179.7890  144.0510 S   0  0  0  0  0  1  0  0  0  0  0  0
  192.4740  174.4070  141.6740 C   0  0  0  0  0  2  0  0  0  0  0  0
  191.0650  173.3520  139.5040 O   0  0  0  0  0  1  0  0  0  0  0  0
  190.4920  171.2620  140.5550 C   0  0  2  0  0  3  0  0  0  0  0  0
  191.8040  173.0440  141.7970 C   0  0  2  0  0  3  0  0  0  0  0  0
  192.1620  170.9210  142.4570 C   0  0  0  0  0  2  0  0  0  0  0  0
  190.8170  170.4830  141.8330 C   0  0  0  0  0  2  0  0  0  0  0  0
  191.2630  170.7630  139.5180 F   0  0  0  0  0  0  0  0  0  0  0  0
  192.7550  172.0130  141.7870 O   0  0  0  0  0  0  0  0  0  0  0  0
  190.7230  172.7770  140.7330 C   0  0  1  0  0  3  0  0  0  0  0  0
  1 19  1  6  0  0  0
  1  7  1  0  0  0  0
  2 16  1  0  0  0  0
  2 17  1  0  0  0  0
  4  3  1  0  0  0  0
  5 13  1  0  0  0  0
  8  3  1  0  0  0  0
  9 10  1  0  0  0  0
  9  6  1  0  0  0  0
 10  8  1  0  0  0  0
 11 17  1  0  0  0  0
 11 15  1  0  0  0  0
 12  6  1  6  0  0  0
 12  1  1  0  0  0  0
 12  7  1  0  0  0  0
 13 12  1  0  0  0  0
 14  4  1  0  0  0  0
 15 14  1  0  0  0  0
 15 10  2  0  0  0  0
 16  5  1  0  0  0  0
 17  9  2  0  0  0  0
 19 18  1  1  0  0  0
 20 21  1  0  0  0  0
 21 19  1  0  0  0  0
 22 20  2  0  0  0  0
 23 20  1  0  0  0  0
 24 11  1  0  0  0  0
 26 30  1  6  0  0  0
 26 32  1  0  0  0  0
 26 29  1  0  0  0  0
 27 24  1  6  0  0  0
 29 28  1  0  0  0  0
 31 27  1  0  0  0  0
 31 28  1  0  0  0  0
 32 25  1  6  0  0  0
 32 27  1  0  0  0  0
M  END
>  <MODEL>
5

>  <REMARK>
 VINA RESULT:      -6.7      2.797      4.801
  Name = 
  4 active torsions:
  status: ('A' for Active; 'I' for Inactive)
    1  A    between atoms: C_2  and  C_24
    2  A    between atoms: N_10  and  C_24
    3  A    between atoms: C_11  and  C_27
    4  A    between atoms: N_16  and  C_27
                            x       y       z     vdW  Elec       q    Type
                         _______ _______ _______ _____ _____    ______ ____

>  <TORSDO>
F 4

$$$$
=
 OpenBabel11052421283D

 32 36  0  0  1  0  0  0  0  0999 V2000
  188.6070  177.1170  145.6820 C   0  0  1  0  0  3  0  0  0  0  0  0
  190.7030  174.6840  142.0180 C   0  0  0  0  0  2  0  0  0  0  0  0
  194.6540  175.8540  146.5130 C   0  0  0  0  0  2  0  0  0  0  0  0
  195.6530  175.2900  145.4930 C   0  0  0  0  0  2  0  0  0  0  0  0
  189.3160  174.2050  143.9700 O   0  0  0  0  0  0  0  0  0  0  0  0
  190.7060  176.8980  144.2440 C   0  0  0  0  0  2  0  0  0  0  0  0
  189.3700  175.9250  146.2560 C   0  0  0  0  0  2  0  0  0  0  0  0
  193.5000  176.5860  145.8140 C   0  0  0  0  0  2  0  0  0  0  0  0
  191.7920  175.9010  143.9830 C   0  0  0  0  0  0  0  0  0  0  0  0
  192.9680  175.7530  144.6900 C   0  0  0  0  0  0  0  0  0  0  0  0
  192.9570  174.2140  143.0650 N   0  0  0  0  0  0  0  0  0  0  0  0
  189.4450  176.2240  144.7730 C   0  0  1  0  0  0  0  0  0  0  0  0
  188.7100  175.3780  143.9180 O   0  0  0  0  0  0  0  0  0  0  0  0
  194.9930  174.2370  144.5920 C   0  0  0  0  0  2  0  0  0  0  0  0
  193.6720  174.7370  144.0840 C   0  0  0  0  0  0  0  0  0  0  0  0
  189.5790  173.8480  142.6360 C   0  0  0  0  0  2  0  0  0  0  0  0
  191.8150  174.9330  142.9890 C   0  0  0  0  0  0  0  0  0  0  0  0
  186.5210  176.9390  147.0210 C   0  0  0  0  0  1  0  0  0  0  0  0
  187.1200  176.7900  145.6330 C   0  0  1  0  0  3  0  0  0  0  0  0
  185.8860  177.2540  143.4750 C   0  0  0  0  0  0  0  0  0  0  0  0
  186.4530  177.6970  144.7090 N   0  0  0  0  0  2  0  0  0  0  0  0
  185.9410  176.0410  143.1410 O   0  0  0  0  0  0  0  0  0  0  0  0
  185.0930  178.4340  142.3950 S   0  0  0  0  0  1  0  0  0  0  0  0
  193.3560  173.1100  142.1980 C   0  0  0  0  0  2  0  0  0  0  0  0
  191.8460  171.1430  140.9120 O   0  0  0  0  0  1  0  0  0  0  0  0
  192.0770  169.4700  142.6300 C   0  0  2  0  0  3  0  0  0  0  0  0
  193.1090  171.7740  142.8890 C   0  0  2  0  0  3  0  0  0  0  0  0
  194.1410  170.1050  143.9920 C   0  0  0  0  0  2  0  0  0  0  0  0
  192.8580  169.2470  143.9290 C   0  0  0  0  0  2  0  0  0  0  0  0
  192.7130  168.7940  141.6020 F   0  0  0  0  0  0  0  0  0  0  0  0
  194.2720  170.9910  142.9000 O   0  0  0  0  0  0  0  0  0  0  0  0
  191.9350  170.9700  142.2980 C   0  0  1  0  0  3  0  0  0  0  0  0
  1 19  1  6  0  0  0
  1  7  1  0  0  0  0
  2 16  1  0  0  0  0
  2 17  1  0  0  0  0
  4  3  1  0  0  0  0
  8  3  1  0  0  0  0
  9  6  1  0  0  0  0
  9 10  1  0  0  0  0
 10  8  1  0  0  0  0
 11 15  1  0  0  0  0
 12  6  1  6  0  0  0
 12  1  1  0  0  0  0
 12  7  1  0  0  0  0
 13  5  1  0  0  0  0
 13 12  1  0  0  0  0
 14  4  1  0  0  0  0
 15 14  1  0  0  0  0
 15 10  2  0  0  0  0
 16  5  1  0  0  0  0
 17 11  1  0  0  0  0
 17  9  2  0  0  0  0
 19 18  1  1  0  0  0
 20 21  1  0  0  0  0
 21 19  1  0  0  0  0
 22 20  2  0  0  0  0
 23 20  1  0  0  0  0
 24 11  1  0  0  0  0
 26 30  1  6  0  0  0
 26 29  1  0  0  0  0
 27 24  1  6  0  0  0
 27 31  1  0  0  0  0
 29 28  1  0  0  0  0
 31 28  1  0  0  0  0
 32 25  1  6  0  0  0
 32 26  1  0  0  0  0
 32 27  1  0  0  0  0
M  END
>  <MODEL>
6

>  <REMARK>
 VINA RESULT:      -6.5      3.119      4.754
  Name = 
  4 active torsions:
  status: ('A' for Active; 'I' for Inactive)
    1  A    between atoms: C_2  and  C_24
    2  A    between atoms: N_10  and  C_24
    3  A    between atoms: C_11  and  C_27
    4  A    between atoms: N_16  and  C_27
                            x       y       z     vdW  Elec       q    Type
                         _______ _______ _______ _____ _____    ______ ____

>  <TORSDO>
F 4

$$$$
=
 OpenBabel11052421283D

 32 36  0  0  1  0  0  0  0  0999 V2000
  188.2260  176.1070  143.9630 C   0  0  1  0  0  3  0  0  0  0  0  0
  192.3780  175.4710  146.4320 C   0  0  0  0  0  2  0  0  0  0  0  0
  191.3290  170.8900  142.5450 C   0  0  0  0  0  2  0  0  0  0  0  0
  192.5470  170.2880  143.2610 C   0  0  0  0  0  2  0  0  0  0  0  0
  191.5840  176.7100  144.4830 O   0  0  0  0  0  0  0  0  0  0  0  0
  189.7120  174.4080  145.1590 C   0  0  0  0  0  2  0  0  0  0  0  0
  189.3410  175.7740  142.9730 C   0  0  0  0  0  2  0  0  0  0  0  0
  190.5030  171.7660  143.4970 C   0  0  0  0  0  2  0  0  0  0  0  0
  191.0710  173.7990  145.0070 C   0  0  0  0  0  0  0  0  0  0  0  0
  191.4020  172.6880  144.2590 C   0  0  0  0  0  0  0  0  0  0  0  0
  193.2800  173.4440  145.2170 N   0  0  0  0  0  0  0  0  0  0  0  0
  189.6250  175.7610  144.4610 C   0  0  1  0  0  0  0  0  0  0  0  0
  190.3650  176.8450  144.9740 O   0  0  0  0  0  0  0  0  0  0  0  0
  193.5090  171.3840  143.7400 C   0  0  0  0  0  2  0  0  0  0  0  0
  192.7520  172.4780  144.4340 C   0  0  0  0  0  0  0  0  0  0  0  0
  192.4520  176.7460  145.5870 C   0  0  0  0  0  2  0  0  0  0  0  0
  192.2530  174.2440  145.5820 C   0  0  0  0  0  0  0  0  0  0  0  0
  187.8030  178.0690  142.4980 C   0  0  0  0  0  1  0  0  0  0  0  0
  187.9560  177.6060  143.9360 C   0  0  1  0  0  3  0  0  0  0  0  0
  186.6970  177.9210  146.1060 C   0  0  0  0  0  0  0  0  0  0  0  0
  186.7360  177.8930  144.6790 N   0  0  0  0  0  2  0  0  0  0  0  0
  187.7350  177.6980  146.7830 O   0  0  0  0  0  0  0  0  0  0  0  0
  185.1570  178.2730  146.9380 S   0  0  0  0  0  1  0  0  0  0  0  0
  194.6770  173.5760  145.6130 C   0  0  0  0  0  2  0  0  0  0  0  0
  197.3160  173.2420  144.7590 O   0  0  0  0  0  1  0  0  0  0  0  0
  197.4690  175.3240  143.5580 C   0  0  2  0  0  3  0  0  0  0  0  0
  195.3580  174.6770  144.8070 C   0  0  2  0  0  3  0  0  0  0  0  0
  195.0750  176.0430  143.0400 C   0  0  0  0  0  2  0  0  0  0  0  0
  196.5580  176.4710  143.1130 C   0  0  0  0  0  2  0  0  0  0  0  0
  197.6560  174.4600  142.4910 F   0  0  0  0  0  0  0  0  0  0  0  0
  194.8540  174.7260  143.4990 O   0  0  0  0  0  0  0  0  0  0  0  0
  196.8950  174.5750  144.7780 C   0  0  1  0  0  3  0  0  0  0  0  0
  1 19  1  6  0  0  0
  1 12  1  0  0  0  0
  3  4  1  0  0  0  0
  3  8  1  0  0  0  0
  4 14  1  0  0  0  0
  5 13  1  0  0  0  0
  5 16  1  0  0  0  0
  7  1  1  0  0  0  0
  8 10  1  0  0  0  0
  9  6  1  0  0  0  0
  9 17  2  0  0  0  0
 10 15  2  0  0  0  0
 10  9  1  0  0  0  0
 11 17  1  0  0  0  0
 11 24  1  0  0  0  0
 12  7  1  6  0  0  0
 12 13  1  0  0  0  0
 12  6  1  0  0  0  0
 14 15  1  0  0  0  0
 15 11  1  0  0  0  0
 16  2  1  0  0  0  0
 17  2  1  0  0  0  0
 19 18  1  6  0  0  0
 19 21  1  0  0  0  0
 20 22  2  0  0  0  0
 20 23  1  0  0  0  0
 21 20  1  0  0  0  0
 26 30  1  6  0  0  0
 26 32  1  0  0  0  0
 27 24  1  6  0  0  0
 28 29  1  0  0  0  0
 28 31  1  0  0  0  0
 29 26  1  0  0  0  0
 31 27  1  0  0  0  0
 32 25  1  6  0  0  0
 32 27  1  0  0  0  0
M  END
>  <MODEL>
7

>  <REMARK>
 VINA RESULT:      -6.5      2.444      2.892
  Name = 
  4 active torsions:
  status: ('A' for Active; 'I' for Inactive)
    1  A    between atoms: C_2  and  C_24
    2  A    between atoms: N_10  and  C_24
    3  A    between atoms: C_11  and  C_27
    4  A    between atoms: N_16  and  C_27
                            x       y       z     vdW  Elec       q    Type
                         _______ _______ _______ _____ _____    ______ ____

>  <TORSDO>
F 4

$$$$
=
 OpenBabel11052421283D

 32 36  0  0  1  0  0  0  0  0999 V2000
  188.5130  177.1460  146.0880 C   0  0  1  0  0  3  0  0  0  0  0  0
  190.4430  175.2120  142.0540 C   0  0  0  0  0  2  0  0  0  0  0  0
  194.5690  175.7350  146.5130 C   0  0  0  0  0  2  0  0  0  0  0  0
  195.5230  175.3050  145.3900 C   0  0  0  0  0  2  0  0  0  0  0  0
  189.1210  174.4860  143.9750 O   0  0  0  0  0  0  0  0  0  0  0  0
  190.5550  177.1060  144.5550 C   0  0  0  0  0  2  0  0  0  0  0  0
  189.2810  175.8820  146.4680 C   0  0  0  0  0  2  0  0  0  0  0  0
  193.4000  176.5640  145.9630 C   0  0  0  0  0  2  0  0  0  0  0  0
  191.6180  176.1450  144.1230 C   0  0  0  0  0  0  0  0  0  0  0  0
  192.8170  175.8940  144.7580 C   0  0  0  0  0  0  0  0  0  0  0  0
  192.7270  174.5870  142.9430 N   0  0  0  0  0  0  0  0  0  0  0  0
  189.3060  176.3780  145.0370 C   0  0  1  0  0  0  0  0  0  0  0  0
  188.5290  175.6600  144.1050 O   0  0  0  0  0  0  0  0  0  0  0  0
  194.8160  174.3880  144.3810 C   0  0  0  0  0  2  0  0  0  0  0  0
  193.4850  174.9630  143.9950 C   0  0  0  0  0  0  0  0  0  0  0  0
  189.3310  174.3090  142.5970 C   0  0  0  0  0  2  0  0  0  0  0  0
  191.5920  175.3190  143.0080 C   0  0  0  0  0  0  0  0  0  0  0  0
  186.4760  176.7980  147.4690 C   0  0  0  0  0  1  0  0  0  0  0  0
  187.0200  176.8410  146.0520 C   0  0  1  0  0  3  0  0  0  0  0  0
  185.6240  177.5910  144.0830 C   0  0  0  0  0  0  0  0  0  0  0  0
  186.3310  177.8740  145.2900 N   0  0  0  0  0  2  0  0  0  0  0  0
  185.5680  176.4180  143.6290 O   0  0  0  0  0  0  0  0  0  0  0  0
  184.8130  178.9180  143.2050 S   0  0  0  0  0  1  0  0  0  0  0  0
  193.0800  173.6070  141.9220 C   0  0  0  0  0  2  0  0  0  0  0  0
  195.7690  173.8370  141.1990 O   0  0  0  0  0  1  0  0  0  0  0  0
  195.3800  174.9250  139.0850 C   0  0  2  0  0  3  0  0  0  0  0  0
  193.4570  174.3050  140.6200 C   0  0  2  0  0  3  0  0  0  0  0  0
  192.9720  174.3910  138.4230 C   0  0  0  0  0  2  0  0  0  0  0  0
  194.2070  175.2850  138.1690 C   0  0  0  0  0  2  0  0  0  0  0  0
  195.9810  173.7700  138.6110 F   0  0  0  0  0  0  0  0  0  0  0  0
  193.1420  173.5070  139.5120 O   0  0  0  0  0  0  0  0  0  0  0  0
  194.9300  174.7500  140.5500 C   0  0  1  0  0  3  0  0  0  0  0  0
  1 19  1  6  0  0  0
  1  7  1  0  0  0  0
  2 16  1  0  0  0  0
  2 17  1  0  0  0  0
  4  3  1  0  0  0  0
  5 13  1  0  0  0  0
  8  3  1  0  0  0  0
  9  6  1  0  0  0  0
  9 10  1  0  0  0  0
 10  8  1  0  0  0  0
 11 17  1  0  0  0  0
 11 15  1  0  0  0  0
 12  6  1  6  0  0  0
 12  1  1  0  0  0  0
 12  7  1  0  0  0  0
 13 12  1  0  0  0  0
 14  4  1  0  0  0  0
 15 14  1  0  0  0  0
 15 10  2  0  0  0  0
 16  5  1  0  0  0  0
 17  9  2  0  0  0  0
 19 18  1  1  0  0  0
 20 21  1  0  0  0  0
 21 19  1  0  0  0  0
 22 20  2  0  0  0  0
 23 20  1  0  0  0  0
 24 11  1  0  0  0  0
 26 30  1  6  0  0  0
 26 32  1  0  0  0  0
 27 24  1  1  0  0  0
 28 31  1  0  0  0  0
 29 28  1  0  0  0  0
 29 26  1  0  0  0  0
 31 27  1  0  0  0  0
 32 27  1  0  0  0  0
 32 25  1  6  0  0  0
M  END
>  <MODEL>
8

>  <REMARK>
 VINA RESULT:      -6.4      2.400      4.538
  Name = 
  4 active torsions:
  status: ('A' for Active; 'I' for Inactive)
    1  A    between atoms: C_2  and  C_24
    2  A    between atoms: N_10  and  C_24
    3  A    between atoms: C_11  and  C_27
    4  A    between atoms: N_16  and  C_27
                            x       y       z     vdW  Elec       q    Type
                         _______ _______ _______ _____ _____    ______ ____

>  <TORSDO>
F 4

$$$$
=
 OpenBabel11052421283D

 32 36  0  0  1  0  0  0  0  0999 V2000
  187.0520  176.2570  142.4220 C   0  0  1  0  0  3  0  0  0  0  0  0
  191.2230  176.4600  144.9330 C   0  0  0  0  0  2  0  0  0  0  0  0
  190.4920  171.0650  142.1850 C   0  0  0  0  0  2  0  0  0  0  0  0
  191.7420  170.7190  143.0060 C   0  0  0  0  0  2  0  0  0  0  0  0
  190.3620  177.1750  142.7630 O   0  0  0  0  0  0  0  0  0  0  0  0
  188.6380  174.9700  143.9560 C   0  0  0  0  0  2  0  0  0  0  0  0
  188.1910  175.7820  141.5220 C   0  0  0  0  0  2  0  0  0  0  0  0
  189.6060  172.0780  142.9230 C   0  0  0  0  0  2  0  0  0  0  0  0
  190.0340  174.4300  143.9330 C   0  0  0  0  0  0  0  0  0  0  0  0
  190.4400  173.2040  143.4500 C   0  0  0  0  0  0  0  0  0  0  0  0
  192.2600  174.2730  144.1960 N   0  0  0  0  0  0  0  0  0  0  0  0
  188.4680  176.1220  142.9720 C   0  0  1  0  0  0  0  0  0  0  0  0
  189.1340  177.3390  143.2220 O   0  0  0  0  0  0  0  0  0  0  0  0
  192.6290  171.9540  143.2180 C   0  0  0  0  0  2  0  0  0  0  0  0
  191.7990  173.1240  143.6560 C   0  0  0  0  0  0  0  0  0  0  0  0
  191.2190  177.5150  143.8230 C   0  0  0  0  0  2  0  0  0  0  0  0
  191.1820  175.0680  144.3820 C   0  0  0  0  0  0  0  0  0  0  0  0
  186.4010  177.7850  140.5730 C   0  0  0  0  0  1  0  0  0  0  0  0
  186.6860  177.6920  142.0620 C   0  0  1  0  0  3  0  0  0  0  0  0
  185.5820  178.5730  144.1590 C   0  0  0  0  0  0  0  0  0  0  0  0
  185.5060  178.0960  142.8150 N   0  0  0  0  0  2  0  0  0  0  0  0
  186.6920  178.6650  144.7470 O   0  0  0  0  0  0  0  0  0  0  0  0
  184.0860  179.0400  145.0140 S   0  0  0  0  0  1  0  0  0  0  0  0
  193.6440  174.5800  144.5390 C   0  0  0  0  0  2  0  0  0  0  0  0
  195.3820  176.7650  144.6370 O   0  0  0  0  0  1  0  0  0  0  0  0
  196.1780  176.5680  142.3720 C   0  0  2  0  0  3  0  0  0  0  0  0
  194.4250  174.9820  143.2940 C   0  0  2  0  0  3  0  0  0  0  0  0
  195.7230  174.1630  141.6470 C   0  0  0  0  0  2  0  0  0  0  0  0
  196.0800  175.5960  141.1930 C   0  0  0  0  0  2  0  0  0  0  0  0
  197.3800  176.3570  143.0280 F   0  0  0  0  0  0  0  0  0  0  0  0
  195.4560  174.0690  143.0300 O   0  0  0  0  0  0  0  0  0  0  0  0
  194.9880  176.4160  143.3410 C   0  0  1  0  0  3  0  0  0  0  0  0
  1 19  1  6  0  0  0
  1 12  1  0  0  0  0
  3  8  1  0  0  0  0
  3  4  1  0  0  0  0
  4 14  1  0  0  0  0
  5 13  1  0  0  0  0
  5 16  1  0  0  0  0
  7  1  1  0  0  0  0
  8 10  1  0  0  0  0
  9  6  1  0  0  0  0
  9 17  2  0  0  0  0
 10 15  2  0  0  0  0
 10  9  1  0  0  0  0
 11 17  1  0  0  0  0
 11 24  1  0  0  0  0
 12  7  1  6  0  0  0
 12 13  1  0  0  0  0
 12  6  1  0  0  0  0
 14 15  1  0  0  0  0
 15 11  1  0  0  0  0
 16  2  1  0  0  0  0
 17  2  1  0  0  0  0
 19 18  1  6  0  0  0
 19 21  1  0  0  0  0
 20 22  2  0  0  0  0
 20 23  1  0  0  0  0
 21 20  1  0  0  0  0
 26 30  1  1  0  0  0
 26 32  1  0  0  0  0
 27 32  1  0  0  0  0
 27 24  1  1  0  0  0
 28 31  1  0  0  0  0
 29 28  1  0  0  0  0
 29 26  1  0  0  0  0
 31 27  1  0  0  0  0
 32 25  1  1  0  0  0
M  END
>  <MODEL>
9

>  <REMARK>
 VINA RESULT:      -6.4      1.815      2.312
  Name = 
  4 active torsions:
  status: ('A' for Active; 'I' for Inactive)
    1  A    between atoms: C_2  and  C_24
    2  A    between atoms: N_10  and  C_24
    3  A    between atoms: C_11  and  C_27
    4  A    between atoms: N_16  and  C_27
                            x       y       z     vdW  Elec       q    Type
                         _______ _______ _______ _____ _____    ______ ____

>  <TORSDO>
F 4

$$$$
