=
 OpenBabel11052418223D

 27 32  0  0  1  0  0  0  0  0999 V2000
  191.3980  176.7590  143.0950 C   0  0  1  0  0  3  0  0  0  0  0  0
  188.8210  176.9390  143.0480 C   0  0  0  0  0  0  0  0  0  0  0  0
  189.4970  176.5030  145.4450 C   0  0  0  0  0  2  0  0  0  0  0  0
  185.3650  179.1540  144.2580 C   0  0  0  0  0  2  0  0  0  0  0  0
  183.5940  178.7900  145.7700 O   0  0  0  0  0  0  0  0  0  0  0  0
  187.9320  177.4840  142.1170 C   0  0  0  0  0  3  0  0  0  0  0  0
  187.1370  178.0900  146.2790 C   0  0  0  0  0  2  0  0  0  0  0  0
  191.5040  175.2490  147.2030 C   0  0  0  0  0  1  0  0  0  0  0  0
  185.6430  177.9460  146.5760 C   0  0  0  0  0  2  0  0  0  0  0  0
  193.2590  176.2090  145.6740 C   0  0  0  0  0  2  0  0  0  0  0  0
  188.5730  177.1210  144.4220 C   0  0  0  0  0  0  0  0  0  0  0  0
  190.0480  176.2200  142.5490 C   0  0  2  0  0  3  0  0  0  0  0  0
  184.7830  178.6360  145.5470 C   0  0  0  0  0  0  0  0  0  0  0  0
  186.5700  178.3610  143.8520 C   0  0  0  0  0  0  0  0  0  0  0  0
  191.2810  177.7420  144.2580 C   0  0  0  0  0  2  0  0  0  0  0  0
  187.4350  177.8350  144.8280 C   0  0  0  0  0  0  0  0  0  0  0  0
  191.7820  175.9700  145.8930 C   0  0  1  0  0  0  0  0  0  0  0  0
  186.8400  178.1760  142.5320 N   0  0  0  0  0  0  0  0  0  0  0  0
  192.5230  175.1770  144.8120 C   0  0  1  0  0  3  0  0  0  0  0  0
  192.4810  175.7180  143.3740 C   0  0  0  0  0  2  0  0  0  0  0  0
  190.8640  177.0630  145.4980 N   0  0  2  0  0  0  0  0  0  0  0  0
  189.6410  171.9440  142.2620 C   0  0  0  0  0  3  0  0  0  0  0  0
  189.8880  174.7270  142.4670 C   0  0  0  0  0  0  0  0  0  0  0  0
  189.4510  173.9740  143.5650 C   0  0  0  0  0  3  0  0  0  0  0  0
  189.3270  172.5850  143.4630 C   0  0  0  0  0  3  0  0  0  0  0  0
  190.0790  172.6890  141.1650 C   0  0  0  0  0  3  0  0  0  0  0  0
  190.2030  174.0780  141.2670 C   0  0  0  0  0  3  0  0  0  0  0  0
  1 20  1  1  0  0  0
  1 15  1  0  0  0  0
  2 11  1  0  0  0  0
  3 21  1  0  0  0  0
  4 13  1  0  0  0  0
  6 18  1  0  0  0  0
  6  2  2  0  0  0  0
  7  9  1  0  0  0  0
 10 17  1  0  0  0  0
 11 16  2  0  0  0  0
 11  3  1  0  0  0  0
 12 23  1  1  0  0  0
 12  2  1  0  0  0  0
 12  1  1  0  0  0  0
 13  5  2  0  0  0  0
 13  9  1  0  0  0  0
 14  4  1  0  0  0  0
 14 16  1  0  0  0  0
 16  7  1  0  0  0  0
 17  8  1  1  0  0  0
 18 14  2  0  0  0  0
 19 20  1  6  0  0  0
 19 10  1  0  0  0  0
 19 17  1  0  0  0  0
 21 15  1  6  0  0  0
 21 17  1  0  0  0  0
 22 25  1  0  0  0  0
 23 24  1  0  0  0  0
 25 24  2  0  0  0  0
 26 27  1  0  0  0  0
 26 22  2  0  0  0  0
 27 23  2  0  0  0  0
M  END
>  <MODEL>
1

>  <REMARK>
 VINA RESULT:      -8.4      0.000      0.000
  Name = 
  1 active torsions:
  status: ('A' for Active; 'I' for Inactive)
    1  A    between atoms: C_9  and  C_15
                            x       y       z     vdW  Elec       q    Type
                         _______ _______ _______ _____ _____    ______ ____

>  <TORSDO>
F 1

$$$$
=
 OpenBabel11052418223D

 27 32  0  0  1  0  0  0  0  0999 V2000
  190.4840  173.0970  145.0040 C   0  0  1  0  0  3  0  0  0  0  0  0
  189.2840  175.3400  145.4550 C   0  0  0  0  0  0  0  0  0  0  0  0
  189.5320  175.1130  142.9490 C   0  0  0  0  0  2  0  0  0  0  0  0
  185.6830  177.6170  145.0530 C   0  0  0  0  0  2  0  0  0  0  0  0
  185.0280  179.4940  143.7870 O   0  0  0  0  0  0  0  0  0  0  0  0
  188.5970  175.8330  146.5670 C   0  0  0  0  0  3  0  0  0  0  0  0
  187.0050  176.6380  142.6760 C   0  0  0  0  0  2  0  0  0  0  0  0
  191.1650  173.9810  140.7710 C   0  0  0  0  0  1  0  0  0  0  0  0
  186.4760  178.0710  142.5880 C   0  0  0  0  0  2  0  0  0  0  0  0
  191.2830  171.8650  142.1290 C   0  0  0  0  0  2  0  0  0  0  0  0
  188.7800  175.6000  144.1650 C   0  0  0  0  0  0  0  0  0  0  0  0
  190.5150  174.4970  145.6730 C   0  0  2  0  0  3  0  0  0  0  0  0
  185.6870  178.4690  143.8110 C   0  0  0  0  0  0  0  0  0  0  0  0
  186.9550  176.8330  145.1750 C   0  0  0  0  0  0  0  0  0  0  0  0
  189.3520  172.8810  144.0010 C   0  0  0  0  0  2  0  0  0  0  0  0
  187.6070  176.3570  144.0240 C   0  0  0  0  0  0  0  0  0  0  0  0
  190.8600  173.3160  142.1040 C   0  0  1  0  0  0  0  0  0  0  0  0
  187.4610  176.5590  146.4070 N   0  0  0  0  0  0  0  0  0  0  0  0
  192.0600  172.8950  142.9570 C   0  0  1  0  0  3  0  0  0  0  0  0
  191.8080  172.5840  144.4400 C   0  0  0  0  0  2  0  0  0  0  0  0
  189.5750  173.6470  142.7630 N   0  0  2  0  0  0  0  0  0  0  0  0
  194.2380  176.6510  145.4790 C   0  0  0  0  0  3  0  0  0  0  0  0
  191.8040  175.2680  145.5930 C   0  0  0  0  0  0  0  0  0  0  0  0
  192.0550  176.1720  144.5510 C   0  0  0  0  0  3  0  0  0  0  0  0
  193.2690  176.8620  144.4950 C   0  0  0  0  0  3  0  0  0  0  0  0
  193.9930  175.7490  146.5180 C   0  0  0  0  0  3  0  0  0  0  0  0
  192.7790  175.0580  146.5750 C   0  0  0  0  0  3  0  0  0  0  0  0
  1 15  1  6  0  0  0
  1 12  1  0  0  0  0
  2 12  1  0  0  0  0
  2  6  1  0  0  0  0
  3 11  1  0  0  0  0
  4 14  1  0  0  0  0
  5 13  2  0  0  0  0
  7 16  1  0  0  0  0
  9  7  1  0  0  0  0
  9 13  1  0  0  0  0
 11  2  2  0  0  0  0
 12 23  1  6  0  0  0
 13  4  1  0  0  0  0
 14 18  1  0  0  0  0
 16 11  1  0  0  0  0
 16 14  2  0  0  0  0
 17  8  1  6  0  0  0
 17 10  1  0  0  0  0
 17 21  1  0  0  0  0
 17 19  1  0  0  0  0
 18  6  2  0  0  0  0
 19 10  1  6  0  0  0
 19 20  1  0  0  0  0
 20  1  1  0  0  0  0
 21  3  1  1  0  0  0
 21 15  1  0  0  0  0
 22 26  1  0  0  0  0
 23 27  1  0  0  0  0
 24 23  2  0  0  0  0
 25 24  1  0  0  0  0
 25 22  2  0  0  0  0
 26 27  2  0  0  0  0
M  END
>  <MODEL>
2

>  <REMARK>
 VINA RESULT:      -7.7      1.853      4.373
  Name = 
  1 active torsions:
  status: ('A' for Active; 'I' for Inactive)
    1  A    between atoms: C_9  and  C_15
                            x       y       z     vdW  Elec       q    Type
                         _______ _______ _______ _____ _____    ______ ____

>  <TORSDO>
F 1

$$$$
=
 OpenBabel11052418223D

 27 32  0  0  1  0  0  0  0  0999 V2000
  190.0810  176.1640  142.4780 C   0  0  1  0  0  3  0  0  0  0  0  0
  191.9660  176.1220  144.2440 C   0  0  0  0  0  0  0  0  0  0  0  0
  191.3230  173.7220  143.7790 C   0  0  0  0  0  2  0  0  0  0  0  0
  196.0060  175.0330  145.1410 C   0  0  0  0  0  2  0  0  0  0  0  0
  197.0340  173.4150  146.5130 O   0  0  0  0  0  0  0  0  0  0  0  0
  192.9160  177.0710  144.6290 C   0  0  0  0  0  3  0  0  0  0  0  0
  194.1370  172.9790  144.3410 C   0  0  0  0  0  2  0  0  0  0  0  0
  189.1400  171.9160  142.9640 C   0  0  0  0  0  1  0  0  0  0  0  0
  195.0670  172.6040  145.4960 C   0  0  0  0  0  2  0  0  0  0  0  0
  188.5560  173.6190  141.2050 C   0  0  0  0  0  2  0  0  0  0  0  0
  192.3460  174.7690  144.1510 C   0  0  0  0  0  0  0  0  0  0  0  0
  190.5770  176.5850  143.8880 C   0  0  2  0  0  3  0  0  0  0  0  0
  196.0980  173.6690  145.7730 C   0  0  0  0  0  0  0  0  0  0  0  0
  194.5830  175.3940  144.8410 C   0  0  0  0  0  0  0  0  0  0  0  0
  190.9430  175.1190  141.7730 C   0  0  0  0  0  2  0  0  0  0  0  0
  193.6660  174.4010  144.4560 C   0  0  0  0  0  0  0  0  0  0  0  0
  189.4020  173.3110  142.4200 C   0  0  1  0  0  0  0  0  0  0  0  0
  194.1890  176.6940  144.9140 N   0  0  0  0  0  0  0  0  0  0  0  0
  188.2570  174.3230  142.5330 C   0  0  1  0  0  3  0  0  0  0  0  0
  188.5990  175.8110  142.3580 C   0  0  0  0  0  2  0  0  0  0  0  0
  190.8020  173.7920  142.3970 N   0  0  2  0  0  0  0  0  0  0  0  0
  187.7130  176.3440  147.0940 C   0  0  0  0  0  3  0  0  0  0  0  0
  189.5920  176.4860  145.0200 C   0  0  0  0  0  0  0  0  0  0  0  0
  189.5460  175.3610  145.8560 C   0  0  0  0  0  3  0  0  0  0  0  0
  188.6090  175.2910  146.8910 C   0  0  0  0  0  3  0  0  0  0  0  0
  187.7530  177.4660  146.2620 C   0  0  0  0  0  3  0  0  0  0  0  0
  188.6900  177.5360  145.2270 C   0  0  0  0  0  3  0  0  0  0  0  0
  1 15  1  1  0  0  0
  1 12  1  0  0  0  0
  2  6  1  0  0  0  0
  3 11  1  0  0  0  0
  4 13  1  0  0  0  0
  6 18  2  0  0  0  0
  7 16  1  0  0  0  0
  7  9  1  0  0  0  0
  9 13  1  0  0  0  0
 10 17  1  0  0  0  0
 11  2  2  0  0  0  0
 11 16  1  0  0  0  0
 12  2  1  0  0  0  0
 12 23  1  1  0  0  0
 13  5  2  0  0  0  0
 14 18  1  0  0  0  0
 14  4  1  0  0  0  0
 16 14  2  0  0  0  0
 17 19  1  0  0  0  0
 17  8  1  1  0  0  0
 19 10  1  6  0  0  0
 20  1  1  0  0  0  0
 20 19  1  0  0  0  0
 21 15  1  1  0  0  0
 21 17  1  0  0  0  0
 21  3  1  0  0  0  0
 23 27  2  0  0  0  0
 23 24  1  0  0  0  0
 24 25  2  0  0  0  0
 25 22  1  0  0  0  0
 26 22  2  0  0  0  0
 27 26  1  0  0  0  0
M  END
>  <MODEL>
3

>  <REMARK>
 VINA RESULT:      -7.2      3.470      6.962
  Name = 
  1 active torsions:
  status: ('A' for Active; 'I' for Inactive)
    1  A    between atoms: C_9  and  C_15
                            x       y       z     vdW  Elec       q    Type
                         _______ _______ _______ _____ _____    ______ ____

>  <TORSDO>
F 1

$$$$
=
 OpenBabel11052418223D

 27 32  0  0  1  0  0  0  0  0999 V2000
  191.4600  172.5090  144.5510 C   0  0  1  0  0  3  0  0  0  0  0  0
  190.4520  174.7140  145.4450 C   0  0  0  0  0  0  0  0  0  0  0  0
  190.1590  174.7200  142.9340 C   0  0  0  0  0  2  0  0  0  0  0  0
  186.9190  177.0590  146.0240 C   0  0  0  0  0  2  0  0  0  0  0  0
  186.0690  179.0520  145.0990 O   0  0  0  0  0  0  0  0  0  0  0  0
  190.0300  175.1080  146.7170 C   0  0  0  0  0  3  0  0  0  0  0  0
  187.6790  176.2920  143.3420 C   0  0  0  0  0  2  0  0  0  0  0  0
  191.2600  173.7800  140.3660 C   0  0  0  0  0  1  0  0  0  0  0  0
  187.1870  177.7330  143.4970 C   0  0  0  0  0  2  0  0  0  0  0  0
  191.5970  171.5440  141.4740 C   0  0  0  0  0  2  0  0  0  0  0  0
  189.6960  175.1000  144.3210 C   0  0  0  0  0  0  0  0  0  0  0  0
  191.6740  173.8410  145.3210 C   0  0  2  0  0  3  0  0  0  0  0  0
  186.6870  178.0230  144.8900 C   0  0  0  0  0  0  0  0  0  0  0  0
  188.1630  176.2530  145.8010 C   0  0  0  0  0  0  0  0  0  0  0  0
  190.1360  172.4020  143.7970 C   0  0  0  0  0  2  0  0  0  0  0  0
  188.5430  175.8800  144.5000 C   0  0  0  0  0  0  0  0  0  0  0  0
  191.2230  172.9960  141.6690 C   0  0  1  0  0  0  0  0  0  0  0  0
  188.9090  175.8590  146.8680 N   0  0  0  0  0  0  0  0  0  0  0  0
  192.5620  172.4830  142.2050 C   0  0  1  0  0  3  0  0  0  0  0  0
  192.6200  172.0370  143.6750 C   0  0  0  0  0  2  0  0  0  0  0  0
  190.1170  173.2780  142.6130 N   0  0  2  0  0  0  0  0  0  0  0  0
  195.3370  175.9650  144.5390 C   0  0  0  0  0  3  0  0  0  0  0  0
  192.9400  174.6010  145.0370 C   0  0  0  0  0  0  0  0  0  0  0  0
  193.0290  175.5090  143.9730 C   0  0  0  0  0  3  0  0  0  0  0  0
  194.2240  176.1890  143.7240 C   0  0  0  0  0  3  0  0  0  0  0  0
  195.2550  175.0580  145.6000 C   0  0  0  0  0  3  0  0  0  0  0  0
  194.0600  174.3780  145.8480 C   0  0  0  0  0  3  0  0  0  0  0  0
  1 20  1  6  0  0  0
  1 12  1  0  0  0  0
  2  6  1  0  0  0  0
  3 11  1  0  0  0  0
  6 18  2  0  0  0  0
  7  9  1  0  0  0  0
  7 16  1  0  0  0  0
  9 13  1  0  0  0  0
 10 17  1  0  0  0  0
 11 16  1  0  0  0  0
 11  2  2  0  0  0  0
 12 23  1  6  0  0  0
 12  2  1  0  0  0  0
 13  5  2  0  0  0  0
 13  4  1  0  0  0  0
 14  4  1  0  0  0  0
 14 18  1  0  0  0  0
 15  1  1  0  0  0  0
 16 14  2  0  0  0  0
 17  8  1  6  0  0  0
 17 19  1  0  0  0  0
 17 21  1  0  0  0  0
 19 10  1  6  0  0  0
 19 20  1  0  0  0  0
 21  3  1  1  0  0  0
 21 15  1  0  0  0  0
 22 26  1  0  0  0  0
 23 27  1  0  0  0  0
 24 23  2  0  0  0  0
 25 24  1  0  0  0  0
 25 22  2  0  0  0  0
 26 27  2  0  0  0  0
M  END
>  <MODEL>
4

>  <REMARK>
 VINA RESULT:      -6.9      1.997      4.693
  Name = 
  1 active torsions:
  status: ('A' for Active; 'I' for Inactive)
    1  A    between atoms: C_9  and  C_15
                            x       y       z     vdW  Elec       q    Type
                         _______ _______ _______ _____ _____    ______ ____

>  <TORSDO>
F 1

$$$$
=
 OpenBabel11052418223D

 27 32  0  0  1  0  0  0  0  0999 V2000
  191.3490  175.8290  142.9000 C   0  0  1  0  0  3  0  0  0  0  0  0
  192.8750  174.8810  144.7570 C   0  0  0  0  0  0  0  0  0  0  0  0
  191.6060  172.9330  143.7630 C   0  0  0  0  0  2  0  0  0  0  0  0
  196.2350  172.4100  145.7150 C   0  0  0  0  0  2  0  0  0  0  0  0
  196.5280  170.3390  146.7990 O   0  0  0  0  0  0  0  0  0  0  0  0
  194.0060  175.3920  145.3980 C   0  0  0  0  0  3  0  0  0  0  0  0
  193.9590  171.2370  144.3720 C   0  0  0  0  0  2  0  0  0  0  0  0
  189.1120  172.0950  142.4340 C   0  0  0  0  0  1  0  0  0  0  0  0
  194.5660  170.3910  145.4930 C   0  0  0  0  0  2  0  0  0  0  0  0
  189.3160  174.1690  141.0220 C   0  0  0  0  0  2  0  0  0  0  0  0
  192.8370  173.5140  144.4180 C   0  0  0  0  0  0  0  0  0  0  0  0
  191.7530  175.8210  144.4000 C   0  0  2  0  0  3  0  0  0  0  0  0
  195.8230  171.0030  146.0590 C   0  0  0  0  0  0  0  0  0  0  0  0
  195.0430  173.2570  145.3880 C   0  0  0  0  0  0  0  0  0  0  0  0
  191.9430  174.6980  142.0630 C   0  0  0  0  0  2  0  0  0  0  0  0
  193.9290  172.6940  144.7390 C   0  0  0  0  0  0  0  0  0  0  0  0
  189.8540  173.4030  142.2090 C   0  0  1  0  0  0  0  0  0  0  0  0
  195.0540  174.5810  145.6960 N   0  0  0  0  0  0  0  0  0  0  0  0
  189.0650  174.6950  142.4400 C   0  0  1  0  0  3  0  0  0  0  0  0
  189.8610  176.0000  142.5990 C   0  0  0  0  0  2  0  0  0  0  0  0
  191.3240  173.4020  142.3900 N   0  0  2  0  0  0  0  0  0  0  0  0
  188.5410  175.9750  147.2630 C   0  0  0  0  0  3  0  0  0  0  0  0
  190.6390  175.8540  145.4100 C   0  0  0  0  0  0  0  0  0  0  0  0
  190.1500  174.6810  146.0010 C   0  0  0  0  0  3  0  0  0  0  0  0
  189.1030  174.7410  146.9250 C   0  0  0  0  0  3  0  0  0  0  0  0
  189.0230  177.1470  146.6750 C   0  0  0  0  0  3  0  0  0  0  0  0
  190.0700  177.0870  145.7500 C   0  0  0  0  0  3  0  0  0  0  0  0
  1 15  1  1  0  0  0
  1 12  1  0  0  0  0
  2  6  1  0  0  0  0
  3 11  1  0  0  0  0
  4 13  1  0  0  0  0
  6 18  2  0  0  0  0
  7 16  1  0  0  0  0
  7  9  1  0  0  0  0
  9 13  1  0  0  0  0
 10 17  1  0  0  0  0
 11 16  1  0  0  0  0
 11  2  2  0  0  0  0
 12  2  1  0  0  0  0
 12 23  1  1  0  0  0
 13  5  2  0  0  0  0
 14 18  1  0  0  0  0
 14  4  1  0  0  0  0
 16 14  2  0  0  0  0
 17 21  1  0  0  0  0
 17  8  1  1  0  0  0
 17 19  1  0  0  0  0
 19 10  1  6  0  0  0
 19 20  1  0  0  0  0
 20  1  1  0  0  0  0
 21 15  1  1  0  0  0
 21  3  1  0  0  0  0
 23 27  2  0  0  0  0
 23 24  1  0  0  0  0
 24 25  2  0  0  0  0
 25 22  1  0  0  0  0
 26 22  2  0  0  0  0
 27 26  1  0  0  0  0
M  END
>  <MODEL>
5

>  <REMARK>
 VINA RESULT:      -6.8      4.034      7.548
  Name = 
  1 active torsions:
  status: ('A' for Active; 'I' for Inactive)
    1  A    between atoms: C_9  and  C_15
                            x       y       z     vdW  Elec       q    Type
                         _______ _______ _______ _____ _____    ______ ____

>  <TORSDO>
F 1

$$$$
=
 OpenBabel11052418223D

 27 32  0  0  1  0  0  0  0  0999 V2000
  193.8000  175.0370  145.7150 C   0  0  1  0  0  3  0  0  0  0  0  0
  192.3120  176.3960  144.0980 C   0  0  0  0  0  0  0  0  0  0  0  0
  192.0600  173.9580  143.4770 C   0  0  0  0  0  2  0  0  0  0  0  0
  188.3360  177.3020  142.7990 C   0  0  0  0  0  2  0  0  0  0  0  0
  187.0750  176.8680  140.8570 O   0  0  0  0  0  0  0  0  0  0  0  0
  191.7950  177.6920  144.1600 C   0  0  0  0  0  3  0  0  0  0  0  0
  189.2860  174.5770  142.6360 C   0  0  0  0  0  2  0  0  0  0  0  0
  193.3800  171.3230  143.4350 C   0  0  0  0  0  1  0  0  0  0  0  0
  188.4830  175.0650  141.4280 C   0  0  0  0  0  2  0  0  0  0  0  0
  194.1930  171.8330  145.7630 C   0  0  0  0  0  2  0  0  0  0  0  0
  191.5050  175.3580  143.5930 C   0  0  0  0  0  0  0  0  0  0  0  0
  193.7000  176.1400  144.6270 C   0  0  2  0  0  3  0  0  0  0  0  0
  187.9110  176.4440  141.6370 C   0  0  0  0  0  0  0  0  0  0  0  0
  189.7320  176.9710  143.2330 C   0  0  0  0  0  0  0  0  0  0  0  0
  192.5440  174.1850  145.8930 C   0  0  0  0  0  2  0  0  0  0  0  0
  190.2040  175.6490  143.1530 C   0  0  0  0  0  0  0  0  0  0  0  0
  193.5010  172.3710  144.5310 C   0  0  1  0  0  0  0  0  0  0  0  0
  190.5310  177.9500  143.7340 N   0  0  0  0  0  0  0  0  0  0  0  0
  194.9130  172.8530  144.8740 C   0  0  1  0  0  3  0  0  0  0  0  0
  195.0480  174.1560  145.6770 C   0  0  0  0  0  2  0  0  0  0  0  0
  192.3470  173.2710  144.7540 N   0  0  2  0  0  0  0  0  0  0  0  0
  196.8070  176.1950  141.6470 C   0  0  0  0  0  3  0  0  0  0  0  0
  194.7680  176.1580  143.5680 C   0  0  0  0  0  0  0  0  0  0  0  0
  194.5690  175.5620  142.3140 C   0  0  0  0  0  3  0  0  0  0  0  0
  195.5860  175.5820  141.3560 C   0  0  0  0  0  3  0  0  0  0  0  0
  197.0120  176.7870  142.8960 C   0  0  0  0  0  3  0  0  0  0  0  0
  195.9950  176.7680  143.8540 C   0  0  0  0  0  3  0  0  0  0  0  0
  1 20  1  6  0  0  0
  1 15  1  0  0  0  0
  2  6  1  0  0  0  0
  2 12  1  0  0  0  0
  3 11  1  0  0  0  0
  4 14  1  0  0  0  0
  5 13  2  0  0  0  0
  7 16  1  0  0  0  0
  9 13  1  0  0  0  0
  9  7  1  0  0  0  0
 11  2  2  0  0  0  0
 12 23  1  6  0  0  0
 12  1  1  0  0  0  0
 13  4  1  0  0  0  0
 14 18  1  0  0  0  0
 16 14  2  0  0  0  0
 16 11  1  0  0  0  0
 17  8  1  6  0  0  0
 17 21  1  0  0  0  0
 17 19  1  0  0  0  0
 17 10  1  0  0  0  0
 18  6  2  0  0  0  0
 19 20  1  1  0  0  0
 19 10  1  0  0  0  0
 21  3  1  6  0  0  0
 21 15  1  0  0  0  0
 22 26  1  0  0  0  0
 23 27  1  0  0  0  0
 24 23  2  0  0  0  0
 25 22  2  0  0  0  0
 25 24  1  0  0  0  0
 26 27  2  0  0  0  0
M  END
>  <MODEL>
6

>  <REMARK>
 VINA RESULT:      -6.6      2.832      5.167
  Name = 
  1 active torsions:
  status: ('A' for Active; 'I' for Inactive)
    1  A    between atoms: C_9  and  C_15
                            x       y       z     vdW  Elec       q    Type
                         _______ _______ _______ _____ _____    ______ ____

>  <TORSDO>
F 1

$$$$
=
 OpenBabel11052418223D

 27 32  0  0  1  0  0  0  0  0999 V2000
  191.6590  174.0530  146.2850 C   0  0  1  0  0  3  0  0  0  0  0  0
  190.3610  173.4030  144.1470 C   0  0  0  0  0  0  0  0  0  0  0  0
  192.2120  174.9780  143.4500 C   0  0  0  0  0  2  0  0  0  0  0  0
  190.4560  171.3710  140.3820 C   0  0  0  0  0  2  0  0  0  0  0  0
  190.4320  172.0410  138.1230 O   0  0  0  0  0  0  0  0  0  0  0  0
  189.4930  172.3480  143.8580 C   0  0  0  0  0  3  0  0  0  0  0  0
  192.3170  173.5290  140.8670 C   0  0  0  0  0  2  0  0  0  0  0  0
  193.9200  177.2280  144.2930 C   0  0  0  0  0  1  0  0  0  0  0  0
  191.6790  173.5150  139.4760 C   0  0  0  0  0  2  0  0  0  0  0  0
  194.2050  176.0270  146.4860 C   0  0  0  0  0  2  0  0  0  0  0  0
  191.2940  173.8110  143.1730 C   0  0  0  0  0  0  0  0  0  0  0  0
  190.3110  174.0340  145.5150 C   0  0  2  0  0  3  0  0  0  0  0  0
  190.8220  172.2940  139.2500 C   0  0  0  0  0  0  0  0  0  0  0  0
  190.4250  172.1050  141.6880 C   0  0  0  0  0  0  0  0  0  0  0  0
  192.8860  173.6900  145.4520 C   0  0  0  0  0  2  0  0  0  0  0  0
  191.3230  173.1590  141.9310 C   0  0  0  0  0  0  0  0  0  0  0  0
  193.4750  176.0630  145.1630 C   0  0  1  0  0  0  0  0  0  0  0  0
  189.5420  171.7270  142.6510 N   0  0  0  0  0  0  0  0  0  0  0  0
  192.7210  176.4110  146.4510 C   0  0  1  0  0  3  0  0  0  0  0  0
  191.9330  175.2870  147.1420 C   0  0  0  0  0  2  0  0  0  0  0  0
  193.2290  174.7620  144.5010 N   0  0  2  0  0  0  0  0  0  0  0  0
  187.8870  177.5830  145.7770 C   0  0  0  0  0  3  0  0  0  0  0  0
  189.4650  175.2760  145.5810 C   0  0  0  0  0  0  0  0  0  0  0  0
  189.5590  176.2810  144.6080 C   0  0  0  0  0  3  0  0  0  0  0  0
  188.7710  177.4310  144.7050 C   0  0  0  0  0  3  0  0  0  0  0  0
  187.7920  176.5860  146.7510 C   0  0  0  0  0  3  0  0  0  0  0  0
  188.5800  175.4350  146.6540 C   0  0  0  0  0  3  0  0  0  0  0  0
  1 15  1  6  0  0  0
  1 20  1  0  0  0  0
  2 12  1  0  0  0  0
  4 14  1  0  0  0  0
  5 13  2  0  0  0  0
  6  2  1  0  0  0  0
  7 16  1  0  0  0  0
  9  7  1  0  0  0  0
 11  3  1  0  0  0  0
 11  2  2  0  0  0  0
 12 23  1  6  0  0  0
 12  1  1  0  0  0  0
 13  9  1  0  0  0  0
 13  4  1  0  0  0  0
 14 16  2  0  0  0  0
 14 18  1  0  0  0  0
 16 11  1  0  0  0  0
 17  8  1  6  0  0  0
 17 19  1  0  0  0  0
 17 10  1  0  0  0  0
 18  6  2  0  0  0  0
 19 10  1  1  0  0  0
 19 20  1  0  0  0  0
 21  3  1  6  0  0  0
 21 17  1  0  0  0  0
 21 15  1  0  0  0  0
 22 26  1  0  0  0  0
 23 27  1  0  0  0  0
 24 25  1  0  0  0  0
 24 23  2  0  0  0  0
 25 22  2  0  0  0  0
 27 26  2  0  0  0  0
M  END
>  <MODEL>
7

>  <REMARK>
 VINA RESULT:      -6.6      3.256      6.285
  Name = 
  1 active torsions:
  status: ('A' for Active; 'I' for Inactive)
    1  A    between atoms: C_9  and  C_15
                            x       y       z     vdW  Elec       q    Type
                         _______ _______ _______ _____ _____    ______ ____

>  <TORSDO>
F 1

$$$$
=
 OpenBabel11052418223D

 27 32  0  0  1  0  0  0  0  0999 V2000
  189.9920  177.7540  143.3720 C   0  0  1  0  0  3  0  0  0  0  0  0
  191.1460  175.5270  142.7530 C   0  0  0  0  0  0  0  0  0  0  0  0
  188.6690  175.2270  142.3440 C   0  0  0  0  0  2  0  0  0  0  0  0
  192.1570  172.7630  139.6460 C   0  0  0  0  0  2  0  0  0  0  0  0
  191.4740  170.5850  139.0630 O   0  0  0  0  0  0  0  0  0  0  0  0
  192.4730  175.2050  142.4570 C   0  0  0  0  0  3  0  0  0  0  0  0
  189.3740  173.3600  140.1520 C   0  0  0  0  0  2  0  0  0  0  0  0
  185.9620  176.0560  143.1660 C   0  0  0  0  0  1  0  0  0  0  0  0
  189.6910  171.8860  139.8910 C   0  0  0  0  0  2  0  0  0  0  0  0
  186.8370  178.4160  143.2150 C   0  0  0  0  0  2  0  0  0  0  0  0
  190.1110  174.9250  142.0100 C   0  0  0  0  0  0  0  0  0  0  0  0
  190.8660  176.5520  143.8220 C   0  0  2  0  0  3  0  0  0  0  0  0
  191.1330  171.6670  139.5080 C   0  0  0  0  0  0  0  0  0  0  0  0
  191.7840  173.7150  140.7420 C   0  0  0  0  0  0  0  0  0  0  0  0
  189.3160  177.5920  142.0130 C   0  0  0  0  0  2  0  0  0  0  0  0
  190.4330  174.0080  140.9980 C   0  0  0  0  0  0  0  0  0  0  0  0
  187.1870  176.9520  143.0730 C   0  0  1  0  0  0  0  0  0  0  0  0
  192.7620  174.3190  141.4700 N   0  0  0  0  0  0  0  0  0  0  0  0
  187.5900  177.7060  144.3450 C   0  0  1  0  0  3  0  0  0  0  0  0
  189.0060  178.3000  144.4040 C   0  0  0  0  0  2  0  0  0  0  0  0
  188.2200  176.6080  142.0690 N   0  0  2  0  0  0  0  0  0  0  0  0
  190.0580  174.9160  147.7210 C   0  0  0  0  0  3  0  0  0  0  0  0
  190.5750  175.9600  145.1730 C   0  0  0  0  0  0  0  0  0  0  0  0
  189.5740  174.9950  145.3510 C   0  0  0  0  0  3  0  0  0  0  0  0
  189.3160  174.4730  146.6220 C   0  0  0  0  0  3  0  0  0  0  0  0
  191.0550  175.8800  147.5500 C   0  0  0  0  0  3  0  0  0  0  0  0
  191.3130  176.4010  146.2790 C   0  0  0  0  0  3  0  0  0  0  0  0
  1 15  1  6  0  0  0
  1 12  1  0  0  0  0
  1 20  1  0  0  0  0
  2 12  1  0  0  0  0
  4 14  1  0  0  0  0
  5 13  2  0  0  0  0
  6  2  1  0  0  0  0
  7 16  1  0  0  0  0
  9  7  1  0  0  0  0
 11  3  1  0  0  0  0
 11  2  2  0  0  0  0
 12 23  1  1  0  0  0
 13  4  1  0  0  0  0
 13  9  1  0  0  0  0
 14 16  2  0  0  0  0
 14 18  1  0  0  0  0
 16 11  1  0  0  0  0
 17  8  1  1  0  0  0
 17 10  1  0  0  0  0
 17 19  1  0  0  0  0
 18  6  2  0  0  0  0
 19 10  1  6  0  0  0
 19 20  1  0  0  0  0
 21 15  1  1  0  0  0
 21  3  1  0  0  0  0
 21 17  1  0  0  0  0
 23 24  2  0  0  0  0
 23 27  1  0  0  0  0
 24 25  1  0  0  0  0
 25 22  2  0  0  0  0
 26 22  1  0  0  0  0
 27 26  2  0  0  0  0
M  END
>  <MODEL>
8

>  <REMARK>
 VINA RESULT:      -6.6      3.143      6.499
  Name = 
  1 active torsions:
  status: ('A' for Active; 'I' for Inactive)
    1  A    between atoms: C_9  and  C_15
                            x       y       z     vdW  Elec       q    Type
                         _______ _______ _______ _____ _____    ______ ____

>  <TORSDO>
F 1

$$$$
=
 OpenBabel11052418223D

 27 32  0  0  1  0  0  0  0  0999 V2000
  188.6690  175.1620  144.4790 C   0  0  1  0  0  3  0  0  0  0  0  0
  189.0140  174.1510  142.1260 C   0  0  0  0  0  0  0  0  0  0  0  0
  190.8070  175.9020  142.4600 C   0  0  0  0  0  2  0  0  0  0  0  0
  191.5340  171.8290  139.5620 C   0  0  0  0  0  2  0  0  0  0  0  0
  192.8770  172.2880  137.6810 O   0  0  0  0  0  0  0  0  0  0  0  0
  188.5710  172.9640  141.5380 C   0  0  0  0  0  3  0  0  0  0  0  0
  192.5700  174.2600  140.7330 C   0  0  0  0  0  2  0  0  0  0  0  0
  191.4970  178.4340  143.8020 C   0  0  0  0  0  1  0  0  0  0  0  0
  192.9320  174.0350  139.2640 C   0  0  0  0  0  2  0  0  0  0  0  0
  190.4280  177.4820  145.8730 C   0  0  0  0  0  2  0  0  0  0  0  0
  190.3240  174.5990  141.8680 C   0  0  0  0  0  0  0  0  0  0  0  0
  188.0920  174.8880  143.0640 C   0  0  2  0  0  3  0  0  0  0  0  0
  192.4700  172.6910  138.7580 C   0  0  0  0  0  0  0  0  0  0  0  0
  190.6590  172.6640  140.4480 C   0  0  0  0  0  0  0  0  0  0  0  0
  190.1660  174.9020  144.6300 C   0  0  0  0  0  2  0  0  0  0  0  0
  191.1530  173.8500  141.0180 C   0  0  0  0  0  0  0  0  0  0  0  0
  190.6750  177.3000  144.3930 C   0  0  1  0  0  0  0  0  0  0  0  0
  189.3920  172.2530  140.7220 N   0  0  0  0  0  0  0  0  0  0  0  0
  189.2670  177.6500  144.8860 C   0  0  1  0  0  3  0  0  0  0  0  0
  188.2840  176.4930  145.1230 C   0  0  0  0  0  2  0  0  0  0  0  0
  190.9640  175.9230  143.9290 N   0  0  2  0  0  0  0  0  0  0  0  0
  185.8490  178.0870  141.2560 C   0  0  0  0  0  3  0  0  0  0  0  0
  187.3190  176.0000  142.4110 C   0  0  0  0  0  0  0  0  0  0  0  0
  187.8120  176.6720  141.2830 C   0  0  0  0  0  3  0  0  0  0  0  0
  187.0780  177.7130  140.7070 C   0  0  0  0  0  3  0  0  0  0  0  0
  185.3550  177.4230  142.3820 C   0  0  0  0  0  3  0  0  0  0  0  0
  186.0890  176.3820  142.9580 C   0  0  0  0  0  3  0  0  0  0  0  0
  1 15  1  6  0  0  0
  1 20  1  0  0  0  0
  2 12  1  0  0  0  0
  4 14  1  0  0  0  0
  5 13  2  0  0  0  0
  6  2  2  0  0  0  0
  7 16  1  0  0  0  0
  9  7  1  0  0  0  0
 11  2  1  0  0  0  0
 11  3  1  0  0  0  0
 12 23  1  6  0  0  0
 12  1  1  0  0  0  0
 13  9  1  0  0  0  0
 13  4  1  0  0  0  0
 14 18  2  0  0  0  0
 14 16  1  0  0  0  0
 16 11  2  0  0  0  0
 17  8  1  6  0  0  0
 17 19  1  0  0  0  0
 17 10  1  0  0  0  0
 18  6  1  0  0  0  0
 19 20  1  1  0  0  0
 19 10  1  0  0  0  0
 21  3  1  6  0  0  0
 21 17  1  0  0  0  0
 21 15  1  0  0  0  0
 22 26  1  0  0  0  0
 23 27  1  0  0  0  0
 24 23  2  0  0  0  0
 25 22  2  0  0  0  0
 25 24  1  0  0  0  0
 26 27  2  0  0  0  0
M  END
>  <MODEL>
9

>  <REMARK>
 VINA RESULT:      -6.5      3.437      6.509
  Name = 
  1 active torsions:
  status: ('A' for Active; 'I' for Inactive)
    1  A    between atoms: C_9  and  C_15
                            x       y       z     vdW  Elec       q    Type
                         _______ _______ _______ _____ _____    ______ ____

>  <TORSDO>
F 1

$$$$
