=
 OpenBabel11052418463D

 34 40  0  0  1  0  0  0  0  0999 V2000
  188.7390  174.0910  141.4440 C   0  0  0  0  0  0  0  0  0  0  0  0
  191.0450  173.5060  142.2290 C   0  0  0  0  0  0  0  0  0  0  0  0
  189.6470  175.0740  143.5060 N   0  0  0  0  0  0  0  0  0  0  0  0
  190.4450  175.8800  145.7140 C   0  0  0  0  0  0  0  0  0  0  0  0
  190.0920  172.3920  140.2970 C   0  0  0  0  0  3  0  0  0  0  0  0
  191.1400  172.5510  141.1160 C   0  0  0  0  0  3  0  0  0  0  0  0
  191.7570  174.3230  144.3710 C   0  0  0  0  0  0  0  0  0  0  0  0
  189.9700  174.5650  142.1720 C   0  0  2  0  0  3  0  0  0  0  0  0
  192.7570  174.2850  145.4600 C   0  0  0  0  0  0  0  0  0  0  0  0
  191.5330  175.9990  146.7390 C   0  0  0  0  0  3  0  0  0  0  0  0
  188.8260  173.1300  140.5160 C   0  0  0  0  0  3  0  0  0  0  0  0
  188.4040  175.7630  143.7450 C   0  0  0  0  0  0  0  0  0  0  0  0
  187.4610  174.7740  141.6990 C   0  0  0  0  0  3  0  0  0  0  0  0
  191.8860  173.4620  143.2230 N   0  0  0  0  0  0  0  0  0  0  0  0
  189.3270  176.5290  145.8540 N   0  0  0  0  0  0  0  0  0  0  0  0
  188.2520  176.4890  144.8870 C   0  0  0  0  0  0  0  0  0  0  0  0
  192.6110  175.0210  146.5270 N   0  0  0  0  0  0  0  0  0  0  0  0
  190.6640  175.0820  144.5100 C   0  0  1  0  0  3  0  0  0  0  0  0
  187.3090  175.5680  142.7630 C   0  0  0  0  0  3  0  0  0  0  0  0
  185.5320  179.1550  144.9230 C   0  0  0  0  0  0  0  0  0  0  0  0
  184.7120  178.6820  145.9500 C   0  0  0  0  0  3  0  0  0  0  0  0
  187.0160  177.2470  145.2160 C   0  0  0  0  0  0  0  0  0  0  0  0
  185.0430  177.5010  146.6180 C   0  0  0  0  0  3  0  0  0  0  0  0
  186.6810  178.4450  144.5630 C   0  0  0  0  0  3  0  0  0  0  0  0
  186.1920  176.7910  146.2560 C   0  0  0  0  0  3  0  0  0  0  0  0
  185.2080  180.3320  144.2610 O   0  0  0  0  0  1  0  0  0  0  0  0
  193.9050  173.3340  145.3880 C   0  0  0  0  0  2  0  0  0  0  0  0
  194.9560  172.4400  142.7480 C   0  0  0  0  0  1  0  0  0  0  0  0
  195.0360  173.9640  144.7060 N   0  0  0  0  0  0  0  0  0  0  0  0
  195.7840  172.9770  143.9030 C   0  0  1  0  0  3  0  0  0  0  0  0
  196.8040  172.3010  146.1360 C   0  0  0  0  0  2  0  0  0  0  0  0
  197.1240  173.7890  146.1370 C   0  0  0  0  0  2  0  0  0  0  0  0
  195.8890  174.6080  145.7230 C   0  0  0  0  0  2  0  0  0  0  0  0
  196.3770  171.8340  144.7420 C   0  0  0  0  0  2  0  0  0  0  0  0
  1 13  1  0  0  0  0
  2 14  2  0  0  0  0
  3 12  1  0  0  0  0
  3 18  1  0  0  0  0
  4 15  2  0  0  0  0
  4 10  1  0  0  0  0
  5 11  1  0  0  0  0
  5  6  2  0  0  0  0
  6  2  1  0  0  0  0
  7  9  2  0  0  0  0
  8  1  1  1  0  0  0
  8  2  1  0  0  0  0
  8  3  1  0  0  0  0
  9 17  1  0  0  0  0
 11  1  2  0  0  0  0
 12 16  2  0  0  0  0
 13 19  2  0  0  0  0
 14  7  1  0  0  0  0
 16 22  1  0  0  0  0
 16 15  1  0  0  0  0
 17 10  2  0  0  0  0
 18  7  1  1  0  0  0
 18  4  1  0  0  0  0
 19 12  1  0  0  0  0
 20 21  1  0  0  0  0
 21 23  2  0  0  0  0
 22 25  2  0  0  0  0
 24 20  2  0  0  0  0
 24 22  1  0  0  0  0
 25 23  1  0  0  0  0
 26 20  1  0  0  0  0
 27  9  1  0  0  0  0
 29 27  1  0  0  0  0
 29 33  1  0  0  0  0
 30 28  1  6  0  0  0
 30 29  1  0  0  0  0
 30 34  1  0  0  0  0
 31 32  1  0  0  0  0
 33 32  1  0  0  0  0
 34 31  1  0  0  0  0
M  END
>  <MODEL>
1

>  <REMARK>
 VINA RESULT:      -8.8      0.000      0.000
  Name = 
  3 active torsions:
  status: ('A' for Active; 'I' for Inactive)
    1  A    between atoms: C_3  and  N_13
    2  A    between atoms: C_3  and  C_17
    3  A    between atoms: C_12  and  C_28
                            x       y       z     vdW  Elec       q    Type
                         _______ _______ _______ _____ _____    ______ ____

>  <TORSDO>
F 3

$$$$
=
 OpenBabel11052418463D

 34 40  0  0  1  0  0  0  0  0999 V2000
  190.8130  173.4460  141.2750 C   0  0  0  0  0  0  0  0  0  0  0  0
  188.9060  174.8530  142.0890 C   0  0  0  0  0  0  0  0  0  0  0  0
  190.8440  174.4120  143.5350 N   0  0  0  0  0  0  0  0  0  0  0  0
  191.0110  175.5800  145.7190 C   0  0  0  0  0  0  0  0  0  0  0  0
  188.9490  174.0590  139.7980 C   0  0  0  0  0  3  0  0  0  0  0  0
  188.3010  174.7350  140.7550 C   0  0  0  0  0  3  0  0  0  0  0  0
  189.1290  175.9500  144.2120 C   0  0  0  0  0  0  0  0  0  0  0  0
  189.9980  173.8810  142.4660 C   0  0  2  0  0  3  0  0  0  0  0  0
  188.6020  176.9420  145.1750 C   0  0  0  0  0  0  0  0  0  0  0  0
  190.3970  176.4390  146.7850 C   0  0  0  0  0  3  0  0  0  0  0  0
  190.2820  173.4610  140.0460 C   0  0  0  0  0  3  0  0  0  0  0  0
  192.1580  173.8670  143.7690 C   0  0  0  0  0  0  0  0  0  0  0  0
  192.1640  172.9090  141.5020 C   0  0  0  0  0  3  0  0  0  0  0  0
  188.4910  175.7500  142.9370 N   0  0  0  0  0  0  0  0  0  0  0  0
  192.1690  175.0180  145.9040 N   0  0  0  0  0  0  0  0  0  0  0  0
  192.8010  174.1500  144.9350 C   0  0  0  0  0  0  0  0  0  0  0  0
  189.2130  177.1660  146.3050 N   0  0  0  0  0  0  0  0  0  0  0  0
  190.2760  175.3170  144.4850 C   0  0  1  0  0  3  0  0  0  0  0  0
  192.7860  173.0910  142.6710 C   0  0  0  0  0  3  0  0  0  0  0  0
  195.6560  171.7920  145.8300 C   0  0  0  0  0  0  0  0  0  0  0  0
  196.7020  172.7000  146.0080 C   0  0  0  0  0  3  0  0  0  0  0  0
  194.1490  173.6230  145.2750 C   0  0  0  0  0  0  0  0  0  0  0  0
  196.4760  174.0670  145.8310 C   0  0  0  0  0  3  0  0  0  0  0  0
  194.3850  172.2520  145.4720 C   0  0  0  0  0  3  0  0  0  0  0  0
  195.2050  174.5260  145.4730 C   0  0  0  0  0  3  0  0  0  0  0  0
  195.8760  170.4340  146.0100 O   0  0  0  0  0  1  0  0  0  0  0  0
  187.4080  177.7640  144.8210 C   0  0  0  0  0  2  0  0  0  0  0  0
  185.5720  177.5190  142.4890 C   0  0  0  0  0  1  0  0  0  0  0  0
  186.2070  176.9280  144.8140 N   0  0  0  0  0  0  0  0  0  0  0  0
  185.1620  177.5120  143.9520 C   0  0  1  0  0  3  0  0  0  0  0  0
  184.7370  179.0550  145.9320 C   0  0  0  0  0  2  0  0  0  0  0  0
  184.5950  177.7010  146.6140 C   0  0  0  0  0  2  0  0  0  0  0  0
  185.7470  176.7670  146.2060 C   0  0  0  0  0  2  0  0  0  0  0  0
  184.7050  178.9060  144.4090 C   0  0  0  0  0  2  0  0  0  0  0  0
  1 13  1  0  0  0  0
  2  8  1  0  0  0  0
  2 14  2  0  0  0  0
  3 12  1  0  0  0  0
  3 18  1  0  0  0  0
  4 15  2  0  0  0  0
  4 10  1  0  0  0  0
  5 11  1  0  0  0  0
  5  6  2  0  0  0  0
  6  2  1  0  0  0  0
  7  9  2  0  0  0  0
  8  1  1  6  0  0  0
  8  3  1  0  0  0  0
  9 17  1  0  0  0  0
 11  1  2  0  0  0  0
 12 16  2  0  0  0  0
 13 19  2  0  0  0  0
 14  7  1  0  0  0  0
 16 22  1  0  0  0  0
 16 15  1  0  0  0  0
 17 10  2  0  0  0  0
 18  7  1  6  0  0  0
 18  4  1  0  0  0  0
 19 12  1  0  0  0  0
 20 21  1  0  0  0  0
 20 26  1  0  0  0  0
 22 24  1  0  0  0  0
 22 25  2  0  0  0  0
 23 21  2  0  0  0  0
 24 20  2  0  0  0  0
 25 23  1  0  0  0  0
 27  9  1  0  0  0  0
 29 27  1  0  0  0  0
 29 33  1  0  0  0  0
 30 28  1  6  0  0  0
 30 34  1  0  0  0  0
 30 29  1  0  0  0  0
 31 32  1  0  0  0  0
 33 32  1  0  0  0  0
 34 31  1  0  0  0  0
M  END
>  <MODEL>
2

>  <REMARK>
 VINA RESULT:      -8.7      2.781      8.075
  Name = 
  3 active torsions:
  status: ('A' for Active; 'I' for Inactive)
    1  A    between atoms: C_3  and  N_13
    2  A    between atoms: C_3  and  C_17
    3  A    between atoms: C_12  and  C_28
                            x       y       z     vdW  Elec       q    Type
                         _______ _______ _______ _____ _____    ______ ____

>  <TORSDO>
F 3

$$$$
=
 OpenBabel11052418463D

 34 40  0  0  1  0  0  0  0  0999 V2000
  191.5330  176.2800  146.4910 C   0  0  0  0  0  0  0  0  0  0  0  0
  192.3560  174.6720  144.7550 C   0  0  0  0  0  0  0  0  0  0  0  0
  190.0430  175.5030  144.6960 N   0  0  0  0  0  0  0  0  0  0  0  0
  188.6040  174.9300  142.7570 C   0  0  0  0  0  0  0  0  0  0  0  0
  193.8830  175.5720  146.4110 C   0  0  0  0  0  3  0  0  0  0  0  0
  193.6910  174.7590  145.3640 C   0  0  0  0  0  3  0  0  0  0  0  0
  190.9120  174.1550  142.9090 C   0  0  0  0  0  0  0  0  0  0  0  0
  191.1720  175.1510  145.5600 C   0  0  2  0  0  3  0  0  0  0  0  0
  190.7490  173.5260  141.5810 C   0  0  0  0  0  0  0  0  0  0  0  0
  188.3650  174.1420  141.5020 C   0  0  0  0  0  2  0  0  0  0  0  0
  192.7860  176.4150  146.9410 C   0  0  0  0  0  3  0  0  0  0  0  0
  188.9850  176.3520  145.1830 C   0  0  0  0  0  0  0  0  0  0  0  0
  190.4620  177.1650  146.9760 C   0  0  0  0  0  3  0  0  0  0  0  0
  192.1930  174.1640  143.5670 N   0  0  0  0  0  0  0  0  0  0  0  0
  187.6620  175.6650  143.2690 N   0  0  0  0  0  0  0  0  0  0  0  0
  187.8130  176.4200  144.4940 C   0  0  0  0  0  0  0  0  0  0  0  0
  189.6040  173.5680  140.9570 N   0  0  0  0  0  0  0  0  0  0  0  0
  189.8850  174.8210  143.4500 C   0  0  0  0  0  0  0  0  0  0  0  0
  189.2670  177.1870  146.3760 C   0  0  0  0  0  3  0  0  0  0  0  0
  185.3370  179.2950  144.8250 C   0  0  0  0  0  0  0  0  0  0  0  0
  184.5120  178.8170  145.8460 C   0  0  0  0  0  3  0  0  0  0  0  0
  186.6580  177.2520  144.9230 C   0  0  0  0  0  0  0  0  0  0  0  0
  184.7610  177.5650  146.4140 C   0  0  0  0  0  3  0  0  0  0  0  0
  186.4080  178.5200  144.3720 C   0  0  0  0  0  3  0  0  0  0  0  0
  185.8310  176.7910  145.9590 C   0  0  0  0  0  3  0  0  0  0  0  0
  185.0950  180.5410  144.2630 O   0  0  0  0  0  1  0  0  0  0  0  0
  191.9230  172.9080  140.8970 C   0  0  0  0  0  2  0  0  0  0  0  0
  191.3560  172.1230  138.0810 C   0  0  0  0  0  1  0  0  0  0  0  0
  192.3070  173.7100  139.7350 N   0  0  0  0  0  0  0  0  0  0  0  0
  192.5970  172.8500  138.5720 C   0  0  1  0  0  3  0  0  0  0  0  0
  194.8330  172.4620  139.7270 C   0  0  0  0  0  2  0  0  0  0  0  0
  194.8280  173.9830  139.6590 C   0  0  0  0  0  2  0  0  0  0  0  0
  193.4670  174.5410  140.1090 C   0  0  0  0  0  2  0  0  0  0  0  0
  193.7560  171.8710  138.8140 C   0  0  0  0  0  2  0  0  0  0  0  0
  1 11  2  0  0  0  0
  1 13  1  0  0  0  0
  2  6  1  0  0  0  0
  3 12  1  0  0  0  0
  3  8  1  0  0  0  0
  4 15  2  0  0  0  0
  4 18  1  0  0  0  0
  5 11  1  0  0  0  0
  6  5  2  0  0  0  0
  7 18  2  0  0  0  0
  7 14  1  0  0  0  0
  8  2  1  6  0  0  0
  8  1  1  0  0  0  0
  9  7  1  0  0  0  0
 10  4  1  0  0  0  0
 12 19  1  0  0  0  0
 14  2  2  0  0  0  0
 15 16  1  0  0  0  0
 16 22  1  0  0  0  0
 16 12  2  0  0  0  0
 17 10  1  0  0  0  0
 17  9  2  0  0  0  0
 18  3  1  0  0  0  0
 19 13  2  0  0  0  0
 20 21  1  0  0  0  0
 21 23  2  0  0  0  0
 22 25  2  0  0  0  0
 24 20  2  0  0  0  0
 24 22  1  0  0  0  0
 25 23  1  0  0  0  0
 26 20  1  0  0  0  0
 27  9  1  0  0  0  0
 29 33  1  0  0  0  0
 29 27  1  0  0  0  0
 30 28  1  1  0  0  0
 30 34  1  0  0  0  0
 30 29  1  0  0  0  0
 32 31  1  0  0  0  0
 32 33  1  0  0  0  0
 34 31  1  0  0  0  0
M  END
>  <MODEL>
3

>  <REMARK>
 VINA RESULT:      -8.5      1.837      4.604
  Name = 
  3 active torsions:
  status: ('A' for Active; 'I' for Inactive)
    1  A    between atoms: C_3  and  N_13
    2  A    between atoms: C_3  and  C_17
    3  A    between atoms: C_12  and  C_28
                            x       y       z     vdW  Elec       q    Type
                         _______ _______ _______ _____ _____    ______ ____

>  <TORSDO>
F 3

$$$$
=
 OpenBabel11052418463D

 34 40  0  0  1  0  0  0  0  0999 V2000
  188.9990  173.8380  141.3160 C   0  0  0  0  0  0  0  0  0  0  0  0
  191.4430  173.5030  141.7600 C   0  0  0  0  0  0  0  0  0  0  0  0
  190.1220  175.0600  143.1300 N   0  0  0  0  0  0  0  0  0  0  0  0
  191.1750  176.1090  145.1190 C   0  0  0  0  0  0  0  0  0  0  0  0
  190.3080  172.1600  140.0910 C   0  0  0  0  0  3  0  0  0  0  0  0
  191.4500  172.4690  140.7170 C   0  0  0  0  0  3  0  0  0  0  0  0
  192.4000  174.5510  143.6960 C   0  0  0  0  0  0  0  0  0  0  0  0
  190.2810  174.4670  141.8020 C   0  0  2  0  0  3  0  0  0  0  0  0
  193.5550  174.6840  144.6100 C   0  0  0  0  0  0  0  0  0  0  0  0
  192.3930  176.3980  145.9450 C   0  0  0  0  0  3  0  0  0  0  0  0
  189.0290  172.8130  140.4570 C   0  0  0  0  0  3  0  0  0  0  0  0
  188.8740  175.6670  143.5170 C   0  0  0  0  0  0  0  0  0  0  0  0
  187.7200  174.4390  141.7250 C   0  0  0  0  0  3  0  0  0  0  0  0
  192.4270  173.6100  142.6060 N   0  0  0  0  0  0  0  0  0  0  0  0
  190.0380  176.6780  145.3910 N   0  0  0  0  0  0  0  0  0  0  0  0
  188.8350  176.4730  144.6150 C   0  0  0  0  0  0  0  0  0  0  0  0
  193.5090  175.4930  145.6320 N   0  0  0  0  0  0  0  0  0  0  0  0
  191.2770  175.2320  143.9550 C   0  0  1  0  0  3  0  0  0  0  0  0
  187.6630  175.3060  142.7410 C   0  0  0  0  0  3  0  0  0  0  0  0
  185.9440  178.9340  144.9210 C   0  0  0  0  0  0  0  0  0  0  0  0
  185.3160  178.4610  146.0760 C   0  0  0  0  0  3  0  0  0  0  0  0
  187.6010  177.1570  145.0840 C   0  0  0  0  0  0  0  0  0  0  0  0
  185.8300  177.3460  146.7420 C   0  0  0  0  0  3  0  0  0  0  0  0
  187.0840  178.2900  144.4330 C   0  0  0  0  0  3  0  0  0  0  0  0
  186.9690  176.7020  146.2510 C   0  0  0  0  0  3  0  0  0  0  0  0
  185.4390  180.0450  144.2610 O   0  0  0  0  0  1  0  0  0  0  0  0
  194.7590  173.8220  144.4220 C   0  0  0  0  0  2  0  0  0  0  0  0
  197.1910  173.7900  146.1400 C   0  0  0  0  0  1  0  0  0  0  0  0
  194.9300  172.9380  145.5750 N   0  0  0  0  0  0  0  0  0  0  0  0
  196.3490  172.5830  145.7630 C   0  0  1  0  0  3  0  0  0  0  0  0
  195.9310  170.9320  143.8690 C   0  0  0  0  0  2  0  0  0  0  0  0
  194.8320  170.5130  144.8360 C   0  0  0  0  0  2  0  0  0  0  0  0
  194.0850  171.7460  145.3730 C   0  0  0  0  0  2  0  0  0  0  0  0
  196.9530  171.8370  144.5620 C   0  0  0  0  0  2  0  0  0  0  0  0
  1 13  1  0  0  0  0
  2  8  1  0  0  0  0
  2 14  2  0  0  0  0
  3 12  1  0  0  0  0
  3 18  1  0  0  0  0
  4 15  2  0  0  0  0
  4 10  1  0  0  0  0
  5 11  1  0  0  0  0
  5  6  2  0  0  0  0
  6  2  1  0  0  0  0
  7  9  2  0  0  0  0
  8  1  1  1  0  0  0
  8  3  1  0  0  0  0
  9 17  1  0  0  0  0
 11  1  2  0  0  0  0
 12 16  2  0  0  0  0
 13 19  2  0  0  0  0
 14  7  1  0  0  0  0
 16 22  1  0  0  0  0
 16 15  1  0  0  0  0
 17 10  2  0  0  0  0
 18  7  1  1  0  0  0
 18  4  1  0  0  0  0
 19 12  1  0  0  0  0
 20 21  1  0  0  0  0
 21 23  2  0  0  0  0
 22 25  2  0  0  0  0
 24 20  2  0  0  0  0
 24 22  1  0  0  0  0
 25 23  1  0  0  0  0
 26 20  1  0  0  0  0
 27  9  1  0  0  0  0
 27 29  1  0  0  0  0
 29 30  1  0  0  0  0
 30 28  1  6  0  0  0
 31 34  1  0  0  0  0
 31 32  1  0  0  0  0
 32 33  1  0  0  0  0
 33 29  1  0  0  0  0
 34 30  1  0  0  0  0
M  END
>  <MODEL>
4

>  <REMARK>
 VINA RESULT:      -8.3      0.905      1.511
  Name = 
  3 active torsions:
  status: ('A' for Active; 'I' for Inactive)
    1  A    between atoms: C_3  and  N_13
    2  A    between atoms: C_3  and  C_17
    3  A    between atoms: C_12  and  C_28
                            x       y       z     vdW  Elec       q    Type
                         _______ _______ _______ _____ _____    ______ ____

>  <TORSDO>
F 3

$$$$
=
 OpenBabel11052418463D

 34 40  0  0  1  0  0  0  0  0999 V2000
  191.5290  176.1750  146.3240 C   0  0  0  0  0  0  0  0  0  0  0  0
  192.3000  174.6020  144.5320 C   0  0  0  0  0  0  0  0  0  0  0  0
  189.9970  175.4640  144.5380 N   0  0  0  0  0  0  0  0  0  0  0  0
  188.5150  174.9590  142.6110 C   0  0  0  0  0  0  0  0  0  0  0  0
  193.8680  175.4400  146.1810 C   0  0  0  0  0  3  0  0  0  0  0  0
  193.6460  174.6570  145.1180 C   0  0  0  0  0  3  0  0  0  0  0  0
  190.8150  174.1520  142.7000 C   0  0  0  0  0  0  0  0  0  0  0  0
  191.1360  175.0760  145.3700 C   0  0  2  0  0  3  0  0  0  0  0  0
  190.6190  173.5600  141.3590 C   0  0  0  0  0  0  0  0  0  0  0  0
  188.2430  174.2080  141.3410 C   0  0  0  0  0  2  0  0  0  0  0  0
  192.7920  176.2830  146.7530 C   0  0  0  0  0  3  0  0  0  0  0  0
  188.9590  176.3130  145.0660 C   0  0  0  0  0  0  0  0  0  0  0  0
  190.4780  177.0610  146.8510 C   0  0  0  0  0  3  0  0  0  0  0  0
  192.1080  174.1280  143.3340 N   0  0  0  0  0  0  0  0  0  0  0  0
  187.5920  175.6930  143.1590 N   0  0  0  0  0  0  0  0  0  0  0  0
  187.7750  176.4130  144.4000 C   0  0  0  0  0  0  0  0  0  0  0  0
  189.4640  173.6320  140.7590 N   0  0  0  0  0  0  0  0  0  0  0  0
  189.8070  174.8170  143.2770 C   0  0  0  0  0  0  0  0  0  0  0  0
  189.2730  177.1130  146.2750 C   0  0  0  0  0  3  0  0  0  0  0  0
  185.3160  179.2910  144.8190 C   0  0  0  0  0  0  0  0  0  0  0  0
  184.5330  178.8180  145.8750 C   0  0  0  0  0  3  0  0  0  0  0  0
  186.6390  177.2480  144.8730 C   0  0  0  0  0  0  0  0  0  0  0  0
  184.8040  177.5690  146.4380 C   0  0  0  0  0  3  0  0  0  0  0  0
  186.3670  178.5130  144.3260 C   0  0  0  0  0  3  0  0  0  0  0  0
  185.8550  176.7920  145.9430 C   0  0  0  0  0  3  0  0  0  0  0  0
  185.0520  180.5340  144.2610 O   0  0  0  0  0  1  0  0  0  0  0  0
  191.7730  172.9460  140.6380 C   0  0  0  0  0  2  0  0  0  0  0  0
  194.4740  172.0710  141.5380 C   0  0  0  0  0  1  0  0  0  0  0  0
  192.0590  171.6200  141.1860 N   0  0  0  0  0  0  0  0  0  0  0  0
  193.4340  171.1970  140.8570 C   0  0  1  0  0  3  0  0  0  0  0  0
  192.4540  170.6410  138.5740 C   0  0  0  0  0  2  0  0  0  0  0  0
  191.5240  169.8320  139.4670 C   0  0  0  0  0  2  0  0  0  0  0  0
  191.0530  170.6760  140.6630 C   0  0  0  0  0  2  0  0  0  0  0  0
  193.6940  171.0970  139.3460 C   0  0  0  0  0  2  0  0  0  0  0  0
  1 11  2  0  0  0  0
  1 13  1  0  0  0  0
  2  6  1  0  0  0  0
  3 12  1  0  0  0  0
  3  8  1  0  0  0  0
  4 15  2  0  0  0  0
  4 18  1  0  0  0  0
  5 11  1  0  0  0  0
  6  5  2  0  0  0  0
  7 18  2  0  0  0  0
  7 14  1  0  0  0  0
  8  2  1  6  0  0  0
  8  1  1  0  0  0  0
  9  7  1  0  0  0  0
 10  4  1  0  0  0  0
 12 19  1  0  0  0  0
 14  2  2  0  0  0  0
 15 16  1  0  0  0  0
 16 22  1  0  0  0  0
 16 12  2  0  0  0  0
 17 10  1  0  0  0  0
 17  9  2  0  0  0  0
 18  3  1  0  0  0  0
 19 13  2  0  0  0  0
 20 21  1  0  0  0  0
 21 23  2  0  0  0  0
 22 25  2  0  0  0  0
 24 20  2  0  0  0  0
 24 22  1  0  0  0  0
 25 23  1  0  0  0  0
 26 20  1  0  0  0  0
 27 29  1  0  0  0  0
 27  9  1  0  0  0  0
 30 29  1  0  0  0  0
 30 28  1  6  0  0  0
 31 34  1  0  0  0  0
 31 32  1  0  0  0  0
 32 33  1  0  0  0  0
 33 29  1  0  0  0  0
 34 30  1  0  0  0  0
M  END
>  <MODEL>
5

>  <REMARK>
 VINA RESULT:      -8.3      1.754      4.719
  Name = 
  3 active torsions:
  status: ('A' for Active; 'I' for Inactive)
    1  A    between atoms: C_3  and  N_13
    2  A    between atoms: C_3  and  C_17
    3  A    between atoms: C_12  and  C_28
                            x       y       z     vdW  Elec       q    Type
                         _______ _______ _______ _____ _____    ______ ____

>  <TORSDO>
F 3

$$$$
=
 OpenBabel11052418463D

 34 40  0  0  1  0  0  0  0  0999 V2000
  192.5890  174.4360  144.7260 C   0  0  0  0  0  0  0  0  0  0  0  0
  190.9150  176.2280  145.2420 C   0  0  0  0  0  0  0  0  0  0  0  0
  190.7800  174.9540  143.1440 N   0  0  0  0  0  0  0  0  0  0  0  0
  188.8220  175.2860  141.6540 C   0  0  0  0  0  0  0  0  0  0  0  0
  192.5820  175.6020  146.8880 C   0  0  0  0  0  3  0  0  0  0  0  0
  191.5530  176.3910  146.5550 C   0  0  0  0  0  3  0  0  0  0  0  0
  189.0490  176.5010  143.7570 C   0  0  0  0  0  0  0  0  0  0  0  0
  191.6780  175.4980  144.1630 C   0  0  2  0  0  3  0  0  0  0  0  0
  187.7330  177.1240  143.4950 C   0  0  0  0  0  0  0  0  0  0  0  0
  187.5830  176.0470  141.2850 C   0  0  0  0  0  2  0  0  0  0  0  0
  193.0640  174.5410  145.9730 C   0  0  0  0  0  3  0  0  0  0  0  0
  191.2190  173.8970  142.2680 C   0  0  0  0  0  0  0  0  0  0  0  0
  193.0250  173.3410  143.8450 C   0  0  0  0  0  3  0  0  0  0  0  0
  189.7370  176.7280  145.0020 N   0  0  0  0  0  0  0  0  0  0  0  0
  189.2930  174.3620  140.8690 N   0  0  0  0  0  0  0  0  0  0  0  0
  190.5010  173.6170  141.1460 C   0  0  0  0  0  0  0  0  0  0  0  0
  187.0820  176.8730  142.3930 N   0  0  0  0  0  0  0  0  0  0  0  0
  189.5480  175.6270  142.8750 C   0  0  0  0  0  0  0  0  0  0  0  0
  192.3970  173.0990  142.6900 C   0  0  0  0  0  3  0  0  0  0  0  0
  190.8720  170.2450  139.4130 C   0  0  0  0  0  0  0  0  0  0  0  0
  191.7130  170.5850  138.3520 C   0  0  0  0  0  3  0  0  0  0  0  0
  190.8820  172.5580  140.1740 C   0  0  0  0  0  0  0  0  0  0  0  0
  192.1490  171.9030  138.2020 C   0  0  0  0  0  3  0  0  0  0  0  0
  190.4640  171.2250  140.3230 C   0  0  0  0  0  3  0  0  0  0  0  0
  191.7390  172.8830  139.1120 C   0  0  0  0  0  3  0  0  0  0  0  0
  190.4420  168.9340  139.5680 O   0  0  0  0  0  1  0  0  0  0  0  0
  187.0940  177.9840  144.5340 C   0  0  0  0  0  2  0  0  0  0  0  0
  184.2650  178.6620  143.8950 C   0  0  0  0  0  1  0  0  0  0  0  0
  185.9400  177.2970  145.1150 N   0  0  0  0  0  0  0  0  0  0  0  0
  184.7910  178.2120  145.2480 C   0  0  1  0  0  3  0  0  0  0  0  0
  186.0170  179.0560  147.3140 C   0  0  0  0  0  2  0  0  0  0  0  0
  185.9410  177.5700  147.6370 C   0  0  0  0  0  2  0  0  0  0  0  0
  186.3460  176.7290  146.4150 C   0  0  0  0  0  2  0  0  0  0  0  0
  185.0740  179.4140  146.1630 C   0  0  0  0  0  2  0  0  0  0  0  0
  1 11  2  0  0  0  0
  2  6  1  0  0  0  0
  3  8  1  0  0  0  0
  4 18  1  0  0  0  0
  6  5  2  0  0  0  0
  7 14  1  0  0  0  0
  8  1  1  1  0  0  0
  8  2  1  0  0  0  0
  9  7  1  0  0  0  0
  9 27  1  0  0  0  0
 10  4  1  0  0  0  0
 10 17  1  0  0  0  0
 11  5  1  0  0  0  0
 12 19  1  0  0  0  0
 12  3  1  0  0  0  0
 13  1  1  0  0  0  0
 14  2  2  0  0  0  0
 15 16  1  0  0  0  0
 15  4  2  0  0  0  0
 16 12  2  0  0  0  0
 17  9  2  0  0  0  0
 18  3  1  0  0  0  0
 18  7  2  0  0  0  0
 19 13  2  0  0  0  0
 20 26  1  0  0  0  0
 20 24  1  0  0  0  0
 21 20  2  0  0  0  0
 22 24  2  0  0  0  0
 22 16  1  0  0  0  0
 23 21  1  0  0  0  0
 23 25  2  0  0  0  0
 25 22  1  0  0  0  0
 27 29  1  0  0  0  0
 29 30  1  0  0  0  0
 29 33  1  0  0  0  0
 30 28  1  6  0  0  0
 30 34  1  0  0  0  0
 31 32  1  0  0  0  0
 33 32  1  0  0  0  0
 34 31  1  0  0  0  0
M  END
>  <MODEL>
6

>  <REMARK>
 VINA RESULT:      -8.3      3.064      8.533
  Name = 
  3 active torsions:
  status: ('A' for Active; 'I' for Inactive)
    1  A    between atoms: C_3  and  N_13
    2  A    between atoms: C_3  and  C_17
    3  A    between atoms: C_12  and  C_28
                            x       y       z     vdW  Elec       q    Type
                         _______ _______ _______ _____ _____    ______ ____

>  <TORSDO>
F 3

$$$$
=
 OpenBabel11052418463D

 34 40  0  0  1  0  0  0  0  0999 V2000
  192.1420  174.5530  145.6010 C   0  0  0  0  0  0  0  0  0  0  0  0
  190.4020  176.3430  145.3820 C   0  0  0  0  0  0  0  0  0  0  0  0
  190.7360  174.6930  143.5900 N   0  0  0  0  0  0  0  0  0  0  0  0
  189.1630  174.6620  141.6690 C   0  0  0  0  0  0  0  0  0  0  0  0
  191.6560  176.1030  147.4440 C   0  0  0  0  0  3  0  0  0  0  0  0
  190.7300  176.7740  146.7470 C   0  0  0  0  0  3  0  0  0  0  0  0
  188.9180  176.2580  143.4980 C   0  0  0  0  0  0  0  0  0  0  0  0
  191.3850  175.4530  144.6590 C   0  0  2  0  0  3  0  0  0  0  0  0
  187.6970  176.7690  142.8370 C   0  0  0  0  0  0  0  0  0  0  0  0
  188.0420  175.2910  140.8970 C   0  0  0  0  0  2  0  0  0  0  0  0
  192.3270  174.9080  146.8790 C   0  0  0  0  0  3  0  0  0  0  0  0
  191.3570  173.5080  143.0530 C   0  0  0  0  0  0  0  0  0  0  0  0
  192.7600  173.3300  145.0660 C   0  0  0  0  0  3  0  0  0  0  0  0
  189.3100  176.7420  144.7960 N   0  0  0  0  0  0  0  0  0  0  0  0
  189.7940  173.6260  141.2000 N   0  0  0  0  0  0  0  0  0  0  0  0
  190.9070  172.9940  141.8750 C   0  0  0  0  0  0  0  0  0  0  0  0
  187.3090  176.2900  141.6870 N   0  0  0  0  0  0  0  0  0  0  0  0
  189.5980  175.2550  142.9320 C   0  0  0  0  0  0  0  0  0  0  0  0
  192.4070  172.8510  143.8690 C   0  0  0  0  0  3  0  0  0  0  0  0
  193.0880  170.7190  139.7360 C   0  0  0  0  0  0  0  0  0  0  0  0
  192.4920  169.4800  139.9760 C   0  0  0  0  0  3  0  0  0  0  0  0
  191.4920  171.7880  141.2320 C   0  0  0  0  0  0  0  0  0  0  0  0
  191.3930  169.3890  140.8330 C   0  0  0  0  0  3  0  0  0  0  0  0
  192.5860  171.8670  140.3540 C   0  0  0  0  0  3  0  0  0  0  0  0
  190.8930  170.5380  141.4530 C   0  0  0  0  0  3  0  0  0  0  0  0
  194.1770  170.8130  138.8800 O   0  0  0  0  0  1  0  0  0  0  0  0
  186.8440  177.7830  143.5240 C   0  0  0  0  0  2  0  0  0  0  0  0
  184.2310  178.2810  142.1860 C   0  0  0  0  0  1  0  0  0  0  0  0
  185.5830  177.1740  143.9480 N   0  0  0  0  0  0  0  0  0  0  0  0
  184.4450  178.0730  143.6760 C   0  0  1  0  0  3  0  0  0  0  0  0
  185.2060  179.2740  145.7890 C   0  0  0  0  0  2  0  0  0  0  0  0
  185.0410  177.8610  146.3300 C   0  0  0  0  0  2  0  0  0  0  0  0
  185.6900  176.8390  145.3810 C   0  0  0  0  0  2  0  0  0  0  0  0
  184.5390  179.4160  144.4180 C   0  0  0  0  0  2  0  0  0  0  0  0
  1 11  2  0  0  0  0
  2  6  1  0  0  0  0
  3  8  1  0  0  0  0
  4 18  1  0  0  0  0
  6  5  2  0  0  0  0
  7 14  1  0  0  0  0
  8  2  1  1  0  0  0
  8  1  1  0  0  0  0
  9  7  1  0  0  0  0
  9 27  1  0  0  0  0
 10  4  1  0  0  0  0
 10 17  1  0  0  0  0
 11  5  1  0  0  0  0
 12  3  1  0  0  0  0
 12 19  1  0  0  0  0
 13  1  1  0  0  0  0
 14  2  2  0  0  0  0
 15  4  2  0  0  0  0
 15 16  1  0  0  0  0
 16 12  2  0  0  0  0
 17  9  2  0  0  0  0
 18  7  2  0  0  0  0
 18  3  1  0  0  0  0
 19 13  2  0  0  0  0
 20 21  2  0  0  0  0
 20 24  1  0  0  0  0
 21 23  1  0  0  0  0
 22 25  1  0  0  0  0
 22 16  1  0  0  0  0
 23 25  2  0  0  0  0
 24 22  2  0  0  0  0
 26 20  1  0  0  0  0
 27 29  1  0  0  0  0
 29 33  1  0  0  0  0
 30 28  1  6  0  0  0
 30 29  1  0  0  0  0
 30 34  1  0  0  0  0
 31 32  1  0  0  0  0
 33 32  1  0  0  0  0
 34 31  1  0  0  0  0
M  END
>  <MODEL>
7

>  <REMARK>
 VINA RESULT:      -8.2      3.205      8.788
  Name = 
  3 active torsions:
  status: ('A' for Active; 'I' for Inactive)
    1  A    between atoms: C_3  and  N_13
    2  A    between atoms: C_3  and  C_17
    3  A    between atoms: C_12  and  C_28
                            x       y       z     vdW  Elec       q    Type
                         _______ _______ _______ _____ _____    ______ ____

>  <TORSDO>
F 3

$$$$
=
 OpenBabel11052418463D

 34 40  0  0  1  0  0  0  0  0999 V2000
  191.5840  176.0210  146.8320 C   0  0  0  0  0  0  0  0  0  0  0  0
  189.5010  177.0080  145.8480 C   0  0  0  0  0  0  0  0  0  0  0  0
  190.6760  175.1720  144.7110 N   0  0  0  0  0  0  0  0  0  0  0  0
  189.6410  174.1350  142.7070 C   0  0  0  0  0  0  0  0  0  0  0  0
  190.2840  177.7270  148.0280 C   0  0  0  0  0  3  0  0  0  0  0  0
  189.3840  177.8520  147.0450 C   0  0  0  0  0  3  0  0  0  0  0  0
  188.5560  175.9620  143.9060 C   0  0  0  0  0  0  0  0  0  0  0  0
  190.8310  176.3480  145.5680 C   0  0  2  0  0  3  0  0  0  0  0  0
  187.4180  175.8510  142.9680 C   0  0  0  0  0  0  0  0  0  0  0  0
  188.5860  174.1370  141.6390 C   0  0  0  0  0  2  0  0  0  0  0  0
  191.3730  176.7260  147.9500 C   0  0  0  0  0  3  0  0  0  0  0  0
  191.7090  174.1690  144.6500 C   0  0  0  0  0  0  0  0  0  0  0  0
  192.6260  174.9830  146.7840 C   0  0  0  0  0  3  0  0  0  0  0  0
  188.4980  176.8580  145.0320 N   0  0  0  0  0  0  0  0  0  0  0  0
  190.6270  173.2890  142.6650 N   0  0  0  0  0  0  0  0  0  0  0  0
  191.6960  173.2570  143.6390 C   0  0  0  0  0  0  0  0  0  0  0  0
  187.4450  174.9980  141.9820 N   0  0  0  0  0  0  0  0  0  0  0  0
  189.6000  175.1360  143.7700 C   0  0  0  0  0  0  0  0  0  0  0  0
  192.6950  174.1290  145.7570 C   0  0  0  0  0  3  0  0  0  0  0  0
  193.5890  169.9650  143.9350 C   0  0  0  0  0  0  0  0  0  0  0  0
  194.7510  170.2640  143.2220 C   0  0  0  0  0  3  0  0  0  0  0  0
  192.7250  172.1960  143.4810 C   0  0  0  0  0  0  0  0  0  0  0  0
  194.9110  171.5270  142.6460 C   0  0  0  0  0  3  0  0  0  0  0  0
  192.5850  170.9280  144.0700 C   0  0  0  0  0  3  0  0  0  0  0  0
  193.9050  172.4880  142.7800 C   0  0  0  0  0  3  0  0  0  0  0  0
  193.4310  168.7130  144.5130 O   0  0  0  0  0  1  0  0  0  0  0  0
  186.1830  176.6580  143.1940 C   0  0  0  0  0  2  0  0  0  0  0  0
  185.9400  179.1510  144.8050 C   0  0  0  0  0  1  0  0  0  0  0  0
  186.3550  178.0040  142.6440 N   0  0  0  0  0  0  0  0  0  0  0  0
  185.5090  178.9780  143.3580 C   0  0  1  0  0  3  0  0  0  0  0  0
  183.6340  178.0380  141.9140 C   0  0  0  0  0  2  0  0  0  0  0  0
  184.6310  178.4330  140.8330 C   0  0  0  0  0  2  0  0  0  0  0  0
  186.0470  177.9570  141.2020 C   0  0  0  0  0  2  0  0  0  0  0  0
  184.0070  178.6680  143.2580 C   0  0  0  0  0  2  0  0  0  0  0  0
  1 11  2  0  0  0  0
  2  6  1  0  0  0  0
  3  8  1  0  0  0  0
  4 18  1  0  0  0  0
  6  5  2  0  0  0  0
  7 14  1  0  0  0  0
  8  2  1  1  0  0  0
  8  1  1  0  0  0  0
  9 27  1  0  0  0  0
  9  7  1  0  0  0  0
 10 17  1  0  0  0  0
 10  4  1  0  0  0  0
 11  5  1  0  0  0  0
 12  3  1  0  0  0  0
 12 19  1  0  0  0  0
 13  1  1  0  0  0  0
 14  2  2  0  0  0  0
 15  4  2  0  0  0  0
 15 16  1  0  0  0  0
 16 12  2  0  0  0  0
 17  9  2  0  0  0  0
 18  7  2  0  0  0  0
 18  3  1  0  0  0  0
 19 13  2  0  0  0  0
 20 24  1  0  0  0  0
 20 26  1  0  0  0  0
 21 20  2  0  0  0  0
 22 16  1  0  0  0  0
 22 24  2  0  0  0  0
 23 25  2  0  0  0  0
 23 21  1  0  0  0  0
 25 22  1  0  0  0  0
 29 27  1  0  0  0  0
 29 30  1  0  0  0  0
 30 28  1  1  0  0  0
 31 34  1  0  0  0  0
 32 33  1  0  0  0  0
 32 31  1  0  0  0  0
 33 29  1  0  0  0  0
 34 30  1  0  0  0  0
M  END
>  <MODEL>
8

>  <REMARK>
 VINA RESULT:      -8.1      3.190      9.032
  Name = 
  3 active torsions:
  status: ('A' for Active; 'I' for Inactive)
    1  A    between atoms: C_3  and  N_13
    2  A    between atoms: C_3  and  C_17
    3  A    between atoms: C_12  and  C_28
                            x       y       z     vdW  Elec       q    Type
                         _______ _______ _______ _____ _____    ______ ____

>  <TORSDO>
F 3

$$$$
=
 OpenBabel11052418463D

 34 40  0  0  1  0  0  0  0  0999 V2000
  192.3650  175.2040  145.5780 C   0  0  0  0  0  0  0  0  0  0  0  0
  190.1420  176.3090  145.9220 C   0  0  0  0  0  0  0  0  0  0  0  0
  190.7160  175.2970  143.7570 N   0  0  0  0  0  0  0  0  0  0  0  0
  188.9770  175.1570  141.9910 C   0  0  0  0  0  0  0  0  0  0  0  0
  191.6850  176.0620  147.7770 C   0  0  0  0  0  3  0  0  0  0  0  0
  190.5090  176.5180  147.3300 C   0  0  0  0  0  3  0  0  0  0  0  0
  188.5080  176.1420  144.1730 C   0  0  0  0  0  0  0  0  0  0  0  0
  191.2410  175.9800  144.9400 C   0  0  2  0  0  3  0  0  0  0  0  0
  187.1090  176.3440  143.7380 C   0  0  0  0  0  0  0  0  0  0  0  0
  187.6190  175.5250  141.4710 C   0  0  0  0  0  2  0  0  0  0  0  0
  192.6080  175.3150  146.8900 C   0  0  0  0  0  3  0  0  0  0  0  0
  191.5920  174.5350  142.9020 C   0  0  0  0  0  0  0  0  0  0  0  0
  193.2500  174.4060  144.7160 C   0  0  0  0  0  3  0  0  0  0  0  0
  188.9090  176.4350  145.5250 N   0  0  0  0  0  0  0  0  0  0  0  0
  189.8260  174.5210  141.2390 N   0  0  0  0  0  0  0  0  0  0  0  0
  191.1630  174.1690  141.6630 C   0  0  0  0  0  0  0  0  0  0  0  0
  186.7310  176.0240  142.5310 N   0  0  0  0  0  0  0  0  0  0  0  0
  189.3800  175.5730  143.3320 C   0  0  0  0  0  0  0  0  0  0  0  0
  192.8980  174.1070  143.4610 C   0  0  0  0  0  3  0  0  0  0  0  0
  193.6540  173.2760  138.9230 C   0  0  0  0  0  0  0  0  0  0  0  0
  193.4770  171.8930  138.8460 C   0  0  0  0  0  3  0  0  0  0  0  0
  191.9970  173.3980  140.7030 C   0  0  0  0  0  0  0  0  0  0  0  0
  192.5580  171.2600  139.6850 C   0  0  0  0  0  3  0  0  0  0  0  0
  192.9130  174.0240  139.8410 C   0  0  0  0  0  3  0  0  0  0  0  0
  191.8180  172.0100  140.6040 C   0  0  0  0  0  3  0  0  0  0  0  0
  194.5630  173.9080  138.0860 O   0  0  0  0  0  1  0  0  0  0  0  0
  186.0890  176.8390  144.7090 C   0  0  0  0  0  2  0  0  0  0  0  0
  186.1020  177.6630  147.5710 C   0  0  0  0  0  1  0  0  0  0  0  0
  186.4430  178.1820  145.1690 N   0  0  0  0  0  0  0  0  0  0  0  0
  185.7000  178.5350  146.3930 C   0  0  1  0  0  3  0  0  0  0  0  0
  183.7730  178.9980  144.7950 C   0  0  0  0  0  2  0  0  0  0  0  0
  184.8450  179.8900  144.1850 C   0  0  0  0  0  2  0  0  0  0  0  0
  186.1790  179.1320  144.0710 C   0  0  0  0  0  2  0  0  0  0  0  0
  184.1760  178.5410  146.1990 C   0  0  0  0  0  2  0  0  0  0  0  0
  1 11  2  0  0  0  0
  2  6  1  0  0  0  0
  3  8  1  0  0  0  0
  4 18  1  0  0  0  0
  6  5  2  0  0  0  0
  7 14  1  0  0  0  0
  8  1  1  1  0  0  0
  8  2  1  0  0  0  0
  9  7  1  0  0  0  0
  9 27  1  0  0  0  0
 10  4  1  0  0  0  0
 10 17  1  0  0  0  0
 11  5  1  0  0  0  0
 12 19  1  0  0  0  0
 12  3  1  0  0  0  0
 13  1  1  0  0  0  0
 14  2  2  0  0  0  0
 15 16  1  0  0  0  0
 15  4  2  0  0  0  0
 16 12  2  0  0  0  0
 17  9  2  0  0  0  0
 18  3  1  0  0  0  0
 18  7  2  0  0  0  0
 19 13  2  0  0  0  0
 20 24  1  0  0  0  0
 21 20  2  0  0  0  0
 21 23  1  0  0  0  0
 22 16  1  0  0  0  0
 23 25  2  0  0  0  0
 24 22  2  0  0  0  0
 25 22  1  0  0  0  0
 26 20  1  0  0  0  0
 27 29  1  0  0  0  0
 29 30  1  0  0  0  0
 30 28  1  1  0  0  0
 31 34  1  0  0  0  0
 32 31  1  0  0  0  0
 33 32  1  0  0  0  0
 33 29  1  0  0  0  0
 34 30  1  0  0  0  0
M  END
>  <MODEL>
9

>  <REMARK>
 VINA RESULT:      -8.1      3.052      8.719
  Name = 
  3 active torsions:
  status: ('A' for Active; 'I' for Inactive)
    1  A    between atoms: C_3  and  N_13
    2  A    between atoms: C_3  and  C_17
    3  A    between atoms: C_12  and  C_28
                            x       y       z     vdW  Elec       q    Type
                         _______ _______ _______ _____ _____    ______ ____

>  <TORSDO>
F 3

$$$$
