=
 OpenBabel11052417423D

 31 33  0  0  1  0  0  0  0  0999 V2000
  187.6250  176.3230  144.7260 C   0  0  0  0  0  0  0  0  0  0  0  0
  186.3940  177.0100  144.8130 C   0  0  0  0  0  0  0  0  0  0  0  0
  185.4980  178.8940  143.4930 C   0  0  0  0  0  3  0  0  0  0  0  0
  185.6580  177.4150  143.5690 C   0  0  0  0  0  2  0  0  0  0  0  0
  186.4590  176.7610  147.1840 N   0  0  0  0  0  0  0  0  0  0  0  0
  184.7660  179.5810  144.3690 C   0  0  0  0  0  3  0  0  0  0  0  0
  188.2360  175.8890  145.9140 C   0  0  0  0  0  0  0  0  0  0  0  0
  184.1060  179.0000  145.5510 C   0  0  0  0  0  3  0  0  0  0  0  0
  187.6190  176.1110  147.1040 N   0  0  0  0  0  0  0  0  0  0  0  0
  185.8320  177.2460  146.0840 C   0  0  0  0  0  0  0  0  0  0  0  0
  184.5680  177.9840  146.2910 C   0  0  0  0  0  3  0  0  0  0  0  0
  189.5770  175.2250  145.8920 C   0  0  2  0  0  3  0  0  0  0  0  0
  189.4640  173.8920  146.2910 O   0  0  0  0  0  1  0  0  0  0  0  0
  192.3580  175.4030  145.4210 N   0  0  0  0  0  2  0  0  0  0  0  0
  192.5780  176.7880  147.5630 C   0  0  0  0  0  1  0  0  0  0  0  0
  191.7660  176.0080  146.5860 C   0  0  0  0  0  0  0  0  0  0  0  0
  190.4870  175.9350  146.7830 N   0  0  0  0  0  0  0  0  0  0  0  0
  195.8140  176.0920  144.1180 C   0  0  0  0  0  0  0  0  0  0  0  0
  195.8020  173.9790  145.3000 C   0  0  0  0  0  3  0  0  0  0  0  0
  196.4800  177.0350  143.4090 F   0  0  0  0  0  0  0  0  0  0  0  0
  194.4530  176.2530  144.3920 C   0  0  0  0  0  3  0  0  0  0  0  0
  194.4390  174.1390  145.5680 C   0  0  0  0  0  3  0  0  0  0  0  0
  193.7540  175.2730  145.1120 C   0  0  0  0  0  0  0  0  0  0  0  0
  196.4900  174.9570  144.5750 C   0  0  0  0  0  3  0  0  0  0  0  0
  188.3100  176.0390  143.4110 C   0  0  1  0  0  3  0  0  0  0  0  0
  187.3840  175.3360  142.4260 C   0  0  0  0  0  2  0  0  0  0  0  0
  188.0650  174.2150  141.7960 N   0  0  0  0  0  2  0  0  0  0  0  0
  188.9030  173.6920  142.7230 O   0  0  0  0  0  1  0  0  0  0  0  0
  188.9360  177.2970  142.8270 C   0  0  0  0  0  2  0  0  0  0  0  0
  190.9880  178.4790  143.9260 C   0  0  0  0  0  1  0  0  0  0  0  0
  190.7420  177.1130  142.7620 S   0  0  0  0  0  0  0  0  0  0  0  0
  1  2  2  0  0  0  0
  1  7  1  0  0  0  0
  2 10  1  0  0  0  0
  3  4  1  0  0  0  0
  3  6  2  0  0  0  0
  4  2  1  0  0  0  0
  6  8  1  0  0  0  0
  7  9  2  0  0  0  0
  8 11  2  0  0  0  0
  9  5  1  0  0  0  0
 10 11  1  0  0  0  0
 10  5  2  0  0  0  0
 12  7  1  0  0  0  0
 12 13  1  1  0  0  0
 12 17  1  0  0  0  0
 14 16  1  0  0  0  0
 16 17  2  0  0  0  0
 16 15  1  0  0  0  0
 18 21  2  0  0  0  0
 18 24  1  0  0  0  0
 19 22  1  0  0  0  0
 20 18  1  0  0  0  0
 21 23  1  0  0  0  0
 23 14  1  0  0  0  0
 23 22  2  0  0  0  0
 24 19  2  0  0  0  0
 25 26  1  6  0  0  0
 25  1  1  0  0  0  0
 27 26  1  0  0  0  0
 27 28  1  0  0  0  0
 29 25  1  0  0  0  0
 31 29  1  0  0  0  0
 31 30  1  0  0  0  0
M  END
>  <MODEL>
1

>  <REMARK>
 VINA RESULT:      -7.3      0.000      0.000
  Name = 
  8 active torsions:
  status: ('A' for Active; 'I' for Inactive)
    1  A    between atoms: N_2  and  C_25
    2  A    between atoms: N_3  and  C_22
    3  A    between atoms: C_4  and  C_12
    4  A    between atoms: C_12  and  C_25
    5  A    between atoms: C_12  and  C_27
    6  A    between atoms: C_15  and  C_21
    7  A    between atoms: C_15  and  N_23
    8  A    between atoms: C_27  and  S_28
                            x       y       z     vdW  Elec       q    Type
                         _______ _______ _______ _____ _____    ______ ____

>  <TORSDO>
F 8

$$$$
=
 OpenBabel11052417423D

 31 33  0  0  1  0  0  0  0  0999 V2000
  187.8540  176.3360  144.5030 C   0  0  0  0  0  0  0  0  0  0  0  0
  186.6270  177.0280  144.6060 C   0  0  0  0  0  0  0  0  0  0  0  0
  185.7660  178.9830  143.3670 C   0  0  0  0  0  3  0  0  0  0  0  0
  185.9130  177.5000  143.3730 C   0  0  0  0  0  2  0  0  0  0  0  0
  186.6540  176.6630  146.9620 N   0  0  0  0  0  0  0  0  0  0  0  0
  185.0270  179.6330  144.2650 C   0  0  0  0  0  3  0  0  0  0  0  0
  188.4430  175.8380  145.6770 C   0  0  0  0  0  0  0  0  0  0  0  0
  184.3440  179.0000  145.4070 C   0  0  0  0  0  3  0  0  0  0  0  0
  187.8100  176.0070  146.8670 N   0  0  0  0  0  0  0  0  0  0  0  0
  186.0480  177.2070  145.8780 C   0  0  0  0  0  0  0  0  0  0  0  0
  184.7870  177.9450  146.1030 C   0  0  0  0  0  3  0  0  0  0  0  0
  189.7790  175.1640  145.6420 C   0  0  2  0  0  3  0  0  0  0  0  0
  189.6530  173.8210  146.0000 O   0  0  0  0  0  1  0  0  0  0  0  0
  192.5580  175.3690  145.1710 N   0  0  0  0  0  2  0  0  0  0  0  0
  192.7810  176.6650  147.3680 C   0  0  0  0  0  1  0  0  0  0  0  0
  191.9680  175.9240  146.3620 C   0  0  0  0  0  0  0  0  0  0  0  0
  190.6890  175.8400  146.5590 N   0  0  0  0  0  0  0  0  0  0  0  0
  195.9990  176.1000  143.8500 C   0  0  0  0  0  0  0  0  0  0  0  0
  196.0170  173.9830  145.0260 C   0  0  0  0  0  3  0  0  0  0  0  0
  196.6500  177.0530  143.1400 F   0  0  0  0  0  0  0  0  0  0  0  0
  194.6380  176.2450  144.1330 C   0  0  0  0  0  3  0  0  0  0  0  0
  194.6540  174.1270  145.3020 C   0  0  0  0  0  3  0  0  0  0  0  0
  193.9540  175.2550  144.8540 C   0  0  0  0  0  0  0  0  0  0  0  0
  196.6890  174.9710  144.3000 C   0  0  0  0  0  3  0  0  0  0  0  0
  188.5560  176.1110  143.1860 C   0  0  1  0  0  3  0  0  0  0  0  0
  189.9180  176.7940  143.1420 C   0  0  0  0  0  2  0  0  0  0  0  0
  189.7720  178.2050  142.8200 N   0  0  0  0  0  2  0  0  0  0  0  0
  188.9550  178.2800  141.7410 O   0  0  0  0  0  1  0  0  0  0  0  0
  188.6340  174.6310  142.8430 C   0  0  0  0  0  2  0  0  0  0  0  0
  190.4970  172.8060  142.7140 C   0  0  0  0  0  1  0  0  0  0  0  0
  190.0880  174.3160  141.8000 S   0  0  0  0  0  0  0  0  0  0  0  0
  1  2  2  0  0  0  0
  1  7  1  0  0  0  0
  2 10  1  0  0  0  0
  3  4  1  0  0  0  0
  3  6  2  0  0  0  0
  4  2  1  0  0  0  0
  6  8  1  0  0  0  0
  7  9  2  0  0  0  0
  8 11  2  0  0  0  0
  9  5  1  0  0  0  0
 10 11  1  0  0  0  0
 10  5  2  0  0  0  0
 12  7  1  0  0  0  0
 12 13  1  1  0  0  0
 12 17  1  0  0  0  0
 14 16  1  0  0  0  0
 16 17  2  0  0  0  0
 16 15  1  0  0  0  0
 18 21  2  0  0  0  0
 18 24  1  0  0  0  0
 19 22  1  0  0  0  0
 20 18  1  0  0  0  0
 21 23  1  0  0  0  0
 23 14  1  0  0  0  0
 23 22  2  0  0  0  0
 24 19  2  0  0  0  0
 25 29  1  1  0  0  0
 25  1  1  0  0  0  0
 26 25  1  0  0  0  0
 27 26  1  0  0  0  0
 28 27  1  0  0  0  0
 31 30  1  0  0  0  0
 31 29  1  0  0  0  0
M  END
>  <MODEL>
2

>  <REMARK>
 VINA RESULT:      -7.1      1.533      1.830
  Name = 
  8 active torsions:
  status: ('A' for Active; 'I' for Inactive)
    1  A    between atoms: N_2  and  C_25
    2  A    between atoms: N_3  and  C_22
    3  A    between atoms: C_4  and  C_12
    4  A    between atoms: C_12  and  C_25
    5  A    between atoms: C_12  and  C_27
    6  A    between atoms: C_15  and  C_21
    7  A    between atoms: C_15  and  N_23
    8  A    between atoms: C_27  and  S_28
                            x       y       z     vdW  Elec       q    Type
                         _______ _______ _______ _____ _____    ______ ____

>  <TORSDO>
F 8

$$$$
=
 OpenBabel11052417423D

 31 33  0  0  1  0  0  0  0  0999 V2000
  188.2630  177.1630  144.5220 C   0  0  0  0  0  0  0  0  0  0  0  0
  187.0710  177.2940  145.2670 C   0  0  0  0  0  0  0  0  0  0  0  0
  184.8870  178.2740  144.6610 C   0  0  0  0  0  3  0  0  0  0  0  0
  185.7380  177.0520  144.6210 C   0  0  0  0  0  2  0  0  0  0  0  0
  188.3740  177.6800  147.2270 N   0  0  0  0  0  0  0  0  0  0  0  0
  184.4420  178.8000  145.8020 C   0  0  0  0  0  3  0  0  0  0  0  0
  189.4900  177.3150  145.1890 C   0  0  0  0  0  0  0  0  0  0  0  0
  184.7940  178.3100  147.1450 C   0  0  0  0  0  3  0  0  0  0  0  0
  189.5000  177.5540  146.5270 N   0  0  0  0  0  0  0  0  0  0  0  0
  187.1530  177.5870  146.6440 C   0  0  0  0  0  0  0  0  0  0  0  0
  185.9700  177.7800  147.5080 C   0  0  0  0  0  3  0  0  0  0  0  0
  190.7850  177.2640  144.4410 C   0  0  2  0  0  3  0  0  0  0  0  0
  190.7800  178.1920  143.3980 O   0  0  0  0  0  1  0  0  0  0  0  0
  193.2670  175.9170  144.5810 N   0  0  0  0  0  2  0  0  0  0  0  0
  192.1890  173.9210  143.3940 C   0  0  0  0  0  1  0  0  0  0  0  0
  192.1260  175.3020  143.9520 C   0  0  0  0  0  0  0  0  0  0  0  0
  190.9880  175.9210  143.9100 N   0  0  0  0  0  0  0  0  0  0  0  0
  196.4490  174.2320  145.6530 C   0  0  0  0  0  0  0  0  0  0  0  0
  196.7720  175.2670  143.4880 C   0  0  0  0  0  3  0  0  0  0  0  0
  196.9350  173.5150  146.6940 F   0  0  0  0  0  0  0  0  0  0  0  0
  195.1260  174.6840  145.6710 C   0  0  0  0  0  3  0  0  0  0  0  0
  195.4510  175.7230  143.5110 C   0  0  0  0  0  3  0  0  0  0  0  0
  194.6200  175.4400  144.6040 C   0  0  0  0  0  0  0  0  0  0  0  0
  197.2710  174.5200  144.5600 C   0  0  0  0  0  3  0  0  0  0  0  0
  188.2730  176.8670  143.0420 C   0  0  1  0  0  3  0  0  0  0  0  0
  187.5610  175.5590  142.7170 C   0  0  0  0  0  2  0  0  0  0  0  0
  188.5170  174.5520  142.2840 N   0  0  0  0  0  2  0  0  0  0  0  0
  187.8050  173.4420  141.9700 O   0  0  0  0  0  1  0  0  0  0  0  0
  187.7340  178.0400  142.2370 C   0  0  0  0  0  2  0  0  0  0  0  0
  185.4530  178.2650  140.9880 C   0  0  0  0  0  1  0  0  0  0  0  0
  187.0360  177.4430  140.6700 S   0  0  0  0  0  0  0  0  0  0  0  0
  1  7  2  0  0  0  0
  1  2  1  0  0  0  0
  2 10  2  0  0  0  0
  3  6  2  0  0  0  0
  4  3  1  0  0  0  0
  4  2  1  0  0  0  0
  6  8  1  0  0  0  0
  7  9  1  0  0  0  0
  8 11  2  0  0  0  0
  9  5  2  0  0  0  0
 10  5  1  0  0  0  0
 10 11  1  0  0  0  0
 12 13  1  6  0  0  0
 12  7  1  0  0  0  0
 14 23  1  0  0  0  0
 15 16  1  0  0  0  0
 16 14  1  0  0  0  0
 17 16  2  0  0  0  0
 17 12  1  0  0  0  0
 18 21  1  0  0  0  0
 18 20  1  0  0  0  0
 19 22  2  0  0  0  0
 19 24  1  0  0  0  0
 22 23  1  0  0  0  0
 23 21  2  0  0  0  0
 24 18  2  0  0  0  0
 25 29  1  6  0  0  0
 25  1  1  0  0  0  0
 26 25  1  0  0  0  0
 27 26  1  0  0  0  0
 28 27  1  0  0  0  0
 31 30  1  0  0  0  0
 31 29  1  0  0  0  0
M  END
>  <MODEL>
3

>  <REMARK>
 VINA RESULT:      -6.6      2.012      2.692
  Name = 
  8 active torsions:
  status: ('A' for Active; 'I' for Inactive)
    1  A    between atoms: N_2  and  C_25
    2  A    between atoms: N_3  and  C_22
    3  A    between atoms: C_4  and  C_12
    4  A    between atoms: C_12  and  C_25
    5  A    between atoms: C_12  and  C_27
    6  A    between atoms: C_15  and  C_21
    7  A    between atoms: C_15  and  N_23
    8  A    between atoms: C_27  and  S_28
                            x       y       z     vdW  Elec       q    Type
                         _______ _______ _______ _____ _____    ______ ____

>  <TORSDO>
F 8

$$$$
=
 OpenBabel11052417423D

 31 33  0  0  1  0  0  0  0  0999 V2000
  187.6580  176.9520  143.9050 C   0  0  0  0  0  0  0  0  0  0  0  0
  186.6710  177.6930  144.5900 C   0  0  0  0  0  0  0  0  0  0  0  0
  186.1280  177.8260  146.9950 C   0  0  0  0  0  3  0  0  0  0  0  0
  186.9860  178.3560  145.8990 C   0  0  0  0  0  2  0  0  0  0  0  0
  185.1880  177.3550  142.7530 N   0  0  0  0  0  0  0  0  0  0  0  0
  184.8060  178.0000  147.0170 C   0  0  0  0  0  3  0  0  0  0  0  0
  187.3430  176.4210  142.6430 C   0  0  0  0  0  0  0  0  0  0  0  0
  184.0260  178.6460  145.9480 C   0  0  0  0  0  3  0  0  0  0  0  0
  186.1180  176.6570  142.1050 N   0  0  0  0  0  0  0  0  0  0  0  0
  185.4050  177.8610  143.9920 C   0  0  0  0  0  0  0  0  0  0  0  0
  184.2900  178.5880  144.6360 C   0  0  0  0  0  3  0  0  0  0  0  0
  188.3200  175.5620  141.9030 C   0  0  2  0  0  3  0  0  0  0  0  0
  188.0840  175.6330  140.5290 O   0  0  0  0  0  1  0  0  0  0  0  0
  190.5160  174.0660  142.8680 N   0  0  0  0  0  2  0  0  0  0  0  0
  188.9340  172.0890  143.2450 C   0  0  0  0  0  1  0  0  0  0  0  0
  189.2020  173.4810  142.7860 C   0  0  0  0  0  0  0  0  0  0  0  0
  188.1990  174.1820  142.3590 N   0  0  0  0  0  0  0  0  0  0  0  0
  193.4380  172.6730  144.7750 C   0  0  0  0  0  0  0  0  0  0  0  0
  193.6830  172.1490  142.4230 C   0  0  0  0  0  3  0  0  0  0  0  0
  193.9070  172.6130  146.0440 F   0  0  0  0  0  0  0  0  0  0  0  0
  192.2340  173.3280  144.5030 C   0  0  0  0  0  3  0  0  0  0  0  0
  192.4810  172.8100  142.1530 C   0  0  0  0  0  3  0  0  0  0  0  0
  191.7510  173.4080  143.1890 C   0  0  0  0  0  0  0  0  0  0  0  0
  194.1610  172.0800  143.7360 C   0  0  0  0  0  3  0  0  0  0  0  0
  189.0350  176.7060  144.4740 C   0  0  1  0  0  3  0  0  0  0  0  0
  189.8770  177.9760  144.4980 C   0  0  0  0  0  2  0  0  0  0  0  0
  190.8470  177.9650  143.4140 N   0  0  0  0  0  2  0  0  0  0  0  0
  191.8880  177.2000  143.8240 O   0  0  0  0  0  1  0  0  0  0  0  0
  188.9620  176.0280  145.8340 C   0  0  0  0  0  2  0  0  0  0  0  0
  190.6910  175.2650  147.6350 C   0  0  0  0  0  1  0  0  0  0  0  0
  190.0940  176.8500  146.9930 S   0  0  0  0  0  0  0  0  0  0  0  0
  1 25  1  0  0  0  0
  1  2  1  0  0  0  0
  2  4  1  0  0  0  0
  3  6  2  0  0  0  0
  4  3  1  0  0  0  0
  5 10  1  0  0  0  0
  7  1  2  0  0  0  0
  8  6  1  0  0  0  0
  9  7  1  0  0  0  0
  9  5  2  0  0  0  0
 10  2  2  0  0  0  0
 10 11  1  0  0  0  0
 11  8  2  0  0  0  0
 12 13  1  6  0  0  0
 12 17  1  0  0  0  0
 12  7  1  0  0  0  0
 14 23  1  0  0  0  0
 16 14  1  0  0  0  0
 16 15  1  0  0  0  0
 17 16  2  0  0  0  0
 18 20  1  0  0  0  0
 19 24  1  0  0  0  0
 21 18  1  0  0  0  0
 22 19  2  0  0  0  0
 22 23  1  0  0  0  0
 23 21  2  0  0  0  0
 24 18  2  0  0  0  0
 25 26  1  1  0  0  0
 25 29  1  0  0  0  0
 27 28  1  0  0  0  0
 27 26  1  0  0  0  0
 29 31  1  0  0  0  0
 31 30  1  0  0  0  0
M  END
>  <MODEL>
4

>  <REMARK>
 VINA RESULT:      -6.6      2.824      4.104
  Name = 
  8 active torsions:
  status: ('A' for Active; 'I' for Inactive)
    1  A    between atoms: N_2  and  C_25
    2  A    between atoms: N_3  and  C_22
    3  A    between atoms: C_4  and  C_12
    4  A    between atoms: C_12  and  C_25
    5  A    between atoms: C_12  and  C_27
    6  A    between atoms: C_15  and  C_21
    7  A    between atoms: C_15  and  N_23
    8  A    between atoms: C_27  and  S_28
                            x       y       z     vdW  Elec       q    Type
                         _______ _______ _______ _____ _____    ______ ____

>  <TORSDO>
F 8

$$$$
=
 OpenBabel11052417423D

 31 33  0  0  1  0  0  0  0  0999 V2000
  187.5170  176.9690  143.7860 C   0  0  0  0  0  0  0  0  0  0  0  0
  186.5570  177.7250  144.4950 C   0  0  0  0  0  0  0  0  0  0  0  0
  185.9370  177.7130  146.8850 C   0  0  0  0  0  3  0  0  0  0  0  0
  186.8690  178.2630  145.8620 C   0  0  0  0  0  2  0  0  0  0  0  0
  185.1230  177.6320  142.5930 N   0  0  0  0  0  0  0  0  0  0  0  0
  184.6310  177.9780  146.8800 C   0  0  0  0  0  3  0  0  0  0  0  0
  187.2130  176.5590  142.4770 C   0  0  0  0  0  0  0  0  0  0  0  0
  183.9360  178.7560  145.8410 C   0  0  0  0  0  3  0  0  0  0  0  0
  186.0270  176.9210  141.9210 N   0  0  0  0  0  0  0  0  0  0  0  0
  185.3290  178.0260  143.8730 C   0  0  0  0  0  0  0  0  0  0  0  0
  184.2430  178.7790  144.5370 C   0  0  0  0  0  3  0  0  0  0  0  0
  188.1560  175.6920  141.7030 C   0  0  2  0  0  3  0  0  0  0  0  0
  187.8520  175.7420  140.3410 O   0  0  0  0  0  1  0  0  0  0  0  0
  190.4100  174.0150  142.0060 N   0  0  0  0  0  2  0  0  0  0  0  0
  188.8520  172.1610  142.8370 C   0  0  0  0  0  1  0  0  0  0  0  0
  189.0860  173.5360  142.3090 C   0  0  0  0  0  0  0  0  0  0  0  0
  188.0620  174.3190  142.1840 N   0  0  0  0  0  0  0  0  0  0  0  0
  193.1920  171.7760  140.8370 C   0  0  0  0  0  0  0  0  0  0  0  0
  193.6940  172.5970  143.0590 C   0  0  0  0  0  3  0  0  0  0  0  0
  193.5290  171.0270  139.7600 F   0  0  0  0  0  0  0  0  0  0  0  0
  191.9920  172.4930  140.8440 C   0  0  0  0  0  3  0  0  0  0  0  0
  192.4910  173.3090  143.0670 C   0  0  0  0  0  3  0  0  0  0  0  0
  191.6290  173.2580  141.9620 C   0  0  0  0  0  0  0  0  0  0  0  0
  194.0450  171.8300  141.9430 C   0  0  0  0  0  3  0  0  0  0  0  0
  188.8520  176.5850  144.3760 C   0  0  1  0  0  3  0  0  0  0  0  0
  189.7380  177.8000  144.6240 C   0  0  0  0  0  2  0  0  0  0  0  0
  190.4390  178.1770  143.4070 N   0  0  0  0  0  2  0  0  0  0  0  0
  191.2160  177.1230  143.0570 O   0  0  0  0  0  1  0  0  0  0  0  0
  188.6830  175.7220  145.6180 C   0  0  0  0  0  2  0  0  0  0  0  0
  190.4620  175.3170  147.4850 C   0  0  0  0  0  1  0  0  0  0  0  0
  190.1380  174.6560  145.8300 S   0  0  0  0  0  0  0  0  0  0  0  0
  1 25  1  0  0  0  0
  1  2  1  0  0  0  0
  2  4  1  0  0  0  0
  4  3  1  0  0  0  0
  5 10  1  0  0  0  0
  6  3  2  0  0  0  0
  7  1  2  0  0  0  0
  8  6  1  0  0  0  0
  9  7  1  0  0  0  0
  9  5  2  0  0  0  0
 10  2  2  0  0  0  0
 10 11  1  0  0  0  0
 11  8  2  0  0  0  0
 12 13  1  6  0  0  0
 12 17  1  0  0  0  0
 12  7  1  0  0  0  0
 14 16  1  0  0  0  0
 16 15  1  0  0  0  0
 17 16  2  0  0  0  0
 18 21  2  0  0  0  0
 18 24  1  0  0  0  0
 19 22  1  0  0  0  0
 20 18  1  0  0  0  0
 21 23  1  0  0  0  0
 23 14  1  0  0  0  0
 23 22  2  0  0  0  0
 24 19  2  0  0  0  0
 25 26  1  1  0  0  0
 25 29  1  0  0  0  0
 27 26  1  0  0  0  0
 28 27  1  0  0  0  0
 29 31  1  0  0  0  0
 31 30  1  0  0  0  0
M  END
>  <MODEL>
5

>  <REMARK>
 VINA RESULT:      -6.5      3.142      4.415
  Name = 
  8 active torsions:
  status: ('A' for Active; 'I' for Inactive)
    1  A    between atoms: N_2  and  C_25
    2  A    between atoms: N_3  and  C_22
    3  A    between atoms: C_4  and  C_12
    4  A    between atoms: C_12  and  C_25
    5  A    between atoms: C_12  and  C_27
    6  A    between atoms: C_15  and  C_21
    7  A    between atoms: C_15  and  N_23
    8  A    between atoms: C_27  and  S_28
                            x       y       z     vdW  Elec       q    Type
                         _______ _______ _______ _____ _____    ______ ____

>  <TORSDO>
F 8

$$$$
=
 OpenBabel11052417423D

 31 33  0  0  1  0  0  0  0  0999 V2000
  192.5230  174.7210  145.1840 C   0  0  0  0  0  0  0  0  0  0  0  0
  193.8140  174.2590  144.8450 C   0  0  0  0  0  0  0  0  0  0  0  0
  195.7110  175.4120  143.7650 C   0  0  0  0  0  3  0  0  0  0  0  0
  195.0160  175.1340  145.0520 C   0  0  0  0  0  2  0  0  0  0  0  0
  192.8780  172.1300  144.3150 N   0  0  0  0  0  0  0  0  0  0  0  0
  196.3030  174.4570  143.0490 C   0  0  0  0  0  3  0  0  0  0  0  0
  191.4390  173.8370  145.0540 C   0  0  0  0  0  0  0  0  0  0  0  0
  196.2770  173.0220  143.3810 C   0  0  0  0  0  3  0  0  0  0  0  0
  191.6610  172.5630  144.6360 N   0  0  0  0  0  0  0  0  0  0  0  0
  193.9650  172.9380  144.3760 C   0  0  0  0  0  0  0  0  0  0  0  0
  195.2630  172.3660  143.9600 C   0  0  0  0  0  3  0  0  0  0  0  0
  190.0390  174.2910  145.3240 C   0  0  2  0  0  3  0  0  0  0  0  0
  189.3180  173.2830  145.9660 O   0  0  0  0  0  1  0  0  0  0  0  0
  187.9870  176.2270  145.1450 N   0  0  0  0  0  2  0  0  0  0  0  0
  187.8750  175.7970  142.6230 C   0  0  0  0  0  1  0  0  0  0  0  0
  188.4350  175.5150  143.9760 C   0  0  0  0  0  0  0  0  0  0  0  0
  189.3890  174.6420  144.0670 N   0  0  0  0  0  0  0  0  0  0  0  0
  185.6660  179.1350  144.6200 C   0  0  0  0  0  0  0  0  0  0  0  0
  184.7180  177.6290  146.2640 C   0  0  0  0  0  3  0  0  0  0  0  0
  185.5880  180.2730  143.8910 F   0  0  0  0  0  0  0  0  0  0  0  0
  186.7750  178.2940  144.4900 C   0  0  0  0  0  3  0  0  0  0  0  0
  185.8310  176.7930  146.1360 C   0  0  0  0  0  3  0  0  0  0  0  0
  186.8690  177.1210  145.2540 C   0  0  0  0  0  0  0  0  0  0  0  0
  184.6360  178.8010  145.5040 C   0  0  0  0  0  3  0  0  0  0  0  0
  192.2620  176.1230  145.6790 C   0  0  1  0  0  3  0  0  0  0  0  0
  192.7220  176.3140  147.1200 C   0  0  0  0  0  2  0  0  0  0  0  0
  191.5790  176.4420  148.0090 N   0  0  0  0  0  2  0  0  0  0  0  0
  190.5760  176.9940  147.2840 O   0  0  0  0  0  1  0  0  0  0  0  0
  192.8470  177.1640  144.7370 C   0  0  0  0  0  2  0  0  0  0  0  0
  190.6580  178.2920  143.8710 C   0  0  0  0  0  1  0  0  0  0  0  0
  191.9110  177.1810  143.1800 S   0  0  0  0  0  0  0  0  0  0  0  0
  1 25  1  0  0  0  0
  2  4  1  0  0  0  0
  2  1  2  0  0  0  0
  3  4  1  0  0  0  0
  5 10  2  0  0  0  0
  5  9  1  0  0  0  0
  6  8  1  0  0  0  0
  6  3  2  0  0  0  0
  7  1  1  0  0  0  0
  7 12  1  0  0  0  0
  8 11  2  0  0  0  0
  9  7  2  0  0  0  0
 10  2  1  0  0  0  0
 11 10  1  0  0  0  0
 12 13  1  6  0  0  0
 14 23  1  0  0  0  0
 15 16  1  0  0  0  0
 16 17  2  0  0  0  0
 16 14  1  0  0  0  0
 17 12  1  0  0  0  0
 18 24  1  0  0  0  0
 20 18  1  0  0  0  0
 21 18  2  0  0  0  0
 21 23  1  0  0  0  0
 22 19  1  0  0  0  0
 23 22  2  0  0  0  0
 24 19  2  0  0  0  0
 25 29  1  6  0  0  0
 25 26  1  0  0  0  0
 26 27  1  0  0  0  0
 28 27  1  0  0  0  0
 31 30  1  0  0  0  0
 31 29  1  0  0  0  0
M  END
>  <MODEL>
6

>  <REMARK>
 VINA RESULT:      -6.3      2.644      8.077
  Name = 
  8 active torsions:
  status: ('A' for Active; 'I' for Inactive)
    1  A    between atoms: N_2  and  C_25
    2  A    between atoms: N_3  and  C_22
    3  A    between atoms: C_4  and  C_12
    4  A    between atoms: C_12  and  C_25
    5  A    between atoms: C_12  and  C_27
    6  A    between atoms: C_15  and  C_21
    7  A    between atoms: C_15  and  N_23
    8  A    between atoms: C_27  and  S_28
                            x       y       z     vdW  Elec       q    Type
                         _______ _______ _______ _____ _____    ______ ____

>  <TORSDO>
F 8

$$$$
=
 OpenBabel11052417423D

 31 33  0  0  1  0  0  0  0  0999 V2000
  193.1340  174.2530  144.4370 C   0  0  0  0  0  0  0  0  0  0  0  0
  194.3710  173.6330  144.7200 C   0  0  0  0  0  0  0  0  0  0  0  0
  194.9590  171.2520  145.0000 C   0  0  0  0  0  3  0  0  0  0  0  0
  194.7620  172.3610  144.0260 C   0  0  0  0  0  2  0  0  0  0  0  0
  194.9370  175.4740  146.1260 N   0  0  0  0  0  0  0  0  0  0  0  0
  195.9290  171.2660  145.9150 C   0  0  0  0  0  3  0  0  0  0  0  0
  192.8480  175.4860  145.0460 C   0  0  0  0  0  0  0  0  0  0  0  0
  196.8570  172.3870  146.1380 C   0  0  0  0  0  3  0  0  0  0  0  0
  193.7710  176.0610  145.8600 N   0  0  0  0  0  0  0  0  0  0  0  0
  195.2640  174.2650  145.6090 C   0  0  0  0  0  0  0  0  0  0  0  0
  196.5680  173.6880  146.0000 C   0  0  0  0  0  3  0  0  0  0  0  0
  191.5230  176.1540  144.8470 C   0  0  2  0  0  3  0  0  0  0  0  0
  191.5960  177.0730  143.7990 O   0  0  0  0  0  1  0  0  0  0  0  0
  188.8560  176.9110  145.3960 N   0  0  0  0  0  2  0  0  0  0  0  0
  189.6440  177.8630  147.6380 C   0  0  0  0  0  1  0  0  0  0  0  0
  189.9130  177.2000  146.3300 C   0  0  0  0  0  0  0  0  0  0  0  0
  191.1300  176.8320  146.0770 N   0  0  0  0  0  0  0  0  0  0  0  0
  185.6710  178.7820  144.7110 C   0  0  0  0  0  0  0  0  0  0  0  0
  185.2730  177.1040  146.4100 C   0  0  0  0  0  3  0  0  0  0  0  0
  185.2150  179.7910  143.9290 F   0  0  0  0  0  0  0  0  0  0  0  0
  187.0090  178.3860  144.6330 C   0  0  0  0  0  3  0  0  0  0  0  0
  186.6130  176.7120  146.3350 C   0  0  0  0  0  3  0  0  0  0  0  0
  187.4910  177.3530  145.4510 C   0  0  0  0  0  0  0  0  0  0  0  0
  184.8020  178.1390  145.5960 C   0  0  0  0  0  3  0  0  0  0  0  0
  192.1090  173.6440  143.5120 C   0  0  1  0  0  3  0  0  0  0  0  0
  192.6410  173.4930  142.0910 C   0  0  0  0  0  2  0  0  0  0  0  0
  191.5860  173.7390  141.1220 N   0  0  0  0  0  2  0  0  0  0  0  0
  190.7910  174.7060  141.6410 O   0  0  0  0  0  1  0  0  0  0  0  0
  191.5590  172.3400  144.0700 C   0  0  0  0  0  2  0  0  0  0  0  0
  189.1750  171.9170  143.0970 C   0  0  0  0  0  1  0  0  0  0  0  0
  189.8510  172.5850  144.6390 S   0  0  0  0  0  0  0  0  0  0  0  0
  1  2  2  0  0  0  0
  1  7  1  0  0  0  0
  2 10  1  0  0  0  0
  3  6  2  0  0  0  0
  4  2  1  0  0  0  0
  4  3  1  0  0  0  0
  6  8  1  0  0  0  0
  7  9  2  0  0  0  0
  9  5  1  0  0  0  0
 10 11  1  0  0  0  0
 10  5  2  0  0  0  0
 11  8  2  0  0  0  0
 12 13  1  6  0  0  0
 12  7  1  0  0  0  0
 12 17  1  0  0  0  0
 14 23  1  0  0  0  0
 14 16  1  0  0  0  0
 16 15  1  0  0  0  0
 17 16  2  0  0  0  0
 18 24  1  0  0  0  0
 20 18  1  0  0  0  0
 21 18  2  0  0  0  0
 21 23  1  0  0  0  0
 22 19  1  0  0  0  0
 23 22  2  0  0  0  0
 24 19  2  0  0  0  0
 25 26  1  6  0  0  0
 25 29  1  0  0  0  0
 25  1  1  0  0  0  0
 27 28  1  0  0  0  0
 27 26  1  0  0  0  0
 29 31  1  0  0  0  0
 30 31  1  0  0  0  0
M  END
>  <MODEL>
7

>  <REMARK>
 VINA RESULT:      -6.3      3.213      8.207
  Name = 
  8 active torsions:
  status: ('A' for Active; 'I' for Inactive)
    1  A    between atoms: N_2  and  C_25
    2  A    between atoms: N_3  and  C_22
    3  A    between atoms: C_4  and  C_12
    4  A    between atoms: C_12  and  C_25
    5  A    between atoms: C_12  and  C_27
    6  A    between atoms: C_15  and  C_21
    7  A    between atoms: C_15  and  N_23
    8  A    between atoms: C_27  and  S_28
                            x       y       z     vdW  Elec       q    Type
                         _______ _______ _______ _____ _____    ______ ____

>  <TORSDO>
F 8

$$$$
=
 OpenBabel11052417423D

 31 33  0  0  1  0  0  0  0  0999 V2000
  191.1720  174.6800  144.3420 C   0  0  0  0  0  0  0  0  0  0  0  0
  192.5360  175.0110  144.4930 C   0  0  0  0  0  0  0  0  0  0  0  0
  193.8780  175.4430  146.5200 C   0  0  0  0  0  3  0  0  0  0  0  0
  193.3510  174.4000  145.5960 C   0  0  0  0  0  2  0  0  0  0  0  0
  192.4110  176.3080  142.4960 N   0  0  0  0  0  0  0  0  0  0  0  0
  194.7590  176.3640  146.1320 C   0  0  0  0  0  3  0  0  0  0  0  0
  190.4710  175.2090  143.2450 C   0  0  0  0  0  0  0  0  0  0  0  0
  195.2520  176.5270  144.7540 C   0  0  0  0  0  3  0  0  0  0  0  0
  191.1250  175.9950  142.3500 N   0  0  0  0  0  0  0  0  0  0  0  0
  193.1400  175.8690  143.5520 C   0  0  0  0  0  0  0  0  0  0  0  0
  194.5490  176.3080  143.6350 C   0  0  0  0  0  3  0  0  0  0  0  0
  189.0060  174.9570  143.0720 C   0  0  2  0  0  3  0  0  0  0  0  0
  188.7960  173.9310  142.1490 O   0  0  0  0  0  1  0  0  0  0  0  0
  187.5350  176.6450  144.7970 N   0  0  0  0  0  2  0  0  0  0  0  0
  187.0640  178.1810  142.8040 C   0  0  0  0  0  1  0  0  0  0  0  0
  187.6600  176.9490  143.3950 C   0  0  0  0  0  0  0  0  0  0  0  0
  188.3520  176.1780  142.6170 N   0  0  0  0  0  0  0  0  0  0  0  0
  186.4180  178.6820  147.7500 C   0  0  0  0  0  0  0  0  0  0  0  0
  184.4790  177.8600  146.5550 C   0  0  0  0  0  3  0  0  0  0  0  0
  186.9510  179.3840  148.7790 F   0  0  0  0  0  0  0  0  0  0  0  0
  187.2550  178.0470  146.8280 C   0  0  0  0  0  3  0  0  0  0  0  0
  185.3180  177.2210  145.6370 C   0  0  0  0  0  3  0  0  0  0  0  0
  186.7110  177.3060  145.7690 C   0  0  0  0  0  0  0  0  0  0  0  0
  185.0310  178.5920  147.6120 C   0  0  0  0  0  3  0  0  0  0  0  0
  190.4370  173.7830  145.3080 C   0  0  1  0  0  3  0  0  0  0  0  0
  189.3140  174.5200  146.0290 C   0  0  0  0  0  2  0  0  0  0  0  0
  189.7380  174.9160  147.3630 N   0  0  0  0  0  2  0  0  0  0  0  0
  190.2920  176.1470  147.2510 O   0  0  0  0  0  1  0  0  0  0  0  0
  189.9570  172.5080  144.6300 C   0  0  0  0  0  2  0  0  0  0  0  0
  190.5810  171.2010  142.4590 C   0  0  0  0  0  1  0  0  0  0  0  0
  191.3840  171.5470  144.0450 S   0  0  0  0  0  0  0  0  0  0  0  0
  1  2  1  0  0  0  0
  1 25  1  0  0  0  0
  2  4  1  0  0  0  0
  4  3  1  0  0  0  0
  5 10  1  0  0  0  0
  6  3  2  0  0  0  0
  7  1  2  0  0  0  0
  8  6  1  0  0  0  0
  9  5  2  0  0  0  0
  9  7  1  0  0  0  0
 10 11  1  0  0  0  0
 10  2  2  0  0  0  0
 11  8  2  0  0  0  0
 12 13  1  6  0  0  0
 12  7  1  0  0  0  0
 14 23  1  0  0  0  0
 15 16  1  0  0  0  0
 16 14  1  0  0  0  0
 17 12  1  0  0  0  0
 17 16  2  0  0  0  0
 18 20  1  0  0  0  0
 19 24  2  0  0  0  0
 21 18  2  0  0  0  0
 22 23  2  0  0  0  0
 22 19  1  0  0  0  0
 23 21  1  0  0  0  0
 24 18  1  0  0  0  0
 25 29  1  6  0  0  0
 25 26  1  0  0  0  0
 26 27  1  0  0  0  0
 28 27  1  0  0  0  0
 30 31  1  0  0  0  0
 31 29  1  0  0  0  0
M  END
>  <MODEL>
8

>  <REMARK>
 VINA RESULT:      -6.3      3.003      7.717
  Name = 
  8 active torsions:
  status: ('A' for Active; 'I' for Inactive)
    1  A    between atoms: N_2  and  C_25
    2  A    between atoms: N_3  and  C_22
    3  A    between atoms: C_4  and  C_12
    4  A    between atoms: C_12  and  C_25
    5  A    between atoms: C_12  and  C_27
    6  A    between atoms: C_15  and  C_21
    7  A    between atoms: C_15  and  N_23
    8  A    between atoms: C_27  and  S_28
                            x       y       z     vdW  Elec       q    Type
                         _______ _______ _______ _____ _____    ______ ____

>  <TORSDO>
F 8

$$$$
=
 OpenBabel11052417423D

 31 33  0  0  1  0  0  0  0  0999 V2000
  192.4580  174.4930  144.2460 C   0  0  0  0  0  0  0  0  0  0  0  0
  193.6030  173.6940  144.4540 C   0  0  0  0  0  0  0  0  0  0  0  0
  193.8240  171.2910  144.9770 C   0  0  0  0  0  3  0  0  0  0  0  0
  193.6740  172.3030  143.8940 C   0  0  0  0  0  2  0  0  0  0  0  0
  194.6620  175.5460  145.5200 N   0  0  0  0  0  0  0  0  0  0  0  0
  194.9040  171.2300  145.7560 C   0  0  0  0  0  3  0  0  0  0  0  0
  192.4700  175.8180  144.7140 C   0  0  0  0  0  0  0  0  0  0  0  0
  196.0270  172.1810  145.7100 C   0  0  0  0  0  3  0  0  0  0  0  0
  193.5840  176.3020  145.3230 N   0  0  0  0  0  0  0  0  0  0  0  0
  194.7080  174.2470  145.1340 C   0  0  0  0  0  0  0  0  0  0  0  0
  195.9410  173.4890  145.4350 C   0  0  0  0  0  3  0  0  0  0  0  0
  191.2590  176.6890  144.5910 C   0  0  2  0  0  3  0  0  0  0  0  0
  191.5210  177.7660  143.7420 O   0  0  0  0  0  1  0  0  0  0  0  0
  188.5780  177.2210  145.3110 N   0  0  0  0  0  2  0  0  0  0  0  0
  189.3960  177.9130  147.6360 C   0  0  0  0  0  1  0  0  0  0  0  0
  189.6520  177.4420  146.2450 C   0  0  0  0  0  0  0  0  0  0  0  0
  190.8760  177.1780  145.9100 N   0  0  0  0  0  0  0  0  0  0  0  0
  185.2700  178.9620  144.9360 C   0  0  0  0  0  0  0  0  0  0  0  0
  185.0390  177.1110  146.4800 C   0  0  0  0  0  3  0  0  0  0  0  0
  184.7270  180.0110  144.2730 F   0  0  0  0  0  0  0  0  0  0  0  0
  186.6220  178.6520  144.7670 C   0  0  0  0  0  3  0  0  0  0  0  0
  186.3940  176.8060  146.3140 C   0  0  0  0  0  3  0  0  0  0  0  0
  187.1960  177.5770  145.4620 C   0  0  0  0  0  0  0  0  0  0  0  0
  184.4770  178.1900  145.7890 C   0  0  0  0  0  3  0  0  0  0  0  0
  191.2230  173.9830  143.5430 C   0  0  1  0  0  3  0  0  0  0  0  0
  190.0080  173.9660  144.4640 C   0  0  0  0  0  2  0  0  0  0  0  0
  189.7370  172.6150  144.9260 N   0  0  0  0  0  2  0  0  0  0  0  0
  189.7070  171.8210  143.8290 O   0  0  0  0  0  1  0  0  0  0  0  0
  190.9650  174.7410  142.2500 C   0  0  0  0  0  2  0  0  0  0  0  0
  189.1320  173.8450  140.6220 C   0  0  0  0  0  1  0  0  0  0  0  0
  189.1790  174.9880  142.0260 S   0  0  0  0  0  0  0  0  0  0  0  0
  1  2  2  0  0  0  0
  1  7  1  0  0  0  0
  2 10  1  0  0  0  0
  3  6  2  0  0  0  0
  4  2  1  0  0  0  0
  4  3  1  0  0  0  0
  7  9  2  0  0  0  0
  8  6  1  0  0  0  0
  9  5  1  0  0  0  0
 10 11  1  0  0  0  0
 10  5  2  0  0  0  0
 11  8  2  0  0  0  0
 12 13  1  6  0  0  0
 12  7  1  0  0  0  0
 12 17  1  0  0  0  0
 14 23  1  0  0  0  0
 14 16  1  0  0  0  0
 16 15  1  0  0  0  0
 17 16  2  0  0  0  0
 18 24  1  0  0  0  0
 20 18  1  0  0  0  0
 21 18  2  0  0  0  0
 21 23  1  0  0  0  0
 22 19  1  0  0  0  0
 23 22  2  0  0  0  0
 24 19  2  0  0  0  0
 25 29  1  6  0  0  0
 25  1  1  0  0  0  0
 25 26  1  0  0  0  0
 26 27  1  0  0  0  0
 28 27  1  0  0  0  0
 30 31  1  0  0  0  0
 31 29  1  0  0  0  0
M  END
>  <MODEL>
9

>  <REMARK>
 VINA RESULT:      -6.2      3.145      7.935
  Name = 
  8 active torsions:
  status: ('A' for Active; 'I' for Inactive)
    1  A    between atoms: N_2  and  C_25
    2  A    between atoms: N_3  and  C_22
    3  A    between atoms: C_4  and  C_12
    4  A    between atoms: C_12  and  C_25
    5  A    between atoms: C_12  and  C_27
    6  A    between atoms: C_15  and  C_21
    7  A    between atoms: C_15  and  N_23
    8  A    between atoms: C_27  and  S_28
                            x       y       z     vdW  Elec       q    Type
                         _______ _______ _______ _____ _____    ______ ____

>  <TORSDO>
F 8

$$$$
