=
 OpenBabel11052418033D

 28 31  0  0  1  0  0  0  0  0999 V2000
  190.7480  174.1920  144.7430 C   0  0  2  0  0  3  0  0  0  0  0  0
  190.2620  173.2210  140.5720 C   0  0  0  0  0  1  0  0  0  0  0  0
  187.6400  176.1580  143.6710 C   0  0  0  0  0  0  0  0  0  0  0  0
  189.2580  174.0850  142.6440 N   0  0  0  0  0  0  0  0  0  0  0  0
  188.7870  175.6230  144.4370 C   0  0  0  0  0  3  0  0  0  0  0  0
  191.4600  172.9150  142.7090 C   0  0  0  0  0  2  0  0  0  0  0  0
  187.9120  174.2600  142.0860 C   0  0  0  0  0  2  0  0  0  0  0  0
  190.0810  173.0120  142.0650 C   0  0  2  0  0  3  0  0  0  0  0  0
  187.2680  175.5390  142.5440 C   0  0  0  0  0  3  0  0  0  0  0  0
  191.3280  172.8770  144.2210 C   0  0  0  0  0  2  0  0  0  0  0  0
  189.5510  174.6440  143.9470 C   0  0  0  0  0  0  0  0  0  0  0  0
  186.5860  177.4490  145.4360 C   0  0  0  0  0  3  0  0  0  0  0  0
  185.5090  179.2160  143.1860 C   0  0  0  0  0  3  0  0  0  0  0  0
  184.5630  178.8360  145.4570 C   0  0  0  0  0  0  0  0  0  0  0  0
  186.9250  177.3760  144.1400 C   0  0  0  0  0  0  0  0  0  0  0  0
  187.5110  178.7170  142.1760 F   0  0  0  0  0  0  0  0  0  0  0  0
  184.4130  179.1560  144.1730 C   0  0  0  0  0  3  0  0  0  0  0  0
  186.6340  178.4880  143.1850 C   0  0  0  0  0  0  0  0  0  0  0  0
  183.4730  178.7990  146.2590 F   0  0  0  0  0  0  0  0  0  0  0  0
  185.9110  178.6230  146.0600 C   0  0  0  0  0  2  0  0  0  0  0  0
  191.7990  175.3060  144.9120 C   0  0  2  0  0  3  0  0  0  0  0  0
  192.5600  175.5940  143.6480 C   0  0  0  0  0  3  0  0  0  0  0  0
  194.0060  175.8030  146.0980 N   0  0  0  0  0  0  0  0  0  0  0  0
  193.6590  176.3410  143.7200 C   0  0  0  0  0  3  0  0  0  0  0  0
  192.0210  175.2470  147.4120 C   0  0  0  0  0  1  0  0  0  0  0  0
  192.7480  175.0250  146.0980 C   0  0  1  0  0  3  0  0  0  0  0  0
  195.3430  174.6670  145.8640 S   0  0  0  0  0  1  0  0  0  0  0  0
  194.0910  176.8490  145.0650 C   0  0  0  0  0  2  0  0  0  0  0  0
  1 10  1  6  0  0  0
  1 21  1  0  0  0  0
  3 15  1  0  0  0  0
  3  5  1  0  0  0  0
  4 11  1  0  0  0  0
  6 10  1  0  0  0  0
  7  9  1  0  0  0  0
  7  4  1  0  0  0  0
  8  2  1  6  0  0  0
  8  4  1  0  0  0  0
  8  6  1  0  0  0  0
  9  3  2  0  0  0  0
 11  5  2  0  0  0  0
 11  1  1  0  0  0  0
 12 20  1  0  0  0  0
 13 17  1  0  0  0  0
 14 20  1  0  0  0  0
 14 19  1  0  0  0  0
 15 12  2  0  0  0  0
 16 18  1  0  0  0  0
 17 14  2  0  0  0  0
 18 13  2  0  0  0  0
 18 15  1  0  0  0  0
 21 22  1  6  0  0  0
 21 26  1  0  0  0  0
 22 24  2  0  0  0  0
 23 26  1  0  0  0  0
 24 28  1  0  0  0  0
 26 25  1  1  0  0  0
 27 23  1  0  0  0  0
 28 23  1  0  0  0  0
M  END
>  <MODEL>
1

>  <REMARK>
 VINA RESULT:      -8.5      0.000      0.000
  Name = 
  2 active torsions:
  status: ('A' for Active; 'I' for Inactive)
    1  A    between atoms: C_1  and  C_2
    2  A    between atoms: C_10  and  C_13
                            x       y       z     vdW  Elec       q    Type
                         _______ _______ _______ _____ _____    ______ ____

>  <TORSDO>
F 2

$$$$
=
 OpenBabel11052418033D

 28 31  0  0  1  0  0  0  0  0999 V2000
  191.0020  175.3990  142.9500 C   0  0  2  0  0  3  0  0  0  0  0  0
  192.7470  175.4160  146.8910 C   0  0  0  0  0  1  0  0  0  0  0  0
  188.3180  176.9990  145.1640 C   0  0  0  0  0  0  0  0  0  0  0  0
  191.0500  176.3170  145.3560 N   0  0  0  0  0  0  0  0  0  0  0  0
  189.0440  176.3970  144.0250 C   0  0  0  0  0  3  0  0  0  0  0  0
  192.9370  174.9450  144.4750 C   0  0  0  0  0  2  0  0  0  0  0  0
  190.5070  177.2960  146.3050 C   0  0  0  0  0  2  0  0  0  0  0  0
  192.4720  175.9690  145.5040 C   0  0  2  0  0  3  0  0  0  0  0  0
  189.0070  177.3730  146.2480 C   0  0  0  0  0  3  0  0  0  0  0  0
  192.5260  175.3820  143.0810 C   0  0  0  0  0  2  0  0  0  0  0  0
  190.3370  176.0750  144.1200 C   0  0  0  0  0  0  0  0  0  0  0  0
  186.2840  177.4740  143.9280 C   0  0  0  0  0  3  0  0  0  0  0  0
  184.9410  177.6890  146.6660 C   0  0  0  0  0  3  0  0  0  0  0  0
  184.2780  178.7580  144.5180 C   0  0  0  0  0  0  0  0  0  0  0  0
  186.8400  177.1650  145.1090 C   0  0  0  0  0  0  0  0  0  0  0  0
  186.4330  176.0420  147.2470 F   0  0  0  0  0  0  0  0  0  0  0  0
  184.2960  178.7360  145.8500 C   0  0  0  0  0  3  0  0  0  0  0  0
  186.0160  176.9570  146.3380 C   0  0  0  0  0  0  0  0  0  0  0  0
  183.6670  179.7860  143.8840 F   0  0  0  0  0  0  0  0  0  0  0  0
  184.8160  177.6270  143.7080 C   0  0  0  0  0  2  0  0  0  0  0  0
  190.3950  174.0170  142.6420 C   0  0  2  0  0  3  0  0  0  0  0  0
  190.0760  173.2250  143.8780 C   0  0  0  0  0  3  0  0  0  0  0  0
  190.9950  171.7590  141.6110 N   0  0  0  0  0  0  0  0  0  0  0  0
  189.7910  171.9310  143.7530 C   0  0  0  0  0  3  0  0  0  0  0  0
  191.1520  173.7900  140.2580 C   0  0  0  0  0  1  0  0  0  0  0  0
  191.2710  173.2110  141.6570 C   0  0  1  0  0  3  0  0  0  0  0  0
  192.4210  170.9190  142.2380 S   0  0  0  0  0  1  0  0  0  0  0  0
  189.8160  171.3240  142.3790 C   0  0  0  0  0  2  0  0  0  0  0  0
  1 10  1  1  0  0  0
  1 11  1  0  0  0  0
  3  9  2  0  0  0  0
  4  8  1  0  0  0  0
  4  7  1  0  0  0  0
  5 11  2  0  0  0  0
  5  3  1  0  0  0  0
  6  8  1  0  0  0  0
  8  2  1  1  0  0  0
  9  7  1  0  0  0  0
 10  6  1  0  0  0  0
 11  4  1  0  0  0  0
 12 15  2  0  0  0  0
 14 17  2  0  0  0  0
 15  3  1  0  0  0  0
 15 18  1  0  0  0  0
 17 13  1  0  0  0  0
 18 13  2  0  0  0  0
 18 16  1  0  0  0  0
 19 14  1  0  0  0  0
 20 12  1  0  0  0  0
 20 14  1  0  0  0  0
 21  1  1  0  0  0  0
 21 22  1  1  0  0  0
 23 26  1  0  0  0  0
 23 27  1  0  0  0  0
 23 28  1  0  0  0  0
 24 22  2  0  0  0  0
 26 25  1  6  0  0  0
 26 21  1  0  0  0  0
 28 24  1  0  0  0  0
M  END
>  <MODEL>
2

>  <REMARK>
 VINA RESULT:      -7.7      2.115      4.357
  Name = 
  2 active torsions:
  status: ('A' for Active; 'I' for Inactive)
    1  A    between atoms: C_1  and  C_2
    2  A    between atoms: C_10  and  C_13
                            x       y       z     vdW  Elec       q    Type
                         _______ _______ _______ _____ _____    ______ ____

>  <TORSDO>
F 2

$$$$
=
 OpenBabel11052418033D

 28 31  0  0  1  0  0  0  0  0999 V2000
  192.5410  176.7210  144.2730 C   0  0  2  0  0  3  0  0  0  0  0  0
  191.2300  175.1030  148.0470 C   0  0  0  0  0  1  0  0  0  0  0  0
  188.8800  177.8140  144.5490 C   0  0  0  0  0  0  0  0  0  0  0  0
  190.8670  176.7210  146.2300 N   0  0  0  0  0  0  0  0  0  0  0  0
  190.2490  177.5510  144.0550 C   0  0  0  0  0  3  0  0  0  0  0  0
  193.0270  175.4860  146.3980 C   0  0  0  0  0  2  0  0  0  0  0  0
  189.7080  177.3730  146.8520 C   0  0  0  0  0  2  0  0  0  0  0  0
  191.8680  176.1410  147.1390 C   0  0  2  0  0  3  0  0  0  0  0  0
  188.6260  177.6800  145.8560 C   0  0  0  0  0  3  0  0  0  0  0  0
  193.5840  176.4390  145.3550 C   0  0  0  0  0  2  0  0  0  0  0  0
  191.1870  177.0330  144.8530 C   0  0  0  0  0  0  0  0  0  0  0  0
  186.6540  178.6740  144.1090 C   0  0  0  0  0  3  0  0  0  0  0  0
  187.0920  177.7000  141.2440 C   0  0  0  0  0  3  0  0  0  0  0  0
  184.9490  178.0250  142.4680 C   0  0  0  0  0  0  0  0  0  0  0  0
  187.8010  178.2010  143.6000 C   0  0  0  0  0  0  0  0  0  0  0  0
  189.2760  178.2870  141.6460 F   0  0  0  0  0  0  0  0  0  0  0  0
  185.6670  177.4290  141.5180 C   0  0  0  0  0  3  0  0  0  0  0  0
  188.0230  178.0890  142.1260 C   0  0  0  0  0  0  0  0  0  0  0  0
  183.6510  177.6760  142.6310 F   0  0  0  0  0  0  0  0  0  0  0  0
  185.5030  179.1440  143.2830 C   0  0  0  0  0  2  0  0  0  0  0  0
  192.4800  175.6380  143.1790 C   0  0  2  0  0  3  0  0  0  0  0  0
  191.6430  174.4520  143.5690 C   0  0  0  0  0  3  0  0  0  0  0  0
  193.9500  173.9310  141.9760 N   0  0  0  0  0  0  0  0  0  0  0  0
  191.7160  173.3470  142.8320 C   0  0  0  0  0  3  0  0  0  0  0  0
  194.5110  176.3080  141.8630 C   0  0  0  0  0  1  0  0  0  0  0  0
  193.8890  175.2120  142.7110 C   0  0  1  0  0  3  0  0  0  0  0  0
  194.8620  172.7830  142.9690 S   0  0  0  0  0  1  0  0  0  0  0  0
  192.6430  173.3360  141.6500 C   0  0  0  0  0  2  0  0  0  0  0  0
  1 11  1  0  0  0  0
  1 10  1  1  0  0  0
  3  9  2  0  0  0  0
  4  7  1  0  0  0  0
  4  8  1  0  0  0  0
  5  3  1  0  0  0  0
  5 11  2  0  0  0  0
  6  8  1  0  0  0  0
  8  2  1  6  0  0  0
  9  7  1  0  0  0  0
 10  6  1  0  0  0  0
 11  4  1  0  0  0  0
 13 17  1  0  0  0  0
 13 18  2  0  0  0  0
 14 19  1  0  0  0  0
 14 20  1  0  0  0  0
 15 12  2  0  0  0  0
 15  3  1  0  0  0  0
 16 18  1  0  0  0  0
 17 14  2  0  0  0  0
 18 15  1  0  0  0  0
 20 12  1  0  0  0  0
 21 22  1  1  0  0  0
 21  1  1  0  0  0  0
 23 26  1  0  0  0  0
 23 27  1  0  0  0  0
 24 22  2  0  0  0  0
 26 25  1  6  0  0  0
 26 21  1  0  0  0  0
 28 23  1  0  0  0  0
 28 24  1  0  0  0  0
M  END
>  <MODEL>
3

>  <REMARK>
 VINA RESULT:      -7.7      2.202      3.962
  Name = 
  2 active torsions:
  status: ('A' for Active; 'I' for Inactive)
    1  A    between atoms: C_1  and  C_2
    2  A    between atoms: C_10  and  C_13
                            x       y       z     vdW  Elec       q    Type
                         _______ _______ _______ _____ _____    ______ ____

>  <TORSDO>
F 2

$$$$
=
 OpenBabel11052418033D

 28 31  0  0  1  0  0  0  0  0999 V2000
  191.7270  175.3070  143.5010 C   0  0  2  0  0  3  0  0  0  0  0  0
  191.1670  175.0390  147.7660 C   0  0  0  0  0  1  0  0  0  0  0  0
  188.7700  177.6340  144.2130 C   0  0  0  0  0  0  0  0  0  0  0  0
  190.7650  176.2810  145.6820 N   0  0  0  0  0  0  0  0  0  0  0  0
  189.8040  176.8190  143.5400 C   0  0  0  0  0  3  0  0  0  0  0  0
  192.4400  174.4340  145.7380 C   0  0  0  0  0  2  0  0  0  0  0  0
  190.0700  177.4060  146.3200 C   0  0  0  0  0  2  0  0  0  0  0  0
  191.7800  175.5860  146.4880 C   0  0  2  0  0  3  0  0  0  0  0  0
  188.8790  177.8630  145.5260 C   0  0  0  0  0  3  0  0  0  0  0  0
  192.9160  174.9040  144.3760 C   0  0  0  0  0  2  0  0  0  0  0  0
  190.7460  176.1790  144.2380 C   0  0  0  0  0  0  0  0  0  0  0  0
  186.5630  178.6400  144.1240 C   0  0  0  0  0  3  0  0  0  0  0  0
  186.6260  177.9660  141.1420 C   0  0  0  0  0  3  0  0  0  0  0  0
  184.6530  178.2540  142.6330 C   0  0  0  0  0  0  0  0  0  0  0  0
  187.6180  178.1730  143.4400 C   0  0  0  0  0  0  0  0  0  0  0  0
  188.8720  178.4040  141.3490 F   0  0  0  0  0  0  0  0  0  0  0  0
  185.2270  177.7330  141.5490 C   0  0  0  0  0  3  0  0  0  0  0  0
  187.6700  178.2130  141.9470 C   0  0  0  0  0  0  0  0  0  0  0  0
  183.3630  177.9490  142.9080 F   0  0  0  0  0  0  0  0  0  0  0  0
  185.3580  179.2500  143.4910 C   0  0  0  0  0  2  0  0  0  0  0  0
  191.0480  174.1160  142.7980 C   0  0  2  0  0  3  0  0  0  0  0  0
  190.1660  173.3160  143.7150 C   0  0  0  0  0  3  0  0  0  0  0  0
  191.5870  171.8690  141.7090 N   0  0  0  0  0  0  0  0  0  0  0  0
  189.7300  172.1270  143.3060 C   0  0  0  0  0  3  0  0  0  0  0  0
  192.5760  173.9190  140.8150 C   0  0  0  0  0  1  0  0  0  0  0  0
  192.0710  173.2200  142.0650 C   0  0  1  0  0  3  0  0  0  0  0  0
  192.5160  170.6960  142.6530 S   0  0  0  0  0  1  0  0  0  0  0  0
  190.1520  171.6380  141.9500 C   0  0  0  0  0  2  0  0  0  0  0  0
  1 11  1  0  0  0  0
  1 10  1  1  0  0  0
  3  9  2  0  0  0  0
  4  7  1  0  0  0  0
  4  8  1  0  0  0  0
  5  3  1  0  0  0  0
  5 11  2  0  0  0  0
  6  8  1  0  0  0  0
  8  2  1  1  0  0  0
  9  7  1  0  0  0  0
 10  6  1  0  0  0  0
 11  4  1  0  0  0  0
 13 17  1  0  0  0  0
 13 18  2  0  0  0  0
 14 19  1  0  0  0  0
 14 20  1  0  0  0  0
 15 12  2  0  0  0  0
 15  3  1  0  0  0  0
 16 18  1  0  0  0  0
 17 14  2  0  0  0  0
 18 15  1  0  0  0  0
 20 12  1  0  0  0  0
 21  1  1  0  0  0  0
 21 22  1  1  0  0  0
 23 28  1  0  0  0  0
 23 26  1  0  0  0  0
 23 27  1  0  0  0  0
 24 22  2  0  0  0  0
 26 25  1  6  0  0  0
 26 21  1  0  0  0  0
 28 24  1  0  0  0  0
M  END
>  <MODEL>
4

>  <REMARK>
 VINA RESULT:      -7.4      2.205      4.149
  Name = 
  2 active torsions:
  status: ('A' for Active; 'I' for Inactive)
    1  A    between atoms: C_1  and  C_2
    2  A    between atoms: C_10  and  C_13
                            x       y       z     vdW  Elec       q    Type
                         _______ _______ _______ _____ _____    ______ ____

>  <TORSDO>
F 2

$$$$
=
 OpenBabel11052418033D

 28 31  0  0  1  0  0  0  0  0999 V2000
  190.4010  175.8730  143.0370 C   0  0  2  0  0  3  0  0  0  0  0  0
  193.0420  174.5630  146.1820 C   0  0  0  0  0  1  0  0  0  0  0  0
  188.7190  177.0960  146.2540 C   0  0  0  0  0  0  0  0  0  0  0  0
  191.2260  176.0610  145.4700 N   0  0  0  0  0  0  0  0  0  0  0  0
  189.0070  176.7570  144.8430 C   0  0  0  0  0  3  0  0  0  0  0  0
  192.5280  174.7750  143.7760 C   0  0  0  0  0  2  0  0  0  0  0  0
  191.1390  176.7910  146.7410 C   0  0  0  0  0  2  0  0  0  0  0  0
  192.5440  175.5150  145.1080 C   0  0  2  0  0  3  0  0  0  0  0  0
  189.7170  177.0620  147.1450 C   0  0  0  0  0  3  0  0  0  0  0  0
  191.8760  175.6350  142.7090 C   0  0  0  0  0  2  0  0  0  0  0  0
  190.1940  176.2670  144.4760 C   0  0  0  0  0  0  0  0  0  0  0  0
  186.3190  176.7480  146.1530 C   0  0  0  0  0  3  0  0  0  0  0  0
  186.1000  179.4150  147.6300 C   0  0  0  0  0  3  0  0  0  0  0  0
  184.4410  178.3260  146.1270 C   0  0  0  0  0  0  0  0  0  0  0  0
  187.3360  177.4500  146.6740 C   0  0  0  0  0  0  0  0  0  0  0  0
  188.0470  178.7290  148.6380 F   0  0  0  0  0  0  0  0  0  0  0  0
  184.9660  179.4160  146.6860 C   0  0  0  0  0  3  0  0  0  0  0  0
  187.1130  178.5370  147.6750 C   0  0  0  0  0  0  0  0  0  0  0  0
  183.4100  178.4610  145.2610 F   0  0  0  0  0  0  0  0  0  0  0  0
  184.8870  176.9560  146.5130 C   0  0  0  0  0  2  0  0  0  0  0  0
  189.4790  174.7190  142.6010 C   0  0  2  0  0  3  0  0  0  0  0  0
  190.1340  173.3710  142.7000 C   0  0  0  0  0  3  0  0  0  0  0  0
  188.3180  173.7630  140.5360 N   0  0  0  0  0  0  0  0  0  0  0  0
  189.5460  172.3290  142.1180 C   0  0  0  0  0  3  0  0  0  0  0  0
  187.8160  176.0430  141.2640 C   0  0  0  0  0  1  0  0  0  0  0  0
  188.8790  174.9610  141.1980 C   0  0  1  0  0  3  0  0  0  0  0  0
  189.3160  173.4140  139.1170 S   0  0  0  0  0  1  0  0  0  0  0  0
  188.2590  172.5570  141.3790 C   0  0  0  0  0  2  0  0  0  0  0  0
  1 10  1  1  0  0  0
  1 11  1  0  0  0  0
  3 15  1  0  0  0  0
  3  9  2  0  0  0  0
  4  7  1  0  0  0  0
  5  3  1  0  0  0  0
  6  8  1  0  0  0  0
  7  9  1  0  0  0  0
  8  4  1  0  0  0  0
  8  2  1  1  0  0  0
 10  6  1  0  0  0  0
 11  5  2  0  0  0  0
 11  4  1  0  0  0  0
 12 20  1  0  0  0  0
 12 15  2  0  0  0  0
 13 18  2  0  0  0  0
 14 20  1  0  0  0  0
 14 17  2  0  0  0  0
 15 18  1  0  0  0  0
 17 13  1  0  0  0  0
 18 16  1  0  0  0  0
 19 14  1  0  0  0  0
 21 22  1  6  0  0  0
 21  1  1  0  0  0  0
 23 26  1  0  0  0  0
 23 28  1  0  0  0  0
 24 22  2  0  0  0  0
 26 25  1  1  0  0  0
 26 21  1  0  0  0  0
 27 23  1  0  0  0  0
 28 24  1  0  0  0  0
M  END
>  <MODEL>
5

>  <REMARK>
 VINA RESULT:      -7.3      2.657      4.836
  Name = 
  2 active torsions:
  status: ('A' for Active; 'I' for Inactive)
    1  A    between atoms: C_1  and  C_2
    2  A    between atoms: C_10  and  C_13
                            x       y       z     vdW  Elec       q    Type
                         _______ _______ _______ _____ _____    ______ ____

>  <TORSDO>
F 2

$$$$
=
 OpenBabel11052418033D

 28 31  0  0  1  0  0  0  0  0999 V2000
  188.4920  177.4300  143.0430 C   0  0  2  0  0  3  0  0  0  0  0  0
  187.6640  173.2900  142.1780 C   0  0  0  0  0  1  0  0  0  0  0  0
  191.9030  175.7090  143.3100 C   0  0  0  0  0  0  0  0  0  0  0  0
  189.3240  175.0970  142.3380 N   0  0  0  0  0  0  0  0  0  0  0  0
  190.8050  176.6990  143.3590 C   0  0  0  0  0  3  0  0  0  0  0  0
  186.8870  175.6240  142.3790 C   0  0  0  0  0  2  0  0  0  0  0  0
  190.4570  174.2900  141.8680 C   0  0  0  0  0  2  0  0  0  0  0  0
  187.9930  174.7310  141.8290 C   0  0  2  0  0  3  0  0  0  0  0  0
  191.7120  174.5620  142.6480 C   0  0  0  0  0  3  0  0  0  0  0  0
  187.2610  177.0850  142.2030 C   0  0  0  0  0  2  0  0  0  0  0  0
  189.5860  176.4050  142.8990 C   0  0  0  0  0  0  0  0  0  0  0  0
  194.3050  176.0570  143.2590 C   0  0  0  0  0  3  0  0  0  0  0  0
  194.1830  175.7510  146.2980 C   0  0  0  0  0  3  0  0  0  0  0  0
  196.0930  175.3120  144.7640 C   0  0  0  0  0  0  0  0  0  0  0  0
  193.1910  175.9810  144.0030 C   0  0  0  0  0  0  0  0  0  0  0  0
  192.1410  176.7770  146.0680 F   0  0  0  0  0  0  0  0  0  0  0  0
  195.4430  175.0910  145.9060 C   0  0  0  0  0  3  0  0  0  0  0  0
  193.2160  176.1940  145.4820 C   0  0  0  0  0  0  0  0  0  0  0  0
  197.2340  174.6280  144.5120 F   0  0  0  0  0  0  0  0  0  0  0  0
  195.6570  176.3680  143.8050 C   0  0  0  0  0  2  0  0  0  0  0  0
  188.1640  177.7420  144.5160 C   0  0  2  0  0  3  0  0  0  0  0  0
  188.6280  176.6720  145.4630 C   0  0  0  0  0  3  0  0  0  0  0  0
  186.1850  177.9910  146.1110 N   0  0  0  0  0  0  0  0  0  0  0  0
  188.1870  176.6920  146.7180 C   0  0  0  0  0  3  0  0  0  0  0  0
  186.3560  179.4460  144.1530 C   0  0  0  0  0  1  0  0  0  0  0  0
  186.6680  178.0710  144.7160 C   0  0  1  0  0  3  0  0  0  0  0  0
  185.0290  176.6540  146.2060 S   0  0  0  0  0  1  0  0  0  0  0  0
  187.2340  177.7800  147.1220 C   0  0  0  0  0  2  0  0  0  0  0  0
  1 10  1  1  0  0  0
  1 21  1  0  0  0  0
  3  5  1  0  0  0  0
  3 15  1  0  0  0  0
  4 11  1  0  0  0  0
  7  4  1  0  0  0  0
  7  9  1  0  0  0  0
  8  2  1  1  0  0  0
  8  4  1  0  0  0  0
  8  6  1  0  0  0  0
  9  3  2  0  0  0  0
 10  6  1  0  0  0  0
 11  1  1  0  0  0  0
 11  5  2  0  0  0  0
 12 20  1  0  0  0  0
 12 15  2  0  0  0  0
 14 17  2  0  0  0  0
 15 18  1  0  0  0  0
 17 13  1  0  0  0  0
 18 16  1  0  0  0  0
 18 13  2  0  0  0  0
 19 14  1  0  0  0  0
 20 14  1  0  0  0  0
 21 26  1  0  0  0  0
 21 22  1  1  0  0  0
 22 24  2  0  0  0  0
 23 27  1  0  0  0  0
 23 28  1  0  0  0  0
 24 28  1  0  0  0  0
 26 25  1  1  0  0  0
 26 23  1  0  0  0  0
M  END
>  <MODEL>
6

>  <REMARK>
 VINA RESULT:      -7.3      3.592      7.259
  Name = 
  2 active torsions:
  status: ('A' for Active; 'I' for Inactive)
    1  A    between atoms: C_1  and  C_2
    2  A    between atoms: C_10  and  C_13
                            x       y       z     vdW  Elec       q    Type
                         _______ _______ _______ _____ _____    ______ ____

>  <TORSDO>
F 2

$$$$
=
 OpenBabel11052418033D

 28 31  0  0  1  0  0  0  0  0999 V2000
  190.9560  173.7570  145.0780 C   0  0  2  0  0  3  0  0  0  0  0  0
  189.9430  177.3960  147.1530 C   0  0  0  0  0  1  0  0  0  0  0  0
  194.3030  175.5750  145.4860 C   0  0  0  0  0  0  0  0  0  0  0  0
  191.6770  175.7780  146.5020 N   0  0  0  0  0  0  0  0  0  0  0  0
  193.2460  174.6180  145.0910 C   0  0  0  0  0  3  0  0  0  0  0  0
  189.2640  175.2180  146.2090 C   0  0  0  0  0  2  0  0  0  0  0  0
  192.7640  176.4320  147.2410 C   0  0  0  0  0  2  0  0  0  0  0  0
  190.3200  175.9280  147.0490 C   0  0  2  0  0  3  0  0  0  0  0  0
  194.0490  176.4530  146.4630 C   0  0  0  0  0  3  0  0  0  0  0  0
  189.6910  173.7860  145.9370 C   0  0  0  0  0  2  0  0  0  0  0  0
  192.0050  174.7180  145.5730 C   0  0  0  0  0  0  0  0  0  0  0  0
  195.8540  176.5260  143.8800 C   0  0  0  0  0  3  0  0  0  0  0  0
  197.4600  173.9520  144.2500 C   0  0  0  0  0  3  0  0  0  0  0  0
  197.3990  175.4800  142.2870 C   0  0  0  0  0  0  0  0  0  0  0  0
  195.6190  175.5700  144.7900 C   0  0  0  0  0  0  0  0  0  0  0  0
  196.6940  174.0830  146.4120 F   0  0  0  0  0  0  0  0  0  0  0  0
  197.5950  174.2730  142.8160 C   0  0  0  0  0  3  0  0  0  0  0  0
  196.6450  174.5410  145.1370 C   0  0  0  0  0  0  0  0  0  0  0  0
  197.5370  175.6440  140.9500 F   0  0  0  0  0  0  0  0  0  0  0  0
  197.1400  176.6770  143.1380 C   0  0  0  0  0  2  0  0  0  0  0  0
  190.6800  173.9090  143.5700 C   0  0  2  0  0  3  0  0  0  0  0  0
  189.9370  175.1700  143.2310 C   0  0  0  0  0  3  0  0  0  0  0  0
  189.3300  172.8600  141.6730 N   0  0  0  0  0  0  0  0  0  0  0  0
  189.4150  175.2970  142.0140 C   0  0  0  0  0  3  0  0  0  0  0  0
  190.9700  171.5100  142.8850 C   0  0  0  0  0  1  0  0  0  0  0  0
  189.9840  172.6600  142.9840 C   0  0  1  0  0  3  0  0  0  0  0  0
  187.5850  172.6750  141.9060 S   0  0  0  0  0  1  0  0  0  0  0  0
  189.5850  174.1660  141.0410 C   0  0  0  0  0  2  0  0  0  0  0  0
  1 11  1  0  0  0  0
  1 10  1  1  0  0  0
  3  9  2  0  0  0  0
  4  8  1  0  0  0  0
  4  7  1  0  0  0  0
  5  3  1  0  0  0  0
  5 11  2  0  0  0  0
  6  8  1  0  0  0  0
  8  2  1  6  0  0  0
  9  7  1  0  0  0  0
 10  6  1  0  0  0  0
 11  4  1  0  0  0  0
 12 15  2  0  0  0  0
 13 18  2  0  0  0  0
 14 17  2  0  0  0  0
 14 20  1  0  0  0  0
 15 18  1  0  0  0  0
 15  3  1  0  0  0  0
 17 13  1  0  0  0  0
 18 16  1  0  0  0  0
 19 14  1  0  0  0  0
 20 12  1  0  0  0  0
 21 22  1  1  0  0  0
 21  1  1  0  0  0  0
 23 27  1  0  0  0  0
 23 26  1  0  0  0  0
 24 22  2  0  0  0  0
 26 25  1  6  0  0  0
 26 21  1  0  0  0  0
 28 23  1  0  0  0  0
 28 24  1  0  0  0  0
M  END
>  <MODEL>
7

>  <REMARK>
 VINA RESULT:      -7.2      4.663      8.349
  Name = 
  2 active torsions:
  status: ('A' for Active; 'I' for Inactive)
    1  A    between atoms: C_1  and  C_2
    2  A    between atoms: C_10  and  C_13
                            x       y       z     vdW  Elec       q    Type
                         _______ _______ _______ _____ _____    ______ ____

>  <TORSDO>
F 2

$$$$
=
 OpenBabel11052418033D

 28 31  0  0  1  0  0  0  0  0999 V2000
  192.1300  174.8300  141.9390 C   0  0  2  0  0  3  0  0  0  0  0  0
  194.3840  174.4780  145.5950 C   0  0  0  0  0  1  0  0  0  0  0  0
  190.1340  176.8860  144.4810 C   0  0  0  0  0  0  0  0  0  0  0  0
  192.6890  175.6990  144.2980 N   0  0  0  0  0  0  0  0  0  0  0  0
  190.5670  176.1690  143.2610 C   0  0  0  0  0  3  0  0  0  0  0  0
  194.1400  174.0030  143.1850 C   0  0  0  0  0  2  0  0  0  0  0  0
  192.4790  176.7540  145.2970 C   0  0  0  0  0  2  0  0  0  0  0  0
  194.0260  175.0870  144.2510 C   0  0  2  0  0  3  0  0  0  0  0  0
  191.0280  177.1130  145.4500 C   0  0  0  0  0  3  0  0  0  0  0  0
  193.6260  174.5240  141.8550 C   0  0  0  0  0  2  0  0  0  0  0  0
  191.7760  175.6080  143.1790 C   0  0  0  0  0  0  0  0  0  0  0  0
  188.1900  177.3370  145.8620 C   0  0  0  0  0  3  0  0  0  0  0  0
  186.6480  177.5250  143.2290 C   0  0  0  0  0  3  0  0  0  0  0  0
  185.7980  176.9340  145.4930 C   0  0  0  0  0  0  0  0  0  0  0  0
  188.7220  177.3300  144.6300 C   0  0  0  0  0  0  0  0  0  0  0  0
  188.6160  178.4000  142.4300 F   0  0  0  0  0  0  0  0  0  0  0  0
  185.7120  176.8720  144.1640 C   0  0  0  0  0  3  0  0  0  0  0  0
  187.9470  177.7810  143.4340 C   0  0  0  0  0  0  0  0  0  0  0  0
  184.8850  176.2750  146.2440 F   0  0  0  0  0  0  0  0  0  0  0  0
  186.8060  177.7980  146.1730 C   0  0  0  0  0  2  0  0  0  0  0  0
  191.2350  173.5910  141.7430 C   0  0  2  0  0  3  0  0  0  0  0  0
  191.0650  172.7820  142.9980 C   0  0  0  0  0  3  0  0  0  0  0  0
  191.1830  171.3370  140.5420 N   0  0  0  0  0  0  0  0  0  0  0  0
  190.5370  171.5640  142.9080 C   0  0  0  0  0  3  0  0  0  0  0  0
  191.3900  173.3990  139.2440 C   0  0  0  0  0  1  0  0  0  0  0  0
  191.7130  172.7170  140.5610 C   0  0  1  0  0  3  0  0  0  0  0  0
  192.5420  170.2330  140.7990 S   0  0  0  0  0  1  0  0  0  0  0  0
  190.1480  171.0530  141.5500 C   0  0  0  0  0  2  0  0  0  0  0  0
  1 10  1  1  0  0  0
  1 11  1  0  0  0  0
  3 15  1  0  0  0  0
  3  9  2  0  0  0  0
  4  7  1  0  0  0  0
  5  3  1  0  0  0  0
  6  8  1  0  0  0  0
  7  9  1  0  0  0  0
  8  4  1  0  0  0  0
  8  2  1  1  0  0  0
 10  6  1  0  0  0  0
 11  5  2  0  0  0  0
 11  4  1  0  0  0  0
 12 20  1  0  0  0  0
 13 18  2  0  0  0  0
 13 17  1  0  0  0  0
 14 20  1  0  0  0  0
 14 19  1  0  0  0  0
 15 12  2  0  0  0  0
 16 18  1  0  0  0  0
 17 14  2  0  0  0  0
 18 15  1  0  0  0  0
 21  1  1  0  0  0  0
 21 22  1  1  0  0  0
 23 26  1  0  0  0  0
 23 27  1  0  0  0  0
 23 28  1  0  0  0  0
 24 22  2  0  0  0  0
 26 25  1  6  0  0  0
 26 21  1  0  0  0  0
 28 24  1  0  0  0  0
M  END
>  <MODEL>
8

>  <REMARK>
 VINA RESULT:      -7.0      2.385      4.524
  Name = 
  2 active torsions:
  status: ('A' for Active; 'I' for Inactive)
    1  A    between atoms: C_1  and  C_2
    2  A    between atoms: C_10  and  C_13
                            x       y       z     vdW  Elec       q    Type
                         _______ _______ _______ _____ _____    ______ ____

>  <TORSDO>
F 2

$$$$
=
 OpenBabel11052418033D

 28 31  0  0  1  0  0  0  0  0999 V2000
  193.8940  173.0930  144.6760 C   0  0  2  0  0  3  0  0  0  0  0  0
  192.4310  171.5230  140.9380 C   0  0  0  0  0  1  0  0  0  0  0  0
  190.2750  174.3300  144.4840 C   0  0  0  0  0  0  0  0  0  0  0  0
  191.9160  172.4580  143.1540 N   0  0  0  0  0  0  0  0  0  0  0  0
  191.6790  174.1080  144.8930 C   0  0  0  0  0  3  0  0  0  0  0  0
  194.2330  171.7080  142.6160 C   0  0  0  0  0  2  0  0  0  0  0  0
  190.4600  172.3220  143.0290 C   0  0  0  0  0  2  0  0  0  0  0  0
  192.7380  171.4800  142.4250 C   0  0  2  0  0  3  0  0  0  0  0  0
  189.7280  173.5160  143.5740 C   0  0  0  0  0  3  0  0  0  0  0  0
  194.5560  171.8430  144.0930 C   0  0  0  0  0  2  0  0  0  0  0  0
  192.4530  173.2220  144.2600 C   0  0  0  0  0  0  0  0  0  0  0  0
  188.9130  175.2690  146.2610 C   0  0  0  0  0  3  0  0  0  0  0  0
  188.2970  177.5210  144.2870 C   0  0  0  0  0  3  0  0  0  0  0  0
  186.9320  176.7160  146.2070 C   0  0  0  0  0  0  0  0  0  0  0  0
  189.4930  175.4550  145.0650 C   0  0  0  0  0  0  0  0  0  0  0  0
  190.4510  177.1510  143.5800 F   0  0  0  0  0  0  0  0  0  0  0  0
  187.0320  177.3070  145.0170 C   0  0  0  0  0  3  0  0  0  0  0  0
  189.3970  176.7560  144.3360 C   0  0  0  0  0  0  0  0  0  0  0  0
  185.7090  176.5630  146.7670 F   0  0  0  0  0  0  0  0  0  0  0  0
  188.1390  176.3170  146.9880 C   0  0  0  0  0  2  0  0  0  0  0  0
  194.6980  174.3850  144.4330 C   0  0  2  0  0  3  0  0  0  0  0  0
  194.3500  175.0600  143.1370 C   0  0  0  0  0  3  0  0  0  0  0  0
  197.0740  175.2010  143.9720 N   0  0  0  0  0  0  0  0  0  0  0  0
  195.1420  176.0310  142.6890 C   0  0  0  0  0  3  0  0  0  0  0  0
  196.5940  173.9610  146.0240 C   0  0  0  0  0  1  0  0  0  0  0  0
  196.2190  174.1500  144.5650 C   0  0  1  0  0  3  0  0  0  0  0  0
  197.9410  174.4840  142.6060 S   0  0  0  0  0  1  0  0  0  0  0  0
  196.3540  176.3950  143.4980 C   0  0  0  0  0  2  0  0  0  0  0  0
  1 10  1  6  0  0  0
  3  5  1  0  0  0  0
  3 15  1  0  0  0  0
  4 11  1  0  0  0  0
  6 10  1  0  0  0  0
  7  4  1  0  0  0  0
  7  9  1  0  0  0  0
  8  2  1  6  0  0  0
  8  6  1  0  0  0  0
  8  4  1  0  0  0  0
  9  3  2  0  0  0  0
 11  1  1  0  0  0  0
 11  5  2  0  0  0  0
 12 20  1  0  0  0  0
 13 18  2  0  0  0  0
 13 17  1  0  0  0  0
 14 19  1  0  0  0  0
 14 20  1  0  0  0  0
 15 12  2  0  0  0  0
 16 18  1  0  0  0  0
 17 14  2  0  0  0  0
 18 15  1  0  0  0  0
 21 22  1  6  0  0  0
 21 26  1  0  0  0  0
 21  1  1  0  0  0  0
 23 26  1  0  0  0  0
 24 22  2  0  0  0  0
 24 28  1  0  0  0  0
 26 25  1  1  0  0  0
 27 23  1  0  0  0  0
 28 23  1  0  0  0  0
M  END
>  <MODEL>
9

>  <REMARK>
 VINA RESULT:      -7.0      2.461      3.335
  Name = 
  2 active torsions:
  status: ('A' for Active; 'I' for Inactive)
    1  A    between atoms: C_1  and  C_2
    2  A    between atoms: C_10  and  C_13
                            x       y       z     vdW  Elec       q    Type
                         _______ _______ _______ _____ _____    ______ ____

>  <TORSDO>
F 2

$$$$
