=
 OpenBabel11052419093D

 32 35  0  0  1  0  0  0  0  0999 V2000
  191.2670  175.9560  143.9790 N   0  0  0  0  0  0  0  0  0  0  0  0
  190.1510  171.8050  140.9490 S   0  0  0  0  0  0  0  0  0  0  0  0
  191.3540  175.3830  142.6270 C   0  0  1  0  0  3  0  0  0  0  0  0
  192.4690  172.3180  139.9460 C   0  0  0  0  0  2  0  0  0  0  0  0
  192.2800  173.2340  141.1210 C   0  0  1  0  0  3  0  0  0  0  0  0
  192.8340  175.1220  142.2190 C   0  0  1  0  0  3  0  0  0  0  0  0
  192.9250  174.4680  140.9680 O   0  0  0  0  0  0  0  0  0  0  0  0
  190.8150  173.4620  141.1340 C   0  0  2  0  0  3  0  0  0  0  0  0
  191.5260  171.2710  140.0170 O   0  0  0  0  0  0  0  0  0  0  0  0
  190.4750  174.1230  142.4540 C   0  0  0  0  0  2  0  0  0  0  0  0
  193.5960  176.4380  142.1260 C   0  0  0  0  0  2  0  0  0  0  0  0
  194.9720  176.2410  141.5130 C   0  0  0  0  0  2  0  0  0  0  0  0
  196.0440  176.3800  142.5760 C   0  0  0  0  0  1  0  0  0  0  0  0
  189.8830  177.0170  144.0950 S   0  0  0  0  0  0  0  0  0  0  0  0
  189.6250  177.8200  142.5300 C   0  0  0  0  0  1  0  0  0  0  0  0
  190.1300  178.0720  145.1360 O   0  0  0  0  0  0  0  0  0  0  0  0
  188.6460  176.2380  144.4510 O   0  0  0  0  0  0  0  0  0  0  0  0
  191.4040  174.9340  145.0430 C   0  0  1  0  0  3  0  0  0  0  0  0
  194.6340  172.9520  145.3670 C   0  0  0  0  0  3  0  0  0  0  0  0
  195.0720  175.2490  145.9850 C   0  0  0  0  0  3  0  0  0  0  0  0
  192.8380  174.5840  145.3060 C   0  0  0  0  0  0  0  0  0  0  0  0
  195.5250  173.9350  145.8170 C   0  0  0  0  0  0  0  0  0  0  0  0
  193.7350  175.5700  145.7380 C   0  0  0  0  0  3  0  0  0  0  0  0
  193.2950  173.2670  145.1210 C   0  0  0  0  0  0  0  0  0  0  0  0
  192.2220  171.9930  144.5570 Cl  0  0  0  0  0  0  0  0  0  0  0  0
  196.9710  173.6030  146.0300 C   0  0  0  0  0  3  0  0  0  0  0  0
  197.7400  173.7120  144.7230 C   0  0  0  0  0  2  0  0  0  0  0  0
  197.3490  172.3530  145.2530 C   0  0  0  0  0  2  0  0  0  0  0  0
  190.5940  175.1340  146.2990 C   0  0  0  0  0  0  0  0  0  0  0  0
  189.5060  174.2570  146.5770 N   0  0  0  0  0  2  0  0  0  0  0  0
  190.8770  176.0610  147.1050 O   0  0  0  0  0  0  0  0  0  0  0  0
  188.7580  174.4120  147.6950 O   0  0  0  0  0  1  0  0  0  0  0  0
  1 14  1  0  0  0  0
  1 18  1  0  0  0  0
  2  8  1  0  0  0  0
  3  1  1  1  0  0  0
  4  9  1  0  0  0  0
  5  4  1  6  0  0  0
  5  8  1  0  0  0  0
  6 11  1  6  0  0  0
  6  3  1  0  0  0  0
  7  5  1  0  0  0  0
  7  6  1  0  0  0  0
  8 10  1  1  0  0  0
  9  2  1  0  0  0  0
 10  3  1  0  0  0  0
 12 11  1  0  0  0  0
 12 13  1  0  0  0  0
 14 17  2  0  0  0  0
 14 16  2  0  0  0  0
 15 14  1  0  0  0  0
 18 21  1  0  0  0  0
 18 29  1  1  0  0  0
 19 22  1  0  0  0  0
 21 23  2  0  0  0  0
 22 20  2  0  0  0  0
 22 26  1  0  0  0  0
 23 20  1  0  0  0  0
 24 21  1  0  0  0  0
 24 19  2  0  0  0  0
 25 24  1  0  0  0  0
 27 28  1  0  0  0  0
 27 26  1  0  0  0  0
 28 26  1  0  0  0  0
 29 30  1  0  0  0  0
 29 31  2  0  0  0  0
 30 32  1  0  0  0  0
M  END
>  <MODEL>
1

>  <REMARK>
 VINA RESULT:      -5.8      0.000      0.000
  Name = 
  8 active torsions:
  status: ('A' for Active; 'I' for Inactive)
    1  A    between atoms: C_1  and  C_27
    2  A    between atoms: S_2  and  N_5
    3  A    between atoms: N_5  and  C_10
    4  A    between atoms: N_5  and  C_27
    5  A    between atoms: C_6  and  C_13
    6  A    between atoms: C_6  and  C_25
    7  A    between atoms: C_7  and  C_19
    8  A    between atoms: C_16  and  C_27
                            x       y       z     vdW  Elec       q    Type
                         _______ _______ _______ _____ _____    ______ ____

>  <TORSDO>
F 8

$$$$
=
 OpenBabel11052419093D

 32 35  0  0  1  0  0  0  0  0999 V2000
  193.6480  173.9920  144.3120 N   0  0  0  0  0  0  0  0  0  0  0  0
  193.4180  174.2760  139.0660 S   0  0  0  0  0  0  0  0  0  0  0  0
  193.2920  173.2840  143.0740 C   0  0  1  0  0  3  0  0  0  0  0  0
  191.2080  172.9970  139.4130 C   0  0  0  0  0  2  0  0  0  0  0  0
  191.7280  173.3640  140.7730 C   0  0  1  0  0  3  0  0  0  0  0  0
  191.7610  173.0120  142.9990 C   0  0  1  0  0  3  0  0  0  0  0  0
  191.3910  172.4310  141.7630 O   0  0  0  0  0  0  0  0  0  0  0  0
  193.1980  173.3460  140.5840 C   0  0  2  0  0  3  0  0  0  0  0  0
  191.8690  173.7730  138.4380 O   0  0  0  0  0  0  0  0  0  0  0  0
  193.8160  173.9950  141.8050 C   0  0  0  0  0  2  0  0  0  0  0  0
  191.3370  172.0660  144.1160 C   0  0  0  0  0  2  0  0  0  0  0  0
  190.0660  172.5450  144.7970 C   0  0  0  0  0  2  0  0  0  0  0  0
  189.4900  173.7360  144.0580 C   0  0  0  0  0  1  0  0  0  0  0  0
  195.1840  173.4160  144.9160 S   0  0  0  0  0  0  0  0  0  0  0  0
  195.0350  171.7000  145.3570 C   0  0  0  0  0  1  0  0  0  0  0  0
  195.5770  174.1900  146.1430 O   0  0  0  0  0  0  0  0  0  0  0  0
  196.2530  173.5570  143.8670 O   0  0  0  0  0  0  0  0  0  0  0  0
  193.4980  175.4610  144.1930 C   0  0  1  0  0  3  0  0  0  0  0  0
  190.3110  177.3840  144.9750 C   0  0  0  0  0  3  0  0  0  0  0  0
  190.8150  175.9320  146.8430 C   0  0  0  0  0  3  0  0  0  0  0  0
  192.2770  175.9620  144.9040 C   0  0  0  0  0  0  0  0  0  0  0  0
  189.9970  176.9050  146.2530 C   0  0  0  0  0  0  0  0  0  0  0  0
  191.9510  175.4690  146.1750 C   0  0  0  0  0  3  0  0  0  0  0  0
  191.4480  176.9270  144.3030 C   0  0  0  0  0  0  0  0  0  0  0  0
  191.7920  177.5630  142.7010 Cl  0  0  0  0  0  0  0  0  0  0  0  0
  188.7490  177.3610  146.9460 C   0  0  0  0  0  3  0  0  0  0  0  0
  187.6750  176.2880  146.8680 C   0  0  0  0  0  2  0  0  0  0  0  0
  187.6070  177.4880  145.9530 C   0  0  0  0  0  2  0  0  0  0  0  0
  194.7250  176.3020  144.4410 C   0  0  0  0  0  0  0  0  0  0  0  0
  195.6880  176.4590  143.4030 N   0  0  0  0  0  2  0  0  0  0  0  0
  194.8980  176.8730  145.5520 O   0  0  0  0  0  0  0  0  0  0  0  0
  196.8020  177.2050  143.5950 O   0  0  0  0  0  1  0  0  0  0  0  0
  1 14  1  0  0  0  0
  2  8  1  0  0  0  0
  3  1  1  1  0  0  0
  5  4  1  6  0  0  0
  5  7  1  0  0  0  0
  6  3  1  0  0  0  0
  6 11  1  1  0  0  0
  7  6  1  0  0  0  0
  8  5  1  0  0  0  0
  8 10  1  1  0  0  0
  9  2  1  0  0  0  0
  9  4  1  0  0  0  0
 10  3  1  0  0  0  0
 11 12  1  0  0  0  0
 13 12  1  0  0  0  0
 14 15  1  0  0  0  0
 14 16  2  0  0  0  0
 17 14  2  0  0  0  0
 18  1  1  0  0  0  0
 18 29  1  1  0  0  0
 18 21  1  0  0  0  0
 19 22  1  0  0  0  0
 21 23  2  0  0  0  0
 22 20  2  0  0  0  0
 22 26  1  0  0  0  0
 23 20  1  0  0  0  0
 24 21  1  0  0  0  0
 24 19  2  0  0  0  0
 25 24  1  0  0  0  0
 27 26  1  0  0  0  0
 28 27  1  0  0  0  0
 28 26  1  0  0  0  0
 29 31  2  0  0  0  0
 30 32  1  0  0  0  0
 30 29  1  0  0  0  0
M  END
>  <MODEL>
2

>  <REMARK>
 VINA RESULT:      -5.8      3.283      5.859
  Name = 
  8 active torsions:
  status: ('A' for Active; 'I' for Inactive)
    1  A    between atoms: C_1  and  C_27
    2  A    between atoms: S_2  and  N_5
    3  A    between atoms: N_5  and  C_10
    4  A    between atoms: N_5  and  C_27
    5  A    between atoms: C_6  and  C_13
    6  A    between atoms: C_6  and  C_25
    7  A    between atoms: C_7  and  C_19
    8  A    between atoms: C_16  and  C_27
                            x       y       z     vdW  Elec       q    Type
                         _______ _______ _______ _____ _____    ______ ____

>  <TORSDO>
F 8

$$$$
=
 OpenBabel11052419093D

 32 35  0  0  1  0  0  0  0  0999 V2000
  191.7990  173.8010  143.6450 N   0  0  0  0  0  0  0  0  0  0  0  0
  193.4650  174.1070  138.6660 S   0  0  0  0  0  0  0  0  0  0  0  0
  191.7110  173.2150  142.2990 C   0  0  1  0  0  3  0  0  0  0  0  0
  191.0120  173.5110  138.1450 C   0  0  0  0  0  2  0  0  0  0  0  0
  191.1130  173.7240  139.6280 C   0  0  1  0  0  3  0  0  0  0  0  0
  190.2850  173.3910  141.6980 C   0  0  1  0  0  3  0  0  0  0  0  0
  190.2190  172.9310  140.3610 O   0  0  0  0  0  0  0  0  0  0  0  0
  192.4960  173.2860  139.9350 C   0  0  2  0  0  3  0  0  0  0  0  0
  192.1510  174.0610  137.5190 O   0  0  0  0  0  0  0  0  0  0  0  0
  192.8090  173.7400  141.3450 C   0  0  0  0  0  2  0  0  0  0  0  0
  189.2670  172.6120  142.5200 C   0  0  0  0  0  2  0  0  0  0  0  0
  187.8450  173.0210  142.1760 C   0  0  0  0  0  2  0  0  0  0  0  0
  187.7160  174.5310  142.1860 C   0  0  0  0  0  1  0  0  0  0  0  0
  193.2000  173.1790  144.4820 S   0  0  0  0  0  0  0  0  0  0  0  0
  193.1840  171.4020  144.4160 C   0  0  0  0  0  1  0  0  0  0  0  0
  193.1670  173.6010  145.9250 O   0  0  0  0  0  0  0  0  0  0  0  0
  194.4660  173.6770  143.8410 O   0  0  0  0  0  0  0  0  0  0  0  0
  191.6360  175.2740  143.6390 C   0  0  1  0  0  3  0  0  0  0  0  0
  188.6500  177.2950  144.8490 C   0  0  0  0  0  3  0  0  0  0  0  0
  188.8800  175.3400  146.2550 C   0  0  0  0  0  3  0  0  0  0  0  0
  190.4420  175.7110  144.4330 C   0  0  0  0  0  0  0  0  0  0  0  0
  188.2130  176.5300  145.9380 C   0  0  0  0  0  0  0  0  0  0  0  0
  189.9920  174.9370  145.5110 C   0  0  0  0  0  3  0  0  0  0  0  0
  189.7630  176.8980  144.1030 C   0  0  0  0  0  0  0  0  0  0  0  0
  190.2670  177.8970  142.7470 Cl  0  0  0  0  0  0  0  0  0  0  0  0
  186.9890  176.9340  146.7020 C   0  0  0  0  0  3  0  0  0  0  0  0
  185.7410  176.7170  145.8610 C   0  0  0  0  0  2  0  0  0  0  0  0
  186.3040  178.1090  146.0240 C   0  0  0  0  0  2  0  0  0  0  0  0
  192.8670  176.1040  143.8980 C   0  0  0  0  0  0  0  0  0  0  0  0
  193.1340  176.5660  145.2200 N   0  0  0  0  0  2  0  0  0  0  0  0
  193.6620  176.3840  142.9620 O   0  0  0  0  0  0  0  0  0  0  0  0
  194.2290  177.3160  145.4860 O   0  0  0  0  0  1  0  0  0  0  0  0
  1 14  1  0  0  0  0
  2  8  1  0  0  0  0
  3  1  1  1  0  0  0
  5  4  1  6  0  0  0
  5  8  1  0  0  0  0
  5  7  1  0  0  0  0
  6  3  1  0  0  0  0
  6 11  1  1  0  0  0
  7  6  1  0  0  0  0
  8 10  1  1  0  0  0
  9  4  1  0  0  0  0
  9  2  1  0  0  0  0
 10  3  1  0  0  0  0
 12 13  1  0  0  0  0
 12 11  1  0  0  0  0
 14 16  2  0  0  0  0
 15 14  1  0  0  0  0
 17 14  2  0  0  0  0
 18  1  1  0  0  0  0
 18 29  1  1  0  0  0
 18 21  1  0  0  0  0
 19 22  1  0  0  0  0
 21 23  2  0  0  0  0
 22 20  2  0  0  0  0
 22 26  1  0  0  0  0
 23 20  1  0  0  0  0
 24 21  1  0  0  0  0
 24 19  2  0  0  0  0
 25 24  1  0  0  0  0
 27 28  1  0  0  0  0
 27 26  1  0  0  0  0
 28 26  1  0  0  0  0
 29 30  1  0  0  0  0
 30 32  1  0  0  0  0
 31 29  2  0  0  0  0
M  END
>  <MODEL>
3

>  <REMARK>
 VINA RESULT:      -5.7      3.307      6.067
  Name = 
  8 active torsions:
  status: ('A' for Active; 'I' for Inactive)
    1  A    between atoms: C_1  and  C_27
    2  A    between atoms: S_2  and  N_5
    3  A    between atoms: N_5  and  C_10
    4  A    between atoms: N_5  and  C_27
    5  A    between atoms: C_6  and  C_13
    6  A    between atoms: C_6  and  C_25
    7  A    between atoms: C_7  and  C_19
    8  A    between atoms: C_16  and  C_27
                            x       y       z     vdW  Elec       q    Type
                         _______ _______ _______ _____ _____    ______ ____

>  <TORSDO>
F 8

$$$$
=
 OpenBabel11052419093D

 32 35  0  0  1  0  0  0  0  0999 V2000
  190.9400  173.5850  142.8970 N   0  0  0  0  0  0  0  0  0  0  0  0
  195.6970  175.7860  142.4720 S   0  0  0  0  0  0  0  0  0  0  0  0
  192.2140  173.5860  142.1630 C   0  0  1  0  0  3  0  0  0  0  0  0
  195.2370  175.5320  139.9490 C   0  0  0  0  0  2  0  0  0  0  0  0
  193.9830  175.1340  140.6720 C   0  0  1  0  0  3  0  0  0  0  0  0
  192.0150  174.0350  140.6860 C   0  0  1  0  0  3  0  0  0  0  0  0
  193.2480  174.1470  140.0010 O   0  0  0  0  0  0  0  0  0  0  0  0
  194.4960  174.5630  141.9400 C   0  0  2  0  0  3  0  0  0  0  0  0
  196.0760  176.2460  140.8320 O   0  0  0  0  0  0  0  0  0  0  0  0
  193.3140  174.4080  142.8740 C   0  0  0  0  0  2  0  0  0  0  0  0
  191.1470  173.0290  139.9400 C   0  0  0  0  0  2  0  0  0  0  0  0
  189.8590  173.6650  139.4460 C   0  0  0  0  0  2  0  0  0  0  0  0
  188.6610  172.8820  139.9470 C   0  0  0  0  0  1  0  0  0  0  0  0
  190.7030  172.0460  143.6900 S   0  0  0  0  0  0  0  0  0  0  0  0
  190.4840  170.7790  142.4620 C   0  0  0  0  0  1  0  0  0  0  0  0
  189.4700  172.0940  144.5480 O   0  0  0  0  0  0  0  0  0  0  0  0
  191.8940  171.6980  144.5400 O   0  0  0  0  0  0  0  0  0  0  0  0
  190.7640  174.7920  143.7370 C   0  0  1  0  0  3  0  0  0  0  0  0
  188.8030  177.8830  142.7020 C   0  0  0  0  0  3  0  0  0  0  0  0
  187.4230  175.9320  142.3280 C   0  0  0  0  0  3  0  0  0  0  0  0
  189.6630  175.6750  143.2300 C   0  0  0  0  0  0  0  0  0  0  0  0
  187.5870  177.3220  142.2920 C   0  0  0  0  0  0  0  0  0  0  0  0
  188.4520  175.1140  142.8010 C   0  0  0  0  0  3  0  0  0  0  0  0
  189.8350  177.0700  143.1790 C   0  0  0  0  0  0  0  0  0  0  0  0
  191.3390  177.8290  143.6810 Cl  0  0  0  0  0  0  0  0  0  0  0  0
  186.5030  178.1940  141.7340 C   0  0  0  0  0  3  0  0  0  0  0  0
  185.7530  178.8940  142.8570 C   0  0  0  0  0  2  0  0  0  0  0  0
  185.1380  177.6940  142.1780 C   0  0  0  0  0  2  0  0  0  0  0  0
  190.7340  174.5940  145.2320 C   0  0  0  0  0  0  0  0  0  0  0  0
  189.4920  174.6790  145.9250 N   0  0  0  0  0  2  0  0  0  0  0  0
  191.7940  174.3450  145.8680 O   0  0  0  0  0  0  0  0  0  0  0  0
  189.4320  174.5090  147.2660 O   0  0  0  0  0  1  0  0  0  0  0  0
  1 14  1  0  0  0  0
  1 18  1  0  0  0  0
  3 10  1  0  0  0  0
  3  1  1  1  0  0  0
  4  9  1  0  0  0  0
  5  4  1  6  0  0  0
  5  8  1  0  0  0  0
  6 11  1  6  0  0  0
  6  3  1  0  0  0  0
  7  5  1  0  0  0  0
  7  6  1  0  0  0  0
  8  2  1  0  0  0  0
  8 10  1  1  0  0  0
  9  2  1  0  0  0  0
 12 11  1  0  0  0  0
 12 13  1  0  0  0  0
 14 17  2  0  0  0  0
 14 16  2  0  0  0  0
 15 14  1  0  0  0  0
 18 29  1  1  0  0  0
 19 24  1  0  0  0  0
 20 23  2  0  0  0  0
 21 18  1  0  0  0  0
 22 20  1  0  0  0  0
 22 19  2  0  0  0  0
 23 21  1  0  0  0  0
 24 21  2  0  0  0  0
 24 25  1  0  0  0  0
 26 28  1  0  0  0  0
 26 22  1  0  0  0  0
 26 27  1  0  0  0  0
 28 27  1  0  0  0  0
 29 31  2  0  0  0  0
 29 30  1  0  0  0  0
 30 32  1  0  0  0  0
M  END
>  <MODEL>
4

>  <REMARK>
 VINA RESULT:      -5.6      2.922      6.373
  Name = 
  8 active torsions:
  status: ('A' for Active; 'I' for Inactive)
    1  A    between atoms: C_1  and  C_27
    2  A    between atoms: S_2  and  N_5
    3  A    between atoms: N_5  and  C_10
    4  A    between atoms: N_5  and  C_27
    5  A    between atoms: C_6  and  C_13
    6  A    between atoms: C_6  and  C_25
    7  A    between atoms: C_7  and  C_19
    8  A    between atoms: C_16  and  C_27
                            x       y       z     vdW  Elec       q    Type
                         _______ _______ _______ _____ _____    ______ ____

>  <TORSDO>
F 8

$$$$
=
 OpenBabel11052419093D

 32 35  0  0  1  0  0  0  0  0999 V2000
  187.1150  177.1560  144.2070 N   0  0  0  0  0  0  0  0  0  0  0  0
  188.9300  172.4870  142.6070 S   0  0  0  0  0  0  0  0  0  0  0  0
  187.1600  176.1860  143.1030 C   0  0  1  0  0  3  0  0  0  0  0  0
  189.2580  173.7370  140.3780 C   0  0  0  0  0  2  0  0  0  0  0  0
  188.8270  174.7510  141.3980 C   0  0  1  0  0  3  0  0  0  0  0  0
  187.9280  176.7620  141.8770 C   0  0  1  0  0  3  0  0  0  0  0  0
  188.0740  175.7980  140.8500 O   0  0  0  0  0  0  0  0  0  0  0  0
  187.9580  173.9650  142.3050 C   0  0  2  0  0  3  0  0  0  0  0  0
  189.6920  172.5680  141.0400 O   0  0  0  0  0  0  0  0  0  0  0  0
  187.7130  174.8090  143.5380 C   0  0  0  0  0  2  0  0  0  0  0  0
  187.1830  177.9600  141.3020 C   0  0  0  0  0  2  0  0  0  0  0  0
  186.3450  177.5690  140.0970 C   0  0  0  0  0  2  0  0  0  0  0  0
  185.0070  178.2800  140.1340 C   0  0  0  0  0  1  0  0  0  0  0  0
  185.4960  177.7880  144.3890 S   0  0  0  0  0  0  0  0  0  0  0  0
  185.5710  179.5580  144.5510 C   0  0  0  0  0  1  0  0  0  0  0  0
  184.8600  177.2250  145.6290 O   0  0  0  0  0  0  0  0  0  0  0  0
  184.6550  177.4450  143.1900 O   0  0  0  0  0  0  0  0  0  0  0  0
  187.7660  176.6500  145.4390 C   0  0  1  0  0  3  0  0  0  0  0  0
  191.4400  175.8120  145.9520 C   0  0  0  0  0  3  0  0  0  0  0  0
  191.2820  177.7060  144.4560 C   0  0  0  0  0  3  0  0  0  0  0  0
  189.2610  176.6930  145.3440 C   0  0  0  0  0  0  0  0  0  0  0  0
  192.0660  176.7920  145.1710 C   0  0  0  0  0  0  0  0  0  0  0  0
  189.8880  177.6610  144.5480 C   0  0  0  0  0  3  0  0  0  0  0  0
  190.0470  175.7640  146.0500 C   0  0  0  0  0  0  0  0  0  0  0  0
  189.3160  174.5120  147.0440 Cl  0  0  0  0  0  0  0  0  0  0  0  0
  193.5580  176.8070  145.0290 C   0  0  0  0  0  3  0  0  0  0  0  0
  193.9830  176.0200  143.8000 C   0  0  0  0  0  2  0  0  0  0  0  0
  194.1180  175.4020  145.1720 C   0  0  0  0  0  2  0  0  0  0  0  0
  187.2330  177.1530  146.7570 C   0  0  0  0  0  0  0  0  0  0  0  0
  187.5100  178.4920  147.1580 N   0  0  0  0  0  2  0  0  0  0  0  0
  186.5400  176.4050  147.4970 O   0  0  0  0  0  0  0  0  0  0  0  0
  187.0490  178.9740  148.3360 O   0  0  0  0  0  1  0  0  0  0  0  0
  1 14  1  0  0  0  0
  1 18  1  0  0  0  0
  3 10  1  0  0  0  0
  3  1  1  1  0  0  0
  4  9  1  0  0  0  0
  5  4  1  6  0  0  0
  5  8  1  0  0  0  0
  6 11  1  6  0  0  0
  6  3  1  0  0  0  0
  7  5  1  0  0  0  0
  7  6  1  0  0  0  0
  8  2  1  0  0  0  0
  8 10  1  1  0  0  0
  9  2  1  0  0  0  0
 12 13  1  0  0  0  0
 12 11  1  0  0  0  0
 14 15  1  0  0  0  0
 14 16  2  0  0  0  0
 17 14  2  0  0  0  0
 18 29  1  1  0  0  0
 19 24  1  0  0  0  0
 20 23  2  0  0  0  0
 20 22  1  0  0  0  0
 21 18  1  0  0  0  0
 21 24  2  0  0  0  0
 22 19  2  0  0  0  0
 23 21  1  0  0  0  0
 24 25  1  0  0  0  0
 26 22  1  0  0  0  0
 26 28  1  0  0  0  0
 27 26  1  0  0  0  0
 27 28  1  0  0  0  0
 29 30  1  0  0  0  0
 29 31  2  0  0  0  0
 30 32  1  0  0  0  0
M  END
>  <MODEL>
5

>  <REMARK>
 VINA RESULT:      -5.5      3.244      4.968
  Name = 
  8 active torsions:
  status: ('A' for Active; 'I' for Inactive)
    1  A    between atoms: C_1  and  C_27
    2  A    between atoms: S_2  and  N_5
    3  A    between atoms: N_5  and  C_10
    4  A    between atoms: N_5  and  C_27
    5  A    between atoms: C_6  and  C_13
    6  A    between atoms: C_6  and  C_25
    7  A    between atoms: C_7  and  C_19
    8  A    between atoms: C_16  and  C_27
                            x       y       z     vdW  Elec       q    Type
                         _______ _______ _______ _____ _____    ______ ____

>  <TORSDO>
F 8

$$$$
=
 OpenBabel11052419093D

 32 35  0  0  1  0  0  0  0  0999 V2000
  195.2280  173.3920  144.1650 N   0  0  0  0  0  0  0  0  0  0  0  0
  192.1720  171.3620  140.3970 S   0  0  0  0  0  0  0  0  0  0  0  0
  194.7010  172.1580  143.5650 C   0  0  1  0  0  3  0  0  0  0  0  0
  191.5120  169.7140  142.2650 C   0  0  0  0  0  2  0  0  0  0  0  0
  192.3900  170.7620  142.8860 C   0  0  1  0  0  3  0  0  0  0  0  0
  193.7620  171.4060  144.5550 C   0  0  1  0  0  3  0  0  0  0  0  0
  193.1610  170.2760  143.9510 O   0  0  0  0  0  0  0  0  0  0  0  0
  193.2980  171.1370  141.7760 C   0  0  2  0  0  3  0  0  0  0  0  0
  191.0500  170.1760  141.0140 O   0  0  0  0  0  0  0  0  0  0  0  0
  194.0240  172.3980  142.1960 C   0  0  0  0  0  2  0  0  0  0  0  0
  194.5470  170.9340  145.7720 C   0  0  0  0  0  2  0  0  0  0  0  0
  194.6860  169.4220  145.7920 C   0  0  0  0  0  2  0  0  0  0  0  0
  194.6530  168.9110  147.2190 C   0  0  0  0  0  1  0  0  0  0  0  0
  196.9660  173.4500  143.9940 S   0  0  0  0  0  0  0  0  0  0  0  0
  197.6460  171.8450  144.3470 C   0  0  0  0  0  1  0  0  0  0  0  0
  197.5460  174.4360  144.9690 O   0  0  0  0  0  0  0  0  0  0  0  0
  197.3490  173.8420  142.5930 O   0  0  0  0  0  0  0  0  0  0  0  0
  194.4840  174.5990  143.7340 C   0  0  1  0  0  3  0  0  0  0  0  0
  191.0180  175.5670  144.9640 C   0  0  0  0  0  3  0  0  0  0  0  0
  192.4100  175.0850  146.8820 C   0  0  0  0  0  3  0  0  0  0  0  0
  193.3300  174.9030  144.6420 C   0  0  0  0  0  0  0  0  0  0  0  0
  191.1770  175.4850  146.3530 C   0  0  0  0  0  0  0  0  0  0  0  0
  193.4820  174.8030  146.0310 C   0  0  0  0  0  3  0  0  0  0  0  0
  192.0870  175.2890  144.1080 C   0  0  0  0  0  0  0  0  0  0  0  0
  191.8300  175.4090  142.3740 Cl  0  0  0  0  0  0  0  0  0  0  0  0
  190.0130  175.7350  147.2630 C   0  0  0  0  0  3  0  0  0  0  0  0
  189.0710  174.5410  147.2620 C   0  0  0  0  0  2  0  0  0  0  0  0
  188.7180  175.7760  146.4690 C   0  0  0  0  0  2  0  0  0  0  0  0
  195.2970  175.8160  143.3680 C   0  0  0  0  0  0  0  0  0  0  0  0
  195.5800  176.0820  141.9970 N   0  0  0  0  0  2  0  0  0  0  0  0
  195.7170  176.6000  144.2610 O   0  0  0  0  0  0  0  0  0  0  0  0
  196.3080  177.1640  141.6350 O   0  0  0  0  0  1  0  0  0  0  0  0
  2  9  1  0  0  0  0
  2  8  1  0  0  0  0
  3  1  1  1  0  0  0
  3  6  1  0  0  0  0
  5  4  1  6  0  0  0
  5  7  1  0  0  0  0
  6 11  1  1  0  0  0
  7  6  1  0  0  0  0
  8 10  1  1  0  0  0
  8  5  1  0  0  0  0
  9  4  1  0  0  0  0
 10  3  1  0  0  0  0
 11 12  1  0  0  0  0
 12 13  1  0  0  0  0
 14  1  1  0  0  0  0
 14 15  1  0  0  0  0
 14 16  2  0  0  0  0
 17 14  2  0  0  0  0
 18 29  1  1  0  0  0
 18  1  1  0  0  0  0
 18 21  1  0  0  0  0
 19 22  1  0  0  0  0
 21 23  2  0  0  0  0
 22 20  2  0  0  0  0
 22 26  1  0  0  0  0
 23 20  1  0  0  0  0
 24 21  1  0  0  0  0
 24 19  2  0  0  0  0
 25 24  1  0  0  0  0
 27 26  1  0  0  0  0
 28 27  1  0  0  0  0
 28 26  1  0  0  0  0
 29 31  2  0  0  0  0
 30 29  1  0  0  0  0
 32 30  1  0  0  0  0
M  END
>  <MODEL>
6

>  <REMARK>
 VINA RESULT:      -5.4      3.575      6.103
  Name = 
  8 active torsions:
  status: ('A' for Active; 'I' for Inactive)
    1  A    between atoms: C_1  and  C_27
    2  A    between atoms: S_2  and  N_5
    3  A    between atoms: N_5  and  C_10
    4  A    between atoms: N_5  and  C_27
    5  A    between atoms: C_6  and  C_13
    6  A    between atoms: C_6  and  C_25
    7  A    between atoms: C_7  and  C_19
    8  A    between atoms: C_16  and  C_27
                            x       y       z     vdW  Elec       q    Type
                         _______ _______ _______ _____ _____    ______ ____

>  <TORSDO>
F 8

$$$$
=
 OpenBabel11052419093D

 32 35  0  0  1  0  0  0  0  0999 V2000
  193.9250  174.3670  143.3340 N   0  0  0  0  0  0  0  0  0  0  0  0
  195.1160  169.2810  143.9490 S   0  0  0  0  0  0  0  0  0  0  0  0
  194.9200  173.4060  143.8340 C   0  0  1  0  0  3  0  0  0  0  0  0
  196.0410  170.1010  146.2100 C   0  0  0  0  0  2  0  0  0  0  0  0
  195.3530  171.2670  145.5620 C   0  0  1  0  0  3  0  0  0  0  0  0
  195.0630  173.4950  145.3820 C   0  0  1  0  0  3  0  0  0  0  0  0
  195.9340  172.5010  145.8860 O   0  0  0  0  0  0  0  0  0  0  0  0
  195.5560  171.0130  144.1160 C   0  0  2  0  0  3  0  0  0  0  0  0
  195.6360  168.9090  145.5730 O   0  0  0  0  0  0  0  0  0  0  0  0
  194.6460  171.9600  143.3610 C   0  0  0  0  0  2  0  0  0  0  0  0
  195.6130  174.8580  145.7840 C   0  0  0  0  0  2  0  0  0  0  0  0
  194.5680  175.6870  146.5110 C   0  0  0  0  0  2  0  0  0  0  0  0
  194.5660  177.1090  145.9840 C   0  0  0  0  0  1  0  0  0  0  0  0
  194.5660  175.2390  141.9620 S   0  0  0  0  0  0  0  0  0  0  0  0
  196.1890  175.8470  142.3580 C   0  0  0  0  0  1  0  0  0  0  0  0
  193.6840  176.4130  141.6410 O   0  0  0  0  0  0  0  0  0  0  0  0
  194.6640  174.3390  140.7610 O   0  0  0  0  0  0  0  0  0  0  0  0
  192.5840  173.7620  143.1610 C   0  0  1  0  0  3  0  0  0  0  0  0
  189.6900  174.0510  145.6120 C   0  0  0  0  0  3  0  0  0  0  0  0
  190.6610  176.2450  145.3020 C   0  0  0  0  0  3  0  0  0  0  0  0
  191.5800  174.3350  144.1160 C   0  0  0  0  0  0  0  0  0  0  0  0
  189.6930  175.4230  145.8940 C   0  0  0  0  0  0  0  0  0  0  0  0
  191.5940  175.7050  144.4140 C   0  0  0  0  0  3  0  0  0  0  0  0
  190.6190  173.5060  144.7220 C   0  0  0  0  0  0  0  0  0  0  0  0
  190.5670  171.7780  144.4060 Cl  0  0  0  0  0  0  0  0  0  0  0  0
  188.7270  175.9930  146.8880 C   0  0  0  0  0  3  0  0  0  0  0  0
  187.4410  176.4160  146.1970 C   0  0  0  0  0  2  0  0  0  0  0  0
  188.4610  177.4590  146.5880 C   0  0  0  0  0  2  0  0  0  0  0  0
  192.0640  173.6290  141.7520 C   0  0  0  0  0  0  0  0  0  0  0  0
  192.3640  172.4540  141.0030 N   0  0  0  0  0  2  0  0  0  0  0  0
  191.3620  174.5410  141.2370 O   0  0  0  0  0  0  0  0  0  0  0  0
  191.9150  172.3050  139.7350 O   0  0  0  0  0  1  0  0  0  0  0  0
  2  8  1  0  0  0  0
  2  9  1  0  0  0  0
  3  1  1  1  0  0  0
  3  6  1  0  0  0  0
  5  7  1  0  0  0  0
  5  4  1  1  0  0  0
  6 11  1  6  0  0  0
  6  7  1  0  0  0  0
  8 10  1  6  0  0  0
  8  5  1  0  0  0  0
  9  4  1  0  0  0  0
 10  3  1  0  0  0  0
 11 12  1  0  0  0  0
 13 12  1  0  0  0  0
 14 15  1  0  0  0  0
 14  1  1  0  0  0  0
 16 14  2  0  0  0  0
 17 14  2  0  0  0  0
 18 29  1  6  0  0  0
 18  1  1  0  0  0  0
 18 21  1  0  0  0  0
 19 22  1  0  0  0  0
 20 22  2  0  0  0  0
 21 23  2  0  0  0  0
 21 24  1  0  0  0  0
 22 26  1  0  0  0  0
 23 20  1  0  0  0  0
 24 19  2  0  0  0  0
 25 24  1  0  0  0  0
 27 28  1  0  0  0  0
 27 26  1  0  0  0  0
 28 26  1  0  0  0  0
 30 29  1  0  0  0  0
 31 29  2  0  0  0  0
 32 30  1  0  0  0  0
M  END
>  <MODEL>
7

>  <REMARK>
 VINA RESULT:      -5.3      3.100      5.947
  Name = 
  8 active torsions:
  status: ('A' for Active; 'I' for Inactive)
    1  A    between atoms: C_1  and  C_27
    2  A    between atoms: S_2  and  N_5
    3  A    between atoms: N_5  and  C_10
    4  A    between atoms: N_5  and  C_27
    5  A    between atoms: C_6  and  C_13
    6  A    between atoms: C_6  and  C_25
    7  A    between atoms: C_7  and  C_19
    8  A    between atoms: C_16  and  C_27
                            x       y       z     vdW  Elec       q    Type
                         _______ _______ _______ _____ _____    ______ ____

>  <TORSDO>
F 8

$$$$
=
 OpenBabel11052419093D

 32 35  0  0  1  0  0  0  0  0999 V2000
  191.9400  174.2190  141.5780 N   0  0  0  0  0  0  0  0  0  0  0  0
  195.6180  171.4750  144.1460 S   0  0  0  0  0  0  0  0  0  0  0  0
  193.2470  174.2750  142.2480 C   0  0  1  0  0  3  0  0  0  0  0  0
  195.7580  173.6130  145.5770 C   0  0  0  0  0  2  0  0  0  0  0  0
  194.6100  173.7890  144.6260 C   0  0  1  0  0  3  0  0  0  0  0  0
  193.1850  175.1510  143.5340 C   0  0  1  0  0  3  0  0  0  0  0  0
  194.4070  175.1230  144.2470 O   0  0  0  0  0  0  0  0  0  0  0  0
  195.0420  173.0190  143.4350 C   0  0  2  0  0  3  0  0  0  0  0  0
  196.1140  172.2480  145.6290 O   0  0  0  0  0  0  0  0  0  0  0  0
  193.8360  172.8740  142.5310 C   0  0  0  0  0  2  0  0  0  0  0  0
  192.8790  176.5990  143.1720 C   0  0  0  0  0  2  0  0  0  0  0  0
  192.0760  177.2870  144.2630 C   0  0  0  0  0  2  0  0  0  0  0  0
  191.1670  178.3410  143.6600 C   0  0  0  0  0  1  0  0  0  0  0  0
  192.1120  173.5390  139.9770 S   0  0  0  0  0  0  0  0  0  0  0  0
  193.4360  174.3670  139.1260 C   0  0  0  0  0  1  0  0  0  0  0  0
  190.8450  173.7390  139.1940 O   0  0  0  0  0  0  0  0  0  0  0  0
  192.4290  172.0710  140.0560 O   0  0  0  0  0  0  0  0  0  0  0  0
  190.8840  173.6280  142.4330 C   0  0  1  0  0  3  0  0  0  0  0  0
  188.4670  175.6820  144.5330 C   0  0  0  0  0  3  0  0  0  0  0  0
  188.3390  176.4440  142.2400 C   0  0  0  0  0  3  0  0  0  0  0  0
  189.8520  174.6390  142.8330 C   0  0  0  0  0  0  0  0  0  0  0  0
  187.9050  176.5290  143.5690 C   0  0  0  0  0  0  0  0  0  0  0  0
  189.3010  175.5000  141.8740 C   0  0  0  0  0  3  0  0  0  0  0  0
  189.4290  174.7340  144.1710 C   0  0  0  0  0  0  0  0  0  0  0  0
  190.1000  173.6980  145.4220 Cl  0  0  0  0  0  0  0  0  0  0  0  0
  186.9120  177.5770  143.9720 C   0  0  0  0  0  3  0  0  0  0  0  0
  185.5400  177.2580  143.4000 C   0  0  0  0  0  2  0  0  0  0  0  0
  186.3970  178.3180  142.7490 C   0  0  0  0  0  2  0  0  0  0  0  0
  190.2960  172.3110  141.9920 C   0  0  0  0  0  0  0  0  0  0  0  0
  190.9160  171.0950  142.4000 N   0  0  0  0  0  2  0  0  0  0  0  0
  189.2590  172.2790  141.2760 O   0  0  0  0  0  0  0  0  0  0  0  0
  190.4150  169.8970  142.0190 O   0  0  0  0  0  1  0  0  0  0  0  0
  1 18  1  0  0  0  0
  2  9  1  0  0  0  0
  3  1  1  1  0  0  0
  3 10  1  0  0  0  0
  3  6  1  0  0  0  0
  4  9  1  0  0  0  0
  5  4  1  1  0  0  0
  6 11  1  6  0  0  0
  6  7  1  0  0  0  0
  7  5  1  0  0  0  0
  8 10  1  6  0  0  0
  8  2  1  0  0  0  0
  8  5  1  0  0  0  0
 11 12  1  0  0  0  0
 13 12  1  0  0  0  0
 14 17  2  0  0  0  0
 14  1  1  0  0  0  0
 15 14  1  0  0  0  0
 16 14  2  0  0  0  0
 18 29  1  6  0  0  0
 18 21  1  0  0  0  0
 20 22  1  0  0  0  0
 21 24  2  0  0  0  0
 22 26  1  0  0  0  0
 22 19  2  0  0  0  0
 23 20  2  0  0  0  0
 23 21  1  0  0  0  0
 24 19  1  0  0  0  0
 24 25  1  0  0  0  0
 27 26  1  0  0  0  0
 28 27  1  0  0  0  0
 28 26  1  0  0  0  0
 29 30  1  0  0  0  0
 31 29  2  0  0  0  0
 32 30  1  0  0  0  0
M  END
>  <MODEL>
8

>  <REMARK>
 VINA RESULT:      -5.2      3.019      6.414
  Name = 
  8 active torsions:
  status: ('A' for Active; 'I' for Inactive)
    1  A    between atoms: C_1  and  C_27
    2  A    between atoms: S_2  and  N_5
    3  A    between atoms: N_5  and  C_10
    4  A    between atoms: N_5  and  C_27
    5  A    between atoms: C_6  and  C_13
    6  A    between atoms: C_6  and  C_25
    7  A    between atoms: C_7  and  C_19
    8  A    between atoms: C_16  and  C_27
                            x       y       z     vdW  Elec       q    Type
                         _______ _______ _______ _____ _____    ______ ____

>  <TORSDO>
F 8

$$$$
=
 OpenBabel11052419093D

 32 35  0  0  1  0  0  0  0  0999 V2000
  195.0730  174.6840  142.8030 N   0  0  0  0  0  0  0  0  0  0  0  0
  194.9260  169.4820  143.5600 S   0  0  0  0  0  0  0  0  0  0  0  0
  195.5200  173.5690  143.6510 C   0  0  1  0  0  3  0  0  0  0  0  0
  194.7640  170.1700  146.0380 C   0  0  0  0  0  2  0  0  0  0  0  0
  194.6880  171.4270  145.2220 C   0  0  1  0  0  3  0  0  0  0  0  0
  194.9070  173.6660  145.0790 C   0  0  1  0  0  3  0  0  0  0  0  0
  195.2400  172.5400  145.8700 O   0  0  0  0  0  0  0  0  0  0  0  0
  195.5190  171.1070  144.0370 C   0  0  2  0  0  3  0  0  0  0  0  0
  194.5210  169.0580  145.2040 O   0  0  0  0  0  0  0  0  0  0  0  0
  195.2670  172.1870  143.0060 C   0  0  0  0  0  2  0  0  0  0  0  0
  195.4180  174.9140  145.7890 C   0  0  0  0  0  2  0  0  0  0  0  0
  194.2800  175.8560  146.1430 C   0  0  0  0  0  2  0  0  0  0  0  0
  192.9680  175.0990  146.1960 C   0  0  0  0  0  1  0  0  0  0  0  0
  196.4170  175.3150  141.8810 S   0  0  0  0  0  0  0  0  0  0  0  0
  197.8040  175.5720  142.9640 C   0  0  0  0  0  1  0  0  0  0  0  0
  196.0440  176.6350  141.2660 O   0  0  0  0  0  0  0  0  0  0  0  0
  196.8180  174.3510  140.7990 O   0  0  0  0  0  0  0  0  0  0  0  0
  193.8450  174.3640  142.0390 C   0  0  1  0  0  3  0  0  0  0  0  0
  190.3220  175.3520  143.0790 C   0  0  0  0  0  3  0  0  0  0  0  0
  191.7370  177.3110  143.1870 C   0  0  0  0  0  3  0  0  0  0  0  0
  192.6710  175.1790  142.4930 C   0  0  0  0  0  0  0  0  0  0  0  0
  190.4740  176.7210  143.3310 C   0  0  0  0  0  0  0  0  0  0  0  0
  192.8260  176.5460  142.7630 C   0  0  0  0  0  3  0  0  0  0  0  0
  191.4080  174.5820  142.6530 C   0  0  0  0  0  0  0  0  0  0  0  0
  191.1580  172.8680  142.3530 Cl  0  0  0  0  0  0  0  0  0  0  0  0
  189.3180  177.5300  143.8360 C   0  0  0  0  0  3  0  0  0  0  0  0
  189.3010  177.5400  145.3570 C   0  0  0  0  0  2  0  0  0  0  0  0
  188.3470  176.6460  144.6000 C   0  0  0  0  0  2  0  0  0  0  0  0
  193.9690  174.2740  140.5390 C   0  0  0  0  0  0  0  0  0  0  0  0
  194.2420  173.0130  139.9330 N   0  0  0  0  0  2  0  0  0  0  0  0
  193.8250  175.2990  139.8200 O   0  0  0  0  0  0  0  0  0  0  0  0
  194.3620  172.8990  138.5900 O   0  0  0  0  0  1  0  0  0  0  0  0
  2  8  1  0  0  0  0
  2  9  1  0  0  0  0
  3  1  1  6  0  0  0
  3  6  1  0  0  0  0
  5  7  1  0  0  0  0
  5  4  1  1  0  0  0
  6 11  1  1  0  0  0
  6  7  1  0  0  0  0
  8 10  1  6  0  0  0
  8  5  1  0  0  0  0
  9  4  1  0  0  0  0
 10  3  1  0  0  0  0
 11 12  1  0  0  0  0
 12 13  1  0  0  0  0
 14  1  1  0  0  0  0
 14 15  1  0  0  0  0
 16 14  2  0  0  0  0
 17 14  2  0  0  0  0
 18 29  1  6  0  0  0
 18 21  1  0  0  0  0
 18  1  1  0  0  0  0
 19 22  1  0  0  0  0
 20 22  2  0  0  0  0
 21 24  1  0  0  0  0
 21 23  2  0  0  0  0
 22 26  1  0  0  0  0
 23 20  1  0  0  0  0
 24 19  2  0  0  0  0
 25 24  1  0  0  0  0
 26 28  1  0  0  0  0
 26 27  1  0  0  0  0
 28 27  1  0  0  0  0
 30 29  1  0  0  0  0
 31 29  2  0  0  0  0
 32 30  1  0  0  0  0
M  END
>  <MODEL>
9

>  <REMARK>
 VINA RESULT:      -5.2      3.588      6.433
  Name = 
  8 active torsions:
  status: ('A' for Active; 'I' for Inactive)
    1  A    between atoms: C_1  and  C_27
    2  A    between atoms: S_2  and  N_5
    3  A    between atoms: N_5  and  C_10
    4  A    between atoms: N_5  and  C_27
    5  A    between atoms: C_6  and  C_13
    6  A    between atoms: C_6  and  C_25
    7  A    between atoms: C_7  and  C_19
    8  A    between atoms: C_16  and  C_27
                            x       y       z     vdW  Elec       q    Type
                         _______ _______ _______ _____ _____    ______ ____

>  <TORSDO>
F 8

$$$$
