=
 OpenBabel11052420153D

 34 38  0  0  1  0  0  0  0  0999 V2000
  192.4320  174.4640  144.9520 C   0  0  0  0  0  0  0  0  0  0  0  0
  190.9190  176.7490  147.6550 C   0  0  0  0  0  2  0  0  0  0  0  0
  193.0370  176.7870  146.3380 O   0  0  0  0  0  0  0  0  0  0  0  0
  194.7730  174.7940  144.0340 C   0  0  0  0  0  0  0  0  0  0  0  0
  195.7420  175.7330  144.3250 O   0  0  0  0  0  0  0  0  0  0  0  0
  194.9780  173.7750  143.3250 O   0  0  0  0  0  0  0  0  0  0  0  0
  193.6890  176.5930  145.0850 C   0  0  2  0  0  3  0  0  0  0  0  0
  193.5160  175.1900  144.6250 C   0  0  0  0  0  0  0  0  0  0  0  0
  195.2120  176.7730  145.1500 C   0  0  0  0  0  2  0  0  0  0  0  0
  189.6330  177.3030  147.0560 C   0  0  0  0  0  2  0  0  0  0  0  0
  188.5940  176.1980  146.8730 C   0  0  2  0  0  3  0  0  0  0  0  0
  188.9640  175.2440  145.7410 C   0  0  0  0  0  2  0  0  0  0  0  0
  191.7990  176.1710  146.5910 C   0  0  0  0  0  0  0  0  0  0  0  0
  190.1430  174.3630  146.1310 C   0  0  0  0  0  2  0  0  0  0  0  0
  191.4460  175.0680  145.8860 C   0  0  0  0  0  0  0  0  0  0  0  0
  187.2590  176.8040  146.6050 C   0  0  0  0  0  0  0  0  0  0  0  0
  186.2460  176.7300  147.5550 O   0  0  0  0  0  1  0  0  0  0  0  0
  187.0480  177.3890  145.5110 O   0  0  0  0  0  0  0  0  0  0  0  0
  192.2670  173.1000  144.5530 N   0  0  0  0  0  2  0  0  0  0  0  0
  191.8420  172.7150  143.2170 C   0  0  0  0  0  2  0  0  0  0  0  0
  191.5540  173.9060  142.4310 N   0  0  0  0  0  2  0  0  0  0  0  0
  187.8460  174.2640  142.2440 C   0  0  0  0  0  3  0  0  0  0  0  0
  190.1110  175.9090  142.3780 C   0  0  0  0  0  3  0  0  0  0  0  0
  186.2710  177.6230  142.1710 C   0  0  0  0  0  0  0  0  0  0  0  0
  186.4260  176.2260  142.1740 C   0  0  0  0  0  3  0  0  0  0  0  0
  187.6980  175.6530  142.2430 C   0  0  0  0  0  0  0  0  0  0  0  0
  188.6920  177.8700  142.3070 C   0  0  0  0  0  3  0  0  0  0  0  0
  188.8390  176.4820  142.3110 C   0  0  0  0  0  0  0  0  0  0  0  0
  187.4160  178.4350  142.2380 C   0  0  0  0  0  3  0  0  0  0  0  0
  190.2590  174.5140  142.3740 C   0  0  0  0  0  0  0  0  0  0  0  0
  189.1240  173.6970  142.3090 C   0  0  0  0  0  3  0  0  0  0  0  0
  184.9580  178.2120  142.0990 N   0  0  0  0  0  0  0  0  0  0  0  0
  184.2620  178.6510  143.3000 C   0  0  0  0  0  1  0  0  0  0  0  0
  184.2800  178.3910  140.8240 C   0  0  0  0  0  1  0  0  0  0  0  0
  1 15  1  0  0  0  0
  3 13  1  0  0  0  0
  4  5  1  0  0  0  0
  4  8  1  0  0  0  0
  5  9  1  0  0  0  0
  6  4  2  0  0  0  0
  7  9  1  1  0  0  0
  7  3  1  0  0  0  0
  8  1  2  0  0  0  0
  8  7  1  0  0  0  0
 10  2  1  0  0  0  0
 11 16  1  6  0  0  0
 11 10  1  0  0  0  0
 12 14  1  0  0  0  0
 12 11  1  0  0  0  0
 13  2  1  0  0  0  0
 15 14  1  0  0  0  0
 15 13  2  0  0  0  0
 16 17  1  0  0  0  0
 18 16  2  0  0  0  0
 19  1  1  0  0  0  0
 20 19  1  0  0  0  0
 21 20  1  0  0  0  0
 22 31  1  0  0  0  0
 24 25  2  0  0  0  0
 24 29  1  0  0  0  0
 25 26  1  0  0  0  0
 26 22  2  0  0  0  0
 26 28  1  0  0  0  0
 27 28  1  0  0  0  0
 28 23  2  0  0  0  0
 29 27  2  0  0  0  0
 30 23  1  0  0  0  0
 30 21  1  0  0  0  0
 31 30  2  0  0  0  0
 32 24  1  0  0  0  0
 32 33  1  0  0  0  0
 34 32  1  0  0  0  0
M  END
>  <MODEL>
1

>  <REMARK>
 VINA RESULT:      -7.7      0.000      0.000
  Name = 
  6 active torsions:
  status: ('A' for Active; 'I' for Inactive)
    1  A    between atoms: C_1  and  N_9
    2  A    between atoms: C_3  and  C_25
    3  A    between atoms: C_7  and  N_11
    4  A    between atoms: C_8  and  N_9
    5  A    between atoms: C_8  and  N_18
    6  A    between atoms: N_18  and  C_30
                            x       y       z     vdW  Elec       q    Type
                         _______ _______ _______ _____ _____    ______ ____

>  <TORSDO>
F 6

$$$$
=
 OpenBabel11052420153D

 34 38  0  0  1  0  0  0  0  0999 V2000
  193.6750  174.0580  143.9120 C   0  0  0  0  0  0  0  0  0  0  0  0
  191.2960  171.5620  142.1990 C   0  0  0  0  0  2  0  0  0  0  0  0
  193.0690  171.3530  143.9420 O   0  0  0  0  0  0  0  0  0  0  0  0
  195.5040  173.3300  145.5090 C   0  0  0  0  0  0  0  0  0  0  0  0
  195.8780  172.0790  145.9580 O   0  0  0  0  0  0  0  0  0  0  0  0
  196.1730  174.3750  145.7170 O   0  0  0  0  0  0  0  0  0  0  0  0
  193.6940  171.8900  145.1060 C   0  0  2  0  0  3  0  0  0  0  0  0
  194.2360  173.2440  144.8230 C   0  0  0  0  0  0  0  0  0  0  0  0
  194.9210  171.0920  145.5680 C   0  0  0  0  0  2  0  0  0  0  0  0
  189.8900  172.0000  142.5850 C   0  0  0  0  0  2  0  0  0  0  0  0
  189.5430  173.3450  141.9510 C   0  0  2  0  0  3  0  0  0  0  0  0
  190.3090  174.4980  142.5940 C   0  0  0  0  0  2  0  0  0  0  0  0
  192.3170  172.1890  143.0980 C   0  0  0  0  0  0  0  0  0  0  0  0
  191.7820  174.4580  142.2100 C   0  0  0  0  0  2  0  0  0  0  0  0
  192.5460  173.5250  143.1040 C   0  0  0  0  0  0  0  0  0  0  0  0
  188.0760  173.5900  142.0640 C   0  0  0  0  0  0  0  0  0  0  0  0
  187.5960  174.8470  142.4120 O   0  0  0  0  0  1  0  0  0  0  0  0
  187.2690  172.6520  141.8400 O   0  0  0  0  0  0  0  0  0  0  0  0
  194.2060  175.3490  143.5970 N   0  0  0  0  0  2  0  0  0  0  0  0
  193.9580  176.5250  144.4140 C   0  0  0  0  0  2  0  0  0  0  0  0
  192.8920  176.2450  145.3660 N   0  0  0  0  0  2  0  0  0  0  0  0
  189.9280  178.0010  143.9340 C   0  0  0  0  0  3  0  0  0  0  0  0
  190.5040  176.1860  145.9910 C   0  0  0  0  0  3  0  0  0  0  0  0
  186.5480  177.4910  145.3770 C   0  0  0  0  0  0  0  0  0  0  0  0
  187.5870  177.9590  144.5550 C   0  0  0  0  0  3  0  0  0  0  0  0
  188.9010  177.5290  144.7540 C   0  0  0  0  0  0  0  0  0  0  0  0
  188.1640  176.1460  146.6120 C   0  0  0  0  0  3  0  0  0  0  0  0
  189.1900  176.6150  145.7900 C   0  0  0  0  0  0  0  0  0  0  0  0
  186.8520  176.5820  146.4060 C   0  0  0  0  0  3  0  0  0  0  0  0
  191.5370  176.6630  145.1700 C   0  0  0  0  0  0  0  0  0  0  0  0
  191.2430  177.5680  144.1430 C   0  0  0  0  0  3  0  0  0  0  0  0
  185.1940  177.9360  145.1700 N   0  0  0  0  0  0  0  0  0  0  0  0
  184.6640  178.1420  143.8300 C   0  0  0  0  0  1  0  0  0  0  0  0
  184.3050  178.1950  146.2930 C   0  0  0  0  0  1  0  0  0  0  0  0
  1  8  2  0  0  0  0
  2 10  1  0  0  0  0
  2 13  1  0  0  0  0
  3  7  1  0  0  0  0
  4  6  2  0  0  0  0
  4  5  1  0  0  0  0
  7  9  1  6  0  0  0
  8  7  1  0  0  0  0
  8  4  1  0  0  0  0
  9  5  1  0  0  0  0
 11 16  1  1  0  0  0
 11 10  1  0  0  0  0
 11 12  1  0  0  0  0
 13 15  2  0  0  0  0
 13  3  1  0  0  0  0
 14 12  1  0  0  0  0
 14 15  1  0  0  0  0
 15  1  1  0  0  0  0
 16 17  1  0  0  0  0
 18 16  2  0  0  0  0
 19  1  1  0  0  0  0
 19 20  1  0  0  0  0
 20 21  1  0  0  0  0
 22 31  2  0  0  0  0
 22 26  1  0  0  0  0
 24 29  1  0  0  0  0
 25 26  1  0  0  0  0
 25 24  2  0  0  0  0
 26 28  2  0  0  0  0
 28 23  1  0  0  0  0
 28 27  1  0  0  0  0
 29 27  2  0  0  0  0
 30 21  1  0  0  0  0
 30 23  2  0  0  0  0
 31 30  1  0  0  0  0
 32 24  1  0  0  0  0
 32 34  1  0  0  0  0
 33 32  1  0  0  0  0
M  END
>  <MODEL>
2

>  <REMARK>
 VINA RESULT:      -7.3      2.391      4.464
  Name = 
  6 active torsions:
  status: ('A' for Active; 'I' for Inactive)
    1  A    between atoms: C_1  and  N_9
    2  A    between atoms: C_3  and  C_25
    3  A    between atoms: C_7  and  N_11
    4  A    between atoms: C_8  and  N_9
    5  A    between atoms: C_8  and  N_18
    6  A    between atoms: N_18  and  C_30
                            x       y       z     vdW  Elec       q    Type
                         _______ _______ _______ _____ _____    ______ ____

>  <TORSDO>
F 6

$$$$
=
 OpenBabel11052420153D

 34 38  0  0  1  0  0  0  0  0999 V2000
  187.6750  177.8060  144.1910 C   0  0  0  0  0  0  0  0  0  0  0  0
  190.1600  177.1700  147.0620 C   0  0  0  0  0  2  0  0  0  0  0  0
  187.6730  177.1160  146.8760 O   0  0  0  0  0  0  0  0  0  0  0  0
  185.1640  177.8470  144.5390 C   0  0  0  0  0  0  0  0  0  0  0  0
  184.3970  177.6650  145.6730 O   0  0  0  0  0  0  0  0  0  0  0  0
  184.7020  178.2550  143.4410 O   0  0  0  0  0  0  0  0  0  0  0  0
  186.5220  176.7580  146.1150 C   0  0  2  0  0  3  0  0  0  0  0  0
  186.5300  177.4610  144.8050 C   0  0  0  0  0  0  0  0  0  0  0  0
  185.1980  177.1960  146.7590 C   0  0  0  0  0  2  0  0  0  0  0  0
  190.9880  175.9660  146.6330 C   0  0  0  0  0  2  0  0  0  0  0  0
  191.8740  176.3080  145.4380 C   0  0  2  0  0  3  0  0  0  0  0  0
  191.0660  176.4790  144.1540 C   0  0  0  0  0  2  0  0  0  0  0  0
  188.9150  177.2830  146.2380 C   0  0  0  0  0  0  0  0  0  0  0  0
  190.2520  177.7650  144.1880 C   0  0  0  0  0  2  0  0  0  0  0  0
  188.9520  177.5610  144.9110 C   0  0  0  0  0  0  0  0  0  0  0  0
  192.8970  175.2400  145.2490 C   0  0  0  0  0  0  0  0  0  0  0  0
  194.1080  175.5240  144.6280 O   0  0  0  0  0  0  0  0  0  0  0  0
  192.6630  174.0740  145.6580 O   0  0  0  0  0  1  0  0  0  0  0  0
  187.7030  178.5180  142.9500 N   0  0  0  0  0  2  0  0  0  0  0  0
  187.9150  177.8630  141.6700 C   0  0  0  0  0  2  0  0  0  0  0  0
  187.2940  176.5460  141.6830 N   0  0  0  0  0  2  0  0  0  0  0  0
  189.0020  173.5600  140.2410 C   0  0  0  0  0  3  0  0  0  0  0  0
  188.5240  174.6960  142.7590 C   0  0  0  0  0  3  0  0  0  0  0  0
  190.6780  171.0910  142.4470 C   0  0  0  0  0  0  0  0  0  0  0  0
  190.1950  171.7330  141.2930 C   0  0  0  0  0  3  0  0  0  0  0  0
  189.4810  172.9290  141.3910 C   0  0  0  0  0  0  0  0  0  0  0  0
  189.7160  172.8680  143.8100 C   0  0  0  0  0  3  0  0  0  0  0  0
  189.2400  173.5000  142.6600 C   0  0  0  0  0  0  0  0  0  0  0  0
  190.4300  171.6710  143.7030 C   0  0  0  0  0  3  0  0  0  0  0  0
  188.0400  175.3270  141.6030 C   0  0  0  0  0  0  0  0  0  0  0  0
  188.2830  174.7560  140.3480 C   0  0  0  0  0  3  0  0  0  0  0  0
  191.4150  169.8570  142.3430 N   0  0  0  0  0  0  0  0  0  0  0  0
  191.0230  168.8230  141.3980 C   0  0  0  0  0  1  0  0  0  0  0  0
  192.5770  169.6010  143.1800 C   0  0  0  0  0  1  0  0  0  0  0  0
  1  8  2  0  0  0  0
  1 15  1  0  0  0  0
  4  8  1  0  0  0  0
  4  5  1  0  0  0  0
  5  9  1  0  0  0  0
  6  4  2  0  0  0  0
  7  9  1  1  0  0  0
  7  3  1  0  0  0  0
  8  7  1  0  0  0  0
 10  2  1  0  0  0  0
 11 16  1  6  0  0  0
 11 10  1  0  0  0  0
 12 14  1  0  0  0  0
 12 11  1  0  0  0  0
 13  3  1  0  0  0  0
 13  2  1  0  0  0  0
 14 15  1  0  0  0  0
 15 13  2  0  0  0  0
 16 18  1  0  0  0  0
 17 16  2  0  0  0  0
 19  1  1  0  0  0  0
 20 21  1  0  0  0  0
 20 19  1  0  0  0  0
 22 31  2  0  0  0  0
 22 26  1  0  0  0  0
 24 29  1  0  0  0  0
 25 26  1  0  0  0  0
 25 24  2  0  0  0  0
 26 28  2  0  0  0  0
 28 23  1  0  0  0  0
 28 27  1  0  0  0  0
 29 27  2  0  0  0  0
 30 21  1  0  0  0  0
 30 23  2  0  0  0  0
 31 30  1  0  0  0  0
 32 24  1  0  0  0  0
 32 34  1  0  0  0  0
 33 32  1  0  0  0  0
M  END
>  <MODEL>
3

>  <REMARK>
 VINA RESULT:      -7.2      2.164      6.875
  Name = 
  6 active torsions:
  status: ('A' for Active; 'I' for Inactive)
    1  A    between atoms: C_1  and  N_9
    2  A    between atoms: C_3  and  C_25
    3  A    between atoms: C_7  and  N_11
    4  A    between atoms: C_8  and  N_9
    5  A    between atoms: C_8  and  N_18
    6  A    between atoms: N_18  and  C_30
                            x       y       z     vdW  Elec       q    Type
                         _______ _______ _______ _____ _____    ______ ____

>  <TORSDO>
F 6

$$$$
=
 OpenBabel11052420153D

 34 38  0  0  1  0  0  0  0  0999 V2000
  193.8900  174.1390  142.6560 C   0  0  0  0  0  0  0  0  0  0  0  0
  194.6990  175.6900  146.0840 C   0  0  0  0  0  2  0  0  0  0  0  0
  195.4480  176.1520  143.7510 O   0  0  0  0  0  0  0  0  0  0  0  0
  195.0910  174.8170  140.5280 C   0  0  0  0  0  0  0  0  0  0  0  0
  196.0950  175.7380  140.3020 O   0  0  0  0  0  0  0  0  0  0  0  0
  194.6970  173.9880  139.6680 O   0  0  0  0  0  0  0  0  0  0  0  0
  195.1110  176.2730  142.3700 C   0  0  2  0  0  3  0  0  0  0  0  0
  194.5590  174.9910  141.8600 C   0  0  0  0  0  0  0  0  0  0  0  0
  196.3200  176.5400  141.4620 C   0  0  0  0  0  2  0  0  0  0  0  0
  193.3870  176.2670  146.5970 C   0  0  0  0  0  2  0  0  0  0  0  0
  192.3870  175.1570  146.9140 C   0  0  2  0  0  3  0  0  0  0  0  0
  191.8480  174.4920  145.6500 C   0  0  0  0  0  2  0  0  0  0  0  0
  194.6230  175.4120  144.6150 C   0  0  0  0  0  0  0  0  0  0  0  0
  192.9150  173.6320  144.9870 C   0  0  0  0  0  2  0  0  0  0  0  0
  193.8030  174.4610  144.1040 C   0  0  0  0  0  0  0  0  0  0  0  0
  191.2560  175.7120  147.7120 C   0  0  0  0  0  0  0  0  0  0  0  0
  191.4170  176.8810  148.4460 O   0  0  0  0  0  1  0  0  0  0  0  0
  190.1470  175.1180  147.7170 O   0  0  0  0  0  0  0  0  0  0  0  0
  193.3870  172.8820  142.1920 N   0  0  0  0  0  2  0  0  0  0  0  0
  192.0580  172.7250  141.6220 C   0  0  0  0  0  2  0  0  0  0  0  0
  191.5320  174.0280  141.2400 N   0  0  0  0  0  2  0  0  0  0  0  0
  187.9650  174.7670  142.0420 C   0  0  0  0  0  3  0  0  0  0  0  0
  190.5160  175.6160  142.8350 C   0  0  0  0  0  3  0  0  0  0  0  0
  187.0880  177.3370  144.5700 C   0  0  0  0  0  0  0  0  0  0  0  0
  186.9630  176.3360  143.5930 C   0  0  0  0  0  3  0  0  0  0  0  0
  188.0970  175.7610  143.0140 C   0  0  0  0  0  0  0  0  0  0  0  0
  189.5140  177.1840  144.3830 C   0  0  0  0  0  3  0  0  0  0  0  0
  189.3820  176.1890  143.4140 C   0  0  0  0  0  0  0  0  0  0  0  0
  188.3740  177.7540  144.9570 C   0  0  0  0  0  3  0  0  0  0  0  0
  190.3830  174.6200  141.8540 C   0  0  0  0  0  0  0  0  0  0  0  0
  189.1060  174.1990  141.4640 C   0  0  0  0  0  3  0  0  0  0  0  0
  185.9170  177.9290  145.1650 N   0  0  0  0  0  0  0  0  0  0  0  0
  185.1040  177.1930  146.1210 C   0  0  0  0  0  1  0  0  0  0  0  0
  185.5050  179.2850  144.8330 C   0  0  0  0  0  1  0  0  0  0  0  0
  1 15  1  0  0  0  0
  2 10  1  0  0  0  0
  3 13  1  0  0  0  0
  4  8  1  0  0  0  0
  5  4  1  0  0  0  0
  5  9  1  0  0  0  0
  6  4  2  0  0  0  0
  7  9  1  6  0  0  0
  7  3  1  0  0  0  0
  8  7  1  0  0  0  0
  8  1  2  0  0  0  0
 10 11  1  0  0  0  0
 11 16  1  6  0  0  0
 12 11  1  0  0  0  0
 13  2  1  0  0  0  0
 14 12  1  0  0  0  0
 15 13  2  0  0  0  0
 15 14  1  0  0  0  0
 16 18  2  0  0  0  0
 16 17  1  0  0  0  0
 19  1  1  0  0  0  0
 20 19  1  0  0  0  0
 21 20  1  0  0  0  0
 21 30  1  0  0  0  0
 22 26  1  0  0  0  0
 23 28  1  0  0  0  0
 24 29  1  0  0  0  0
 24 32  1  0  0  0  0
 25 24  2  0  0  0  0
 26 28  2  0  0  0  0
 26 25  1  0  0  0  0
 27 29  2  0  0  0  0
 28 27  1  0  0  0  0
 30 23  2  0  0  0  0
 31 30  1  0  0  0  0
 31 22  2  0  0  0  0
 32 33  1  0  0  0  0
 34 32  1  0  0  0  0
M  END
>  <MODEL>
4

>  <REMARK>
 VINA RESULT:      -7.0      2.119      3.106
  Name = 
  6 active torsions:
  status: ('A' for Active; 'I' for Inactive)
    1  A    between atoms: C_1  and  N_9
    2  A    between atoms: C_3  and  C_25
    3  A    between atoms: C_7  and  N_11
    4  A    between atoms: C_8  and  N_9
    5  A    between atoms: C_8  and  N_18
    6  A    between atoms: N_18  and  C_30
                            x       y       z     vdW  Elec       q    Type
                         _______ _______ _______ _____ _____    ______ ____

>  <TORSDO>
F 6

$$$$
=
 OpenBabel11052420153D

 34 38  0  0  1  0  0  0  0  0999 V2000
  194.6880  173.6190  144.2340 C   0  0  0  0  0  0  0  0  0  0  0  0
  192.0950  171.2210  142.7030 C   0  0  0  0  0  2  0  0  0  0  0  0
  193.9210  170.9600  144.3820 O   0  0  0  0  0  0  0  0  0  0  0  0
  196.5330  172.8310  145.7850 C   0  0  0  0  0  0  0  0  0  0  0  0
  196.8480  171.5740  146.2630 O   0  0  0  0  0  0  0  0  0  0  0  0
  197.2720  173.8390  145.9300 O   0  0  0  0  0  0  0  0  0  0  0  0
  194.6240  171.4940  145.5020 C   0  0  2  0  0  3  0  0  0  0  0  0
  195.2360  172.8020  145.1510 C   0  0  0  0  0  0  0  0  0  0  0  0
  195.8180  170.6370  145.9450 C   0  0  0  0  0  2  0  0  0  0  0  0
  190.7350  171.7580  143.1260 C   0  0  0  0  0  2  0  0  0  0  0  0
  190.4440  173.1010  142.4590 C   0  0  2  0  0  3  0  0  0  0  0  0
  191.3050  174.2240  143.0310 C   0  0  0  0  0  2  0  0  0  0  0  0
  193.1870  171.8120  143.5390 C   0  0  0  0  0  0  0  0  0  0  0  0
  192.7560  174.0800  142.5930 C   0  0  0  0  0  2  0  0  0  0  0  0
  193.4980  173.1310  143.4900 C   0  0  0  0  0  0  0  0  0  0  0  0
  189.0020  173.4400  142.6200 C   0  0  0  0  0  0  0  0  0  0  0  0
  188.6200  174.6470  143.1950 O   0  0  0  0  0  1  0  0  0  0  0  0
  188.1240  172.6290  142.2300 O   0  0  0  0  0  0  0  0  0  0  0  0
  195.2840  174.8630  143.8530 N   0  0  0  0  0  2  0  0  0  0  0  0
  194.9660  176.1220  144.5070 C   0  0  0  0  0  2  0  0  0  0  0  0
  194.3300  175.8620  145.7900 N   0  0  0  0  0  2  0  0  0  0  0  0
  190.9450  175.3170  147.2610 C   0  0  0  0  0  3  0  0  0  0  0  0
  192.1220  176.7870  145.1840 C   0  0  0  0  0  3  0  0  0  0  0  0
  187.9700  177.0200  145.8410 C   0  0  0  0  0  0  0  0  0  0  0  0
  188.7740  176.2080  146.6590 C   0  0  0  0  0  3  0  0  0  0  0  0
  190.1520  176.1280  146.4460 C   0  0  0  0  0  0  0  0  0  0  0  0
  189.9520  177.6760  144.5820 C   0  0  0  0  0  3  0  0  0  0  0  0
  190.7440  176.8680  145.3990 C   0  0  0  0  0  0  0  0  0  0  0  0
  188.5730  177.7500  144.8030 C   0  0  0  0  0  3  0  0  0  0  0  0
  192.9180  175.9690  146.0010 C   0  0  0  0  0  0  0  0  0  0  0  0
  192.3250  175.2390  147.0370 C   0  0  0  0  0  3  0  0  0  0  0  0
  186.5480  177.1020  146.0630 N   0  0  0  0  0  0  0  0  0  0  0  0
  185.6100  177.0910  144.9510 C   0  0  0  0  0  1  0  0  0  0  0  0
  185.9990  177.1970  147.4070 C   0  0  0  0  0  1  0  0  0  0  0  0
  1  8  2  0  0  0  0
  2 10  1  0  0  0  0
  2 13  1  0  0  0  0
  3  7  1  0  0  0  0
  4  6  2  0  0  0  0
  4  5  1  0  0  0  0
  7  9  1  6  0  0  0
  8  7  1  0  0  0  0
  8  4  1  0  0  0  0
  9  5  1  0  0  0  0
 11 16  1  1  0  0  0
 11 12  1  0  0  0  0
 11 10  1  0  0  0  0
 13  3  1  0  0  0  0
 14 12  1  0  0  0  0
 14 15  1  0  0  0  0
 15 13  2  0  0  0  0
 15  1  1  0  0  0  0
 16 17  1  0  0  0  0
 18 16  2  0  0  0  0
 19  1  1  0  0  0  0
 19 20  1  0  0  0  0
 20 21  1  0  0  0  0
 21 30  1  0  0  0  0
 23 28  2  0  0  0  0
 23 30  1  0  0  0  0
 24 32  1  0  0  0  0
 24 25  2  0  0  0  0
 26 25  1  0  0  0  0
 26 22  2  0  0  0  0
 27 29  2  0  0  0  0
 27 28  1  0  0  0  0
 28 26  1  0  0  0  0
 29 24  1  0  0  0  0
 30 31  2  0  0  0  0
 31 22  1  0  0  0  0
 32 34  1  0  0  0  0
 33 32  1  0  0  0  0
M  END
>  <MODEL>
5

>  <REMARK>
 VINA RESULT:      -7.0      2.701      4.865
  Name = 
  6 active torsions:
  status: ('A' for Active; 'I' for Inactive)
    1  A    between atoms: C_1  and  N_9
    2  A    between atoms: C_3  and  C_25
    3  A    between atoms: C_7  and  N_11
    4  A    between atoms: C_8  and  N_9
    5  A    between atoms: C_8  and  N_18
    6  A    between atoms: N_18  and  C_30
                            x       y       z     vdW  Elec       q    Type
                         _______ _______ _______ _____ _____    ______ ____

>  <TORSDO>
F 6

$$$$
=
 OpenBabel11052420153D

 34 38  0  0  1  0  0  0  0  0999 V2000
  192.3080  174.5110  145.7510 C   0  0  0  0  0  0  0  0  0  0  0  0
  195.3630  173.0510  143.9200 C   0  0  0  0  0  2  0  0  0  0  0  0
  192.9230  172.5360  143.9070 O   0  0  0  0  0  0  0  0  0  0  0  0
  189.9920  173.4930  145.5780 C   0  0  0  0  0  0  0  0  0  0  0  0
  189.5290  172.3950  144.8800 O   0  0  0  0  0  0  0  0  0  0  0  0
  189.3110  174.1150  146.4340 O   0  0  0  0  0  0  0  0  0  0  0  0
  191.5810  173.0190  143.9150 C   0  0  2  0  0  3  0  0  0  0  0  0
  191.3290  173.8220  145.1400 C   0  0  0  0  0  0  0  0  0  0  0  0
  190.5260  171.9060  143.9810 C   0  0  0  0  0  2  0  0  0  0  0  0
  195.9120  174.1850  143.0640 C   0  0  0  0  0  2  0  0  0  0  0  0
  196.4920  175.2970  143.9340 C   0  0  2  0  0  3  0  0  0  0  0  0
  195.4050  176.0850  144.6590 C   0  0  0  0  0  2  0  0  0  0  0  0
  193.9680  173.3520  144.3730 C   0  0  0  0  0  0  0  0  0  0  0  0
  194.7750  175.2550  145.7690 C   0  0  0  0  0  2  0  0  0  0  0  0
  193.6920  174.3670  145.2290 C   0  0  0  0  0  0  0  0  0  0  0  0
  197.3070  176.2200  143.0930 C   0  0  0  0  0  0  0  0  0  0  0  0
  197.5010  177.5410  143.4800 O   0  0  0  0  0  1  0  0  0  0  0  0
  197.8240  175.7980  142.0270 O   0  0  0  0  0  0  0  0  0  0  0  0
  192.0930  175.2570  146.9540 N   0  0  0  0  0  2  0  0  0  0  0  0
  191.4050  176.5370  146.9760 C   0  0  0  0  0  2  0  0  0  0  0  0
  191.4930  177.1640  145.6650 N   0  0  0  0  0  2  0  0  0  0  0  0
  189.4580  177.9350  142.6360 C   0  0  0  0  0  3  0  0  0  0  0  0
  189.0500  177.3190  145.3400 C   0  0  0  0  0  3  0  0  0  0  0  0
  185.7540  178.0390  142.8210 C   0  0  0  0  0  0  0  0  0  0  0  0
  187.0630  178.1040  142.3140 C   0  0  0  0  0  3  0  0  0  0  0  0
  188.1600  177.8660  143.1450 C   0  0  0  0  0  0  0  0  0  0  0  0
  186.6560  177.4900  145.0180 C   0  0  0  0  0  3  0  0  0  0  0  0
  187.9530  177.5550  144.5070 C   0  0  0  0  0  0  0  0  0  0  0  0
  185.5640  177.7300  144.1790 C   0  0  0  0  0  3  0  0  0  0  0  0
  190.3550  177.3920  144.8280 C   0  0  0  0  0  0  0  0  0  0  0  0
  190.5520  177.6980  143.4760 C   0  0  0  0  0  3  0  0  0  0  0  0
  184.6230  178.2850  141.9620 N   0  0  0  0  0  0  0  0  0  0  0  0
  184.7650  178.2910  140.5140 C   0  0  0  0  0  1  0  0  0  0  0  0
  183.3000  178.5360  142.5110 C   0  0  0  0  0  1  0  0  0  0  0  0
  1 19  1  0  0  0  0
  2 13  1  0  0  0  0
  3  7  1  0  0  0  0
  3 13  1  0  0  0  0
  4  6  2  0  0  0  0
  5  4  1  0  0  0  0
  7  9  1  1  0  0  0
  7  8  1  0  0  0  0
  8  4  1  0  0  0  0
  8  1  2  0  0  0  0
  9  5  1  0  0  0  0
 10  2  1  0  0  0  0
 10 11  1  0  0  0  0
 11 16  1  6  0  0  0
 11 12  1  0  0  0  0
 12 14  1  0  0  0  0
 13 15  2  0  0  0  0
 15  1  1  0  0  0  0
 15 14  1  0  0  0  0
 16 17  1  0  0  0  0
 18 16  2  0  0  0  0
 19 20  1  0  0  0  0
 21 20  1  0  0  0  0
 22 26  2  0  0  0  0
 22 31  1  0  0  0  0
 24 29  1  0  0  0  0
 25 24  2  0  0  0  0
 25 26  1  0  0  0  0
 26 28  1  0  0  0  0
 28 27  1  0  0  0  0
 28 23  2  0  0  0  0
 29 27  2  0  0  0  0
 30 23  1  0  0  0  0
 30 21  1  0  0  0  0
 31 30  2  0  0  0  0
 32 34  1  0  0  0  0
 32 24  1  0  0  0  0
 33 32  1  0  0  0  0
M  END
>  <MODEL>
6

>  <REMARK>
 VINA RESULT:      -6.9      2.275      5.555
  Name = 
  6 active torsions:
  status: ('A' for Active; 'I' for Inactive)
    1  A    between atoms: C_1  and  N_9
    2  A    between atoms: C_3  and  C_25
    3  A    between atoms: C_7  and  N_11
    4  A    between atoms: C_8  and  N_9
    5  A    between atoms: C_8  and  N_18
    6  A    between atoms: N_18  and  C_30
                            x       y       z     vdW  Elec       q    Type
                         _______ _______ _______ _____ _____    ______ ____

>  <TORSDO>
F 6

$$$$
=
 OpenBabel11052420153D

 34 38  0  0  1  0  0  0  0  0999 V2000
  187.2310  177.7520  144.1770 C   0  0  0  0  0  0  0  0  0  0  0  0
  189.7500  177.4530  147.0730 C   0  0  0  0  0  2  0  0  0  0  0  0
  187.2660  177.6430  146.9460 O   0  0  0  0  0  0  0  0  0  0  0  0
  184.7550  178.1480  144.5520 C   0  0  0  0  0  0  0  0  0  0  0  0
  184.0200  178.2950  145.7120 O   0  0  0  0  0  0  0  0  0  0  0  0
  184.2940  178.3660  143.4020 O   0  0  0  0  0  0  0  0  0  0  0  0
  186.0530  177.2660  146.2990 C   0  0  2  0  0  3  0  0  0  0  0  0
  186.0820  177.6740  144.8700 C   0  0  0  0  0  0  0  0  0  0  0  0
  184.8110  177.9750  146.8590 C   0  0  0  0  0  2  0  0  0  0  0  0
  190.4260  176.1010  146.8950 C   0  0  0  0  0  2  0  0  0  0  0  0
  191.2940  176.0830  145.6380 C   0  0  2  0  0  3  0  0  0  0  0  0
  190.4570  176.0720  144.3620 C   0  0  0  0  0  2  0  0  0  0  0  0
  188.4910  177.5320  146.2660 C   0  0  0  0  0  0  0  0  0  0  0  0
  189.7860  177.4200  144.1370 C   0  0  0  0  0  2  0  0  0  0  0  0
  188.5030  177.5200  144.9100 C   0  0  0  0  0  0  0  0  0  0  0  0
  192.1890  174.8910  145.6630 C   0  0  0  0  0  0  0  0  0  0  0  0
  192.2300  174.0170  144.5830 O   0  0  0  0  0  0  0  0  0  0  0  0
  192.9140  174.6770  146.6680 O   0  0  0  0  0  1  0  0  0  0  0  0
  187.2830  178.1810  142.8130 N   0  0  0  0  0  2  0  0  0  0  0  0
  187.1520  177.2640  141.6920 C   0  0  0  0  0  2  0  0  0  0  0  0
  187.0860  175.8950  142.1830 N   0  0  0  0  0  2  0  0  0  0  0  0
  189.2910  172.8870  142.2200 C   0  0  0  0  0  3  0  0  0  0  0  0
  188.3420  174.7730  140.3770 C   0  0  0  0  0  3  0  0  0  0  0  0
  190.9340  171.7070  139.1100 C   0  0  0  0  0  0  0  0  0  0  0  0
  190.5380  171.7920  140.4550 C   0  0  0  0  0  3  0  0  0  0  0  0
  189.6780  172.8070  140.8810 C   0  0  0  0  0  0  0  0  0  0  0  0
  189.5900  173.6800  138.6140 C   0  0  0  0  0  3  0  0  0  0  0  0
  189.2000  173.7570  139.9520 C   0  0  0  0  0  0  0  0  0  0  0  0
  190.4520  172.6610  138.1970 C   0  0  0  0  0  3  0  0  0  0  0  0
  187.9560  174.8550  141.7240 C   0  0  0  0  0  0  0  0  0  0  0  0
  188.4320  173.9090  142.6390 C   0  0  0  0  0  3  0  0  0  0  0  0
  191.8220  170.6600  138.6730 N   0  0  0  0  0  0  0  0  0  0  0  0
  192.2690  170.5780  137.2900 C   0  0  0  0  0  1  0  0  0  0  0  0
  192.3040  169.6450  139.5980 C   0  0  0  0  0  1  0  0  0  0  0  0
  1  8  2  0  0  0  0
  1 15  1  0  0  0  0
  4  8  1  0  0  0  0
  4  5  1  0  0  0  0
  5  9  1  0  0  0  0
  6  4  2  0  0  0  0
  7  9  1  1  0  0  0
  7  3  1  0  0  0  0
  8  7  1  0  0  0  0
 10  2  1  0  0  0  0
 11 16  1  1  0  0  0
 11 10  1  0  0  0  0
 12 11  1  0  0  0  0
 13  3  1  0  0  0  0
 13  2  1  0  0  0  0
 14 12  1  0  0  0  0
 14 15  1  0  0  0  0
 15 13  2  0  0  0  0
 16 18  1  0  0  0  0
 17 16  2  0  0  0  0
 19  1  1  0  0  0  0
 20 21  1  0  0  0  0
 20 19  1  0  0  0  0
 22 31  1  0  0  0  0
 23 30  1  0  0  0  0
 24 25  2  0  0  0  0
 25 26  1  0  0  0  0
 26 22  2  0  0  0  0
 27 28  1  0  0  0  0
 28 23  2  0  0  0  0
 28 26  1  0  0  0  0
 29 27  2  0  0  0  0
 29 24  1  0  0  0  0
 30 21  1  0  0  0  0
 30 31  2  0  0  0  0
 32 24  1  0  0  0  0
 32 34  1  0  0  0  0
 33 32  1  0  0  0  0
M  END
>  <MODEL>
7

>  <REMARK>
 VINA RESULT:      -6.8      2.752      7.014
  Name = 
  6 active torsions:
  status: ('A' for Active; 'I' for Inactive)
    1  A    between atoms: C_1  and  N_9
    2  A    between atoms: C_3  and  C_25
    3  A    between atoms: C_7  and  N_11
    4  A    between atoms: C_8  and  N_9
    5  A    between atoms: C_8  and  N_18
    6  A    between atoms: N_18  and  C_30
                            x       y       z     vdW  Elec       q    Type
                         _______ _______ _______ _____ _____    ______ ____

>  <TORSDO>
F 6

$$$$
=
 OpenBabel11052420153D

 34 38  0  0  1  0  0  0  0  0999 V2000
  187.7350  177.4260  143.9960 C   0  0  0  0  0  0  0  0  0  0  0  0
  187.9350  174.2310  141.8590 C   0  0  0  0  0  2  0  0  0  0  0  0
  186.3150  176.1220  142.0050 O   0  0  0  0  0  0  0  0  0  0  0  0
  185.7350  178.9840  143.9460 C   0  0  0  0  0  0  0  0  0  0  0  0
  184.5570  178.9330  143.2270 O   0  0  0  0  0  0  0  0  0  0  0  0
  185.9450  179.7950  144.8840 O   0  0  0  0  0  0  0  0  0  0  0  0
  186.0970  177.5240  142.1420 C   0  0  2  0  0  3  0  0  0  0  0  0
  186.6680  178.0120  143.4250 C   0  0  0  0  0  0  0  0  0  0  0  0
  184.6140  177.9120  142.2290 C   0  0  0  0  0  2  0  0  0  0  0  0
  189.2020  174.3690  141.0260 C   0  0  0  0  0  2  0  0  0  0  0  0
  190.4470  174.3090  141.9080 C   0  0  2  0  0  3  0  0  0  0  0  0
  190.6100  175.5680  142.7560 C   0  0  0  0  0  2  0  0  0  0  0  0
  187.5260  175.5520  142.4330 C   0  0  0  0  0  0  0  0  0  0  0  0
  189.5680  175.6200  143.8650 C   0  0  0  0  0  2  0  0  0  0  0  0
  188.2760  176.1950  143.3620 C   0  0  0  0  0  0  0  0  0  0  0  0
  191.6560  174.1140  141.0580 C   0  0  0  0  0  0  0  0  0  0  0  0
  191.5480  173.5350  139.8000 O   0  0  0  0  0  0  0  0  0  0  0  0
  192.7820  174.4800  141.4840 O   0  0  0  0  0  1  0  0  0  0  0  0
  188.2730  177.8560  145.2500 N   0  0  0  0  0  2  0  0  0  0  0  0
  188.0090  177.1630  146.5010 C   0  0  0  0  0  2  0  0  0  0  0  0
  189.1870  177.2240  147.3550 N   0  0  0  0  0  2  0  0  0  0  0  0
  191.9180  174.6850  147.2860 C   0  0  0  0  0  3  0  0  0  0  0  0
  191.3530  177.1940  146.1710 C   0  0  0  0  0  3  0  0  0  0  0  0
  194.9910  175.2650  145.2880 C   0  0  0  0  0  0  0  0  0  0  0  0
  194.0530  174.6580  146.1410 C   0  0  0  0  0  3  0  0  0  0  0  0
  192.8450  175.2930  146.4360 C   0  0  0  0  0  0  0  0  0  0  0  0
  193.4870  177.1670  145.0270 C   0  0  0  0  0  3  0  0  0  0  0  0
  192.5610  176.5570  145.8740 C   0  0  0  0  0  0  0  0  0  0  0  0
  194.6940  176.5240  144.7370 C   0  0  0  0  0  3  0  0  0  0  0  0
  190.4250  176.5840  147.0290 C   0  0  0  0  0  0  0  0  0  0  0  0
  190.7120  175.3300  147.5810 C   0  0  0  0  0  3  0  0  0  0  0  0
  196.2370  174.6080  144.9840 N   0  0  0  0  0  0  0  0  0  0  0  0
  196.9720  174.9140  143.7660 C   0  0  0  0  0  1  0  0  0  0  0  0
  196.8050  173.6160  145.8840 C   0  0  0  0  0  1  0  0  0  0  0  0
  1 19  1  0  0  0  0
  2 13  1  0  0  0  0
  3  7  1  0  0  0  0
  3 13  1  0  0  0  0
  4  6  2  0  0  0  0
  5  4  1  0  0  0  0
  7  9  1  1  0  0  0
  7  8  1  0  0  0  0
  8  4  1  0  0  0  0
  8  1  2  0  0  0  0
  9  5  1  0  0  0  0
 10  2  1  0  0  0  0
 10 11  1  0  0  0  0
 11 16  1  6  0  0  0
 11 12  1  0  0  0  0
 12 14  1  0  0  0  0
 13 15  2  0  0  0  0
 15 14  1  0  0  0  0
 15  1  1  0  0  0  0
 16 18  1  0  0  0  0
 17 16  2  0  0  0  0
 19 20  1  0  0  0  0
 20 21  1  0  0  0  0
 22 31  1  0  0  0  0
 23 30  1  0  0  0  0
 24 25  2  0  0  0  0
 25 26  1  0  0  0  0
 26 22  2  0  0  0  0
 27 28  1  0  0  0  0
 28 23  2  0  0  0  0
 28 26  1  0  0  0  0
 29 27  2  0  0  0  0
 29 24  1  0  0  0  0
 30 21  1  0  0  0  0
 30 31  2  0  0  0  0
 32 24  1  0  0  0  0
 32 34  1  0  0  0  0
 33 32  1  0  0  0  0
M  END
>  <MODEL>
8

>  <REMARK>
 VINA RESULT:      -6.6      2.390      8.071
  Name = 
  6 active torsions:
  status: ('A' for Active; 'I' for Inactive)
    1  A    between atoms: C_1  and  N_9
    2  A    between atoms: C_3  and  C_25
    3  A    between atoms: C_7  and  N_11
    4  A    between atoms: C_8  and  N_9
    5  A    between atoms: C_8  and  N_18
    6  A    between atoms: N_18  and  C_30
                            x       y       z     vdW  Elec       q    Type
                         _______ _______ _______ _____ _____    ______ ____

>  <TORSDO>
F 6

$$$$
=
 OpenBabel11052420153D

 34 38  0  0  1  0  0  0  0  0999 V2000
  186.7600  177.7540  142.6350 C   0  0  0  0  0  0  0  0  0  0  0  0
  187.1700  178.2250  146.4340 C   0  0  0  0  0  2  0  0  0  0  0  0
  185.2360  178.3730  144.8650 O   0  0  0  0  0  0  0  0  0  0  0  0
  184.5850  178.2320  141.4230 C   0  0  0  0  0  0  0  0  0  0  0  0
  183.3620  178.6760  141.8850 O   0  0  0  0  0  0  0  0  0  0  0  0
  184.8790  178.1410  140.2030 O   0  0  0  0  0  0  0  0  0  0  0  0
  184.5450  177.8390  143.7380 C   0  0  2  0  0  3  0  0  0  0  0  0
  185.4230  177.8590  142.5380 C   0  0  0  0  0  0  0  0  0  0  0  0
  183.3250  178.6680  143.3140 C   0  0  0  0  0  2  0  0  0  0  0  0
  187.6190  176.8740  146.9720 C   0  0  0  0  0  2  0  0  0  0  0  0
  189.0240  176.5290  146.4820 C   0  0  2  0  0  3  0  0  0  0  0  0
  189.0460  176.1840  144.9960 C   0  0  0  0  0  2  0  0  0  0  0  0
  186.5990  178.0890  145.0560 C   0  0  0  0  0  0  0  0  0  0  0  0
  188.8240  177.4260  144.1430 C   0  0  0  0  0  2  0  0  0  0  0  0
  187.3600  177.7230  143.9950 C   0  0  0  0  0  0  0  0  0  0  0  0
  189.5650  175.3860  147.2720 C   0  0  0  0  0  0  0  0  0  0  0  0
  190.8690  175.4140  147.7530 O   0  0  0  0  0  1  0  0  0  0  0  0
  188.8330  174.3900  147.5070 O   0  0  0  0  0  0  0  0  0  0  0  0
  187.6240  177.8110  141.4960 N   0  0  0  0  0  2  0  0  0  0  0  0
  187.8240  176.6840  140.5990 C   0  0  0  0  0  2  0  0  0  0  0  0
  187.4690  175.4470  141.2800 N   0  0  0  0  0  2  0  0  0  0  0  0
  188.9410  172.3640  142.7770 C   0  0  0  0  0  3  0  0  0  0  0  0
  189.8070  174.8440  141.7990 C   0  0  0  0  0  3  0  0  0  0  0  0
  192.6000  172.0900  143.3290 C   0  0  0  0  0  0  0  0  0  0  0  0
  191.2310  171.7740  143.3040 C   0  0  0  0  0  3  0  0  0  0  0  0
  190.3000  172.6830  142.7970 C   0  0  0  0  0  0  0  0  0  0  0  0
  192.0950  174.2540  142.3270 C   0  0  0  0  0  3  0  0  0  0  0  0
  190.7370  173.9330  142.3040 C   0  0  0  0  0  0  0  0  0  0  0  0
  193.0190  173.3380  142.8370 C   0  0  0  0  0  3  0  0  0  0  0  0
  188.4400  174.5230  141.7830 C   0  0  0  0  0  0  0  0  0  0  0  0
  188.0150  173.2830  142.2710 C   0  0  0  0  0  3  0  0  0  0  0  0
  193.5580  171.1500  143.8530 N   0  0  0  0  0  0  0  0  0  0  0  0
  194.9650  171.4990  143.9790 C   0  0  0  0  0  1  0  0  0  0  0  0
  193.1540  169.8180  144.2760 C   0  0  0  0  0  1  0  0  0  0  0  0
  1 15  1  0  0  0  0
  2 10  1  0  0  0  0
  3 13  1  0  0  0  0
  4  5  1  0  0  0  0
  4  8  1  0  0  0  0
  5  9  1  0  0  0  0
  6  4  2  0  0  0  0
  7  9  1  6  0  0  0
  7  3  1  0  0  0  0
  8  1  2  0  0  0  0
  8  7  1  0  0  0  0
 11 10  1  0  0  0  0
 11 16  1  1  0  0  0
 12 11  1  0  0  0  0
 13  2  1  0  0  0  0
 14 12  1  0  0  0  0
 15 14  1  0  0  0  0
 15 13  2  0  0  0  0
 16 18  2  0  0  0  0
 16 17  1  0  0  0  0
 19  1  1  0  0  0  0
 20 21  1  0  0  0  0
 20 19  1  0  0  0  0
 21 30  1  0  0  0  0
 22 26  1  0  0  0  0
 23 28  1  0  0  0  0
 24 32  1  0  0  0  0
 25 24  1  0  0  0  0
 26 25  2  0  0  0  0
 27 29  1  0  0  0  0
 28 27  2  0  0  0  0
 28 26  1  0  0  0  0
 29 24  2  0  0  0  0
 30 23  2  0  0  0  0
 30 31  1  0  0  0  0
 31 22  2  0  0  0  0
 32 33  1  0  0  0  0
 32 34  1  0  0  0  0
M  END
>  <MODEL>
9

>  <REMARK>
 VINA RESULT:      -6.4      2.574      7.275
  Name = 
  6 active torsions:
  status: ('A' for Active; 'I' for Inactive)
    1  A    between atoms: C_1  and  N_9
    2  A    between atoms: C_3  and  C_25
    3  A    between atoms: C_7  and  N_11
    4  A    between atoms: C_8  and  N_9
    5  A    between atoms: C_8  and  N_18
    6  A    between atoms: N_18  and  C_30
                            x       y       z     vdW  Elec       q    Type
                         _______ _______ _______ _____ _____    ______ ____

>  <TORSDO>
F 6

$$$$
