=
 OpenBabel11052417113D

 30 31  0  0  1  0  0  0  0  0999 V2000
  188.2660  176.7990  145.5160 C   0  0  1  0  0  3  0  0  0  0  0  0
  189.8270  175.5580  143.9070 N   0  0  0  0  0  0  0  0  0  0  0  0
  188.1900  175.4930  146.1620 N   0  0  0  0  0  2  0  0  0  0  0  0
  190.6890  175.8230  146.3020 C   0  0  2  0  0  3  0  0  0  0  0  0
  189.4130  175.2280  146.9220 C   0  0  0  0  0  2  0  0  0  0  0  0
  190.9510  175.3420  144.8490 C   0  0  2  0  0  3  0  0  0  0  0  0
  188.9140  176.7040  144.1230 C   0  0  2  0  0  3  0  0  0  0  0  0
  186.3690  178.1720  146.5220 C   0  0  0  0  0  0  0  0  0  0  0  0
  185.0940  178.7370  146.4070 C   0  0  0  0  0  3  0  0  0  0  0  0
  187.0840  178.3450  147.7010 O   0  0  0  0  0  1  0  0  0  0  0  0
  186.1640  177.2810  144.2750 C   0  0  0  0  0  3  0  0  0  0  0  0
  184.1760  177.6910  143.0260 F   0  0  0  0  0  0  0  0  0  0  0  0
  186.9110  177.4380  145.4470 C   0  0  0  0  0  0  0  0  0  0  0  0
  184.3570  178.5750  145.2320 C   0  0  0  0  0  3  0  0  0  0  0  0
  184.8920  177.8480  144.1660 C   0  0  0  0  0  0  0  0  0  0  0  0
  192.2630  176.0260  142.7480 C   0  0  0  0  0  1  0  0  0  0  0  0
  192.2680  175.9150  144.2680 C   0  0  2  0  0  3  0  0  0  0  0  0
  193.4810  175.0930  144.6910 C   0  0  0  0  0  2  0  0  0  0  0  0
  194.6080  175.9060  144.8340 O   0  0  0  0  0  1  0  0  0  0  0  0
  191.8530  175.5180  147.2370 C   0  0  0  0  0  2  0  0  0  0  0  0
  191.7370  177.3490  148.7230 O   0  0  0  0  0  0  0  0  0  0  0  0
  192.3800  176.7700  147.8640 C   0  0  0  0  0  0  0  0  0  0  0  0
  193.5940  177.2490  147.4890 F   0  0  0  0  0  0  0  0  0  0  0  0
  189.5840  178.0150  143.7440 C   0  0  0  0  0  2  0  0  0  0  0  0
  188.3200  177.7190  141.7340 O   0  0  0  0  0  1  0  0  0  0  0  0
  189.5130  178.2330  142.2420 C   0  0  0  0  0  2  0  0  0  0  0  0
  189.0880  174.3170  143.7090 C   0  0  0  0  0  2  0  0  0  0  0  0
  187.3320  174.3290  142.1370 O   0  0  0  0  0  0  0  0  0  0  0  0
  188.5360  174.2640  142.3220 C   0  0  0  0  0  0  0  0  0  0  0  0
  189.4600  174.1490  141.1610 C   0  0  0  0  0  1  0  0  0  0  0  0
  1 13  1  6  0  0  0
  1  3  1  0  0  0  0
  2  7  1  0  0  0  0
  2  6  1  0  0  0  0
  3  5  1  0  0  0  0
  4  5  1  0  0  0  0
  4 20  1  1  0  0  0
  6 17  1  6  0  0  0
  6  4  1  0  0  0  0
  7 24  1  1  0  0  0
  7  1  1  0  0  0  0
  8 10  1  0  0  0  0
  9  8  1  0  0  0  0
 11 13  1  0  0  0  0
 12 15  1  0  0  0  0
 13  8  2  0  0  0  0
 14  9  2  0  0  0  0
 15 11  2  0  0  0  0
 15 14  1  0  0  0  0
 17 16  1  6  0  0  0
 17 18  1  0  0  0  0
 18 19  1  0  0  0  0
 20 22  1  0  0  0  0
 22 21  2  0  0  0  0
 23 22  1  0  0  0  0
 25 26  1  0  0  0  0
 26 24  1  0  0  0  0
 27  2  1  0  0  0  0
 28 29  2  0  0  0  0
 29 27  1  0  0  0  0
 30 29  1  0  0  0  0
M  END
>  <MODEL>
1

>  <REMARK>
 VINA RESULT:      -6.2      0.000      0.000
  Name = 
  9 active torsions:
  status: ('A' for Active; 'I' for Inactive)
    1  A    between atoms: C_1  and  C_22
    2  A    between atoms: N_4  and  C_25
    3  A    between atoms: C_6  and  C_8
    4  A    between atoms: C_6  and  C_17
    5  A    between atoms: C_7  and  C_30
    6  A    between atoms: C_10  and  C_23
    7  A    between atoms: C_10  and  C_26
    8  A    between atoms: C_11  and  C_25
    9  A    between atoms: C_13  and  C_30
                            x       y       z     vdW  Elec       q    Type
                         _______ _______ _______ _____ _____    ______ ____

>  <TORSDO>
F 9

$$$$
=
 OpenBabel11052417113D

 30 31  0  0  1  0  0  0  0  0999 V2000
  188.4180  176.8990  145.4000 C   0  0  1  0  0  3  0  0  0  0  0  0
  190.5440  175.6840  144.6480 N   0  0  0  0  0  0  0  0  0  0  0  0
  188.2740  175.7320  146.2630 N   0  0  0  0  0  2  0  0  0  0  0  0
  190.5380  176.5040  147.0720 C   0  0  2  0  0  3  0  0  0  0  0  0
  189.1990  175.8160  147.3940 C   0  0  0  0  0  2  0  0  0  0  0  0
  191.3120  175.8300  145.9080 C   0  0  2  0  0  3  0  0  0  0  0  0
  189.4950  176.6760  144.3230 C   0  0  2  0  0  3  0  0  0  0  0  0
  186.6110  176.6620  143.6190 C   0  0  0  0  0  0  0  0  0  0  0  0
  185.3810  177.0620  143.0860 C   0  0  0  0  0  3  0  0  0  0  0  0
  187.3330  175.6600  142.9820 O   0  0  0  0  0  1  0  0  0  0  0  0
  186.3500  178.2830  145.4050 C   0  0  0  0  0  3  0  0  0  0  0  0
  184.4020  179.6540  145.4720 F   0  0  0  0  0  0  0  0  0  0  0  0
  187.1010  177.2760  144.7890 C   0  0  0  0  0  0  0  0  0  0  0  0
  184.6380  178.0680  143.7090 C   0  0  0  0  0  3  0  0  0  0  0  0
  185.1220  178.6780  144.8680 C   0  0  0  0  0  0  0  0  0  0  0  0
  193.0970  176.4730  144.1740 C   0  0  0  0  0  1  0  0  0  0  0  0
  192.6780  176.5100  145.6380 C   0  0  2  0  0  3  0  0  0  0  0  0
  193.7940  175.8960  146.4780 C   0  0  0  0  0  2  0  0  0  0  0  0
  195.0440  176.1630  145.9150 O   0  0  0  0  0  1  0  0  0  0  0  0
  191.3550  176.5700  148.3570 C   0  0  0  0  0  2  0  0  0  0  0  0
  191.7150  178.1080  150.1120 O   0  0  0  0  0  0  0  0  0  0  0  0
  191.1090  177.8540  149.0840 C   0  0  0  0  0  0  0  0  0  0  0  0
  190.2220  178.7510  148.5820 F   0  0  0  0  0  0  0  0  0  0  0  0
  190.1080  177.9970  143.8850 C   0  0  0  0  0  2  0  0  0  0  0  0
  188.9240  178.3950  141.8440 O   0  0  0  0  0  1  0  0  0  0  0  0
  190.1760  178.0740  142.3700 C   0  0  0  0  0  2  0  0  0  0  0  0
  190.0480  174.3190  144.5150 C   0  0  0  0  0  2  0  0  0  0  0  0
  191.6280  172.5850  144.2930 O   0  0  0  0  0  0  0  0  0  0  0  0
  191.0240  173.4920  143.7430 C   0  0  0  0  0  0  0  0  0  0  0  0
  191.2480  173.7640  142.2980 C   0  0  0  0  0  1  0  0  0  0  0  0
  1 13  1  6  0  0  0
  1  3  1  0  0  0  0
  2  6  1  0  0  0  0
  3  5  1  0  0  0  0
  4  5  1  0  0  0  0
  4 20  1  1  0  0  0
  6 17  1  6  0  0  0
  6  4  1  0  0  0  0
  7 24  1  1  0  0  0
  7  2  1  0  0  0  0
  7  1  1  0  0  0  0
  8 13  1  0  0  0  0
  9  8  2  0  0  0  0
  9 14  1  0  0  0  0
 10  8  1  0  0  0  0
 13 11  2  0  0  0  0
 14 15  2  0  0  0  0
 15 11  1  0  0  0  0
 15 12  1  0  0  0  0
 17 16  1  6  0  0  0
 17 18  1  0  0  0  0
 19 18  1  0  0  0  0
 20 22  1  0  0  0  0
 22 21  2  0  0  0  0
 23 22  1  0  0  0  0
 25 26  1  0  0  0  0
 26 24  1  0  0  0  0
 27  2  1  0  0  0  0
 29 28  2  0  0  0  0
 29 27  1  0  0  0  0
 30 29  1  0  0  0  0
M  END
>  <MODEL>
2

>  <REMARK>
 VINA RESULT:      -5.8      1.766      2.260
  Name = 
  9 active torsions:
  status: ('A' for Active; 'I' for Inactive)
    1  A    between atoms: C_1  and  C_22
    2  A    between atoms: N_4  and  C_25
    3  A    between atoms: C_6  and  C_8
    4  A    between atoms: C_6  and  C_17
    5  A    between atoms: C_7  and  C_30
    6  A    between atoms: C_10  and  C_23
    7  A    between atoms: C_10  and  C_26
    8  A    between atoms: C_11  and  C_25
    9  A    between atoms: C_13  and  C_30
                            x       y       z     vdW  Elec       q    Type
                         _______ _______ _______ _____ _____    ______ ____

>  <TORSDO>
F 9

$$$$
=
 OpenBabel11052417113D

 30 31  0  0  1  0  0  0  0  0999 V2000
  188.5110  176.1820  144.4560 C   0  0  1  0  0  3  0  0  0  0  0  0
  190.9710  175.5100  144.7060 N   0  0  0  0  0  0  0  0  0  0  0  0
  189.0390  177.0260  143.3900 N   0  0  0  0  0  2  0  0  0  0  0  0
  189.8470  174.7980  142.5200 C   0  0  2  0  0  3  0  0  0  0  0  0
  189.3520  176.2210  142.2080 C   0  0  0  0  0  2  0  0  0  0  0  0
  191.1050  174.7690  143.4290 C   0  0  2  0  0  3  0  0  0  0  0  0
  189.6380  175.6200  145.3410 C   0  0  2  0  0  3  0  0  0  0  0  0
  186.1430  177.0200  144.8800 C   0  0  0  0  0  0  0  0  0  0  0  0
  185.2390  177.7370  145.6720 C   0  0  0  0  0  3  0  0  0  0  0  0
  185.6900  176.4110  143.7160 O   0  0  0  0  0  1  0  0  0  0  0  0
  187.9180  177.5520  146.4460 C   0  0  0  0  0  3  0  0  0  0  0  0
  187.4310  178.8690  148.3710 F   0  0  0  0  0  0  0  0  0  0  0  0
  187.4940  176.9250  145.2690 C   0  0  0  0  0  0  0  0  0  0  0  0
  185.6720  178.3590  146.8460 C   0  0  0  0  0  3  0  0  0  0  0  0
  187.0110  178.2650  147.2330 C   0  0  0  0  0  0  0  0  0  0  0  0
  190.4920  172.3190  143.9110 C   0  0  0  0  0  1  0  0  0  0  0  0
  191.6120  173.3270  143.6860 C   0  0  2  0  0  3  0  0  0  0  0  0
  192.5670  173.2640  144.8750 C   0  0  0  0  0  2  0  0  0  0  0  0
  193.1960  172.0190  144.9420 O   0  0  0  0  0  1  0  0  0  0  0  0
  190.0650  174.0730  141.1980 C   0  0  0  0  0  2  0  0  0  0  0  0
  188.4740  174.1360  139.4540 O   0  0  0  0  0  0  0  0  0  0  0  0
  188.7600  173.7130  140.5620 C   0  0  0  0  0  0  0  0  0  0  0  0
  187.8990  172.8890  141.2140 F   0  0  0  0  0  0  0  0  0  0  0  0
  189.2250  174.3010  145.9760 C   0  0  0  0  0  2  0  0  0  0  0  0
  190.3130  175.1060  147.9490 O   0  0  0  0  0  1  0  0  0  0  0  0
  189.1830  174.4300  147.4880 C   0  0  0  0  0  2  0  0  0  0  0  0
  191.6230  176.8110  144.6060 C   0  0  0  0  0  2  0  0  0  0  0  0
  193.9710  176.8520  144.4130 O   0  0  0  0  0  0  0  0  0  0  0  0
  193.0100  176.7330  145.1550 C   0  0  0  0  0  0  0  0  0  0  0  0
  193.2200  176.5260  146.6130 C   0  0  0  0  0  1  0  0  0  0  0  0
  1 13  1  1  0  0  0
  1  7  1  0  0  0  0
  2  7  1  0  0  0  0
  3  1  1  0  0  0  0
  4 20  1  6  0  0  0
  4  6  1  0  0  0  0
  5  4  1  0  0  0  0
  5  3  1  0  0  0  0
  6 17  1  1  0  0  0
  6  2  1  0  0  0  0
  7 24  1  6  0  0  0
  8 13  2  0  0  0  0
  8  9  1  0  0  0  0
  9 14  2  0  0  0  0
 10  8  1  0  0  0  0
 11 15  2  0  0  0  0
 13 11  1  0  0  0  0
 14 15  1  0  0  0  0
 15 12  1  0  0  0  0
 17 16  1  1  0  0  0
 17 18  1  0  0  0  0
 18 19  1  0  0  0  0
 21 22  2  0  0  0  0
 22 20  1  0  0  0  0
 22 23  1  0  0  0  0
 24 26  1  0  0  0  0
 26 25  1  0  0  0  0
 27  2  1  0  0  0  0
 27 29  1  0  0  0  0
 28 29  2  0  0  0  0
 29 30  1  0  0  0  0
M  END
>  <MODEL>
3

>  <REMARK>
 VINA RESULT:      -5.8      2.480      5.096
  Name = 
  9 active torsions:
  status: ('A' for Active; 'I' for Inactive)
    1  A    between atoms: C_1  and  C_22
    2  A    between atoms: N_4  and  C_25
    3  A    between atoms: C_6  and  C_8
    4  A    between atoms: C_6  and  C_17
    5  A    between atoms: C_7  and  C_30
    6  A    between atoms: C_10  and  C_23
    7  A    between atoms: C_10  and  C_26
    8  A    between atoms: C_11  and  C_25
    9  A    between atoms: C_13  and  C_30
                            x       y       z     vdW  Elec       q    Type
                         _______ _______ _______ _____ _____    ______ ____

>  <TORSDO>
F 9

$$$$
=
 OpenBabel11052417113D

 30 31  0  0  1  0  0  0  0  0999 V2000
  187.6010  176.0480  143.6870 C   0  0  1  0  0  3  0  0  0  0  0  0
  190.1160  175.5690  143.7870 N   0  0  0  0  0  0  0  0  0  0  0  0
  187.8660  176.1770  142.2580 N   0  0  0  0  0  2  0  0  0  0  0  0
  188.7020  173.8150  142.5720 C   0  0  2  0  0  3  0  0  0  0  0  0
  188.0430  174.8560  141.6510 C   0  0  0  0  0  2  0  0  0  0  0  0
  190.0940  174.2550  143.1010 C   0  0  2  0  0  3  0  0  0  0  0  0
  188.9050  176.0290  144.5040 C   0  0  2  0  0  3  0  0  0  0  0  0
  186.6740  178.4200  143.5830 C   0  0  0  0  0  0  0  0  0  0  0  0
  185.7970  179.3960  144.0690 C   0  0  0  0  0  3  0  0  0  0  0  0
  187.5320  178.7380  142.5380 O   0  0  0  0  0  1  0  0  0  0  0  0
  185.8000  176.8440  145.2080 C   0  0  0  0  0  3  0  0  0  0  0  0
  184.0820  177.5350  146.7080 F   0  0  0  0  0  0  0  0  0  0  0  0
  186.6760  177.1320  144.1550 C   0  0  0  0  0  0  0  0  0  0  0  0
  184.9260  179.0990  145.1200 C   0  0  0  0  0  3  0  0  0  0  0  0
  184.9270  177.8230  145.6890 C   0  0  0  0  0  0  0  0  0  0  0  0
  189.7770  172.4400  144.8940 C   0  0  0  0  0  1  0  0  0  0  0  0
  190.7590  173.1680  143.9840 C   0  0  2  0  0  3  0  0  0  0  0  0
  191.8820  173.7420  144.8420 C   0  0  0  0  0  2  0  0  0  0  0  0
  193.0950  173.7240  144.1500 O   0  0  0  0  0  1  0  0  0  0  0  0
  188.7540  172.4890  141.8240 C   0  0  0  0  0  2  0  0  0  0  0  0
  188.3080  172.4630  139.5050 O   0  0  0  0  0  0  0  0  0  0  0  0
  189.1170  172.6960  140.3880 C   0  0  0  0  0  0  0  0  0  0  0  0
  190.3490  173.1700  140.0680 F   0  0  0  0  0  0  0  0  0  0  0  0
  188.7190  175.2670  145.8070 C   0  0  0  0  0  2  0  0  0  0  0  0
  189.5430  177.3190  146.7200 O   0  0  0  0  0  1  0  0  0  0  0  0
  189.4870  175.9410  146.9300 C   0  0  0  0  0  2  0  0  0  0  0  0
  190.6280  176.5980  142.8900 C   0  0  0  0  0  2  0  0  0  0  0  0
  191.0560  178.7930  143.6320 O   0  0  0  0  0  0  0  0  0  0  0  0
  191.3920  177.6210  143.6660 C   0  0  0  0  0  0  0  0  0  0  0  0
  192.5550  177.2060  144.4960 C   0  0  0  0  0  1  0  0  0  0  0  0
  1 13  1  1  0  0  0
  1  7  1  0  0  0  0
  2  7  1  0  0  0  0
  3  1  1  0  0  0  0
  4 20  1  6  0  0  0
  4  6  1  0  0  0  0
  5  3  1  0  0  0  0
  5  4  1  0  0  0  0
  6  2  1  0  0  0  0
  6 17  1  1  0  0  0
  7 24  1  1  0  0  0
  8  9  2  0  0  0  0
  8 13  1  0  0  0  0
  9 14  1  0  0  0  0
 10  8  1  0  0  0  0
 11 15  1  0  0  0  0
 13 11  2  0  0  0  0
 14 15  2  0  0  0  0
 15 12  1  0  0  0  0
 17 18  1  0  0  0  0
 17 16  1  1  0  0  0
 19 18  1  0  0  0  0
 21 22  2  0  0  0  0
 22 20  1  0  0  0  0
 23 22  1  0  0  0  0
 24 26  1  0  0  0  0
 25 26  1  0  0  0  0
 27 29  1  0  0  0  0
 27  2  1  0  0  0  0
 28 29  2  0  0  0  0
 29 30  1  0  0  0  0
M  END
>  <MODEL>
4

>  <REMARK>
 VINA RESULT:      -5.7      2.570      4.763
  Name = 
  9 active torsions:
  status: ('A' for Active; 'I' for Inactive)
    1  A    between atoms: C_1  and  C_22
    2  A    between atoms: N_4  and  C_25
    3  A    between atoms: C_6  and  C_8
    4  A    between atoms: C_6  and  C_17
    5  A    between atoms: C_7  and  C_30
    6  A    between atoms: C_10  and  C_23
    7  A    between atoms: C_10  and  C_26
    8  A    between atoms: C_11  and  C_25
    9  A    between atoms: C_13  and  C_30
                            x       y       z     vdW  Elec       q    Type
                         _______ _______ _______ _____ _____    ______ ____

>  <TORSDO>
F 9

$$$$
=
 OpenBabel11052417113D

 30 31  0  0  1  0  0  0  0  0999 V2000
  188.9920  176.9280  145.0440 C   0  0  1  0  0  3  0  0  0  0  0  0
  190.0710  174.9150  143.8830 N   0  0  0  0  0  0  0  0  0  0  0  0
  189.6840  176.3950  146.2130 N   0  0  0  0  0  2  0  0  0  0  0  0
  191.6920  176.7120  144.7150 C   0  0  2  0  0  3  0  0  0  0  0  0
  191.1150  176.6980  146.1410 C   0  0  0  0  0  2  0  0  0  0  0  0
  191.4780  175.3780  143.9510 C   0  0  2  0  0  3  0  0  0  0  0  0
  188.9810  175.9170  143.8840 C   0  0  2  0  0  3  0  0  0  0  0  0
  186.8820  176.7910  146.4670 C   0  0  0  0  0  0  0  0  0  0  0  0
  185.5850  177.2310  146.7480 C   0  0  0  0  0  3  0  0  0  0  0  0
  187.4410  175.7850  147.2460 O   0  0  0  0  0  1  0  0  0  0  0  0
  187.0110  178.3770  144.6350 C   0  0  0  0  0  3  0  0  0  0  0  0
  185.1500  179.7910  144.1740 F   0  0  0  0  0  0  0  0  0  0  0  0
  187.6040  177.3670  145.4020 C   0  0  0  0  0  0  0  0  0  0  0  0
  185.0020  178.2400  145.9770 C   0  0  0  0  0  3  0  0  0  0  0  0
  185.7150  178.8130  144.9220 C   0  0  0  0  0  0  0  0  0  0  0  0
  191.3780  174.5300  141.5270 C   0  0  0  0  0  1  0  0  0  0  0  0
  192.1130  175.4010  142.5370 C   0  0  2  0  0  3  0  0  0  0  0  0
  193.5790  174.9780  142.5660 C   0  0  0  0  0  2  0  0  0  0  0  0
  193.8960  174.2060  141.4470 O   0  0  0  0  0  1  0  0  0  0  0  0
  193.1620  177.1040  144.8050 C   0  0  0  0  0  2  0  0  0  0  0  0
  194.2730  177.1660  146.8880 O   0  0  0  0  0  0  0  0  0  0  0  0
  193.8140  176.4730  145.9940 C   0  0  0  0  0  0  0  0  0  0  0  0
  193.8730  175.1200  146.0890 F   0  0  0  0  0  0  0  0  0  0  0  0
  188.8910  176.6280  142.5430 C   0  0  0  0  0  2  0  0  0  0  0  0
  186.7320  175.6000  142.4720 O   0  0  0  0  0  1  0  0  0  0  0  0
  187.8090  176.0010  141.6810 C   0  0  0  0  0  2  0  0  0  0  0  0
  189.8360  173.8690  144.8710 C   0  0  0  0  0  2  0  0  0  0  0  0
  191.1220  171.9080  144.6380 O   0  0  0  0  0  0  0  0  0  0  0  0
  190.1340  172.5300  144.2810 C   0  0  0  0  0  0  0  0  0  0  0  0
  189.2160  171.9450  143.2660 C   0  0  0  0  0  1  0  0  0  0  0  0
  1 13  1  1  0  0  0
  1  3  1  0  0  0  0
  2  7  1  0  0  0  0
  2  6  1  0  0  0  0
  2 27  1  0  0  0  0
  4 20  1  1  0  0  0
  4  5  1  0  0  0  0
  5  3  1  0  0  0  0
  6 17  1  6  0  0  0
  6  4  1  0  0  0  0
  7 24  1  6  0  0  0
  7  1  1  0  0  0  0
  8  9  1  0  0  0  0
  8 10  1  0  0  0  0
 11 15  2  0  0  0  0
 11 13  1  0  0  0  0
 12 15  1  0  0  0  0
 13  8  2  0  0  0  0
 14  9  2  0  0  0  0
 15 14  1  0  0  0  0
 17 16  1  6  0  0  0
 17 18  1  0  0  0  0
 19 18  1  0  0  0  0
 20 22  1  0  0  0  0
 22 23  1  0  0  0  0
 22 21  2  0  0  0  0
 26 25  1  0  0  0  0
 26 24  1  0  0  0  0
 29 28  2  0  0  0  0
 29 27  1  0  0  0  0
 30 29  1  0  0  0  0
M  END
>  <MODEL>
5

>  <REMARK>
 VINA RESULT:      -5.5      1.980      2.356
  Name = 
  9 active torsions:
  status: ('A' for Active; 'I' for Inactive)
    1  A    between atoms: C_1  and  C_22
    2  A    between atoms: N_4  and  C_25
    3  A    between atoms: C_6  and  C_8
    4  A    between atoms: C_6  and  C_17
    5  A    between atoms: C_7  and  C_30
    6  A    between atoms: C_10  and  C_23
    7  A    between atoms: C_10  and  C_26
    8  A    between atoms: C_11  and  C_25
    9  A    between atoms: C_13  and  C_30
                            x       y       z     vdW  Elec       q    Type
                         _______ _______ _______ _____ _____    ______ ____

>  <TORSDO>
F 9

$$$$
=
 OpenBabel11052417113D

 30 31  0  0  1  0  0  0  0  0999 V2000
  188.5540  176.4840  145.4130 C   0  0  1  0  0  3  0  0  0  0  0  0
  189.7570  175.2000  143.5500 N   0  0  0  0  0  0  0  0  0  0  0  0
  188.5930  175.1880  146.0820 N   0  0  0  0  0  2  0  0  0  0  0  0
  191.0740  175.4870  145.7250 C   0  0  2  0  0  3  0  0  0  0  0  0
  189.9380  174.9170  146.5930 C   0  0  0  0  0  2  0  0  0  0  0  0
  191.0410  174.9820  144.2580 C   0  0  2  0  0  3  0  0  0  0  0  0
  188.9160  176.3600  143.9220 C   0  0  2  0  0  3  0  0  0  0  0  0
  186.1370  176.9090  144.7270 C   0  0  0  0  0  0  0  0  0  0  0  0
  184.9170  177.5580  144.9430 C   0  0  0  0  0  3  0  0  0  0  0  0
  186.2620  176.0420  143.6480 O   0  0  0  0  0  1  0  0  0  0  0  0
  187.0600  178.0210  146.6760 C   0  0  0  0  0  3  0  0  0  0  0  0
  185.6940  179.5170  147.9310 F   0  0  0  0  0  0  0  0  0  0  0  0
  187.2190  177.1400  145.6000 C   0  0  0  0  0  0  0  0  0  0  0  0
  184.7670  178.4350  146.0200 C   0  0  0  0  0  3  0  0  0  0  0  0
  185.8390  178.6660  146.8860 C   0  0  0  0  0  0  0  0  0  0  0  0
  192.3150  177.0500  143.4160 C   0  0  0  0  0  1  0  0  0  0  0  0
  192.2250  175.5290  143.4200 C   0  0  2  0  0  3  0  0  0  0  0  0
  192.1710  175.0430  141.9750 C   0  0  0  0  0  2  0  0  0  0  0  0
  192.3260  173.6560  141.9110 O   0  0  0  0  0  1  0  0  0  0  0  0
  192.3960  175.1800  146.4190 C   0  0  0  0  0  2  0  0  0  0  0  0
  194.1050  176.7950  146.6390 O   0  0  0  0  0  0  0  0  0  0  0  0
  193.0000  176.4210  146.9960 C   0  0  0  0  0  0  0  0  0  0  0  0
  192.3020  177.1470  147.9070 F   0  0  0  0  0  0  0  0  0  0  0  0
  189.5120  177.6570  143.3970 C   0  0  0  0  0  2  0  0  0  0  0  0
  187.6920  178.5970  142.1610 O   0  0  0  0  0  1  0  0  0  0  0  0
  188.9410  177.9890  142.0300 C   0  0  0  0  0  2  0  0  0  0  0  0
  188.9810  173.9660  143.5210 C   0  0  0  0  0  2  0  0  0  0  0  0
  187.4410  173.0150  142.0120 O   0  0  0  0  0  0  0  0  0  0  0  0
  188.3960  173.7600  142.1620 C   0  0  0  0  0  0  0  0  0  0  0  0
  188.9680  174.4780  140.9920 C   0  0  0  0  0  1  0  0  0  0  0  0
  1 13  1  6  0  0  0
  1  3  1  0  0  0  0
  2  7  1  0  0  0  0
  2  6  1  0  0  0  0
  3  5  1  0  0  0  0
  4 20  1  1  0  0  0
  4  5  1  0  0  0  0
  6 17  1  6  0  0  0
  6  4  1  0  0  0  0
  7 24  1  1  0  0  0
  7  1  1  0  0  0  0
  8  9  2  0  0  0  0
  8 13  1  0  0  0  0
  9 14  1  0  0  0  0
 10  8  1  0  0  0  0
 11 15  1  0  0  0  0
 13 11  2  0  0  0  0
 14 15  2  0  0  0  0
 15 12  1  0  0  0  0
 17 16  1  6  0  0  0
 18 17  1  0  0  0  0
 19 18  1  0  0  0  0
 20 22  1  0  0  0  0
 21 22  2  0  0  0  0
 22 23  1  0  0  0  0
 26 25  1  0  0  0  0
 26 24  1  0  0  0  0
 27  2  1  0  0  0  0
 28 29  2  0  0  0  0
 29 27  1  0  0  0  0
 30 29  1  0  0  0  0
M  END
>  <MODEL>
6

>  <REMARK>
 VINA RESULT:      -5.5      1.691      2.077
  Name = 
  9 active torsions:
  status: ('A' for Active; 'I' for Inactive)
    1  A    between atoms: C_1  and  C_22
    2  A    between atoms: N_4  and  C_25
    3  A    between atoms: C_6  and  C_8
    4  A    between atoms: C_6  and  C_17
    5  A    between atoms: C_7  and  C_30
    6  A    between atoms: C_10  and  C_23
    7  A    between atoms: C_10  and  C_26
    8  A    between atoms: C_11  and  C_25
    9  A    between atoms: C_13  and  C_30
                            x       y       z     vdW  Elec       q    Type
                         _______ _______ _______ _____ _____    ______ ____

>  <TORSDO>
F 9

$$$$
=
 OpenBabel11052417113D

 30 31  0  0  1  0  0  0  0  0999 V2000
  189.2050  176.8230  143.3280 C   0  0  1  0  0  3  0  0  0  0  0  0
  190.3460  175.0900  144.8320 N   0  0  0  0  0  0  0  0  0  0  0  0
  190.3730  177.6260  143.6750 N   0  0  0  0  0  2  0  0  0  0  0  0
  191.5780  175.6530  142.6600 C   0  0  2  0  0  3  0  0  0  0  0  0
  191.5470  177.1670  142.9310 C   0  0  0  0  0  2  0  0  0  0  0  0
  191.5020  174.7940  143.9510 C   0  0  2  0  0  3  0  0  0  0  0  0
  189.0860  175.5800  144.2290 C   0  0  2  0  0  3  0  0  0  0  0  0
  187.3200  178.1160  142.2020 C   0  0  0  0  0  0  0  0  0  0  0  0
  186.1640  178.8970  142.3020 C   0  0  0  0  0  3  0  0  0  0  0  0
  187.8240  177.8080  140.9450 O   0  0  0  0  0  1  0  0  0  0  0  0
  187.4250  177.9820  144.6230 C   0  0  0  0  0  3  0  0  0  0  0  0
  185.7620  179.0770  145.9320 F   0  0  0  0  0  0  0  0  0  0  0  0
  187.9570  177.6520  143.3710 C   0  0  0  0  0  0  0  0  0  0  0  0
  185.6390  179.2200  143.5560 C   0  0  0  0  0  3  0  0  0  0  0  0
  186.2700  178.7630  144.7160 C   0  0  0  0  0  0  0  0  0  0  0  0
  190.6200  172.4390  144.4840 C   0  0  0  0  0  1  0  0  0  0  0  0
  191.5860  173.2760  143.6540 C   0  0  2  0  0  3  0  0  0  0  0  0
  192.9970  172.7340  143.8600 C   0  0  0  0  0  2  0  0  0  0  0  0
  193.5590  173.2410  145.0330 O   0  0  0  0  0  1  0  0  0  0  0  0
  192.8170  175.3480  141.8270 C   0  0  0  0  0  2  0  0  0  0  0  0
  194.7710  176.6600  141.6430 O   0  0  0  0  0  0  0  0  0  0  0  0
  194.0200  176.0430  142.3800 C   0  0  0  0  0  0  0  0  0  0  0  0
  194.2620  176.0070  143.7160 F   0  0  0  0  0  0  0  0  0  0  0  0
  188.3500  174.4580  143.5130 C   0  0  0  0  0  2  0  0  0  0  0  0
  188.6790  173.3530  141.4160 O   0  0  0  0  0  1  0  0  0  0  0  0
  188.4960  174.6030  142.0080 C   0  0  0  0  0  2  0  0  0  0  0  0
  190.7650  175.9280  145.9490 C   0  0  0  0  0  2  0  0  0  0  0  0
  191.2480  175.2380  148.1490 O   0  0  0  0  0  0  0  0  0  0  0  0
  190.4310  175.2610  147.2430 C   0  0  0  0  0  0  0  0  0  0  0  0
  189.0940  174.6370  147.4340 C   0  0  0  0  0  1  0  0  0  0  0  0
  1 13  1  1  0  0  0
  1  3  1  0  0  0  0
  1  7  1  0  0  0  0
  2 27  1  0  0  0  0
  4 20  1  1  0  0  0
  4  5  1  0  0  0  0
  4  6  1  0  0  0  0
  5  3  1  0  0  0  0
  6 17  1  6  0  0  0
  6  2  1  0  0  0  0
  7 24  1  6  0  0  0
  7  2  1  0  0  0  0
  8  9  2  0  0  0  0
  8 13  1  0  0  0  0
  9 14  1  0  0  0  0
 10  8  1  0  0  0  0
 11 15  1  0  0  0  0
 13 11  2  0  0  0  0
 14 15  2  0  0  0  0
 15 12  1  0  0  0  0
 17 18  1  0  0  0  0
 17 16  1  1  0  0  0
 18 19  1  0  0  0  0
 20 22  1  0  0  0  0
 21 22  2  0  0  0  0
 22 23  1  0  0  0  0
 25 26  1  0  0  0  0
 26 24  1  0  0  0  0
 27 29  1  0  0  0  0
 29 30  1  0  0  0  0
 29 28  2  0  0  0  0
M  END
>  <MODEL>
7

>  <REMARK>
 VINA RESULT:      -5.5      2.073      4.226
  Name = 
  9 active torsions:
  status: ('A' for Active; 'I' for Inactive)
    1  A    between atoms: C_1  and  C_22
    2  A    between atoms: N_4  and  C_25
    3  A    between atoms: C_6  and  C_8
    4  A    between atoms: C_6  and  C_17
    5  A    between atoms: C_7  and  C_30
    6  A    between atoms: C_10  and  C_23
    7  A    between atoms: C_10  and  C_26
    8  A    between atoms: C_11  and  C_25
    9  A    between atoms: C_13  and  C_30
                            x       y       z     vdW  Elec       q    Type
                         _______ _______ _______ _____ _____    ______ ____

>  <TORSDO>
F 9

$$$$
=
 OpenBabel11052417113D

 30 31  0  0  1  0  0  0  0  0999 V2000
  189.4860  174.8210  144.7380 C   0  0  1  0  0  3  0  0  0  0  0  0
  189.1900  177.1960  143.8230 N   0  0  0  0  0  0  0  0  0  0  0  0
  189.5730  175.5190  146.0160 N   0  0  0  0  0  2  0  0  0  0  0  0
  187.2920  176.3390  145.3100 C   0  0  2  0  0  3  0  0  0  0  0  0
  188.2440  175.9510  146.4540 C   0  0  0  0  0  2  0  0  0  0  0  0
  187.8500  177.4640  144.3980 C   0  0  2  0  0  3  0  0  0  0  0  0
  189.5930  175.7970  143.5530 C   0  0  2  0  0  3  0  0  0  0  0  0
  190.2170  172.4430  144.1860 C   0  0  0  0  0  0  0  0  0  0  0  0
  191.2190  171.4680  144.1390 C   0  0  0  0  0  3  0  0  0  0  0  0
  188.9320  172.1160  143.7720 O   0  0  0  0  0  1  0  0  0  0  0  0
  191.8240  174.0350  145.0650 C   0  0  0  0  0  3  0  0  0  0  0  0
  194.0800  173.3530  145.4150 F   0  0  0  0  0  0  0  0  0  0  0  0
  190.5200  173.7380  144.6520 C   0  0  0  0  0  0  0  0  0  0  0  0
  192.5180  171.7740  144.5520 C   0  0  0  0  0  3  0  0  0  0  0  0
  192.8200  173.0570  145.0140 C   0  0  0  0  0  0  0  0  0  0  0  0
  187.5260  178.2700  141.9790 C   0  0  0  0  0  1  0  0  0  0  0  0
  186.8510  177.8710  143.2860 C   0  0  2  0  0  3  0  0  0  0  0  0
  185.9400  179.0120  143.7300 C   0  0  0  0  0  2  0  0  0  0  0  0
  184.6170  178.7650  143.3580 O   0  0  0  0  0  1  0  0  0  0  0  0
  185.9430  176.6970  145.9200 C   0  0  0  0  0  2  0  0  0  0  0  0
  186.2970  178.6100  147.2590 O   0  0  0  0  0  0  0  0  0  0  0  0
  186.1150  177.4040  147.2270 C   0  0  0  0  0  0  0  0  0  0  0  0
  186.0450  176.7000  148.3860 F   0  0  0  0  0  0  0  0  0  0  0  0
  188.8740  175.2480  142.3300 C   0  0  0  0  0  2  0  0  0  0  0  0
  189.3100  173.5560  140.6950 O   0  0  0  0  0  1  0  0  0  0  0  0
  189.8710  174.6520  141.3520 C   0  0  0  0  0  2  0  0  0  0  0  0
  190.2150  177.9100  144.5750 C   0  0  0  0  0  2  0  0  0  0  0  0
  191.7110  177.9500  142.7550 O   0  0  0  0  0  0  0  0  0  0  0  0
  191.5520  177.7070  143.9400 C   0  0  0  0  0  0  0  0  0  0  0  0
  192.6960  177.2210  144.7580 C   0  0  0  0  0  1  0  0  0  0  0  0
  1 13  1  6  0  0  0
  1  3  1  0  0  0  0
  2  6  1  0  0  0  0
  2 27  1  0  0  0  0
  3  5  1  0  0  0  0
  4 20  1  1  0  0  0
  4  5  1  0  0  0  0
  6 17  1  6  0  0  0
  6  4  1  0  0  0  0
  7 24  1  6  0  0  0
  7  2  1  0  0  0  0
  7  1  1  0  0  0  0
  8 13  1  0  0  0  0
  9  8  2  0  0  0  0
  9 14  1  0  0  0  0
 10  8  1  0  0  0  0
 13 11  2  0  0  0  0
 14 15  2  0  0  0  0
 15 11  1  0  0  0  0
 15 12  1  0  0  0  0
 17 16  1  6  0  0  0
 17 18  1  0  0  0  0
 19 18  1  0  0  0  0
 20 22  1  0  0  0  0
 22 21  2  0  0  0  0
 22 23  1  0  0  0  0
 25 26  1  0  0  0  0
 26 24  1  0  0  0  0
 28 29  2  0  0  0  0
 29 27  1  0  0  0  0
 29 30  1  0  0  0  0
M  END
>  <MODEL>
8

>  <REMARK>
 VINA RESULT:      -5.5      2.528      6.334
  Name = 
  9 active torsions:
  status: ('A' for Active; 'I' for Inactive)
    1  A    between atoms: C_1  and  C_22
    2  A    between atoms: N_4  and  C_25
    3  A    between atoms: C_6  and  C_8
    4  A    between atoms: C_6  and  C_17
    5  A    between atoms: C_7  and  C_30
    6  A    between atoms: C_10  and  C_23
    7  A    between atoms: C_10  and  C_26
    8  A    between atoms: C_11  and  C_25
    9  A    between atoms: C_13  and  C_30
                            x       y       z     vdW  Elec       q    Type
                         _______ _______ _______ _____ _____    ______ ____

>  <TORSDO>
F 9

$$$$
=
 OpenBabel11052417113D

 30 31  0  0  1  0  0  0  0  0999 V2000
  188.4340  175.9930  144.1870 C   0  0  1  0  0  3  0  0  0  0  0  0
  190.9910  176.0410  144.3490 N   0  0  0  0  0  0  0  0  0  0  0  0
  188.7080  175.3880  142.8880 N   0  0  0  0  0  2  0  0  0  0  0  0
  189.9260  173.7130  144.3340 C   0  0  2  0  0  3  0  0  0  0  0  0
  189.1210  173.9930  143.0520 C   0  0  0  0  0  2  0  0  0  0  0  0
  191.2090  174.5780  144.4560 C   0  0  2  0  0  3  0  0  0  0  0  0
  189.7020  176.6120  144.8010 C   0  0  2  0  0  3  0  0  0  0  0  0
  187.3400  178.0360  143.1270 C   0  0  0  0  0  0  0  0  0  0  0  0
  186.2860  178.9550  143.0830 C   0  0  0  0  0  3  0  0  0  0  0  0
  188.3880  178.1610  142.2230 O   0  0  0  0  0  1  0  0  0  0  0  0
  186.2580  176.9030  144.9800 C   0  0  0  0  0  3  0  0  0  0  0  0
  184.1780  177.7220  145.8030 F   0  0  0  0  0  0  0  0  0  0  0  0
  187.3270  177.0000  144.0820 C   0  0  0  0  0  0  0  0  0  0  0  0
  185.2230  178.8500  143.9820 C   0  0  0  0  0  3  0  0  0  0  0  0
  185.2090  177.8240  144.9300 C   0  0  0  0  0  0  0  0  0  0  0  0
  192.5360  175.4720  146.4670 C   0  0  0  0  0  1  0  0  0  0  0  0
  192.0270  174.2410  145.7280 C   0  0  2  0  0  3  0  0  0  0  0  0
  193.2150  173.3360  145.4170 C   0  0  0  0  0  2  0  0  0  0  0  0
  194.4190  174.0340  145.5430 O   0  0  0  0  0  1  0  0  0  0  0  0
  190.2200  172.2190  144.3890 C   0  0  0  0  0  2  0  0  0  0  0  0
  190.0540  170.9260  142.4200 O   0  0  0  0  0  0  0  0  0  0  0  0
  190.7160  171.7200  143.0690 C   0  0  0  0  0  0  0  0  0  0  0  0
  191.8980  172.1740  142.5800 F   0  0  0  0  0  0  0  0  0  0  0  0
  189.6170  176.6340  146.3190 C   0  0  0  0  0  2  0  0  0  0  0  0
  189.2400  174.6690  147.6320 O   0  0  0  0  0  1  0  0  0  0  0  0
  188.6130  175.6050  146.8090 C   0  0  0  0  0  2  0  0  0  0  0  0
  191.3420  176.5070  143.0130 C   0  0  0  0  0  2  0  0  0  0  0  0
  193.6800  176.4830  143.3030 O   0  0  0  0  0  0  0  0  0  0  0  0
  192.7270  176.0680  142.6640 C   0  0  0  0  0  0  0  0  0  0  0  0
  192.9420  175.1100  141.5470 C   0  0  0  0  0  1  0  0  0  0  0  0
  1 13  1  6  0  0  0
  1  7  1  0  0  0  0
  2  6  1  0  0  0  0
  2  7  1  0  0  0  0
  3  5  1  0  0  0  0
  3  1  1  0  0  0  0
  4 20  1  6  0  0  0
  4  6  1  0  0  0  0
  5  4  1  0  0  0  0
  6 17  1  1  0  0  0
  7 24  1  1  0  0  0
  8 13  1  0  0  0  0
  9  8  2  0  0  0  0
  9 14  1  0  0  0  0
 10  8  1  0  0  0  0
 13 11  2  0  0  0  0
 14 15  2  0  0  0  0
 15 11  1  0  0  0  0
 15 12  1  0  0  0  0
 17 16  1  6  0  0  0
 18 19  1  0  0  0  0
 18 17  1  0  0  0  0
 21 22  2  0  0  0  0
 22 20  1  0  0  0  0
 23 22  1  0  0  0  0
 24 26  1  0  0  0  0
 26 25  1  0  0  0  0
 27  2  1  0  0  0  0
 29 27  1  0  0  0  0
 29 28  2  0  0  0  0
 30 29  1  0  0  0  0
M  END
>  <MODEL>
9

>  <REMARK>
 VINA RESULT:      -5.4      2.368      4.172
  Name = 
  9 active torsions:
  status: ('A' for Active; 'I' for Inactive)
    1  A    between atoms: C_1  and  C_22
    2  A    between atoms: N_4  and  C_25
    3  A    between atoms: C_6  and  C_8
    4  A    between atoms: C_6  and  C_17
    5  A    between atoms: C_7  and  C_30
    6  A    between atoms: C_10  and  C_23
    7  A    between atoms: C_10  and  C_26
    8  A    between atoms: C_11  and  C_25
    9  A    between atoms: C_13  and  C_30
                            x       y       z     vdW  Elec       q    Type
                         _______ _______ _______ _____ _____    ______ ____

>  <TORSDO>
F 9

$$$$
