=
 OpenBabel11052417203D

 30 34  0  0  1  0  0  0  0  0999 V2000
  191.7460  175.4780  143.0990 C   0  0  0  0  0  0  0  0  0  0  0  0
  189.5880  172.2030  142.7290 C   0  0  0  0  0  2  0  0  0  0  0  0
  188.4280  173.1290  141.6930 S   0  0  2  0  0  0  0  0  0  0  0  0
  192.0270  174.0060  143.1540 C   0  0  1  0  0  3  0  0  0  0  0  0
  192.6600  176.3090  142.7480 N   0  0  0  0  0  2  0  0  0  0  0  0
  190.9610  172.0670  142.0730 C   0  0  0  0  0  2  0  0  0  0  0  0
  191.5690  173.4340  141.8230 C   0  0  2  0  0  3  0  0  0  0  0  0
  190.3220  175.9270  143.3170 C   0  0  2  0  0  3  0  0  0  0  0  0
  188.2790  174.7530  142.4960 C   0  0  1  0  0  3  0  0  0  0  0  0
  187.1030  172.4420  141.9870 O   0  0  0  0  0  0  0  0  0  0  0  0
  193.0440  173.4960  142.1410 C   0  0  0  0  0  2  0  0  0  0  0  0
  189.4490  175.6370  142.1010 C   0  0  0  0  0  2  0  0  0  0  0  0
  190.1970  177.3430  143.8290 C   0  0  0  0  0  0  0  0  0  0  0  0
  189.9890  178.2380  143.0240 O   0  0  0  0  0  0  0  0  0  0  0  0
  190.4080  177.6980  145.2840 C   0  0  2  0  0  3  0  0  0  0  0  0
  190.1820  176.4950  146.1840 C   0  0  2  0  0  3  0  0  0  0  0  0
  189.1640  177.6150  146.1840 C   0  0  2  0  0  3  0  0  0  0  0  0
  192.3050  175.7730  147.2150 C   0  0  0  0  0  2  0  0  0  0  0  0
  191.1720  175.2620  148.0770 C   0  0  0  0  0  2  0  0  0  0  0  0
  191.0630  176.6180  147.4100 C   0  0  0  0  0  3  0  0  0  0  0  0
  187.8830  177.1270  145.4990 C   0  0  0  0  0  2  0  0  0  0  0  0
  185.4780  176.7120  146.1220 C   0  0  0  0  0  1  0  0  0  0  0  0
  186.8740  178.2240  147.5300 C   0  0  0  0  0  1  0  0  0  0  0  0
  186.6190  177.7120  146.1250 C   0  0  0  0  0  3  0  0  0  0  0  0
  186.9970  175.4450  142.0670 C   0  0  0  0  0  2  0  0  0  0  0  0
  187.3040  176.5510  141.1710 N   0  0  0  0  0  2  0  0  0  0  0  0
  186.2500  177.5470  141.3090 C   0  0  0  0  0  0  0  0  0  0  0  0
  185.6730  178.0610  140.1460 O   0  0  0  0  0  1  0  0  0  0  0  0
  185.4060  177.5100  142.5590 C   0  0  0  0  0  2  0  0  0  0  0  0
  186.4980  178.5670  142.3890 C   0  0  0  0  0  2  0  0  0  0  0  0
  1  4  1  0  0  0  0
  1  8  1  0  0  0  0
  3 10  2  1  0  0  0
  3  9  1  0  0  0  0
  3  2  1  0  0  0  0
  4 11  1  6  0  0  0
  5  1  2  0  0  0  0
  6  2  1  0  0  0  0
  7  6  1  1  0  0  0
  7 11  1  0  0  0  0
  7  4  1  0  0  0  0
  8 13  1  6  0  0  0
  9 25  1  6  0  0  0
 12  9  1  0  0  0  0
 12  8  1  0  0  0  0
 14 13  2  0  0  0  0
 15 13  1  6  0  0  0
 15 16  1  0  0  0  0
 15 17  1  0  0  0  0
 16 17  1  0  0  0  0
 16 20  1  1  0  0  0
 17 21  1  6  0  0  0
 18 20  1  0  0  0  0
 18 19  1  0  0  0  0
 20 19  1  0  0  0  0
 21 24  1  0  0  0  0
 22 24  1  0  0  0  0
 24 23  1  0  0  0  0
 26 27  1  0  0  0  0
 26 25  1  0  0  0  0
 27 30  1  0  0  0  0
 27 29  1  0  0  0  0
 28 27  1  0  0  0  0
 30 29  1  0  0  0  0
M  END
>  <MODEL>
1

>  <REMARK>
 VINA RESULT:      -6.6      0.000      0.000
  Name = 
  8 active torsions:
  status: ('A' for Active; 'I' for Inactive)
    1  A    between atoms: C_1  and  C_4
    2  A    between atoms: C_1  and  C_22
    3  A    between atoms: N_7  and  C_10
    4  A    between atoms: N_7  and  C_25
    5  A    between atoms: C_8  and  C_30
    6  A    between atoms: C_9  and  C_12
    7  A    between atoms: C_9  and  C_21
    8  A    between atoms: C_23  and  C_25
                            x       y       z     vdW  Elec       q    Type
                         _______ _______ _______ _____ _____    ______ ____

>  <TORSDO>
F 8

$$$$
=
 OpenBabel11052417203D

 30 34  0  0  1  0  0  0  0  0999 V2000
  186.8240  177.8120  143.0000 C   0  0  0  0  0  0  0  0  0  0  0  0
  184.9320  177.1120  146.3830 C   0  0  0  0  0  2  0  0  0  0  0  0
  186.5070  177.2890  147.2570 S   0  0  2  0  0  0  0  0  0  0  0  0
  185.4200  178.0000  143.4930 C   0  0  1  0  0  3  0  0  0  0  0  0
  187.3010  178.5620  142.0720 N   0  0  0  0  0  2  0  0  0  0  0  0
  184.4860  178.4210  145.7330 C   0  0  0  0  0  2  0  0  0  0  0  0
  185.5150  178.8890  144.7220 C   0  0  2  0  0  3  0  0  0  0  0  0
  187.6970  176.8230  143.7330 C   0  0  2  0  0  3  0  0  0  0  0  0
  187.7240  176.4490  146.2000 C   0  0  1  0  0  3  0  0  0  0  0  0
  186.3310  176.3520  148.4440 O   0  0  0  0  0  0  0  0  0  0  0  0
  184.9000  179.4310  143.4530 C   0  0  0  0  0  2  0  0  0  0  0  0
  188.1620  177.3730  145.0770 C   0  0  0  0  0  2  0  0  0  0  0  0
  188.8150  176.2520  142.8930 C   0  0  0  0  0  0  0  0  0  0  0  0
  188.5260  175.6210  141.8890 O   0  0  0  0  0  0  0  0  0  0  0  0
  190.2680  176.3610  143.3010 C   0  0  2  0  0  3  0  0  0  0  0  0
  191.1230  175.3320  142.5790 C   0  0  2  0  0  3  0  0  0  0  0  0
  190.8470  175.1530  144.0570 C   0  0  2  0  0  3  0  0  0  0  0  0
  193.3380  174.9070  141.5780 C   0  0  0  0  0  2  0  0  0  0  0  0
  193.5110  174.9700  143.0790 C   0  0  0  0  0  2  0  0  0  0  0  0
  192.5190  175.8880  142.3930 C   0  0  0  0  0  3  0  0  0  0  0  0
  189.8910  173.9720  144.2480 C   0  0  0  0  0  2  0  0  0  0  0  0
  191.1650  171.8080  144.0550 C   0  0  0  0  0  1  0  0  0  0  0  0
  188.9900  172.0680  142.8650 C   0  0  0  0  0  1  0  0  0  0  0  0
  190.2360  172.7820  143.3550 C   0  0  0  0  0  3  0  0  0  0  0  0
  188.9540  176.0650  147.0030 C   0  0  0  0  0  2  0  0  0  0  0  0
  189.9300  177.1440  146.9660 N   0  0  0  0  0  2  0  0  0  0  0  0
  191.0770  176.7420  147.7690 C   0  0  0  0  0  0  0  0  0  0  0  0
  191.3800  177.4910  148.9080 O   0  0  0  0  0  1  0  0  0  0  0  0
  191.4650  175.2840  147.7600 C   0  0  0  0  0  2  0  0  0  0  0  0
  192.2750  176.3100  146.9660 C   0  0  0  0  0  2  0  0  0  0  0  0
  1  4  1  0  0  0  0
  1  8  1  0  0  0  0
  2  3  1  0  0  0  0
  3 10  2  1  0  0  0
  4 11  1  6  0  0  0
  4  7  1  0  0  0  0
  5  1  2  0  0  0  0
  6  2  1  0  0  0  0
  7 11  1  6  0  0  0
  7  6  1  0  0  0  0
  8 13  1  6  0  0  0
  8 12  1  0  0  0  0
  9 25  1  1  0  0  0
  9  3  1  0  0  0  0
 12  9  1  0  0  0  0
 14 13  2  0  0  0  0
 15 13  1  6  0  0  0
 15 17  1  0  0  0  0
 16 20  1  1  0  0  0
 16 15  1  0  0  0  0
 16 17  1  0  0  0  0
 17 21  1  6  0  0  0
 18 20  1  0  0  0  0
 18 19  1  0  0  0  0
 20 19  1  0  0  0  0
 23 24  1  0  0  0  0
 24 22  1  0  0  0  0
 24 21  1  0  0  0  0
 26 25  1  0  0  0  0
 26 27  1  0  0  0  0
 27 28  1  0  0  0  0
 29 27  1  0  0  0  0
 30 29  1  0  0  0  0
 30 27  1  0  0  0  0
M  END
>  <MODEL>
2

>  <REMARK>
 VINA RESULT:      -6.6      2.713      6.591
  Name = 
  8 active torsions:
  status: ('A' for Active; 'I' for Inactive)
    1  A    between atoms: C_1  and  C_4
    2  A    between atoms: C_1  and  C_22
    3  A    between atoms: N_7  and  C_10
    4  A    between atoms: N_7  and  C_25
    5  A    between atoms: C_8  and  C_30
    6  A    between atoms: C_9  and  C_12
    7  A    between atoms: C_9  and  C_21
    8  A    between atoms: C_23  and  C_25
                            x       y       z     vdW  Elec       q    Type
                         _______ _______ _______ _____ _____    ______ ____

>  <TORSDO>
F 8

$$$$
=
 OpenBabel11052417203D

 30 34  0  0  1  0  0  0  0  0999 V2000
  190.9440  176.8770  144.1710 C   0  0  0  0  0  0  0  0  0  0  0  0
  190.7600  172.9760  144.6890 C   0  0  0  0  0  2  0  0  0  0  0  0
  190.2040  172.8120  142.9740 S   0  0  2  0  0  0  0  0  0  0  0  0
  191.6370  175.8870  145.0590 C   0  0  1  0  0  3  0  0  0  0  0  0
  191.5200  177.9760  143.8370 N   0  0  0  0  0  2  0  0  0  0  0  0
  192.1900  173.5040  144.7810 C   0  0  0  0  0  2  0  0  0  0  0  0
  192.2940  174.8730  144.1390 C   0  0  2  0  0  3  0  0  0  0  0  0
  189.6240  176.4690  143.5640 C   0  0  2  0  0  3  0  0  0  0  0  0
  189.0460  174.1910  142.7250 C   0  0  1  0  0  3  0  0  0  0  0  0
  189.3130  171.5800  143.0340 O   0  0  0  0  0  0  0  0  0  0  0  0
  193.1530  175.8360  144.9240 C   0  0  0  0  0  2  0  0  0  0  0  0
  189.8130  175.4670  142.4290 C   0  0  0  0  0  2  0  0  0  0  0  0
  188.7300  177.6320  143.2020 C   0  0  0  0  0  0  0  0  0  0  0  0
  188.8450  178.1330  142.0940 O   0  0  0  0  0  0  0  0  0  0  0  0
  187.7650  178.2470  144.1910 C   0  0  2  0  0  3  0  0  0  0  0  0
  187.1210  177.1860  145.0680 C   0  0  2  0  0  3  0  0  0  0  0  0
  186.2850  177.8720  144.0100 C   0  0  2  0  0  3  0  0  0  0  0  0
  186.3390  176.6830  147.3540 C   0  0  0  0  0  2  0  0  0  0  0  0
  185.3280  177.6060  146.7090 C   0  0  0  0  0  2  0  0  0  0  0  0
  186.8060  177.7840  146.4230 C   0  0  0  0  0  3  0  0  0  0  0  0
  185.9880  176.8760  142.8840 C   0  0  0  0  0  2  0  0  0  0  0  0
  183.9670  178.3370  142.5280 C   0  0  0  0  0  1  0  0  0  0  0  0
  185.6600  178.1110  140.7120 C   0  0  0  0  0  1  0  0  0  0  0  0
  184.9760  177.4130  141.8730 C   0  0  0  0  0  3  0  0  0  0  0  0
  188.1250  173.9100  141.5500 C   0  0  0  0  0  2  0  0  0  0  0  0
  188.3370  174.8990  140.5040 N   0  0  0  0  0  2  0  0  0  0  0  0
  188.4300  174.1960  139.2310 C   0  0  0  0  0  0  0  0  0  0  0  0
  187.7610  174.7340  138.1310 O   0  0  0  0  0  1  0  0  0  0  0  0
  189.6670  173.3730  138.9720 C   0  0  0  0  0  2  0  0  0  0  0  0
  188.3470  172.6970  139.3440 C   0  0  0  0  0  2  0  0  0  0  0  0
  1  4  1  0  0  0  0
  2  6  1  0  0  0  0
  3 10  2  1  0  0  0
  3  2  1  0  0  0  0
  4 11  1  6  0  0  0
  5  1  2  0  0  0  0
  7  6  1  1  0  0  0
  7 11  1  0  0  0  0
  7  4  1  0  0  0  0
  8 13  1  6  0  0  0
  8  1  1  0  0  0  0
  9 25  1  6  0  0  0
  9  3  1  0  0  0  0
 12  9  1  0  0  0  0
 12  8  1  0  0  0  0
 14 13  2  0  0  0  0
 15 13  1  6  0  0  0
 15 16  1  0  0  0  0
 16 20  1  1  0  0  0
 17 21  1  6  0  0  0
 17 15  1  0  0  0  0
 17 16  1  0  0  0  0
 19 18  1  0  0  0  0
 20 19  1  0  0  0  0
 20 18  1  0  0  0  0
 23 24  1  0  0  0  0
 24 22  1  0  0  0  0
 24 21  1  0  0  0  0
 26 25  1  0  0  0  0
 27 30  1  0  0  0  0
 27 26  1  0  0  0  0
 28 27  1  0  0  0  0
 29 27  1  0  0  0  0
 29 30  1  0  0  0  0
M  END
>  <MODEL>
3

>  <REMARK>
 VINA RESULT:      -6.5      2.004      3.848
  Name = 
  8 active torsions:
  status: ('A' for Active; 'I' for Inactive)
    1  A    between atoms: C_1  and  C_4
    2  A    between atoms: C_1  and  C_22
    3  A    between atoms: N_7  and  C_10
    4  A    between atoms: N_7  and  C_25
    5  A    between atoms: C_8  and  C_30
    6  A    between atoms: C_9  and  C_12
    7  A    between atoms: C_9  and  C_21
    8  A    between atoms: C_23  and  C_25
                            x       y       z     vdW  Elec       q    Type
                         _______ _______ _______ _____ _____    ______ ____

>  <TORSDO>
F 8

$$$$
=
 OpenBabel11052417203D

 30 34  0  0  1  0  0  0  0  0999 V2000
  188.1170  177.3140  146.3040 C   0  0  0  0  0  0  0  0  0  0  0  0
  185.0590  178.4900  144.1170 C   0  0  0  0  0  2  0  0  0  0  0  0
  185.5200  177.2550  142.8760 S   0  0  2  0  0  0  0  0  0  0  0  0
  186.7880  177.9500  146.5860 C   0  0  1  0  0  3  0  0  0  0  0  0
  188.6970  176.5840  147.1880 N   0  0  0  0  0  2  0  0  0  0  0  0
  184.6160  177.8470  145.4300 C   0  0  0  0  0  2  0  0  0  0  0  0
  185.7370  177.0120  146.0180 C   0  0  2  0  0  3  0  0  0  0  0  0
  188.6680  177.4350  144.9050 C   0  0  2  0  0  3  0  0  0  0  0  0
  187.3340  177.3270  142.7980 C   0  0  1  0  0  3  0  0  0  0  0  0
  185.0620  177.9060  141.5790 O   0  0  0  0  0  0  0  0  0  0  0  0
  185.8710  177.1640  147.5140 C   0  0  0  0  0  2  0  0  0  0  0  0
  187.9360  176.5160  143.9320 C   0  0  0  0  0  2  0  0  0  0  0  0
  190.1720  177.3250  144.8260 C   0  0  0  0  0  0  0  0  0  0  0  0
  190.7360  177.7500  143.8300 O   0  0  0  0  0  0  0  0  0  0  0  0
  190.9890  176.6300  145.8940 C   0  0  2  0  0  3  0  0  0  0  0  0
  192.3940  176.3230  145.4030 C   0  0  2  0  0  3  0  0  0  0  0  0
  191.4130  175.1850  145.5830 C   0  0  2  0  0  3  0  0  0  0  0  0
  194.5920  177.1260  146.1850 C   0  0  0  0  0  2  0  0  0  0  0  0
  194.6170  175.6130  146.2010 C   0  0  0  0  0  2  0  0  0  0  0  0
  193.3490  176.3530  146.5770 C   0  0  0  0  0  3  0  0  0  0  0  0
  191.0010  174.6570  144.2050 C   0  0  0  0  0  2  0  0  0  0  0  0
  192.3670  172.5890  144.6580 C   0  0  0  0  0  1  0  0  0  0  0  0
  189.8810  172.4850  144.8210 C   0  0  0  0  0  1  0  0  0  0  0  0
  191.0580  173.1330  144.1150 C   0  0  0  0  0  3  0  0  0  0  0  0
  187.8350  176.7480  141.4860 C   0  0  0  0  0  2  0  0  0  0  0  0
  188.8300  175.7170  141.7440 N   0  0  0  0  0  2  0  0  0  0  0  0
  188.6220  174.6410  140.7840 C   0  0  0  0  0  0  0  0  0  0  0  0
  188.0080  174.9510  139.5700 O   0  0  0  0  0  1  0  0  0  0  0  0
  189.5820  173.4780  140.8130 C   0  0  0  0  0  2  0  0  0  0  0  0
  188.1760  173.3400  141.3980 C   0  0  0  0  0  2  0  0  0  0  0  0
  1  4  1  0  0  0  0
  1  5  2  0  0  0  0
  2  6  1  0  0  0  0
  3 10  2  6  0  0  0
  3  2  1  0  0  0  0
  4 11  1  1  0  0  0
  7  6  1  6  0  0  0
  7  4  1  0  0  0  0
  7 11  1  0  0  0  0
  8 13  1  1  0  0  0
  8  1  1  0  0  0  0
  9 25  1  6  0  0  0
  9  3  1  0  0  0  0
  9 12  1  0  0  0  0
 12  8  1  0  0  0  0
 14 13  2  0  0  0  0
 15 13  1  6  0  0  0
 16 17  1  0  0  0  0
 16 15  1  0  0  0  0
 16 20  1  1  0  0  0
 17 21  1  6  0  0  0
 17 15  1  0  0  0  0
 18 19  1  0  0  0  0
 18 20  1  0  0  0  0
 19 20  1  0  0  0  0
 24 21  1  0  0  0  0
 24 22  1  0  0  0  0
 24 23  1  0  0  0  0
 25 26  1  0  0  0  0
 27 29  1  0  0  0  0
 27 30  1  0  0  0  0
 27 26  1  0  0  0  0
 28 27  1  0  0  0  0
 29 30  1  0  0  0  0
M  END
>  <MODEL>
4

>  <REMARK>
 VINA RESULT:      -6.4      2.243      5.283
  Name = 
  8 active torsions:
  status: ('A' for Active; 'I' for Inactive)
    1  A    between atoms: C_1  and  C_4
    2  A    between atoms: C_1  and  C_22
    3  A    between atoms: N_7  and  C_10
    4  A    between atoms: N_7  and  C_25
    5  A    between atoms: C_8  and  C_30
    6  A    between atoms: C_9  and  C_12
    7  A    between atoms: C_9  and  C_21
    8  A    between atoms: C_23  and  C_25
                            x       y       z     vdW  Elec       q    Type
                         _______ _______ _______ _____ _____    ______ ____

>  <TORSDO>
F 8

$$$$
=
 OpenBabel11052417203D

 30 34  0  0  1  0  0  0  0  0999 V2000
  186.9380  177.2440  146.2370 C   0  0  0  0  0  0  0  0  0  0  0  0
  184.8250  179.4100  143.7150 C   0  0  0  0  0  2  0  0  0  0  0  0
  184.7910  177.9960  142.5870 S   0  0  2  0  0  0  0  0  0  0  0  0
  185.9940  178.4030  146.3610 C   0  0  1  0  0  3  0  0  0  0  0  0
  187.0920  176.4160  147.2070 N   0  0  0  0  0  2  0  0  0  0  0  0
  184.0670  179.1290  145.0110 C   0  0  0  0  0  2  0  0  0  0  0  0
  184.6820  177.9520  145.7430 C   0  0  2  0  0  3  0  0  0  0  0  0
  187.5760  177.0010  144.8910 C   0  0  2  0  0  3  0  0  0  0  0  0
  186.4620  177.2870  142.6760 C   0  0  1  0  0  3  0  0  0  0  0  0
  184.7400  178.6660  141.2210 O   0  0  0  0  0  0  0  0  0  0  0  0
  184.7720  178.1600  147.2360 C   0  0  0  0  0  2  0  0  0  0  0  0
  186.5850  176.3980  143.9010 C   0  0  0  0  0  2  0  0  0  0  0  0
  188.8900  176.2600  144.9600 C   0  0  0  0  0  0  0  0  0  0  0  0
  188.9050  175.1430  145.4530 O   0  0  0  0  0  0  0  0  0  0  0  0
  190.1950  176.8870  144.5200 C   0  0  2  0  0  3  0  0  0  0  0  0
  191.3870  176.1470  145.1030 C   0  0  2  0  0  3  0  0  0  0  0  0
  191.0450  177.5230  145.6330 C   0  0  2  0  0  3  0  0  0  0  0  0
  193.6150  175.2440  144.5420 C   0  0  0  0  0  2  0  0  0  0  0  0
  193.7840  176.7000  144.9160 C   0  0  0  0  0  2  0  0  0  0  0  0
  192.5570  176.2540  144.1470 C   0  0  0  0  0  3  0  0  0  0  0  0
  190.4840  177.3880  147.0520 C   0  0  0  0  0  2  0  0  0  0  0  0
  191.5660  177.5920  149.3170 C   0  0  0  0  0  1  0  0  0  0  0  0
  191.1910  175.3340  148.3290 C   0  0  0  0  0  1  0  0  0  0  0  0
  191.4940  176.7910  148.0310 C   0  0  0  0  0  3  0  0  0  0  0  0
  186.7510  176.4420  141.4480 C   0  0  0  0  0  2  0  0  0  0  0  0
  188.1880  176.3160  141.2560 N   0  0  0  0  0  2  0  0  0  0  0  0
  188.4790  174.9270  140.9270 C   0  0  0  0  0  0  0  0  0  0  0  0
  188.2020  174.4850  139.6320 O   0  0  0  0  0  1  0  0  0  0  0  0
  189.5890  174.2420  141.6840 C   0  0  0  0  0  2  0  0  0  0  0  0
  188.1260  173.9450  142.0130 C   0  0  0  0  0  2  0  0  0  0  0  0
  1  4  1  0  0  0  0
  1  5  2  0  0  0  0
  2  6  1  0  0  0  0
  3 10  2  6  0  0  0
  3  9  1  0  0  0  0
  3  2  1  0  0  0  0
  4 11  1  1  0  0  0
  7  6  1  6  0  0  0
  7  4  1  0  0  0  0
  7 11  1  0  0  0  0
  8 13  1  1  0  0  0
  8  1  1  0  0  0  0
  9 25  1  6  0  0  0
  9 12  1  0  0  0  0
 12  8  1  0  0  0  0
 13 14  2  0  0  0  0
 15 13  1  1  0  0  0
 15 16  1  0  0  0  0
 15 17  1  0  0  0  0
 16 20  1  6  0  0  0
 16 17  1  0  0  0  0
 17 21  1  1  0  0  0
 18 19  1  0  0  0  0
 20 18  1  0  0  0  0
 20 19  1  0  0  0  0
 21 24  1  0  0  0  0
 24 23  1  0  0  0  0
 24 22  1  0  0  0  0
 26 25  1  0  0  0  0
 27 26  1  0  0  0  0
 27 29  1  0  0  0  0
 27 30  1  0  0  0  0
 28 27  1  0  0  0  0
 29 30  1  0  0  0  0
M  END
>  <MODEL>
5

>  <REMARK>
 VINA RESULT:      -6.4      2.372      5.536
  Name = 
  8 active torsions:
  status: ('A' for Active; 'I' for Inactive)
    1  A    between atoms: C_1  and  C_4
    2  A    between atoms: C_1  and  C_22
    3  A    between atoms: N_7  and  C_10
    4  A    between atoms: N_7  and  C_25
    5  A    between atoms: C_8  and  C_30
    6  A    between atoms: C_9  and  C_12
    7  A    between atoms: C_9  and  C_21
    8  A    between atoms: C_23  and  C_25
                            x       y       z     vdW  Elec       q    Type
                         _______ _______ _______ _____ _____    ______ ____

>  <TORSDO>
F 8

$$$$
=
 OpenBabel11052417203D

 30 34  0  0  1  0  0  0  0  0999 V2000
  187.7900  177.5440  145.9630 C   0  0  0  0  0  0  0  0  0  0  0  0
  184.9550  178.9350  143.6080 C   0  0  0  0  0  2  0  0  0  0  0  0
  185.2490  177.5400  142.4930 S   0  0  2  0  0  0  0  0  0  0  0  0
  186.5620  178.3830  146.1560 C   0  0  1  0  0  3  0  0  0  0  0  0
  188.2500  176.8230  146.9220 N   0  0  0  0  0  2  0  0  0  0  0  0
  184.4110  178.4830  144.9620 C   0  0  0  0  0  2  0  0  0  0  0  0
  185.3940  177.5550  145.6470 C   0  0  2  0  0  3  0  0  0  0  0  0
  188.3680  177.4580  144.5720 C   0  0  2  0  0  3  0  0  0  0  0  0
  187.0560  177.3480  142.4520 C   0  0  1  0  0  3  0  0  0  0  0  0
  184.9030  178.1280  141.1320 O   0  0  0  0  0  0  0  0  0  0  0  0
  185.5320  177.8210  147.1280 C   0  0  0  0  0  2  0  0  0  0  0  0
  187.5230  176.5670  143.6670 C   0  0  0  0  0  2  0  0  0  0  0  0
  189.8420  177.1310  144.5390 C   0  0  0  0  0  0  0  0  0  0  0  0
  190.6350  177.9730  144.9300 O   0  0  0  0  0  0  0  0  0  0  0  0
  190.3690  175.8360  143.9600 C   0  0  2  0  0  3  0  0  0  0  0  0
  190.0450  174.6560  144.8600 C   0  0  2  0  0  3  0  0  0  0  0  0
  191.4770  175.1390  144.7680 C   0  0  2  0  0  3  0  0  0  0  0  0
  189.6820  172.2160  144.9190 C   0  0  0  0  0  2  0  0  0  0  0  0
  191.0330  172.4690  144.2880 C   0  0  0  0  0  2  0  0  0  0  0  0
  189.8800  173.4130  144.0110 C   0  0  0  0  0  3  0  0  0  0  0  0
  191.8610  175.8190  146.0860 C   0  0  0  0  0  2  0  0  0  0  0  0
  193.8910  174.3810  145.6880 C   0  0  0  0  0  1  0  0  0  0  0  0
  194.1780  176.7280  146.4800 C   0  0  0  0  0  1  0  0  0  0  0  0
  193.2900  175.4980  146.5210 C   0  0  0  0  0  3  0  0  0  0  0  0
  187.4850  176.5890  141.2080 C   0  0  0  0  0  2  0  0  0  0  0  0
  187.8250  175.2170  141.5550 N   0  0  0  0  0  2  0  0  0  0  0  0
  188.3120  174.5550  140.3520 C   0  0  0  0  0  0  0  0  0  0  0  0
  187.8220  174.9870  139.1190 O   0  0  0  0  0  1  0  0  0  0  0  0
  189.6950  173.9540  140.3910 C   0  0  0  0  0  2  0  0  0  0  0  0
  188.4570  173.0620  140.4810 C   0  0  0  0  0  2  0  0  0  0  0  0
  1  4  1  0  0  0  0
  1  5  2  0  0  0  0
  2  6  1  0  0  0  0
  3 10  2  6  0  0  0
  3  2  1  0  0  0  0
  4 11  1  1  0  0  0
  7  6  1  6  0  0  0
  7  4  1  0  0  0  0
  7 11  1  0  0  0  0
  8 13  1  1  0  0  0
  8  1  1  0  0  0  0
  9 25  1  6  0  0  0
  9  3  1  0  0  0  0
  9 12  1  0  0  0  0
 12  8  1  0  0  0  0
 13 14  2  0  0  0  0
 15 13  1  1  0  0  0
 15 17  1  0  0  0  0
 15 16  1  0  0  0  0
 16 20  1  6  0  0  0
 17 16  1  0  0  0  0
 17 21  1  1  0  0  0
 19 18  1  0  0  0  0
 20 19  1  0  0  0  0
 20 18  1  0  0  0  0
 21 24  1  0  0  0  0
 22 24  1  0  0  0  0
 23 24  1  0  0  0  0
 25 26  1  0  0  0  0
 27 29  1  0  0  0  0
 27 30  1  0  0  0  0
 27 26  1  0  0  0  0
 28 27  1  0  0  0  0
 29 30  1  0  0  0  0
M  END
>  <MODEL>
6

>  <REMARK>
 VINA RESULT:      -6.4      2.324      5.629
  Name = 
  8 active torsions:
  status: ('A' for Active; 'I' for Inactive)
    1  A    between atoms: C_1  and  C_4
    2  A    between atoms: C_1  and  C_22
    3  A    between atoms: N_7  and  C_10
    4  A    between atoms: N_7  and  C_25
    5  A    between atoms: C_8  and  C_30
    6  A    between atoms: C_9  and  C_12
    7  A    between atoms: C_9  and  C_21
    8  A    between atoms: C_23  and  C_25
                            x       y       z     vdW  Elec       q    Type
                         _______ _______ _______ _____ _____    ______ ____

>  <TORSDO>
F 8

$$$$
=
 OpenBabel11052417203D

 30 34  0  0  1  0  0  0  0  0999 V2000
  188.6400  175.1550  141.8100 C   0  0  0  0  0  0  0  0  0  0  0  0
  192.3420  173.8280  141.5930 C   0  0  0  0  0  2  0  0  0  0  0  0
  192.6070  174.4010  143.2900 S   0  0  2  0  0  0  0  0  0  0  0  0
  189.3420  174.0820  141.0340 C   0  0  1  0  0  3  0  0  0  0  0  0
  187.3870  175.0580  142.0820 N   0  0  0  0  0  2  0  0  0  0  0  0
  191.3180  172.6970  141.5230 C   0  0  0  0  0  2  0  0  0  0  0  0
  189.9770  173.1590  142.0590 C   0  0  2  0  0  3  0  0  0  0  0  0
  189.4820  176.2650  142.3900 C   0  0  2  0  0  3  0  0  0  0  0  0
  191.7580  176.0050  143.3790 C   0  0  1  0  0  3  0  0  0  0  0  0
  194.0860  174.7590  143.2890 O   0  0  0  0  0  0  0  0  0  0  0  0
  188.8070  172.6700  141.2380 C   0  0  0  0  0  2  0  0  0  0  0  0
  190.2710  175.7950  143.6060 C   0  0  0  0  0  2  0  0  0  0  0  0
  188.7260  177.5530  142.6190 C   0  0  0  0  0  0  0  0  0  0  0  0
  188.4070  178.2220  141.6490 O   0  0  0  0  0  0  0  0  0  0  0  0
  188.4310  178.0800  144.0060 C   0  0  2  0  0  3  0  0  0  0  0  0
  187.5870  177.0990  144.8020 C   0  0  2  0  0  3  0  0  0  0  0  0
  186.9540  178.3830  144.3110 C   0  0  2  0  0  3  0  0  0  0  0  0
  187.9060  175.8610  146.9130 C   0  0  0  0  0  2  0  0  0  0  0  0
  186.7260  176.7900  147.0930 C   0  0  0  0  0  2  0  0  0  0  0  0
  187.9210  177.2340  146.2730 C   0  0  0  0  0  3  0  0  0  0  0  0
  185.9660  178.0550  143.1870 C   0  0  0  0  0  2  0  0  0  0  0  0
  183.6040  178.2910  142.3450 C   0  0  0  0  0  1  0  0  0  0  0  0
  184.1030  178.7090  144.7520 C   0  0  0  0  0  1  0  0  0  0  0  0
  184.6380  178.7950  143.3350 C   0  0  0  0  0  3  0  0  0  0  0  0
  192.3000  176.8330  144.5310 C   0  0  0  0  0  2  0  0  0  0  0  0
  191.3750  176.7890  145.6540 N   0  0  0  0  0  2  0  0  0  0  0  0
  192.1270  176.4070  146.8420 C   0  0  0  0  0  0  0  0  0  0  0  0
  193.5130  176.2800  146.7320 O   0  0  0  0  0  1  0  0  0  0  0  0
  191.5580  176.7870  148.1860 C   0  0  0  0  0  2  0  0  0  0  0  0
  191.4650  175.3470  147.6810 C   0  0  0  0  0  2  0  0  0  0  0  0
  1  5  2  0  0  0  0
  1  8  1  0  0  0  0
  2  3  1  0  0  0  0
  3 10  2  6  0  0  0
  3  9  1  0  0  0  0
  4 11  1  1  0  0  0
  4  1  1  0  0  0  0
  4  7  1  0  0  0  0
  6  2  1  0  0  0  0
  6  7  1  0  0  0  0
  7 11  1  6  0  0  0
  8 13  1  1  0  0  0
  8 12  1  0  0  0  0
  9 12  1  0  0  0  0
  9 25  1  1  0  0  0
 14 13  2  0  0  0  0
 15 13  1  6  0  0  0
 15 17  1  0  0  0  0
 15 16  1  0  0  0  0
 16 20  1  1  0  0  0
 17 21  1  6  0  0  0
 17 16  1  0  0  0  0
 18 19  1  0  0  0  0
 20 18  1  0  0  0  0
 20 19  1  0  0  0  0
 21 24  1  0  0  0  0
 22 24  1  0  0  0  0
 24 23  1  0  0  0  0
 25 26  1  0  0  0  0
 26 27  1  0  0  0  0
 27 30  1  0  0  0  0
 27 29  1  0  0  0  0
 28 27  1  0  0  0  0
 30 29  1  0  0  0  0
M  END
>  <MODEL>
7

>  <REMARK>
 VINA RESULT:      -6.3      2.226      4.861
  Name = 
  8 active torsions:
  status: ('A' for Active; 'I' for Inactive)
    1  A    between atoms: C_1  and  C_4
    2  A    between atoms: C_1  and  C_22
    3  A    between atoms: N_7  and  C_10
    4  A    between atoms: N_7  and  C_25
    5  A    between atoms: C_8  and  C_30
    6  A    between atoms: C_9  and  C_12
    7  A    between atoms: C_9  and  C_21
    8  A    between atoms: C_23  and  C_25
                            x       y       z     vdW  Elec       q    Type
                         _______ _______ _______ _____ _____    ______ ____

>  <TORSDO>
F 8

$$$$
=
 OpenBabel11052417203D

 30 34  0  0  1  0  0  0  0  0999 V2000
  186.6230  177.0610  142.3980 C   0  0  0  0  0  0  0  0  0  0  0  0
  184.4440  178.0870  145.5150 C   0  0  0  0  0  2  0  0  0  0  0  0
  185.9470  178.6980  146.3170 S   0  0  2  0  0  0  0  0  0  0  0  0
  185.1900  177.4440  142.6140 C   0  0  1  0  0  3  0  0  0  0  0  0
  187.1940  177.2650  141.2650 N   0  0  0  0  0  2  0  0  0  0  0  0
  184.0880  178.8970  144.2700 C   0  0  0  0  0  2  0  0  0  0  0  0
  185.2080  178.8240  143.2500 C   0  0  2  0  0  3  0  0  0  0  0  0
  187.4070  176.5770  143.5920 C   0  0  2  0  0  3  0  0  0  0  0  0
  187.2230  177.4670  145.9160 C   0  0  1  0  0  3  0  0  0  0  0  0
  185.6500  178.4640  147.7920 O   0  0  0  0  0  0  0  0  0  0  0  0
  184.7120  178.6610  141.8320 C   0  0  0  0  0  2  0  0  0  0  0  0
  187.7760  177.7250  144.5260 C   0  0  0  0  0  2  0  0  0  0  0  0
  188.5740  175.6850  143.2400 C   0  0  0  0  0  0  0  0  0  0  0  0
  189.6250  176.2060  142.9020 O   0  0  0  0  0  0  0  0  0  0  0  0
  188.4580  174.1770  143.2070 C   0  0  2  0  0  3  0  0  0  0  0  0
  189.7270  173.5360  142.6710 C   0  0  2  0  0  3  0  0  0  0  0  0
  188.4800  173.5300  141.8120 C   0  0  2  0  0  3  0  0  0  0  0  0
  191.3410  171.7260  143.1280 C   0  0  0  0  0  2  0  0  0  0  0  0
  190.2580  171.1680  142.2300 C   0  0  0  0  0  2  0  0  0  0  0  0
  189.9040  172.1730  143.3070 C   0  0  0  0  0  3  0  0  0  0  0  0
  188.6760  174.4960  140.6390 C   0  0  0  0  0  2  0  0  0  0  0  0
  190.4490  173.5340  139.1300 C   0  0  0  0  0  1  0  0  0  0  0  0
  188.1960  172.4700  139.2190 C   0  0  0  0  0  1  0  0  0  0  0  0
  188.9640  173.7750  139.3230 C   0  0  0  0  0  3  0  0  0  0  0  0
  188.3730  177.5490  146.9050 C   0  0  0  0  0  2  0  0  0  0  0  0
  189.6110  177.1290  146.2640 N   0  0  0  0  0  2  0  0  0  0  0  0
  190.1570  176.0140  147.0260 C   0  0  0  0  0  0  0  0  0  0  0  0
  191.0720  176.2950  148.0420 O   0  0  0  0  0  1  0  0  0  0  0  0
  189.3090  174.7740  147.1630 C   0  0  0  0  0  2  0  0  0  0  0  0
  190.4940  174.8030  146.1970 C   0  0  0  0  0  2  0  0  0  0  0  0
  1  4  1  0  0  0  0
  1  8  1  0  0  0  0
  2  3  1  0  0  0  0
  3 10  2  1  0  0  0
  4 11  1  6  0  0  0
  4  7  1  0  0  0  0
  5  1  2  0  0  0  0
  6  2  1  0  0  0  0
  7 11  1  6  0  0  0
  7  6  1  0  0  0  0
  8 13  1  6  0  0  0
  8 12  1  0  0  0  0
  9  3  1  0  0  0  0
  9 25  1  1  0  0  0
 12  9  1  0  0  0  0
 14 13  2  0  0  0  0
 15 13  1  6  0  0  0
 16 15  1  0  0  0  0
 16 20  1  1  0  0  0
 17 21  1  6  0  0  0
 17 16  1  0  0  0  0
 17 15  1  0  0  0  0
 18 20  1  0  0  0  0
 19 18  1  0  0  0  0
 19 20  1  0  0  0  0
 22 24  1  0  0  0  0
 23 24  1  0  0  0  0
 24 21  1  0  0  0  0
 26 25  1  0  0  0  0
 26 27  1  0  0  0  0
 27 29  1  0  0  0  0
 27 28  1  0  0  0  0
 30 27  1  0  0  0  0
 30 29  1  0  0  0  0
M  END
>  <MODEL>
8

>  <REMARK>
 VINA RESULT:      -6.2      2.805      6.885
  Name = 
  8 active torsions:
  status: ('A' for Active; 'I' for Inactive)
    1  A    between atoms: C_1  and  C_4
    2  A    between atoms: C_1  and  C_22
    3  A    between atoms: N_7  and  C_10
    4  A    between atoms: N_7  and  C_25
    5  A    between atoms: C_8  and  C_30
    6  A    between atoms: C_9  and  C_12
    7  A    between atoms: C_9  and  C_21
    8  A    between atoms: C_23  and  C_25
                            x       y       z     vdW  Elec       q    Type
                         _______ _______ _______ _____ _____    ______ ____

>  <TORSDO>
F 8

$$$$
=
 OpenBabel11052417203D

 30 34  0  0  1  0  0  0  0  0999 V2000
  188.5310  174.8820  142.2330 C   0  0  0  0  0  0  0  0  0  0  0  0
  191.4140  172.2260  142.6140 C   0  0  0  0  0  2  0  0  0  0  0  0
  191.4490  172.5730  144.3900 S   0  0  2  0  0  0  0  0  0  0  0  0
  188.9540  173.6550  141.4820 C   0  0  1  0  0  3  0  0  0  0  0  0
  187.3060  175.2690  142.2220 N   0  0  0  0  0  2  0  0  0  0  0  0
  190.0960  171.5880  142.1800 C   0  0  0  0  0  2  0  0  0  0  0  0
  188.9330  172.5120  142.4820 C   0  0  2  0  0  3  0  0  0  0  0  0
  189.5540  175.5480  143.1200 C   0  0  2  0  0  3  0  0  0  0  0  0
  191.2570  174.3760  144.5170 C   0  0  1  0  0  3  0  0  0  0  0  0
  192.9080  172.3250  144.7460 O   0  0  0  0  0  0  0  0  0  0  0  0
  187.9040  172.5570  141.3780 C   0  0  0  0  0  2  0  0  0  0  0  0
  189.7910  174.7530  144.3990 C   0  0  0  0  0  2  0  0  0  0  0  0
  189.2950  177.0170  143.3590 C   0  0  0  0  0  0  0  0  0  0  0  0
  189.6260  177.8150  142.4970 O   0  0  0  0  0  0  0  0  0  0  0  0
  188.7230  177.5350  144.6610 C   0  0  2  0  0  3  0  0  0  0  0  0
  187.3830  176.8890  144.9710 C   0  0  2  0  0  3  0  0  0  0  0  0
  187.4180  178.3420  144.5490 C   0  0  2  0  0  3  0  0  0  0  0  0
  185.7250  176.8050  146.7970 C   0  0  0  0  0  2  0  0  0  0  0  0
  186.5320  178.0740  146.9600 C   0  0  0  0  0  2  0  0  0  0  0  0
  187.2050  176.8070  146.4730 C   0  0  0  0  0  3  0  0  0  0  0  0
  186.8370  178.4670  143.1360 C   0  0  0  0  0  2  0  0  0  0  0  0
  184.3780  177.9240  143.1900 C   0  0  0  0  0  1  0  0  0  0  0  0
  185.2010  180.0210  144.2570 C   0  0  0  0  0  1  0  0  0  0  0  0
  185.4170  179.0280  143.1300 C   0  0  0  0  0  3  0  0  0  0  0  0
  191.7680  174.8750  145.8580 C   0  0  0  0  0  2  0  0  0  0  0  0
  192.0750  176.2950  145.7770 N   0  0  0  0  0  2  0  0  0  0  0  0
  193.4860  176.4320  145.4440 C   0  0  0  0  0  0  0  0  0  0  0  0
  193.8290  176.6750  144.1130 O   0  0  0  0  0  1  0  0  0  0  0  0
  194.4150  176.9450  146.5170 C   0  0  0  0  0  2  0  0  0  0  0  0
  194.3890  175.4590  146.1560 C   0  0  0  0  0  2  0  0  0  0  0  0
  1  8  1  0  0  0  0
  2  3  1  0  0  0  0
  3  9  1  0  0  0  0
  3 10  2  6  0  0  0
  4 11  1  6  0  0  0
  4  1  1  0  0  0  0
  4  7  1  0  0  0  0
  5  1  2  0  0  0  0
  6  7  1  0  0  0  0
  6  2  1  0  0  0  0
  7 11  1  6  0  0  0
  8 13  1  1  0  0  0
  8 12  1  0  0  0  0
  9 25  1  1  0  0  0
 12  9  1  0  0  0  0
 14 13  2  0  0  0  0
 15 13  1  6  0  0  0
 15 16  1  0  0  0  0
 16 20  1  1  0  0  0
 17 21  1  6  0  0  0
 17 15  1  0  0  0  0
 17 16  1  0  0  0  0
 18 19  1  0  0  0  0
 20 18  1  0  0  0  0
 20 19  1  0  0  0  0
 24 21  1  0  0  0  0
 24 22  1  0  0  0  0
 24 23  1  0  0  0  0
 26 25  1  0  0  0  0
 27 26  1  0  0  0  0
 27 30  1  0  0  0  0
 27 29  1  0  0  0  0
 28 27  1  0  0  0  0
 30 29  1  0  0  0  0
M  END
>  <MODEL>
9

>  <REMARK>
 VINA RESULT:      -6.2      2.195      5.008
  Name = 
  8 active torsions:
  status: ('A' for Active; 'I' for Inactive)
    1  A    between atoms: C_1  and  C_4
    2  A    between atoms: C_1  and  C_22
    3  A    between atoms: N_7  and  C_10
    4  A    between atoms: N_7  and  C_25
    5  A    between atoms: C_8  and  C_30
    6  A    between atoms: C_9  and  C_12
    7  A    between atoms: C_9  and  C_21
    8  A    between atoms: C_23  and  C_25
                            x       y       z     vdW  Elec       q    Type
                         _______ _______ _______ _____ _____    ______ ____

>  <TORSDO>
F 8

$$$$
