=
 OpenBabel11052417543D

 31 35  0  0  1  0  0  0  0  0999 V2000
  187.0780  176.6490  140.9430 C   0  0  0  0  0  0  0  0  0  0  0  0
  187.8810  177.0700  144.6010 C   0  0  2  0  0  3  0  0  0  0  0  0
  186.5890  177.7190  145.1110 C   0  0  2  0  0  3  0  0  0  0  0  0
  185.1050  179.8200  144.8670 C   0  0  0  0  0  2  0  0  0  0  0  0
  187.8670  176.5600  143.1820 C   0  0  0  0  0  0  0  0  0  0  0  0
  188.0570  175.7380  140.5380 C   0  0  0  0  0  3  0  0  0  0  0  0
  186.3140  179.0280  144.3580 C   0  0  0  0  0  2  0  0  0  0  0  0
  189.5700  175.2980  145.0760 C   0  0  0  0  0  0  0  0  0  0  0  0
  186.1590  177.1730  139.9930 N   0  0  0  0  0  1  0  0  0  0  0  0
  187.0710  176.7250  147.2800 O   0  0  0  0  0  0  0  0  0  0  0  0
  183.9210  178.9360  145.2770 C   0  0  0  0  0  2  0  0  0  0  0  0
  189.7760  175.1280  143.7990 N   0  0  0  0  0  0  0  0  0  0  0  0
  188.2790  175.9280  145.5370 C   0  0  1  0  0  3  0  0  0  0  0  0
  190.4790  174.7490  146.0350 N   0  0  0  0  0  2  0  0  0  0  0  0
  187.0100  177.0490  142.2420 N   0  0  0  0  0  0  0  0  0  0  0  0
  184.1540  178.1160  146.5580 C   0  0  0  0  0  2  0  0  0  0  0  0
  188.8670  175.6430  142.8090 C   0  0  0  0  0  0  0  0  0  0  0  0
  188.9590  175.2350  141.4790 C   0  0  0  0  0  3  0  0  0  0  0  0
  188.3510  176.4510  146.8970 N   0  0  0  0  0  2  0  0  0  0  0  0
  186.7100  177.9330  146.6460 C   0  0  2  0  0  3  0  0  0  0  0  0
  185.4380  178.4870  147.3070 C   0  0  0  0  0  2  0  0  0  0  0  0
  191.4680  173.0600  144.7560 O   0  0  0  0  0  1  0  0  0  0  0  0
  191.7260  174.0960  145.6590 C   0  0  1  0  0  3  0  0  0  0  0  0
  195.6630  174.7390  145.1540 C   0  0  1  0  0  3  0  0  0  0  0  0
  193.5280  174.5460  143.9040 C   0  0  0  0  0  2  0  0  0  0  0  0
  193.0400  176.5090  146.9800 O   0  0  0  0  0  0  0  0  0  0  0  0
  196.8540  173.9880  145.7110 C   0  0  0  0  0  1  0  0  0  0  0  0
  194.7490  173.7800  144.4040 C   0  0  0  0  0  2  0  0  0  0  0  0
  193.5590  175.7350  146.1340 C   0  0  0  0  0  0  0  0  0  0  0  0
  192.6980  175.1190  145.0630 C   0  0  2  0  0  3  0  0  0  0  0  0
  194.9450  175.3970  146.2400 N   0  0  0  0  0  2  0  0  0  0  0  0
  1 15  1  0  0  0  0
  2  5  1  6  0  0  0
  2  3  1  0  0  0  0
  2 13  1  0  0  0  0
  3  7  1  6  0  0  0
  3 20  1  0  0  0  0
  4 11  1  0  0  0  0
  6  1  2  0  0  0  0
  6 18  1  0  0  0  0
  7  4  1  0  0  0  0
  8 14  1  0  0  0  0
  9  1  1  0  0  0  0
 11 16  1  0  0  0  0
 12  8  2  0  0  0  0
 13  8  1  6  0  0  0
 13 19  1  0  0  0  0
 15  5  2  0  0  0  0
 16 21  1  0  0  0  0
 17  5  1  0  0  0  0
 17 12  1  0  0  0  0
 18 17  2  0  0  0  0
 19 10  1  0  0  0  0
 20 10  1  0  0  0  0
 20 21  1  1  0  0  0
 23 22  1  6  0  0  0
 23 14  1  0  0  0  0
 24 27  1  1  0  0  0
 24 31  1  0  0  0  0
 25 28  1  0  0  0  0
 25 30  1  0  0  0  0
 28 24  1  0  0  0  0
 29 31  1  0  0  0  0
 29 26  2  0  0  0  0
 30 23  1  1  0  0  0
 30 29  1  0  0  0  0
M  END
>  <MODEL>
1

>  <REMARK>
 VINA RESULT:      -8.9      0.000      0.000
  Name = 
  2 active torsions:
  status: ('A' for Active; 'I' for Inactive)
    1  A    between atoms: C_9  and  C_22
    2  A    between atoms: C_9  and  N_23
                            x       y       z     vdW  Elec       q    Type
                         _______ _______ _______ _____ _____    ______ ____

>  <TORSDO>
F 2

$$$$
=
 OpenBabel11052417543D

 31 35  0  0  1  0  0  0  0  0999 V2000
  185.5600  177.8620  140.7250 C   0  0  0  0  0  0  0  0  0  0  0  0
  187.5690  177.3020  143.8640 C   0  0  2  0  0  3  0  0  0  0  0  0
  186.5250  177.6220  144.9400 C   0  0  2  0  0  3  0  0  0  0  0  0
  185.0270  179.5180  145.8540 C   0  0  0  0  0  2  0  0  0  0  0  0
  187.0720  177.2240  142.4420 C   0  0  0  0  0  0  0  0  0  0  0  0
  186.3490  177.2250  139.7630 C   0  0  0  0  0  3  0  0  0  0  0  0
  185.9950  179.0520  144.7620 C   0  0  0  0  0  2  0  0  0  0  0  0
  189.3360  175.6750  143.1910 C   0  0  0  0  0  0  0  0  0  0  0  0
  184.3650  178.5280  140.3360 N   0  0  0  0  0  1  0  0  0  0  0  0
  187.7350  176.1090  146.4130 O   0  0  0  0  0  0  0  0  0  0  0  0
  184.0650  178.4240  146.3310 C   0  0  0  0  0  2  0  0  0  0  0  0
  189.0910  175.9060  141.9290 N   0  0  0  0  0  0  0  0  0  0  0  0
  188.2760  175.9930  144.2170 C   0  0  1  0  0  3  0  0  0  0  0  0
  190.5250  174.9830  143.5820 N   0  0  0  0  0  2  0  0  0  0  0  0
  185.9400  177.8600  142.0320 N   0  0  0  0  0  0  0  0  0  0  0  0
  184.7330  177.3020  147.1460 C   0  0  0  0  0  2  0  0  0  0  0  0
  187.8920  176.5750  141.5000 C   0  0  0  0  0  0  0  0  0  0  0  0
  187.5240  176.5810  140.1550 C   0  0  0  0  0  3  0  0  0  0  0  0
  188.8070  176.1060  145.5710 N   0  0  0  0  0  2  0  0  0  0  0  0
  187.1650  177.3970  146.3390 C   0  0  2  0  0  3  0  0  0  0  0  0
  186.1930  177.5870  147.5130 C   0  0  0  0  0  2  0  0  0  0  0  0
  192.4260  175.7000  142.4250 O   0  0  0  0  0  1  0  0  0  0  0  0
  191.5720  174.6140  142.6390 C   0  0  1  0  0  3  0  0  0  0  0  0
  194.6480  173.6560  145.0440 C   0  0  1  0  0  3  0  0  0  0  0  0
  192.2310  173.2250  144.6800 C   0  0  0  0  0  2  0  0  0  0  0  0
  194.0310  173.2450  141.4670 O   0  0  0  0  0  0  0  0  0  0  0  0
  195.6670  174.5430  145.7280 C   0  0  0  0  0  1  0  0  0  0  0  0
  193.2410  174.0930  145.4240 C   0  0  0  0  0  2  0  0  0  0  0  0
  193.7730  173.4220  142.6870 C   0  0  0  0  0  0  0  0  0  0  0  0
  192.3440  173.3970  143.1560 C   0  0  2  0  0  3  0  0  0  0  0  0
  194.8360  173.7130  143.5990 N   0  0  0  0  0  2  0  0  0  0  0  0
  1 15  1  0  0  0  0
  2  5  1  6  0  0  0
  2 13  1  0  0  0  0
  2  3  1  0  0  0  0
  3  7  1  1  0  0  0
  3 20  1  0  0  0  0
  4 11  1  0  0  0  0
  6 18  1  0  0  0  0
  6  1  2  0  0  0  0
  7  4  1  0  0  0  0
  8 14  1  0  0  0  0
  9  1  1  0  0  0  0
 11 16  1  0  0  0  0
 12  8  2  0  0  0  0
 13  8  1  6  0  0  0
 13 19  1  0  0  0  0
 15  5  2  0  0  0  0
 16 21  1  0  0  0  0
 17 12  1  0  0  0  0
 17  5  1  0  0  0  0
 18 17  2  0  0  0  0
 19 10  1  0  0  0  0
 20 10  1  0  0  0  0
 20 21  1  1  0  0  0
 23 22  1  1  0  0  0
 23 14  1  0  0  0  0
 24 28  1  0  0  0  0
 24 27  1  1  0  0  0
 25 28  1  0  0  0  0
 26 29  2  0  0  0  0
 29 30  1  0  0  0  0
 29 31  1  0  0  0  0
 30 23  1  1  0  0  0
 30 25  1  0  0  0  0
 31 24  1  0  0  0  0
M  END
>  <MODEL>
2

>  <REMARK>
 VINA RESULT:      -8.9      1.695      2.300
  Name = 
  2 active torsions:
  status: ('A' for Active; 'I' for Inactive)
    1  A    between atoms: C_9  and  C_22
    2  A    between atoms: C_9  and  N_23
                            x       y       z     vdW  Elec       q    Type
                         _______ _______ _______ _____ _____    ______ ____

>  <TORSDO>
F 2

$$$$
=
 OpenBabel11052417543D

 31 35  0  0  1  0  0  0  0  0999 V2000
  191.2270  176.7250  147.6200 C   0  0  0  0  0  0  0  0  0  0  0  0
  188.5220  175.9430  145.1150 C   0  0  2  0  0  3  0  0  0  0  0  0
  187.4390  176.9450  145.5340 C   0  0  2  0  0  3  0  0  0  0  0  0
  185.8830  177.5960  147.4910 C   0  0  0  0  0  2  0  0  0  0  0  0
  189.8690  176.0890  145.7780 C   0  0  0  0  0  0  0  0  0  0  0  0
  192.3410  176.1110  147.0390 C   0  0  0  0  0  3  0  0  0  0  0  0
  187.0420  176.7220  146.9990 C   0  0  0  0  0  2  0  0  0  0  0  0
  189.7400  174.9930  143.1580 C   0  0  0  0  0  0  0  0  0  0  0  0
  191.3500  177.3720  148.8800 N   0  0  0  0  0  1  0  0  0  0  0  0
  186.6640  176.9080  143.2260 O   0  0  0  0  0  0  0  0  0  0  0  0
  185.9160  179.0260  146.9390 C   0  0  0  0  0  2  0  0  0  0  0  0
  190.8090  174.8180  143.8870 N   0  0  0  0  0  0  0  0  0  0  0  0
  188.7050  175.9980  143.5980 C   0  0  1  0  0  3  0  0  0  0  0  0
  189.6260  174.3630  141.8790 N   0  0  0  0  0  2  0  0  0  0  0  0
  190.0210  176.6900  146.9910 N   0  0  0  0  0  0  0  0  0  0  0  0
  185.6020  179.1350  145.4360 C   0  0  0  0  0  2  0  0  0  0  0  0
  190.9680  175.4580  145.1650 C   0  0  0  0  0  0  0  0  0  0  0  0
  192.2070  175.4720  145.8050 C   0  0  0  0  0  3  0  0  0  0  0  0
  187.4040  175.7920  142.9690 N   0  0  0  0  0  2  0  0  0  0  0  0
  186.2300  176.8060  144.5650 C   0  0  2  0  0  3  0  0  0  0  0  0
  185.1080  177.8260  144.8090 C   0  0  0  0  0  2  0  0  0  0  0  0
  190.2240  172.1090  141.7130 O   0  0  0  0  0  1  0  0  0  0  0  0
  190.6070  173.4110  141.3760 C   0  0  1  0  0  3  0  0  0  0  0  0
  190.0290  171.3870  137.9500 C   0  0  1  0  0  3  0  0  0  0  0  0
  189.4250  173.4940  139.1120 C   0  0  0  0  0  2  0  0  0  0  0  0
  192.9940  172.7360  139.6030 O   0  0  0  0  0  0  0  0  0  0  0  0
  189.6560  169.9370  137.7230 C   0  0  0  0  0  1  0  0  0  0  0  0
  188.9980  172.0530  138.8490 C   0  0  0  0  0  2  0  0  0  0  0  0
  191.7760  172.5920  139.3190 C   0  0  0  0  0  0  0  0  0  0  0  0
  190.7650  173.5660  139.8610 C   0  0  2  0  0  3  0  0  0  0  0  0
  191.3610  171.4660  138.5410 N   0  0  0  0  0  2  0  0  0  0  0  0
  1  9  1  0  0  0  0
  2  3  1  0  0  0  0
  2  5  1  1  0  0  0
  3  7  1  1  0  0  0
  5 15  1  0  0  0  0
  6  1  1  0  0  0  0
  7  4  1  0  0  0  0
  8 13  1  0  0  0  0
  8 12  2  0  0  0  0
 10 20  1  0  0  0  0
 11  4  1  0  0  0  0
 12 17  1  0  0  0  0
 13 19  1  6  0  0  0
 13  2  1  0  0  0  0
 14  8  1  0  0  0  0
 15  1  2  0  0  0  0
 16 11  1  0  0  0  0
 17  5  2  0  0  0  0
 17 18  1  0  0  0  0
 18  6  2  0  0  0  0
 19 10  1  0  0  0  0
 20 21  1  1  0  0  0
 20  3  1  0  0  0  0
 21 16  1  0  0  0  0
 23 22  1  6  0  0  0
 23 14  1  0  0  0  0
 24 27  1  1  0  0  0
 24 31  1  0  0  0  0
 24 28  1  0  0  0  0
 25 30  1  0  0  0  0
 28 25  1  0  0  0  0
 29 26  2  0  0  0  0
 29 30  1  0  0  0  0
 30 23  1  1  0  0  0
 31 29  1  0  0  0  0
M  END
>  <MODEL>
3

>  <REMARK>
 VINA RESULT:      -8.8      3.022      5.789
  Name = 
  2 active torsions:
  status: ('A' for Active; 'I' for Inactive)
    1  A    between atoms: C_9  and  C_22
    2  A    between atoms: C_9  and  N_23
                            x       y       z     vdW  Elec       q    Type
                         _______ _______ _______ _____ _____    ______ ____

>  <TORSDO>
F 2

$$$$
=
 OpenBabel11052417543D

 31 35  0  0  1  0  0  0  0  0999 V2000
  186.5900  176.9980  140.8380 C   0  0  0  0  0  0  0  0  0  0  0  0
  187.7680  177.0510  144.4180 C   0  0  2  0  0  3  0  0  0  0  0  0
  186.5460  177.6550  145.1190 C   0  0  2  0  0  3  0  0  0  0  0  0
  185.0790  179.7790  145.2340 C   0  0  0  0  0  2  0  0  0  0  0  0
  187.6010  176.6840  142.9640 C   0  0  0  0  0  0  0  0  0  0  0  0
  187.5080  176.1250  140.2470 C   0  0  0  0  0  3  0  0  0  0  0  0
  186.2170  179.0330  144.5290 C   0  0  0  0  0  2  0  0  0  0  0  0
  189.4680  175.2300  144.5410 C   0  0  0  0  0  0  0  0  0  0  0  0
  185.5880  177.6200  140.0430 N   0  0  0  0  0  1  0  0  0  0  0  0
  187.2300  176.4480  147.1190 O   0  0  0  0  0  0  0  0  0  0  0  0
  183.9290  178.8670  145.6760 C   0  0  0  0  0  2  0  0  0  0  0  0
  189.5400  175.1860  143.2380 N   0  0  0  0  0  0  0  0  0  0  0  0
  188.2410  175.8200  145.1910 C   0  0  1  0  0  3  0  0  0  0  0  0
  190.4610  174.5840  145.3430 N   0  0  0  0  0  2  0  0  0  0  0  0
  186.6620  177.2690  142.1700 N   0  0  0  0  0  0  0  0  0  0  0  0
  184.2770  177.9230  146.8400 C   0  0  0  0  0  2  0  0  0  0  0  0
  188.5440  175.8020  142.4030 C   0  0  0  0  0  0  0  0  0  0  0  0
  188.4920  175.5270  141.0370 C   0  0  0  0  0  3  0  0  0  0  0  0
  188.4600  176.2060  146.5820 N   0  0  0  0  0  2  0  0  0  0  0  0
  186.8260  177.7150  146.6470 C   0  0  2  0  0  3  0  0  0  0  0  0
  185.6380  178.2090  147.4850 C   0  0  0  0  0  2  0  0  0  0  0  0
  192.0200  174.6210  143.6010 O   0  0  0  0  0  1  0  0  0  0  0  0
  191.6510  173.9630  144.7780 C   0  0  1  0  0  3  0  0  0  0  0  0
  194.5190  176.3840  146.2220 C   0  0  1  0  0  3  0  0  0  0  0  0
  192.5720  175.0120  146.9190 C   0  0  0  0  0  2  0  0  0  0  0  0
  194.5840  173.2090  144.4170 O   0  0  0  0  0  0  0  0  0  0  0  0
  194.9780  177.7460  145.7460 C   0  0  0  0  0  1  0  0  0  0  0  0
  193.0220  176.4080  146.4980 C   0  0  0  0  0  2  0  0  0  0  0  0
  194.1250  174.1450  145.1240 C   0  0  0  0  0  0  0  0  0  0  0  0
  192.7910  173.9800  145.8010 C   0  0  2  0  0  3  0  0  0  0  0  0
  194.8450  175.3770  145.2190 N   0  0  0  0  0  2  0  0  0  0  0  0
  1 15  1  0  0  0  0
  2  5  1  6  0  0  0
  2  3  1  0  0  0  0
  2 13  1  0  0  0  0
  3  7  1  6  0  0  0
  3 20  1  0  0  0  0
  4 11  1  0  0  0  0
  6  1  2  0  0  0  0
  6 18  1  0  0  0  0
  7  4  1  0  0  0  0
  8 14  1  0  0  0  0
  9  1  1  0  0  0  0
 11 16  1  0  0  0  0
 12  8  2  0  0  0  0
 13  8  1  6  0  0  0
 13 19  1  0  0  0  0
 15  5  2  0  0  0  0
 16 21  1  0  0  0  0
 17  5  1  0  0  0  0
 17 12  1  0  0  0  0
 18 17  2  0  0  0  0
 19 10  1  0  0  0  0
 20 10  1  0  0  0  0
 20 21  1  1  0  0  0
 23 22  1  6  0  0  0
 23 14  1  0  0  0  0
 24 27  1  6  0  0  0
 24 28  1  0  0  0  0
 26 29  2  0  0  0  0
 28 25  1  0  0  0  0
 29 31  1  0  0  0  0
 29 30  1  0  0  0  0
 30 23  1  6  0  0  0
 30 25  1  0  0  0  0
 31 24  1  0  0  0  0
M  END
>  <MODEL>
4

>  <REMARK>
 VINA RESULT:      -8.8      1.179      1.643
  Name = 
  2 active torsions:
  status: ('A' for Active; 'I' for Inactive)
    1  A    between atoms: C_9  and  C_22
    2  A    between atoms: C_9  and  N_23
                            x       y       z     vdW  Elec       q    Type
                         _______ _______ _______ _____ _____    ______ ____

>  <TORSDO>
F 2

$$$$
=
 OpenBabel11052417543D

 31 35  0  0  1  0  0  0  0  0999 V2000
  191.0070  171.8010  141.8160 C   0  0  0  0  0  0  0  0  0  0  0  0
  191.5010  174.2240  144.6600 C   0  0  2  0  0  3  0  0  0  0  0  0
  193.0260  174.1810  144.8190 C   0  0  2  0  0  3  0  0  0  0  0  0
  194.9910  172.6070  145.3960 C   0  0  0  0  0  2  0  0  0  0  0  0
  190.9260  173.5130  143.4600 C   0  0  0  0  0  0  0  0  0  0  0  0
  189.7040  172.1010  141.4080 C   0  0  0  0  0  3  0  0  0  0  0  0
  193.4930  172.7480  145.1060 C   0  0  0  0  0  2  0  0  0  0  0  0
  189.5300  175.7470  144.5310 C   0  0  0  0  0  0  0  0  0  0  0  0
  191.7270  170.7540  141.1790 N   0  0  0  0  0  1  0  0  0  0  0  0
  192.8930  176.4520  145.6860 O   0  0  0  0  0  0  0  0  0  0  0  0
  195.8720  173.5160  144.5300 C   0  0  0  0  0  2  0  0  0  0  0  0
  188.9150  174.9110  143.7400 N   0  0  0  0  0  0  0  0  0  0  0  0
  191.0330  175.6800  144.6480 C   0  0  1  0  0  3  0  0  0  0  0  0
  188.8130  176.8170  145.1530 N   0  0  0  0  0  2  0  0  0  0  0  0
  191.5820  172.4970  142.8340 N   0  0  0  0  0  0  0  0  0  0  0  0
  195.7610  175.0140  144.8650 C   0  0  0  0  0  2  0  0  0  0  0  0
  189.6120  173.8410  143.0770 C   0  0  0  0  0  0  0  0  0  0  0  0
  189.0030  173.1270  142.0460 C   0  0  0  0  0  3  0  0  0  0  0  0
  191.5440  176.3380  145.8460 N   0  0  0  0  0  2  0  0  0  0  0  0
  193.4390  175.1760  145.9400 C   0  0  2  0  0  3  0  0  0  0  0  0
  194.9570  175.3070  146.1360 C   0  0  0  0  0  2  0  0  0  0  0  0
  186.7860  176.8540  146.3180 O   0  0  0  0  0  1  0  0  0  0  0  0
  187.3670  176.9620  145.0510 C   0  0  1  0  0  3  0  0  0  0  0  0
  184.5500  178.6680  142.7430 C   0  0  1  0  0  3  0  0  0  0  0  0
  185.7050  178.9000  144.9270 C   0  0  0  0  0  2  0  0  0  0  0  0
  188.1150  178.0130  142.2880 O   0  0  0  0  0  0  0  0  0  0  0  0
  183.3790  178.0470  142.0120 C   0  0  0  0  0  1  0  0  0  0  0  0
  184.4860  178.3140  144.2220 C   0  0  0  0  0  2  0  0  0  0  0  0
  187.0250  178.1860  142.8930 C   0  0  0  0  0  0  0  0  0  0  0  0
  187.0160  178.3010  144.3940 C   0  0  2  0  0  3  0  0  0  0  0  0
  185.8010  178.2030  142.1530 N   0  0  0  0  0  2  0  0  0  0  0  0
  1 15  1  0  0  0  0
  2  5  1  6  0  0  0
  2  3  1  0  0  0  0
  3  7  1  1  0  0  0
  3 20  1  0  0  0  0
  6  1  2  0  0  0  0
  6 18  1  0  0  0  0
  7  4  1  0  0  0  0
  8 14  1  0  0  0  0
  9  1  1  0  0  0  0
 10 19  1  0  0  0  0
 10 20  1  0  0  0  0
 11 16  1  0  0  0  0
 11  4  1  0  0  0  0
 12  8  2  0  0  0  0
 13  8  1  1  0  0  0
 13  2  1  0  0  0  0
 13 19  1  0  0  0  0
 15  5  2  0  0  0  0
 16 21  1  0  0  0  0
 17  5  1  0  0  0  0
 17 12  1  0  0  0  0
 18 17  2  0  0  0  0
 20 21  1  6  0  0  0
 23 14  1  0  0  0  0
 23 22  1  1  0  0  0
 24 27  1  6  0  0  0
 24 28  1  0  0  0  0
 26 29  2  0  0  0  0
 28 25  1  0  0  0  0
 29 30  1  0  0  0  0
 30 25  1  0  0  0  0
 30 23  1  1  0  0  0
 31 24  1  0  0  0  0
 31 29  1  0  0  0  0
M  END
>  <MODEL>
5

>  <REMARK>
 VINA RESULT:      -8.6      2.287      7.923
  Name = 
  2 active torsions:
  status: ('A' for Active; 'I' for Inactive)
    1  A    between atoms: C_9  and  C_22
    2  A    between atoms: C_9  and  N_23
                            x       y       z     vdW  Elec       q    Type
                         _______ _______ _______ _____ _____    ______ ____

>  <TORSDO>
F 2

$$$$
=
 OpenBabel11052417543D

 31 35  0  0  1  0  0  0  0  0999 V2000
  185.4480  177.9920  140.8470 C   0  0  0  0  0  0  0  0  0  0  0  0
  187.5490  177.3750  143.9140 C   0  0  2  0  0  3  0  0  0  0  0  0
  186.5200  177.6140  145.0260 C   0  0  2  0  0  3  0  0  0  0  0  0
  184.9800  179.4160  146.0520 C   0  0  0  0  0  2  0  0  0  0  0  0
  187.0220  177.3380  142.5020 C   0  0  0  0  0  0  0  0  0  0  0  0
  186.2360  177.4250  139.8410 C   0  0  0  0  0  3  0  0  0  0  0  0
  185.9370  179.0290  144.9200 C   0  0  0  0  0  2  0  0  0  0  0  0
  189.3550  175.8410  143.1340 C   0  0  0  0  0  0  0  0  0  0  0  0
  184.2220  178.6310  140.5130 N   0  0  0  0  0  1  0  0  0  0  0  0
  187.8160  176.0840  146.4070 O   0  0  0  0  0  0  0  0  0  0  0  0
  184.0680  178.2690  146.5030 C   0  0  0  0  0  2  0  0  0  0  0  0
  189.0730  176.1150  141.8900 N   0  0  0  0  0  0  0  0  0  0  0  0
  188.3090  176.0780  144.1960 C   0  0  1  0  0  3  0  0  0  0  0  0
  190.5760  175.1760  143.4700 N   0  0  0  0  0  2  0  0  0  0  0  0
  185.8590  177.9500  142.1440 N   0  0  0  0  0  0  0  0  0  0  0  0
  184.7930  177.1390  147.2550 C   0  0  0  0  0  2  0  0  0  0  0  0
  187.8410  176.7580  141.5150 C   0  0  0  0  0  0  0  0  0  0  0  0
  187.4420  176.8070  140.1800 C   0  0  0  0  0  3  0  0  0  0  0  0
  188.8680  176.1550  145.5420 N   0  0  0  0  0  2  0  0  0  0  0  0
  187.2010  177.3540  146.3990 C   0  0  2  0  0  3  0  0  0  0  0  0
  186.2510  177.4600  147.6020 C   0  0  0  0  0  2  0  0  0  0  0  0
  192.8700  175.1930  143.0160 O   0  0  0  0  0  1  0  0  0  0  0  0
  191.6120  174.8840  142.4890 C   0  0  1  0  0  3  0  0  0  0  0  0
  189.4770  172.4180  140.1380 C   0  0  1  0  0  3  0  0  0  0  0  0
  191.7880  173.2180  140.5590 C   0  0  0  0  0  2  0  0  0  0  0  0
  190.0480  172.5870  143.7420 O   0  0  0  0  0  0  0  0  0  0  0  0
  188.1910  172.6640  139.3770 C   0  0  0  0  0  1  0  0  0  0  0  0
  190.5230  173.4480  139.7380 C   0  0  0  0  0  2  0  0  0  0  0  0
  190.2470  172.7850  142.5150 C   0  0  0  0  0  0  0  0  0  0  0  0
  191.5370  173.4150  142.0630 C   0  0  2  0  0  3  0  0  0  0  0  0
  189.2170  172.4730  141.5730 N   0  0  0  0  0  2  0  0  0  0  0  0
  1 15  1  0  0  0  0
  2  5  1  6  0  0  0
  2 13  1  0  0  0  0
  2  3  1  0  0  0  0
  3  7  1  1  0  0  0
  3 20  1  0  0  0  0
  4 11  1  0  0  0  0
  6 18  1  0  0  0  0
  6  1  2  0  0  0  0
  7  4  1  0  0  0  0
  8 14  1  0  0  0  0
  9  1  1  0  0  0  0
 11 16  1  0  0  0  0
 12  8  2  0  0  0  0
 13  8  1  6  0  0  0
 13 19  1  0  0  0  0
 15  5  2  0  0  0  0
 16 21  1  0  0  0  0
 17 12  1  0  0  0  0
 17  5  1  0  0  0  0
 18 17  2  0  0  0  0
 19 10  1  0  0  0  0
 20 10  1  0  0  0  0
 20 21  1  1  0  0  0
 23 22  1  1  0  0  0
 23 14  1  0  0  0  0
 24 27  1  6  0  0  0
 24 31  1  0  0  0  0
 25 30  1  0  0  0  0
 28 24  1  0  0  0  0
 28 25  1  0  0  0  0
 29 26  2  0  0  0  0
 30 23  1  6  0  0  0
 30 29  1  0  0  0  0
 31 29  1  0  0  0  0
M  END
>  <MODEL>
6

>  <REMARK>
 VINA RESULT:      -8.5      2.556      3.886
  Name = 
  2 active torsions:
  status: ('A' for Active; 'I' for Inactive)
    1  A    between atoms: C_9  and  C_22
    2  A    between atoms: C_9  and  N_23
                            x       y       z     vdW  Elec       q    Type
                         _______ _______ _______ _____ _____    ______ ____

>  <TORSDO>
F 2

$$$$
=
 OpenBabel11052417543D

 31 35  0  0  1  0  0  0  0  0999 V2000
  186.3750  177.2120  140.8590 C   0  0  0  0  0  0  0  0  0  0  0  0
  187.7840  177.0470  144.3500 C   0  0  2  0  0  3  0  0  0  0  0  0
  186.6100  177.6010  145.1650 C   0  0  2  0  0  3  0  0  0  0  0  0
  185.1540  179.7080  145.5080 C   0  0  0  0  0  2  0  0  0  0  0  0
  187.5220  176.7700  142.8910 C   0  0  0  0  0  0  0  0  0  0  0  0
  187.2530  176.3800  140.1560 C   0  0  0  0  0  3  0  0  0  0  0  0
  186.2430  179.0120  144.6850 C   0  0  0  0  0  2  0  0  0  0  0  0
  189.4880  175.2280  144.2490 C   0  0  0  0  0  0  0  0  0  0  0  0
  185.3240  177.8770  140.1700 N   0  0  0  0  0  1  0  0  0  0  0  0
  187.4230  176.2750  147.0380 O   0  0  0  0  0  0  0  0  0  0  0  0
  184.0350  178.7650  145.9660 C   0  0  0  0  0  2  0  0  0  0  0  0
  189.4750  175.2650  142.9440 N   0  0  0  0  0  0  0  0  0  0  0  0
  188.3060  175.7710  145.0140 C   0  0  1  0  0  3  0  0  0  0  0  0
  190.5300  174.5370  144.9430 N   0  0  0  0  0  2  0  0  0  0  0  0
  186.5340  177.3990  142.1970 N   0  0  0  0  0  0  0  0  0  0  0  0
  184.4580  177.7520  147.0440 C   0  0  0  0  0  2  0  0  0  0  0  0
  188.4260  175.9280  142.2160 C   0  0  0  0  0  0  0  0  0  0  0  0
  188.2860  175.7380  140.8410 C   0  0  0  0  0  3  0  0  0  0  0  0
  188.6150  176.0710  146.4080 N   0  0  0  0  0  2  0  0  0  0  0  0
  186.9890  177.5670  146.6730 C   0  0  2  0  0  3  0  0  0  0  0  0
  185.8580  178.0040  147.6160 C   0  0  0  0  0  2  0  0  0  0  0  0
  192.8550  174.5840  144.6940 O   0  0  0  0  0  1  0  0  0  0  0  0
  191.6820  173.9570  144.2640 C   0  0  1  0  0  3  0  0  0  0  0  0
  193.0650  170.5620  142.6120 C   0  0  1  0  0  3  0  0  0  0  0  0
  193.1730  171.9250  144.6840 C   0  0  0  0  0  2  0  0  0  0  0  0
  189.7180  171.7840  143.4180 O   0  0  0  0  0  0  0  0  0  0  0  0
  193.6740  170.3180  141.2480 C   0  0  0  0  0  1  0  0  0  0  0  0
  193.8380  171.6540  143.3380 C   0  0  0  0  0  2  0  0  0  0  0  0
  190.9730  171.6940  143.4610 C   0  0  0  0  0  0  0  0  0  0  0  0
  191.7370  172.4480  144.5160 C   0  0  2  0  0  3  0  0  0  0  0  0
  191.6610  170.9320  142.4660 N   0  0  0  0  0  2  0  0  0  0  0  0
  1 15  1  0  0  0  0
  2  5  1  6  0  0  0
  2 13  1  0  0  0  0
  2  3  1  0  0  0  0
  3  7  1  6  0  0  0
  3 20  1  0  0  0  0
  4 11  1  0  0  0  0
  6 18  1  0  0  0  0
  6  1  2  0  0  0  0
  7  4  1  0  0  0  0
  8 14  1  0  0  0  0
  9  1  1  0  0  0  0
 11 16  1  0  0  0  0
 12  8  2  0  0  0  0
 13  8  1  6  0  0  0
 13 19  1  0  0  0  0
 15  5  2  0  0  0  0
 16 21  1  0  0  0  0
 17  5  1  0  0  0  0
 17 12  1  0  0  0  0
 18 17  2  0  0  0  0
 19 10  1  0  0  0  0
 20 10  1  0  0  0  0
 20 21  1  1  0  0  0
 23 22  1  1  0  0  0
 23 14  1  0  0  0  0
 24 27  1  6  0  0  0
 24 28  1  0  0  0  0
 26 29  2  0  0  0  0
 28 25  1  0  0  0  0
 29 30  1  0  0  0  0
 30 23  1  6  0  0  0
 30 25  1  0  0  0  0
 31 24  1  0  0  0  0
 31 29  1  0  0  0  0
M  END
>  <MODEL>
7

>  <REMARK>
 VINA RESULT:      -8.3      1.911      2.758
  Name = 
  2 active torsions:
  status: ('A' for Active; 'I' for Inactive)
    1  A    between atoms: C_9  and  C_22
    2  A    between atoms: C_9  and  N_23
                            x       y       z     vdW  Elec       q    Type
                         _______ _______ _______ _____ _____    ______ ____

>  <TORSDO>
F 2

$$$$
=
 OpenBabel11052417543D

 31 35  0  0  1  0  0  0  0  0999 V2000
  190.3110  177.2580  147.4480 C   0  0  0  0  0  0  0  0  0  0  0  0
  188.2000  175.8170  144.6790 C   0  0  2  0  0  3  0  0  0  0  0  0
  187.1990  176.9560  144.4510 C   0  0  2  0  0  3  0  0  0  0  0  0
  185.3280  178.3130  145.6050 C   0  0  0  0  0  2  0  0  0  0  0  0
  189.3560  176.1070  145.6030 C   0  0  0  0  0  0  0  0  0  0  0  0
  191.4340  176.4260  147.4150 C   0  0  0  0  0  3  0  0  0  0  0  0
  186.4370  177.2650  145.7470 C   0  0  0  0  0  2  0  0  0  0  0  0
  189.7060  174.1960  143.5270 C   0  0  0  0  0  0  0  0  0  0  0  0
  190.2180  178.2870  148.4260 N   0  0  0  0  0  1  0  0  0  0  0  0
  187.0010  176.1800  142.1530 O   0  0  0  0  0  0  0  0  0  0  0  0
  185.6910  179.4670  144.6640 C   0  0  0  0  0  2  0  0  0  0  0  0
  190.5340  174.2230  144.5350 N   0  0  0  0  0  0  0  0  0  0  0  0
  188.7460  175.3440  143.3310 C   0  0  1  0  0  3  0  0  0  0  0  0
  189.8130  173.1770  142.5290 N   0  0  0  0  0  2  0  0  0  0  0  0
  189.2980  177.0760  146.5590 N   0  0  0  0  0  0  0  0  0  0  0  0
  185.7640  179.0760  143.1770 C   0  0  0  0  0  2  0  0  0  0  0  0
  190.4710  175.2500  145.5410 C   0  0  0  0  0  0  0  0  0  0  0  0
  191.5100  175.4140  146.4560 C   0  0  0  0  0  3  0  0  0  0  0  0
  187.6180  175.0060  142.4700 N   0  0  0  0  0  2  0  0  0  0  0  0
  186.2510  176.5600  143.2850 C   0  0  2  0  0  3  0  0  0  0  0  0
  185.2560  177.6600  142.8830 C   0  0  0  0  0  2  0  0  0  0  0  0
  190.1020  170.8690  142.2830 O   0  0  0  0  0  1  0  0  0  0  0  0
  190.7430  172.0600  142.6370 C   0  0  1  0  0  3  0  0  0  0  0  0
  193.7310  174.7010  142.1190 C   0  0  1  0  0  3  0  0  0  0  0  0
  193.2860  172.2980  142.5550 C   0  0  0  0  0  2  0  0  0  0  0  0
  190.9600  173.5940  140.0110 O   0  0  0  0  0  0  0  0  0  0  0  0
  193.9510  176.0610  142.7450 C   0  0  0  0  0  1  0  0  0  0  0  0
  193.5650  173.6490  143.2060 C   0  0  0  0  0  2  0  0  0  0  0  0
  191.8080  173.5630  140.9410 C   0  0  0  0  0  0  0  0  0  0  0  0
  191.9710  172.3100  141.7580 C   0  0  2  0  0  3  0  0  0  0  0  0
  192.5560  174.7420  141.2540 N   0  0  0  0  0  2  0  0  0  0  0  0
  1  9  1  0  0  0  0
  2  5  1  1  0  0  0
  3  2  1  0  0  0  0
  3  7  1  1  0  0  0
  4  7  1  0  0  0  0
  5 15  1  0  0  0  0
  6  1  1  0  0  0  0
  8 12  2  0  0  0  0
 10 19  1  0  0  0  0
 10 20  1  0  0  0  0
 11  4  1  0  0  0  0
 12 17  1  0  0  0  0
 13 19  1  6  0  0  0
 13  8  1  0  0  0  0
 13  2  1  0  0  0  0
 14 23  1  0  0  0  0
 14  8  1  0  0  0  0
 15  1  2  0  0  0  0
 16 11  1  0  0  0  0
 17  5  2  0  0  0  0
 17 18  1  0  0  0  0
 18  6  2  0  0  0  0
 20 21  1  6  0  0  0
 20  3  1  0  0  0  0
 21 16  1  0  0  0  0
 23 22  1  6  0  0  0
 24 27  1  1  0  0  0
 24 28  1  0  0  0  0
 25 28  1  0  0  0  0
 26 29  2  0  0  0  0
 29 31  1  0  0  0  0
 29 30  1  0  0  0  0
 30 25  1  0  0  0  0
 30 23  1  1  0  0  0
 31 24  1  0  0  0  0
M  END
>  <MODEL>
8

>  <REMARK>
 VINA RESULT:      -8.3      2.671      4.512
  Name = 
  2 active torsions:
  status: ('A' for Active; 'I' for Inactive)
    1  A    between atoms: C_9  and  C_22
    2  A    between atoms: C_9  and  N_23
                            x       y       z     vdW  Elec       q    Type
                         _______ _______ _______ _____ _____    ______ ____

>  <TORSDO>
F 2

$$$$
=
 OpenBabel11052417543D

 31 35  0  0  1  0  0  0  0  0999 V2000
  191.2560  176.9720  147.8220 C   0  0  0  0  0  0  0  0  0  0  0  0
  188.6290  176.0870  145.2680 C   0  0  2  0  0  3  0  0  0  0  0  0
  187.4910  177.0280  145.6820 C   0  0  2  0  0  3  0  0  0  0  0  0
  185.8770  177.5760  147.6230 C   0  0  0  0  0  2  0  0  0  0  0  0
  189.9580  176.2920  145.9530 C   0  0  0  0  0  0  0  0  0  0  0  0
  192.4080  176.4220  147.2500 C   0  0  0  0  0  3  0  0  0  0  0  0
  187.0850  176.7680  147.1390 C   0  0  0  0  0  2  0  0  0  0  0  0
  189.9220  175.2240  143.3180 C   0  0  0  0  0  0  0  0  0  0  0  0
  191.3290  177.6090  149.0910 N   0  0  0  0  0  1  0  0  0  0  0  0
  186.7530  176.9820  143.3630 O   0  0  0  0  0  0  0  0  0  0  0  0
  185.8460  179.0130  147.0890 C   0  0  0  0  0  2  0  0  0  0  0  0
  190.9880  175.0930  144.0610 N   0  0  0  0  0  0  0  0  0  0  0  0
  188.8310  176.1700  143.7540 C   0  0  1  0  0  3  0  0  0  0  0  0
  189.8580  174.6050  142.0300 N   0  0  0  0  0  2  0  0  0  0  0  0
  190.0630  176.8850  147.1740 N   0  0  0  0  0  0  0  0  0  0  0  0
  185.5480  179.1240  145.5830 C   0  0  0  0  0  2  0  0  0  0  0  0
  191.0960  175.7250  145.3490 C   0  0  0  0  0  0  0  0  0  0  0  0
  192.3230  175.7920  146.0070 C   0  0  0  0  0  3  0  0  0  0  0  0
  187.5520  175.9070  143.1040 N   0  0  0  0  0  2  0  0  0  0  0  0
  186.3060  176.8410  144.6940 C   0  0  2  0  0  3  0  0  0  0  0  0
  185.1300  177.8000  144.9340 C   0  0  0  0  0  2  0  0  0  0  0  0
  192.0390  174.4380  141.2060 O   0  0  0  0  0  1  0  0  0  0  0  0
  190.8920  173.7090  141.5310 C   0  0  1  0  0  3  0  0  0  0  0  0
  191.9230  169.8310  141.7980 C   0  0  1  0  0  3  0  0  0  0  0  0
  192.6430  172.1070  142.4780 C   0  0  0  0  0  2  0  0  0  0  0  0
  189.0030  171.7370  142.8870 O   0  0  0  0  0  0  0  0  0  0  0  0
  192.0040  168.7660  140.7250 C   0  0  0  0  0  1  0  0  0  0  0  0
  192.7870  171.0230  141.4130 C   0  0  0  0  0  2  0  0  0  0  0  0
  190.1860  171.5180  142.5170 C   0  0  0  0  0  0  0  0  0  0  0  0
  191.2010  172.6280  142.5710 C   0  0  2  0  0  3  0  0  0  0  0  0
  190.5340  170.2360  141.9840 N   0  0  0  0  0  2  0  0  0  0  0  0
  1  9  1  0  0  0  0
  2  3  1  0  0  0  0
  2  5  1  1  0  0  0
  3  7  1  1  0  0  0
  5 15  1  0  0  0  0
  6  1  1  0  0  0  0
  7  4  1  0  0  0  0
  8 13  1  0  0  0  0
  8 12  2  0  0  0  0
 10 20  1  0  0  0  0
 11  4  1  0  0  0  0
 12 17  1  0  0  0  0
 13 19  1  6  0  0  0
 13  2  1  0  0  0  0
 14  8  1  0  0  0  0
 15  1  2  0  0  0  0
 16 11  1  0  0  0  0
 17  5  2  0  0  0  0
 17 18  1  0  0  0  0
 18  6  2  0  0  0  0
 19 10  1  0  0  0  0
 20 21  1  1  0  0  0
 20  3  1  0  0  0  0
 21 16  1  0  0  0  0
 23 22  1  1  0  0  0
 23 14  1  0  0  0  0
 24 27  1  6  0  0  0
 24 31  1  0  0  0  0
 25 30  1  0  0  0  0
 28 24  1  0  0  0  0
 28 25  1  0  0  0  0
 29 30  1  0  0  0  0
 29 26  2  0  0  0  0
 30 23  1  6  0  0  0
 31 29  1  0  0  0  0
M  END
>  <MODEL>
9

>  <REMARK>
 VINA RESULT:      -8.2      2.907      5.081
  Name = 
  2 active torsions:
  status: ('A' for Active; 'I' for Inactive)
    1  A    between atoms: C_9  and  C_22
    2  A    between atoms: C_9  and  N_23
                            x       y       z     vdW  Elec       q    Type
                         _______ _______ _______ _____ _____    ______ ____

>  <TORSDO>
F 2

$$$$
