=
 OpenBabel11052419023D

 34 37  0  0  1  0  0  0  0  0999 V2000
  192.6480  177.0820  145.3940 C   0  0  2  0  0  3  0  0  0  0  0  0
  186.8860  171.9160  141.5950 O   0  0  0  0  0  0  0  0  0  0  0  0
  190.5910  175.5000  145.2090 C   0  0  1  0  0  3  0  0  0  0  0  0
  189.5340  175.5380  142.8660 C   0  0  1  0  0  3  0  0  0  0  0  0
  189.7010  173.4090  144.1990 C   0  0  0  0  0  3  0  0  0  0  0  0
  187.8170  172.8710  139.7030 N   0  0  0  0  0  2  0  0  0  0  0  0
  192.1010  175.6470  145.4850 C   0  0  2  0  0  3  0  0  0  0  0  0
  188.9340  172.7920  143.2990 C   0  0  0  0  0  3  0  0  0  0  0  0
  189.2410  174.6730  141.6420 C   0  0  0  0  0  2  0  0  0  0  0  0
  189.8090  176.8250  145.3330 C   0  0  2  0  0  3  0  0  0  0  0  0
  191.9390  177.8470  144.2850 C   0  0  0  0  0  2  0  0  0  0  0  0
  188.2380  176.1390  143.4310 C   0  0  0  0  0  2  0  0  0  0  0  0
  188.3500  176.6010  144.8990 C   0  0  2  0  0  3  0  0  0  0  0  0
  188.6490  173.3840  142.0200 N   0  0  0  0  0  0  0  0  0  0  0  0
  190.3420  174.7330  143.9020 C   0  0  2  0  0  3  0  0  0  0  0  0
  190.4520  178.0220  144.5970 C   0  0  0  0  0  2  0  0  0  0  0  0
  187.7560  172.6970  141.1250 C   0  0  0  0  0  0  0  0  0  0  0  0
  185.1880  178.5080  144.4550 C   0  0  0  0  0  0  0  0  0  0  0  0
  184.9070  178.9260  145.7630 O   0  0  0  0  0  0  0  0  0  0  0  0
  187.4410  177.8020  145.1960 C   0  0  1  0  0  3  0  0  0  0  0  0
  185.8910  178.8920  146.8000 C   0  0  0  0  0  2  0  0  0  0  0  0
  186.3580  177.9380  144.1580 C   0  0  0  0  0  3  0  0  0  0  0  0
  186.8260  177.7040  146.5960 C   0  0  0  0  0  2  0  0  0  0  0  0
  184.1530  178.6520  143.3980 C   0  0  0  0  0  1  0  0  0  0  0  0
  194.1230  177.0720  145.1580 C   0  0  0  0  0  0  0  0  0  0  0  0
  194.9410  177.9150  145.8960 O   0  0  0  0  0  1  0  0  0  0  0  0
  194.6300  176.3040  144.2970 O   0  0  0  0  0  0  0  0  0  0  0  0
  192.5200  174.9560  146.6430 O   0  0  0  0  0  0  0  0  0  0  0  0
  191.6620  175.2910  147.7030 C   0  0  0  0  0  1  0  0  0  0  0  0
  188.9380  173.4640  138.9840 C   0  0  1  0  0  3  0  0  0  0  0  0
  189.9720  172.3960  138.6350 C   0  0  0  0  0  2  0  0  0  0  0  0
  191.0550  172.4480  139.5150 O   0  0  0  0  0  1  0  0  0  0  0  0
  188.4290  174.1650  137.7350 C   0  0  0  0  0  2  0  0  0  0  0  0
  189.6780  174.0890  136.4180 S   0  0  0  0  0  1  0  0  0  0  0  0
  1 25  1  6  0  0  0
  1  7  1  0  0  0  0
  3 10  1  0  0  0  0
  3  7  1  0  0  0  0
  4 12  1  0  0  0  0
  4 15  1  0  0  0  0
  6 17  1  0  0  0  0
  7 28  1  0  0  0  0
  8  5  2  0  0  0  0
  9 14  1  0  0  0  0
  9  4  1  0  0  0  0
 11 16  1  0  0  0  0
 11  1  1  0  0  0  0
 12 13  1  0  0  0  0
 13 20  1  0  0  0  0
 13 10  1  0  0  0  0
 14  8  1  0  0  0  0
 15  5  1  0  0  0  0
 15  3  1  0  0  0  0
 16 10  1  0  0  0  0
 17  2  2  0  0  0  0
 17 14  1  0  0  0  0
 18 19  1  0  0  0  0
 19 21  1  0  0  0  0
 20 23  1  0  0  0  0
 22 18  2  0  0  0  0
 22 20  1  0  0  0  0
 23 21  1  0  0  0  0
 24 18  1  0  0  0  0
 25 26  1  0  0  0  0
 27 25  2  0  0  0  0
 28 29  1  0  0  0  0
 30  6  1  0  0  0  0
 31 30  1  0  0  0  0
 31 32  1  0  0  0  0
 33 30  1  0  0  0  0
 34 33  1  0  0  0  0
M  END
>  <MODEL>
1

>  <REMARK>
 VINA RESULT:      -6.8      0.000      0.000
  Name = 
  6 active torsions:
  status: ('A' for Active; 'I' for Inactive)
    1  A    between atoms: C_1  and  C_6
    2  A    between atoms: O_2  and  C_15
    3  A    between atoms: C_11  and  CA_20
    4  A    between atoms: C_12  and  C_28
    5  A    between atoms: N_13  and  CA_20
    6  A    between atoms: CB_14  and  CA_20
                            x       y       z     vdW  Elec       q    Type
                         _______ _______ _______ _____ _____    ______ ____

>  <TORSDO>
F 6

$$$$
=
 OpenBabel11052419023D

 34 37  0  0  1  0  0  0  0  0999 V2000
  190.7530  176.4500  146.0100 C   0  0  2  0  0  3  0  0  0  0  0  0
  187.9070  172.0690  139.1530 O   0  0  0  0  0  0  0  0  0  0  0  0
  189.1170  175.0200  144.5810 C   0  0  1  0  0  3  0  0  0  0  0  0
  189.4570  175.3720  142.0570 C   0  0  1  0  0  3  0  0  0  0  0  0
  188.9090  173.1060  143.0060 C   0  0  0  0  0  3  0  0  0  0  0  0
  189.6900  173.1660  138.1640 N   0  0  0  0  0  2  0  0  0  0  0  0
  190.2510  175.0480  145.6240 C   0  0  2  0  0  3  0  0  0  0  0  0
  188.7380  172.6360  141.7700 C   0  0  0  0  0  3  0  0  0  0  0  0
  189.8620  174.6630  140.7660 C   0  0  0  0  0  2  0  0  0  0  0  0
  188.3770  176.3680  144.4360 C   0  0  2  0  0  3  0  0  0  0  0  0
  190.7330  177.3700  144.7970 C   0  0  0  0  0  2  0  0  0  0  0  0
  188.0540  175.9840  141.9260 C   0  0  0  0  0  2  0  0  0  0  0  0
  187.3700  176.2780  143.2770 C   0  0  2  0  0  3  0  0  0  0  0  0
  189.1680  173.3770  140.6160 N   0  0  0  0  0  0  0  0  0  0  0  0
  189.6010  174.4150  143.2540 C   0  0  2  0  0  3  0  0  0  0  0  0
  189.3030  177.5970  144.3000 C   0  0  0  0  0  2  0  0  0  0  0  0
  188.8880  172.8450  139.3090 C   0  0  0  0  0  0  0  0  0  0  0  0
  184.5400  178.1370  141.7400 C   0  0  0  0  0  0  0  0  0  0  0  0
  183.8670  178.6380  142.8640 O   0  0  0  0  0  0  0  0  0  0  0  0
  186.4330  177.4910  143.1970 C   0  0  1  0  0  3  0  0  0  0  0  0
  184.4730  178.6740  144.1590 C   0  0  0  0  0  2  0  0  0  0  0  0
  185.7350  177.5550  141.8640 C   0  0  0  0  0  3  0  0  0  0  0  0
  185.4070  177.4800  144.3340 C   0  0  0  0  0  2  0  0  0  0  0  0
  183.8930  178.2090  140.4040 C   0  0  0  0  0  1  0  0  0  0  0  0
  192.1310  176.3790  146.5840 C   0  0  0  0  0  0  0  0  0  0  0  0
  193.1630  175.8460  145.8260 O   0  0  0  0  0  0  0  0  0  0  0  0
  192.3640  176.8010  147.7490 O   0  0  0  0  0  1  0  0  0  0  0  0
  190.0000  174.2130  146.7340 O   0  0  0  0  0  0  0  0  0  0  0  0
  188.9210  174.7420  147.4610 C   0  0  0  0  0  1  0  0  0  0  0  0
  191.0170  173.7660  138.2210 C   0  0  1  0  0  3  0  0  0  0  0  0
  192.0610  172.7170  138.5970 C   0  0  0  0  0  2  0  0  0  0  0  0
  192.2530  171.8110  137.5520 O   0  0  0  0  0  1  0  0  0  0  0  0
  191.3430  174.4100  136.8830 C   0  0  0  0  0  2  0  0  0  0  0  0
  189.8830  174.3890  135.8020 S   0  0  0  0  0  1  0  0  0  0  0  0
  1 25  1  6  0  0  0
  2 17  2  0  0  0  0
  3  7  1  0  0  0  0
  4 15  1  0  0  0  0
  5 15  1  0  0  0  0
  6 30  1  0  0  0  0
  6 17  1  0  0  0  0
  7  1  1  0  0  0  0
  7 28  1  0  0  0  0
  8  5  2  0  0  0  0
  9  4  1  0  0  0  0
 10  3  1  0  0  0  0
 11  1  1  0  0  0  0
 12  4  1  0  0  0  0
 12 13  1  0  0  0  0
 13 10  1  0  0  0  0
 14  9  1  0  0  0  0
 14  8  1  0  0  0  0
 15  3  1  0  0  0  0
 16 10  1  0  0  0  0
 16 11  1  0  0  0  0
 17 14  1  0  0  0  0
 18 22  2  0  0  0  0
 18 19  1  0  0  0  0
 19 21  1  0  0  0  0
 20 13  1  0  0  0  0
 20 23  1  0  0  0  0
 21 23  1  0  0  0  0
 22 20  1  0  0  0  0
 24 18  1  0  0  0  0
 25 27  1  0  0  0  0
 26 25  2  0  0  0  0
 28 29  1  0  0  0  0
 30 31  1  0  0  0  0
 32 31  1  0  0  0  0
 33 30  1  0  0  0  0
 34 33  1  0  0  0  0
M  END
>  <MODEL>
2

>  <REMARK>
 VINA RESULT:      -6.8      1.768      2.273
  Name = 
  6 active torsions:
  status: ('A' for Active; 'I' for Inactive)
    1  A    between atoms: C_1  and  C_6
    2  A    between atoms: O_2  and  C_15
    3  A    between atoms: C_11  and  CA_20
    4  A    between atoms: C_12  and  C_28
    5  A    between atoms: N_13  and  CA_20
    6  A    between atoms: CB_14  and  CA_20
                            x       y       z     vdW  Elec       q    Type
                         _______ _______ _______ _____ _____    ______ ____

>  <TORSDO>
F 6

$$$$
=
 OpenBabel11052419023D

 34 37  0  0  1  0  0  0  0  0999 V2000
  190.3700  176.4220  146.0170 C   0  0  2  0  0  3  0  0  0  0  0  0
  189.6720  171.2130  139.1830 O   0  0  0  0  0  0  0  0  0  0  0  0
  189.3280  174.6030  144.4770 C   0  0  1  0  0  3  0  0  0  0  0  0
  189.9960  174.9060  142.0130 C   0  0  1  0  0  3  0  0  0  0  0  0
  189.7880  172.6200  143.0480 C   0  0  0  0  0  3  0  0  0  0  0  0
  191.3220  172.6300  138.3900 N   0  0  0  0  0  2  0  0  0  0  0  0
  190.2440  174.9270  145.6740 C   0  0  2  0  0  3  0  0  0  0  0  0
  189.9250  172.0680  141.8420 C   0  0  0  0  0  3  0  0  0  0  0  0
  190.7470  174.2450  140.8590 C   0  0  0  0  0  2  0  0  0  0  0  0
  188.3560  175.7470  144.1160 C   0  0  2  0  0  3  0  0  0  0  0  0
  190.3560  177.2580  144.7450 C   0  0  0  0  0  2  0  0  0  0  0  0
  188.5360  175.1870  141.6240 C   0  0  0  0  0  2  0  0  0  0  0  0
  187.5940  175.3850  142.8300 C   0  0  2  0  0  3  0  0  0  0  0  0
  190.3730  172.8320  140.7100 N   0  0  0  0  0  0  0  0  0  0  0  0
  190.1390  174.0590  143.2920 C   0  0  2  0  0  3  0  0  0  0  0  0
  189.0120  177.1420  144.0230 C   0  0  0  0  0  2  0  0  0  0  0  0
  190.4300  172.1920  139.4220 C   0  0  0  0  0  0  0  0  0  0  0  0
  185.2210  178.0810  143.7940 C   0  0  0  0  0  0  0  0  0  0  0  0
  185.2360  178.9080  142.6620 O   0  0  0  0  0  0  0  0  0  0  0  0
  186.4490  176.3570  142.5120 C   0  0  1  0  0  3  0  0  0  0  0  0
  185.7590  178.4700  141.4070 C   0  0  0  0  0  2  0  0  0  0  0  0
  185.8160  176.8860  143.7730 C   0  0  0  0  0  3  0  0  0  0  0  0
  186.9280  177.5150  141.6310 C   0  0  0  0  0  2  0  0  0  0  0  0
  184.5810  178.5590  145.0470 C   0  0  0  0  0  1  0  0  0  0  0  0
  191.6180  176.6820  146.7960 C   0  0  0  0  0  0  0  0  0  0  0  0
  191.5350  176.9490  148.1550 O   0  0  0  0  0  1  0  0  0  0  0  0
  192.7450  176.6590  146.2310 O   0  0  0  0  0  0  0  0  0  0  0  0
  189.9950  174.1090  146.7970 O   0  0  0  0  0  0  0  0  0  0  0  0
  188.8920  174.6260  147.4960 C   0  0  0  0  0  1  0  0  0  0  0  0
  192.4660  173.5090  138.5960 C   0  0  1  0  0  3  0  0  0  0  0  0
  193.7050  172.6950  138.9640 C   0  0  0  0  0  2  0  0  0  0  0  0
  194.3730  173.2700  140.0470 O   0  0  0  0  0  1  0  0  0  0  0  0
  192.7050  174.3380  137.3450 C   0  0  0  0  0  2  0  0  0  0  0  0
  191.1820  174.4470  136.3610 S   0  0  0  0  0  1  0  0  0  0  0  0
  1 25  1  6  0  0  0
  2 17  2  0  0  0  0
  3  7  1  0  0  0  0
  4 15  1  0  0  0  0
  5 15  1  0  0  0  0
  6 30  1  0  0  0  0
  6 17  1  0  0  0  0
  7  1  1  0  0  0  0
  7 28  1  0  0  0  0
  8  5  2  0  0  0  0
  9  4  1  0  0  0  0
 10  3  1  0  0  0  0
 11  1  1  0  0  0  0
 12  4  1  0  0  0  0
 12 13  1  0  0  0  0
 13 10  1  0  0  0  0
 14  9  1  0  0  0  0
 14  8  1  0  0  0  0
 15  3  1  0  0  0  0
 16 10  1  0  0  0  0
 16 11  1  0  0  0  0
 17 14  1  0  0  0  0
 18 24  1  0  0  0  0
 19 18  1  0  0  0  0
 20 13  1  0  0  0  0
 20 22  1  0  0  0  0
 21 23  1  0  0  0  0
 21 19  1  0  0  0  0
 22 18  2  0  0  0  0
 23 20  1  0  0  0  0
 25 26  1  0  0  0  0
 27 25  2  0  0  0  0
 28 29  1  0  0  0  0
 30 31  1  0  0  0  0
 31 32  1  0  0  0  0
 33 30  1  0  0  0  0
 34 33  1  0  0  0  0
M  END
>  <MODEL>
3

>  <REMARK>
 VINA RESULT:      -6.3      2.085      2.854
  Name = 
  6 active torsions:
  status: ('A' for Active; 'I' for Inactive)
    1  A    between atoms: C_1  and  C_6
    2  A    between atoms: O_2  and  C_15
    3  A    between atoms: C_11  and  CA_20
    4  A    between atoms: C_12  and  C_28
    5  A    between atoms: N_13  and  CA_20
    6  A    between atoms: CB_14  and  CA_20
                            x       y       z     vdW  Elec       q    Type
                         _______ _______ _______ _____ _____    ______ ____

>  <TORSDO>
F 6

$$$$
=
 OpenBabel11052419023D

 34 37  0  0  1  0  0  0  0  0999 V2000
  186.4750  177.9360  143.8260 C   0  0  2  0  0  3  0  0  0  0  0  0
  193.4270  173.2120  145.7460 O   0  0  0  0  0  0  0  0  0  0  0  0
  187.8670  175.7910  144.3070 C   0  0  1  0  0  3  0  0  0  0  0  0
  190.3560  176.0910  143.7390 C   0  0  1  0  0  3  0  0  0  0  0  0
  189.6160  174.7650  145.7470 C   0  0  0  0  0  3  0  0  0  0  0  0
  194.4760  175.2190  145.2660 N   0  0  0  0  0  2  0  0  0  0  0  0
  186.9610  176.9070  144.8630 C   0  0  2  0  0  3  0  0  0  0  0  0
  190.8710  174.3520  145.9290 C   0  0  0  0  0  3  0  0  0  0  0  0
  191.7560  176.1120  144.3480 C   0  0  0  0  0  2  0  0  0  0  0  0
  187.7730  175.6250  142.7750 C   0  0  2  0  0  3  0  0  0  0  0  0
  187.5650  178.2020  142.7970 C   0  0  0  0  0  2  0  0  0  0  0  0
  190.2590  175.0290  142.6320 C   0  0  0  0  0  2  0  0  0  0  0  0
  188.8140  174.5950  142.3060 C   0  0  2  0  0  3  0  0  0  0  0  0
  191.9740  174.9660  145.2410 N   0  0  0  0  0  0  0  0  0  0  0  0
  189.2990  175.9230  144.8460 C   0  0  2  0  0  3  0  0  0  0  0  0
  187.8700  176.9450  141.9790 C   0  0  0  0  0  2  0  0  0  0  0  0
  193.2940  174.4250  145.4280 C   0  0  0  0  0  0  0  0  0  0  0  0
  190.1790  173.3750  139.0690 C   0  0  0  0  0  0  0  0  0  0  0  0
  189.1790  172.4890  138.6410 O   0  0  0  0  0  0  0  0  0  0  0  0
  188.6500  174.1980  140.8330 C   0  0  1  0  0  3  0  0  0  0  0  0
  187.8700  172.4860  139.2130 C   0  0  0  0  0  2  0  0  0  0  0  0
  189.9790  174.1690  140.1230 C   0  0  0  0  0  3  0  0  0  0  0  0
  187.9440  172.8460  140.6940 C   0  0  0  0  0  2  0  0  0  0  0  0
  191.4920  173.3930  138.3750 C   0  0  0  0  0  1  0  0  0  0  0  0
  186.0710  179.2090  144.4940 C   0  0  0  0  0  0  0  0  0  0  0  0
  186.2590  179.3570  145.8610 O   0  0  0  0  0  1  0  0  0  0  0  0
  185.5620  180.1510  143.8280 O   0  0  0  0  0  0  0  0  0  0  0  0
  185.9320  176.4190  145.6970 O   0  0  0  0  0  0  0  0  0  0  0  0
  186.3900  176.4190  147.0250 C   0  0  0  0  0  1  0  0  0  0  0  0
  194.5010  176.6760  145.2240 C   0  0  1  0  0  3  0  0  0  0  0  0
  194.5660  177.2480  146.6380 C   0  0  0  0  0  2  0  0  0  0  0  0
  193.3210  177.1660  147.2650 O   0  0  0  0  0  1  0  0  0  0  0  0
  195.6810  177.1430  144.3870 C   0  0  0  0  0  2  0  0  0  0  0  0
  196.0690  175.9140  143.1070 S   0  0  0  0  0  1  0  0  0  0  0  0
  1 25  1  1  0  0  0
  1  7  1  0  0  0  0
  3 15  1  0  0  0  0
  3  7  1  0  0  0  0
  4  9  1  0  0  0  0
  4 15  1  0  0  0  0
  5  8  2  0  0  0  0
  6 17  1  0  0  0  0
  7 28  1  0  0  0  0
  9 14  1  0  0  0  0
 10  3  1  0  0  0  0
 11  1  1  0  0  0  0
 12  4  1  0  0  0  0
 13 12  1  0  0  0  0
 13 10  1  0  0  0  0
 14 17  1  0  0  0  0
 14  8  1  0  0  0  0
 15  5  1  0  0  0  0
 16 10  1  0  0  0  0
 16 11  1  0  0  0  0
 17  2  2  0  0  0  0
 18 22  2  0  0  0  0
 19 18  1  0  0  0  0
 19 21  1  0  0  0  0
 20 13  1  0  0  0  0
 21 23  1  0  0  0  0
 22 20  1  0  0  0  0
 23 20  1  0  0  0  0
 24 18  1  0  0  0  0
 25 26  1  0  0  0  0
 27 25  2  0  0  0  0
 28 29  1  0  0  0  0
 30  6  1  0  0  0  0
 30 31  1  0  0  0  0
 31 32  1  0  0  0  0
 33 30  1  0  0  0  0
 34 33  1  0  0  0  0
M  END
>  <MODEL>
4

>  <REMARK>
 VINA RESULT:      -6.0      2.787      7.130
  Name = 
  6 active torsions:
  status: ('A' for Active; 'I' for Inactive)
    1  A    between atoms: C_1  and  C_6
    2  A    between atoms: O_2  and  C_15
    3  A    between atoms: C_11  and  CA_20
    4  A    between atoms: C_12  and  C_28
    5  A    between atoms: N_13  and  CA_20
    6  A    between atoms: CB_14  and  CA_20
                            x       y       z     vdW  Elec       q    Type
                         _______ _______ _______ _____ _____    ______ ____

>  <TORSDO>
F 6

$$$$
=
 OpenBabel11052419023D

 34 37  0  0  1  0  0  0  0  0999 V2000
  190.5790  176.6540  146.5520 C   0  0  2  0  0  3  0  0  0  0  0  0
  190.0660  170.9250  140.1310 O   0  0  0  0  0  0  0  0  0  0  0  0
  189.4830  174.8900  144.9860 C   0  0  1  0  0  3  0  0  0  0  0  0
  190.6130  174.7920  142.6790 C   0  0  1  0  0  3  0  0  0  0  0  0
  189.7860  172.7100  143.8270 C   0  0  0  0  0  3  0  0  0  0  0  0
  192.0740  171.9270  139.5600 N   0  0  0  0  0  2  0  0  0  0  0  0
  190.2240  175.1770  146.3060 C   0  0  2  0  0  3  0  0  0  0  0  0
  190.0180  172.0110  142.7150 C   0  0  0  0  0  3  0  0  0  0  0  0
  191.4070  173.8840  141.7430 C   0  0  0  0  0  2  0  0  0  0  0  0
  188.8310  176.1410  144.3590 C   0  0  2  0  0  3  0  0  0  0  0  0
  190.9490  177.3330  145.2410 C   0  0  0  0  0  2  0  0  0  0  0  0
  189.3260  175.2840  141.9980 C   0  0  0  0  0  2  0  0  0  0  0  0
  188.2470  175.7800  142.9830 C   0  0  2  0  0  3  0  0  0  0  0  0
  190.7960  172.5530  141.6340 N   0  0  0  0  0  0  0  0  0  0  0  0
  190.3650  174.0810  144.0220 C   0  0  2  0  0  3  0  0  0  0  0  0
  189.7540  177.3780  144.2860 C   0  0  0  0  0  2  0  0  0  0  0  0
  190.9480  171.7730  140.4340 C   0  0  0  0  0  0  0  0  0  0  0  0
  186.3090  177.2780  140.1840 C   0  0  0  0  0  0  0  0  0  0  0  0
  185.1850  177.7940  140.8440 O   0  0  0  0  0  0  0  0  0  0  0  0
  187.3870  176.8990  142.3800 C   0  0  1  0  0  3  0  0  0  0  0  0
  185.1500  177.9710  142.2620 C   0  0  0  0  0  2  0  0  0  0  0  0
  187.3510  176.8110  140.8760 C   0  0  0  0  0  3  0  0  0  0  0  0
  185.9640  176.8770  142.9470 C   0  0  0  0  0  2  0  0  0  0  0  0
  186.3200  177.2010  138.7000 C   0  0  0  0  0  1  0  0  0  0  0  0
  191.7010  176.7730  147.5320 C   0  0  0  0  0  0  0  0  0  0  0  0
  192.9910  176.4460  147.1400 O   0  0  0  0  0  0  0  0  0  0  0  0
  191.4860  177.1690  148.7090 O   0  0  0  0  0  1  0  0  0  0  0  0
  189.6300  174.5460  147.4210 O   0  0  0  0  0  0  0  0  0  0  0  0
  188.3640  175.1130  147.6370 C   0  0  0  0  0  1  0  0  0  0  0  0
  193.3140  172.6060  139.9130 C   0  0  1  0  0  3  0  0  0  0  0  0
  194.3010  171.6220  140.5390 C   0  0  0  0  0  2  0  0  0  0  0  0
  195.4330  172.2890  141.0110 O   0  0  0  0  0  1  0  0  0  0  0  0
  193.9050  173.2650  138.6770 C   0  0  0  0  0  2  0  0  0  0  0  0
  193.2330  172.4990  137.1730 S   0  0  0  0  0  1  0  0  0  0  0  0
  1 25  1  1  0  0  0
  2 17  2  0  0  0  0
  3  7  1  0  0  0  0
  4 15  1  0  0  0  0
  5 15  1  0  0  0  0
  6 30  1  0  0  0  0
  6 17  1  0  0  0  0
  7  1  1  0  0  0  0
  7 28  1  0  0  0  0
  8  5  2  0  0  0  0
  9  4  1  0  0  0  0
 10  3  1  0  0  0  0
 11  1  1  0  0  0  0
 12  4  1  0  0  0  0
 12 13  1  0  0  0  0
 13 10  1  0  0  0  0
 14  9  1  0  0  0  0
 14  8  1  0  0  0  0
 15  3  1  0  0  0  0
 16 10  1  0  0  0  0
 16 11  1  0  0  0  0
 17 14  1  0  0  0  0
 18 19  1  0  0  0  0
 18 22  2  0  0  0  0
 19 21  1  0  0  0  0
 20 23  1  0  0  0  0
 20 13  1  0  0  0  0
 21 23  1  0  0  0  0
 22 20  1  0  0  0  0
 24 18  1  0  0  0  0
 25 27  1  0  0  0  0
 26 25  2  0  0  0  0
 28 29  1  0  0  0  0
 30 31  1  0  0  0  0
 31 32  1  0  0  0  0
 33 30  1  0  0  0  0
 34 33  1  0  0  0  0
M  END
>  <MODEL>
5

>  <REMARK>
 VINA RESULT:      -5.9      2.692      3.434
  Name = 
  6 active torsions:
  status: ('A' for Active; 'I' for Inactive)
    1  A    between atoms: C_1  and  C_6
    2  A    between atoms: O_2  and  C_15
    3  A    between atoms: C_11  and  CA_20
    4  A    between atoms: C_12  and  C_28
    5  A    between atoms: N_13  and  CA_20
    6  A    between atoms: CB_14  and  CA_20
                            x       y       z     vdW  Elec       q    Type
                         _______ _______ _______ _____ _____    ______ ____

>  <TORSDO>
F 6

$$$$
=
 OpenBabel11052419023D

 34 37  0  0  1  0  0  0  0  0999 V2000
  194.4390  174.8700  145.1900 C   0  0  2  0  0  3  0  0  0  0  0  0
  188.7860  171.9140  139.3920 O   0  0  0  0  0  0  0  0  0  0  0  0
  192.2530  173.7700  144.3070 C   0  0  1  0  0  3  0  0  0  0  0  0
  191.6330  174.5790  141.9470 C   0  0  1  0  0  3  0  0  0  0  0  0
  191.2800  172.1880  142.6530 C   0  0  0  0  0  3  0  0  0  0  0  0
  190.1490  173.1350  137.9750 N   0  0  0  0  0  2  0  0  0  0  0  0
  193.6980  173.5760  144.8090 C   0  0  2  0  0  3  0  0  0  0  0  0
  190.6050  171.9620  141.5250 C   0  0  0  0  0  3  0  0  0  0  0  0
  191.4440  174.1150  140.5050 C   0  0  0  0  0  2  0  0  0  0  0  0
  191.6460  175.1370  144.6870 C   0  0  2  0  0  3  0  0  0  0  0  0
  194.0430  176.0000  144.2510 C   0  0  0  0  0  2  0  0  0  0  0  0
  190.3510  175.2370  142.4810 C   0  0  0  0  0  2  0  0  0  0  0  0
  190.2680  175.2890  144.0210 C   0  0  2  0  0  3  0  0  0  0  0  0
  190.6280  172.8960  140.4320 N   0  0  0  0  0  0  0  0  0  0  0  0
  192.1340  173.4120  142.8180 C   0  0  2  0  0  3  0  0  0  0  0  0
  192.5600  176.3490  144.4000 C   0  0  0  0  0  2  0  0  0  0  0  0
  189.8200  172.6240  139.2730 C   0  0  0  0  0  0  0  0  0  0  0  0
  187.5490  177.8030  143.6760 C   0  0  0  0  0  0  0  0  0  0  0  0
  187.0710  177.9050  144.9910 O   0  0  0  0  0  0  0  0  0  0  0  0
  189.4900  176.5160  144.5150 C   0  0  1  0  0  3  0  0  0  0  0  0
  187.8120  177.4140  146.1100 C   0  0  0  0  0  2  0  0  0  0  0  0
  188.6660  177.1230  143.4090 C   0  0  0  0  0  3  0  0  0  0  0  0
  188.5990  176.1690  145.7110 C   0  0  0  0  0  2  0  0  0  0  0  0
  186.7770  178.4130  142.5640 C   0  0  0  0  0  1  0  0  0  0  0  0
  195.9180  174.6620  145.1560 C   0  0  0  0  0  0  0  0  0  0  0  0
  196.6440  175.0770  144.0480 O   0  0  0  0  0  0  0  0  0  0  0  0
  196.5130  174.1150  146.1230 O   0  0  0  0  0  1  0  0  0  0  0  0
  193.8140  172.5540  145.7770 O   0  0  0  0  0  0  0  0  0  0  0  0
  194.2010  171.3670  145.1340 C   0  0  0  0  0  1  0  0  0  0  0  0
  191.4470  173.6840  137.6010 C   0  0  1  0  0  3  0  0  0  0  0  0
  192.4180  172.5600  137.2440 C   0  0  0  0  0  2  0  0  0  0  0  0
  193.4410  172.4700  138.1900 O   0  0  0  0  0  1  0  0  0  0  0  0
  191.2770  174.6520  136.4420 C   0  0  0  0  0  2  0  0  0  0  0  0
  192.7720  175.6650  136.2430 S   0  0  0  0  0  1  0  0  0  0  0  0
  1 25  1  6  0  0  0
  3 10  1  0  0  0  0
  3  7  1  0  0  0  0
  4 12  1  0  0  0  0
  4 15  1  0  0  0  0
  5 15  1  0  0  0  0
  6 17  1  0  0  0  0
  7  1  1  0  0  0  0
  7 28  1  0  0  0  0
  8  5  2  0  0  0  0
  9  4  1  0  0  0  0
 11 16  1  0  0  0  0
 11  1  1  0  0  0  0
 12 13  1  0  0  0  0
 13 20  1  0  0  0  0
 13 10  1  0  0  0  0
 14  9  1  0  0  0  0
 14  8  1  0  0  0  0
 15  3  1  0  0  0  0
 16 10  1  0  0  0  0
 17  2  2  0  0  0  0
 17 14  1  0  0  0  0
 18 19  1  0  0  0  0
 19 21  1  0  0  0  0
 20 23  1  0  0  0  0
 22 18  2  0  0  0  0
 22 20  1  0  0  0  0
 23 21  1  0  0  0  0
 24 18  1  0  0  0  0
 25 27  1  0  0  0  0
 26 25  2  0  0  0  0
 29 28  1  0  0  0  0
 30  6  1  0  0  0  0
 31 30  1  0  0  0  0
 31 32  1  0  0  0  0
 33 30  1  0  0  0  0
 34 33  1  0  0  0  0
M  END
>  <MODEL>
6

>  <REMARK>
 VINA RESULT:      -5.9      2.362      2.884
  Name = 
  6 active torsions:
  status: ('A' for Active; 'I' for Inactive)
    1  A    between atoms: C_1  and  C_6
    2  A    between atoms: O_2  and  C_15
    3  A    between atoms: C_11  and  CA_20
    4  A    between atoms: C_12  and  C_28
    5  A    between atoms: N_13  and  CA_20
    6  A    between atoms: CB_14  and  CA_20
                            x       y       z     vdW  Elec       q    Type
                         _______ _______ _______ _____ _____    ______ ____

>  <TORSDO>
F 6

$$$$
=
 OpenBabel11052419023D

 34 37  0  0  1  0  0  0  0  0999 V2000
  190.2960  171.8600  139.7210 C   0  0  2  0  0  3  0  0  0  0  0  0
  196.0410  176.7780  143.8600 O   0  0  0  0  0  0  0  0  0  0  0  0
  191.4060  174.0460  140.5910 C   0  0  1  0  0  3  0  0  0  0  0  0
  192.7440  173.6710  142.7540 C   0  0  1  0  0  3  0  0  0  0  0  0
  193.5530  175.2450  140.9630 C   0  0  0  0  0  3  0  0  0  0  0  0
  196.6040  174.7240  144.7680 N   0  0  0  0  0  2  0  0  0  0  0  0
  191.2810  173.0120  139.4550 C   0  0  2  0  0  3  0  0  0  0  0  0
  194.5120  175.6760  141.7840 C   0  0  0  0  0  3  0  0  0  0  0  0
  194.1490  173.7270  143.3480 C   0  0  0  0  0  2  0  0  0  0  0  0
  190.2260  174.0150  141.5870 C   0  0  2  0  0  3  0  0  0  0  0  0
  190.3340  171.4630  141.1900 C   0  0  0  0  0  2  0  0  0  0  0  0
  191.7850  174.5830  143.5370 C   0  0  0  0  0  2  0  0  0  0  0  0
  190.5150  174.9750  142.7540 C   0  0  2  0  0  3  0  0  0  0  0  0
  194.8360  174.9760  142.9980 N   0  0  0  0  0  0  0  0  0  0  0  0
  192.7940  173.9820  141.2470 C   0  0  2  0  0  3  0  0  0  0  0  0
  189.8420  172.6030  142.0840 C   0  0  0  0  0  2  0  0  0  0  0  0
  195.8320  175.5350  143.8720 C   0  0  0  0  0  0  0  0  0  0  0  0
  188.9980  175.3440  146.1290 C   0  0  0  0  0  0  0  0  0  0  0  0
  188.0660  176.3720  145.9250 O   0  0  0  0  0  0  0  0  0  0  0  0
  189.3080  175.1800  143.6790 C   0  0  1  0  0  3  0  0  0  0  0  0
  187.6520  176.7740  144.6180 C   0  0  0  0  0  2  0  0  0  0  0  0
  189.6320  174.7840  145.0960 C   0  0  0  0  0  3  0  0  0  0  0  0
  188.8080  176.6270  143.6330 C   0  0  0  0  0  2  0  0  0  0  0  0
  189.3220  174.9090  147.5120 C   0  0  0  0  0  1  0  0  0  0  0  0
  190.6120  170.6830  138.8570 C   0  0  0  0  0  0  0  0  0  0  0  0
  191.9330  170.2970  138.6810 O   0  0  0  0  0  1  0  0  0  0  0  0
  189.6910  170.0370  138.2880 O   0  0  0  0  0  0  0  0  0  0  0  0
  191.1250  173.6050  138.1830 O   0  0  0  0  0  0  0  0  0  0  0  0
  192.3920  173.7500  137.5950 C   0  0  0  0  0  1  0  0  0  0  0  0
  196.7250  173.2740  144.6830 C   0  0  1  0  0  3  0  0  0  0  0  0
  197.9410  172.8880  143.8450 C   0  0  0  0  0  2  0  0  0  0  0  0
  197.5730  172.6400  142.5210 O   0  0  0  0  0  1  0  0  0  0  0  0
  196.8130  172.6870  146.0820 C   0  0  0  0  0  2  0  0  0  0  0  0
  196.7770  170.8720  146.0070 S   0  0  0  0  0  1  0  0  0  0  0  0
  1 25  1  6  0  0  0
  1 11  1  0  0  0  0
  2 17  2  0  0  0  0
  3 15  1  0  0  0  0
  3 10  1  0  0  0  0
  4  9  1  0  0  0  0
  4 12  1  0  0  0  0
  5 15  1  0  0  0  0
  5  8  2  0  0  0  0
  7  1  1  0  0  0  0
  7  3  1  0  0  0  0
  8 14  1  0  0  0  0
 10 16  1  0  0  0  0
 10 13  1  0  0  0  0
 11 16  1  0  0  0  0
 13 12  1  0  0  0  0
 13 20  1  0  0  0  0
 14  9  1  0  0  0  0
 14 17  1  0  0  0  0
 15  4  1  0  0  0  0
 17  6  1  0  0  0  0
 18 24  1  0  0  0  0
 19 18  1  0  0  0  0
 20 22  1  0  0  0  0
 21 19  1  0  0  0  0
 22 18  2  0  0  0  0
 23 20  1  0  0  0  0
 23 21  1  0  0  0  0
 26 25  1  0  0  0  0
 27 25  2  0  0  0  0
 28  7  1  0  0  0  0
 29 28  1  0  0  0  0
 30  6  1  0  0  0  0
 30 33  1  0  0  0  0
 31 30  1  0  0  0  0
 32 31  1  0  0  0  0
 34 33  1  0  0  0  0
M  END
>  <MODEL>
7

>  <REMARK>
 VINA RESULT:      -5.8      3.970      7.520
  Name = 
  6 active torsions:
  status: ('A' for Active; 'I' for Inactive)
    1  A    between atoms: C_1  and  C_6
    2  A    between atoms: O_2  and  C_15
    3  A    between atoms: C_11  and  CA_20
    4  A    between atoms: C_12  and  C_28
    5  A    between atoms: N_13  and  CA_20
    6  A    between atoms: CB_14  and  CA_20
                            x       y       z     vdW  Elec       q    Type
                         _______ _______ _______ _____ _____    ______ ____

>  <TORSDO>
F 6

$$$$
=
 OpenBabel11052419023D

 34 37  0  0  1  0  0  0  0  0999 V2000
  192.8560  176.4830  145.3400 C   0  0  2  0  0  3  0  0  0  0  0  0
  189.7510  171.0340  139.4240 O   0  0  0  0  0  0  0  0  0  0  0  0
  191.4170  174.5390  144.3820 C   0  0  1  0  0  3  0  0  0  0  0  0
  190.9340  174.8230  141.8720 C   0  0  1  0  0  3  0  0  0  0  0  0
  191.3910  172.5590  142.8760 C   0  0  0  0  0  3  0  0  0  0  0  0
  190.7700  172.5590  138.0110 N   0  0  0  0  0  2  0  0  0  0  0  0
  192.7260  174.9730  145.0710 C   0  0  2  0  0  3  0  0  0  0  0  0
  191.0450  171.9850  141.7240 C   0  0  0  0  0  3  0  0  0  0  0  0
  191.1710  174.1930  140.5020 C   0  0  0  0  0  2  0  0  0  0  0  0
  190.2880  175.5870  144.4840 C   0  0  2  0  0  3  0  0  0  0  0  0
  192.2250  177.2770  144.2050 C   0  0  0  0  0  2  0  0  0  0  0  0
  189.4300  174.9700  142.1520 C   0  0  0  0  0  2  0  0  0  0  0  0
  189.0830  175.1260  143.6470 C   0  0  2  0  0  3  0  0  0  0  0  0
  190.8950  172.7500  140.5150 N   0  0  0  0  0  0  0  0  0  0  0  0
  191.6860  174.0290  142.9580 C   0  0  2  0  0  3  0  0  0  0  0  0
  190.7170  177.0290  144.1300 C   0  0  0  0  0  2  0  0  0  0  0  0
  190.4490  172.0790  139.3230 C   0  0  0  0  0  0  0  0  0  0  0  0
  187.0680  177.5380  145.6340 C   0  0  0  0  0  0  0  0  0  0  0  0
  186.5780  178.4020  144.6440 O   0  0  0  0  0  0  0  0  0  0  0  0
  187.8330  175.9900  143.8620 C   0  0  1  0  0  3  0  0  0  0  0  0
  186.6060  178.0610  143.2560 C   0  0  0  0  0  2  0  0  0  0  0  0
  187.6990  176.4100  145.3020 C   0  0  0  0  0  3  0  0  0  0  0  0
  187.8400  177.2190  142.9480 C   0  0  0  0  0  2  0  0  0  0  0  0
  186.9290  177.9070  147.0670 C   0  0  0  0  0  1  0  0  0  0  0  0
  194.2900  176.8680  145.5090 C   0  0  0  0  0  0  0  0  0  0  0  0
  195.2020  176.5710  144.5060 O   0  0  0  0  0  0  0  0  0  0  0  0
  194.6770  177.4620  146.5500 O   0  0  0  0  0  1  0  0  0  0  0  0
  193.0560  174.1710  146.1850 O   0  0  0  0  0  0  0  0  0  0  0  0
  193.9350  173.1590  145.7660 C   0  0  0  0  0  1  0  0  0  0  0  0
  191.8110  173.5350  137.7130 C   0  0  1  0  0  3  0  0  0  0  0  0
  193.1500  172.8360  137.4920 C   0  0  0  0  0  2  0  0  0  0  0  0
  194.0830  173.2380  138.4510 O   0  0  0  0  0  1  0  0  0  0  0  0
  191.4100  174.3530  136.4960 C   0  0  0  0  0  2  0  0  0  0  0  0
  189.6110  174.2810  136.2540 S   0  0  0  0  0  1  0  0  0  0  0  0
  1 25  1  6  0  0  0
  3 10  1  0  0  0  0
  3  7  1  0  0  0  0
  4 12  1  0  0  0  0
  4 15  1  0  0  0  0
  5 15  1  0  0  0  0
  6 17  1  0  0  0  0
  7  1  1  0  0  0  0
  7 28  1  0  0  0  0
  8  5  2  0  0  0  0
  9 14  1  0  0  0  0
  9  4  1  0  0  0  0
 11  1  1  0  0  0  0
 12 13  1  0  0  0  0
 13 20  1  0  0  0  0
 13 10  1  0  0  0  0
 14  8  1  0  0  0  0
 15  3  1  0  0  0  0
 16 11  1  0  0  0  0
 16 10  1  0  0  0  0
 17  2  2  0  0  0  0
 17 14  1  0  0  0  0
 18 24  1  0  0  0  0
 19 18  1  0  0  0  0
 20 22  1  0  0  0  0
 21 19  1  0  0  0  0
 22 18  2  0  0  0  0
 23 21  1  0  0  0  0
 23 20  1  0  0  0  0
 25 27  1  0  0  0  0
 26 25  2  0  0  0  0
 29 28  1  0  0  0  0
 30  6  1  0  0  0  0
 31 30  1  0  0  0  0
 31 32  1  0  0  0  0
 33 30  1  0  0  0  0
 34 33  1  0  0  0  0
M  END
>  <MODEL>
8

>  <REMARK>
 VINA RESULT:      -5.8      1.830      2.568
  Name = 
  6 active torsions:
  status: ('A' for Active; 'I' for Inactive)
    1  A    between atoms: C_1  and  C_6
    2  A    between atoms: O_2  and  C_15
    3  A    between atoms: C_11  and  CA_20
    4  A    between atoms: C_12  and  C_28
    5  A    between atoms: N_13  and  CA_20
    6  A    between atoms: CB_14  and  CA_20
                            x       y       z     vdW  Elec       q    Type
                         _______ _______ _______ _____ _____    ______ ____

>  <TORSDO>
F 6

$$$$
=
 OpenBabel11052419023D

 34 37  0  0  1  0  0  0  0  0999 V2000
  192.7840  176.7960  145.4370 C   0  0  2  0  0  3  0  0  0  0  0  0
  189.6920  170.7250  140.1550 O   0  0  0  0  0  0  0  0  0  0  0  0
  191.1880  174.9170  144.6080 C   0  0  1  0  0  3  0  0  0  0  0  0
  191.1380  174.7360  142.0430 C   0  0  1  0  0  3  0  0  0  0  0  0
  191.0430  172.6910  143.5080 C   0  0  0  0  0  3  0  0  0  0  0  0
  191.1570  171.7620  138.6930 N   0  0  0  0  0  2  0  0  0  0  0  0
  192.4360  175.2970  145.4290 C   0  0  2  0  0  3  0  0  0  0  0  0
  190.7760  171.9430  142.4370 C   0  0  0  0  0  3  0  0  0  0  0  0
  191.4630  173.8070  140.8760 C   0  0  0  0  0  2  0  0  0  0  0  0
  190.2560  176.1120  144.3130 C   0  0  2  0  0  3  0  0  0  0  0  0
  192.4750  177.4170  144.0820 C   0  0  0  0  0  2  0  0  0  0  0  0
  189.6580  175.1490  142.0160 C   0  0  0  0  0  2  0  0  0  0  0  0
  189.1260  175.6600  143.3720 C   0  0  2  0  0  3  0  0  0  0  0  0
  190.9410  172.4530  141.1020 N   0  0  0  0  0  0  0  0  0  0  0  0
  191.5720  174.0890  143.3720 C   0  0  2  0  0  3  0  0  0  0  0  0
  190.9750  177.3730  143.7840 C   0  0  0  0  0  2  0  0  0  0  0  0
  190.5670  171.6170  139.9920 C   0  0  0  0  0  0  0  0  0  0  0  0
  186.4700  177.3280  141.3730 C   0  0  0  0  0  0  0  0  0  0  0  0
  185.4560  177.5150  142.3240 O   0  0  0  0  0  0  0  0  0  0  0  0
  188.0260  176.7170  143.1970 C   0  0  1  0  0  3  0  0  0  0  0  0
  185.7020  177.4080  143.7280 C   0  0  0  0  0  2  0  0  0  0  0  0
  187.6840  176.9150  141.7440 C   0  0  0  0  0  3  0  0  0  0  0  0
  186.7700  176.3520  143.9950 C   0  0  0  0  0  2  0  0  0  0  0  0
  186.1750  177.5410  139.9330 C   0  0  0  0  0  1  0  0  0  0  0  0
  194.2220  177.0030  145.7870 C   0  0  0  0  0  0  0  0  0  0  0  0
  195.2080  176.6180  144.8890 O   0  0  0  0  0  0  0  0  0  0  0  0
  194.5470  177.5250  146.8870 O   0  0  0  0  0  1  0  0  0  0  0  0
  192.4540  174.7070  146.7110 O   0  0  0  0  0  0  0  0  0  0  0  0
  191.4780  175.3290  147.5070 C   0  0  0  0  0  1  0  0  0  0  0  0
  192.3840  172.4990  138.4140 C   0  0  1  0  0  3  0  0  0  0  0  0
  193.5920  171.5680  138.4810 C   0  0  0  0  0  2  0  0  0  0  0  0
  193.2450  170.2760  138.0810 O   0  0  0  0  0  1  0  0  0  0  0  0
  192.2790  173.1670  137.0530 C   0  0  0  0  0  2  0  0  0  0  0  0
  190.5410  173.5130  136.6540 S   0  0  0  0  0  1  0  0  0  0  0  0
  1 25  1  6  0  0  0
  3  7  1  0  0  0  0
  4 15  1  0  0  0  0
  6 17  1  0  0  0  0
  7  1  1  0  0  0  0
  7 28  1  0  0  0  0
  8  5  2  0  0  0  0
  9 14  1  0  0  0  0
  9  4  1  0  0  0  0
 10  3  1  0  0  0  0
 11  1  1  0  0  0  0
 12  4  1  0  0  0  0
 12 13  1  0  0  0  0
 13 10  1  0  0  0  0
 14  8  1  0  0  0  0
 15  5  1  0  0  0  0
 15  3  1  0  0  0  0
 16 11  1  0  0  0  0
 16 10  1  0  0  0  0
 17  2  2  0  0  0  0
 17 14  1  0  0  0  0
 18 22  2  0  0  0  0
 18 19  1  0  0  0  0
 19 21  1  0  0  0  0
 20 13  1  0  0  0  0
 20 23  1  0  0  0  0
 21 23  1  0  0  0  0
 22 20  1  0  0  0  0
 24 18  1  0  0  0  0
 25 27  1  0  0  0  0
 26 25  2  0  0  0  0
 28 29  1  0  0  0  0
 30 31  1  0  0  0  0
 30  6  1  0  0  0  0
 32 31  1  0  0  0  0
 33 30  1  0  0  0  0
 34 33  1  0  0  0  0
M  END
>  <MODEL>
9

>  <REMARK>
 VINA RESULT:      -5.8      2.062      2.554
  Name = 
  6 active torsions:
  status: ('A' for Active; 'I' for Inactive)
    1  A    between atoms: C_1  and  C_6
    2  A    between atoms: O_2  and  C_15
    3  A    between atoms: C_11  and  CA_20
    4  A    between atoms: C_12  and  C_28
    5  A    between atoms: N_13  and  CA_20
    6  A    between atoms: CB_14  and  CA_20
                            x       y       z     vdW  Elec       q    Type
                         _______ _______ _______ _____ _____    ______ ____

>  <TORSDO>
F 6

$$$$
