=
 OpenBabel11052419083D

 32 36  0  0  1  0  0  0  0  0999 V2000
  190.4090  175.9580  143.2680 C   0  0  2  0  0  3  0  0  0  0  0  0
  192.6330  172.1730  142.1770 C   0  0  0  0  0  2  0  0  0  0  0  0
  191.5460  175.3270  144.0970 C   0  0  1  0  0  3  0  0  0  0  0  0
  191.6540  171.1410  143.8660 O   0  0  0  0  0  0  0  0  0  0  0  0
  191.5390  172.4760  144.1040 C   0  0  0  0  0  0  0  0  0  0  0  0
  191.1080  174.5540  145.3710 C   0  0  1  0  0  3  0  0  0  0  0  0
  191.0850  173.0490  145.2140 C   0  0  0  0  0  3  0  0  0  0  0  0
  192.0430  173.1940  143.0290 N   0  0  0  0  0  0  0  0  0  0  0  0
  192.2590  170.8870  142.6850 O   0  0  0  0  0  0  0  0  0  0  0  0
  192.5210  174.5560  143.1960 C   0  0  0  0  0  2  0  0  0  0  0  0
  191.9960  174.9210  146.5510 C   0  0  0  0  0  2  0  0  0  0  0  0
  191.1680  175.3210  147.7620 C   0  0  0  0  0  2  0  0  0  0  0  0
  191.2000  176.8250  147.9560 C   0  0  0  0  0  1  0  0  0  0  0  0
  190.4950  177.5010  143.1790 C   0  0  0  0  0  0  0  0  0  0  0  0
  190.2590  178.1410  144.5350 C   0  0  0  0  0  1  0  0  0  0  0  0
  189.4880  178.0540  142.1860 C   0  0  0  0  0  1  0  0  0  0  0  0
  191.8730  177.9150  142.6920 C   0  0  0  0  0  1  0  0  0  0  0  0
  188.4280  174.6630  142.2300 N   0  0  0  0  0  0  0  0  0  0  0  0
  188.9550  173.9740  143.3130 O   0  0  0  0  0  0  0  0  0  0  0  0
  188.9850  175.3300  143.4000 C   0  0  1  0  0  0  0  0  0  0  0  0
  185.7740  177.0150  144.6570 C   0  0  0  0  0  3  0  0  0  0  0  0
  187.1740  176.4570  146.5450 C   0  0  0  0  0  3  0  0  0  0  0  0
  187.9160  175.9170  144.2920 C   0  0  0  0  0  0  0  0  0  0  0  0
  185.9940  177.0130  146.0400 C   0  0  0  0  0  0  0  0  0  0  0  0
  188.1280  175.9240  145.6770 C   0  0  0  0  0  3  0  0  0  0  0  0
  186.7280  176.4880  143.7830 C   0  0  0  0  0  0  0  0  0  0  0  0
  186.4900  176.5580  142.4170 O   0  0  0  0  0  1  0  0  0  0  0  0
  184.9430  177.5320  146.9730 C   0  0  0  0  0  3  0  0  0  0  0  0
  184.1400  178.6390  146.3080 C   0  0  0  0  0  2  0  0  0  0  0  0
  185.2090  178.9890  147.3160 C   0  0  0  0  0  2  0  0  0  0  0  0
  189.3880  174.4880  141.1460 C   0  0  0  0  0  2  0  0  0  0  0  0
  188.7050  174.3730  139.9350 O   0  0  0  0  0  1  0  0  0  0  0  0
  1 14  1  1  0  0  0
  2  9  1  0  0  0  0
  2  8  1  0  0  0  0
  3  1  1  6  0  0  0
  3  6  1  0  0  0  0
  4  5  1  0  0  0  0
  5  7  2  0  0  0  0
  6 11  1  1  0  0  0
  7  6  1  0  0  0  0
  8 10  1  0  0  0  0
  8  5  1  0  0  0  0
  9  4  1  0  0  0  0
 10  3  1  0  0  0  0
 11 12  1  0  0  0  0
 12 13  1  0  0  0  0
 14 15  1  0  0  0  0
 16 14  1  0  0  0  0
 17 14  1  0  0  0  0
 18 19  1  0  0  0  0
 18 20  1  0  0  0  0
 19 20  1  0  0  0  0
 20  1  1  6  0  0  0
 20 23  1  0  0  0  0
 21 24  1  0  0  0  0
 23 25  2  0  0  0  0
 24 22  2  0  0  0  0
 24 28  1  0  0  0  0
 25 22  1  0  0  0  0
 26 23  1  0  0  0  0
 26 21  2  0  0  0  0
 27 26  1  0  0  0  0
 28 30  1  0  0  0  0
 29 28  1  0  0  0  0
 29 30  1  0  0  0  0
 31 18  1  0  0  0  0
 32 31  1  0  0  0  0
M  END
>  <MODEL>
1

>  <REMARK>
 VINA RESULT:      -6.6      0.000      0.000
  Name = 
  8 active torsions:
  status: ('A' for Active; 'I' for Inactive)
    1  A    between atoms: N_1  and  C_4
    2  A    between atoms: C_2  and  C_5
    3  A    between atoms: C_5  and  C_10
    4  A    between atoms: C_5  and  C_27
    5  A    between atoms: C_6  and  C_13
    6  A    between atoms: C_6  and  C_25
    7  A    between atoms: C_7  and  C_19
    8  A    between atoms: C_16  and  C_27
                            x       y       z     vdW  Elec       q    Type
                         _______ _______ _______ _____ _____    ______ ____

>  <TORSDO>
F 8

$$$$
=
 OpenBabel11052419083D

 32 36  0  0  1  0  0  0  0  0999 V2000
  191.4820  174.6110  144.4340 C   0  0  2  0  0  3  0  0  0  0  0  0
  195.9940  174.9500  144.4370 C   0  0  0  0  0  2  0  0  0  0  0  0
  192.4070  174.1660  143.2820 C   0  0  1  0  0  3  0  0  0  0  0  0
  195.8510  176.5270  142.8990 O   0  0  0  0  0  0  0  0  0  0  0  0
  194.6660  175.8560  142.8820 C   0  0  0  0  0  0  0  0  0  0  0  0
  192.4610  175.1120  142.0530 C   0  0  1  0  0  3  0  0  0  0  0  0
  193.6840  176.0020  142.0000 C   0  0  0  0  0  3  0  0  0  0  0  0
  194.6440  174.9110  143.8970 N   0  0  0  0  0  0  0  0  0  0  0  0
  196.6820  176.0630  143.8580 O   0  0  0  0  0  0  0  0  0  0  0  0
  193.7840  173.7430  143.8140 C   0  0  0  0  0  2  0  0  0  0  0  0
  192.3660  174.3150  140.7600 C   0  0  0  0  0  2  0  0  0  0  0  0
  191.3130  173.2230  140.8600 C   0  0  0  0  0  2  0  0  0  0  0  0
  190.0460  173.6370  140.1360 C   0  0  0  0  0  1  0  0  0  0  0  0
  190.2820  173.6610  144.6630 C   0  0  0  0  0  0  0  0  0  0  0  0
  189.1790  173.9220  143.6530 C   0  0  0  0  0  1  0  0  0  0  0  0
  189.7180  173.8120  146.0650 C   0  0  0  0  0  1  0  0  0  0  0  0
  190.7290  172.2170  144.5150 C   0  0  0  0  0  1  0  0  0  0  0  0
  191.7410  176.7900  145.8000 N   0  0  0  0  0  0  0  0  0  0  0  0
  192.3410  176.9140  144.5540 O   0  0  0  0  0  0  0  0  0  0  0  0
  191.2230  176.1420  144.6020 C   0  0  1  0  0  0  0  0  0  0  0  0
  187.7690  177.7950  144.3510 C   0  0  0  0  0  3  0  0  0  0  0  0
  188.7690  177.7010  142.1540 C   0  0  0  0  0  3  0  0  0  0  0  0
  189.9810  176.8190  144.0700 C   0  0  0  0  0  0  0  0  0  0  0  0
  187.6950  178.0550  142.9770 C   0  0  0  0  0  0  0  0  0  0  0  0
  189.8950  177.0790  142.6960 C   0  0  0  0  0  3  0  0  0  0  0  0
  188.8910  177.1690  144.8990 C   0  0  0  0  0  0  0  0  0  0  0  0
  188.8990  176.8860  146.2570 O   0  0  0  0  0  1  0  0  0  0  0  0
  186.5100  178.7740  142.4070 C   0  0  0  0  0  3  0  0  0  0  0  0
  185.4420  178.9690  143.4710 C   0  0  0  0  0  2  0  0  0  0  0  0
  185.2810  177.8800  142.4360 C   0  0  0  0  0  2  0  0  0  0  0  0
  192.6290  175.9410  146.5850 C   0  0  0  0  0  2  0  0  0  0  0  0
  193.8340  176.6090  146.8050 O   0  0  0  0  0  1  0  0  0  0  0  0
  1 14  1  6  0  0  0
  3 10  1  0  0  0  0
  3  1  1  1  0  0  0
  4  9  1  0  0  0  0
  5  4  1  0  0  0  0
  5  8  1  0  0  0  0
  6 11  1  6  0  0  0
  6  3  1  0  0  0  0
  7  6  1  0  0  0  0
  7  5  2  0  0  0  0
  8  2  1  0  0  0  0
  9  2  1  0  0  0  0
 10  8  1  0  0  0  0
 11 12  1  0  0  0  0
 13 12  1  0  0  0  0
 14 16  1  0  0  0  0
 15 14  1  0  0  0  0
 17 14  1  0  0  0  0
 18 31  1  0  0  0  0
 19 20  1  0  0  0  0
 19 18  1  0  0  0  0
 20  1  1  6  0  0  0
 20 18  1  0  0  0  0
 21 26  1  0  0  0  0
 22 25  2  0  0  0  0
 22 24  1  0  0  0  0
 23 20  1  0  0  0  0
 23 26  2  0  0  0  0
 24 21  2  0  0  0  0
 25 23  1  0  0  0  0
 26 27  1  0  0  0  0
 28 30  1  0  0  0  0
 28 24  1  0  0  0  0
 28 29  1  0  0  0  0
 30 29  1  0  0  0  0
 31 32  1  0  0  0  0
M  END
>  <MODEL>
2

>  <REMARK>
 VINA RESULT:      -6.5      3.008      4.973
  Name = 
  8 active torsions:
  status: ('A' for Active; 'I' for Inactive)
    1  A    between atoms: N_1  and  C_4
    2  A    between atoms: C_2  and  C_5
    3  A    between atoms: C_5  and  C_10
    4  A    between atoms: C_5  and  C_27
    5  A    between atoms: C_6  and  C_13
    6  A    between atoms: C_6  and  C_25
    7  A    between atoms: C_7  and  C_19
    8  A    between atoms: C_16  and  C_27
                            x       y       z     vdW  Elec       q    Type
                         _______ _______ _______ _____ _____    ______ ____

>  <TORSDO>
F 8

$$$$
=
 OpenBabel11052419083D

 32 36  0  0  1  0  0  0  0  0999 V2000
  193.1680  174.8650  143.9750 C   0  0  2  0  0  3  0  0  0  0  0  0
  189.5720  177.4830  144.7970 C   0  0  0  0  0  2  0  0  0  0  0  0
  191.7010  174.4590  143.7300 C   0  0  1  0  0  3  0  0  0  0  0  0
  189.0180  176.1550  146.4720 O   0  0  0  0  0  0  0  0  0  0  0  0
  189.8750  175.4510  145.6810 C   0  0  0  0  0  0  0  0  0  0  0  0
  191.0800  173.4930  144.7750 C   0  0  1  0  0  3  0  0  0  0  0  0
  190.1830  174.1630  145.7930 C   0  0  0  0  0  3  0  0  0  0  0  0
  190.3470  176.2600  144.6580 N   0  0  0  0  0  0  0  0  0  0  0  0
  188.8340  177.4150  146.0230 O   0  0  0  0  0  0  0  0  0  0  0  0
  190.8360  175.6880  143.4150 C   0  0  0  0  0  2  0  0  0  0  0  0
  190.3070  172.3800  144.0820 C   0  0  0  0  0  2  0  0  0  0  0  0
  190.9500  172.0040  142.7570 C   0  0  0  0  0  2  0  0  0  0  0  0
  191.7390  170.7150  142.8950 C   0  0  0  0  0  1  0  0  0  0  0  0
  194.0610  174.7400  142.7170 C   0  0  0  0  0  0  0  0  0  0  0  0
  195.3440  175.5370  142.8760 C   0  0  0  0  0  1  0  0  0  0  0  0
  193.3310  175.2160  141.4730 C   0  0  0  0  0  1  0  0  0  0  0  0
  194.4310  173.2850  142.4870 C   0  0  0  0  0  1  0  0  0  0  0  0
  194.2330  175.5470  146.2300 N   0  0  0  0  0  0  0  0  0  0  0  0
  193.0700  174.8170  146.4340 O   0  0  0  0  0  0  0  0  0  0  0  0
  193.8070  174.4700  145.3460 C   0  0  1  0  0  0  0  0  0  0  0  0
  196.7420  172.0390  145.7970 C   0  0  0  0  0  3  0  0  0  0  0  0
  194.6750  170.7900  145.7320 C   0  0  0  0  0  3  0  0  0  0  0  0
  194.6280  173.2140  145.5280 C   0  0  0  0  0  0  0  0  0  0  0  0
  196.0700  170.8120  145.8400 C   0  0  0  0  0  0  0  0  0  0  0  0
  193.9650  171.9800  145.5680 C   0  0  0  0  0  3  0  0  0  0  0  0
  196.0360  173.2330  145.6270 C   0  0  0  0  0  0  0  0  0  0  0  0
  196.7490  174.4210  145.5400 O   0  0  0  0  0  1  0  0  0  0  0  0
  196.8300  169.5420  146.0750 C   0  0  0  0  0  3  0  0  0  0  0  0
  195.8860  168.4240  146.4860 C   0  0  0  0  0  2  0  0  0  0  0  0
  196.7240  169.1210  147.5320 C   0  0  0  0  0  2  0  0  0  0  0  0
  193.7990  176.8680  145.7920 C   0  0  0  0  0  2  0  0  0  0  0  0
  194.8730  177.7560  145.8600 O   0  0  0  0  0  1  0  0  0  0  0  0
  1 14  1  6  0  0  0
  2  9  1  0  0  0  0
  3  1  1  1  0  0  0
  3  6  1  0  0  0  0
  5  7  2  0  0  0  0
  5  4  1  0  0  0  0
  6 11  1  6  0  0  0
  6  7  1  0  0  0  0
  8  2  1  0  0  0  0
  8  5  1  0  0  0  0
  9  4  1  0  0  0  0
 10  3  1  0  0  0  0
 10  8  1  0  0  0  0
 12 13  1  0  0  0  0
 12 11  1  0  0  0  0
 14 15  1  0  0  0  0
 16 14  1  0  0  0  0
 17 14  1  0  0  0  0
 18 19  1  0  0  0  0
 20  1  1  6  0  0  0
 20 23  1  0  0  0  0
 20 18  1  0  0  0  0
 20 19  1  0  0  0  0
 21 24  1  0  0  0  0
 22 24  2  0  0  0  0
 23 25  2  0  0  0  0
 23 26  1  0  0  0  0
 24 28  1  0  0  0  0
 25 22  1  0  0  0  0
 26 21  2  0  0  0  0
 27 26  1  0  0  0  0
 28 29  1  0  0  0  0
 28 30  1  0  0  0  0
 29 30  1  0  0  0  0
 31 32  1  0  0  0  0
 31 18  1  0  0  0  0
M  END
>  <MODEL>
3

>  <REMARK>
 VINA RESULT:      -6.1      3.845      7.970
  Name = 
  8 active torsions:
  status: ('A' for Active; 'I' for Inactive)
    1  A    between atoms: N_1  and  C_4
    2  A    between atoms: C_2  and  C_5
    3  A    between atoms: C_5  and  C_10
    4  A    between atoms: C_5  and  C_27
    5  A    between atoms: C_6  and  C_13
    6  A    between atoms: C_6  and  C_25
    7  A    between atoms: C_7  and  C_19
    8  A    between atoms: C_16  and  C_27
                            x       y       z     vdW  Elec       q    Type
                         _______ _______ _______ _____ _____    ______ ____

>  <TORSDO>
F 8

$$$$
=
 OpenBabel11052419083D

 32 36  0  0  1  0  0  0  0  0999 V2000
  191.0580  176.1680  144.3460 C   0  0  2  0  0  3  0  0  0  0  0  0
  195.5730  175.8830  144.2900 C   0  0  0  0  0  2  0  0  0  0  0  0
  191.9780  176.4110  145.5600 C   0  0  1  0  0  3  0  0  0  0  0  0
  195.4480  174.0560  145.5240 O   0  0  0  0  0  0  0  0  0  0  0  0
  194.2560  174.7010  145.6570 C   0  0  0  0  0  0  0  0  0  0  0  0
  192.0430  175.2610  146.6020 C   0  0  1  0  0  3  0  0  0  0  0  0
  193.2750  174.3890  146.4980 C   0  0  0  0  0  3  0  0  0  0  0  0
  194.2230  175.8110  144.8260 N   0  0  0  0  0  0  0  0  0  0  0  0
  196.2740  174.6920  144.6640 O   0  0  0  0  0  0  0  0  0  0  0  0
  193.3500  176.9360  145.1140 C   0  0  0  0  0  2  0  0  0  0  0  0
  191.9390  175.8150  148.0160 C   0  0  0  0  0  2  0  0  0  0  0  0
  191.2380  177.1640  148.0310 C   0  0  0  0  0  2  0  0  0  0  0  0
  191.5660  177.9190  149.3060 C   0  0  0  0  0  1  0  0  0  0  0  0
  190.9440  177.3920  143.4050 C   0  0  0  0  0  0  0  0  0  0  0  0
  189.7370  177.2690  142.4930 C   0  0  0  0  0  1  0  0  0  0  0  0
  192.1930  177.5550  142.5570 C   0  0  0  0  0  1  0  0  0  0  0  0
  190.7930  178.6620  144.2240 C   0  0  0  0  0  1  0  0  0  0  0  0
  189.4620  174.2710  143.6140 N   0  0  0  0  0  0  0  0  0  0  0  0
  189.9900  174.0150  144.8720 O   0  0  0  0  0  0  0  0  0  0  0  0
  189.7650  175.3220  144.5770 C   0  0  1  0  0  0  0  0  0  0  0  0
  187.0230  176.2260  147.1050 C   0  0  0  0  0  3  0  0  0  0  0  0
  186.4900  177.2110  144.9650 C   0  0  0  0  0  3  0  0  0  0  0  0
  188.5220  175.8960  145.2160 C   0  0  0  0  0  0  0  0  0  0  0  0
  186.1640  176.9910  146.3070 C   0  0  0  0  0  0  0  0  0  0  0  0
  187.6530  176.6590  144.4250 C   0  0  0  0  0  3  0  0  0  0  0  0
  188.1860  175.6670  146.5690 C   0  0  0  0  0  0  0  0  0  0  0  0
  188.9810  174.8750  147.3850 O   0  0  0  0  0  1  0  0  0  0  0  0
  184.9470  177.6300  146.9040 C   0  0  0  0  0  3  0  0  0  0  0  0
  184.3880  178.6890  145.9690 C   0  0  0  0  0  2  0  0  0  0  0  0
  185.1990  179.1040  147.1740 C   0  0  0  0  0  2  0  0  0  0  0  0
  190.5440  174.0140  142.6710 C   0  0  0  0  0  2  0  0  0  0  0  0
  190.8250  172.6490  142.6490 O   0  0  0  0  0  1  0  0  0  0  0  0
  1 14  1  1  0  0  0
  2  9  1  0  0  0  0
  2  8  1  0  0  0  0
  3  1  1  6  0  0  0
  3  6  1  0  0  0  0
  4  5  1  0  0  0  0
  5  7  2  0  0  0  0
  6 11  1  1  0  0  0
  7  6  1  0  0  0  0
  8 10  1  0  0  0  0
  8  5  1  0  0  0  0
  9  4  1  0  0  0  0
 10  3  1  0  0  0  0
 11 12  1  0  0  0  0
 12 13  1  0  0  0  0
 14 17  1  0  0  0  0
 15 14  1  0  0  0  0
 16 14  1  0  0  0  0
 18 20  1  0  0  0  0
 18 19  1  0  0  0  0
 20  1  1  6  0  0  0
 20 19  1  0  0  0  0
 20 23  1  0  0  0  0
 22 24  1  0  0  0  0
 23 26  2  0  0  0  0
 24 28  1  0  0  0  0
 24 21  2  0  0  0  0
 25 22  2  0  0  0  0
 25 23  1  0  0  0  0
 26 21  1  0  0  0  0
 26 27  1  0  0  0  0
 28 30  1  0  0  0  0
 29 28  1  0  0  0  0
 29 30  1  0  0  0  0
 31 18  1  0  0  0  0
 32 31  1  0  0  0  0
M  END
>  <MODEL>
4

>  <REMARK>
 VINA RESULT:      -5.8      2.165      2.834
  Name = 
  8 active torsions:
  status: ('A' for Active; 'I' for Inactive)
    1  A    between atoms: N_1  and  C_4
    2  A    between atoms: C_2  and  C_5
    3  A    between atoms: C_5  and  C_10
    4  A    between atoms: C_5  and  C_27
    5  A    between atoms: C_6  and  C_13
    6  A    between atoms: C_6  and  C_25
    7  A    between atoms: C_7  and  C_19
    8  A    between atoms: C_16  and  C_27
                            x       y       z     vdW  Elec       q    Type
                         _______ _______ _______ _____ _____    ______ ____

>  <TORSDO>
F 8

$$$$
=
 OpenBabel11052419083D

 32 36  0  0  1  0  0  0  0  0999 V2000
  189.8610  174.4340  143.7570 C   0  0  2  0  0  3  0  0  0  0  0  0
  186.6160  176.8030  141.6780 C   0  0  0  0  0  2  0  0  0  0  0  0
  189.3050  175.7890  144.2390 C   0  0  1  0  0  3  0  0  0  0  0  0
  188.1200  178.3160  141.1090 O   0  0  0  0  0  0  0  0  0  0  0  0
  188.6560  177.5980  142.1340 C   0  0  0  0  0  0  0  0  0  0  0  0
  190.2050  177.0260  143.9720 C   0  0  1  0  0  3  0  0  0  0  0  0
  189.7850  177.8630  142.7840 C   0  0  0  0  0  3  0  0  0  0  0  0
  187.8060  176.5580  142.4790 N   0  0  0  0  0  0  0  0  0  0  0  0
  186.9050  177.8500  140.7460 O   0  0  0  0  0  0  0  0  0  0  0  0
  187.8420  175.9680  143.8060 C   0  0  0  0  0  2  0  0  0  0  0  0
  190.2770  177.9110  145.2080 C   0  0  0  0  0  2  0  0  0  0  0  0
  189.6870  177.2140  146.4230 C   0  0  0  0  0  2  0  0  0  0  0  0
  190.7690  176.9200  147.4460 C   0  0  0  0  0  1  0  0  0  0  0  0
  190.4250  173.5570  144.9020 C   0  0  0  0  0  0  0  0  0  0  0  0
  191.8160  174.0110  145.3040 C   0  0  0  0  0  1  0  0  0  0  0  0
  190.4760  172.0930  144.5010 C   0  0  0  0  0  1  0  0  0  0  0  0
  189.5230  173.6540  146.1190 C   0  0  0  0  0  1  0  0  0  0  0  0
  190.0930  173.5760  141.3300 N   0  0  0  0  0  0  0  0  0  0  0  0
  189.9490  174.9560  141.3540 O   0  0  0  0  0  0  0  0  0  0  0  0
  190.6290  174.4120  142.3970 C   0  0  1  0  0  0  0  0  0  0  0  0
  194.3830  173.6780  142.0760 C   0  0  0  0  0  3  0  0  0  0  0  0
  194.0540  176.0570  142.3400 C   0  0  0  0  0  3  0  0  0  0  0  0
  192.1290  174.5700  142.3080 C   0  0  0  0  0  0  0  0  0  0  0  0
  194.9170  174.9690  142.1780 C   0  0  0  0  0  0  0  0  0  0  0  0
  192.6750  175.8560  142.4140 C   0  0  0  0  0  3  0  0  0  0  0  0
  193.0030  173.4710  142.1550 C   0  0  0  0  0  0  0  0  0  0  0  0
  192.5220  172.1700  142.0980 O   0  0  0  0  0  1  0  0  0  0  0  0
  196.3940  175.1870  142.0410 C   0  0  0  0  0  3  0  0  0  0  0  0
  197.1610  173.9830  142.5620 C   0  0  0  0  0  2  0  0  0  0  0  0
  197.0550  175.2300  143.4090 C   0  0  0  0  0  2  0  0  0  0  0  0
  188.7710  173.0350  141.6210 C   0  0  0  0  0  2  0  0  0  0  0  0
  188.0790  172.8330  140.4270 O   0  0  0  0  0  1  0  0  0  0  0  0
  1 14  1  1  0  0  0
  2  8  1  0  0  0  0
  3  1  1  6  0  0  0
  4  5  1  0  0  0  0
  5  8  1  0  0  0  0
  5  7  2  0  0  0  0
  6  3  1  0  0  0  0
  6 11  1  1  0  0  0
  7  6  1  0  0  0  0
  8 10  1  0  0  0  0
  9  4  1  0  0  0  0
  9  2  1  0  0  0  0
 10  3  1  0  0  0  0
 11 12  1  0  0  0  0
 12 13  1  0  0  0  0
 14 15  1  0  0  0  0
 14 17  1  0  0  0  0
 16 14  1  0  0  0  0
 18 19  1  0  0  0  0
 18 31  1  0  0  0  0
 18 20  1  0  0  0  0
 19 20  1  0  0  0  0
 20  1  1  1  0  0  0
 21 26  2  0  0  0  0
 21 24  1  0  0  0  0
 22 25  1  0  0  0  0
 23 20  1  0  0  0  0
 23 25  2  0  0  0  0
 24 22  2  0  0  0  0
 26 23  1  0  0  0  0
 27 26  1  0  0  0  0
 28 24  1  0  0  0  0
 28 29  1  0  0  0  0
 28 30  1  0  0  0  0
 29 30  1  0  0  0  0
 32 31  1  0  0  0  0
M  END
>  <MODEL>
5

>  <REMARK>
 VINA RESULT:      -5.6      2.217      6.760
  Name = 
  8 active torsions:
  status: ('A' for Active; 'I' for Inactive)
    1  A    between atoms: N_1  and  C_4
    2  A    between atoms: C_2  and  C_5
    3  A    between atoms: C_5  and  C_10
    4  A    between atoms: C_5  and  C_27
    5  A    between atoms: C_6  and  C_13
    6  A    between atoms: C_6  and  C_25
    7  A    between atoms: C_7  and  C_19
    8  A    between atoms: C_16  and  C_27
                            x       y       z     vdW  Elec       q    Type
                         _______ _______ _______ _____ _____    ______ ____

>  <TORSDO>
F 8

$$$$
=
 OpenBabel11052419083D

 32 36  0  0  1  0  0  0  0  0999 V2000
  195.2350  173.8380  143.7960 C   0  0  2  0  0  3  0  0  0  0  0  0
  196.3230  174.5620  139.4650 C   0  0  0  0  0  2  0  0  0  0  0  0
  194.7830  172.9630  142.6090 C   0  0  1  0  0  3  0  0  0  0  0  0
  194.2260  175.1250  139.0590 O   0  0  0  0  0  0  0  0  0  0  0  0
  194.2250  174.4280  140.2290 C   0  0  0  0  0  0  0  0  0  0  0  0
  193.3140  173.1590  142.1440 C   0  0  1  0  0  3  0  0  0  0  0  0
  193.1580  174.0130  140.9040 C   0  0  0  0  0  3  0  0  0  0  0  0
  195.5260  174.1270  140.6020 N   0  0  0  0  0  0  0  0  0  0  0  0
  195.4750  175.2910  138.5700 O   0  0  0  0  0  0  0  0  0  0  0  0
  195.8150  173.0010  141.4740 C   0  0  0  0  0  2  0  0  0  0  0  0
  192.6430  171.8130  141.9130 C   0  0  0  0  0  2  0  0  0  0  0  0
  191.8350  171.3830  143.1270 C   0  0  0  0  0  2  0  0  0  0  0  0
  190.4050  171.8760  143.0170 C   0  0  0  0  0  1  0  0  0  0  0  0
  195.5640  173.0240  145.0710 C   0  0  0  0  0  0  0  0  0  0  0  0
  194.2960  172.5480  145.7580 C   0  0  0  0  0  1  0  0  0  0  0  0
  196.3830  173.8440  146.0530 C   0  0  0  0  0  1  0  0  0  0  0  0
  196.3950  171.8070  144.7080 C   0  0  0  0  0  1  0  0  0  0  0  0
  195.3450  176.4160  143.9520 N   0  0  0  0  0  0  0  0  0  0  0  0
  194.5350  176.0190  142.8970 O   0  0  0  0  0  0  0  0  0  0  0  0
  194.5220  175.2140  143.9920 C   0  0  1  0  0  0  0  0  0  0  0  0
  192.1980  176.0880  146.9190 C   0  0  0  0  0  3  0  0  0  0  0  0
  190.9120  175.0370  145.1650 C   0  0  0  0  0  3  0  0  0  0  0  0
  193.3020  175.3800  144.8680 C   0  0  0  0  0  0  0  0  0  0  0  0
  190.9700  175.6190  146.4350 C   0  0  0  0  0  0  0  0  0  0  0  0
  192.0690  174.9100  144.3960 C   0  0  0  0  0  3  0  0  0  0  0  0
  193.3610  175.9590  146.1550 C   0  0  0  0  0  0  0  0  0  0  0  0
  194.5640  176.3930  146.6950 O   0  0  0  0  0  1  0  0  0  0  0  0
  189.7200  175.8090  147.2400 C   0  0  0  0  0  3  0  0  0  0  0  0
  188.5020  175.8420  146.3310 C   0  0  0  0  0  2  0  0  0  0  0  0
  189.0580  177.1310  146.8890 C   0  0  0  0  0  2  0  0  0  0  0  0
  196.7140  176.1710  143.5130 C   0  0  0  0  0  2  0  0  0  0  0  0
  196.9230  176.7860  142.2790 O   0  0  0  0  0  1  0  0  0  0  0  0
  1 14  1  1  0  0  0
  2  8  1  0  0  0  0
  3  1  1  1  0  0  0
  4  5  1  0  0  0  0
  5  8  1  0  0  0  0
  5  7  2  0  0  0  0
  6 11  1  6  0  0  0
  6  3  1  0  0  0  0
  7  6  1  0  0  0  0
  8 10  1  0  0  0  0
  9  4  1  0  0  0  0
  9  2  1  0  0  0  0
 10  3  1  0  0  0  0
 11 12  1  0  0  0  0
 13 12  1  0  0  0  0
 14 15  1  0  0  0  0
 14 16  1  0  0  0  0
 17 14  1  0  0  0  0
 18 20  1  0  0  0  0
 19 18  1  0  0  0  0
 19 20  1  0  0  0  0
 20  1  1  6  0  0  0
 20 23  1  0  0  0  0
 22 24  2  0  0  0  0
 23 26  1  0  0  0  0
 24 21  1  0  0  0  0
 24 28  1  0  0  0  0
 25 23  2  0  0  0  0
 25 22  1  0  0  0  0
 26 27  1  0  0  0  0
 26 21  2  0  0  0  0
 29 30  1  0  0  0  0
 29 28  1  0  0  0  0
 30 28  1  0  0  0  0
 31 18  1  0  0  0  0
 32 31  1  0  0  0  0
M  END
>  <MODEL>
6

>  <REMARK>
 VINA RESULT:      -5.6      3.773      6.205
  Name = 
  8 active torsions:
  status: ('A' for Active; 'I' for Inactive)
    1  A    between atoms: N_1  and  C_4
    2  A    between atoms: C_2  and  C_5
    3  A    between atoms: C_5  and  C_10
    4  A    between atoms: C_5  and  C_27
    5  A    between atoms: C_6  and  C_13
    6  A    between atoms: C_6  and  C_25
    7  A    between atoms: C_7  and  C_19
    8  A    between atoms: C_16  and  C_27
                            x       y       z     vdW  Elec       q    Type
                         _______ _______ _______ _____ _____    ______ ____

>  <TORSDO>
F 8

$$$$
=
 OpenBabel11052419083D

 32 36  0  0  1  0  0  0  0  0999 V2000
  193.4730  174.1460  143.6860 C   0  0  2  0  0  3  0  0  0  0  0  0
  196.8790  174.1270  140.7080 C   0  0  0  0  0  2  0  0  0  0  0  0
  193.4800  173.3760  142.3490 C   0  0  1  0  0  3  0  0  0  0  0  0
  195.6370  175.3090  139.3170 O   0  0  0  0  0  0  0  0  0  0  0  0
  194.7860  174.7470  140.2200 C   0  0  0  0  0  0  0  0  0  0  0  0
  192.6440  174.0030  141.2010 C   0  0  1  0  0  3  0  0  0  0  0  0
  193.4580  174.7590  140.1730 C   0  0  0  0  0  3  0  0  0  0  0  0
  195.5080  174.0690  141.1910 N   0  0  0  0  0  0  0  0  0  0  0  0
  196.9280  175.0190  139.5880 O   0  0  0  0  0  0  0  0  0  0  0  0
  194.9090  172.9830  141.9480 C   0  0  0  0  0  2  0  0  0  0  0  0
  191.8170  172.9370  140.4980 C   0  0  0  0  0  2  0  0  0  0  0  0
  190.4740  172.7380  141.1830 C   0  0  0  0  0  2  0  0  0  0  0  0
  190.3360  171.3120  141.6810 C   0  0  0  0  0  1  0  0  0  0  0  0
  192.8640  173.3410  144.8590 C   0  0  0  0  0  0  0  0  0  0  0  0
  191.3530  173.2570  144.7380 C   0  0  0  0  0  1  0  0  0  0  0  0
  193.2230  173.9610  146.1980 C   0  0  0  0  0  1  0  0  0  0  0  0
  193.4200  171.9280  144.8590 C   0  0  0  0  0  1  0  0  0  0  0  0
  194.1840  176.5910  144.1330 N   0  0  0  0  0  0  0  0  0  0  0  0
  193.9500  176.3850  142.7810 O   0  0  0  0  0  0  0  0  0  0  0  0
  193.1640  175.6770  143.6340 C   0  0  1  0  0  0  0  0  0  0  0  0
  189.9840  177.2480  145.1000 C   0  0  0  0  0  3  0  0  0  0  0  0
  189.6020  176.6910  142.7810 C   0  0  0  0  0  3  0  0  0  0  0  0
  191.7660  176.2300  143.7920 C   0  0  0  0  0  0  0  0  0  0  0  0
  189.1320  177.2130  143.9890 C   0  0  0  0  0  0  0  0  0  0  0  0
  190.9040  176.1950  142.6880 C   0  0  0  0  0  3  0  0  0  0  0  0
  191.2860  176.7490  145.0150 C   0  0  0  0  0  0  0  0  0  0  0  0
  192.0790  176.7590  146.1540 O   0  0  0  0  0  1  0  0  0  0  0  0
  187.7550  177.7990  144.0760 C   0  0  0  0  0  3  0  0  0  0  0  0
  187.2240  177.7050  145.4970 C   0  0  0  0  0  2  0  0  0  0  0  0
  186.7440  176.7270  144.4510 C   0  0  0  0  0  2  0  0  0  0  0  0
  195.4590  175.9440  144.4180 C   0  0  0  0  0  2  0  0  0  0  0  0
  196.4450  176.4760  143.5870 O   0  0  0  0  0  1  0  0  0  0  0  0
  1 14  1  1  0  0  0
  2  8  1  0  0  0  0
  3  1  1  1  0  0  0
  4  9  1  0  0  0  0
  4  5  1  0  0  0  0
  5  8  1  0  0  0  0
  6 11  1  6  0  0  0
  6  3  1  0  0  0  0
  7  5  2  0  0  0  0
  7  6  1  0  0  0  0
  8 10  1  0  0  0  0
  9  2  1  0  0  0  0
 10  3  1  0  0  0  0
 11 12  1  0  0  0  0
 12 13  1  0  0  0  0
 14 16  1  0  0  0  0
 15 14  1  0  0  0  0
 17 14  1  0  0  0  0
 18 31  1  0  0  0  0
 19 20  1  0  0  0  0
 19 18  1  0  0  0  0
 20  1  1  1  0  0  0
 20 23  1  0  0  0  0
 20 18  1  0  0  0  0
 22 24  1  0  0  0  0
 23 26  2  0  0  0  0
 24 28  1  0  0  0  0
 24 21  2  0  0  0  0
 25 22  2  0  0  0  0
 25 23  1  0  0  0  0
 26 21  1  0  0  0  0
 26 27  1  0  0  0  0
 28 30  1  0  0  0  0
 28 29  1  0  0  0  0
 30 29  1  0  0  0  0
 32 31  1  0  0  0  0
M  END
>  <MODEL>
7

>  <REMARK>
 VINA RESULT:      -5.5      3.290      5.517
  Name = 
  8 active torsions:
  status: ('A' for Active; 'I' for Inactive)
    1  A    between atoms: N_1  and  C_4
    2  A    between atoms: C_2  and  C_5
    3  A    between atoms: C_5  and  C_10
    4  A    between atoms: C_5  and  C_27
    5  A    between atoms: C_6  and  C_13
    6  A    between atoms: C_6  and  C_25
    7  A    between atoms: C_7  and  C_19
    8  A    between atoms: C_16  and  C_27
                            x       y       z     vdW  Elec       q    Type
                         _______ _______ _______ _____ _____    ______ ____

>  <TORSDO>
F 8

$$$$
=
 OpenBabel11052419083D

 32 36  0  0  1  0  0  0  0  0999 V2000
  191.5890  174.8040  144.7120 C   0  0  2  0  0  3  0  0  0  0  0  0
  195.6840  172.9060  145.0220 C   0  0  0  0  0  2  0  0  0  0  0  0
  192.6200  174.7240  143.5670 C   0  0  1  0  0  3  0  0  0  0  0  0
  196.5970  174.9120  144.8820 O   0  0  0  0  0  0  0  0  0  0  0  0
  195.3250  175.0270  144.4090 C   0  0  0  0  0  0  0  0  0  0  0  0
  193.3890  176.0360  143.2530 C   0  0  1  0  0  3  0  0  0  0  0  0
  194.7920  176.0900  143.8170 C   0  0  0  0  0  3  0  0  0  0  0  0
  194.6530  173.8230  144.5610 N   0  0  0  0  0  0  0  0  0  0  0  0
  196.8630  173.6630  145.3220 O   0  0  0  0  0  0  0  0  0  0  0  0
  193.5170  173.4870  143.7200 C   0  0  0  0  0  2  0  0  0  0  0  0
  193.4430  176.2780  141.7520 C   0  0  0  0  0  2  0  0  0  0  0  0
  194.8740  176.2580  141.2390 C   0  0  0  0  0  2  0  0  0  0  0  0
  195.0000  175.3240  140.0500 C   0  0  0  0  0  1  0  0  0  0  0  0
  190.5160  173.6910  144.6540 C   0  0  0  0  0  0  0  0  0  0  0  0
  191.1560  172.3210  144.5170 C   0  0  0  0  0  1  0  0  0  0  0  0
  189.5560  173.9090  143.4970 C   0  0  0  0  0  1  0  0  0  0  0  0
  189.6890  173.7030  145.9270 C   0  0  0  0  0  1  0  0  0  0  0  0
  191.6740  176.7580  146.4020 N   0  0  0  0  0  0  0  0  0  0  0  0
  192.0950  177.1730  145.1460 O   0  0  0  0  0  0  0  0  0  0  0  0
  191.1210  176.2250  145.1630 C   0  0  1  0  0  0  0  0  0  0  0  0
  188.0760  177.7710  143.4120 C   0  0  0  0  0  3  0  0  0  0  0  0
  187.4880  177.2090  145.6870 C   0  0  0  0  0  3  0  0  0  0  0  0
  189.7360  176.7540  144.8740 C   0  0  0  0  0  0  0  0  0  0  0  0
  187.1300  177.7390  144.4440 C   0  0  0  0  0  0  0  0  0  0  0  0
  188.7820  176.7310  145.9010 C   0  0  0  0  0  3  0  0  0  0  0  0
  189.3750  177.2980  143.6220 C   0  0  0  0  0  0  0  0  0  0  0  0
  190.2930  177.3960  142.5860 O   0  0  0  0  0  1  0  0  0  0  0  0
  185.7250  178.2000  144.1940 C   0  0  0  0  0  3  0  0  0  0  0  0
  185.7020  179.2870  143.1320 C   0  0  0  0  0  2  0  0  0  0  0  0
  185.5660  179.6590  144.5900 C   0  0  0  0  0  2  0  0  0  0  0  0
  192.7690  175.9620  146.9430 C   0  0  0  0  0  2  0  0  0  0  0  0
  193.8790  176.7800  147.1490 O   0  0  0  0  0  1  0  0  0  0  0  0
  1 14  1  6  0  0  0
  2  9  1  0  0  0  0
  3 10  1  0  0  0  0
  3  1  1  1  0  0  0
  4  9  1  0  0  0  0
  5  8  1  0  0  0  0
  5  4  1  0  0  0  0
  6 11  1  6  0  0  0
  6  3  1  0  0  0  0
  6  7  1  0  0  0  0
  7  5  2  0  0  0  0
  8  2  1  0  0  0  0
 10  8  1  0  0  0  0
 12 11  1  0  0  0  0
 13 12  1  0  0  0  0
 14 17  1  0  0  0  0
 15 14  1  0  0  0  0
 16 14  1  0  0  0  0
 18 31  1  0  0  0  0
 19 20  1  0  0  0  0
 19 18  1  0  0  0  0
 20  1  1  6  0  0  0
 20 18  1  0  0  0  0
 21 26  2  0  0  0  0
 21 24  1  0  0  0  0
 22 25  1  0  0  0  0
 23 20  1  0  0  0  0
 23 25  2  0  0  0  0
 24 22  2  0  0  0  0
 26 23  1  0  0  0  0
 27 26  1  0  0  0  0
 28 24  1  0  0  0  0
 28 30  1  0  0  0  0
 29 28  1  0  0  0  0
 29 30  1  0  0  0  0
 31 32  1  0  0  0  0
M  END
>  <MODEL>
8

>  <REMARK>
 VINA RESULT:      -5.5      3.091      4.690
  Name = 
  8 active torsions:
  status: ('A' for Active; 'I' for Inactive)
    1  A    between atoms: N_1  and  C_4
    2  A    between atoms: C_2  and  C_5
    3  A    between atoms: C_5  and  C_10
    4  A    between atoms: C_5  and  C_27
    5  A    between atoms: C_6  and  C_13
    6  A    between atoms: C_6  and  C_25
    7  A    between atoms: C_7  and  C_19
    8  A    between atoms: C_16  and  C_27
                            x       y       z     vdW  Elec       q    Type
                         _______ _______ _______ _____ _____    ______ ____

>  <TORSDO>
F 8

$$$$
=
 OpenBabel11052419083D

 32 36  0  0  1  0  0  0  0  0999 V2000
  190.0270  174.2480  144.1900 C   0  0  2  0  0  3  0  0  0  0  0  0
  187.1140  176.4160  146.8870 C   0  0  0  0  0  2  0  0  0  0  0  0
  190.3160  174.6810  145.6420 C   0  0  1  0  0  3  0  0  0  0  0  0
  188.3680  178.2270  146.7450 O   0  0  0  0  0  0  0  0  0  0  0  0
  189.1500  177.1790  146.3670 C   0  0  0  0  0  0  0  0  0  0  0  0
  191.2130  175.9370  145.8100 C   0  0  1  0  0  3  0  0  0  0  0  0
  190.4570  177.2090  146.1280 C   0  0  0  0  0  3  0  0  0  0  0  0
  188.3970  176.0150  146.3330 N   0  0  0  0  0  0  0  0  0  0  0  0
  187.1040  177.8410  147.0210 O   0  0  0  0  0  0  0  0  0  0  0  0
  189.0250  174.7120  146.4730 C   0  0  0  0  0  2  0  0  0  0  0  0
  192.2690  175.7010  146.8800 C   0  0  0  0  0  2  0  0  0  0  0  0
  193.5680  176.4150  146.5410 C   0  0  0  0  0  2  0  0  0  0  0  0
  194.6350  175.4160  146.1380 C   0  0  0  0  0  1  0  0  0  0  0  0
  190.3050  172.7480  143.9280 C   0  0  0  0  0  0  0  0  0  0  0  0
  191.7970  172.4670  143.8890 C   0  0  0  0  0  1  0  0  0  0  0  0
  189.6800  172.2910  142.6210 C   0  0  0  0  0  1  0  0  0  0  0  0
  189.6920  171.9070  145.0330 C   0  0  0  0  0  1  0  0  0  0  0  0
  189.3310  175.6700  142.1470 N   0  0  0  0  0  0  0  0  0  0  0  0
  189.8160  176.4760  143.1680 O   0  0  0  0  0  0  0  0  0  0  0  0
  190.3950  175.2520  143.0510 C   0  0  1  0  0  0  0  0  0  0  0  0
  193.3080  174.6150  140.6350 C   0  0  0  0  0  3  0  0  0  0  0  0
  194.0610  176.0410  142.4340 C   0  0  0  0  0  3  0  0  0  0  0  0
  191.7540  175.2700  142.3900 C   0  0  0  0  0  0  0  0  0  0  0  0
  194.3320  175.3460  141.2510 C   0  0  0  0  0  0  0  0  0  0  0  0
  192.7870  175.9940  143.0010 C   0  0  0  0  0  3  0  0  0  0  0  0
  192.0320  174.5600  141.2020 C   0  0  0  0  0  0  0  0  0  0  0  0
  191.0630  173.7820  140.5830 O   0  0  0  0  0  1  0  0  0  0  0  0
  195.6830  175.4420  140.6090 C   0  0  0  0  0  3  0  0  0  0  0  0
  195.9840  174.1840  139.8110 C   0  0  0  0  0  2  0  0  0  0  0  0
  196.6150  174.3800  141.1700 C   0  0  0  0  0  2  0  0  0  0  0  0
  188.0030  175.2480  142.5740 C   0  0  0  0  0  2  0  0  0  0  0  0
  187.2510  176.3670  142.9270 O   0  0  0  0  0  1  0  0  0  0  0  0
  1 14  1  6  0  0  0
  2  9  1  0  0  0  0
  3  1  1  6  0  0  0
  3  6  1  0  0  0  0
  3 10  1  0  0  0  0
  4  9  1  0  0  0  0
  5  4  1  0  0  0  0
  6  7  1  0  0  0  0
  6 11  1  1  0  0  0
  7  5  2  0  0  0  0
  8  5  1  0  0  0  0
  8 10  1  0  0  0  0
  8  2  1  0  0  0  0
 12 11  1  0  0  0  0
 13 12  1  0  0  0  0
 14 17  1  0  0  0  0
 15 14  1  0  0  0  0
 16 14  1  0  0  0  0
 18 31  1  0  0  0  0
 18 20  1  0  0  0  0
 18 19  1  0  0  0  0
 20 19  1  0  0  0  0
 20  1  1  1  0  0  0
 21 26  2  0  0  0  0
 21 24  1  0  0  0  0
 22 25  1  0  0  0  0
 23 25  2  0  0  0  0
 23 20  1  0  0  0  0
 24 22  2  0  0  0  0
 26 23  1  0  0  0  0
 27 26  1  0  0  0  0
 28 30  1  0  0  0  0
 28 24  1  0  0  0  0
 29 28  1  0  0  0  0
 29 30  1  0  0  0  0
 31 32  1  0  0  0  0
M  END
>  <MODEL>
9

>  <REMARK>
 VINA RESULT:      -5.5      2.569      6.740
  Name = 
  8 active torsions:
  status: ('A' for Active; 'I' for Inactive)
    1  A    between atoms: N_1  and  C_4
    2  A    between atoms: C_2  and  C_5
    3  A    between atoms: C_5  and  C_10
    4  A    between atoms: C_5  and  C_27
    5  A    between atoms: C_6  and  C_13
    6  A    between atoms: C_6  and  C_25
    7  A    between atoms: C_7  and  C_19
    8  A    between atoms: C_16  and  C_27
                            x       y       z     vdW  Elec       q    Type
                         _______ _______ _______ _____ _____    ______ ____

>  <TORSDO>
F 8

$$$$
