=
 OpenBabel11052418203D

 27 31  0  0  1  0  0  0  0  0999 V2000
  189.4270  174.6350  145.3600 C   0  0  0  0  0  2  0  0  0  0  0  0
  188.3030  176.1020  143.7350 C   0  0  0  0  0  0  0  0  0  0  0  0
  188.1780  177.2680  145.9470 O   0  0  0  0  0  0  0  0  0  0  0  0
  184.8320  178.2040  142.4840 C   0  0  0  0  0  3  0  0  0  0  0  0
  184.1940  178.6660  144.8150 C   0  0  0  0  0  2  0  0  0  0  0  0
  187.8040  175.9890  142.4750 N   0  0  0  0  0  0  0  0  0  0  0  0
  185.6580  178.4840  145.2390 C   0  0  1  0  0  3  0  0  0  0  0  0
  190.9390  177.2370  148.3890 C   0  0  0  0  0  0  0  0  0  0  0  0
  185.6300  177.9850  146.6740 C   0  0  0  0  0  1  0  0  0  0  0  0
  191.5660  178.2910  149.6390 Cl  0  0  0  0  0  0  0  0  0  0  0  0
  186.4230  177.5480  144.3020 C   0  0  0  0  0  0  0  0  0  0  0  0
  189.4540  175.3240  144.0840 N   0  0  0  0  0  0  0  0  0  0  0  0
  184.0240  178.8290  143.3360 C   0  0  0  0  0  3  0  0  0  0  0  0
  185.9840  177.4330  142.9670 C   0  0  0  0  0  0  0  0  0  0  0  0
  189.9280  175.5580  146.3970 C   0  0  0  0  0  0  0  0  0  0  0  0
  187.6480  176.9370  144.6800 C   0  0  0  0  0  0  0  0  0  0  0  0
  189.8280  177.6280  147.6390 C   0  0  0  0  0  3  0  0  0  0  0  0
  186.6910  176.6450  142.0700 C   0  0  0  0  0  3  0  0  0  0  0  0
  191.5480  176.0060  148.1440 C   0  0  0  0  0  3  0  0  0  0  0  0
  191.0410  175.1680  147.1500 C   0  0  0  0  0  3  0  0  0  0  0  0
  189.3150  176.8040  146.6300 C   0  0  0  0  0  0  0  0  0  0  0  0
  192.8300  174.9160  141.5250 C   0  0  0  0  0  3  0  0  0  0  0  0
  190.5930  175.1960  143.2070 C   0  0  0  0  0  0  0  0  0  0  0  0
  191.6270  176.1480  143.2250 C   0  0  0  0  0  3  0  0  0  0  0  0
  192.7370  176.0100  142.3880 C   0  0  0  0  0  3  0  0  0  0  0  0
  191.8130  173.9580  141.5000 C   0  0  0  0  0  3  0  0  0  0  0  0
  190.7030  174.0970  142.3380 C   0  0  0  0  0  3  0  0  0  0  0  0
  1 15  1  0  0  0  0
  2 12  1  0  0  0  0
  2 16  1  0  0  0  0
  3 21  1  0  0  0  0
  4 14  1  0  0  0  0
  4 13  2  0  0  0  0
  5  7  1  0  0  0  0
  6  2  2  0  0  0  0
  7  9  1  1  0  0  0
  8 10  1  0  0  0  0
 11 16  2  0  0  0  0
 11  7  1  0  0  0  0
 12  1  1  0  0  0  0
 13  5  1  0  0  0  0
 14 11  1  0  0  0  0
 15 21  2  0  0  0  0
 15 20  1  0  0  0  0
 16  3  1  0  0  0  0
 17  8  2  0  0  0  0
 18  6  1  0  0  0  0
 18 14  2  0  0  0  0
 19  8  1  0  0  0  0
 20 19  2  0  0  0  0
 21 17  1  0  0  0  0
 22 25  1  0  0  0  0
 23 24  1  0  0  0  0
 23 12  1  0  0  0  0
 25 24  2  0  0  0  0
 26 22  2  0  0  0  0
 26 27  1  0  0  0  0
 27 23  2  0  0  0  0
M  END
>  <MODEL>
1

>  <REMARK>
 VINA RESULT:      -8.3      0.000      0.000
  Name = 
  1 active torsions:
  status: ('A' for Active; 'I' for Inactive)
    1  A    between atoms: C_9  and  N_15
                            x       y       z     vdW  Elec       q    Type
                         _______ _______ _______ _____ _____    ______ ____

>  <TORSDO>
F 1

$$$$
=
 OpenBabel11052418203D

 27 31  0  0  1  0  0  0  0  0999 V2000
  190.2170  177.1350  143.3240 C   0  0  0  0  0  2  0  0  0  0  0  0
  188.0020  177.3700  144.3690 C   0  0  0  0  0  0  0  0  0  0  0  0
  187.6260  176.2650  142.1550 O   0  0  0  0  0  0  0  0  0  0  0  0
  184.0300  178.8690  144.2420 C   0  0  0  0  0  3  0  0  0  0  0  0
  183.9280  178.5680  141.8020 C   0  0  0  0  0  2  0  0  0  0  0  0
  187.4610  178.0730  145.4010 N   0  0  0  0  0  0  0  0  0  0  0  0
  185.0340  177.5090  141.8980 C   0  0  1  0  0  3  0  0  0  0  0  0
  189.9130  173.7290  140.7650 C   0  0  0  0  0  0  0  0  0  0  0  0
  185.7850  177.5520  140.5770 C   0  0  0  0  0  1  0  0  0  0  0  0
  189.8050  172.3350  139.7120 Cl  0  0  0  0  0  0  0  0  0  0  0  0
  185.9480  177.7290  143.1040 C   0  0  0  0  0  0  0  0  0  0  0  0
  189.3630  176.9380  144.4800 N   0  0  0  0  0  0  0  0  0  0  0  0
  183.3090  178.8950  143.1250 C   0  0  0  0  0  3  0  0  0  0  0  0
  185.4230  178.4040  144.2260 C   0  0  0  0  0  0  0  0  0  0  0  0
  190.0790  175.9600  142.4400 C   0  0  0  0  0  0  0  0  0  0  0  0
  187.2320  177.1310  143.1990 C   0  0  0  0  0  0  0  0  0  0  0  0
  188.7650  174.4610  141.0750 C   0  0  0  0  0  3  0  0  0  0  0  0
  186.2000  178.5650  145.3640 C   0  0  0  0  0  3  0  0  0  0  0  0
  191.1470  174.1110  141.2920 C   0  0  0  0  0  3  0  0  0  0  0  0
  191.2280  175.2270  142.1260 C   0  0  0  0  0  3  0  0  0  0  0  0
  188.8280  175.5750  141.9210 C   0  0  0  0  0  0  0  0  0  0  0  0
  190.9470  175.1900  148.0230 C   0  0  0  0  0  3  0  0  0  0  0  0
  189.8910  176.3540  145.6890 C   0  0  0  0  0  0  0  0  0  0  0  0
  189.1620  175.3850  146.3990 C   0  0  0  0  0  3  0  0  0  0  0  0
  189.6850  174.8080  147.5600 C   0  0  0  0  0  3  0  0  0  0  0  0
  191.6860  176.1480  147.3230 C   0  0  0  0  0  3  0  0  0  0  0  0
  191.1620  176.7240  146.1630 C   0  0  0  0  0  3  0  0  0  0  0  0
  1 12  1  0  0  0  0
  2 12  1  0  0  0  0
  2  6  1  0  0  0  0
  3 16  1  0  0  0  0
  5  7  1  0  0  0  0
  5 13  1  0  0  0  0
  7  9  1  6  0  0  0
  7 11  1  0  0  0  0
  8 17  2  0  0  0  0
  8 19  1  0  0  0  0
 10  8  1  0  0  0  0
 11 16  1  0  0  0  0
 11 14  2  0  0  0  0
 12 23  1  0  0  0  0
 13  4  2  0  0  0  0
 14  4  1  0  0  0  0
 14 18  1  0  0  0  0
 15  1  1  0  0  0  0
 16  2  2  0  0  0  0
 17 21  1  0  0  0  0
 18  6  2  0  0  0  0
 19 20  2  0  0  0  0
 20 15  1  0  0  0  0
 21  3  1  0  0  0  0
 21 15  2  0  0  0  0
 23 27  2  0  0  0  0
 23 24  1  0  0  0  0
 24 25  2  0  0  0  0
 25 22  1  0  0  0  0
 26 22  2  0  0  0  0
 27 26  1  0  0  0  0
M  END
>  <MODEL>
2

>  <REMARK>
 VINA RESULT:      -7.7      2.766      5.008
  Name = 
  1 active torsions:
  status: ('A' for Active; 'I' for Inactive)
    1  A    between atoms: C_9  and  N_15
                            x       y       z     vdW  Elec       q    Type
                         _______ _______ _______ _____ _____    ______ ____

>  <TORSDO>
F 1

$$$$
=
 OpenBabel11052418203D

 27 31  0  0  1  0  0  0  0  0999 V2000
  191.2600  176.6820  143.0470 C   0  0  0  0  0  2  0  0  0  0  0  0
  190.0430  176.6880  145.1850 C   0  0  0  0  0  0  0  0  0  0  0  0
  188.5960  175.4630  143.5510 O   0  0  0  0  0  0  0  0  0  0  0  0
  186.5800  177.6910  147.4290 C   0  0  0  0  0  3  0  0  0  0  0  0
  185.1270  177.2880  145.4840 C   0  0  0  0  0  2  0  0  0  0  0  0
  190.1160  177.3590  146.3670 N   0  0  0  0  0  0  0  0  0  0  0  0
  186.2030  176.3750  144.8840 C   0  0  1  0  0  3  0  0  0  0  0  0
  189.9490  173.1710  140.9990 C   0  0  0  0  0  0  0  0  0  0  0  0
  186.0440  176.4570  143.3740 C   0  0  0  0  0  1  0  0  0  0  0  0
  189.4220  171.7350  140.1480 Cl  0  0  0  0  0  0  0  0  0  0  0  0
  187.6110  176.7490  145.3510 C   0  0  0  0  0  0  0  0  0  0  0  0
  191.2590  176.4280  144.4750 N   0  0  0  0  0  0  0  0  0  0  0  0
  185.3490  177.5880  146.9340 C   0  0  0  0  0  3  0  0  0  0  0  0
  187.7520  177.3970  146.5950 C   0  0  0  0  0  0  0  0  0  0  0  0
  190.7800  175.4670  142.3580 C   0  0  0  0  0  0  0  0  0  0  0  0
  188.7750  176.3130  144.6650 C   0  0  0  0  0  0  0  0  0  0  0  0
  189.1120  173.7700  141.9430 C   0  0  0  0  0  3  0  0  0  0  0  0
  189.0170  177.6940  147.0830 C   0  0  0  0  0  3  0  0  0  0  0  0
  191.2040  173.7190  140.7340 C   0  0  0  0  0  3  0  0  0  0  0  0
  191.6160  174.8670  141.4120 C   0  0  0  0  0  3  0  0  0  0  0  0
  189.5160  174.9140  142.6410 C   0  0  0  0  0  0  0  0  0  0  0  0
  194.8030  175.0430  146.3830 C   0  0  0  0  0  3  0  0  0  0  0  0
  192.4530  175.9580  145.1350 C   0  0  0  0  0  0  0  0  0  0  0  0
  192.6060  174.6020  145.4690 C   0  0  0  0  0  3  0  0  0  0  0  0
  193.7720  174.1470  146.0910 C   0  0  0  0  0  3  0  0  0  0  0  0
  194.6680  176.3940  146.0510 C   0  0  0  0  0  3  0  0  0  0  0  0
  193.5010  176.8470  145.4290 C   0  0  0  0  0  3  0  0  0  0  0  0
  1 12  1  0  0  0  0
  2  6  1  0  0  0  0
  3 16  1  0  0  0  0
  5 13  1  0  0  0  0
  6 18  2  0  0  0  0
  7  9  1  6  0  0  0
  7 11  1  0  0  0  0
  7  5  1  0  0  0  0
  8 17  1  0  0  0  0
 10  8  1  0  0  0  0
 11 14  2  0  0  0  0
 12 23  1  0  0  0  0
 12  2  1  0  0  0  0
 13  4  2  0  0  0  0
 14 18  1  0  0  0  0
 14  4  1  0  0  0  0
 15 21  1  0  0  0  0
 15  1  1  0  0  0  0
 16  2  2  0  0  0  0
 16 11  1  0  0  0  0
 17 21  2  0  0  0  0
 19  8  2  0  0  0  0
 19 20  1  0  0  0  0
 20 15  2  0  0  0  0
 21  3  1  0  0  0  0
 23 27  2  0  0  0  0
 23 24  1  0  0  0  0
 24 25  2  0  0  0  0
 25 22  1  0  0  0  0
 26 22  2  0  0  0  0
 27 26  1  0  0  0  0
M  END
>  <MODEL>
3

>  <REMARK>
 VINA RESULT:      -7.6      3.005      5.027
  Name = 
  1 active torsions:
  status: ('A' for Active; 'I' for Inactive)
    1  A    between atoms: C_9  and  N_15
                            x       y       z     vdW  Elec       q    Type
                         _______ _______ _______ _____ _____    ______ ____

>  <TORSDO>
F 1

$$$$
=
 OpenBabel11052418203D

 27 31  0  0  1  0  0  0  0  0999 V2000
  190.3130  173.4340  144.4980 C   0  0  0  0  0  2  0  0  0  0  0  0
  188.7820  174.9010  143.2490 C   0  0  0  0  0  0  0  0  0  0  0  0
  189.7360  176.2870  145.1020 O   0  0  0  0  0  0  0  0  0  0  0  0
  185.3700  177.4280  143.1780 C   0  0  0  0  0  3  0  0  0  0  0  0
  185.8340  178.2240  145.4600 C   0  0  0  0  0  2  0  0  0  0  0  0
  187.7880  174.7480  142.3330 N   0  0  0  0  0  0  0  0  0  0  0  0
  187.3090  177.8390  145.2820 C   0  0  1  0  0  3  0  0  0  0  0  0
  193.2480  176.0320  146.1940 C   0  0  0  0  0  0  0  0  0  0  0  0
  187.8340  177.4990  146.6670 C   0  0  0  0  0  1  0  0  0  0  0  0
  194.4600  177.0830  146.8950 Cl  0  0  0  0  0  0  0  0  0  0  0  0
  187.4950  176.6960  144.2810 C   0  0  0  0  0  0  0  0  0  0  0  0
  189.8760  173.9770  143.2260 N   0  0  0  0  0  0  0  0  0  0  0  0
  185.0750  178.2640  144.1700 C   0  0  0  0  0  3  0  0  0  0  0  0
  186.5230  176.5240  143.2750 C   0  0  0  0  0  0  0  0  0  0  0  0
  191.3070  174.3580  145.0800 C   0  0  0  0  0  0  0  0  0  0  0  0
  188.6870  175.9260  144.2280 C   0  0  0  0  0  0  0  0  0  0  0  0
  191.9770  176.5290  145.9020 C   0  0  0  0  0  3  0  0  0  0  0  0
  186.6910  175.5410  142.3100 C   0  0  0  0  0  3  0  0  0  0  0  0
  193.5530  174.6960  145.9280 C   0  0  0  0  0  3  0  0  0  0  0  0
  192.5820  173.8620  145.3740 C   0  0  0  0  0  3  0  0  0  0  0  0
  190.9950  175.7070  145.3350 C   0  0  0  0  0  0  0  0  0  0  0  0
  191.7840  172.7420  139.6270 C   0  0  0  0  0  3  0  0  0  0  0  0
  190.5160  173.5690  141.9980 C   0  0  0  0  0  0  0  0  0  0  0  0
  191.5790  174.3110  141.4580 C   0  0  0  0  0  3  0  0  0  0  0  0
  192.2080  173.9020  140.2790 C   0  0  0  0  0  3  0  0  0  0  0  0
  190.7310  171.9900  140.1560 C   0  0  0  0  0  3  0  0  0  0  0  0
  190.1030  172.4000  141.3340 C   0  0  0  0  0  3  0  0  0  0  0  0
  1 15  1  0  0  0  0
  2 16  1  0  0  0  0
  3 21  1  0  0  0  0
  4 14  1  0  0  0  0
  4 13  2  0  0  0  0
  6  2  2  0  0  0  0
  7  5  1  0  0  0  0
  7  9  1  1  0  0  0
  8 10  1  0  0  0  0
 11  7  1  0  0  0  0
 12  2  1  0  0  0  0
 12  1  1  0  0  0  0
 13  5  1  0  0  0  0
 14 11  1  0  0  0  0
 15 21  2  0  0  0  0
 15 20  1  0  0  0  0
 16 11  2  0  0  0  0
 16  3  1  0  0  0  0
 17  8  2  0  0  0  0
 18  6  1  0  0  0  0
 18 14  2  0  0  0  0
 19  8  1  0  0  0  0
 20 19  2  0  0  0  0
 21 17  1  0  0  0  0
 22 26  2  0  0  0  0
 22 25  1  0  0  0  0
 23 12  1  0  0  0  0
 24 23  1  0  0  0  0
 25 24  2  0  0  0  0
 26 27  1  0  0  0  0
 27 23  2  0  0  0  0
M  END
>  <MODEL>
4

>  <REMARK>
 VINA RESULT:      -7.5      1.827      2.291
  Name = 
  1 active torsions:
  status: ('A' for Active; 'I' for Inactive)
    1  A    between atoms: C_9  and  N_15
                            x       y       z     vdW  Elec       q    Type
                         _______ _______ _______ _____ _____    ______ ____

>  <TORSDO>
F 1

$$$$
=
 OpenBabel11052418203D

 27 31  0  0  1  0  0  0  0  0999 V2000
  189.7140  177.1470  142.4310 C   0  0  0  0  0  2  0  0  0  0  0  0
  188.8370  175.1690  141.2570 C   0  0  0  0  0  0  0  0  0  0  0  0
  190.3770  174.3120  143.0340 O   0  0  0  0  0  0  0  0  0  0  0  0
  189.5310  171.6310  139.0140 C   0  0  0  0  0  3  0  0  0  0  0  0
  191.6180  171.1880  140.2400 C   0  0  0  0  0  2  0  0  0  0  0  0
  188.1890  174.9160  140.0880 N   0  0  0  0  0  0  0  0  0  0  0  0
  191.1000  172.0410  141.4060 C   0  0  1  0  0  3  0  0  0  0  0  0
  190.6020  175.8190  146.3910 C   0  0  0  0  0  0  0  0  0  0  0  0
  192.3260  172.6270  142.0870 C   0  0  0  0  0  1  0  0  0  0  0  0
  190.9700  175.2910  148.0190 Cl  0  0  0  0  0  0  0  0  0  0  0  0
  190.1090  173.1120  140.9480 C   0  0  0  0  0  0  0  0  0  0  0  0
  188.5720  176.4080  141.9260 N   0  0  0  0  0  0  0  0  0  0  0  0
  190.5470  170.8100  139.2650 C   0  0  0  0  0  3  0  0  0  0  0  0
  189.3680  172.8790  139.7710 C   0  0  0  0  0  0  0  0  0  0  0  0
  190.0220  176.6560  143.7890 C   0  0  0  0  0  0  0  0  0  0  0  0
  189.7880  174.2370  141.7520 C   0  0  0  0  0  0  0  0  0  0  0  0
  190.6130  174.9010  145.3400 C   0  0  0  0  0  3  0  0  0  0  0  0
  188.4130  173.7970  139.3600 C   0  0  0  0  0  3  0  0  0  0  0  0
  190.3000  177.1590  146.1440 C   0  0  0  0  0  3  0  0  0  0  0  0
  190.0120  177.5750  144.8440 C   0  0  0  0  0  3  0  0  0  0  0  0
  190.3150  175.3000  144.0310 C   0  0  0  0  0  0  0  0  0  0  0  0
  184.6480  177.9890  142.3940 C   0  0  0  0  0  3  0  0  0  0  0  0
  187.2360  176.9310  142.0810 C   0  0  0  0  0  0  0  0  0  0  0  0
  186.4780  176.6420  143.2280 C   0  0  0  0  0  3  0  0  0  0  0  0
  185.1910  177.1660  143.3830 C   0  0  0  0  0  3  0  0  0  0  0  0
  185.3930  178.2910  141.2510 C   0  0  0  0  0  3  0  0  0  0  0  0
  186.6790  177.7660  141.0970 C   0  0  0  0  0  3  0  0  0  0  0  0
  1 15  1  0  0  0  0
  2 16  1  0  0  0  0
  2 12  1  0  0  0  0
  3 21  1  0  0  0  0
  4 13  2  0  0  0  0
  4 14  1  0  0  0  0
  5  7  1  0  0  0  0
  6  2  2  0  0  0  0
  7  9  1  6  0  0  0
  8 10  1  0  0  0  0
 11  7  1  0  0  0  0
 11 16  2  0  0  0  0
 12 23  1  0  0  0  0
 12  1  1  0  0  0  0
 13  5  1  0  0  0  0
 14 11  1  0  0  0  0
 15 21  2  0  0  0  0
 15 20  1  0  0  0  0
 16  3  1  0  0  0  0
 17  8  2  0  0  0  0
 18 14  2  0  0  0  0
 18  6  1  0  0  0  0
 19  8  1  0  0  0  0
 20 19  2  0  0  0  0
 21 17  1  0  0  0  0
 22 25  1  0  0  0  0
 23 24  1  0  0  0  0
 24 25  2  0  0  0  0
 26 22  2  0  0  0  0
 27 26  1  0  0  0  0
 27 23  2  0  0  0  0
M  END
>  <MODEL>
5

>  <REMARK>
 VINA RESULT:      -7.2      2.340      6.192
  Name = 
  1 active torsions:
  status: ('A' for Active; 'I' for Inactive)
    1  A    between atoms: C_9  and  N_15
                            x       y       z     vdW  Elec       q    Type
                         _______ _______ _______ _____ _____    ______ ____

>  <TORSDO>
F 1

$$$$
=
 OpenBabel11052418203D

 27 31  0  0  1  0  0  0  0  0999 V2000
  189.2880  178.0670  144.0920 C   0  0  0  0  0  2  0  0  0  0  0  0
  188.2170  176.4530  142.5730 C   0  0  0  0  0  0  0  0  0  0  0  0
  190.0250  175.2050  143.7730 O   0  0  0  0  0  0  0  0  0  0  0  0
  188.5100  173.6950  139.3580 C   0  0  0  0  0  3  0  0  0  0  0  0
  190.7690  173.0170  140.0630 C   0  0  0  0  0  2  0  0  0  0  0  0
  187.3840  176.5040  141.4990 N   0  0  0  0  0  0  0  0  0  0  0  0
  190.4550  173.4970  141.4860 C   0  0  1  0  0  3  0  0  0  0  0  0
  190.8100  175.7430  147.3350 C   0  0  0  0  0  0  0  0  0  0  0  0
  191.7800  173.9230  142.0970 C   0  0  0  0  0  1  0  0  0  0  0  0
  191.4390  174.8050  148.6720 Cl  0  0  0  0  0  0  0  0  0  0  0  0
  189.4090  174.6120  141.5080 C   0  0  0  0  0  0  0  0  0  0  0  0
  188.0740  177.4490  143.5930 N   0  0  0  0  0  0  0  0  0  0  0  0
  189.5490  172.8780  139.2060 C   0  0  0  0  0  3  0  0  0  0  0  0
  188.4820  174.6800  140.4470 C   0  0  0  0  0  0  0  0  0  0  0  0
  189.8130  177.2370  145.1940 C   0  0  0  0  0  0  0  0  0  0  0  0
  189.2320  175.4600  142.6320 C   0  0  0  0  0  0  0  0  0  0  0  0
  190.6420  175.1490  146.0830 C   0  0  0  0  0  3  0  0  0  0  0  0
  187.4770  175.6360  140.4640 C   0  0  0  0  0  3  0  0  0  0  0  0
  190.4790  177.0860  147.5200 C   0  0  0  0  0  3  0  0  0  0  0  0
  189.9830  177.8310  146.4490 C   0  0  0  0  0  3  0  0  0  0  0  0
  190.1340  175.8790  145.0010 C   0  0  0  0  0  0  0  0  0  0  0  0
  184.2910  178.6800  145.1080 C   0  0  0  0  0  3  0  0  0  0  0  0
  186.7850  177.8560  144.0990 C   0  0  0  0  0  0  0  0  0  0  0  0
  186.1540  177.1350  145.1260 C   0  0  0  0  0  3  0  0  0  0  0  0
  184.9140  177.5430  145.6260 C   0  0  0  0  0  3  0  0  0  0  0  0
  184.9100  179.4110  144.0900 C   0  0  0  0  0  3  0  0  0  0  0  0
  186.1490  179.0020  143.5900 C   0  0  0  0  0  3  0  0  0  0  0  0
  1 15  1  0  0  0  0
  2 16  1  0  0  0  0
  2 12  1  0  0  0  0
  3 21  1  0  0  0  0
  4 14  1  0  0  0  0
  5  7  1  0  0  0  0
  6  2  2  0  0  0  0
  7 11  1  0  0  0  0
  7  9  1  6  0  0  0
  8 19  1  0  0  0  0
  8 10  1  0  0  0  0
 11 16  2  0  0  0  0
 12  1  1  0  0  0  0
 12 23  1  0  0  0  0
 13  4  2  0  0  0  0
 13  5  1  0  0  0  0
 14 18  2  0  0  0  0
 14 11  1  0  0  0  0
 15 20  1  0  0  0  0
 16  3  1  0  0  0  0
 17  8  2  0  0  0  0
 18  6  1  0  0  0  0
 20 19  2  0  0  0  0
 21 15  2  0  0  0  0
 21 17  1  0  0  0  0
 22 25  1  0  0  0  0
 23 24  1  0  0  0  0
 24 25  2  0  0  0  0
 26 22  2  0  0  0  0
 27 26  1  0  0  0  0
 27 23  2  0  0  0  0
M  END
>  <MODEL>
6

>  <REMARK>
 VINA RESULT:      -7.2      1.926      5.652
  Name = 
  1 active torsions:
  status: ('A' for Active; 'I' for Inactive)
    1  A    between atoms: C_9  and  N_15
                            x       y       z     vdW  Elec       q    Type
                         _______ _______ _______ _____ _____    ______ ____

>  <TORSDO>
F 1

$$$$
=
 OpenBabel11052418203D

 27 31  0  0  1  0  0  0  0  0999 V2000
  191.5680  177.0730  143.6040 C   0  0  0  0  0  2  0  0  0  0  0  0
  190.1550  175.3250  142.6020 C   0  0  0  0  0  0  0  0  0  0  0  0
  192.4900  174.4250  142.6180 O   0  0  0  0  0  0  0  0  0  0  0  0
  189.2440  172.7780  139.3290 C   0  0  0  0  0  3  0  0  0  0  0  0
  191.6290  172.5400  138.7690 C   0  0  0  0  0  2  0  0  0  0  0  0
  188.9020  175.2410  142.0780 N   0  0  0  0  0  0  0  0  0  0  0  0
  191.9920  172.9050  140.2150 C   0  0  1  0  0  3  0  0  0  0  0  0
  194.8440  175.0010  145.3970 C   0  0  0  0  0  0  0  0  0  0  0  0
  193.3590  173.5670  140.1600 C   0  0  0  0  0  1  0  0  0  0  0  0
  196.1920  174.1660  146.1380 Cl  0  0  0  0  0  0  0  0  0  0  0  0
  190.9340  173.7890  140.8760 C   0  0  0  0  0  0  0  0  0  0  0  0
  190.3820  176.2420  143.6790 N   0  0  0  0  0  0  0  0  0  0  0  0
  190.1840  172.1870  138.5960 C   0  0  0  0  0  3  0  0  0  0  0  0
  189.6050  173.7040  140.4100 C   0  0  0  0  0  0  0  0  0  0  0  0
  192.6940  176.3300  144.2050 C   0  0  0  0  0  0  0  0  0  0  0  0
  191.2070  174.5520  142.0420 C   0  0  0  0  0  0  0  0  0  0  0  0
  194.1720  174.4220  144.3180 C   0  0  0  0  0  3  0  0  0  0  0  0
  188.6050  174.4420  141.0270 C   0  0  0  0  0  3  0  0  0  0  0  0
  194.4410  176.2450  145.8830 C   0  0  0  0  0  3  0  0  0  0  0  0
  193.3690  176.9080  145.2850 C   0  0  0  0  0  3  0  0  0  0  0  0
  193.0870  175.0690  143.7150 C   0  0  0  0  0  0  0  0  0  0  0  0
  187.6620  176.5880  146.9350 C   0  0  0  0  0  3  0  0  0  0  0  0
  189.4680  176.3700  144.7890 C   0  0  0  0  0  0  0  0  0  0  0  0
  188.5490  177.4310  144.8470 C   0  0  0  0  0  3  0  0  0  0  0  0
  187.6530  177.5410  145.9140 C   0  0  0  0  0  3  0  0  0  0  0  0
  188.5660  175.5230  146.8880 C   0  0  0  0  0  3  0  0  0  0  0  0
  189.4620  175.4150  145.8200 C   0  0  0  0  0  3  0  0  0  0  0  0
  1 12  1  0  0  0  0
  1 15  1  0  0  0  0
  2 12  1  0  0  0  0
  3 21  1  0  0  0  0
  4 14  1  0  0  0  0
  5  7  1  0  0  0  0
  6  2  1  0  0  0  0
  7  9  1  6  0  0  0
  7 11  1  0  0  0  0
  8 19  1  0  0  0  0
  8 10  1  0  0  0  0
 11 16  1  0  0  0  0
 12 23  1  0  0  0  0
 13  5  1  0  0  0  0
 13  4  2  0  0  0  0
 14 11  2  0  0  0  0
 14 18  1  0  0  0  0
 15 20  1  0  0  0  0
 16  2  2  0  0  0  0
 16  3  1  0  0  0  0
 17  8  2  0  0  0  0
 18  6  2  0  0  0  0
 20 19  2  0  0  0  0
 21 15  2  0  0  0  0
 21 17  1  0  0  0  0
 23 24  2  0  0  0  0
 23 27  1  0  0  0  0
 24 25  1  0  0  0  0
 25 22  2  0  0  0  0
 26 22  1  0  0  0  0
 27 26  2  0  0  0  0
M  END
>  <MODEL>
7

>  <REMARK>
 VINA RESULT:      -7.1      2.918      6.225
  Name = 
  1 active torsions:
  status: ('A' for Active; 'I' for Inactive)
    1  A    between atoms: C_9  and  N_15
                            x       y       z     vdW  Elec       q    Type
                         _______ _______ _______ _____ _____    ______ ____

>  <TORSDO>
F 1

$$$$
=
 OpenBabel11052418203D

 27 31  0  0  1  0  0  0  0  0999 V2000
  189.6910  173.7670  144.2880 C   0  0  0  0  0  2  0  0  0  0  0  0
  191.3660  175.5570  144.5100 C   0  0  0  0  0  0  0  0  0  0  0  0
  191.7250  174.5270  142.2570 O   0  0  0  0  0  0  0  0  0  0  0  0
  195.4290  176.7910  144.5410 C   0  0  0  0  0  3  0  0  0  0  0  0
  196.0170  175.1140  142.8380 C   0  0  0  0  0  2  0  0  0  0  0  0
  191.8850  176.3110  145.5160 N   0  0  0  0  0  0  0  0  0  0  0  0
  194.5540  175.0880  142.3770 C   0  0  1  0  0  3  0  0  0  0  0  0
  188.9530  173.4120  140.0970 C   0  0  0  0  0  0  0  0  0  0  0  0
  194.3040  173.6950  141.8210 C   0  0  0  0  0  1  0  0  0  0  0  0
  188.6390  173.2540  138.3820 Cl  0  0  0  0  0  0  0  0  0  0  0  0
  193.5830  175.4600  143.4980 C   0  0  0  0  0  0  0  0  0  0  0  0
  189.9960  175.1510  144.6010 N   0  0  0  0  0  0  0  0  0  0  0  0
  196.3390  176.2880  143.7110 C   0  0  0  0  0  3  0  0  0  0  0  0
  194.0500  176.2860  144.5410 C   0  0  0  0  0  0  0  0  0  0  0  0
  189.4650  173.6600  142.8330 C   0  0  0  0  0  0  0  0  0  0  0  0
  192.1990  175.1500  143.4330 C   0  0  0  0  0  0  0  0  0  0  0  0
  190.1820  173.9060  140.5390 C   0  0  0  0  0  3  0  0  0  0  0  0
  193.1820  176.6990  145.5410 C   0  0  0  0  0  3  0  0  0  0  0  0
  187.9770  173.0410  141.0220 C   0  0  0  0  0  3  0  0  0  0  0  0
  188.2350  173.1630  142.3880 C   0  0  0  0  0  3  0  0  0  0  0  0
  190.4520  174.0470  141.9050 C   0  0  0  0  0  0  0  0  0  0  0  0
  186.8770  177.7870  145.8030 C   0  0  0  0  0  3  0  0  0  0  0  0
  188.9480  176.0550  145.0110 C   0  0  0  0  0  0  0  0  0  0  0  0
  188.4780  177.0540  144.1420 C   0  0  0  0  0  3  0  0  0  0  0  0
  187.4510  177.9160  144.5360 C   0  0  0  0  0  3  0  0  0  0  0  0
  187.3310  176.7940  146.6760 C   0  0  0  0  0  3  0  0  0  0  0  0
  188.3580  175.9330  146.2810 C   0  0  0  0  0  3  0  0  0  0  0  0
  1 12  1  0  0  0  0
  2 12  1  0  0  0  0
  2  6  1  0  0  0  0
  3 16  1  0  0  0  0
  5 13  1  0  0  0  0
  6 18  2  0  0  0  0
  7  9  1  1  0  0  0
  7  5  1  0  0  0  0
  7 11  1  0  0  0  0
  8 17  2  0  0  0  0
  8 19  1  0  0  0  0
 10  8  1  0  0  0  0
 11 14  2  0  0  0  0
 12 23  1  0  0  0  0
 13  4  2  0  0  0  0
 14  4  1  0  0  0  0
 14 18  1  0  0  0  0
 15  1  1  0  0  0  0
 16 11  1  0  0  0  0
 16  2  2  0  0  0  0
 17 21  1  0  0  0  0
 19 20  2  0  0  0  0
 20 15  1  0  0  0  0
 21  3  1  0  0  0  0
 21 15  2  0  0  0  0
 22 26  1  0  0  0  0
 23 27  1  0  0  0  0
 24 25  1  0  0  0  0
 24 23  2  0  0  0  0
 25 22  2  0  0  0  0
 27 26  2  0  0  0  0
M  END
>  <MODEL>
8

>  <REMARK>
 VINA RESULT:      -7.1      3.422      7.672
  Name = 
  1 active torsions:
  status: ('A' for Active; 'I' for Inactive)
    1  A    between atoms: C_9  and  N_15
                            x       y       z     vdW  Elec       q    Type
                         _______ _______ _______ _____ _____    ______ ____

>  <TORSDO>
F 1

$$$$
=
 OpenBabel11052418203D

 27 31  0  0  1  0  0  0  0  0999 V2000
  188.7170  172.6660  142.4040 C   0  0  0  0  0  2  0  0  0  0  0  0
  188.1410  175.0450  142.1490 C   0  0  0  0  0  0  0  0  0  0  0  0
  189.4570  174.8590  144.2690 O   0  0  0  0  0  0  0  0  0  0  0  0
  186.2810  178.5490  143.6650 C   0  0  0  0  0  3  0  0  0  0  0  0
  186.8570  177.9300  145.9760 C   0  0  0  0  0  2  0  0  0  0  0  0
  187.2700  175.7810  141.4060 N   0  0  0  0  0  0  0  0  0  0  0  0
  188.0020  177.0570  145.4450 C   0  0  1  0  0  3  0  0  0  0  0  0
  192.3540  172.6090  144.6410 C   0  0  0  0  0  0  0  0  0  0  0  0
  188.1910  175.9360  146.4530 C   0  0  0  0  0  1  0  0  0  0  0  0
  193.8460  172.5690  145.5560 Cl  0  0  0  0  0  0  0  0  0  0  0  0
  187.7320  176.5410  144.0300 C   0  0  0  0  0  0  0  0  0  0  0  0
  188.6890  173.8540  141.5720 N   0  0  0  0  0  0  0  0  0  0  0  0
  186.3160  178.8800  144.9530 C   0  0  0  0  0  3  0  0  0  0  0  0
  186.8800  177.2930  143.1950 C   0  0  0  0  0  0  0  0  0  0  0  0
  189.9680  172.6770  143.1880 C   0  0  0  0  0  0  0  0  0  0  0  0
  188.4390  175.4400  143.4800 C   0  0  0  0  0  0  0  0  0  0  0  0
  191.4810  173.6900  144.7760 C   0  0  0  0  0  3  0  0  0  0  0  0
  186.6630  176.8920  141.8850 C   0  0  0  0  0  3  0  0  0  0  0  0
  192.0370  171.5600  143.7780 C   0  0  0  0  0  3  0  0  0  0  0  0
  190.8440  171.5950  143.0550 C   0  0  0  0  0  3  0  0  0  0  0  0
  190.2860  173.7460  144.0480 C   0  0  0  0  0  0  0  0  0  0  0  0
  190.1330  173.7590  137.5690 C   0  0  0  0  0  3  0  0  0  0  0  0
  189.1750  173.8080  140.2140 C   0  0  0  0  0  0  0  0  0  0  0  0
  188.2830  173.8170  139.1280 C   0  0  0  0  0  3  0  0  0  0  0  0
  188.7580  173.7910  137.8140 C   0  0  0  0  0  3  0  0  0  0  0  0
  191.0320  173.7560  138.6380 C   0  0  0  0  0  3  0  0  0  0  0  0
  190.5560  173.7820  139.9510 C   0  0  0  0  0  3  0  0  0  0  0  0
  1 15  1  0  0  0  0
  2 16  1  0  0  0  0
  4 13  2  0  0  0  0
  6 18  1  0  0  0  0
  6  2  2  0  0  0  0
  7  5  1  0  0  0  0
  7  9  1  1  0  0  0
  8 17  1  0  0  0  0
  8 10  1  0  0  0  0
 11  7  1  0  0  0  0
 12  2  1  0  0  0  0
 12  1  1  0  0  0  0
 13  5  1  0  0  0  0
 14  4  1  0  0  0  0
 14 11  1  0  0  0  0
 15 21  1  0  0  0  0
 16 11  2  0  0  0  0
 16  3  1  0  0  0  0
 18 14  2  0  0  0  0
 19  8  2  0  0  0  0
 20 15  2  0  0  0  0
 20 19  1  0  0  0  0
 21  3  1  0  0  0  0
 21 17  2  0  0  0  0
 22 25  2  0  0  0  0
 22 26  1  0  0  0  0
 23 12  1  0  0  0  0
 24 23  2  0  0  0  0
 25 24  1  0  0  0  0
 26 27  2  0  0  0  0
 27 23  1  0  0  0  0
M  END
>  <MODEL>
9

>  <REMARK>
 VINA RESULT:      -7.1      2.771      4.010
  Name = 
  1 active torsions:
  status: ('A' for Active; 'I' for Inactive)
    1  A    between atoms: C_9  and  N_15
                            x       y       z     vdW  Elec       q    Type
                         _______ _______ _______ _____ _____    ______ ____

>  <TORSDO>
F 1

$$$$
