=
 OpenBabel11052419553D

 37 41  0  0  1  0  0  0  0  0999 V2000
  187.0950  177.5530  144.7140 C   0  0  0  0  0  0  0  0  0  0  0  0
  188.0450  176.7500  146.8390 C   0  0  0  0  0  2  0  0  0  0  0  0
  187.9610  176.6880  143.8410 C   0  0  2  0  0  3  0  0  0  0  0  0
  187.1780  177.6290  146.0010 C   0  0  0  0  0  0  0  0  0  0  0  0
  187.1690  176.0270  142.8900 O   0  0  0  0  0  0  0  0  0  0  0  0
  186.1870  178.5030  146.4760 N   0  0  0  0  0  2  0  0  0  0  0  0
  189.2310  176.2000  146.0310 C   0  0  2  0  0  3  0  0  0  0  0  0
  185.0200  177.7970  143.4090 C   0  0  0  0  0  2  0  0  0  0  0  0
  185.4390  179.0180  145.4550 O   0  0  0  0  0  0  0  0  0  0  0  0
  186.0530  178.5190  144.2710 C   0  0  1  0  0  3  0  0  0  0  0  0
  188.7610  175.6500  144.6540 C   0  0  2  0  0  3  0  0  0  0  0  0
  186.9270  176.9710  141.8790 C   0  0  2  0  0  3  0  0  0  0  0  0
  185.5060  177.5470  141.9740 C   0  0  0  0  0  2  0  0  0  0  0  0
  190.8130  176.1980  143.2120 C   0  0  0  0  0  2  0  0  0  0  0  0
  192.0310  176.4560  144.0880 C   0  0  0  0  0  2  0  0  0  0  0  0
  192.9090  174.0590  144.1540 C   0  0  2  0  0  3  0  0  0  0  0  0
  193.1590  175.5050  143.6980 C   0  0  2  0  0  3  0  0  0  0  0  0
  191.7250  173.5020  143.6080 O   0  0  0  0  0  0  0  0  0  0  0  0
  190.6190  173.8980  144.3870 C   0  0  1  0  0  3  0  0  0  0  0  0
  193.1120  173.8060  145.6530 C   0  0  0  0  0  1  0  0  0  0  0  0
  189.8930  175.0980  143.7650 C   0  0  1  0  0  3  0  0  0  0  0  0
  189.2460  172.2110  143.1790 C   0  0  0  0  0  1  0  0  0  0  0  0
  189.6610  172.7270  144.5420 C   0  0  0  0  0  2  0  0  0  0  0  0
  195.4920  175.8690  143.5050 C   0  0  0  0  0  2  0  0  0  0  0  0
  194.4220  175.9830  144.2040 N   0  0  0  0  0  0  0  0  0  0  0  0
  186.5800  176.9710  139.4050 C   0  0  0  0  0  3  0  0  0  0  0  0
  187.1710  176.3820  140.5280 C   0  0  0  0  0  0  0  0  0  0  0  0
  187.9560  175.2280  140.3750 C   0  0  0  0  0  3  0  0  0  0  0  0
  188.9330  173.5810  138.9550 F   0  0  0  0  0  0  0  0  0  0  0  0
  187.5680  175.2770  137.9850 C   0  0  0  0  0  3  0  0  0  0  0  0
  188.1560  174.6810  139.1040 C   0  0  0  0  0  0  0  0  0  0  0  0
  186.7790  176.4210  138.1350 C   0  0  0  0  0  3  0  0  0  0  0  0
  189.9050  175.1130  146.8610 C   0  0  0  0  0  2  0  0  0  0  0  0
  190.9340  175.6820  147.7870 C   0  0  0  0  0  0  0  0  0  0  0  0
  191.4680  174.9610  148.6150 O   0  0  0  0  0  0  0  0  0  0  0  0
  191.3250  177.1220  147.6930 C   0  0  0  0  0  2  0  0  0  0  0  0
  191.4730  177.7190  149.0780 C   0  0  0  0  0  1  0  0  0  0  0  0
  1  4  2  0  0  0  0
  3  5  1  6  0  0  0
  3 11  1  0  0  0  0
  3  1  1  0  0  0  0
  4  6  1  0  0  0  0
  4  2  1  0  0  0  0
  7  2  1  0  0  0  0
  7 33  1  1  0  0  0
  9  6  1  0  0  0  0
 10  8  1  6  0  0  0
 10  1  1  0  0  0  0
 10  9  1  0  0  0  0
 11 21  1  6  0  0  0
 11  7  1  0  0  0  0
 12 27  1  6  0  0  0
 12 13  1  0  0  0  0
 12  5  1  0  0  0  0
 13  8  1  0  0  0  0
 14 15  1  0  0  0  0
 16 20  1  1  0  0  0
 17 15  1  0  0  0  0
 17 16  1  0  0  0  0
 17 25  1  1  0  0  0
 18 16  1  0  0  0  0
 18 19  1  0  0  0  0
 19 23  1  6  0  0  0
 21 14  1  1  0  0  0
 21 19  1  0  0  0  0
 22 23  1  0  0  0  0
 24 25  2  0  0  0  0
 26 27  1  0  0  0  0
 28 27  2  0  0  0  0
 29 31  1  0  0  0  0
 30 32  1  0  0  0  0
 30 31  2  0  0  0  0
 31 28  1  0  0  0  0
 32 26  2  0  0  0  0
 33 34  1  0  0  0  0
 34 35  2  0  0  0  0
 36 34  1  0  0  0  0
 36 37  1  0  0  0  0
M  END
>  <MODEL>
1

>  <REMARK>
 VINA RESULT:      -7.6      0.000      0.000
  Name = 
  7 active torsions:
  status: ('A' for Active; 'I' for Inactive)
    1  A    between atoms: C_3  and  C_21
    2  A    between atoms: C_6  and  C_31
    3  A    between atoms: C_17  and  N_23
    4  A    between atoms: C_20  and  C_25
    5  A    between atoms: C_21  and  C_25
    6  A    between atoms: C_27  and  C_33
    7  A    between atoms: C_29  and  C_36
                            x       y       z     vdW  Elec       q    Type
                         _______ _______ _______ _____ _____    ______ ____

>  <TORSDO>
F 7

$$$$
=
 OpenBabel11052419553D

 37 41  0  0  1  0  0  0  0  0999 V2000
  187.1090  177.9700  146.0910 C   0  0  0  0  0  0  0  0  0  0  0  0
  188.8680  176.7810  147.3360 C   0  0  0  0  0  2  0  0  0  0  0  0
  187.5520  177.4910  144.7360 C   0  0  2  0  0  3  0  0  0  0  0  0
  187.7160  177.7200  147.2020 C   0  0  0  0  0  0  0  0  0  0  0  0
  186.4480  176.9970  144.0220 O   0  0  0  0  0  0  0  0  0  0  0  0
  186.9950  178.2960  148.2610 N   0  0  0  0  0  2  0  0  0  0  0  0
  189.6230  176.6300  146.0060 C   0  0  2  0  0  3  0  0  0  0  0  0
  184.6750  178.2570  145.8360 C   0  0  0  0  0  2  0  0  0  0  0  0
  185.8820  178.9490  147.8140 O   0  0  0  0  0  0  0  0  0  0  0  0
  185.9600  178.8650  146.3950 C   0  0  1  0  0  3  0  0  0  0  0  0
  188.6360  176.3970  144.8280 C   0  0  2  0  0  3  0  0  0  0  0  0
  185.7920  178.1290  143.5120 C   0  0  2  0  0  3  0  0  0  0  0  0
  184.5280  178.4580  144.3200 C   0  0  0  0  0  2  0  0  0  0  0  0
  190.3120  177.3810  143.1510 C   0  0  0  0  0  2  0  0  0  0  0  0
  191.7380  177.0290  143.5500 C   0  0  0  0  0  2  0  0  0  0  0  0
  191.9270  174.8530  142.2270 C   0  0  2  0  0  3  0  0  0  0  0  0
  192.4290  176.2950  142.4040 C   0  0  2  0  0  3  0  0  0  0  0  0
  190.5380  174.7780  141.9550 O   0  0  0  0  0  0  0  0  0  0  0  0
  189.8200  174.8380  143.1660 C   0  0  1  0  0  3  0  0  0  0  0  0
  192.4370  173.8550  143.2740 C   0  0  0  0  0  1  0  0  0  0  0  0
  189.3070  176.2570  143.4470 C   0  0  1  0  0  3  0  0  0  0  0  0
  187.7020  174.2420  142.0060 C   0  0  0  0  0  1  0  0  0  0  0  0
  188.6580  173.8590  143.1180 C   0  0  0  0  0  2  0  0  0  0  0  0
  194.6450  176.3000  141.5640 C   0  0  0  0  0  2  0  0  0  0  0  0
  193.8600  176.3140  142.5790 N   0  0  0  0  0  0  0  0  0  0  0  0
  186.4970  177.6960  141.1550 C   0  0  0  0  0  3  0  0  0  0  0  0
  185.4650  177.9500  142.0650 C   0  0  0  0  0  0  0  0  0  0  0  0
  184.1440  178.0660  141.6040 C   0  0  0  0  0  3  0  0  0  0  0  0
  182.5830  178.0030  139.8040 F   0  0  0  0  0  0  0  0  0  0  0  0
  184.8950  177.6550  139.3390 C   0  0  0  0  0  3  0  0  0  0  0  0
  183.8610  177.9140  140.2440 C   0  0  0  0  0  0  0  0  0  0  0  0
  186.2120  177.5470  139.7940 C   0  0  0  0  0  3  0  0  0  0  0  0
  190.6000  175.4670  146.1470 C   0  0  0  0  0  2  0  0  0  0  0  0
  191.5940  175.7110  147.2400 C   0  0  0  0  0  0  0  0  0  0  0  0
  191.4460  175.1680  148.3240 O   0  0  0  0  0  0  0  0  0  0  0  0
  192.7740  176.5990  147.0080 C   0  0  0  0  0  2  0  0  0  0  0  0
  193.9130  175.8110  146.3930 C   0  0  0  0  0  1  0  0  0  0  0  0
  1 10  1  0  0  0  0
  1  4  2  0  0  0  0
  3  5  1  1  0  0  0
  3 11  1  0  0  0  0
  3  1  1  0  0  0  0
  4  2  1  0  0  0  0
  4  6  1  0  0  0  0
  7 33  1  1  0  0  0
  7  2  1  0  0  0  0
  9  6  1  0  0  0  0
 10  8  1  1  0  0  0
 10  9  1  0  0  0  0
 11 21  1  6  0  0  0
 11  7  1  0  0  0  0
 12 27  1  6  0  0  0
 12  5  1  0  0  0  0
 12 13  1  0  0  0  0
 13  8  1  0  0  0  0
 14 15  1  0  0  0  0
 16 17  1  0  0  0  0
 16 20  1  1  0  0  0
 17 25  1  1  0  0  0
 17 15  1  0  0  0  0
 18 16  1  0  0  0  0
 18 19  1  0  0  0  0
 19 23  1  6  0  0  0
 19 21  1  0  0  0  0
 21 14  1  1  0  0  0
 22 23  1  0  0  0  0
 24 25  2  0  0  0  0
 26 27  1  0  0  0  0
 28 27  2  0  0  0  0
 29 31  1  0  0  0  0
 30 32  1  0  0  0  0
 30 31  2  0  0  0  0
 31 28  1  0  0  0  0
 32 26  2  0  0  0  0
 33 34  1  0  0  0  0
 34 35  2  0  0  0  0
 36 34  1  0  0  0  0
 37 36  1  0  0  0  0
M  END
>  <MODEL>
2

>  <REMARK>
 VINA RESULT:      -7.4      2.061      2.636
  Name = 
  7 active torsions:
  status: ('A' for Active; 'I' for Inactive)
    1  A    between atoms: C_3  and  C_21
    2  A    between atoms: C_6  and  C_31
    3  A    between atoms: C_17  and  N_23
    4  A    between atoms: C_20  and  C_25
    5  A    between atoms: C_21  and  C_25
    6  A    between atoms: C_27  and  C_33
    7  A    between atoms: C_29  and  C_36
                            x       y       z     vdW  Elec       q    Type
                         _______ _______ _______ _____ _____    ______ ____

>  <TORSDO>
F 7

$$$$
=
 OpenBabel11052419553D

 37 41  0  0  1  0  0  0  0  0999 V2000
  190.6520  176.7380  146.2570 C   0  0  0  0  0  0  0  0  0  0  0  0
  192.5310  175.2330  146.7770 C   0  0  0  0  0  2  0  0  0  0  0  0
  190.5930  176.3830  144.7970 C   0  0  2  0  0  3  0  0  0  0  0  0
  191.5300  176.2940  147.0940 C   0  0  0  0  0  0  0  0  0  0  0  0
  189.2680  176.0940  144.4320 O   0  0  0  0  0  0  0  0  0  0  0  0
  191.2510  176.8080  148.3710 N   0  0  0  0  0  2  0  0  0  0  0  0
  192.8170  175.1680  145.2680 C   0  0  2  0  0  3  0  0  0  0  0  0
  188.3190  177.3000  146.8120 C   0  0  0  0  0  2  0  0  0  0  0  0
  190.1530  177.6210  148.3560 O   0  0  0  0  0  0  0  0  0  0  0  0
  189.7820  177.7020  146.9830 C   0  0  1  0  0  3  0  0  0  0  0  0
  191.4950  175.1810  144.4490 C   0  0  2  0  0  3  0  0  0  0  0  0
  188.6470  177.3410  144.2520 C   0  0  2  0  0  3  0  0  0  0  0  0
  187.7450  177.6970  145.4430 C   0  0  0  0  0  2  0  0  0  0  0  0
  192.4750  176.3470  142.3830 C   0  0  0  0  0  2  0  0  0  0  0  0
  193.9720  176.0880  142.2800 C   0  0  0  0  0  2  0  0  0  0  0  0
  193.8480  173.9810  140.8430 C   0  0  2  0  0  3  0  0  0  0  0  0
  194.2950  175.4490  140.9320 C   0  0  2  0  0  3  0  0  0  0  0  0
  192.4530  173.8130  141.0280 O   0  0  0  0  0  0  0  0  0  0  0  0
  192.1650  173.7750  142.4070 C   0  0  1  0  0  3  0  0  0  0  0  0
  194.7280  172.9870  141.6100 C   0  0  0  0  0  1  0  0  0  0  0  0
  191.6890  175.1420  142.9200 C   0  0  1  0  0  3  0  0  0  0  0  0
  189.8270  173.0590  141.9480 C   0  0  0  0  0  1  0  0  0  0  0  0
  191.1100  172.7150  142.6780 C   0  0  0  0  0  2  0  0  0  0  0  0
  196.4180  176.4610  141.2170 C   0  0  0  0  0  2  0  0  0  0  0  0
  195.7010  175.5680  140.6390 N   0  0  0  0  0  0  0  0  0  0  0  0
  186.8210  178.2830  142.8320 C   0  0  0  0  0  3  0  0  0  0  0  0
  187.8740  177.3720  142.9740 C   0  0  0  0  0  0  0  0  0  0  0  0
  188.1670  176.4810  141.9300 C   0  0  0  0  0  3  0  0  0  0  0  0
  187.7190  175.6680  139.7340 F   0  0  0  0  0  0  0  0  0  0  0  0
  186.3720  177.4300  140.6100 C   0  0  0  0  0  3  0  0  0  0  0  0
  187.4190  176.5140  140.7500 C   0  0  0  0  0  0  0  0  0  0  0  0
  186.0720  178.3130  141.6510 C   0  0  0  0  0  3  0  0  0  0  0  0
  193.6240  173.9030  144.9950 C   0  0  0  0  0  2  0  0  0  0  0  0
  195.0840  174.1130  145.2530 C   0  0  0  0  0  0  0  0  0  0  0  0
  195.5440  175.2450  145.2370 O   0  0  0  0  0  0  0  0  0  0  0  0
  195.9780  172.9520  145.5450 C   0  0  0  0  0  2  0  0  0  0  0  0
  197.1870  173.4050  146.3390 C   0  0  0  0  0  1  0  0  0  0  0  0
  1 10  1  0  0  0  0
  1  4  2  0  0  0  0
  2  4  1  0  0  0  0
  3  5  1  1  0  0  0
  3  1  1  0  0  0  0
  4  6  1  0  0  0  0
  7 33  1  1  0  0  0
  7  2  1  0  0  0  0
  9  6  1  0  0  0  0
 10  8  1  1  0  0  0
 10  9  1  0  0  0  0
 11 21  1  6  0  0  0
 11  3  1  0  0  0  0
 11  7  1  0  0  0  0
 12 27  1  6  0  0  0
 12  5  1  0  0  0  0
 12 13  1  0  0  0  0
 13  8  1  0  0  0  0
 15 14  1  0  0  0  0
 16 17  1  0  0  0  0
 16 18  1  0  0  0  0
 16 20  1  1  0  0  0
 17 25  1  1  0  0  0
 17 15  1  0  0  0  0
 18 19  1  0  0  0  0
 19 23  1  6  0  0  0
 19 21  1  0  0  0  0
 21 14  1  1  0  0  0
 22 23  1  0  0  0  0
 25 24  2  0  0  0  0
 26 27  1  0  0  0  0
 28 27  2  0  0  0  0
 29 31  1  0  0  0  0
 30 31  2  0  0  0  0
 30 32  1  0  0  0  0
 31 28  1  0  0  0  0
 32 26  2  0  0  0  0
 33 34  1  0  0  0  0
 34 36  1  0  0  0  0
 35 34  2  0  0  0  0
 36 37  1  0  0  0  0
M  END
>  <MODEL>
3

>  <REMARK>
 VINA RESULT:      -7.2      2.356      3.934
  Name = 
  7 active torsions:
  status: ('A' for Active; 'I' for Inactive)
    1  A    between atoms: C_3  and  C_21
    2  A    between atoms: C_6  and  C_31
    3  A    between atoms: C_17  and  N_23
    4  A    between atoms: C_20  and  C_25
    5  A    between atoms: C_21  and  C_25
    6  A    between atoms: C_27  and  C_33
    7  A    between atoms: C_29  and  C_36
                            x       y       z     vdW  Elec       q    Type
                         _______ _______ _______ _____ _____    ______ ____

>  <TORSDO>
F 7

$$$$
=
 OpenBabel11052419553D

 37 41  0  0  1  0  0  0  0  0999 V2000
  190.4070  176.3890  146.0390 C   0  0  0  0  0  0  0  0  0  0  0  0
  192.0030  174.5610  146.4490 C   0  0  0  0  0  2  0  0  0  0  0  0
  190.0840  175.9760  144.6300 C   0  0  2  0  0  3  0  0  0  0  0  0
  191.2830  175.8200  146.7980 C   0  0  0  0  0  0  0  0  0  0  0  0
  188.6920  175.9470  144.4500 O   0  0  0  0  0  0  0  0  0  0  0  0
  191.2830  176.4490  148.0540 N   0  0  0  0  0  2  0  0  0  0  0  0
  192.0670  174.3560  144.9270 C   0  0  2  0  0  3  0  0  0  0  0  0
  188.3250  177.4490  146.8230 C   0  0  0  0  0  2  0  0  0  0  0  0
  190.3760  177.4690  148.1050 O   0  0  0  0  0  0  0  0  0  0  0  0
  189.8480  177.5490  146.7850 C   0  0  1  0  0  3  0  0  0  0  0  0
  190.6770  174.5970  144.2740 C   0  0  2  0  0  3  0  0  0  0  0  0
  188.3100  177.2830  144.2470 C   0  0  2  0  0  3  0  0  0  0  0  0
  187.6640  177.8810  145.5050 C   0  0  0  0  0  2  0  0  0  0  0  0
  191.6590  175.3510  142.0250 C   0  0  0  0  0  2  0  0  0  0  0  0
  193.0040  174.6830  141.7760 C   0  0  0  0  0  2  0  0  0  0  0  0
  192.1330  172.6300  140.5330 C   0  0  2  0  0  3  0  0  0  0  0  0
  192.9660  173.9190  140.4550 C   0  0  2  0  0  3  0  0  0  0  0  0
  190.7800  172.8630  140.8860 O   0  0  0  0  0  0  0  0  0  0  0  0
  190.6740  172.9700  142.2870 C   0  0  1  0  0  3  0  0  0  0  0  0
  192.8040  171.4670  141.2730 C   0  0  0  0  0  1  0  0  0  0  0  0
  190.6530  174.4360  142.7400 C   0  0  1  0  0  3  0  0  0  0  0  0
  188.1990  172.8420  142.0710 C   0  0  0  0  0  1  0  0  0  0  0  0
  189.4160  172.2560  142.7580 C   0  0  0  0  0  2  0  0  0  0  0  0
  195.3170  174.1990  140.5390 C   0  0  0  0  0  2  0  0  0  0  0  0
  194.3020  173.6310  139.9980 N   0  0  0  0  0  0  0  0  0  0  0  0
  187.9300  177.3800  141.7800 C   0  0  0  0  0  3  0  0  0  0  0  0
  187.3950  177.4040  143.0720 C   0  0  0  0  0  0  0  0  0  0  0  0
  186.0130  177.5740  143.2490 C   0  0  0  0  0  3  0  0  0  0  0  0
  183.8390  177.8460  142.3090 F   0  0  0  0  0  0  0  0  0  0  0  0
  185.7150  177.6750  140.8470 C   0  0  0  0  0  3  0  0  0  0  0  0
  185.1750  177.7050  142.1370 C   0  0  0  0  0  0  0  0  0  0  0  0
  187.0910  177.5140  140.6690 C   0  0  0  0  0  3  0  0  0  0  0  0
  192.5660  172.9400  144.6620 C   0  0  0  0  0  2  0  0  0  0  0  0
  193.9860  172.7620  145.1010 C   0  0  0  0  0  0  0  0  0  0  0  0
  194.2720  171.8560  145.8690 O   0  0  0  0  0  0  0  0  0  0  0  0
  195.0560  173.6750  144.5950 C   0  0  0  0  0  2  0  0  0  0  0  0
  195.7340  174.3830  145.7520 C   0  0  0  0  0  1  0  0  0  0  0  0
  1 10  1  0  0  0  0
  1  4  2  0  0  0  0
  2  4  1  0  0  0  0
  3  5  1  1  0  0  0
  3  1  1  0  0  0  0
  4  6  1  0  0  0  0
  6  9  1  0  0  0  0
  7 33  1  1  0  0  0
  7  2  1  0  0  0  0
 10  8  1  1  0  0  0
 10  9  1  0  0  0  0
 11 21  1  6  0  0  0
 11  3  1  0  0  0  0
 11  7  1  0  0  0  0
 12 27  1  6  0  0  0
 12  5  1  0  0  0  0
 12 13  1  0  0  0  0
 13  8  1  0  0  0  0
 15 14  1  0  0  0  0
 16 18  1  0  0  0  0
 16 20  1  1  0  0  0
 17 25  1  1  0  0  0
 17 16  1  0  0  0  0
 17 15  1  0  0  0  0
 18 19  1  0  0  0  0
 19 21  1  0  0  0  0
 19 23  1  6  0  0  0
 21 14  1  6  0  0  0
 22 23  1  0  0  0  0
 25 24  2  0  0  0  0
 26 27  1  0  0  0  0
 27 28  2  0  0  0  0
 30 31  2  0  0  0  0
 31 29  1  0  0  0  0
 31 28  1  0  0  0  0
 32 30  1  0  0  0  0
 32 26  2  0  0  0  0
 33 34  1  0  0  0  0
 34 35  2  0  0  0  0
 36 34  1  0  0  0  0
 36 37  1  0  0  0  0
M  END
>  <MODEL>
4

>  <REMARK>
 VINA RESULT:      -7.0      2.575      4.110
  Name = 
  7 active torsions:
  status: ('A' for Active; 'I' for Inactive)
    1  A    between atoms: C_3  and  C_21
    2  A    between atoms: C_6  and  C_31
    3  A    between atoms: C_17  and  N_23
    4  A    between atoms: C_20  and  C_25
    5  A    between atoms: C_21  and  C_25
    6  A    between atoms: C_27  and  C_33
    7  A    between atoms: C_29  and  C_36
                            x       y       z     vdW  Elec       q    Type
                         _______ _______ _______ _____ _____    ______ ____

>  <TORSDO>
F 7

$$$$
=
 OpenBabel11052419553D

 37 41  0  0  1  0  0  0  0  0999 V2000
  189.7350  174.1450  141.1290 C   0  0  0  0  0  0  0  0  0  0  0  0
  191.8440  173.3740  140.1190 C   0  0  0  0  0  2  0  0  0  0  0  0
  190.3270  174.4280  142.4820 C   0  0  2  0  0  3  0  0  0  0  0  0
  190.3740  173.6270  140.1330 C   0  0  0  0  0  0  0  0  0  0  0  0
  189.9370  175.7060  142.9140 O   0  0  0  0  0  0  0  0  0  0  0  0
  189.5140  173.5470  139.0260 N   0  0  0  0  0  2  0  0  0  0  0  0
  192.3960  173.2110  141.5440 C   0  0  2  0  0  3  0  0  0  0  0  0
  187.9030  175.7810  140.9440 C   0  0  0  0  0  2  0  0  0  0  0  0
  188.2690  174.0250  139.3210 O   0  0  0  0  0  0  0  0  0  0  0  0
  188.3200  174.3300  140.7110 C   0  0  1  0  0  3  0  0  0  0  0  0
  191.8660  174.3340  142.4800 C   0  0  2  0  0  3  0  0  0  0  0  0
  188.6330  175.5540  143.4100 C   0  0  2  0  0  3  0  0  0  0  0  0
  187.5870  176.0840  142.4170 C   0  0  0  0  0  2  0  0  0  0  0  0
  192.0200  172.8860  144.5940 C   0  0  0  0  0  2  0  0  0  0  0  0
  193.1410  171.8650  144.4640 C   0  0  0  0  0  2  0  0  0  0  0  0
  195.0040  173.2820  145.4850 C   0  0  2  0  0  3  0  0  0  0  0  0
  194.1250  172.0280  145.6190 C   0  0  2  0  0  3  0  0  0  0  0  0
  194.2530  174.4830  145.4420 O   0  0  0  0  0  0  0  0  0  0  0  0
  193.8020  174.7070  144.1260 C   0  0  1  0  0  3  0  0  0  0  0  0
  196.1250  173.1810  144.4450 C   0  0  0  0  0  1  0  0  0  0  0  0
  192.3530  174.2360  143.9400 C   0  0  1  0  0  3  0  0  0  0  0  0
  193.1870  177.0140  144.8250 C   0  0  0  0  0  1  0  0  0  0  0  0
  193.9220  176.1850  143.7910 C   0  0  0  0  0  2  0  0  0  0  0  0
  194.4280  169.6790  145.6700 C   0  0  0  0  0  2  0  0  0  0  0  0
  194.9440  170.8500  145.7570 N   0  0  0  0  0  0  0  0  0  0  0  0
  187.2300  176.6940  145.1350 C   0  0  0  0  0  3  0  0  0  0  0  0
  188.4860  176.2210  144.7390 C   0  0  0  0  0  0  0  0  0  0  0  0
  189.5950  176.4080  145.5790 C   0  0  0  0  0  3  0  0  0  0  0  0
  190.5080  177.2090  147.6310 F   0  0  0  0  0  0  0  0  0  0  0  0
  188.1820  177.5170  147.2040 C   0  0  0  0  0  3  0  0  0  0  0  0
  189.4400  177.0510  146.8110 C   0  0  0  0  0  0  0  0  0  0  0  0
  187.0780  177.3400  146.3660 C   0  0  0  0  0  3  0  0  0  0  0  0
  193.9200  173.2290  141.4650 C   0  0  0  0  0  2  0  0  0  0  0  0
  194.4480  172.0410  140.7250 C   0  0  0  0  0  0  0  0  0  0  0  0
  195.1370  172.2060  139.7290 O   0  0  0  0  0  0  0  0  0  0  0  0
  194.1530  170.6560  141.2030 C   0  0  0  0  0  2  0  0  0  0  0  0
  195.3190  170.1180  142.0090 C   0  0  0  0  0  1  0  0  0  0  0  0
  2  4  1  0  0  0  0
  2  7  1  0  0  0  0
  3  1  1  6  0  0  0
  3  5  1  0  0  0  0
  4  1  2  0  0  0  0
  5 12  1  0  0  0  0
  6  9  1  0  0  0  0
  6  4  1  0  0  0  0
  7 33  1  6  0  0  0
  7 11  1  0  0  0  0
  8 13  1  0  0  0  0
  9 10  1  0  0  0  0
 10  8  1  6  0  0  0
 10  1  1  0  0  0  0
 11  3  1  0  0  0  0
 11 21  1  1  0  0  0
 12 27  1  1  0  0  0
 13 12  1  0  0  0  0
 15 14  1  0  0  0  0
 15 17  1  0  0  0  0
 16 20  1  6  0  0  0
 16 17  1  0  0  0  0
 17 25  1  6  0  0  0
 18 16  1  0  0  0  0
 19 23  1  1  0  0  0
 19 18  1  0  0  0  0
 21 19  1  0  0  0  0
 21 14  1  6  0  0  0
 23 22  1  0  0  0  0
 24 25  2  0  0  0  0
 26 32  1  0  0  0  0
 27 26  2  0  0  0  0
 27 28  1  0  0  0  0
 28 31  2  0  0  0  0
 31 30  1  0  0  0  0
 31 29  1  0  0  0  0
 32 30  2  0  0  0  0
 34 36  1  0  0  0  0
 34 33  1  0  0  0  0
 35 34  2  0  0  0  0
 36 37  1  0  0  0  0
M  END
>  <MODEL>
5

>  <REMARK>
 VINA RESULT:      -6.4      3.350      6.477
  Name = 
  7 active torsions:
  status: ('A' for Active; 'I' for Inactive)
    1  A    between atoms: C_3  and  C_21
    2  A    between atoms: C_6  and  C_31
    3  A    between atoms: C_17  and  N_23
    4  A    between atoms: C_20  and  C_25
    5  A    between atoms: C_21  and  C_25
    6  A    between atoms: C_27  and  C_33
    7  A    between atoms: C_29  and  C_36
                            x       y       z     vdW  Elec       q    Type
                         _______ _______ _______ _____ _____    ______ ____

>  <TORSDO>
F 7

$$$$
=
 OpenBabel11052419553D

 37 41  0  0  1  0  0  0  0  0999 V2000
  188.9790  176.6760  143.3940 C   0  0  0  0  0  0  0  0  0  0  0  0
  190.1100  177.3940  145.4600 C   0  0  0  0  0  2  0  0  0  0  0  0
  190.0410  175.6900  142.9920 C   0  0  2  0  0  3  0  0  0  0  0  0
  189.0420  177.4570  144.4200 C   0  0  0  0  0  0  0  0  0  0  0  0
  189.4480  174.4630  142.6570 O   0  0  0  0  0  0  0  0  0  0  0  0
  187.8570  178.2070  144.5010 N   0  0  0  0  0  2  0  0  0  0  0  0
  191.3980  176.7690  144.9000 C   0  0  2  0  0  3  0  0  0  0  0  0
  186.9110  175.7060  142.4720 C   0  0  0  0  0  2  0  0  0  0  0  0
  186.9980  177.9020  143.4830 O   0  0  0  0  0  0  0  0  0  0  0  0
  187.7200  176.9870  142.6650 C   0  0  1  0  0  3  0  0  0  0  0  0
  191.0870  175.4700  144.1040 C   0  0  2  0  0  3  0  0  0  0  0  0
  188.9660  174.6220  141.3480 C   0  0  2  0  0  3  0  0  0  0  0  0
  187.4440  174.8280  141.3300 C   0  0  0  0  0  2  0  0  0  0  0  0
  193.1170  175.7130  142.5520 C   0  0  0  0  0  2  0  0  0  0  0  0
  194.2480  176.4470  143.2590 C   0  0  0  0  0  2  0  0  0  0  0  0
  195.4250  174.3980  144.2260 C   0  0  2  0  0  3  0  0  0  0  0  0
  195.5080  175.5860  143.2540 C   0  0  2  0  0  3  0  0  0  0  0  0
  194.3520  173.5190  143.9380 O   0  0  0  0  0  0  0  0  0  0  0  0
  193.1680  174.0210  144.5130 C   0  0  1  0  0  3  0  0  0  0  0  0
  195.5870  174.7590  145.7070 C   0  0  0  0  0  1  0  0  0  0  0  0
  192.3230  174.7860  143.4850 C   0  0  1  0  0  3  0  0  0  0  0  0
  192.1140  171.8150  144.0510 C   0  0  0  0  0  1  0  0  0  0  0  0
  192.3630  172.8740  145.1060 C   0  0  0  0  0  2  0  0  0  0  0  0
  197.7910  176.1440  142.9570 C   0  0  0  0  0  2  0  0  0  0  0  0
  196.6720  176.3880  143.5350 N   0  0  0  0  0  0  0  0  0  0  0  0
  188.7960  173.3340  139.2150 C   0  0  0  0  0  3  0  0  0  0  0  0
  189.3540  173.4610  140.4910 C   0  0  0  0  0  0  0  0  0  0  0  0
  190.2420  172.4810  140.9610 C   0  0  0  0  0  3  0  0  0  0  0  0
  191.4540  170.4610  140.5980 F   0  0  0  0  0  0  0  0  0  0  0  0
  190.0220  171.2740  138.8740 C   0  0  0  0  0  3  0  0  0  0  0  0
  190.5780  171.3930  140.1510 C   0  0  0  0  0  0  0  0  0  0  0  0
  189.1300  172.2430  138.4060 C   0  0  0  0  0  3  0  0  0  0  0  0
  192.3350  176.4900  146.0710 C   0  0  0  0  0  2  0  0  0  0  0  0
  191.5790  176.2790  147.3450 C   0  0  0  0  0  0  0  0  0  0  0  0
  191.3780  177.2250  148.0920 O   0  0  0  0  0  0  0  0  0  0  0  0
  191.0550  174.9260  147.7010 C   0  0  0  0  0  2  0  0  0  0  0  0
  189.5600  174.8590  147.4540 C   0  0  0  0  0  1  0  0  0  0  0  0
  1  4  2  0  0  0  0
  3  5  1  1  0  0  0
  3  1  1  0  0  0  0
  3 11  1  0  0  0  0
  4  6  1  0  0  0  0
  4  2  1  0  0  0  0
  7  2  1  0  0  0  0
  7 33  1  1  0  0  0
  9  6  1  0  0  0  0
 10  8  1  1  0  0  0
 10  1  1  0  0  0  0
 10  9  1  0  0  0  0
 11 21  1  6  0  0  0
 11  7  1  0  0  0  0
 12 27  1  6  0  0  0
 12  5  1  0  0  0  0
 13 12  1  0  0  0  0
 13  8  1  0  0  0  0
 14 15  1  0  0  0  0
 16 20  1  1  0  0  0
 17 15  1  0  0  0  0
 17 25  1  1  0  0  0
 17 16  1  0  0  0  0
 18 16  1  0  0  0  0
 18 19  1  0  0  0  0
 19 23  1  6  0  0  0
 21 14  1  1  0  0  0
 21 19  1  0  0  0  0
 22 23  1  0  0  0  0
 24 25  2  0  0  0  0
 26 27  1  0  0  0  0
 27 28  2  0  0  0  0
 30 31  2  0  0  0  0
 31 29  1  0  0  0  0
 31 28  1  0  0  0  0
 32 30  1  0  0  0  0
 32 26  2  0  0  0  0
 33 34  1  0  0  0  0
 34 36  1  0  0  0  0
 34 35  2  0  0  0  0
 37 36  1  0  0  0  0
M  END
>  <MODEL>
6

>  <REMARK>
 VINA RESULT:      -6.4      2.115      3.016
  Name = 
  7 active torsions:
  status: ('A' for Active; 'I' for Inactive)
    1  A    between atoms: C_3  and  C_21
    2  A    between atoms: C_6  and  C_31
    3  A    between atoms: C_17  and  N_23
    4  A    between atoms: C_20  and  C_25
    5  A    between atoms: C_21  and  C_25
    6  A    between atoms: C_27  and  C_33
    7  A    between atoms: C_29  and  C_36
                            x       y       z     vdW  Elec       q    Type
                         _______ _______ _______ _____ _____    ______ ____

>  <TORSDO>
F 7

$$$$
=
 OpenBabel11052419553D

 37 41  0  0  1  0  0  0  0  0999 V2000
  187.1760  176.4810  143.2440 C   0  0  0  0  0  0  0  0  0  0  0  0
  187.4290  175.7980  140.8920 C   0  0  0  0  0  2  0  0  0  0  0  0
  188.4490  175.8320  143.7130 C   0  0  2  0  0  3  0  0  0  0  0  0
  186.7030  176.4070  142.0450 C   0  0  0  0  0  0  0  0  0  0  0  0
  189.1910  176.7420  144.4820 O   0  0  0  0  0  0  0  0  0  0  0  0
  185.5230  177.1650  141.9670 N   0  0  0  0  0  2  0  0  0  0  0  0
  188.4620  174.7640  141.3670 C   0  0  2  0  0  3  0  0  0  0  0  0
  186.9160  178.4070  144.7570 C   0  0  0  0  0  2  0  0  0  0  0  0
  185.2190  177.7450  143.1660 O   0  0  0  0  0  0  0  0  0  0  0  0
  186.2020  177.2470  144.0680 C   0  0  1  0  0  3  0  0  0  0  0  0
  189.3140  175.3250  142.5410 C   0  0  2  0  0  3  0  0  0  0  0  0
  188.6020  176.7270  145.7570 C   0  0  2  0  0  3  0  0  0  0  0  0
  187.7250  177.9670  145.9870 C   0  0  0  0  0  2  0  0  0  0  0  0
  189.7490  173.0340  143.6130 C   0  0  0  0  0  2  0  0  0  0  0  0
  189.7130  171.9340  142.5610 C   0  0  0  0  0  2  0  0  0  0  0  0
  192.1970  171.9570  141.9690 C   0  0  2  0  0  3  0  0  0  0  0  0
  191.0290  171.1620  142.5750 C   0  0  2  0  0  3  0  0  0  0  0  0
  192.4530  173.1740  142.6490 O   0  0  0  0  0  0  0  0  0  0  0  0
  191.5780  174.1700  142.1720 C   0  0  1  0  0  3  0  0  0  0  0  0
  192.1860  172.0610  140.4390 C   0  0  0  0  0  1  0  0  0  0  0  0
  190.3650  174.3430  143.0970 C   0  0  1  0  0  3  0  0  0  0  0  0
  193.0060  175.8330  143.3480 C   0  0  0  0  0  1  0  0  0  0  0  0
  192.3290  175.4850  142.0380 C   0  0  0  0  0  2  0  0  0  0  0  0
  191.6830  168.9240  142.1540 C   0  0  0  0  0  2  0  0  0  0  0  0
  190.8800  169.8940  141.9060 N   0  0  0  0  0  0  0  0  0  0  0  0
  190.2730  175.3760  147.0300 C   0  0  0  0  0  3  0  0  0  0  0  0
  189.6400  176.6060  146.8240 C   0  0  0  0  0  0  0  0  0  0  0  0
  189.9650  177.7000  147.6420 C   0  0  0  0  0  3  0  0  0  0  0  0
  191.2540  178.6250  149.4210 F   0  0  0  0  0  0  0  0  0  0  0  0
  191.5590  176.3310  148.8460 C   0  0  0  0  0  3  0  0  0  0  0  0
  190.9260  177.5620  148.6470 C   0  0  0  0  0  0  0  0  0  0  0  0
  191.2320  175.2380  148.0380 C   0  0  0  0  0  3  0  0  0  0  0  0
  189.3390  174.3920  140.1760 C   0  0  0  0  0  2  0  0  0  0  0  0
  188.6410  173.4450  139.2500 C   0  0  0  0  0  0  0  0  0  0  0  0
  187.8120  172.6660  139.6950 O   0  0  0  0  0  0  0  0  0  0  0  0
  188.9380  173.4580  137.7860 C   0  0  0  0  0  2  0  0  0  0  0  0
  188.1900  174.5890  137.1070 C   0  0  0  0  0  1  0  0  0  0  0  0
  1 10  1  0  0  0  0
  2  7  1  0  0  0  0
  2  4  1  0  0  0  0
  3  1  1  6  0  0  0
  3  5  1  0  0  0  0
  4  1  2  0  0  0  0
  5 12  1  0  0  0  0
  6  4  1  0  0  0  0
  6  9  1  0  0  0  0
  7 33  1  6  0  0  0
  7 11  1  0  0  0  0
  8 13  1  0  0  0  0
  9 10  1  0  0  0  0
 10  8  1  6  0  0  0
 11 21  1  1  0  0  0
 11  3  1  0  0  0  0
 12 13  1  0  0  0  0
 12 27  1  1  0  0  0
 15 17  1  0  0  0  0
 15 14  1  0  0  0  0
 16 20  1  6  0  0  0
 16 17  1  0  0  0  0
 16 18  1  0  0  0  0
 17 25  1  6  0  0  0
 19 23  1  1  0  0  0
 19 18  1  0  0  0  0
 19 21  1  0  0  0  0
 21 14  1  6  0  0  0
 23 22  1  0  0  0  0
 25 24  2  0  0  0  0
 26 32  1  0  0  0  0
 27 26  2  0  0  0  0
 27 28  1  0  0  0  0
 28 31  2  0  0  0  0
 31 30  1  0  0  0  0
 31 29  1  0  0  0  0
 32 30  2  0  0  0  0
 34 35  2  0  0  0  0
 34 33  1  0  0  0  0
 36 34  1  0  0  0  0
 37 36  1  0  0  0  0
M  END
>  <MODEL>
7

>  <REMARK>
 VINA RESULT:      -6.4      3.038      6.668
  Name = 
  7 active torsions:
  status: ('A' for Active; 'I' for Inactive)
    1  A    between atoms: C_3  and  C_21
    2  A    between atoms: C_6  and  C_31
    3  A    between atoms: C_17  and  N_23
    4  A    between atoms: C_20  and  C_25
    5  A    between atoms: C_21  and  C_25
    6  A    between atoms: C_27  and  C_33
    7  A    between atoms: C_29  and  C_36
                            x       y       z     vdW  Elec       q    Type
                         _______ _______ _______ _____ _____    ______ ____

>  <TORSDO>
F 7

$$$$
=
 OpenBabel11052419553D

 37 41  0  0  1  0  0  0  0  0999 V2000
  190.9300  173.3450  140.9620 C   0  0  0  0  0  0  0  0  0  0  0  0
  193.2350  173.0530  140.1480 C   0  0  0  0  0  2  0  0  0  0  0  0
  191.3270  173.7510  142.3540 C   0  0  2  0  0  3  0  0  0  0  0  0
  191.7490  172.9800  140.0330 C   0  0  0  0  0  0  0  0  0  0  0  0
  190.6320  174.9130  142.7280 O   0  0  0  0  0  0  0  0  0  0  0  0
  191.0260  172.7130  138.8590 N   0  0  0  0  0  2  0  0  0  0  0  0
  193.6840  173.0150  141.6180 C   0  0  2  0  0  3  0  0  0  0  0  0
  188.8080  174.5420  140.5930 C   0  0  0  0  0  2  0  0  0  0  0  0
  189.6860  172.9090  139.0390 O   0  0  0  0  0  0  0  0  0  0  0  0
  189.5490  173.2180  140.4230 C   0  0  1  0  0  3  0  0  0  0  0  0
  192.8440  173.9950  142.4840 C   0  0  2  0  0  3  0  0  0  0  0  0
  189.3540  174.4800  143.1150 C   0  0  2  0  0  3  0  0  0  0  0  0
  188.3080  174.7680  142.0270 C   0  0  0  0  0  2  0  0  0  0  0  0
  193.4100  172.5960  144.5600 C   0  0  0  0  0  2  0  0  0  0  0  0
  194.8570  172.1270  144.5120 C   0  0  0  0  0  2  0  0  0  0  0  0
  195.8910  174.1050  145.7530 C   0  0  2  0  0  3  0  0  0  0  0  0
  195.5950  172.5960  145.7630 C   0  0  2  0  0  3  0  0  0  0  0  0
  194.7210  174.9000  145.6700 O   0  0  0  0  0  0  0  0  0  0  0  0
  194.3230  175.0090  144.3230 C   0  0  1  0  0  3  0  0  0  0  0  0
  197.0340  174.5350  144.8250 C   0  0  0  0  0  1  0  0  0  0  0  0
  193.2120  174.0050  143.9810 C   0  0  1  0  0  3  0  0  0  0  0  0
  192.6640  176.7630  144.9210 C   0  0  0  0  0  1  0  0  0  0  0  0
  193.8530  176.4280  144.0440 C   0  0  0  0  0  2  0  0  0  0  0  0
  196.7770  170.5690  146.0880 C   0  0  0  0  0  2  0  0  0  0  0  0
  196.8100  171.8440  145.9470 N   0  0  0  0  0  0  0  0  0  0  0  0
  188.2260  176.2940  144.4090 C   0  0  0  0  0  3  0  0  0  0  0  0
  188.9520  175.0980  144.4140 C   0  0  0  0  0  0  0  0  0  0  0  0
  189.3200  174.5140  145.6360 C   0  0  0  0  0  3  0  0  0  0  0  0
  189.2870  174.5410  148.0200 F   0  0  0  0  0  0  0  0  0  0  0  0
  188.2190  176.3110  146.8310 C   0  0  0  0  0  3  0  0  0  0  0  0
  188.9500  175.1190  146.8410 C   0  0  0  0  0  0  0  0  0  0  0  0
  187.8580  176.8990  145.6150 C   0  0  0  0  0  3  0  0  0  0  0  0
  195.1680  173.3650  141.6670 C   0  0  0  0  0  2  0  0  0  0  0  0
  195.5530  174.2980  140.5610 C   0  0  0  0  0  0  0  0  0  0  0  0
  196.0680  173.8530  139.5470 O   0  0  0  0  0  0  0  0  0  0  0  0
  195.2950  175.7650  140.6830 C   0  0  0  0  0  2  0  0  0  0  0  0
  196.4290  176.4380  141.4300 C   0  0  0  0  0  1  0  0  0  0  0  0
  2  7  1  0  0  0  0
  3  1  1  6  0  0  0
  3 11  1  0  0  0  0
  3  5  1  0  0  0  0
  4  2  1  0  0  0  0
  4  1  2  0  0  0  0
  5 12  1  0  0  0  0
  6  9  1  0  0  0  0
  6  4  1  0  0  0  0
  7 33  1  6  0  0  0
  7 11  1  0  0  0  0
  8 13  1  0  0  0  0
  9 10  1  0  0  0  0
 10  8  1  6  0  0  0
 10  1  1  0  0  0  0
 11 21  1  1  0  0  0
 12 27  1  1  0  0  0
 13 12  1  0  0  0  0
 15 14  1  0  0  0  0
 15 17  1  0  0  0  0
 16 20  1  6  0  0  0
 16 17  1  0  0  0  0
 17 25  1  6  0  0  0
 18 16  1  0  0  0  0
 19 23  1  1  0  0  0
 19 18  1  0  0  0  0
 21 19  1  0  0  0  0
 21 14  1  6  0  0  0
 23 22  1  0  0  0  0
 25 24  2  0  0  0  0
 26 27  2  0  0  0  0
 26 32  1  0  0  0  0
 27 28  1  0  0  0  0
 28 31  2  0  0  0  0
 30 31  1  0  0  0  0
 31 29  1  0  0  0  0
 32 30  2  0  0  0  0
 34 36  1  0  0  0  0
 34 33  1  0  0  0  0
 35 34  2  0  0  0  0
 36 37  1  0  0  0  0
M  END
>  <MODEL>
8

>  <REMARK>
 VINA RESULT:      -6.3      3.550      6.704
  Name = 
  7 active torsions:
  status: ('A' for Active; 'I' for Inactive)
    1  A    between atoms: C_3  and  C_21
    2  A    between atoms: C_6  and  C_31
    3  A    between atoms: C_17  and  N_23
    4  A    between atoms: C_20  and  C_25
    5  A    between atoms: C_21  and  C_25
    6  A    between atoms: C_27  and  C_33
    7  A    between atoms: C_29  and  C_36
                            x       y       z     vdW  Elec       q    Type
                         _______ _______ _______ _____ _____    ______ ____

>  <TORSDO>
F 7

$$$$
=
 OpenBabel11052419553D

 37 41  0  0  1  0  0  0  0  0999 V2000
  189.4080  176.3780  144.5080 C   0  0  0  0  0  0  0  0  0  0  0  0
  191.0460  176.0780  146.3210 C   0  0  0  0  0  2  0  0  0  0  0  0
  190.1160  175.4780  143.5330 C   0  0  2  0  0  3  0  0  0  0  0  0
  189.8440  176.6890  145.6830 C   0  0  0  0  0  0  0  0  0  0  0  0
  189.2020  174.5720  142.9710 O   0  0  0  0  0  0  0  0  0  0  0  0
  188.9030  177.5140  146.3200 N   0  0  0  0  0  2  0  0  0  0  0  0
  192.0230  175.5340  145.2670 C   0  0  2  0  0  3  0  0  0  0  0  0
  187.0350  176.1470  143.8890 C   0  0  0  0  0  2  0  0  0  0  0  0
  187.8200  177.7500  145.5210 O   0  0  0  0  0  0  0  0  0  0  0  0
  188.1410  177.1240  144.2840 C   0  0  1  0  0  3  0  0  0  0  0  0
  191.2740  174.6990  144.1900 C   0  0  2  0  0  3  0  0  0  0  0  0
  188.5300  175.2890  141.9680 C   0  0  2  0  0  3  0  0  0  0  0  0
  187.1230  175.7050  142.4210 C   0  0  0  0  0  2  0  0  0  0  0  0
  192.9690  175.2190  142.3340 C   0  0  0  0  0  2  0  0  0  0  0  0
  194.3520  175.4580  142.9230 C   0  0  0  0  0  2  0  0  0  0  0  0
  195.1890  173.0490  142.8000 C   0  0  2  0  0  3  0  0  0  0  0  0
  195.3550  174.4920  142.2980 C   0  0  2  0  0  3  0  0  0  0  0  0
  193.9070  172.5100  142.5270 O   0  0  0  0  0  0  0  0  0  0  0  0
  193.0040  172.9200  143.5270 C   0  0  1  0  0  3  0  0  0  0  0  0
  195.7110  172.7910  144.2190 C   0  0  0  0  0  1  0  0  0  0  0  0
  192.1770  174.1320  143.0760 C   0  0  1  0  0  3  0  0  0  0  0  0
  191.3650  171.2640  142.6540 C   0  0  0  0  0  1  0  0  0  0  0  0
  192.0860  171.7630  143.8900 C   0  0  0  0  0  2  0  0  0  0  0  0
  197.5040  175.1260  141.5270 C   0  0  0  0  0  2  0  0  0  0  0  0
  196.7040  174.9500  142.5150 N   0  0  0  0  0  0  0  0  0  0  0  0
  188.8970  173.1700  140.6980 C   0  0  0  0  0  3  0  0  0  0  0  0
  188.4680  174.5010  140.7000 C   0  0  0  0  0  0  0  0  0  0  0  0
  188.0170  175.0880  139.5070 C   0  0  0  0  0  3  0  0  0  0  0  0
  187.5270  174.9020  137.1820 F   0  0  0  0  0  0  0  0  0  0  0  0
  188.4090  173.0080  138.3310 C   0  0  0  0  0  3  0  0  0  0  0  0
  187.9840  174.3400  138.3270 C   0  0  0  0  0  0  0  0  0  0  0  0
  188.8660  172.4230  139.5150 C   0  0  0  0  0  3  0  0  0  0  0  0
  193.0750  174.6950  145.9850 C   0  0  0  0  0  2  0  0  0  0  0  0
  194.2730  175.5120  146.3580 C   0  0  0  0  0  0  0  0  0  0  0  0
  195.3780  174.9920  146.3730 O   0  0  0  0  0  0  0  0  0  0  0  0
  194.1270  176.9600  146.6960 C   0  0  0  0  0  2  0  0  0  0  0  0
  194.9500  177.8070  145.7450 C   0  0  0  0  0  1  0  0  0  0  0  0
  1  4  2  0  0  0  0
  3  5  1  1  0  0  0
  3 11  1  0  0  0  0
  3  1  1  0  0  0  0
  4  6  1  0  0  0  0
  4  2  1  0  0  0  0
  7 33  1  1  0  0  0
  7  2  1  0  0  0  0
  9  6  1  0  0  0  0
 10  8  1  1  0  0  0
 10  1  1  0  0  0  0
 10  9  1  0  0  0  0
 11 21  1  6  0  0  0
 11  7  1  0  0  0  0
 12 27  1  6  0  0  0
 12 13  1  0  0  0  0
 12  5  1  0  0  0  0
 13  8  1  0  0  0  0
 14 15  1  0  0  0  0
 16 20  1  1  0  0  0
 17 25  1  1  0  0  0
 17 16  1  0  0  0  0
 17 15  1  0  0  0  0
 18 16  1  0  0  0  0
 18 19  1  0  0  0  0
 19 23  1  6  0  0  0
 21 14  1  1  0  0  0
 21 19  1  0  0  0  0
 22 23  1  0  0  0  0
 24 25  2  0  0  0  0
 26 27  1  0  0  0  0
 28 27  2  0  0  0  0
 29 31  1  0  0  0  0
 30 32  1  0  0  0  0
 31 30  2  0  0  0  0
 31 28  1  0  0  0  0
 32 26  2  0  0  0  0
 33 34  1  0  0  0  0
 34 35  2  0  0  0  0
 34 36  1  0  0  0  0
 37 36  1  0  0  0  0
M  END
>  <MODEL>
9

>  <REMARK>
 VINA RESULT:      -6.3      2.127      2.964
  Name = 
  7 active torsions:
  status: ('A' for Active; 'I' for Inactive)
    1  A    between atoms: C_3  and  C_21
    2  A    between atoms: C_6  and  C_31
    3  A    between atoms: C_17  and  N_23
    4  A    between atoms: C_20  and  C_25
    5  A    between atoms: C_21  and  C_25
    6  A    between atoms: C_27  and  C_33
    7  A    between atoms: C_29  and  C_36
                            x       y       z     vdW  Elec       q    Type
                         _______ _______ _______ _____ _____    ______ ____

>  <TORSDO>
F 7

$$$$
