=
 OpenBabel11052420453D

 43 48  0  0  1  0  0  0  0  0999 V2000
  188.3320  177.7620  144.2790 C   0  0  0  0  0  0  0  0  0  0  0  0
  193.0310  176.0460  145.0060 C   0  0  0  0  0  0  0  0  0  0  0  0
  194.2900  176.0700  142.4670 C   0  0  0  0  0  0  0  0  0  0  0  0
  190.3600  176.9040  145.2440 C   0  0  0  0  0  0  0  0  0  0  0  0
  188.8300  177.7920  143.0420 C   0  0  0  0  0  3  0  0  0  0  0  0
  186.9350  178.2100  144.5210 C   0  0  0  0  0  1  0  0  0  0  0  0
  190.9870  176.8990  143.9770 C   0  0  0  0  0  0  0  0  0  0  0  0
  189.1300  177.3030  145.3790 N   0  0  0  0  0  0  0  0  0  0  0  0
  190.2360  177.3480  142.7470 C   0  0  0  0  0  2  0  0  0  0  0  0
  192.9550  176.4720  142.6110 O   0  0  0  0  0  0  0  0  0  0  0  0
  192.3200  176.4740  143.8630 C   0  0  0  0  0  0  0  0  0  0  0  0
  192.3890  176.0500  146.2540 C   0  0  0  0  0  3  0  0  0  0  0  0
  194.3140  175.6430  144.8750 C   0  0  0  0  0  0  0  0  0  0  0  0
  194.9670  175.6640  143.5490 C   0  0  0  0  0  3  0  0  0  0  0  0
  191.0660  176.4770  146.3700 C   0  0  0  0  0  3  0  0  0  0  0  0
  194.9140  176.1030  141.1700 N   0  0  0  0  0  0  0  0  0  0  0  0
  196.3170  176.4820  141.0290 C   0  0  0  0  0  1  0  0  0  0  0  0
  194.2170  175.5580  140.0060 C   0  0  2  0  0  3  0  0  0  0  0  0
  193.7890  174.1230  140.2700 C   0  0  2  0  0  3  0  0  0  0  0  0
  195.0000  174.3990  139.4120 C   0  0  0  0  0  2  0  0  0  0  0  0
  192.6030  173.7970  139.3820 C   0  0  0  0  0  2  0  0  0  0  0  0
  192.4140  172.2920  139.2920 C   0  0  2  0  0  3  0  0  0  0  0  0
  190.4200  170.5650  138.9110 S   0  0  0  0  0  0  0  0  0  0  0  0
  192.3790  171.8710  137.9030 N   0  0  0  0  0  2  0  0  0  0  0  0
  191.0980  171.9040  139.9210 C   0  0  1  0  0  3  0  0  0  0  0  0
  191.8660  170.5650  137.8940 N   0  0  0  0  0  2  0  0  0  0  0  0
  190.9710  172.3330  142.4330 N   0  0  0  0  0  0  0  0  0  0  0  0
  191.2950  171.4600  141.3390 C   0  0  0  0  0  0  0  0  0  0  0  0
  191.3090  171.9500  143.7940 C   0  0  0  0  0  1  0  0  0  0  0  0
  191.7670  170.3130  141.5690 O   0  0  0  0  0  0  0  0  0  0  0  0
  190.4220  173.6670  142.2150 C   0  0  0  0  0  2  0  0  0  0  0  0
  189.0840  173.8310  142.9270 C   0  0  0  0  0  2  0  0  0  0  0  0
  188.5690  174.7390  140.7750 O   0  0  0  0  0  1  0  0  0  0  0  0
  187.9970  174.2840  141.9650 C   0  0  0  0  0  2  0  0  0  0  0  0
  195.1090  175.1340  146.0410 C   0  0  0  0  0  2  0  0  0  0  0  0
  194.6520  171.3990  145.5910 C   0  0  0  0  0  3  0  0  0  0  0  0
  195.9750  170.9450  145.6440 C   0  0  0  0  0  0  0  0  0  0  0  0
  196.7390  173.2320  145.9290 C   0  0  0  0  0  3  0  0  0  0  0  0
  194.3730  172.7640  145.7100 C   0  0  0  0  0  3  0  0  0  0  0  0
  195.4150  173.6820  145.8750 C   0  0  0  0  0  0  0  0  0  0  0  0
  197.0190  171.8680  145.8110 C   0  0  0  0  0  3  0  0  0  0  0  0
  195.2490  168.7030  145.3070 O   0  0  0  0  0  1  0  0  0  0  0  0
  196.2370  169.5810  145.5300 O   0  0  0  0  0  0  0  0  0  0  0  0
  1  6  1  0  0  0  0
  1  8  1  0  0  0  0
  2 12  1  0  0  0  0
  3 10  1  0  0  0  0
  3 14  2  0  0  0  0
  4  8  2  0  0  0  0
  4 15  1  0  0  0  0
  5  1  2  0  0  0  0
  7  4  1  0  0  0  0
  9  5  1  0  0  0  0
  9  7  1  0  0  0  0
 10 11  1  0  0  0  0
 11  7  2  0  0  0  0
 11  2  1  0  0  0  0
 12 15  2  0  0  0  0
 13  2  2  0  0  0  0
 13 35  1  0  0  0  0
 14 13  1  0  0  0  0
 16  3  1  0  0  0  0
 17 16  1  0  0  0  0
 18 19  1  0  0  0  0
 18 16  1  1  0  0  0
 19 21  1  6  0  0  0
 20 18  1  0  0  0  0
 20 19  1  0  0  0  0
 22 21  1  6  0  0  0
 22 25  1  0  0  0  0
 23 25  1  0  0  0  0
 24 22  1  0  0  0  0
 25 28  1  1  0  0  0
 26 24  1  0  0  0  0
 26 23  1  0  0  0  0
 27 29  1  0  0  0  0
 28 30  2  0  0  0  0
 28 27  1  0  0  0  0
 31 27  1  0  0  0  0
 31 32  1  0  0  0  0
 33 34  1  0  0  0  0
 34 32  1  0  0  0  0
 36 37  2  0  0  0  0
 36 39  1  0  0  0  0
 37 41  1  0  0  0  0
 39 40  2  0  0  0  0
 40 38  1  0  0  0  0
 40 35  1  0  0  0  0
 41 38  2  0  0  0  0
 42 43  1  0  0  0  0
 43 37  1  0  0  0  0
M  END
>  <MODEL>
1

>  <REMARK>
 VINA RESULT:      -6.5      0.000      0.000
  Name = 
  11 active torsions:
  status: ('A' for Active; 'I' for Inactive)
    1  A    between atoms: C_1  and  C_34
    2  A    between atoms: C_1  and  C_35
    3  A    between atoms: N_2  and  C_6
    4  A    between atoms: N_2  and  C_13
    5  A    between atoms: C_3  and  C_4
    6  A    between atoms: C_3  and  C_12
    7  A    between atoms: N_11  and  C_36
    8  A    between atoms: C_14  and  C_22
    9  A    between atoms: C_19  and  O_37
   10  A    between atoms: C_29  and  C_31
   11  A    between atoms: C_29  and  C_36
                            x       y       z     vdW  Elec       q    Type
                         _______ _______ _______ _____ _____    ______ ____

>  <TORSDO>
F 11

$$$$
=
 OpenBabel11052420453D

 43 48  0  0  1  0  0  0  0  0999 V2000
  196.2690  175.9340  143.2920 C   0  0  0  0  0  0  0  0  0  0  0  0
  191.6230  175.7010  145.2720 C   0  0  0  0  0  0  0  0  0  0  0  0
  190.1310  173.9630  143.6040 C   0  0  0  0  0  0  0  0  0  0  0  0
  194.3210  176.2350  144.6700 C   0  0  0  0  0  0  0  0  0  0  0  0
  195.6460  175.1200  142.4380 C   0  0  0  0  0  3  0  0  0  0  0  0
  197.7010  176.2690  143.0780 C   0  0  0  0  0  1  0  0  0  0  0  0
  193.5690  175.3810  143.8310 C   0  0  0  0  0  0  0  0  0  0  0  0
  195.5710  176.4900  144.4150 N   0  0  0  0  0  0  0  0  0  0  0  0
  194.1980  174.7530  142.6120 C   0  0  0  0  0  2  0  0  0  0  0  0
  191.4700  174.2630  143.3150 O   0  0  0  0  0  0  0  0  0  0  0  0
  192.2250  175.1150  144.1370 C   0  0  0  0  0  0  0  0  0  0  0  0
  192.3840  176.5540  146.0880 C   0  0  0  0  0  3  0  0  0  0  0  0
  190.3290  175.4300  145.5500 C   0  0  0  0  0  0  0  0  0  0  0  0
  189.5580  174.5180  144.6790 C   0  0  0  0  0  3  0  0  0  0  0  0
  193.7210  176.8150  145.7890 C   0  0  0  0  0  3  0  0  0  0  0  0
  189.3970  173.0670  142.7490 N   0  0  0  0  0  0  0  0  0  0  0  0
  189.2830  171.6490  143.0810 C   0  0  0  0  0  1  0  0  0  0  0  0
  188.5820  173.5960  141.6560 C   0  0  2  0  0  3  0  0  0  0  0  0
  189.4680  174.0400  140.5030 C   0  0  2  0  0  3  0  0  0  0  0  0
  188.8780  175.0690  141.4370 C   0  0  0  0  0  2  0  0  0  0  0  0
  188.6590  173.9960  139.2210 C   0  0  0  0  0  2  0  0  0  0  0  0
  189.3020  173.0430  138.2280 C   0  0  2  0  0  3  0  0  0  0  0  0
  191.4510  171.4720  138.0970 S   0  0  0  0  0  0  0  0  0  0  0  0
  188.9350  171.6720  138.5350 N   0  0  0  0  0  2  0  0  0  0  0  0
  190.8050  173.1460  138.3220 C   0  0  1  0  0  3  0  0  0  0  0  0
  189.8190  170.8510  137.8170 N   0  0  0  0  0  2  0  0  0  0  0  0
  192.6100  174.7250  137.4490 N   0  0  0  0  0  0  0  0  0  0  0  0
  191.3420  174.0740  137.2730 C   0  0  0  0  0  0  0  0  0  0  0  0
  193.0470  175.7360  136.4990 C   0  0  0  0  0  1  0  0  0  0  0  0
  190.6600  174.2950  136.2340 O   0  0  0  0  0  0  0  0  0  0  0  0
  193.4320  174.4990  138.6330 C   0  0  0  0  0  2  0  0  0  0  0  0
  194.8540  174.1110  138.2450 C   0  0  0  0  0  2  0  0  0  0  0  0
  196.8320  175.3680  137.7630 O   0  0  0  0  0  1  0  0  0  0  0  0
  195.8630  175.1350  138.7420 C   0  0  0  0  0  2  0  0  0  0  0  0
  189.6190  176.0570  146.7140 C   0  0  0  0  0  2  0  0  0  0  0  0
  187.1070  178.1160  144.7600 C   0  0  0  0  0  3  0  0  0  0  0  0
  185.9330  177.8950  145.4890 C   0  0  0  0  0  0  0  0  0  0  0  0
  187.1590  176.4490  147.0060 C   0  0  0  0  0  3  0  0  0  0  0  0
  188.3030  177.5090  145.1530 C   0  0  0  0  0  3  0  0  0  0  0  0
  188.3300  176.6720  146.2730 C   0  0  0  0  0  0  0  0  0  0  0  0
  185.9630  177.0560  146.6130 C   0  0  0  0  0  3  0  0  0  0  0  0
  183.7720  178.7700  145.9660 O   0  0  0  0  0  1  0  0  0  0  0  0
  184.7500  178.5130  145.0870 O   0  0  0  0  0  0  0  0  0  0  0  0
  1  8  1  0  0  0  0
  2 13  2  0  0  0  0
  2 12  1  0  0  0  0
  3 14  2  0  0  0  0
  4 15  1  0  0  0  0
  5  9  1  0  0  0  0
  5  1  2  0  0  0  0
  6  1  1  0  0  0  0
  7 11  2  0  0  0  0
  7  4  1  0  0  0  0
  8  4  2  0  0  0  0
  9  7  1  0  0  0  0
 10  3  1  0  0  0  0
 10 11  1  0  0  0  0
 11  2  1  0  0  0  0
 13 35  1  0  0  0  0
 14 13  1  0  0  0  0
 15 12  2  0  0  0  0
 16 17  1  0  0  0  0
 16  3  1  0  0  0  0
 18 16  1  1  0  0  0
 19 21  1  6  0  0  0
 19 20  1  0  0  0  0
 19 18  1  0  0  0  0
 20 18  1  0  0  0  0
 22 25  1  0  0  0  0
 22 24  1  0  0  0  0
 22 21  1  1  0  0  0
 23 25  1  0  0  0  0
 25 28  1  6  0  0  0
 26 23  1  0  0  0  0
 26 24  1  0  0  0  0
 27 31  1  0  0  0  0
 28 27  1  0  0  0  0
 29 27  1  0  0  0  0
 30 28  2  0  0  0  0
 32 31  1  0  0  0  0
 32 34  1  0  0  0  0
 33 34  1  0  0  0  0
 36 39  2  0  0  0  0
 36 37  1  0  0  0  0
 37 41  2  0  0  0  0
 39 40  1  0  0  0  0
 40 35  1  0  0  0  0
 40 38  2  0  0  0  0
 41 38  1  0  0  0  0
 43 37  1  0  0  0  0
 43 42  1  0  0  0  0
M  END
>  <MODEL>
2

>  <REMARK>
 VINA RESULT:      -6.5      2.939      7.146
  Name = 
  11 active torsions:
  status: ('A' for Active; 'I' for Inactive)
    1  A    between atoms: C_1  and  C_34
    2  A    between atoms: C_1  and  C_35
    3  A    between atoms: N_2  and  C_6
    4  A    between atoms: N_2  and  C_13
    5  A    between atoms: C_3  and  C_4
    6  A    between atoms: C_3  and  C_12
    7  A    between atoms: N_11  and  C_36
    8  A    between atoms: C_14  and  C_22
    9  A    between atoms: C_19  and  O_37
   10  A    between atoms: C_29  and  C_31
   11  A    between atoms: C_29  and  C_36
                            x       y       z     vdW  Elec       q    Type
                         _______ _______ _______ _____ _____    ______ ____

>  <TORSDO>
F 11

$$$$
=
 OpenBabel11052420453D

 43 48  0  0  1  0  0  0  0  0999 V2000
  185.0370  178.1310  145.8000 C   0  0  0  0  0  0  0  0  0  0  0  0
  188.7920  175.9380  143.2210 C   0  0  0  0  0  0  0  0  0  0  0  0
  191.0470  175.9420  144.9370 C   0  0  0  0  0  0  0  0  0  0  0  0
  186.3610  177.0460  144.1120 C   0  0  0  0  0  0  0  0  0  0  0  0
  186.0450  178.1970  146.6720 C   0  0  0  0  0  3  0  0  0  0  0  0
  183.7040  178.6710  146.1750 C   0  0  0  0  0  1  0  0  0  0  0  0
  187.4930  177.0590  144.9590 C   0  0  0  0  0  0  0  0  0  0  0  0
  185.2270  177.5440  144.5050 N   0  0  0  0  0  0  0  0  0  0  0  0
  187.4120  177.6660  146.3380 C   0  0  0  0  0  3  0  0  0  0  0  0
  189.8300  176.5060  145.3470 O   0  0  0  0  0  0  0  0  0  0  0  0
  188.7020  176.5030  144.5120 C   0  0  0  0  0  0  0  0  0  0  0  0
  187.6600  175.9410  142.3910 C   0  0  0  0  0  2  0  0  0  0  0  0
  189.9640  175.4060  142.8110 C   0  0  0  0  0  0  0  0  0  0  0  0
  191.1350  175.4060  143.7130 C   0  0  0  0  0  3  0  0  0  0  0  0
  186.4550  176.4880  142.8350 C   0  0  0  0  0  3  0  0  0  0  0  0
  192.1760  175.9440  145.8300 N   0  0  0  0  0  0  0  0  0  0  0  0
  192.1610  175.1380  147.0490 C   0  0  0  0  0  1  0  0  0  0  0  0
  193.4290  176.5830  145.4310 C   0  0  2  0  0  3  0  0  0  0  0  0
  194.4150  175.5420  144.9260 C   0  0  2  0  0  3  0  0  0  0  0  0
  194.5710  176.1120  146.3150 C   0  0  0  0  0  2  0  0  0  0  0  0
  195.3980  176.2150  143.9880 C   0  0  0  0  0  2  0  0  0  0  0  0
  195.9060  175.2210  142.9580 C   0  0  2  0  0  3  0  0  0  0  0  0
  195.0320  173.0250  141.7250 S   0  0  0  0  0  0  0  0  0  0  0  0
  195.4000  175.5590  141.6400 N   0  0  0  0  0  2  0  0  0  0  0  0
  195.4100  173.8360  143.2970 C   0  0  1  0  0  3  0  0  0  0  0  0
  195.6140  174.4340  140.8280 N   0  0  0  0  0  2  0  0  0  0  0  0
  196.0710  172.1730  145.1170 N   0  0  0  0  0  0  0  0  0  0  0  0
  196.4490  173.0700  144.0600 C   0  0  0  0  0  0  0  0  0  0  0  0
  197.0920  171.5550  145.9460 C   0  0  0  0  0  1  0  0  0  0  0  0
  197.6690  173.2320  143.7790 O   0  0  0  0  0  0  0  0  0  0  0  0
  194.6740  171.9540  145.4760 C   0  0  0  0  0  2  0  0  0  0  0  0
  194.1220  170.7090  144.7910 C   0  0  0  0  0  2  0  0  0  0  0  0
  192.2950  172.2370  144.5660 O   0  0  0  0  0  1  0  0  0  0  0  0
  192.6790  170.9100  144.3580 C   0  0  0  0  0  2  0  0  0  0  0  0
  190.1380  174.8320  141.4350 C   0  0  0  0  0  2  0  0  0  0  0  0
  191.5380  171.3720  140.7740 C   0  0  0  0  0  3  0  0  0  0  0  0
  190.7050  170.5750  141.5680 C   0  0  0  0  0  0  0  0  0  0  0  0
  189.5160  172.5620  142.3000 C   0  0  0  0  0  3  0  0  0  0  0  0
  191.3580  172.7590  140.7400 C   0  0  0  0  0  3  0  0  0  0  0  0
  190.3510  173.3560  141.5060 C   0  0  0  0  0  0  0  0  0  0  0  0
  189.6940  171.1760  142.3340 C   0  0  0  0  0  3  0  0  0  0  0  0
  190.5390  168.4350  140.5410 O   0  0  0  0  0  1  0  0  0  0  0  0
  190.8920  169.1940  141.5860 O   0  0  0  0  0  0  0  0  0  0  0  0
  1  6  1  0  0  0  0
  1  5  1  0  0  0  0
  2 11  1  0  0  0  0
  3 10  1  0  0  0  0
  3 16  1  0  0  0  0
  4  8  1  0  0  0  0
  4  7  1  0  0  0  0
  7  9  1  0  0  0  0
  8  1  2  0  0  0  0
  9  5  2  0  0  0  0
 11  7  2  0  0  0  0
 11 10  1  0  0  0  0
 12 15  1  0  0  0  0
 12  2  1  0  0  0  0
 13  2  2  0  0  0  0
 13 14  1  0  0  0  0
 14  3  2  0  0  0  0
 15  4  2  0  0  0  0
 16 17  1  0  0  0  0
 18 16  1  1  0  0  0
 18 20  1  0  0  0  0
 19 21  1  6  0  0  0
 19 18  1  0  0  0  0
 19 20  1  0  0  0  0
 22 25  1  0  0  0  0
 22 21  1  1  0  0  0
 23 25  1  0  0  0  0
 24 22  1  0  0  0  0
 25 28  1  6  0  0  0
 26 24  1  0  0  0  0
 26 23  1  0  0  0  0
 27 31  1  0  0  0  0
 27 29  1  0  0  0  0
 28 27  1  0  0  0  0
 30 28  2  0  0  0  0
 32 31  1  0  0  0  0
 34 33  1  0  0  0  0
 34 32  1  0  0  0  0
 35 40  1  0  0  0  0
 35 13  1  0  0  0  0
 36 37  1  0  0  0  0
 37 43  1  0  0  0  0
 37 41  2  0  0  0  0
 38 41  1  0  0  0  0
 39 36  2  0  0  0  0
 39 40  1  0  0  0  0
 40 38  2  0  0  0  0
 42 43  1  0  0  0  0
M  END
>  <MODEL>
3

>  <REMARK>
 VINA RESULT:      -6.3      2.710      5.745
  Name = 
  11 active torsions:
  status: ('A' for Active; 'I' for Inactive)
    1  A    between atoms: C_1  and  C_34
    2  A    between atoms: C_1  and  C_35
    3  A    between atoms: N_2  and  C_6
    4  A    between atoms: N_2  and  C_13
    5  A    between atoms: C_3  and  C_4
    6  A    between atoms: C_3  and  C_12
    7  A    between atoms: N_11  and  C_36
    8  A    between atoms: C_14  and  C_22
    9  A    between atoms: C_19  and  O_37
   10  A    between atoms: C_29  and  C_31
   11  A    between atoms: C_29  and  C_36
                            x       y       z     vdW  Elec       q    Type
                         _______ _______ _______ _____ _____    ______ ____

>  <TORSDO>
F 11

$$$$
=
 OpenBabel11052420453D

 43 48  0  0  1  0  0  0  0  0999 V2000
  185.2730  178.2840  144.2770 C   0  0  0  0  0  0  0  0  0  0  0  0
  189.4380  175.6940  145.5000 C   0  0  0  0  0  0  0  0  0  0  0  0
  189.8380  173.8020  143.4280 C   0  0  0  0  0  0  0  0  0  0  0  0
  187.2400  177.4490  145.3780 C   0  0  0  0  0  0  0  0  0  0  0  0
  185.3650  177.4180  143.2660 C   0  0  0  0  0  3  0  0  0  0  0  0
  184.1590  179.2680  144.3030 C   0  0  0  0  0  1  0  0  0  0  0  0
  187.4350  176.4940  144.3550 C   0  0  0  0  0  0  0  0  0  0  0  0
  186.2370  178.2750  145.3390 N   0  0  0  0  0  0  0  0  0  0  0  0
  186.4720  176.4030  143.1960 C   0  0  0  0  0  2  0  0  0  0  0  0
  188.7410  174.6740  143.4030 O   0  0  0  0  0  0  0  0  0  0  0  0
  188.5340  175.6230  144.4170 C   0  0  0  0  0  0  0  0  0  0  0  0
  189.2240  176.6440  146.5110 C   0  0  0  0  0  3  0  0  0  0  0  0
  190.4910  174.8470  145.5400 C   0  0  0  0  0  0  0  0  0  0  0  0
  190.6980  173.8670  144.4530 C   0  0  0  0  0  3  0  0  0  0  0  0
  188.1360  177.5140  146.4480 C   0  0  0  0  0  3  0  0  0  0  0  0
  190.0280  172.8580  142.3580 N   0  0  0  0  0  0  0  0  0  0  0  0
  189.6220  173.1880  140.9950 C   0  0  0  0  0  1  0  0  0  0  0  0
  190.8170  171.6460  142.5780 C   0  0  2  0  0  3  0  0  0  0  0  0
  192.2320  171.8340  142.0550 C   0  0  2  0  0  3  0  0  0  0  0  0
  191.2340  171.0360  141.2510 C   0  0  0  0  0  2  0  0  0  0  0  0
  193.1560  170.8890  142.7990 C   0  0  0  0  0  2  0  0  0  0  0  0
  194.5140  170.8400  142.1180 C   0  0  2  0  0  3  0  0  0  0  0  0
  196.8760  172.0570  142.3160 S   0  0  0  0  0  0  0  0  0  0  0  0
  195.4320  170.0190  142.8860 N   0  0  0  0  0  2  0  0  0  0  0  0
  195.0970  172.2290  142.0390 C   0  0  1  0  0  3  0  0  0  0  0  0
  196.7190  170.2970  142.4000 N   0  0  0  0  0  2  0  0  0  0  0  0
  194.4380  174.2300  140.5980 N   0  0  0  0  0  0  0  0  0  0  0  0
  194.8190  172.8480  140.7020 C   0  0  0  0  0  0  0  0  0  0  0  0
  194.0250  174.7760  139.3160 C   0  0  0  0  0  1  0  0  0  0  0  0
  194.9060  172.1410  139.6610 O   0  0  0  0  0  0  0  0  0  0  0  0
  194.3260  175.0870  141.7740 C   0  0  0  0  0  2  0  0  0  0  0  0
  192.8740  175.4640  142.0400 C   0  0  0  0  0  2  0  0  0  0  0  0
  191.4310  177.1250  142.9790 O   0  0  0  0  0  1  0  0  0  0  0  0
  192.7720  176.7910  142.7750 C   0  0  0  0  0  2  0  0  0  0  0  0
  191.4610  174.8420  146.6850 C   0  0  0  0  0  2  0  0  0  0  0  0
  194.7880  173.5770  145.3810 C   0  0  0  0  0  3  0  0  0  0  0  0
  195.5320  174.7610  145.3130 C   0  0  0  0  0  0  0  0  0  0  0  0
  193.6080  176.0060  146.1150 C   0  0  0  0  0  3  0  0  0  0  0  0
  193.4600  173.6070  145.8180 C   0  0  0  0  0  3  0  0  0  0  0  0
  192.8670  174.8200  146.1810 C   0  0  0  0  0  0  0  0  0  0  0  0
  194.9360  175.9770  145.6790 C   0  0  0  0  0  3  0  0  0  0  0  0
  197.2720  175.4510  143.8430 O   0  0  0  0  0  1  0  0  0  0  0  0
  196.8570  174.7140  144.8820 O   0  0  0  0  0  0  0  0  0  0  0  0
  1  6  1  0  0  0  0
  1  8  1  0  0  0  0
  2 13  2  0  0  0  0
  2 12  1  0  0  0  0
  3 14  2  0  0  0  0
  4 15  1  0  0  0  0
  5  1  2  0  0  0  0
  7 11  2  0  0  0  0
  7  4  1  0  0  0  0
  8  4  2  0  0  0  0
  9  5  1  0  0  0  0
  9  7  1  0  0  0  0
 10  3  1  0  0  0  0
 10 11  1  0  0  0  0
 11  2  1  0  0  0  0
 13 35  1  0  0  0  0
 14 13  1  0  0  0  0
 15 12  2  0  0  0  0
 16  3  1  0  0  0  0
 17 16  1  0  0  0  0
 18 16  1  6  0  0  0
 19 18  1  0  0  0  0
 19 21  1  1  0  0  0
 20 19  1  0  0  0  0
 20 18  1  0  0  0  0
 22 21  1  1  0  0  0
 22 24  1  0  0  0  0
 23 26  1  0  0  0  0
 25 28  1  6  0  0  0
 25 22  1  0  0  0  0
 25 23  1  0  0  0  0
 26 24  1  0  0  0  0
 27 28  1  0  0  0  0
 27 31  1  0  0  0  0
 29 27  1  0  0  0  0
 30 28  2  0  0  0  0
 31 32  1  0  0  0  0
 32 34  1  0  0  0  0
 34 33  1  0  0  0  0
 36 39  1  0  0  0  0
 37 36  2  0  0  0  0
 37 41  1  0  0  0  0
 38 40  1  0  0  0  0
 39 40  2  0  0  0  0
 40 35  1  0  0  0  0
 41 38  2  0  0  0  0
 42 43  1  0  0  0  0
 43 37  1  0  0  0  0
M  END
>  <MODEL>
4

>  <REMARK>
 VINA RESULT:      -6.3      2.658      4.575
  Name = 
  11 active torsions:
  status: ('A' for Active; 'I' for Inactive)
    1  A    between atoms: C_1  and  C_34
    2  A    between atoms: C_1  and  C_35
    3  A    between atoms: N_2  and  C_6
    4  A    between atoms: N_2  and  C_13
    5  A    between atoms: C_3  and  C_4
    6  A    between atoms: C_3  and  C_12
    7  A    between atoms: N_11  and  C_36
    8  A    between atoms: C_14  and  C_22
    9  A    between atoms: C_19  and  O_37
   10  A    between atoms: C_29  and  C_31
   11  A    between atoms: C_29  and  C_36
                            x       y       z     vdW  Elec       q    Type
                         _______ _______ _______ _____ _____    ______ ____

>  <TORSDO>
F 11

$$$$
=
 OpenBabel11052420453D

 43 48  0  0  1  0  0  0  0  0999 V2000
  195.7220  176.3010  143.2200 C   0  0  0  0  0  0  0  0  0  0  0  0
  190.9960  175.9870  144.9860 C   0  0  0  0  0  0  0  0  0  0  0  0
  189.3890  175.1230  142.8180 C   0  0  0  0  0  0  0  0  0  0  0  0
  193.7620  176.3540  144.6120 C   0  0  0  0  0  0  0  0  0  0  0  0
  195.0480  175.9110  142.1360 C   0  0  0  0  0  3  0  0  0  0  0  0
  197.1910  176.5080  143.1370 C   0  0  0  0  0  1  0  0  0  0  0  0
  192.9550  175.9380  143.5290 C   0  0  0  0  0  0  0  0  0  0  0  0
  195.0430  176.5220  144.4640 N   0  0  0  0  0  0  0  0  0  0  0  0
  193.5610  175.6910  142.1690 C   0  0  0  0  0  2  0  0  0  0  0  0
  190.7660  175.3330  142.6540 O   0  0  0  0  0  0  0  0  0  0  0  0
  191.5760  175.7530  143.7200 C   0  0  0  0  0  0  0  0  0  0  0  0
  191.8120  176.4070  146.0480 C   0  0  0  0  0  3  0  0  0  0  0  0
  189.6670  175.8000  145.1500 C   0  0  0  0  0  0  0  0  0  0  0  0
  188.8360  175.3440  144.0170 C   0  0  0  0  0  3  0  0  0  0  0  0
  193.1830  176.5860  145.8610 C   0  0  0  0  0  3  0  0  0  0  0  0
  188.5950  174.6710  141.7050 N   0  0  0  0  0  0  0  0  0  0  0  0
  187.8530  175.6270  140.8860 C   0  0  0  0  0  1  0  0  0  0  0  0
  188.6840  173.2840  141.2520 C   0  0  2  0  0  3  0  0  0  0  0  0
  189.8450  173.1170  140.2850 C   0  0  2  0  0  3  0  0  0  0  0  0
  188.4330  173.1960  139.7570 C   0  0  0  0  0  2  0  0  0  0  0  0
  190.2970  171.6700  140.3110 C   0  0  0  0  0  2  0  0  0  0  0  0
  191.7920  171.5830  140.0550 C   0  0  2  0  0  3  0  0  0  0  0  0
  193.6830  173.0210  138.8470 S   0  0  0  0  0  0  0  0  0  0  0  0
  192.5170  172.3730  141.0340 N   0  0  0  0  0  2  0  0  0  0  0  0
  192.1100  172.1410  138.6900 C   0  0  1  0  0  3  0  0  0  0  0  0
  193.8220  172.5250  140.5390 N   0  0  0  0  0  2  0  0  0  0  0  0
  191.1530  170.8220  136.7260 N   0  0  0  0  0  0  0  0  0  0  0  0
  192.2090  171.0420  137.6750 C   0  0  0  0  0  0  0  0  0  0  0  0
  191.1920  169.6620  135.8510 C   0  0  0  0  0  1  0  0  0  0  0  0
  193.2260  170.2940  137.6680 O   0  0  0  0  0  0  0  0  0  0  0  0
  189.9600  171.6610  136.6960 C   0  0  0  0  0  2  0  0  0  0  0  0
  189.6830  172.1670  135.2850 C   0  0  0  0  0  2  0  0  0  0  0  0
  190.5900  174.1930  136.1800 O   0  0  0  0  0  1  0  0  0  0  0  0
  189.6990  173.6870  135.2290 C   0  0  0  0  0  2  0  0  0  0  0  0
  188.9830  176.0760  146.4580 C   0  0  0  0  0  2  0  0  0  0  0  0
  185.3490  177.1200  146.7230 C   0  0  0  0  0  3  0  0  0  0  0  0
  185.2780  178.1380  145.7650 C   0  0  0  0  0  0  0  0  0  0  0  0
  187.6360  177.8300  145.2760 C   0  0  0  0  0  3  0  0  0  0  0  0
  186.5580  176.4570  146.9540 C   0  0  0  0  0  3  0  0  0  0  0  0
  187.7040  176.8140  146.2350 C   0  0  0  0  0  0  0  0  0  0  0  0
  186.4280  178.4930  145.0430 C   0  0  0  0  0  3  0  0  0  0  0  0
  183.6450  179.0590  144.2980 O   0  0  0  0  0  1  0  0  0  0  0  0
  184.0640  178.7850  145.5410 O   0  0  0  0  0  0  0  0  0  0  0  0
  1  8  1  0  0  0  0
  2 13  2  0  0  0  0
  2 12  1  0  0  0  0
  3 14  2  0  0  0  0
  4 15  1  0  0  0  0
  5  9  1  0  0  0  0
  5  1  2  0  0  0  0
  6  1  1  0  0  0  0
  7 11  2  0  0  0  0
  7  4  1  0  0  0  0
  8  4  2  0  0  0  0
  9  7  1  0  0  0  0
 10  3  1  0  0  0  0
 10 11  1  0  0  0  0
 11  2  1  0  0  0  0
 13 35  1  0  0  0  0
 14 13  1  0  0  0  0
 15 12  2  0  0  0  0
 16  3  1  0  0  0  0
 17 16  1  0  0  0  0
 18 16  1  6  0  0  0
 19 21  1  1  0  0  0
 19 18  1  0  0  0  0
 20 19  1  0  0  0  0
 20 18  1  0  0  0  0
 22 21  1  1  0  0  0
 22 24  1  0  0  0  0
 23 26  1  0  0  0  0
 25 28  1  6  0  0  0
 25 23  1  0  0  0  0
 25 22  1  0  0  0  0
 26 24  1  0  0  0  0
 27 28  1  0  0  0  0
 29 27  1  0  0  0  0
 30 28  2  0  0  0  0
 31 27  1  0  0  0  0
 32 31  1  0  0  0  0
 34 32  1  0  0  0  0
 34 33  1  0  0  0  0
 36 39  1  0  0  0  0
 37 36  2  0  0  0  0
 38 40  1  0  0  0  0
 40 35  1  0  0  0  0
 40 39  2  0  0  0  0
 41 38  2  0  0  0  0
 41 37  1  0  0  0  0
 42 43  1  0  0  0  0
 43 37  1  0  0  0  0
M  END
>  <MODEL>
5

>  <REMARK>
 VINA RESULT:      -6.2      3.194      7.092
  Name = 
  11 active torsions:
  status: ('A' for Active; 'I' for Inactive)
    1  A    between atoms: C_1  and  C_34
    2  A    between atoms: C_1  and  C_35
    3  A    between atoms: N_2  and  C_6
    4  A    between atoms: N_2  and  C_13
    5  A    between atoms: C_3  and  C_4
    6  A    between atoms: C_3  and  C_12
    7  A    between atoms: N_11  and  C_36
    8  A    between atoms: C_14  and  C_22
    9  A    between atoms: C_19  and  O_37
   10  A    between atoms: C_29  and  C_31
   11  A    between atoms: C_29  and  C_36
                            x       y       z     vdW  Elec       q    Type
                         _______ _______ _______ _____ _____    ______ ____

>  <TORSDO>
F 11

$$$$
=
 OpenBabel11052420453D

 43 48  0  0  1  0  0  0  0  0999 V2000
  185.6010  178.3910  144.7500 C   0  0  0  0  0  0  0  0  0  0  0  0
  189.8170  175.7320  145.5930 C   0  0  0  0  0  0  0  0  0  0  0  0
  189.8840  173.6970  143.6220 C   0  0  0  0  0  0  0  0  0  0  0  0
  187.6730  177.5570  145.6390 C   0  0  0  0  0  0  0  0  0  0  0  0
  185.5330  177.4590  143.7980 C   0  0  0  0  0  3  0  0  0  0  0  0
  184.5290  179.4160  144.8530 C   0  0  0  0  0  1  0  0  0  0  0  0
  187.7030  176.5310  144.6670 C   0  0  0  0  0  0  0  0  0  0  0  0
  186.6970  178.4160  145.6740 N   0  0  0  0  0  0  0  0  0  0  0  0
  186.5920  176.4010  143.6540 C   0  0  0  0  0  2  0  0  0  0  0  0
  188.8180  174.6060  143.6810 O   0  0  0  0  0  0  0  0  0  0  0  0
  188.7750  175.6250  144.6460 C   0  0  0  0  0  0  0  0  0  0  0  0
  189.7670  176.7540  146.5550 C   0  0  0  0  0  3  0  0  0  0  0  0
  190.8410  174.8520  145.5530 C   0  0  0  0  0  0  0  0  0  0  0  0
  190.8740  173.7960  144.5190 C   0  0  0  0  0  3  0  0  0  0  0  0
  188.7040  177.6580  146.5750 C   0  0  0  0  0  3  0  0  0  0  0  0
  189.9030  172.6790  142.6050 N   0  0  0  0  0  0  0  0  0  0  0  0
  190.5730  171.4030  142.8430 C   0  0  0  0  0  1  0  0  0  0  0  0
  189.0790  172.8220  141.4050 C   0  0  2  0  0  3  0  0  0  0  0  0
  189.9440  172.7320  140.1570 C   0  0  2  0  0  3  0  0  0  0  0  0
  189.4640  174.0790  140.6430 C   0  0  0  0  0  2  0  0  0  0  0  0
  189.0800  172.2750  138.9980 C   0  0  0  0  0  2  0  0  0  0  0  0
  189.9460  171.6770  137.9020 C   0  0  2  0  0  3  0  0  0  0  0  0
  192.2770  170.4010  137.6940 S   0  0  0  0  0  0  0  0  0  0  0  0
  189.7220  170.2460  137.8060 N   0  0  0  0  0  2  0  0  0  0  0  0
  191.4040  171.8920  138.2300 C   0  0  1  0  0  3  0  0  0  0  0  0
  190.7780  169.7260  137.0410 N   0  0  0  0  0  2  0  0  0  0  0  0
  193.0410  173.8430  138.0730 N   0  0  0  0  0  0  0  0  0  0  0  0
  191.9350  173.1060  137.5280 C   0  0  0  0  0  0  0  0  0  0  0  0
  193.4470  175.1010  137.4670 C   0  0  0  0  0  1  0  0  0  0  0  0
  191.3890  173.4910  136.4580 O   0  0  0  0  0  0  0  0  0  0  0  0
  193.7040  173.4340  139.3070 C   0  0  0  0  0  2  0  0  0  0  0  0
  193.8430  174.6090  140.2680 C   0  0  0  0  0  2  0  0  0  0  0  0
  192.5120  175.5580  142.0150 O   0  0  0  0  0  1  0  0  0  0  0  0
  193.0740  174.3640  141.5570 C   0  0  0  0  0  2  0  0  0  0  0  0
  191.9550  174.8840  146.5580 C   0  0  0  0  0  2  0  0  0  0  0  0
  194.7910  176.6430  144.7610 C   0  0  0  0  0  3  0  0  0  0  0  0
  195.6840  175.5870  144.5430 C   0  0  0  0  0  0  0  0  0  0  0  0
  194.1550  174.0730  145.6680 C   0  0  0  0  0  3  0  0  0  0  0  0
  193.5820  176.4140  145.4260 C   0  0  0  0  0  3  0  0  0  0  0  0
  193.2640  175.1320  145.8840 C   0  0  0  0  0  0  0  0  0  0  0  0
  195.3620  174.3010  145.0020 C   0  0  0  0  0  3  0  0  0  0  0  0
  197.0370  176.9190  143.1080 O   0  0  0  0  0  1  0  0  0  0  0  0
  196.8820  175.8300  143.8730 O   0  0  0  0  0  0  0  0  0  0  0  0
  1  6  1  0  0  0  0
  1  8  1  0  0  0  0
  2 12  1  0  0  0  0
  3 10  1  0  0  0  0
  3 14  2  0  0  0  0
  4  8  2  0  0  0  0
  4 15  1  0  0  0  0
  5  1  2  0  0  0  0
  7  4  1  0  0  0  0
  9  5  1  0  0  0  0
  9  7  1  0  0  0  0
 10 11  1  0  0  0  0
 11  7  2  0  0  0  0
 11  2  1  0  0  0  0
 12 15  2  0  0  0  0
 13  2  2  0  0  0  0
 13 35  1  0  0  0  0
 14 13  1  0  0  0  0
 16 17  1  0  0  0  0
 16  3  1  0  0  0  0
 18 16  1  1  0  0  0
 19 21  1  6  0  0  0
 19 20  1  0  0  0  0
 19 18  1  0  0  0  0
 20 18  1  0  0  0  0
 22 25  1  0  0  0  0
 22 21  1  1  0  0  0
 23 25  1  0  0  0  0
 24 22  1  0  0  0  0
 25 28  1  6  0  0  0
 26 23  1  0  0  0  0
 26 24  1  0  0  0  0
 27 31  1  0  0  0  0
 28 27  1  0  0  0  0
 29 27  1  0  0  0  0
 30 28  2  0  0  0  0
 31 32  1  0  0  0  0
 32 34  1  0  0  0  0
 34 33  1  0  0  0  0
 36 39  1  0  0  0  0
 37 36  2  0  0  0  0
 37 41  1  0  0  0  0
 38 40  1  0  0  0  0
 39 40  2  0  0  0  0
 40 35  1  0  0  0  0
 41 38  2  0  0  0  0
 42 43  1  0  0  0  0
 43 37  1  0  0  0  0
M  END
>  <MODEL>
6

>  <REMARK>
 VINA RESULT:      -6.2      2.571      4.481
  Name = 
  11 active torsions:
  status: ('A' for Active; 'I' for Inactive)
    1  A    between atoms: C_1  and  C_34
    2  A    between atoms: C_1  and  C_35
    3  A    between atoms: N_2  and  C_6
    4  A    between atoms: N_2  and  C_13
    5  A    between atoms: C_3  and  C_4
    6  A    between atoms: C_3  and  C_12
    7  A    between atoms: N_11  and  C_36
    8  A    between atoms: C_14  and  C_22
    9  A    between atoms: C_19  and  O_37
   10  A    between atoms: C_29  and  C_31
   11  A    between atoms: C_29  and  C_36
                            x       y       z     vdW  Elec       q    Type
                         _______ _______ _______ _____ _____    ______ ____

>  <TORSDO>
F 11

$$$$
=
 OpenBabel11052420453D

 43 48  0  0  1  0  0  0  0  0999 V2000
  185.4260  178.1630  145.4520 C   0  0  0  0  0  0  0  0  0  0  0  0
  189.9110  175.8590  145.8140 C   0  0  0  0  0  0  0  0  0  0  0  0
  190.1400  174.1960  143.5320 C   0  0  0  0  0  0  0  0  0  0  0  0
  187.5930  177.4160  146.1770 C   0  0  0  0  0  0  0  0  0  0  0  0
  185.4320  177.3990  144.3580 C   0  0  0  0  0  3  0  0  0  0  0  0
  184.2570  179.0390  145.7310 C   0  0  0  0  0  1  0  0  0  0  0  0
  187.7050  176.5730  145.0480 C   0  0  0  0  0  0  0  0  0  0  0  0
  186.5350  178.1500  146.3610 N   0  0  0  0  0  0  0  0  0  0  0  0
  186.5900  176.4970  144.0330 C   0  0  0  0  0  2  0  0  0  0  0  0
  188.9880  174.9660  143.7480 O   0  0  0  0  0  0  0  0  0  0  0  0
  188.8630  175.8010  144.8690 C   0  0  0  0  0  0  0  0  0  0  0  0
  189.7790  176.6970  146.9340 C   0  0  0  0  0  3  0  0  0  0  0  0
  191.0190  175.1100  145.6220 C   0  0  0  0  0  0  0  0  0  0  0  0
  191.1350  174.2490  144.4270 C   0  0  0  0  0  3  0  0  0  0  0  0
  188.6300  177.4690  147.1100 C   0  0  0  0  0  3  0  0  0  0  0  0
  190.2400  173.3680  142.3590 N   0  0  0  0  0  0  0  0  0  0  0  0
  189.6410  173.7920  141.0960 C   0  0  0  0  0  1  0  0  0  0  0  0
  191.1150  172.1960  142.3570 C   0  0  2  0  0  3  0  0  0  0  0  0
  192.4420  172.5290  141.6940 C   0  0  2  0  0  3  0  0  0  0  0  0
  191.3980  171.7460  140.9340 C   0  0  0  0  0  2  0  0  0  0  0  0
  193.5020  171.5810  142.2210 C   0  0  0  0  0  2  0  0  0  0  0  0
  194.8540  171.9160  141.6140 C   0  0  2  0  0  3  0  0  0  0  0  0
  196.9220  170.6190  140.5450 S   0  0  0  0  0  0  0  0  0  0  0  0
  194.7620  171.9430  140.1650 N   0  0  0  0  0  2  0  0  0  0  0  0
  195.8600  170.8560  141.9890 C   0  0  1  0  0  3  0  0  0  0  0  0
  196.0790  171.9110  139.6800 N   0  0  0  0  0  2  0  0  0  0  0  0
  196.4550  170.6660  144.4640 N   0  0  0  0  0  0  0  0  0  0  0  0
  196.6630  171.2810  143.1820 C   0  0  0  0  0  0  0  0  0  0  0  0
  197.1290  171.1910  145.6400 C   0  0  0  0  0  1  0  0  0  0  0  0
  197.5160  172.2020  143.0580 O   0  0  0  0  0  0  0  0  0  0  0  0
  195.4800  169.5980  144.6540 C   0  0  0  0  0  2  0  0  0  0  0  0
  194.9560  169.5850  146.0850 C   0  0  0  0  0  2  0  0  0  0  0  0
  194.6510  168.1880  148.0030 O   0  0  0  0  0  1  0  0  0  0  0  0
  194.8370  168.1660  146.6190 C   0  0  0  0  0  2  0  0  0  0  0  0
  192.1460  175.0930  146.6120 C   0  0  0  0  0  2  0  0  0  0  0  0
  195.0230  176.6380  144.6880 C   0  0  0  0  0  3  0  0  0  0  0  0
  195.8820  175.5430  144.5380 C   0  0  0  0  0  0  0  0  0  0  0  0
  194.3140  174.1560  145.7680 C   0  0  0  0  0  3  0  0  0  0  0  0
  193.8130  176.4920  145.3730 C   0  0  0  0  0  3  0  0  0  0  0  0
  193.4590  175.2540  145.9170 C   0  0  0  0  0  0  0  0  0  0  0  0
  195.5240  174.3010  145.0830 C   0  0  0  0  0  3  0  0  0  0  0  0
  197.3200  176.8030  143.1200 O   0  0  0  0  0  1  0  0  0  0  0  0
  197.0820  175.7030  143.8470 O   0  0  0  0  0  0  0  0  0  0  0  0
  1  6  1  0  0  0  0
  1  8  1  0  0  0  0
  2 12  1  0  0  0  0
  3 10  1  0  0  0  0
  3 14  2  0  0  0  0
  4  8  2  0  0  0  0
  4 15  1  0  0  0  0
  5  1  2  0  0  0  0
  7  4  1  0  0  0  0
  9  5  1  0  0  0  0
  9  7  1  0  0  0  0
 10 11  1  0  0  0  0
 11  7  2  0  0  0  0
 11  2  1  0  0  0  0
 12 15  2  0  0  0  0
 13  2  2  0  0  0  0
 13 35  1  0  0  0  0
 14 13  1  0  0  0  0
 16  3  1  0  0  0  0
 17 16  1  0  0  0  0
 18 16  1  6  0  0  0
 19 21  1  1  0  0  0
 19 18  1  0  0  0  0
 20 19  1  0  0  0  0
 20 18  1  0  0  0  0
 22 25  1  0  0  0  0
 22 21  1  1  0  0  0
 23 25  1  0  0  0  0
 24 22  1  0  0  0  0
 25 28  1  1  0  0  0
 26 24  1  0  0  0  0
 26 23  1  0  0  0  0
 27 31  1  0  0  0  0
 27 29  1  0  0  0  0
 28 27  1  0  0  0  0
 30 28  2  0  0  0  0
 31 32  1  0  0  0  0
 32 34  1  0  0  0  0
 34 33  1  0  0  0  0
 36 39  1  0  0  0  0
 37 36  2  0  0  0  0
 37 41  1  0  0  0  0
 38 40  1  0  0  0  0
 39 40  2  0  0  0  0
 40 35  1  0  0  0  0
 41 38  2  0  0  0  0
 42 43  1  0  0  0  0
 43 37  1  0  0  0  0
M  END
>  <MODEL>
7

>  <REMARK>
 VINA RESULT:      -6.1      2.672      5.200
  Name = 
  11 active torsions:
  status: ('A' for Active; 'I' for Inactive)
    1  A    between atoms: C_1  and  C_34
    2  A    between atoms: C_1  and  C_35
    3  A    between atoms: N_2  and  C_6
    4  A    between atoms: N_2  and  C_13
    5  A    between atoms: C_3  and  C_4
    6  A    between atoms: C_3  and  C_12
    7  A    between atoms: N_11  and  C_36
    8  A    between atoms: C_14  and  C_22
    9  A    between atoms: C_19  and  O_37
   10  A    between atoms: C_29  and  C_31
   11  A    between atoms: C_29  and  C_36
                            x       y       z     vdW  Elec       q    Type
                         _______ _______ _______ _____ _____    ______ ____

>  <TORSDO>
F 11

$$$$
=
 OpenBabel11052420453D

 43 48  0  0  1  0  0  0  0  0999 V2000
  194.6380  174.0160  145.0830 C   0  0  0  0  0  0  0  0  0  0  0  0
  190.6050  176.2850  143.0460 C   0  0  0  0  0  0  0  0  0  0  0  0
  189.0400  174.2320  141.8790 C   0  0  0  0  0  0  0  0  0  0  0  0
  193.0130  175.6300  144.3500 C   0  0  0  0  0  0  0  0  0  0  0  0
  193.9810  172.9840  144.5500 C   0  0  0  0  0  3  0  0  0  0  0  0
  195.9120  173.7800  145.8100 C   0  0  0  0  0  1  0  0  0  0  0  0
  192.2370  174.6110  143.7530 C   0  0  0  0  0  0  0  0  0  0  0  0
  194.1250  175.3500  144.9640 N   0  0  0  0  0  0  0  0  0  0  0  0
  192.6890  173.1720  143.8040 C   0  0  0  0  0  2  0  0  0  0  0  0
  190.2530  173.9360  142.5160 O   0  0  0  0  0  0  0  0  0  0  0  0
  191.0360  174.9410  143.1070 C   0  0  0  0  0  0  0  0  0  0  0  0
  191.3930  177.2850  143.6390 C   0  0  0  0  0  3  0  0  0  0  0  0
  189.4440  176.5810  142.4220 C   0  0  0  0  0  0  0  0  0  0  0  0
  188.6290  175.5050  141.8200 C   0  0  0  0  0  3  0  0  0  0  0  0
  192.5860  176.9580  144.2860 C   0  0  0  0  0  3  0  0  0  0  0  0
  188.2550  173.1710  141.3040 N   0  0  0  0  0  0  0  0  0  0  0  0
  187.1740  172.5490  142.0650 C   0  0  0  0  0  1  0  0  0  0  0  0
  188.3860  172.8450  139.8840 C   0  0  2  0  0  3  0  0  0  0  0  0
  189.7940  172.3560  139.5830 C   0  0  2  0  0  3  0  0  0  0  0  0
  189.3940  173.7660  139.2190 C   0  0  0  0  0  2  0  0  0  0  0  0
  189.7520  171.4810  138.3450 C   0  0  0  0  0  2  0  0  0  0  0  0
  191.1100  170.8410  138.1090 C   0  0  2  0  0  3  0  0  0  0  0  0
  193.3160  170.3020  139.5040 S   0  0  0  0  0  0  0  0  0  0  0  0
  191.0970  169.4570  138.5440 N   0  0  0  0  0  2  0  0  0  0  0  0
  192.1620  171.5640  138.9140 C   0  0  1  0  0  3  0  0  0  0  0  0
  192.4370  169.0480  138.6200 N   0  0  0  0  0  2  0  0  0  0  0  0
  193.2910  173.8370  138.6400 N   0  0  0  0  0  0  0  0  0  0  0  0
  192.8680  172.5860  138.0730 C   0  0  0  0  0  0  0  0  0  0  0  0
  193.8350  174.8770  137.7820 C   0  0  0  0  0  1  0  0  0  0  0  0
  193.0750  172.3470  136.8520 O   0  0  0  0  0  0  0  0  0  0  0  0
  193.0730  174.1560  140.0470 C   0  0  0  0  0  2  0  0  0  0  0  0
  194.1410  175.1150  140.5610 C   0  0  0  0  0  2  0  0  0  0  0  0
  195.9620  175.1460  142.1120 O   0  0  0  0  0  1  0  0  0  0  0  0
  195.3240  174.3610  141.1480 C   0  0  0  0  0  2  0  0  0  0  0  0
  188.9550  177.9930  142.2840 C   0  0  0  0  0  2  0  0  0  0  0  0
  186.4210  178.0550  145.1030 C   0  0  0  0  0  3  0  0  0  0  0  0
  185.2600  178.4520  144.4290 C   0  0  0  0  0  0  0  0  0  0  0  0
  186.5170  178.5780  142.3550 C   0  0  0  0  0  3  0  0  0  0  0  0
  187.6260  177.9170  144.4050 C   0  0  0  0  0  3  0  0  0  0  0  0
  187.6760  178.1810  143.0330 C   0  0  0  0  0  0  0  0  0  0  0  0
  185.3140  178.7150  143.0520 C   0  0  0  0  0  3  0  0  0  0  0  0
  184.0430  178.4890  146.4740 O   0  0  0  0  0  1  0  0  0  0  0  0
  184.0670  178.5800  145.1370 O   0  0  0  0  0  0  0  0  0  0  0  0
  1  6  1  0  0  0  0
  2 11  1  0  0  0  0
  2 12  1  0  0  0  0
  3 10  1  0  0  0  0
  4  8  2  0  0  0  0
  5  1  2  0  0  0  0
  7  9  1  0  0  0  0
  7  4  1  0  0  0  0
  8  1  1  0  0  0  0
  9  5  1  0  0  0  0
 10 11  1  0  0  0  0
 11  7  2  0  0  0  0
 12 15  2  0  0  0  0
 13  2  2  0  0  0  0
 14  3  2  0  0  0  0
 14 13  1  0  0  0  0
 15  4  1  0  0  0  0
 16  3  1  0  0  0  0
 16 17  1  0  0  0  0
 18 16  1  1  0  0  0
 19 21  1  6  0  0  0
 19 18  1  0  0  0  0
 20 19  1  0  0  0  0
 20 18  1  0  0  0  0
 22 21  1  1  0  0  0
 22 24  1  0  0  0  0
 22 25  1  0  0  0  0
 24 26  1  0  0  0  0
 25 28  1  6  0  0  0
 25 23  1  0  0  0  0
 26 23  1  0  0  0  0
 27 31  1  0  0  0  0
 28 27  1  0  0  0  0
 29 27  1  0  0  0  0
 30 28  2  0  0  0  0
 31 32  1  0  0  0  0
 32 34  1  0  0  0  0
 34 33  1  0  0  0  0
 35 13  1  0  0  0  0
 35 40  1  0  0  0  0
 37 36  1  0  0  0  0
 37 43  1  0  0  0  0
 38 40  2  0  0  0  0
 38 41  1  0  0  0  0
 39 36  2  0  0  0  0
 40 39  1  0  0  0  0
 41 37  2  0  0  0  0
 43 42  1  0  0  0  0
M  END
>  <MODEL>
8

>  <REMARK>
 VINA RESULT:      -6.1      2.580      7.287
  Name = 
  11 active torsions:
  status: ('A' for Active; 'I' for Inactive)
    1  A    between atoms: C_1  and  C_34
    2  A    between atoms: C_1  and  C_35
    3  A    between atoms: N_2  and  C_6
    4  A    between atoms: N_2  and  C_13
    5  A    between atoms: C_3  and  C_4
    6  A    between atoms: C_3  and  C_12
    7  A    between atoms: N_11  and  C_36
    8  A    between atoms: C_14  and  C_22
    9  A    between atoms: C_19  and  O_37
   10  A    between atoms: C_29  and  C_31
   11  A    between atoms: C_29  and  C_36
                            x       y       z     vdW  Elec       q    Type
                         _______ _______ _______ _____ _____    ______ ____

>  <TORSDO>
F 11

$$$$
=
 OpenBabel11052420453D

 43 48  0  0  1  0  0  0  0  0999 V2000
  193.7440  176.0500  145.1580 C   0  0  0  0  0  0  0  0  0  0  0  0
  189.4470  176.7270  142.5830 C   0  0  0  0  0  0  0  0  0  0  0  0
  189.0980  174.4090  140.9900 C   0  0  0  0  0  0  0  0  0  0  0  0
  191.6990  176.9390  144.2600 C   0  0  0  0  0  0  0  0  0  0  0  0
  193.6780  174.9310  144.4340 C   0  0  0  0  0  3  0  0  0  0  0  0
  194.8830  176.2560  146.0900 C   0  0  0  0  0  1  0  0  0  0  0  0
  191.5290  175.7920  143.4520 C   0  0  0  0  0  0  0  0  0  0  0  0
  192.7270  177.0550  145.0470 N   0  0  0  0  0  0  0  0  0  0  0  0
  192.5470  174.6770  143.4770 C   0  0  0  0  0  2  0  0  0  0  0  0
  190.2210  174.5500  141.8180 O   0  0  0  0  0  0  0  0  0  0  0  0
  190.4030  175.6880  142.6200 C   0  0  0  0  0  0  0  0  0  0  0  0
  189.6370  177.8620  143.3870 C   0  0  0  0  0  3  0  0  0  0  0  0
  188.3690  176.6060  141.7770 C   0  0  0  0  0  0  0  0  0  0  0  0
  188.1900  175.3930  140.9530 C   0  0  0  0  0  3  0  0  0  0  0  0
  190.7530  177.9640  144.2190 C   0  0  0  0  0  3  0  0  0  0  0  0
  188.9350  173.2180  140.1990 N   0  0  0  0  0  0  0  0  0  0  0  0
  188.1920  173.2560  138.9420 C   0  0  0  0  0  1  0  0  0  0  0  0
  189.6840  172.0060  140.5310 C   0  0  2  0  0  3  0  0  0  0  0  0
  191.0870  172.0760  139.9500 C   0  0  2  0  0  3  0  0  0  0  0  0
  190.0340  171.2360  139.2690 C   0  0  0  0  0  2  0  0  0  0  0  0
  191.9990  171.1820  140.7680 C   0  0  0  0  0  2  0  0  0  0  0  0
  193.1710  170.7130  139.9220 C   0  0  2  0  0  3  0  0  0  0  0  0
  195.8210  170.5290  140.1370 S   0  0  0  0  0  0  0  0  0  0  0  0
  193.5460  169.3600  140.2890 N   0  0  0  0  0  2  0  0  0  0  0  0
  194.3650  171.6020  140.1670 C   0  0  1  0  0  3  0  0  0  0  0  0
  194.8150  169.1320  139.7320 N   0  0  0  0  0  2  0  0  0  0  0  0
  194.8980  173.9940  139.4520 N   0  0  0  0  0  0  0  0  0  0  0  0
  194.4610  172.6670  139.1150 C   0  0  0  0  0  0  0  0  0  0  0  0
  194.8410  175.0520  138.4570 C   0  0  0  0  0  1  0  0  0  0  0  0
  194.1370  172.3950  137.9270 O   0  0  0  0  0  0  0  0  0  0  0  0
  195.2840  174.3540  140.8120 C   0  0  0  0  0  2  0  0  0  0  0  0
  195.1480  175.8550  141.0400 C   0  0  0  0  0  2  0  0  0  0  0  0
  196.3440  176.7860  142.8900 O   0  0  0  0  0  1  0  0  0  0  0  0
  196.4520  176.4600  141.5360 C   0  0  0  0  0  2  0  0  0  0  0  0
  187.3420  177.6940  141.6580 C   0  0  0  0  0  2  0  0  0  0  0  0
  185.5090  179.2010  144.6140 C   0  0  0  0  0  3  0  0  0  0  0  0
  185.1590  178.0570  145.3410 C   0  0  0  0  0  0  0  0  0  0  0  0
  186.2100  176.6700  143.6490 C   0  0  0  0  0  3  0  0  0  0  0  0
  186.2100  179.0800  143.4100 C   0  0  0  0  0  3  0  0  0  0  0  0
  186.5580  177.8160  142.9240 C   0  0  0  0  0  0  0  0  0  0  0  0
  185.5100  176.7900  144.8520 C   0  0  0  0  0  3  0  0  0  0  0  0
  185.0690  178.6760  147.6380 O   0  0  0  0  0  1  0  0  0  0  0  0
  184.4660  178.1950  146.5420 O   0  0  0  0  0  0  0  0  0  0  0  0
  1  6  1  0  0  0  0
  2 11  1  0  0  0  0
  2 12  1  0  0  0  0
  3 10  1  0  0  0  0
  4  8  2  0  0  0  0
  5  1  2  0  0  0  0
  7  9  1  0  0  0  0
  7  4  1  0  0  0  0
  8  1  1  0  0  0  0
  9  5  1  0  0  0  0
 10 11  1  0  0  0  0
 11  7  2  0  0  0  0
 12 15  2  0  0  0  0
 13  2  2  0  0  0  0
 14  3  2  0  0  0  0
 14 13  1  0  0  0  0
 15  4  1  0  0  0  0
 16  3  1  0  0  0  0
 17 16  1  0  0  0  0
 18 16  1  6  0  0  0
 19 18  1  0  0  0  0
 19 21  1  1  0  0  0
 20 19  1  0  0  0  0
 20 18  1  0  0  0  0
 22 25  1  0  0  0  0
 22 24  1  0  0  0  0
 22 21  1  1  0  0  0
 23 25  1  0  0  0  0
 25 28  1  6  0  0  0
 26 23  1  0  0  0  0
 26 24  1  0  0  0  0
 27 31  1  0  0  0  0
 28 27  1  0  0  0  0
 29 27  1  0  0  0  0
 30 28  2  0  0  0  0
 31 32  1  0  0  0  0
 32 34  1  0  0  0  0
 34 33  1  0  0  0  0
 35 13  1  0  0  0  0
 35 40  1  0  0  0  0
 36 37  1  0  0  0  0
 37 43  1  0  0  0  0
 38 41  1  0  0  0  0
 39 36  2  0  0  0  0
 40 39  1  0  0  0  0
 40 38  2  0  0  0  0
 41 37  2  0  0  0  0
 43 42  1  0  0  0  0
M  END
>  <MODEL>
9

>  <REMARK>
 VINA RESULT:      -6.0      3.029      7.319
  Name = 
  11 active torsions:
  status: ('A' for Active; 'I' for Inactive)
    1  A    between atoms: C_1  and  C_34
    2  A    between atoms: C_1  and  C_35
    3  A    between atoms: N_2  and  C_6
    4  A    between atoms: N_2  and  C_13
    5  A    between atoms: C_3  and  C_4
    6  A    between atoms: C_3  and  C_12
    7  A    between atoms: N_11  and  C_36
    8  A    between atoms: C_14  and  C_22
    9  A    between atoms: C_19  and  O_37
   10  A    between atoms: C_29  and  C_31
   11  A    between atoms: C_29  and  C_36
                            x       y       z     vdW  Elec       q    Type
                         _______ _______ _______ _____ _____    ______ ____

>  <TORSDO>
F 11

$$$$
