=
 OpenBabel11052420153D

 34 40  0  0  0  0  0  0  0  0999 V2000
  187.0580  176.9670  144.4760 C   0  0  0  0  0  0  0  0  0  0  0  0
  185.1700  178.3680  141.5900 C   0  0  0  0  0  3  0  0  0  0  0  0
  184.9460  178.7330  143.8570 C   0  0  0  0  0  3  0  0  0  0  0  0
  188.3160  175.9950  146.4690 C   0  0  0  0  0  0  0  0  0  0  0  0
  188.1670  176.0410  144.9470 C   0  0  0  0  0  3  0  0  0  0  0  0
  186.5450  177.5620  146.7220 C   0  0  0  0  0  0  0  0  0  0  0  0
  185.5710  178.4380  147.4540 C   0  0  0  0  0  2  0  0  0  0  0  0
  187.5500  176.7010  147.2630 N   0  0  0  0  0  0  0  0  0  0  0  0
  185.3360  178.4980  145.1670 C   0  0  0  0  0  0  0  0  0  0  0  0
  186.3460  177.6520  145.4390 C   0  0  0  0  0  0  0  0  0  0  0  0
  184.7870  179.0420  146.3630 N   0  0  0  0  0  0  0  0  0  0  0  0
  185.5730  177.9160  140.2570 C   0  0  0  0  0  3  0  0  0  0  0  0
  186.5320  177.0710  139.8940 C   0  0  0  0  0  0  0  0  0  0  0  0
  187.4380  176.3740  140.8060 C   0  0  0  0  0  3  0  0  0  0  0  0
  185.6270  178.0710  142.8080 C   0  0  0  0  0  0  0  0  0  0  0  0
  187.5060  176.4180  142.1310 C   0  0  0  0  0  3  0  0  0  0  0  0
  186.7060  177.1700  143.1140 C   0  0  0  0  0  0  0  0  0  0  0  0
  186.6910  176.8180  138.5040 N   0  0  0  0  0  0  0  0  0  0  0  0
  187.2650  177.1200  137.1600 C   0  0  0  0  0  2  0  0  0  0  0  0
  186.4120  176.0410  137.2600 C   0  0  0  0  0  2  0  0  0  0  0  0
  189.3280  175.0750  147.0640 C   0  0  0  0  0  2  0  0  0  0  0  0
  191.8620  173.9490  144.4940 N   0  0  0  0  0  2  0  0  0  0  0  0
  191.6120  176.0370  146.3810 C   0  0  0  0  0  3  0  0  0  0  0  0
  195.0430  175.8600  144.0900 N   0  0  0  0  0  0  0  0  0  0  0  0
  196.2360  175.7970  143.2970 C   0  0  0  0  0  0  0  0  0  0  0  0
  194.0090  174.8710  143.9140 C   0  0  0  0  0  3  0  0  0  0  0  0
  197.2420  176.7410  143.4690 O   0  0  0  0  0  1  0  0  0  0  0  0
  192.8970  174.9220  144.6490 C   0  0  0  0  0  0  0  0  0  0  0  0
  196.3840  174.8880  142.4360 O   0  0  0  0  0  0  0  0  0  0  0  0
  193.7880  176.9960  145.8150 C   0  0  0  0  0  3  0  0  0  0  0  0
  192.7260  175.9940  145.6460 C   0  0  0  0  0  0  0  0  0  0  0  0
  194.8880  176.9130  145.0600 C   0  0  0  0  0  3  0  0  0  0  0  0
  190.5470  175.0210  146.2070 C   0  0  0  0  0  0  0  0  0  0  0  0
  190.6840  174.0350  145.3090 C   0  0  0  0  0  3  0  0  0  0  0  0
  1  5  2  0  0  0  0
  1 10  1  0  0  0  0
  2 15  1  0  0  0  0
  3  9  1  0  0  0  0
  4 21  1  0  0  0  0
  4  8  2  0  0  0  0
  5  4  1  0  0  0  0
  6  8  1  0  0  0  0
  6  7  1  0  0  0  0
  9 10  1  0  0  0  0
  9 11  2  0  0  0  0
 10  6  2  0  0  0  0
 11  7  1  0  0  0  0
 12  2  2  0  0  0  0
 13 12  1  0  0  0  0
 13 14  2  0  0  0  0
 14 16  1  0  0  0  0
 15 17  1  0  0  0  0
 15  3  2  0  0  0  0
 16 17  2  0  0  0  0
 17  1  1  0  0  0  0
 18 13  1  0  0  0  0
 19 20  1  0  0  0  0
 19 18  1  0  0  0  0
 20 18  1  0  0  0  0
 22 28  1  0  0  0  0
 22 34  1  0  0  0  0
 24 32  1  0  0  0  0
 25 27  1  0  0  0  0
 25 24  1  0  0  0  0
 26 24  1  0  0  0  0
 26 28  2  0  0  0  0
 28 31  1  0  0  0  0
 29 25  2  0  0  0  0
 31 30  1  0  0  0  0
 31 23  2  0  0  0  0
 32 30  2  0  0  0  0
 33 23  1  0  0  0  0
 33 21  1  0  0  0  0
 34 33  2  0  0  0  0
M  END
>  <MODEL>
1

>  <REMARK>
 VINA RESULT:      -9.2      0.000      0.000
  Name = 
  3 active torsions:
  status: ('A' for Active; 'I' for Inactive)
    1  A    between atoms: N_3  and  C_25
    2  A    between atoms: C_8  and  C_18
    3  A    between atoms: C_18  and  C_30
                            x       y       z     vdW  Elec       q    Type
                         _______ _______ _______ _____ _____    ______ ____

>  <TORSDO>
F 3

$$$$
=
 OpenBabel11052420153D

 34 40  0  0  1  0  0  0  0  0999 V2000
  186.6530  177.1110  144.3820 C   0  0  0  0  0  0  0  0  0  0  0  0
  184.7510  178.1900  141.3700 C   0  0  0  0  0  3  0  0  0  0  0  0
  184.3540  178.5560  143.6120 C   0  0  0  0  0  3  0  0  0  0  0  0
  187.9200  176.3550  146.4610 C   0  0  0  0  0  0  0  0  0  0  0  0
  187.8510  176.3560  144.9330 C   0  0  0  0  0  3  0  0  0  0  0  0
  185.9390  177.6650  146.5840 C   0  0  0  0  0  0  0  0  0  0  0  0
  184.8140  178.4080  147.2430 C   0  0  0  0  0  2  0  0  0  0  0  0
  187.0220  176.9600  147.1970 N   0  0  0  0  0  0  0  0  0  0  0  0
  184.7000  178.3990  144.9470 C   0  0  0  0  0  0  0  0  0  0  0  0
  185.8010  177.7060  145.2900 C   0  0  0  0  0  0  0  0  0  0  0  0
  184.0160  178.8800  146.0980 N   0  0  0  0  0  0  0  0  0  0  0  0
  185.2860  177.7770  140.0700 C   0  0  0  0  0  3  0  0  0  0  0  0
  186.3710  177.0680  139.7790 C   0  0  0  0  0  0  0  0  0  0  0  0
  187.3130  176.5180  140.7530 C   0  0  0  0  0  3  0  0  0  0  0  0
  185.1770  177.9780  142.6160 C   0  0  0  0  0  0  0  0  0  0  0  0
  187.3010  176.5920  142.0770 C   0  0  0  0  0  3  0  0  0  0  0  0
  186.3520  177.2410  143.0000 C   0  0  0  0  0  0  0  0  0  0  0  0
  186.6400  176.8180  138.4050 N   0  0  0  0  0  0  0  0  0  0  0  0
  187.2530  177.1680  137.0900 C   0  0  0  0  0  2  0  0  0  0  0  0
  186.5270  175.9980  137.1630 C   0  0  0  0  0  2  0  0  0  0  0  0
  189.0150  175.5950  147.1290 C   0  0  0  0  0  2  0  0  0  0  0  0
  191.9610  175.2770  144.7800 N   0  0  0  0  0  0  0  0  0  0  0  0
  189.6860  173.7500  145.4700 C   0  0  0  0  0  3  0  0  0  0  0  0
  192.2480  172.2680  142.5900 N   0  0  0  0  0  0  0  0  0  0  0  0
  193.1350  171.7540  141.5880 C   0  0  0  0  0  0  0  0  0  0  0  0
  192.5260  173.5360  143.2170 C   0  0  0  0  0  3  0  0  0  0  0  0
  192.8670  170.5380  140.9710 O   0  0  0  0  0  0  0  0  0  0  0  0
  191.7050  174.0210  144.1490 C   0  0  0  0  0  0  0  0  0  0  0  0
  194.1670  172.3980  141.2570 O   0  0  0  0  0  1  0  0  0  0  0  0
  190.2340  171.9660  143.8910 C   0  0  0  0  0  3  0  0  0  0  0  0
  190.5060  173.2560  144.5390 C   0  0  2  0  0  3  0  0  0  0  0  0
  191.0800  171.5110  142.9620 C   0  0  0  0  0  3  0  0  0  0  0  0
  189.9650  175.0540  146.1160 C   0  0  0  0  0  0  0  0  0  0  0  0
  191.0480  175.7670  145.7730 C   0  0  0  0  0  3  0  0  0  0  0  0
  1  5  2  0  0  0  0
  1 10  1  0  0  0  0
  2 15  1  0  0  0  0
  3  9  1  0  0  0  0
  4 21  1  0  0  0  0
  4  8  2  0  0  0  0
  5  4  1  0  0  0  0
  6  8  1  0  0  0  0
  6  7  1  0  0  0  0
  9 10  1  0  0  0  0
  9 11  2  0  0  0  0
 10  6  2  0  0  0  0
 11  7  1  0  0  0  0
 12  2  2  0  0  0  0
 13 12  1  0  0  0  0
 13 14  2  0  0  0  0
 14 16  1  0  0  0  0
 15 17  1  0  0  0  0
 15  3  2  0  0  0  0
 16 17  2  0  0  0  0
 17  1  1  0  0  0  0
 18 13  1  0  0  0  0
 19 20  1  0  0  0  0
 19 18  1  0  0  0  0
 20 18  1  0  0  0  0
 22 34  2  0  0  0  0
 23 33  2  0  0  0  0
 24 32  1  0  0  0  0
 24 26  1  0  0  0  0
 25 24  1  0  0  0  0
 26 28  2  0  0  0  0
 27 25  2  0  0  0  0
 28 31  1  0  0  0  0
 28 22  1  0  0  0  0
 29 25  1  0  0  0  0
 31 30  1  6  0  0  0
 31 23  1  0  0  0  0
 32 30  2  0  0  0  0
 33 21  1  0  0  0  0
 34 33  1  0  0  0  0
M  END
>  <MODEL>
2

>  <REMARK>
 VINA RESULT:      -8.5      1.877      2.761
  Name = 
  3 active torsions:
  status: ('A' for Active; 'I' for Inactive)
    1  A    between atoms: N_3  and  C_25
    2  A    between atoms: C_8  and  C_18
    3  A    between atoms: C_18  and  C_30
                            x       y       z     vdW  Elec       q    Type
                         _______ _______ _______ _____ _____    ______ ____

>  <TORSDO>
F 3

$$$$
=
 OpenBabel11052420153D

 34 40  0  0  0  0  0  0  0  0999 V2000
  187.3570  177.7810  144.1860 C   0  0  0  0  0  0  0  0  0  0  0  0
  189.2510  177.3070  147.3550 C   0  0  0  0  0  3  0  0  0  0  0  0
  187.0490  177.8890  146.9900 C   0  0  0  0  0  3  0  0  0  0  0  0
  186.0480  178.1440  142.0290 C   0  0  0  0  0  0  0  0  0  0  0  0
  187.3860  177.7670  142.6670 C   0  0  0  0  0  2  0  0  0  0  0  0
  185.0600  178.4040  144.1760 C   0  0  0  0  0  0  0  0  0  0  0  0
  183.9790  178.7150  145.1700 C   0  0  0  0  0  3  0  0  0  0  0  0
  184.9950  178.4400  142.7480 N   0  0  0  0  0  0  0  0  0  0  0  0
  185.9930  178.1620  146.1320 C   0  0  0  0  0  0  0  0  0  0  0  0
  186.1630  178.1030  144.7990 C   0  0  0  0  0  0  0  0  0  0  0  0
  184.6600  178.5340  146.4630 N   0  0  0  0  0  0  0  0  0  0  0  0
  190.6620  176.9340  147.2300 C   0  0  0  0  0  3  0  0  0  0  0  0
  191.3970  176.7240  146.1450 C   0  0  0  0  0  0  0  0  0  0  0  0
  190.9230  176.8280  144.7650 C   0  0  0  0  0  3  0  0  0  0  0  0
  188.3080  177.5470  146.4420 C   0  0  0  0  0  0  0  0  0  0  0  0
  189.7190  177.1430  144.3040 C   0  0  0  0  0  3  0  0  0  0  0  0
  188.4740  177.4880  145.0140 C   0  0  0  0  0  0  0  0  0  0  0  0
  192.7620  176.3700  146.3350 N   0  0  0  0  0  0  0  0  0  0  0  0
  193.8600  175.3760  146.5120 C   0  0  0  0  0  2  0  0  0  0  0  0
  194.2030  176.7120  146.5140 C   0  0  0  0  0  2  0  0  0  0  0  0
  185.9600  178.2280  140.5430 C   0  0  0  0  0  2  0  0  0  0  0  0
  187.0660  175.6680  137.9900 N   0  0  0  0  0  2  0  0  0  0  0  0
  187.4440  176.1390  140.7500 C   0  0  0  0  0  3  0  0  0  0  0  0
  189.2270  172.8190  139.0620 N   0  0  0  0  0  0  0  0  0  0  0  0
  189.8430  171.6640  138.4780 C   0  0  0  0  0  0  0  0  0  0  0  0
  188.4360  173.7040  138.2450 C   0  0  0  0  0  3  0  0  0  0  0  0
  190.5990  170.8000  139.2630 O   0  0  0  0  0  1  0  0  0  0  0  0
  187.8580  174.7790  138.7820 C   0  0  0  0  0  0  0  0  0  0  0  0
  189.7090  171.4210  137.2490 O   0  0  0  0  0  0  0  0  0  0  0  0
  188.8380  174.1520  141.0400 C   0  0  0  0  0  3  0  0  0  0  0  0
  188.0290  175.0630  140.2190 C   0  0  0  0  0  0  0  0  0  0  0  0
  189.4020  173.0840  140.4680 C   0  0  0  0  0  3  0  0  0  0  0  0
  186.6270  177.0510  139.9160 C   0  0  0  0  0  0  0  0  0  0  0  0
  186.4550  176.8100  138.6080 C   0  0  0  0  0  3  0  0  0  0  0  0
  1 10  1  0  0  0  0
  1 17  2  0  0  0  0
  4  5  1  0  0  0  0
  4  8  2  0  0  0  0
  5  1  1  0  0  0  0
  6 10  2  0  0  0  0
  6  7  1  0  0  0  0
  7 11  2  0  0  0  0
  8  6  1  0  0  0  0
  9 11  1  0  0  0  0
  9  3  2  0  0  0  0
 10  9  1  0  0  0  0
 12  2  1  0  0  0  0
 13 18  1  0  0  0  0
 13 12  2  0  0  0  0
 14 13  1  0  0  0  0
 15  3  1  0  0  0  0
 15  2  2  0  0  0  0
 16 14  2  0  0  0  0
 16 17  1  0  0  0  0
 17 15  1  0  0  0  0
 18 19  1  0  0  0  0
 18 20  1  0  0  0  0
 19 20  1  0  0  0  0
 21  4  1  0  0  0  0
 22 34  1  0  0  0  0
 22 28  1  0  0  0  0
 24 32  1  0  0  0  0
 25 24  1  0  0  0  0
 25 27  1  0  0  0  0
 26 28  2  0  0  0  0
 26 24  1  0  0  0  0
 28 31  1  0  0  0  0
 29 25  2  0  0  0  0
 31 23  2  0  0  0  0
 31 30  1  0  0  0  0
 32 30  2  0  0  0  0
 33 21  1  0  0  0  0
 33 23  1  0  0  0  0
 34 33  2  0  0  0  0
M  END
>  <MODEL>
3

>  <REMARK>
 VINA RESULT:      -8.4      2.950      7.022
  Name = 
  3 active torsions:
  status: ('A' for Active; 'I' for Inactive)
    1  A    between atoms: N_3  and  C_25
    2  A    between atoms: C_8  and  C_18
    3  A    between atoms: C_18  and  C_30
                            x       y       z     vdW  Elec       q    Type
                         _______ _______ _______ _____ _____    ______ ____

>  <TORSDO>
F 3

$$$$
=
 OpenBabel11052420153D

 34 40  0  0  0  0  0  0  0  0999 V2000
  188.8510  176.8260  144.2220 C   0  0  0  0  0  0  0  0  0  0  0  0
  185.4850  178.2130  144.9950 C   0  0  0  0  0  3  0  0  0  0  0  0
  187.3310  177.9010  146.3430 C   0  0  0  0  0  3  0  0  0  0  0  0
  191.1530  175.8490  143.7230 C   0  0  0  0  0  0  0  0  0  0  0  0
  189.7750  176.2270  143.1750 C   0  0  0  0  0  3  0  0  0  0  0  0
  190.5440  176.6340  145.8840 C   0  0  0  0  0  0  0  0  0  0  0  0
  190.7180  176.9280  147.3450 C   0  0  0  0  0  2  0  0  0  0  0  0
  191.4770  176.0410  144.9770 N   0  0  0  0  0  0  0  0  0  0  0  0
  188.6420  177.4840  146.5270 C   0  0  0  0  0  0  0  0  0  0  0  0
  189.3470  176.9750  145.5010 C   0  0  0  0  0  0  0  0  0  0  0  0
  189.4130  177.4980  147.7230 N   0  0  0  0  0  0  0  0  0  0  0  0
  184.5260  178.2700  143.8900 C   0  0  0  0  0  3  0  0  0  0  0  0
  184.6630  177.9050  142.6200 C   0  0  0  0  0  0  0  0  0  0  0  0
  185.8720  177.3360  142.0260 C   0  0  0  0  0  3  0  0  0  0  0  0
  186.7470  177.7850  145.0590 C   0  0  0  0  0  0  0  0  0  0  0  0
  187.0440  177.0640  142.5860 C   0  0  0  0  0  3  0  0  0  0  0  0
  187.5160  177.2400  143.9710 C   0  0  0  0  0  0  0  0  0  0  0  0
  183.5400  178.0780  141.7640 N   0  0  0  0  0  0  0  0  0  0  0  0
  182.0890  178.3190  141.5150 C   0  0  0  0  0  2  0  0  0  0  0  0
  182.9050  178.1570  140.4160 C   0  0  0  0  0  2  0  0  0  0  0  0
  192.1330  175.1920  142.8110 C   0  0  0  0  0  2  0  0  0  0  0  0
  192.3330  171.6450  144.1050 N   0  0  0  0  0  2  0  0  0  0  0  0
  194.0240  173.9060  143.9860 C   0  0  0  0  0  3  0  0  0  0  0  0
  195.4580  170.4730  145.7770 N   0  0  0  0  0  0  0  0  0  0  0  0
  195.9560  169.2830  146.4020 C   0  0  0  0  0  0  0  0  0  0  0  0
  194.1250  170.4960  145.2300 C   0  0  0  0  0  3  0  0  0  0  0  0
  197.2370  169.2570  146.9400 O   0  0  0  0  0  1  0  0  0  0  0  0
  193.6540  171.6000  144.6490 C   0  0  0  0  0  0  0  0  0  0  0  0
  195.2390  168.2480  146.4670 O   0  0  0  0  0  0  0  0  0  0  0  0
  195.8600  172.7650  145.1270 C   0  0  0  0  0  3  0  0  0  0  0  0
  194.5030  172.8030  144.5660 C   0  0  0  0  0  0  0  0  0  0  0  0
  196.2980  171.6410  145.7020 C   0  0  0  0  0  3  0  0  0  0  0  0
  192.6520  173.9370  143.4250 C   0  0  0  0  0  0  0  0  0  0  0  0
  191.8630  172.8550  143.4940 C   0  0  0  0  0  3  0  0  0  0  0  0
  1 10  1  0  0  0  0
  2 15  1  0  0  0  0
  3  9  1  0  0  0  0
  4  8  2  0  0  0  0
  5  4  1  0  0  0  0
  5  1  2  0  0  0  0
  6  7  1  0  0  0  0
  7 11  1  0  0  0  0
  8  6  1  0  0  0  0
  9 11  2  0  0  0  0
 10  6  2  0  0  0  0
 10  9  1  0  0  0  0
 12  2  2  0  0  0  0
 13 12  1  0  0  0  0
 14 16  1  0  0  0  0
 14 13  2  0  0  0  0
 15  3  2  0  0  0  0
 16 17  2  0  0  0  0
 17  1  1  0  0  0  0
 17 15  1  0  0  0  0
 18 13  1  0  0  0  0
 19 18  1  0  0  0  0
 20 19  1  0  0  0  0
 20 18  1  0  0  0  0
 21 33  1  0  0  0  0
 21  4  1  0  0  0  0
 22 28  1  0  0  0  0
 23 31  2  0  0  0  0
 24 25  1  0  0  0  0
 25 29  2  0  0  0  0
 25 27  1  0  0  0  0
 26 24  1  0  0  0  0
 28 26  2  0  0  0  0
 30 32  2  0  0  0  0
 31 28  1  0  0  0  0
 31 30  1  0  0  0  0
 32 24  1  0  0  0  0
 33 34  2  0  0  0  0
 33 23  1  0  0  0  0
 34 22  1  0  0  0  0
M  END
>  <MODEL>
4

>  <REMARK>
 VINA RESULT:      -8.3      3.164      4.478
  Name = 
  3 active torsions:
  status: ('A' for Active; 'I' for Inactive)
    1  A    between atoms: N_3  and  C_25
    2  A    between atoms: C_8  and  C_18
    3  A    between atoms: C_18  and  C_30
                            x       y       z     vdW  Elec       q    Type
                         _______ _______ _______ _____ _____    ______ ____

>  <TORSDO>
F 3

$$$$
=
 OpenBabel11052420153D

 34 40  0  0  1  0  0  0  0  0999 V2000
  189.1200  174.9690  143.2740 C   0  0  0  0  0  0  0  0  0  0  0  0
  190.4240  171.4880  143.0830 C   0  0  0  0  0  3  0  0  0  0  0  0
  190.1050  172.8790  144.8950 C   0  0  0  0  0  3  0  0  0  0  0  0
  188.2610  177.3650  143.4250 C   0  0  0  0  0  0  0  0  0  0  0  0
  188.5810  176.1740  142.5200 C   0  0  0  0  0  3  0  0  0  0  0  0
  188.9310  176.1290  145.3430 C   0  0  0  0  0  0  0  0  0  0  0  0
  189.2090  175.8800  146.7970 C   0  0  0  0  0  2  0  0  0  0  0  0
  188.4380  177.3190  144.7210 N   0  0  0  0  0  0  0  0  0  0  0  0
  189.7050  174.0930  145.4370 C   0  0  0  0  0  0  0  0  0  0  0  0
  189.2380  175.0740  144.6450 C   0  0  0  0  0  0  0  0  0  0  0  0
  189.7240  174.4990  146.8010 N   0  0  0  0  0  0  0  0  0  0  0  0
  190.5020  170.8860  141.7500 C   0  0  0  0  0  3  0  0  0  0  0  0
  190.1700  171.3860  140.5660 C   0  0  0  0  0  0  0  0  0  0  0  0
  189.6240  172.7220  140.3310 C   0  0  0  0  0  3  0  0  0  0  0  0
  190.0130  172.6880  143.4960 C   0  0  0  0  0  0  0  0  0  0  0  0
  189.3540  173.6910  141.1970 C   0  0  0  0  0  3  0  0  0  0  0  0
  189.5100  173.7480  142.6620 C   0  0  0  0  0  0  0  0  0  0  0  0
  190.3610  170.5560  139.4270 N   0  0  0  0  0  0  0  0  0  0  0  0
  191.1900  169.6690  138.5590 C   0  0  0  0  0  2  0  0  0  0  0  0
  189.8860  169.9000  138.1730 C   0  0  0  0  0  2  0  0  0  0  0  0
  187.7840  178.6320  142.8010 C   0  0  0  0  0  2  0  0  0  0  0  0
  184.1710  179.0180  143.8470 N   0  0  0  0  0  0  0  0  0  0  0  0
  185.5850  178.2710  141.5180 C   0  0  0  0  0  3  0  0  0  0  0  0
  181.4580  178.2510  141.4010 N   0  0  0  0  0  0  0  0  0  0  0  0
  180.0250  178.2400  141.3600 C   0  0  0  0  0  0  0  0  0  0  0  0
  182.1410  178.6340  142.6100 C   0  0  0  0  0  3  0  0  0  0  0  0
  179.3590  177.8610  140.2000 O   0  0  0  0  0  0  0  0  0  0  0  0
  183.4740  178.6450  142.6560 C   0  0  0  0  0  0  0  0  0  0  0  0
  179.3540  178.5760  142.3730 O   0  0  0  0  0  1  0  0  0  0  0  0
  183.5420  177.8730  140.2370 C   0  0  0  0  0  3  0  0  0  0  0  0
  184.2510  178.2620  141.4640 C   0  0  2  0  0  3  0  0  0  0  0  0
  182.2060  177.8740  140.2280 C   0  0  0  0  0  3  0  0  0  0  0  0
  186.2940  178.6620  142.7600 C   0  0  0  0  0  0  0  0  0  0  0  0
  185.6060  179.0090  143.8570 C   0  0  0  0  0  3  0  0  0  0  0  0
  1 10  1  0  0  0  0
  2 15  1  0  0  0  0
  3  9  1  0  0  0  0
  4  8  2  0  0  0  0
  5  1  2  0  0  0  0
  5  4  1  0  0  0  0
  6  7  1  0  0  0  0
  7 11  1  0  0  0  0
  8  6  1  0  0  0  0
  9 11  2  0  0  0  0
 10  6  2  0  0  0  0
 10  9  1  0  0  0  0
 12  2  2  0  0  0  0
 13 12  1  0  0  0  0
 14 13  2  0  0  0  0
 14 16  1  0  0  0  0
 15  3  2  0  0  0  0
 16 17  2  0  0  0  0
 17  1  1  0  0  0  0
 17 15  1  0  0  0  0
 18 13  1  0  0  0  0
 19 18  1  0  0  0  0
 20 19  1  0  0  0  0
 20 18  1  0  0  0  0
 21  4  1  0  0  0  0
 22 34  2  0  0  0  0
 23 33  2  0  0  0  0
 24 26  1  0  0  0  0
 25 24  1  0  0  0  0
 25 29  1  0  0  0  0
 26 28  2  0  0  0  0
 27 25  2  0  0  0  0
 28 22  1  0  0  0  0
 31 30  1  1  0  0  0
 31 23  1  0  0  0  0
 31 28  1  0  0  0  0
 32 30  2  0  0  0  0
 32 24  1  0  0  0  0
 33 21  1  0  0  0  0
 33 34  1  0  0  0  0
M  END
>  <MODEL>
5

>  <REMARK>
 VINA RESULT:      -8.2      5.435      9.018
  Name = 
  3 active torsions:
  status: ('A' for Active; 'I' for Inactive)
    1  A    between atoms: N_3  and  C_25
    2  A    between atoms: C_8  and  C_18
    3  A    between atoms: C_18  and  C_30
                            x       y       z     vdW  Elec       q    Type
                         _______ _______ _______ _____ _____    ______ ____

>  <TORSDO>
F 3

$$$$
=
 OpenBabel11052420153D

 34 40  0  0  1  0  0  0  0  0999 V2000
  193.5210  173.4180  143.6700 C   0  0  0  0  0  0  0  0  0  0  0  0
  196.7390  172.5870  145.3460 C   0  0  0  0  0  3  0  0  0  0  0  0
  196.1410  174.3980  144.0490 C   0  0  0  0  0  3  0  0  0  0  0  0
  191.3370  173.9920  142.4860 C   0  0  0  0  0  0  0  0  0  0  0  0
  192.0880  173.0040  143.3810 C   0  0  0  0  0  3  0  0  0  0  0  0
  193.2520  175.3990  142.3790 C   0  0  0  0  0  0  0  0  0  0  0  0
  194.0720  176.5830  141.9590 C   0  0  0  0  0  3  0  0  0  0  0  0
  191.9000  175.0830  142.0330 N   0  0  0  0  0  0  0  0  0  0  0  0
  195.2070  175.0930  143.2930 C   0  0  0  0  0  0  0  0  0  0  0  0
  193.9640  174.6070  143.1270 C   0  0  2  0  0  3  0  0  0  0  0  0
  195.3720  176.3270  142.6030 N   0  0  0  0  0  0  0  0  0  0  0  0
  196.7830  171.3340  146.1040 C   0  0  0  0  0  3  0  0  0  0  0  0
  195.8380  170.4230  146.3030 C   0  0  0  0  0  0  0  0  0  0  0  0
  194.4750  170.4840  145.7770 C   0  0  0  0  0  3  0  0  0  0  0  0
  195.7660  173.1700  144.6440 C   0  0  0  0  0  0  0  0  0  0  0  0
  193.9000  171.4080  145.0180 C   0  0  0  0  0  3  0  0  0  0  0  0
  194.4320  172.6640  144.4570 C   0  0  0  0  0  0  0  0  0  0  0  0
  196.1770  169.2890  147.0930 N   0  0  0  0  0  0  0  0  0  0  0  0
  197.1510  168.3020  147.6430 C   0  0  0  0  0  2  0  0  0  0  0  0
  195.8290  168.1660  148.0120 C   0  0  0  0  0  2  0  0  0  0  0  0
  189.9400  173.6700  142.0760 C   0  0  0  0  0  2  0  0  0  0  0  0
  187.0790  176.1160  142.4270 N   0  0  0  0  0  2  0  0  0  0  0  0
  189.1760  175.1340  144.0460 C   0  0  0  0  0  3  0  0  0  0  0  0
  186.6120  177.9480  145.6450 N   0  0  0  0  0  0  0  0  0  0  0  0
  185.7250  178.9280  146.2010 C   0  0  0  0  0  0  0  0  0  0  0  0
  186.4240  177.4900  144.2920 C   0  0  0  0  0  3  0  0  0  0  0  0
  185.9080  179.3830  147.5020 O   0  0  0  0  0  1  0  0  0  0  0  0
  187.2460  176.5800  143.7680 C   0  0  0  0  0  0  0  0  0  0  0  0
  184.7700  179.3860  145.5170 O   0  0  0  0  0  0  0  0  0  0  0  0
  188.5350  176.5180  145.9560 C   0  0  0  0  0  3  0  0  0  0  0  0
  188.3540  176.0420  144.5780 C   0  0  0  0  0  0  0  0  0  0  0  0
  187.6910  177.4300  146.4480 C   0  0  0  0  0  3  0  0  0  0  0  0
  188.9880  174.6610  142.6540 C   0  0  0  0  0  0  0  0  0  0  0  0
  187.9900  175.1410  141.8990 C   0  0  0  0  0  3  0  0  0  0  0  0
  1 17  2  0  0  0  0
  2 12  1  0  0  0  0
  3 15  1  0  0  0  0
  4  5  2  0  0  0  0
  5  1  1  0  0  0  0
  7  6  1  0  0  0  0
  7 11  2  0  0  0  0
  8  6  2  0  0  0  0
  8  4  1  0  0  0  0
  9  3  2  0  0  0  0
 10  6  1  6  0  0  0
 10  9  1  0  0  0  0
 10  1  1  0  0  0  0
 11  9  1  0  0  0  0
 12 13  2  0  0  0  0
 13 18  1  0  0  0  0
 14 13  1  0  0  0  0
 15  2  2  0  0  0  0
 16 14  2  0  0  0  0
 17 15  1  0  0  0  0
 17 16  1  0  0  0  0
 18 19  1  0  0  0  0
 18 20  1  0  0  0  0
 19 20  1  0  0  0  0
 21  4  1  0  0  0  0
 21 33  1  0  0  0  0
 22 28  1  0  0  0  0
 23 31  2  0  0  0  0
 24 25  1  0  0  0  0
 24 32  1  0  0  0  0
 25 27  1  0  0  0  0
 26 24  1  0  0  0  0
 28 26  2  0  0  0  0
 28 31  1  0  0  0  0
 29 25  2  0  0  0  0
 30 32  2  0  0  0  0
 31 30  1  0  0  0  0
 33 23  1  0  0  0  0
 34 22  1  0  0  0  0
 34 33  2  0  0  0  0
M  END
>  <MODEL>
6

>  <REMARK>
 VINA RESULT:      -8.2      4.538      9.930
  Name = 
  3 active torsions:
  status: ('A' for Active; 'I' for Inactive)
    1  A    between atoms: N_3  and  C_25
    2  A    between atoms: C_8  and  C_18
    3  A    between atoms: C_18  and  C_30
                            x       y       z     vdW  Elec       q    Type
                         _______ _______ _______ _____ _____    ______ ____

>  <TORSDO>
F 3

$$$$
=
 OpenBabel11052420153D

 34 40  0  0  1  0  0  0  0  0999 V2000
  191.8960  175.0570  144.0140 C   0  0  0  0  0  0  0  0  0  0  0  0
  193.3860  173.3820  141.0420 C   0  0  0  0  0  3  0  0  0  0  0  0
  194.3230  174.8080  142.5950 C   0  0  0  0  0  3  0  0  0  0  0  0
  190.8890  176.2400  146.0350 C   0  0  0  0  0  0  0  0  0  0  0  0
  190.6570  175.2830  144.8640 C   0  0  0  0  0  2  0  0  0  0  0  0
  193.1710  176.4960  145.4160 C   0  0  0  0  0  0  0  0  0  0  0  0
  194.5730  177.0240  145.5010 C   0  0  0  0  0  3  0  0  0  0  0  0
  192.0550  176.7900  146.2620 N   0  0  0  0  0  0  0  0  0  0  0  0
  194.2230  175.5980  143.7310 C   0  0  0  0  0  0  0  0  0  0  0  0
  193.0560  175.7010  144.3920 C   0  0  0  0  0  0  0  0  0  0  0  0
  195.2340  176.3880  144.3480 N   0  0  0  0  0  0  0  0  0  0  0  0
  192.4970  172.5280  140.2520 C   0  0  0  0  0  3  0  0  0  0  0  0
  191.2130  172.2380  140.4280 C   0  0  0  0  0  0  0  0  0  0  0  0
  190.3690  172.7410  141.5110 C   0  0  0  0  0  3  0  0  0  0  0  0
  193.1790  174.1100  142.1410 C   0  0  0  0  0  0  0  0  0  0  0  0
  190.6720  173.5600  142.5100 C   0  0  0  0  0  3  0  0  0  0  0  0
  191.9380  174.2290  142.8600 C   0  0  0  0  0  0  0  0  0  0  0  0
  190.6020  171.3670  139.4830 N   0  0  0  0  0  0  0  0  0  0  0  0
  190.3700  170.0230  138.8770 C   0  0  0  0  0  2  0  0  0  0  0  0
  189.6970  171.0940  138.3280 C   0  0  0  0  0  2  0  0  0  0  0  0
  189.7350  176.5960  146.9100 C   0  0  0  0  0  2  0  0  0  0  0  0
  186.1270  176.8390  145.8080 N   0  0  0  0  0  0  0  0  0  0  0  0
  188.6720  177.3680  144.7000 C   0  0  0  0  0  3  0  0  0  0  0  0
  185.3350  178.0290  142.3600 N   0  0  0  0  0  0  0  0  0  0  0  0
  184.1770  178.2560  141.5450 C   0  0  0  0  0  0  0  0  0  0  0  0
  185.1830  177.5410  143.7070 C   0  0  0  0  0  3  0  0  0  0  0  0
  184.3160  178.7160  140.2410 O   0  0  0  0  0  0  0  0  0  0  0  0
  186.2550  177.3260  144.4700 C   0  0  0  0  0  0  0  0  0  0  0  0
  183.0220  178.0430  142.0030 O   0  0  0  0  0  1  0  0  0  0  0  0
  187.7420  178.0860  142.5570 C   0  0  0  0  0  3  0  0  0  0  0  0
  187.6020  177.5890  143.9320 C   0  0  2  0  0  3  0  0  0  0  0  0
  186.6450  178.2900  141.8210 C   0  0  0  0  0  3  0  0  0  0  0  0
  188.5220  176.8640  146.0860 C   0  0  0  0  0  0  0  0  0  0  0  0
  187.3060  176.6140  146.5930 C   0  0  0  0  0  3  0  0  0  0  0  0
  1 10  2  0  0  0  0
  1  5  1  0  0  0  0
  2 15  1  0  0  0  0
  3  9  1  0  0  0  0
  4  8  2  0  0  0  0
  4 21  1  0  0  0  0
  5  4  1  0  0  0  0
  6  7  2  0  0  0  0
  6  8  1  0  0  0  0
  9 11  2  0  0  0  0
  9 10  1  0  0  0  0
 10  6  1  0  0  0  0
 11  7  1  0  0  0  0
 12 13  1  0  0  0  0
 12  2  2  0  0  0  0
 13 14  2  0  0  0  0
 14 16  1  0  0  0  0
 15  3  2  0  0  0  0
 15 17  1  0  0  0  0
 16 17  2  0  0  0  0
 17  1  1  0  0  0  0
 18 13  1  0  0  0  0
 19 18  1  0  0  0  0
 20 19  1  0  0  0  0
 20 18  1  0  0  0  0
 22 34  2  0  0  0  0
 23 33  2  0  0  0  0
 24 26  1  0  0  0  0
 25 29  1  0  0  0  0
 25 24  1  0  0  0  0
 26 28  2  0  0  0  0
 27 25  2  0  0  0  0
 28 22  1  0  0  0  0
 31 30  1  6  0  0  0
 31 28  1  0  0  0  0
 31 23  1  0  0  0  0
 32 24  1  0  0  0  0
 32 30  2  0  0  0  0
 33 34  1  0  0  0  0
 33 21  1  0  0  0  0
M  END
>  <MODEL>
7

>  <REMARK>
 VINA RESULT:      -8.1      4.286      7.819
  Name = 
  3 active torsions:
  status: ('A' for Active; 'I' for Inactive)
    1  A    between atoms: N_3  and  C_25
    2  A    between atoms: C_8  and  C_18
    3  A    between atoms: C_18  and  C_30
                            x       y       z     vdW  Elec       q    Type
                         _______ _______ _______ _____ _____    ______ ____

>  <TORSDO>
F 3

$$$$
=
 OpenBabel11052420153D

 34 40  0  0  1  0  0  0  0  0999 V2000
  193.7380  175.2160  142.8250 C   0  0  0  0  0  0  0  0  0  0  0  0
  193.3690  174.3550  139.2230 C   0  0  0  0  0  3  0  0  0  0  0  0
  195.1010  175.3690  140.3580 C   0  0  0  0  0  3  0  0  0  0  0  0
  194.0000  175.8450  145.2820 C   0  0  0  0  0  0  0  0  0  0  0  0
  193.1150  175.2030  144.2110 C   0  0  0  0  0  2  0  0  0  0  0  0
  195.6890  176.2870  143.6670 C   0  0  0  0  0  0  0  0  0  0  0  0
  196.9980  176.8030  143.1450 C   0  0  0  0  0  3  0  0  0  0  0  0
  195.1780  176.3430  145.0020 N   0  0  0  0  0  0  0  0  0  0  0  0
  195.6640  175.8520  141.5310 C   0  0  0  0  0  0  0  0  0  0  0  0
  194.9960  175.7680  142.6950 C   0  0  0  0  0  0  0  0  0  0  0  0
  196.9280  176.4830  141.7090 N   0  0  0  0  0  0  0  0  0  0  0  0
  192.1170  173.7070  138.8250 C   0  0  0  0  0  3  0  0  0  0  0  0
  191.0650  173.3590  139.5570 C   0  0  0  0  0  0  0  0  0  0  0  0
  190.9280  173.5640  140.9990 C   0  0  0  0  0  3  0  0  0  0  0  0
  193.8140  174.7840  140.4050 C   0  0  0  0  0  0  0  0  0  0  0  0
  191.7740  174.1160  141.8600 C   0  0  0  0  0  3  0  0  0  0  0  0
  193.1120  174.7010  141.6590 C   0  0  0  0  0  0  0  0  0  0  0  0
  189.9750  172.7380  138.8860 N   0  0  0  0  0  0  0  0  0  0  0  0
  188.6210  172.7570  138.2590 C   0  0  0  0  0  2  0  0  0  0  0  0
  189.3040  171.5590  138.2640 C   0  0  0  0  0  2  0  0  0  0  0  0
  193.4780  175.9530  146.6740 C   0  0  0  0  0  2  0  0  0  0  0  0
  189.8470  175.3280  147.5250 N   0  0  0  0  0  0  0  0  0  0  0  0
  191.3020  176.8870  145.6720 C   0  0  0  0  0  3  0  0  0  0  0  0
  187.1770  177.0440  145.5600 N   0  0  0  0  0  0  0  0  0  0  0  0
  185.7450  177.0960  145.5180 C   0  0  0  0  0  0  0  0  0  0  0  0
  187.8400  176.2080  146.5300 C   0  0  0  0  0  3  0  0  0  0  0  0
  185.1000  177.8920  144.5790 O   0  0  0  0  0  0  0  0  0  0  0  0
  189.1710  176.1530  146.5740 C   0  0  0  0  0  0  0  0  0  0  0  0
  185.0570  176.4250  146.3330 O   0  0  0  0  0  1  0  0  0  0  0  0
  189.2810  177.7980  144.6420 C   0  0  0  0  0  3  0  0  0  0  0  0
  189.9690  176.9510  145.6250 C   0  0  2  0  0  3  0  0  0  0  0  0
  187.9460  177.8290  144.6280 C   0  0  0  0  0  3  0  0  0  0  0  0
  191.9890  176.0280  146.6650 C   0  0  0  0  0  0  0  0  0  0  0  0
  191.2820  175.2910  147.5340 C   0  0  0  0  0  3  0  0  0  0  0  0
  1  5  1  0  0  0  0
  2 15  1  0  0  0  0
  3 15  2  0  0  0  0
  3  9  1  0  0  0  0
  4 21  1  0  0  0  0
  5  4  1  0  0  0  0
  6  8  1  0  0  0  0
  7  6  2  0  0  0  0
  8  4  2  0  0  0  0
  9 11  2  0  0  0  0
  9 10  1  0  0  0  0
 10  1  2  0  0  0  0
 10  6  1  0  0  0  0
 11  7  1  0  0  0  0
 12  2  2  0  0  0  0
 12 13  1  0  0  0  0
 13 14  2  0  0  0  0
 14 16  1  0  0  0  0
 15 17  1  0  0  0  0
 17 16  2  0  0  0  0
 17  1  1  0  0  0  0
 18 13  1  0  0  0  0
 19 20  1  0  0  0  0
 19 18  1  0  0  0  0
 20 18  1  0  0  0  0
 22 34  2  0  0  0  0
 23 33  2  0  0  0  0
 24 26  1  0  0  0  0
 25 24  1  0  0  0  0
 25 29  1  0  0  0  0
 26 28  2  0  0  0  0
 27 25  2  0  0  0  0
 28 22  1  0  0  0  0
 31 30  1  6  0  0  0
 31 23  1  0  0  0  0
 31 28  1  0  0  0  0
 32 30  2  0  0  0  0
 32 24  1  0  0  0  0
 33 21  1  0  0  0  0
 33 34  1  0  0  0  0
M  END
>  <MODEL>
8

>  <REMARK>
 VINA RESULT:      -8.0      3.999      7.756
  Name = 
  3 active torsions:
  status: ('A' for Active; 'I' for Inactive)
    1  A    between atoms: N_3  and  C_25
    2  A    between atoms: C_8  and  C_18
    3  A    between atoms: C_18  and  C_30
                            x       y       z     vdW  Elec       q    Type
                         _______ _______ _______ _____ _____    ______ ____

>  <TORSDO>
F 3

$$$$
=
 OpenBabel11052420153D

 34 40  0  0  1  0  0  0  0  0999 V2000
  190.4910  176.5030  144.4430 C   0  0  0  0  0  0  0  0  0  0  0  0
  193.3310  174.7960  146.1390 C   0  0  0  0  0  3  0  0  0  0  0  0
  191.1210  175.0200  146.7600 C   0  0  0  0  0  3  0  0  0  0  0  0
  188.5380  177.6930  143.3160 C   0  0  0  0  0  0  0  0  0  0  0  0
  190.0190  177.3140  143.2480 C   0  0  0  0  0  3  0  0  0  0  0  0
  188.3070  176.5490  145.3880 C   0  0  0  0  0  0  0  0  0  0  0  0
  187.6070  176.0470  146.6180 C   0  0  0  0  0  2  0  0  0  0  0  0
  187.7750  177.3330  144.3170 N   0  0  0  0  0  0  0  0  0  0  0  0
  189.8360  175.4890  146.5250 C   0  0  0  0  0  0  0  0  0  0  0  0
  189.5590  176.1930  145.4130 C   0  0  0  0  0  0  0  0  0  0  0  0
  188.6800  175.3430  147.3410 N   0  0  0  0  0  0  0  0  0  0  0  0
  194.6290  174.8460  145.4620 C   0  0  0  0  0  3  0  0  0  0  0  0
  194.9690  175.4090  144.3080 C   0  0  0  0  0  0  0  0  0  0  0  0
  194.0660  176.1400  143.4210 C   0  0  0  0  0  3  0  0  0  0  0  0
  192.1360  175.2920  145.8130 C   0  0  0  0  0  0  0  0  0  0  0  0
  192.7720  176.3990  143.5560 C   0  0  0  0  0  3  0  0  0  0  0  0
  191.8230  176.0460  144.6280 C   0  0  0  0  0  0  0  0  0  0  0  0
  196.3270  175.2960  143.9000 N   0  0  0  0  0  0  0  0  0  0  0  0
  197.4980  175.7010  143.0680 C   0  0  0  0  0  2  0  0  0  0  0  0
  197.6830  174.6760  143.9730 C   0  0  0  0  0  2  0  0  0  0  0  0
  187.9650  178.5440  142.2340 C   0  0  0  0  0  2  0  0  0  0  0  0
  184.4950  179.0010  143.6640 N   0  0  0  0  0  0  0  0  0  0  0  0
  185.6340  178.2350  141.1950 C   0  0  0  0  0  3  0  0  0  0  0  0
  181.5180  178.3020  141.5230 N   0  0  0  0  0  0  0  0  0  0  0  0
  180.0890  178.3220  141.6360 C   0  0  0  0  0  0  0  0  0  0  0  0
  182.3360  178.6660  142.6520 C   0  0  0  0  0  3  0  0  0  0  0  0
  179.2940  177.9630  140.5540 O   0  0  0  0  0  0  0  0  0  0  0  0
  183.6660  178.6480  142.5540 C   0  0  0  0  0  0  0  0  0  0  0  0
  179.5390  178.6670  142.7160 O   0  0  0  0  0  1  0  0  0  0  0  0
  183.4560  177.8860  140.1400 C   0  0  0  0  0  3  0  0  0  0  0  0
  184.3020  178.2540  141.2840 C   0  0  2  0  0  3  0  0  0  0  0  0
  182.1270  177.9160  140.2750 C   0  0  0  0  0  3  0  0  0  0  0  0
  186.4800  178.6050  142.3540 C   0  0  0  0  0  0  0  0  0  0  0  0
  185.9220  178.9620  143.5190 C   0  0  0  0  0  3  0  0  0  0  0  0
  1 17  1  0  0  0  0
  1 10  1  0  0  0  0
  4  8  2  0  0  0  0
  5  4  1  0  0  0  0
  5  1  2  0  0  0  0
  6 10  2  0  0  0  0
  6  7  1  0  0  0  0
  7 11  1  0  0  0  0
  8  6  1  0  0  0  0
  9  3  1  0  0  0  0
  9 11  2  0  0  0  0
 10  9  1  0  0  0  0
 12  2  2  0  0  0  0
 13 12  1  0  0  0  0
 14 16  1  0  0  0  0
 14 13  2  0  0  0  0
 15  2  1  0  0  0  0
 15  3  2  0  0  0  0
 16 17  2  0  0  0  0
 17 15  1  0  0  0  0
 18 20  1  0  0  0  0
 18 13  1  0  0  0  0
 19 18  1  0  0  0  0
 19 20  1  0  0  0  0
 21 33  1  0  0  0  0
 21  4  1  0  0  0  0
 23 31  1  0  0  0  0
 23 33  2  0  0  0  0
 24 25  1  0  0  0  0
 24 26  1  0  0  0  0
 25 29  1  0  0  0  0
 27 25  2  0  0  0  0
 28 26  2  0  0  0  0
 28 22  1  0  0  0  0
 30 32  2  0  0  0  0
 31 30  1  1  0  0  0
 31 28  1  0  0  0  0
 32 24  1  0  0  0  0
 33 34  1  0  0  0  0
 34 22  2  0  0  0  0
M  END
>  <MODEL>
9

>  <REMARK>
 VINA RESULT:      -7.9      4.824      9.650
  Name = 
  3 active torsions:
  status: ('A' for Active; 'I' for Inactive)
    1  A    between atoms: N_3  and  C_25
    2  A    between atoms: C_8  and  C_18
    3  A    between atoms: C_18  and  C_30
                            x       y       z     vdW  Elec       q    Type
                         _______ _______ _______ _____ _____    ______ ____

>  <TORSDO>
F 3

$$$$
