=
 OpenBabel11052420333D

 34 39  0  0  1  0  0  0  0  0999 V2000
  195.3340  175.2700  143.1450 C   0  0  1  0  0  3  0  0  0  0  0  0
  193.6520  173.0940  140.5450 C   0  0  0  0  0  3  0  0  0  0  0  0
  190.4560  173.1070  141.7190 C   0  0  0  0  0  0  0  0  0  0  0  0
  195.8010  172.8020  141.6200 C   0  0  0  0  0  2  0  0  0  0  0  0
  194.4250  175.3290  145.4830 N   0  0  0  0  0  0  0  0  0  0  0  0
  194.7730  176.1360  144.3010 C   0  0  0  0  0  2  0  0  0  0  0  0
  196.1760  173.7810  144.9600 C   0  0  0  0  0  0  0  0  0  0  0  0
  196.4780  172.4770  145.1000 N   0  0  0  0  0  0  0  0  0  0  0  0
  190.1450  172.0220  140.9070 O   0  0  0  0  0  0  0  0  0  0  0  0
  195.6110  174.6530  146.0260 C   0  0  0  0  0  2  0  0  0  0  0  0
  196.2660  172.9770  143.0210 C   0  0  0  0  0  0  0  0  0  0  0  0
  196.0670  174.1240  143.6740 N   0  0  0  0  0  0  0  0  0  0  0  0
  196.5350  171.9670  143.8740 N   0  0  0  0  0  0  0  0  0  0  0  0
  192.3350  173.7060  140.1830 C   0  0  0  0  0  2  0  0  0  0  0  0
  189.7700  173.3180  142.7550 O   0  0  0  0  0  1  0  0  0  0  0  0
  191.5460  173.9750  141.3810 N   0  0  0  0  0  0  0  0  0  0  0  0
  191.8700  175.1090  142.2480 C   0  0  0  0  0  2  0  0  0  0  0  0
  194.5310  173.5930  141.4260 C   0  0  0  0  0  0  0  0  0  0  0  0
  193.2100  175.7350  141.8760 C   0  0  0  0  0  2  0  0  0  0  0  0
  194.3020  174.8150  142.1950 N   0  0  0  0  0  0  0  0  0  0  0  0
  193.8090  176.1760  146.5150 C   0  0  0  0  0  2  0  0  0  0  0  0
  190.2270  175.3200  147.4670 C   0  0  0  0  0  3  0  0  0  0  0  0
  191.5830  176.9060  145.5930 C   0  0  0  0  0  3  0  0  0  0  0  0
  187.3820  176.8060  145.6150 C   0  0  0  0  0  0  0  0  0  0  0  0
  188.1070  176.0440  146.5450 C   0  0  0  0  0  3  0  0  0  0  0  0
  189.5040  176.0750  146.5410 C   0  0  0  0  0  0  0  0  0  0  0  0
  189.4630  177.6310  144.6720 C   0  0  0  0  0  3  0  0  0  0  0  0
  190.1860  176.8750  145.5970 C   0  0  0  0  0  0  0  0  0  0  0  0
  188.0650  177.5960  144.6810 C   0  0  0  0  0  3  0  0  0  0  0  0
  192.3050  176.1440  146.5200 C   0  0  0  0  0  0  0  0  0  0  0  0
  191.6250  175.3550  147.4560 C   0  0  0  0  0  3  0  0  0  0  0  0
  185.8870  176.7850  145.5960 C   0  0  1  0  0  3  0  0  0  0  0  0
  185.3210  177.4040  146.8610 C   0  0  0  0  0  1  0  0  0  0  0  0
  185.3840  177.4920  144.4310 N   0  0  0  0  0  1  0  0  0  0  0  0
  1 12  1  0  0  0  0
  1  6  1  1  0  0  0
  2 18  2  0  0  0  0
  3 15  1  0  0  0  0
  4 11  1  0  0  0  0
  5 10  1  0  0  0  0
  5 21  1  0  0  0  0
  6  5  1  0  0  0  0
  7  8  2  0  0  0  0
  7 10  1  0  0  0  0
  9  3  2  0  0  0  0
 11 12  1  0  0  0  0
 11 13  2  0  0  0  0
 12  7  1  0  0  0  0
 13  8  1  0  0  0  0
 14  2  1  0  0  0  0
 14 16  1  0  0  0  0
 16  3  1  0  0  0  0
 16 17  1  0  0  0  0
 18  4  1  0  0  0  0
 18 20  1  0  0  0  0
 19 20  1  0  0  0  0
 19 17  1  0  0  0  0
 20  1  1  0  0  0  0
 21 30  1  0  0  0  0
 23 28  2  0  0  0  0
 23 30  1  0  0  0  0
 24 25  2  0  0  0  0
 26 25  1  0  0  0  0
 26 22  2  0  0  0  0
 27 29  2  0  0  0  0
 27 28  1  0  0  0  0
 28 26  1  0  0  0  0
 29 24  1  0  0  0  0
 30 31  2  0  0  0  0
 31 22  1  0  0  0  0
 32 24  1  0  0  0  0
 32 33  1  1  0  0  0
 34 32  1  0  0  0  0
M  END
>  <MODEL>
1

>  <REMARK>
 VINA RESULT:      -8.1      0.000      0.000
  Name = 
  3 active torsions:
  status: ('A' for Active; 'I' for Inactive)
    1  A    between atoms: C_7  and  C_11
    2  A    between atoms: N_8  and  C_18
    3  A    between atoms: C_18  and  C_30
                            x       y       z     vdW  Elec       q    Type
                         _______ _______ _______ _____ _____    ______ ____

>  <TORSDO>
F 3

$$$$
=
 OpenBabel11052420333D

 34 39  0  0  1  0  0  0  0  0999 V2000
  194.5810  173.1740  145.2970 C   0  0  1  0  0  3  0  0  0  0  0  0
  196.7720  172.8360  142.2290 C   0  0  0  0  0  3  0  0  0  0  0  0
  196.7990  176.0640  141.1450 C   0  0  0  0  0  0  0  0  0  0  0  0
  195.0070  171.3750  143.0110 C   0  0  0  0  0  2  0  0  0  0  0  0
  192.8250  174.9650  145.3710 N   0  0  0  0  0  0  0  0  0  0  0  0
  194.0130  174.4080  146.0410 C   0  0  0  0  0  2  0  0  0  0  0  0
  192.2200  172.7790  144.5980 C   0  0  0  0  0  0  0  0  0  0  0  0
  191.5850  172.1860  143.5690 N   0  0  0  0  0  0  0  0  0  0  0  0
  197.2840  175.6530  139.9080 O   0  0  0  0  0  0  0  0  0  0  0  0
  191.7340  173.9800  145.3310 C   0  0  0  0  0  2  0  0  0  0  0  0
  193.6610  171.6310  143.5890 C   0  0  0  0  0  0  0  0  0  0  0  0
  193.5080  172.4270  144.6490 N   0  0  0  0  0  0  0  0  0  0  0  0
  192.4970  171.4600  142.9300 N   0  0  0  0  0  0  0  0  0  0  0  0
  197.7250  173.9890  142.1880 C   0  0  0  0  0  2  0  0  0  0  0  0
  196.1740  177.1550  141.2300 O   0  0  0  0  0  1  0  0  0  0  0  0
  197.0080  175.2550  142.3100 N   0  0  0  0  0  0  0  0  0  0  0  0
  196.4850  175.6920  143.6050 C   0  0  0  0  0  2  0  0  0  0  0  0
  195.8520  172.6150  143.1790 C   0  0  0  0  0  0  0  0  0  0  0  0
  196.5640  174.5820  144.6470 C   0  0  0  0  0  2  0  0  0  0  0  0
  195.6280  173.5090  144.3130 N   0  0  0  0  0  0  0  0  0  0  0  0
  192.3800  176.1860  146.0560 C   0  0  0  0  0  2  0  0  0  0  0  0
  189.6320  177.7860  143.9660 C   0  0  0  0  0  3  0  0  0  0  0  0
  189.9090  176.4860  146.4360 C   0  0  0  0  0  3  0  0  0  0  0  0
  186.1390  177.8680  145.1980 C   0  0  0  0  0  0  0  0  0  0  0  0
  187.2600  178.0580  144.3760 C   0  0  0  0  0  3  0  0  0  0  0  0
  188.5160  177.6000  144.7830 C   0  0  0  0  0  0  0  0  0  0  0  0
  187.5370  176.7580  146.8460 C   0  0  0  0  0  3  0  0  0  0  0  0
  188.6540  176.9440  146.0280 C   0  0  0  0  0  0  0  0  0  0  0  0
  186.2830  177.2190  146.4310 C   0  0  0  0  0  3  0  0  0  0  0  0
  191.0280  176.6790  145.6160 C   0  0  0  0  0  0  0  0  0  0  0  0
  190.8850  177.3250  144.3820 C   0  0  0  0  0  3  0  0  0  0  0  0
  184.7860  178.3550  144.7860 C   0  0  1  0  0  3  0  0  0  0  0  0
  183.9310  178.6660  145.9990 C   0  0  0  0  0  1  0  0  0  0  0  0
  184.9050  179.5360  143.9480 N   0  0  0  0  0  1  0  0  0  0  0  0
  1  6  1  6  0  0  0
  2 18  2  0  0  0  0
  3 15  1  0  0  0  0
  3 16  1  0  0  0  0
  4 18  1  0  0  0  0
  4 11  1  0  0  0  0
  5  6  1  0  0  0  0
  5 21  1  0  0  0  0
  7 12  1  0  0  0  0
  7 10  1  0  0  0  0
  8  7  2  0  0  0  0
  9  3  2  0  0  0  0
 10  5  1  0  0  0  0
 11 12  1  0  0  0  0
 12  1  1  0  0  0  0
 13  8  1  0  0  0  0
 13 11  2  0  0  0  0
 14  2  1  0  0  0  0
 14 16  1  0  0  0  0
 16 17  1  0  0  0  0
 17 19  1  0  0  0  0
 18 20  1  0  0  0  0
 20 19  1  0  0  0  0
 20  1  1  0  0  0  0
 22 31  2  0  0  0  0
 22 26  1  0  0  0  0
 24 29  1  0  0  0  0
 25 26  1  0  0  0  0
 25 24  2  0  0  0  0
 26 28  2  0  0  0  0
 28 23  1  0  0  0  0
 28 27  1  0  0  0  0
 29 27  2  0  0  0  0
 30 21  1  0  0  0  0
 30 23  2  0  0  0  0
 31 30  1  0  0  0  0
 32 24  1  0  0  0  0
 32 33  1  1  0  0  0
 34 32  1  0  0  0  0
M  END
>  <MODEL>
2

>  <REMARK>
 VINA RESULT:      -8.1      2.689      3.906
  Name = 
  3 active torsions:
  status: ('A' for Active; 'I' for Inactive)
    1  A    between atoms: C_7  and  C_11
    2  A    between atoms: N_8  and  C_18
    3  A    between atoms: C_18  and  C_30
                            x       y       z     vdW  Elec       q    Type
                         _______ _______ _______ _____ _____    ______ ____

>  <TORSDO>
F 3

$$$$
=
 OpenBabel11052420333D

 34 39  0  0  1  0  0  0  0  0999 V2000
  194.4300  173.1180  143.5540 C   0  0  1  0  0  3  0  0  0  0  0  0
  197.2220  171.2650  145.3130 C   0  0  0  0  0  3  0  0  0  0  0  0
  195.4100  169.0690  147.1820 C   0  0  0  0  0  0  0  0  0  0  0  0
  197.0000  173.6370  144.8820 C   0  0  0  0  0  2  0  0  0  0  0  0
  192.1960  173.3410  144.6750 N   0  0  0  0  0  0  0  0  0  0  0  0
  192.9030  172.8680  143.4720 C   0  0  0  0  0  2  0  0  0  0  0  0
  193.8140  175.0850  144.9580 C   0  0  0  0  0  0  0  0  0  0  0  0
  194.3870  175.8140  145.9340 N   0  0  0  0  0  0  0  0  0  0  0  0
  196.5280  168.8000  147.9640 O   0  0  0  0  0  1  0  0  0  0  0  0
  192.3590  174.7920  144.8450 C   0  0  0  0  0  2  0  0  0  0  0  0
  195.8530  174.5790  144.9630 C   0  0  0  0  0  0  0  0  0  0  0  0
  194.7110  174.3280  144.3190 N   0  0  0  0  0  0  0  0  0  0  0  0
  195.6770  175.4940  145.9380 N   0  0  0  0  0  0  0  0  0  0  0  0
  196.9040  169.8030  145.3150 C   0  0  0  0  0  2  0  0  0  0  0  0
  194.2610  168.8700  147.6590 O   0  0  0  0  0  0  0  0  0  0  0  0
  195.5650  169.5680  145.8460 N   0  0  0  0  0  0  0  0  0  0  0  0
  194.3810  169.8570  145.0340 C   0  0  0  0  0  2  0  0  0  0  0  0
  196.4670  172.2290  144.7670 C   0  0  0  0  0  0  0  0  0  0  0  0
  194.7410  170.6290  143.7700 C   0  0  0  0  0  2  0  0  0  0  0  0
  195.1840  171.9800  144.1140 N   0  0  0  0  0  0  0  0  0  0  0  0
  190.7690  172.9980  144.5950 C   0  0  0  0  0  2  0  0  0  0  0  0
  188.8290  175.1970  147.0180 C   0  0  0  0  0  3  0  0  0  0  0  0
  189.1690  174.9100  144.2490 C   0  0  0  0  0  3  0  0  0  0  0  0
  186.6050  177.8780  145.7560 C   0  0  0  0  0  0  0  0  0  0  0  0
  187.2900  177.0280  146.6390 C   0  0  0  0  0  3  0  0  0  0  0  0
  188.1440  176.0410  146.1420 C   0  0  0  0  0  0  0  0  0  0  0  0
  187.6310  176.7430  143.8700 C   0  0  0  0  0  3  0  0  0  0  0  0
  188.3150  175.8980  144.7460 C   0  0  0  0  0  0  0  0  0  0  0  0
  186.7780  177.7300  144.3740 C   0  0  0  0  0  3  0  0  0  0  0  0
  189.8510  174.0620  145.1310 C   0  0  0  0  0  0  0  0  0  0  0  0
  189.6810  174.2100  146.5130 C   0  0  0  0  0  3  0  0  0  0  0  0
  185.6810  178.9390  146.2640 C   0  0  1  0  0  3  0  0  0  0  0  0
  184.4430  179.0400  145.3930 C   0  0  0  0  0  1  0  0  0  0  0  0
  185.2970  178.6630  147.6380 N   0  0  0  0  0  1  0  0  0  0  0  0
  1  6  1  1  0  0  0
  1 20  1  0  0  0  0
  1 12  1  0  0  0  0
  2 14  1  0  0  0  0
  3 15  2  0  0  0  0
  3  9  1  0  0  0  0
  4 11  1  0  0  0  0
  5 10  1  0  0  0  0
  6  5  1  0  0  0  0
  7  8  2  0  0  0  0
  8 13  1  0  0  0  0
 10  7  1  0  0  0  0
 11 13  2  0  0  0  0
 12  7  1  0  0  0  0
 12 11  1  0  0  0  0
 14 16  1  0  0  0  0
 16  3  1  0  0  0  0
 17 16  1  0  0  0  0
 18  4  1  0  0  0  0
 18  2  2  0  0  0  0
 19 20  1  0  0  0  0
 19 17  1  0  0  0  0
 20 18  1  0  0  0  0
 21  5  1  0  0  0  0
 21 30  1  0  0  0  0
 23 28  2  0  0  0  0
 23 30  1  0  0  0  0
 24 32  1  0  0  0  0
 24 25  2  0  0  0  0
 26 25  1  0  0  0  0
 26 22  2  0  0  0  0
 27 29  2  0  0  0  0
 27 28  1  0  0  0  0
 28 26  1  0  0  0  0
 29 24  1  0  0  0  0
 30 31  2  0  0  0  0
 31 22  1  0  0  0  0
 32 33  1  6  0  0  0
 32 34  1  0  0  0  0
M  END
>  <MODEL>
3

>  <REMARK>
 VINA RESULT:      -7.9      3.144      4.520
  Name = 
  3 active torsions:
  status: ('A' for Active; 'I' for Inactive)
    1  A    between atoms: C_7  and  C_11
    2  A    between atoms: N_8  and  C_18
    3  A    between atoms: C_18  and  C_30
                            x       y       z     vdW  Elec       q    Type
                         _______ _______ _______ _____ _____    ______ ____

>  <TORSDO>
F 3

$$$$
=
 OpenBabel11052420333D

 34 39  0  0  1  0  0  0  0  0999 V2000
  194.1170  173.4330  145.4860 C   0  0  1  0  0  3  0  0  0  0  0  0
  196.5450  172.8870  142.6340 C   0  0  0  0  0  3  0  0  0  0  0  0
  196.6650  176.0300  141.3300 C   0  0  0  0  0  0  0  0  0  0  0  0
  194.7210  171.4780  143.3750 C   0  0  0  0  0  2  0  0  0  0  0  0
  192.3640  175.2170  145.2920 N   0  0  0  0  0  0  0  0  0  0  0  0
  193.4940  174.7140  146.0930 C   0  0  0  0  0  2  0  0  0  0  0  0
  191.8180  172.9810  144.6300 C   0  0  0  0  0  0  0  0  0  0  0  0
  191.2670  172.3140  143.5990 N   0  0  0  0  0  0  0  0  0  0  0  0
  197.2470  175.5340  140.1680 O   0  0  0  0  0  0  0  0  0  0  0  0
  191.2780  174.2280  145.2350 C   0  0  0  0  0  2  0  0  0  0  0  0
  193.3330  171.7690  143.8230 C   0  0  0  0  0  0  0  0  0  0  0  0
  193.0970  172.6380  144.8090 N   0  0  0  0  0  0  0  0  0  0  0  0
  192.2250  171.5480  143.0870 N   0  0  0  0  0  0  0  0  0  0  0  0
  197.5010  174.0370  142.5880 C   0  0  0  0  0  2  0  0  0  0  0  0
  196.0370  177.1210  141.2870 O   0  0  0  0  0  1  0  0  0  0  0  0
  196.7790  175.3060  142.5620 N   0  0  0  0  0  0  0  0  0  0  0  0
  196.1550  175.8320  143.7770 C   0  0  0  0  0  2  0  0  0  0  0  0
  195.5520  172.7300  143.5210 C   0  0  0  0  0  0  0  0  0  0  0  0
  196.1480  174.7990  144.8980 C   0  0  0  0  0  2  0  0  0  0  0  0
  195.2390  173.7010  144.5670 N   0  0  0  0  0  0  0  0  0  0  0  0
  191.8670  176.4830  145.8510 C   0  0  0  0  0  2  0  0  0  0  0  0
  188.1840  177.4300  145.7780 C   0  0  0  0  0  3  0  0  0  0  0  0
  190.3080  177.1060  143.9750 C   0  0  0  0  0  3  0  0  0  0  0  0
  186.5120  178.2350  142.5700 C   0  0  0  0  0  0  0  0  0  0  0  0
  186.7160  178.0190  143.9420 C   0  0  0  0  0  3  0  0  0  0  0  0
  187.9770  177.6430  144.4130 C   0  0  0  0  0  0  0  0  0  0  0  0
  188.8410  177.6950  142.1400 C   0  0  0  0  0  3  0  0  0  0  0  0
  189.0470  177.4810  143.5040 C   0  0  0  0  0  0  0  0  0  0  0  0
  187.5760  178.0710  141.6750 C   0  0  0  0  0  3  0  0  0  0  0  0
  190.5100  176.8880  145.3440 C   0  0  0  0  0  0  0  0  0  0  0  0
  189.4480  177.0540  146.2410 C   0  0  0  0  0  3  0  0  0  0  0  0
  185.1700  178.6320  142.0420 C   0  0  1  0  0  3  0  0  0  0  0  0
  185.0210  178.2270  140.5870 C   0  0  0  0  0  1  0  0  0  0  0  0
  184.1130  178.0280  142.8350 N   0  0  0  0  0  1  0  0  0  0  0  0
  1  6  1  6  0  0  0
  2 18  2  0  0  0  0
  3 16  1  0  0  0  0
  4 18  1  0  0  0  0
  4 11  1  0  0  0  0
  5 21  1  0  0  0  0
  5  6  1  0  0  0  0
  7 12  1  0  0  0  0
  7 10  1  0  0  0  0
  8  7  2  0  0  0  0
  9  3  2  0  0  0  0
 10  5  1  0  0  0  0
 11 12  1  0  0  0  0
 12  1  1  0  0  0  0
 13  8  1  0  0  0  0
 13 11  2  0  0  0  0
 14  2  1  0  0  0  0
 15  3  1  0  0  0  0
 16 14  1  0  0  0  0
 16 17  1  0  0  0  0
 17 19  1  0  0  0  0
 18 20  1  0  0  0  0
 20 19  1  0  0  0  0
 20  1  1  0  0  0  0
 22 31  1  0  0  0  0
 23 30  1  0  0  0  0
 24 25  2  0  0  0  0
 25 26  1  0  0  0  0
 26 22  2  0  0  0  0
 27 28  1  0  0  0  0
 28 23  2  0  0  0  0
 28 26  1  0  0  0  0
 29 27  2  0  0  0  0
 29 24  1  0  0  0  0
 30 21  1  0  0  0  0
 30 31  2  0  0  0  0
 32 33  1  6  0  0  0
 32 24  1  0  0  0  0
 32 34  1  0  0  0  0
M  END
>  <MODEL>
4

>  <REMARK>
 VINA RESULT:      -7.9      2.891      4.154
  Name = 
  3 active torsions:
  status: ('A' for Active; 'I' for Inactive)
    1  A    between atoms: C_7  and  C_11
    2  A    between atoms: N_8  and  C_18
    3  A    between atoms: C_18  and  C_30
                            x       y       z     vdW  Elec       q    Type
                         _______ _______ _______ _____ _____    ______ ____

>  <TORSDO>
F 3

$$$$
=
 OpenBabel11052420333D

 34 39  0  0  1  0  0  0  0  0999 V2000
  192.8310  174.6680  145.9410 C   0  0  1  0  0  3  0  0  0  0  0  0
  196.0650  173.4030  144.4370 C   0  0  0  0  0  3  0  0  0  0  0  0
  196.8410  176.0090  142.3880 C   0  0  0  0  0  0  0  0  0  0  0  0
  194.0090  172.1990  144.8670 C   0  0  0  0  0  2  0  0  0  0  0  0
  191.3780  176.2270  144.6170 N   0  0  0  0  0  0  0  0  0  0  0  0
  192.1190  176.0420  145.8770 C   0  0  0  0  0  2  0  0  0  0  0  0
  190.9560  173.8720  144.5030 C   0  0  0  0  0  0  0  0  0  0  0  0
  190.7600  172.9000  143.5920 N   0  0  0  0  0  0  0  0  0  0  0  0
  197.7610  175.2140  141.7120 O   0  0  0  0  0  0  0  0  0  0  0  0
  190.3200  175.2170  144.4750 C   0  0  0  0  0  2  0  0  0  0  0  0
  192.5750  172.5460  144.6860 C   0  0  0  0  0  0  0  0  0  0  0  0
  192.0650  173.6600  145.2170 N   0  0  0  0  0  0  0  0  0  0  0  0
  191.7840  172.0620  143.7060 N   0  0  0  0  0  0  0  0  0  0  0  0
  197.0500  174.5290  144.3930 C   0  0  0  0  0  2  0  0  0  0  0  0
  196.3410  177.0060  141.8020 O   0  0  0  0  0  1  0  0  0  0  0  0
  196.4670  175.6950  143.7360 N   0  0  0  0  0  0  0  0  0  0  0  0
  195.4910  176.5330  144.4350 C   0  0  0  0  0  2  0  0  0  0  0  0
  194.8160  173.4740  144.9180 C   0  0  0  0  0  0  0  0  0  0  0  0
  195.0240  175.8880  145.7340 C   0  0  0  0  0  2  0  0  0  0  0  0
  194.2190  174.7000  145.4450 N   0  0  0  0  0  0  0  0  0  0  0  0
  190.8010  177.5770  144.5590 C   0  0  0  0  0  2  0  0  0  0  0  0
  188.2460  177.6740  141.7420 C   0  0  0  0  0  3  0  0  0  0  0  0
  188.2910  177.7670  144.5450 C   0  0  0  0  0  3  0  0  0  0  0  0
  184.6300  177.9800  142.4920 C   0  0  0  0  0  0  0  0  0  0  0  0
  185.8310  177.8640  141.7740 C   0  0  0  0  0  3  0  0  0  0  0  0
  187.0500  177.7920  142.4530 C   0  0  0  0  0  0  0  0  0  0  0  0
  185.8760  177.9560  144.5780 C   0  0  0  0  0  3  0  0  0  0  0  0
  187.0710  177.8380  143.8660 C   0  0  0  0  0  0  0  0  0  0  0  0
  184.6590  178.0260  143.8920 C   0  0  0  0  0  3  0  0  0  0  0  0
  189.4880  177.6540  143.8280 C   0  0  0  0  0  0  0  0  0  0  0  0
  189.4620  177.6040  142.4280 C   0  0  0  0  0  3  0  0  0  0  0  0
  183.3140  178.0640  141.7880 C   0  0  1  0  0  3  0  0  0  0  0  0
  182.3460  178.9460  142.5540 C   0  0  0  0  0  1  0  0  0  0  0  0
  183.4900  178.5770  140.4410 N   0  0  0  0  0  1  0  0  0  0  0  0
  1  6  1  6  0  0  0
  2 18  2  0  0  0  0
  3 16  1  0  0  0  0
  4 18  1  0  0  0  0
  5  6  1  0  0  0  0
  7 12  1  0  0  0  0
  8 13  1  0  0  0  0
  8  7  2  0  0  0  0
  9  3  2  0  0  0  0
 10  7  1  0  0  0  0
 10  5  1  0  0  0  0
 11  4  1  0  0  0  0
 11 12  1  0  0  0  0
 12  1  1  0  0  0  0
 13 11  2  0  0  0  0
 14  2  1  0  0  0  0
 15  3  1  0  0  0  0
 16 14  1  0  0  0  0
 16 17  1  0  0  0  0
 17 19  1  0  0  0  0
 18 20  1  0  0  0  0
 20 19  1  0  0  0  0
 20  1  1  0  0  0  0
 21  5  1  0  0  0  0
 22 31  2  0  0  0  0
 22 26  1  0  0  0  0
 24 29  1  0  0  0  0
 25 26  1  0  0  0  0
 25 24  2  0  0  0  0
 26 28  2  0  0  0  0
 28 23  1  0  0  0  0
 28 27  1  0  0  0  0
 29 27  2  0  0  0  0
 30 23  2  0  0  0  0
 30 21  1  0  0  0  0
 31 30  1  0  0  0  0
 32 24  1  0  0  0  0
 32 33  1  1  0  0  0
 34 32  1  0  0  0  0
M  END
>  <MODEL>
5

>  <REMARK>
 VINA RESULT:      -7.9      3.152      4.976
  Name = 
  3 active torsions:
  status: ('A' for Active; 'I' for Inactive)
    1  A    between atoms: C_7  and  C_11
    2  A    between atoms: N_8  and  C_18
    3  A    between atoms: C_18  and  C_30
                            x       y       z     vdW  Elec       q    Type
                         _______ _______ _______ _____ _____    ______ ____

>  <TORSDO>
F 3

$$$$
=
 OpenBabel11052420333D

 34 39  0  0  1  0  0  0  0  0999 V2000
  193.9740  173.7210  142.9940 C   0  0  1  0  0  3  0  0  0  0  0  0
  191.8320  172.3680  140.1830 C   0  0  0  0  0  3  0  0  0  0  0  0
  188.7710  173.5010  141.1530 C   0  0  0  0  0  0  0  0  0  0  0  0
  193.6440  171.2920  141.3730 C   0  0  0  0  0  2  0  0  0  0  0  0
  192.9680  174.0420  145.2710 N   0  0  0  0  0  0  0  0  0  0  0  0
  193.6720  174.7000  144.1560 C   0  0  0  0  0  2  0  0  0  0  0  0
  194.0840  171.9810  144.7770 C   0  0  0  0  0  0  0  0  0  0  0  0
  193.8880  170.6520  144.8670 N   0  0  0  0  0  0  0  0  0  0  0  0
  188.1560  172.6230  140.2670 O   0  0  0  0  0  0  0  0  0  0  0  0
  193.7880  172.9680  145.8500 C   0  0  0  0  0  2  0  0  0  0  0  0
  194.0310  171.2500  142.8080 C   0  0  0  0  0  0  0  0  0  0  0  0
  194.2050  172.3750  143.5060 N   0  0  0  0  0  0  0  0  0  0  0  0
  193.8530  170.1890  143.6210 N   0  0  0  0  0  0  0  0  0  0  0  0
  190.8530  173.4230  139.7710 C   0  0  0  0  0  2  0  0  0  0  0  0
  188.1270  173.9180  142.1530 O   0  0  0  0  0  1  0  0  0  0  0  0
  190.1220  173.9260  140.9300 N   0  0  0  0  0  0  0  0  0  0  0  0
  190.7620  174.8430  141.8740 C   0  0  0  0  0  2  0  0  0  0  0  0
  192.7600  172.4930  141.1420 C   0  0  0  0  0  0  0  0  0  0  0  0
  192.2610  174.9540  141.6210 C   0  0  0  0  0  2  0  0  0  0  0  0
  192.9240  173.6940  141.9580 N   0  0  0  0  0  0  0  0  0  0  0  0
  192.6180  175.0260  146.3040 C   0  0  0  0  0  2  0  0  0  0  0  0
  188.9520  175.2560  147.2970 C   0  0  0  0  0  3  0  0  0  0  0  0
  190.6760  176.3160  145.3540 C   0  0  0  0  0  3  0  0  0  0  0  0
  186.6180  177.4070  145.3840 C   0  0  0  0  0  0  0  0  0  0  0  0
  187.1110  176.5100  146.3460 C   0  0  0  0  0  3  0  0  0  0  0  0
  188.4590  176.1450  146.3390 C   0  0  0  0  0  0  0  0  0  0  0  0
  188.8350  177.5700  144.4040 C   0  0  0  0  0  3  0  0  0  0  0  0
  189.3270  176.6810  145.3600 C   0  0  0  0  0  0  0  0  0  0  0  0
  187.4830  177.9320  144.4160 C   0  0  0  0  0  3  0  0  0  0  0  0
  191.1660  175.4190  146.3120 C   0  0  0  0  0  0  0  0  0  0  0  0
  190.3030  174.8950  147.2830 C   0  0  0  0  0  3  0  0  0  0  0  0
  185.1780  177.8080  145.3680 C   0  0  1  0  0  3  0  0  0  0  0  0
  184.9380  179.0000  146.2750 C   0  0  0  0  0  1  0  0  0  0  0  0
  184.7530  178.1220  144.0140 N   0  0  0  0  0  1  0  0  0  0  0  0
  1 12  1  0  0  0  0
  1  6  1  1  0  0  0
  2 18  2  0  0  0  0
  3 15  1  0  0  0  0
  4 11  1  0  0  0  0
  5 10  1  0  0  0  0
  5 21  1  0  0  0  0
  6  5  1  0  0  0  0
  7  8  2  0  0  0  0
  7 10  1  0  0  0  0
  9  3  2  0  0  0  0
 11 12  1  0  0  0  0
 11 13  2  0  0  0  0
 12  7  1  0  0  0  0
 13  8  1  0  0  0  0
 14  2  1  0  0  0  0
 14 16  1  0  0  0  0
 16  3  1  0  0  0  0
 16 17  1  0  0  0  0
 18  4  1  0  0  0  0
 18 20  1  0  0  0  0
 19 17  1  0  0  0  0
 19 20  1  0  0  0  0
 20  1  1  0  0  0  0
 21 30  1  0  0  0  0
 23 28  2  0  0  0  0
 23 30  1  0  0  0  0
 24 25  2  0  0  0  0
 26 25  1  0  0  0  0
 26 22  2  0  0  0  0
 27 29  2  0  0  0  0
 27 28  1  0  0  0  0
 28 26  1  0  0  0  0
 29 24  1  0  0  0  0
 30 31  2  0  0  0  0
 31 22  1  0  0  0  0
 32 24  1  0  0  0  0
 32 33  1  1  0  0  0
 34 32  1  0  0  0  0
M  END
>  <MODEL>
6

>  <REMARK>
 VINA RESULT:      -7.9      1.707      1.866
  Name = 
  3 active torsions:
  status: ('A' for Active; 'I' for Inactive)
    1  A    between atoms: C_7  and  C_11
    2  A    between atoms: N_8  and  C_18
    3  A    between atoms: C_18  and  C_30
                            x       y       z     vdW  Elec       q    Type
                         _______ _______ _______ _____ _____    ______ ____

>  <TORSDO>
F 3

$$$$
=
 OpenBabel11052420333D

 34 39  0  0  1  0  0  0  0  0999 V2000
  194.1110  172.8310  142.2340 C   0  0  1  0  0  3  0  0  0  0  0  0
  196.0320  174.9930  144.6760 C   0  0  0  0  0  3  0  0  0  0  0  0
  193.4560  176.3400  146.4500 C   0  0  0  0  0  0  0  0  0  0  0  0
  196.4080  174.6650  142.3070 C   0  0  0  0  0  2  0  0  0  0  0  0
  191.7940  173.5040  141.5450 N   0  0  0  0  0  0  0  0  0  0  0  0
  192.6160  172.4370  142.1430 C   0  0  0  0  0  2  0  0  0  0  0  0
  193.6510  174.1990  140.2000 C   0  0  0  0  0  0  0  0  0  0  0  0
  194.1540  175.3090  139.6270 N   0  0  0  0  0  0  0  0  0  0  0  0
  194.3080  177.3090  146.9670 O   0  0  0  0  0  1  0  0  0  0  0  0
  192.2210  173.7860  140.1670 C   0  0  0  0  0  2  0  0  0  0  0  0
  195.4920  174.5740  141.1380 C   0  0  0  0  0  0  0  0  0  0  0  0
  194.4790  173.7060  141.1250 N   0  0  0  0  0  0  0  0  0  0  0  0
  195.3180  175.5470  140.2210 N   0  0  0  0  0  0  0  0  0  0  0  0
  195.4200  174.8480  146.0330 C   0  0  0  0  0  2  0  0  0  0  0  0
  192.2180  176.5710  146.4000 O   0  0  0  0  0  0  0  0  0  0  0  0
  193.9810  175.0920  145.9770 N   0  0  0  0  0  0  0  0  0  0  0  0
  193.0760  174.0820  145.4260 C   0  0  0  0  0  2  0  0  0  0  0  0
  195.6250  174.3670  143.5620 C   0  0  0  0  0  0  0  0  0  0  0  0
  193.8400  172.9600  144.7340 C   0  0  0  0  0  2  0  0  0  0  0  0
  194.4790  173.4610  143.5160 N   0  0  0  0  0  0  0  0  0  0  0  0
  190.3740  173.1260  141.5670 C   0  0  0  0  0  2  0  0  0  0  0  0
  187.6630  175.7200  142.1900 C   0  0  0  0  0  3  0  0  0  0  0  0
  189.6430  174.3590  143.6370 C   0  0  0  0  0  3  0  0  0  0  0  0
  187.1550  177.1340  145.5780 C   0  0  0  0  0  0  0  0  0  0  0  0
  186.9960  176.8900  144.2050 C   0  0  0  0  0  3  0  0  0  0  0  0
  187.8210  175.9680  143.5560 C   0  0  0  0  0  0  0  0  0  0  0  0
  188.9760  175.5280  145.6510 C   0  0  0  0  0  3  0  0  0  0  0  0
  188.8180  175.2810  144.2860 C   0  0  0  0  0  0  0  0  0  0  0  0
  188.1470  176.4520  146.2950 C   0  0  0  0  0  3  0  0  0  0  0  0
  189.4850  174.1180  142.2660 C   0  0  0  0  0  0  0  0  0  0  0  0
  188.4930  174.7970  141.5480 C   0  0  0  0  0  3  0  0  0  0  0  0
  186.2880  178.1200  146.2930 C   0  0  1  0  0  3  0  0  0  0  0  0
  184.8380  177.6740  146.2820 C   0  0  0  0  0  1  0  0  0  0  0  0
  186.7410  178.2960  147.6620 N   0  0  0  0  0  1  0  0  0  0  0  0
  1  6  1  1  0  0  0
  1 20  1  0  0  0  0
  2 14  1  0  0  0  0
  3  9  1  0  0  0  0
  4 18  1  0  0  0  0
  5 21  1  0  0  0  0
  5  6  1  0  0  0  0
  7 12  1  0  0  0  0
  8  7  2  0  0  0  0
  8 13  1  0  0  0  0
 10  7  1  0  0  0  0
 10  5  1  0  0  0  0
 11  4  1  0  0  0  0
 12 11  1  0  0  0  0
 12  1  1  0  0  0  0
 13 11  2  0  0  0  0
 15  3  2  0  0  0  0
 16 14  1  0  0  0  0
 16  3  1  0  0  0  0
 17 16  1  0  0  0  0
 18  2  2  0  0  0  0
 19 17  1  0  0  0  0
 20 18  1  0  0  0  0
 20 19  1  0  0  0  0
 21 30  1  0  0  0  0
 22 26  1  0  0  0  0
 23 28  1  0  0  0  0
 24 32  1  0  0  0  0
 24 29  1  0  0  0  0
 25 24  2  0  0  0  0
 26 25  1  0  0  0  0
 26 28  2  0  0  0  0
 27 29  2  0  0  0  0
 28 27  1  0  0  0  0
 30 23  2  0  0  0  0
 31 22  2  0  0  0  0
 31 30  1  0  0  0  0
 32 33  1  1  0  0  0
 32 34  1  0  0  0  0
M  END
>  <MODEL>
7

>  <REMARK>
 VINA RESULT:      -7.9      2.318      4.655
  Name = 
  3 active torsions:
  status: ('A' for Active; 'I' for Inactive)
    1  A    between atoms: C_7  and  C_11
    2  A    between atoms: N_8  and  C_18
    3  A    between atoms: C_18  and  C_30
                            x       y       z     vdW  Elec       q    Type
                         _______ _______ _______ _____ _____    ______ ____

>  <TORSDO>
F 3

$$$$
=
 OpenBabel11052420333D

 34 39  0  0  1  0  0  0  0  0999 V2000
  194.3460  174.5410  145.1920 C   0  0  1  0  0  3  0  0  0  0  0  0
  197.6470  175.3240  143.5130 C   0  0  0  0  0  3  0  0  0  0  0  0
  196.6240  175.6340  140.2800 C   0  0  0  0  0  0  0  0  0  0  0  0
  197.1640  173.7050  145.2470 C   0  0  0  0  0  2  0  0  0  0  0  0
  192.5520  173.3570  143.8980 N   0  0  0  0  0  0  0  0  0  0  0  0
  192.8850  174.5610  144.6790 C   0  0  0  0  0  2  0  0  0  0  0  0
  194.0720  172.0620  145.2210 C   0  0  0  0  0  0  0  0  0  0  0  0
  194.8710  170.9830  145.1170 N   0  0  0  0  0  0  0  0  0  0  0  0
  197.9410  175.5320  139.8460 O   0  0  0  0  0  1  0  0  0  0  0  0
  192.6720  172.1460  144.7230 C   0  0  0  0  0  2  0  0  0  0  0  0
  196.0420  172.7520  145.4600 C   0  0  0  0  0  0  0  0  0  0  0  0
  194.7750  173.1720  145.4630 N   0  0  0  0  0  0  0  0  0  0  0  0
  196.1180  171.4200  145.2680 N   0  0  0  0  0  0  0  0  0  0  0  0
  197.4320  176.4170  142.5140 C   0  0  0  0  0  2  0  0  0  0  0  0
  195.6900  175.3300  139.4920 O   0  0  0  0  0  0  0  0  0  0  0  0
  196.3340  176.0800  141.6120 N   0  0  0  0  0  0  0  0  0  0  0  0
  194.9450  176.1760  142.0620 C   0  0  0  0  0  2  0  0  0  0  0  0
  196.7050  174.7940  144.3070 C   0  0  0  0  0  0  0  0  0  0  0  0
  194.8550  176.3960  143.5680 C   0  0  0  0  0  2  0  0  0  0  0  0
  195.3010  175.1970  144.2800 N   0  0  0  0  0  0  0  0  0  0  0  0
  191.1910  173.4640  143.3520 C   0  0  0  0  0  2  0  0  0  0  0  0
  189.2460  174.8060  146.3340 C   0  0  0  0  0  3  0  0  0  0  0  0
  189.5440  175.3520  143.5990 C   0  0  0  0  0  3  0  0  0  0  0  0
  186.9420  177.6810  145.9360 C   0  0  0  0  0  0  0  0  0  0  0  0
  187.6610  176.6280  146.5240 C   0  0  0  0  0  3  0  0  0  0  0  0
  188.5270  175.8520  145.7500 C   0  0  0  0  0  0  0  0  0  0  0  0
  187.9610  177.1750  143.7890 C   0  0  0  0  0  3  0  0  0  0  0  0
  188.6780  176.1280  144.3720 C   0  0  0  0  0  0  0  0  0  0  0  0
  187.0950  177.9490  144.5690 C   0  0  0  0  0  3  0  0  0  0  0  0
  190.2590  174.3000  144.1860 C   0  0  0  0  0  0  0  0  0  0  0  0
  190.1100  174.0330  145.5520 C   0  0  0  0  0  3  0  0  0  0  0  0
  186.0050  178.5220  146.7420 C   0  0  1  0  0  3  0  0  0  0  0  0
  184.6430  178.6030  146.0770 C   0  0  0  0  0  1  0  0  0  0  0  0
  185.8680  177.9860  148.0850 N   0  0  0  0  0  1  0  0  0  0  0  0
  1  6  1  6  0  0  0
  1 12  1  0  0  0  0
  2 18  2  0  0  0  0
  3 16  1  0  0  0  0
  4 11  1  0  0  0  0
  5  6  1  0  0  0  0
  5 10  1  0  0  0  0
  7 12  1  0  0  0  0
  8  7  2  0  0  0  0
  8 13  1  0  0  0  0
  9  3  1  0  0  0  0
 10  7  1  0  0  0  0
 11 12  1  0  0  0  0
 13 11  2  0  0  0  0
 14  2  1  0  0  0  0
 15  3  2  0  0  0  0
 16 17  1  0  0  0  0
 16 14  1  0  0  0  0
 17 19  1  0  0  0  0
 18  4  1  0  0  0  0
 19 20  1  0  0  0  0
 20 18  1  0  0  0  0
 20  1  1  0  0  0  0
 21  5  1  0  0  0  0
 21 30  1  0  0  0  0
 23 30  2  0  0  0  0
 23 28  1  0  0  0  0
 24 25  1  0  0  0  0
 24 32  1  0  0  0  0
 26 22  1  0  0  0  0
 26 25  2  0  0  0  0
 27 28  2  0  0  0  0
 27 29  1  0  0  0  0
 28 26  1  0  0  0  0
 29 24  2  0  0  0  0
 30 31  1  0  0  0  0
 31 22  2  0  0  0  0
 32 33  1  6  0  0  0
 32 34  1  0  0  0  0
M  END
>  <MODEL>
8

>  <REMARK>
 VINA RESULT:      -7.6      2.720      3.735
  Name = 
  3 active torsions:
  status: ('A' for Active; 'I' for Inactive)
    1  A    between atoms: C_7  and  C_11
    2  A    between atoms: N_8  and  C_18
    3  A    between atoms: C_18  and  C_30
                            x       y       z     vdW  Elec       q    Type
                         _______ _______ _______ _____ _____    ______ ____

>  <TORSDO>
F 3

$$$$
=
 OpenBabel11052420333D

 34 39  0  0  1  0  0  0  0  0999 V2000
  194.3930  175.7820  143.8870 C   0  0  1  0  0  3  0  0  0  0  0  0
  197.4750  175.3030  141.7420 C   0  0  0  0  0  3  0  0  0  0  0  0
  196.0860  173.8230  139.0080 C   0  0  0  0  0  0  0  0  0  0  0  0
  197.2030  174.9520  144.1220 C   0  0  0  0  0  2  0  0  0  0  0  0
  192.4690  174.1880  143.6600 N   0  0  0  0  0  0  0  0  0  0  0  0
  192.8830  175.6010  143.5970 C   0  0  0  0  0  2  0  0  0  0  0  0
  194.1390  173.7590  145.3230 C   0  0  0  0  0  0  0  0  0  0  0  0
  194.9270  172.7600  145.7630 N   0  0  0  0  0  0  0  0  0  0  0  0
  197.3440  173.4190  138.5780 O   0  0  0  0  0  0  0  0  0  0  0  0
  192.6910  173.6350  145.0040 C   0  0  0  0  0  2  0  0  0  0  0  0
  196.1190  174.3480  144.9410 C   0  0  0  0  0  0  0  0  0  0  0  0
  194.8580  174.7730  144.8330 N   0  0  0  0  0  0  0  0  0  0  0  0
  196.1800  173.1320  145.5200 N   0  0  0  0  0  0  0  0  0  0  0  0
  197.1400  175.6660  140.3300 C   0  0  0  0  0  2  0  0  0  0  0  0
  195.0680  173.1890  138.6200 O   0  0  0  0  0  1  0  0  0  0  0  0
  195.9480  174.9510  139.8830 N   0  0  0  0  0  0  0  0  0  0  0  0
  194.6190  175.3630  140.3370 C   0  0  0  0  0  2  0  0  0  0  0  0
  196.6340  175.3600  142.7850 C   0  0  0  0  0  0  0  0  0  0  0  0
  194.7020  176.3870  141.4630 C   0  0  0  0  0  2  0  0  0  0  0  0
  195.2330  175.7630  142.6750 N   0  0  0  0  0  0  0  0  0  0  0  0
  191.0540  174.0550  143.2850 C   0  0  0  0  0  2  0  0  0  0  0  0
  189.1190  174.9140  146.4460 C   0  0  0  0  0  3  0  0  0  0  0  0
  189.3150  175.8020  143.7920 C   0  0  0  0  0  3  0  0  0  0  0  0
  186.6540  177.6810  146.4480 C   0  0  0  0  0  0  0  0  0  0  0  0
  187.4440  176.6070  146.8890 C   0  0  0  0  0  3  0  0  0  0  0  0
  188.3300  175.9800  146.0090 C   0  0  0  0  0  0  0  0  0  0  0  0
  187.6400  177.4950  144.2350 C   0  0  0  0  0  3  0  0  0  0  0  0
  188.4290  176.4290  144.6720 C   0  0  0  0  0  0  0  0  0  0  0  0
  186.7550  178.1190  145.1210 C   0  0  0  0  0  3  0  0  0  0  0  0
  190.1010  174.7300  144.2330 C   0  0  0  0  0  0  0  0  0  0  0  0
  190.0030  174.2910  145.5590 C   0  0  0  0  0  3  0  0  0  0  0  0
  185.6940  178.3630  147.3690 C   0  0  1  0  0  3  0  0  0  0  0  0
  186.2980  179.6360  147.9320 C   0  0  0  0  0  1  0  0  0  0  0  0
  184.4540  178.6680  146.6760 N   0  0  0  0  0  1  0  0  0  0  0  0
  1  6  1  6  0  0  0
  1 12  1  0  0  0  0
  2 18  2  0  0  0  0
  3 16  1  0  0  0  0
  4 11  1  0  0  0  0
  5 10  1  0  0  0  0
  6  5  1  0  0  0  0
  7  8  2  0  0  0  0
  9  3  2  0  0  0  0
 10  7  1  0  0  0  0
 11 13  2  0  0  0  0
 12 11  1  0  0  0  0
 12  7  1  0  0  0  0
 13  8  1  0  0  0  0
 14  2  1  0  0  0  0
 15  3  1  0  0  0  0
 16 14  1  0  0  0  0
 16 17  1  0  0  0  0
 17 19  1  0  0  0  0
 18  4  1  0  0  0  0
 19 20  1  0  0  0  0
 20 18  1  0  0  0  0
 20  1  1  0  0  0  0
 21  5  1  0  0  0  0
 21 30  1  0  0  0  0
 23 30  2  0  0  0  0
 23 28  1  0  0  0  0
 24 25  1  0  0  0  0
 24 32  1  0  0  0  0
 26 22  1  0  0  0  0
 26 25  2  0  0  0  0
 27 28  2  0  0  0  0
 27 29  1  0  0  0  0
 28 26  1  0  0  0  0
 29 24  2  0  0  0  0
 30 31  1  0  0  0  0
 31 22  2  0  0  0  0
 32 33  1  6  0  0  0
 34 32  1  0  0  0  0
M  END
>  <MODEL>
9

>  <REMARK>
 VINA RESULT:      -7.4      2.467      3.372
  Name = 
  3 active torsions:
  status: ('A' for Active; 'I' for Inactive)
    1  A    between atoms: C_7  and  C_11
    2  A    between atoms: N_8  and  C_18
    3  A    between atoms: C_18  and  C_30
                            x       y       z     vdW  Elec       q    Type
                         _______ _______ _______ _____ _____    ______ ____

>  <TORSDO>
F 3

$$$$
