=
 OpenBabel11052421313D

 32 37  0  0  1  0  0  0  0  0999 V2000
  192.4620  175.1310  145.0760 C   0  0  1  0  0  3  0  0  0  0  0  0
  188.0040  176.6090  143.8740 C   0  0  1  0  0  3  0  0  0  0  0  0
  186.1060  177.8810  148.2620 C   0  0  0  0  0  3  0  0  0  0  0  0
  184.9790  178.5360  147.5610 C   0  0  0  0  0  3  0  0  0  0  0  0
  186.5870  177.1270  141.8130 C   0  0  0  0  0  0  0  0  0  0  0  0
  185.3790  177.5610  141.2940 C   0  0  0  0  0  0  0  0  0  0  0  0
  189.9770  175.3230  143.7640 C   0  0  1  0  0  3  0  0  0  0  0  0
  189.2360  176.1800  145.9440 N   0  0  0  0  0  2  0  0  0  0  0  0
  183.2740  178.2900  141.3720 C   0  0  0  0  0  0  0  0  0  0  0  0
  191.2470  174.7560  145.9280 C   0  0  0  0  0  2  0  0  0  0  0  0
  187.0860  177.2970  147.5610 C   0  0  0  0  0  3  0  0  0  0  0  0
  187.8900  176.3020  145.3800 C   0  0  1  0  0  3  0  0  0  0  0  0
  187.0850  177.3960  146.0570 C   0  0  1  0  0  3  0  0  0  0  0  0
  185.5660  177.4020  144.0370 C   0  0  0  0  0  0  0  0  0  0  0  0
  183.6410  178.2280  140.0690 N   0  0  0  0  0  0  0  0  0  0  0  0
  192.5120  174.2410  143.4640 S   0  0  0  0  0  0  0  0  0  0  0  0
  189.8910  175.0550  145.2760 C   0  0  2  0  0  3  0  0  0  0  0  0
  184.9270  177.7860  140.0090 C   0  0  0  0  0  3  0  0  0  0  0  0
  190.7180  174.1920  143.0840 C   0  0  0  0  0  2  0  0  0  0  0  0
  184.7740  178.3050  146.2580 C   0  0  0  0  0  3  0  0  0  0  0  0
  185.6450  177.3070  145.5390 C   0  0  2  0  0  3  0  0  0  0  0  0
  184.4180  177.8130  143.4810 O   0  0  0  0  0  0  0  0  0  0  0  0
  188.6300  175.4640  143.2120 N   0  0  0  0  0  2  0  0  0  0  0  0
  187.6860  176.8530  140.9460 N   0  0  0  0  0  1  0  0  0  0  0  0
  181.9350  178.7400  141.8400 C   0  0  0  0  0  1  0  0  0  0  0  0
  186.6860  177.0030  143.2250 C   0  0  0  0  0  0  0  0  0  0  0  0
  184.3130  177.8930  142.1680 C   0  0  0  0  0  0  0  0  0  0  0  0
  192.5720  176.6390  144.8930 C   0  0  0  0  0  2  0  0  0  0  0  0
  194.1920  177.2230  145.4210 S   0  0  1  0  0  0  0  0  0  0  0  0
  194.1400  177.0690  146.9350 O   0  0  0  0  0  0  0  0  0  0  0  0
  195.2690  175.9380  144.9200 N   0  0  0  0  0  2  0  0  0  0  0  0
  196.0670  176.4610  143.8260 C   0  0  0  0  0  1  0  0  0  0  0  0
  1 28  1  6  0  0  0
  1 10  1  0  0  0  0
  2 23  1  6  0  0  0
  2 12  1  0  0  0  0
  4  3  1  0  0  0  0
  5 26  1  0  0  0  0
  6  5  2  0  0  0  0
  6 27  1  0  0  0  0
  7 19  1  6  0  0  0
  7 17  1  0  0  0  0
  9 25  1  0  0  0  0
  9 27  2  0  0  0  0
 11  3  2  0  0  0  0
 12  8  1  1  0  0  0
 12 13  1  0  0  0  0
 13 11  1  1  0  0  0
 14 21  1  0  0  0  0
 15  9  1  0  0  0  0
 16  1  1  0  0  0  0
 17 10  1  1  0  0  0
 17  8  1  0  0  0  0
 18 15  2  0  0  0  0
 18  6  1  0  0  0  0
 19 16  1  0  0  0  0
 20  4  2  0  0  0  0
 21 13  1  0  0  0  0
 21 20  1  1  0  0  0
 22 14  1  0  0  0  0
 23  7  1  0  0  0  0
 24  5  1  0  0  0  0
 26  2  1  0  0  0  0
 26 14  2  0  0  0  0
 27 22  1  0  0  0  0
 28 29  1  0  0  0  0
 29 30  2  1  0  0  0
 31 29  1  0  0  0  0
 32 31  1  0  0  0  0
M  END
>  <MODEL>
1

>  <REMARK>
 VINA RESULT:      -8.7      0.000      0.000
  Name = 
  3 active torsions:
  status: ('A' for Active; 'I' for Inactive)
    1  A    between atoms: S_1  and  N_10
    2  A    between atoms: S_1  and  C_24
    3  A    between atoms: C_2  and  C_24
                            x       y       z     vdW  Elec       q    Type
                         _______ _______ _______ _____ _____    ______ ____

>  <TORSDO>
F 3

$$$$
=
 OpenBabel11052421313D

 32 37  0  0  1  0  0  0  0  0999 V2000
  185.4010  178.6910  142.5710 C   0  0  1  0  0  3  0  0  0  0  0  0
  188.7560  175.2800  143.3530 C   0  0  1  0  0  3  0  0  0  0  0  0
  190.9870  176.9270  147.4500 C   0  0  0  0  0  3  0  0  0  0  0  0
  191.6600  175.6160  147.5860 C   0  0  0  0  0  3  0  0  0  0  0  0
  189.4580  172.9740  142.5080 C   0  0  0  0  0  0  0  0  0  0  0  0
  190.3160  171.8930  142.6140 C   0  0  0  0  0  0  0  0  0  0  0  0
  187.3500  176.7090  142.1140 C   0  0  1  0  0  3  0  0  0  0  0  0
  188.1970  177.4690  144.2900 N   0  0  0  0  0  2  0  0  0  0  0  0
  192.0240  170.7210  143.4400 C   0  0  0  0  0  0  0  0  0  0  0  0
  186.8210  179.0620  143.0080 C   0  0  0  0  0  2  0  0  0  0  0  0
  190.1360  177.1460  146.4390 C   0  0  0  0  0  3  0  0  0  0  0  0
  189.2760  176.4900  144.1530 C   0  0  1  0  0  3  0  0  0  0  0  0
  189.7920  176.0170  145.5000 C   0  0  1  0  0  3  0  0  0  0  0  0
  190.7670  174.0070  144.3210 C   0  0  0  0  0  0  0  0  0  0  0  0
  191.4370  169.9710  142.4770 N   0  0  0  0  0  0  0  0  0  0  0  0
  185.3180  178.0930  140.8310 S   0  0  0  0  0  0  0  0  0  0  0  0
  187.8320  177.9100  142.9430 C   0  0  2  0  0  3  0  0  0  0  0  0
  190.3900  170.6750  141.9660 C   0  0  0  0  0  3  0  0  0  0  0  0
  186.9050  177.1760  140.7450 C   0  0  0  0  0  2  0  0  0  0  0  0
  191.6540  174.7500  146.5640 C   0  0  0  0  0  3  0  0  0  0  0  0
  191.0380  175.1600  145.2520 C   0  0  2  0  0  3  0  0  0  0  0  0
  191.5700  172.9350  144.3780 O   0  0  0  0  0  0  0  0  0  0  0  0
  188.4260  175.7250  141.9990 N   0  0  0  0  0  2  0  0  0  0  0  0
  188.3600  172.9340  141.5990 N   0  0  0  0  0  1  0  0  0  0  0  0
  193.2020  170.2830  144.2360 C   0  0  0  0  0  1  0  0  0  0  0  0
  189.7020  174.0880  143.3540 C   0  0  0  0  0  0  0  0  0  0  0  0
  191.3670  171.9150  143.5660 C   0  0  0  0  0  0  0  0  0  0  0  0
  184.7580  177.7060  143.5390 C   0  0  0  0  0  2  0  0  0  0  0  0
  184.9880  178.2500  145.2410 S   0  0  1  0  0  0  0  0  0  0  0  0
  183.5990  178.7310  145.6410 O   0  0  0  0  0  0  0  0  0  0  0  0
  185.1670  176.7510  146.1240 N   0  0  0  0  0  2  0  0  0  0  0  0
  186.0770  177.0160  147.2220 C   0  0  0  0  0  1  0  0  0  0  0  0
  1 10  1  0  0  0  0
  1 28  1  1  0  0  0
  2 23  1  6  0  0  0
  2 26  1  0  0  0  0
  2 12  1  0  0  0  0
  3  4  1  0  0  0  0
  5  6  2  0  0  0  0
  5 26  1  0  0  0  0
  6 27  1  0  0  0  0
  7 19  1  6  0  0  0
  7 17  1  0  0  0  0
  9 27  2  0  0  0  0
  9 25  1  0  0  0  0
 11  3  2  0  0  0  0
 12  8  1  1  0  0  0
 12 13  1  0  0  0  0
 13 11  1  1  0  0  0
 14 22  1  0  0  0  0
 14 21  1  0  0  0  0
 15  9  1  0  0  0  0
 16  1  1  0  0  0  0
 17 10  1  1  0  0  0
 17  8  1  0  0  0  0
 18 15  2  0  0  0  0
 18  6  1  0  0  0  0
 19 16  1  0  0  0  0
 20  4  2  0  0  0  0
 21 13  1  0  0  0  0
 21 20  1  1  0  0  0
 23  7  1  0  0  0  0
 24  5  1  0  0  0  0
 26 14  2  0  0  0  0
 27 22  1  0  0  0  0
 28 29  1  0  0  0  0
 29 30  2  1  0  0  0
 29 31  1  0  0  0  0
 31 32  1  0  0  0  0
M  END
>  <MODEL>
2

>  <REMARK>
 VINA RESULT:      -8.2      3.466      7.532
  Name = 
  3 active torsions:
  status: ('A' for Active; 'I' for Inactive)
    1  A    between atoms: S_1  and  N_10
    2  A    between atoms: S_1  and  C_24
    3  A    between atoms: C_2  and  C_24
                            x       y       z     vdW  Elec       q    Type
                         _______ _______ _______ _____ _____    ______ ____

>  <TORSDO>
F 3

$$$$
=
 OpenBabel11052421313D

 32 37  0  0  1  0  0  0  0  0999 V2000
  192.7590  172.9840  140.4240 C   0  0  1  0  0  3  0  0  0  0  0  0
  189.3040  175.3810  142.8360 C   0  0  1  0  0  3  0  0  0  0  0  0
  191.4310  176.1320  147.2390 C   0  0  0  0  0  3  0  0  0  0  0  0
  190.3470  177.0820  147.5770 C   0  0  0  0  0  3  0  0  0  0  0  0
  187.0390  176.4950  142.4470 C   0  0  0  0  0  0  0  0  0  0  0  0
  185.9750  177.2130  142.9680 C   0  0  0  0  0  0  0  0  0  0  0  0
  190.2260  173.8260  141.3240 C   0  0  1  0  0  3  0  0  0  0  0  0
  191.4730  174.3830  143.3660 N   0  0  0  0  0  2  0  0  0  0  0  0
  184.8030  178.2570  144.5510 C   0  0  0  0  0  0  0  0  0  0  0  0
  192.4530  172.6690  141.8900 C   0  0  0  0  0  2  0  0  0  0  0  0
  191.4490  175.5290  146.0430 C   0  0  0  0  0  3  0  0  0  0  0  0
  190.2090  174.8280  143.9530 C   0  0  1  0  0  3  0  0  0  0  0  0
  190.4160  175.9000  145.0080 C   0  0  1  0  0  3  0  0  0  0  0  0
  187.9860  176.5280  144.7200 C   0  0  0  0  0  0  0  0  0  0  0  0
  184.1190  178.3730  143.3870 N   0  0  0  0  0  0  0  0  0  0  0  0
  191.4410  172.4080  139.2740 S   0  0  0  0  0  0  0  0  0  0  0  0
  191.1640  173.3050  142.4260 C   0  0  2  0  0  3  0  0  0  0  0  0
  184.8260  177.7410  142.4110 C   0  0  0  0  0  3  0  0  0  0  0  0
  189.9640  172.7300  140.3130 C   0  0  0  0  0  2  0  0  0  0  0  0
  189.2390  177.1310  146.8270 C   0  0  0  0  0  3  0  0  0  0  0  0
  189.0690  176.1490  145.6960 C   0  0  2  0  0  3  0  0  0  0  0  0
  186.9300  177.2190  145.1710 O   0  0  0  0  0  0  0  0  0  0  0  0
  188.9740  174.2880  141.9210 N   0  0  0  0  0  2  0  0  0  0  0  0
  187.0960  176.2040  141.0510 N   0  0  0  0  0  1  0  0  0  0  0  0
  184.3490  178.8320  145.8450 C   0  0  0  0  0  1  0  0  0  0  0  0
  188.0650  176.1010  143.3460 C   0  0  0  0  0  0  0  0  0  0  0  0
  185.9580  177.5530  144.3440 C   0  0  0  0  0  0  0  0  0  0  0  0
  193.0770  174.4600  140.2250 C   0  0  0  0  0  2  0  0  0  0  0  0
  194.6230  174.8910  141.0440 S   0  0  1  0  0  0  0  0  0  0  0  0
  195.4170  175.5820  139.9440 O   0  0  0  0  0  0  0  0  0  0  0  0
  194.1670  176.2070  142.1020 N   0  0  0  0  0  2  0  0  0  0  0  0
  194.7970  175.9540  143.3840 C   0  0  0  0  0  1  0  0  0  0  0  0
  1 28  1  1  0  0  0
  1 10  1  0  0  0  0
  2 23  1  6  0  0  0
  2 26  1  0  0  0  0
  2 12  1  0  0  0  0
  3  4  1  0  0  0  0
  5  6  2  0  0  0  0
  5 26  1  0  0  0  0
  6 27  1  0  0  0  0
  7 19  1  6  0  0  0
  7 23  1  0  0  0  0
  7 17  1  0  0  0  0
  9 25  1  0  0  0  0
 11  3  2  0  0  0  0
 12  8  1  6  0  0  0
 12 13  1  0  0  0  0
 13 21  1  0  0  0  0
 13 11  1  1  0  0  0
 14 22  1  0  0  0  0
 14 21  1  0  0  0  0
 15  9  1  0  0  0  0
 16 19  1  0  0  0  0
 16  1  1  0  0  0  0
 17 10  1  6  0  0  0
 17  8  1  0  0  0  0
 18  6  1  0  0  0  0
 18 15  2  0  0  0  0
 20  4  2  0  0  0  0
 21 20  1  1  0  0  0
 24  5  1  0  0  0  0
 26 14  2  0  0  0  0
 27  9  2  0  0  0  0
 27 22  1  0  0  0  0
 28 29  1  0  0  0  0
 29 30  2  6  0  0  0
 29 31  1  0  0  0  0
 31 32  1  0  0  0  0
M  END
>  <MODEL>
3

>  <REMARK>
 VINA RESULT:      -7.8      2.543      3.832
  Name = 
  3 active torsions:
  status: ('A' for Active; 'I' for Inactive)
    1  A    between atoms: S_1  and  N_10
    2  A    between atoms: S_1  and  C_24
    3  A    between atoms: C_2  and  C_24
                            x       y       z     vdW  Elec       q    Type
                         _______ _______ _______ _____ _____    ______ ____

>  <TORSDO>
F 3

$$$$
=
 OpenBabel11052421313D

 32 37  0  0  1  0  0  0  0  0999 V2000
  192.8010  170.9590  142.7870 C   0  0  1  0  0  3  0  0  0  0  0  0
  189.7480  174.6430  143.5670 C   0  0  1  0  0  3  0  0  0  0  0  0
  191.1910  176.2740  148.0090 C   0  0  0  0  0  3  0  0  0  0  0  0
  190.3600  177.4830  147.8120 C   0  0  0  0  0  3  0  0  0  0  0  0
  187.9700  176.0210  142.3570 C   0  0  0  0  0  0  0  0  0  0  0  0
  187.0630  177.0670  142.3950 C   0  0  0  0  0  0  0  0  0  0  0  0
  190.4700  172.5400  142.7850 C   0  0  1  0  0  3  0  0  0  0  0  0
  191.4410  173.4370  144.8550 N   0  0  0  0  0  2  0  0  0  0  0  0
  185.9560  178.7700  143.3150 C   0  0  0  0  0  0  0  0  0  0  0  0
  192.1690  171.1860  144.1620 C   0  0  0  0  0  2  0  0  0  0  0  0
  191.2560  175.3390  147.0530 C   0  0  0  0  0  3  0  0  0  0  0  0
  190.2600  174.2920  144.9770 C   0  0  1  0  0  3  0  0  0  0  0  0
  190.5590  175.5730  145.7360 C   0  0  1  0  0  3  0  0  0  0  0  0
  188.4770  176.5640  144.7050 C   0  0  0  0  0  0  0  0  0  0  0  0
  185.5430  178.6560  142.0290 N   0  0  0  0  0  0  0  0  0  0  0  0
  191.6000  170.3370  141.5370 S   0  0  0  0  0  0  0  0  0  0  0  0
  191.0240  172.2070  144.1800 C   0  0  2  0  0  3  0  0  0  0  0  0
  186.2150  177.6200  141.4560 C   0  0  0  0  0  3  0  0  0  0  0  0
  190.1050  171.2630  142.0600 C   0  0  0  0  0  2  0  0  0  0  0  0
  189.4550  177.5220  146.8260 C   0  0  0  0  0  3  0  0  0  0  0  0
  189.2300  176.2950  145.9820 C   0  0  2  0  0  3  0  0  0  0  0  0
  187.5830  177.5630  144.6870 O   0  0  0  0  0  0  0  0  0  0  0  0
  189.3030  173.4120  142.9140 N   0  0  0  0  0  2  0  0  0  0  0  0
  188.1910  175.3050  141.1430 N   0  0  0  0  0  1  0  0  0  0  0  0
  185.4530  179.7990  144.2630 C   0  0  0  0  0  1  0  0  0  0  0  0
  188.6780  175.7250  143.5520 C   0  0  0  0  0  0  0  0  0  0  0  0
  186.8980  177.8150  143.5880 C   0  0  0  0  0  0  0  0  0  0  0  0
  193.5340  172.2020  142.2970 C   0  0  0  0  0  2  0  0  0  0  0  0
  194.8000  172.6960  143.4790 S   0  0  1  0  0  0  0  0  0  0  0  0
  196.0950  172.4900  142.7060 O   0  0  0  0  0  0  0  0  0  0  0  0
  194.6380  174.4370  143.5390 N   0  0  0  0  0  2  0  0  0  0  0  0
  193.6730  174.8050  142.5200 C   0  0  0  0  0  1  0  0  0  0  0  0
  1 28  1  6  0  0  0
  1 10  1  0  0  0  0
  2 23  1  1  0  0  0
  2 12  1  0  0  0  0
  4  3  1  0  0  0  0
  5  6  2  0  0  0  0
  5 26  1  0  0  0  0
  6 27  1  0  0  0  0
  7 19  1  1  0  0  0
  7 23  1  0  0  0  0
  7 17  1  0  0  0  0
  9 27  2  0  0  0  0
  9 25  1  0  0  0  0
 11  3  2  0  0  0  0
 12  8  1  6  0  0  0
 12 13  1  0  0  0  0
 13 21  1  0  0  0  0
 13 11  1  1  0  0  0
 14 21  1  0  0  0  0
 15  9  1  0  0  0  0
 16 19  1  0  0  0  0
 16  1  1  0  0  0  0
 17 10  1  6  0  0  0
 17  8  1  0  0  0  0
 18 15  2  0  0  0  0
 18  6  1  0  0  0  0
 20  4  2  0  0  0  0
 21 20  1  6  0  0  0
 22 14  1  0  0  0  0
 24  5  1  0  0  0  0
 26  2  1  0  0  0  0
 26 14  2  0  0  0  0
 27 22  1  0  0  0  0
 28 29  1  0  0  0  0
 29 30  2  6  0  0  0
 29 31  1  0  0  0  0
 32 31  1  0  0  0  0
M  END
>  <MODEL>
4

>  <REMARK>
 VINA RESULT:      -7.7      2.705      3.766
  Name = 
  3 active torsions:
  status: ('A' for Active; 'I' for Inactive)
    1  A    between atoms: S_1  and  N_10
    2  A    between atoms: S_1  and  C_24
    3  A    between atoms: C_2  and  C_24
                            x       y       z     vdW  Elec       q    Type
                         _______ _______ _______ _____ _____    ______ ____

>  <TORSDO>
F 3

$$$$
=
 OpenBabel11052421313D

 32 37  0  0  1  0  0  0  0  0999 V2000
  190.8910  172.4110  139.7350 C   0  0  1  0  0  3  0  0  0  0  0  0
  188.9040  175.2160  143.1540 C   0  0  1  0  0  3  0  0  0  0  0  0
  192.2620  174.9820  146.7800 C   0  0  0  0  0  3  0  0  0  0  0  0
  191.5730  176.1010  147.4610 C   0  0  0  0  0  3  0  0  0  0  0  0
  186.9570  176.8340  143.4910 C   0  0  0  0  0  0  0  0  0  0  0  0
  186.2800  177.7030  144.3310 C   0  0  0  0  0  0  0  0  0  0  0  0
  188.9780  173.6780  141.3700 C   0  0  1  0  0  3  0  0  0  0  0  0
  190.8280  173.7150  142.9850 N   0  0  0  0  0  2  0  0  0  0  0  0
  185.8700  178.7920  146.2320 C   0  0  0  0  0  0  0  0  0  0  0  0
  190.9280  172.0070  141.2110 C   0  0  0  0  0  2  0  0  0  0  0  0
  191.8090  174.5290  145.6040 C   0  0  0  0  0  3  0  0  0  0  0  0
  189.9170  174.3560  143.9340 C   0  0  1  0  0  3  0  0  0  0  0  0
  190.6550  175.2300  144.9320 C   0  0  1  0  0  3  0  0  0  0  0  0
  188.4640  176.4020  145.3900 C   0  0  0  0  0  0  0  0  0  0  0  0
  184.9440  179.1850  145.3240 N   0  0  0  0  0  0  0  0  0  0  0  0
  189.2120  172.2700  138.9920 S   0  0  0  0  0  0  0  0  0  0  0  0
  190.0250  172.8440  142.1260 C   0  0  2  0  0  3  0  0  0  0  0  0
  185.1860  178.5280  144.1570 C   0  0  0  0  0  3  0  0  0  0  0  0
  188.1950  172.7870  140.4290 C   0  0  0  0  0  2  0  0  0  0  0  0
  190.3480  176.4750  147.0680 C   0  0  0  0  0  3  0  0  0  0  0  0
  189.6470  175.6880  145.9920 C   0  0  2  0  0  3  0  0  0  0  0  0
  187.7690  177.2520  146.1600 O   0  0  0  0  0  0  0  0  0  0  0  0
  188.0840  174.3320  142.3250 N   0  0  0  0  0  2  0  0  0  0  0  0
  186.5610  176.6970  142.1270 N   0  0  0  0  0  1  0  0  0  0  0  0
  185.9370  179.3010  147.6280 C   0  0  0  0  0  1  0  0  0  0  0  0
  188.0620  176.1270  144.0350 C   0  0  0  0  0  0  0  0  0  0  0  0
  186.7200  177.8810  145.6660 C   0  0  0  0  0  0  0  0  0  0  0  0
  191.4900  173.7950  139.5210 C   0  0  0  0  0  2  0  0  0  0  0  0
  191.9520  174.0240  137.7950 S   0  0  1  0  0  0  0  0  0  0  0  0
  193.1850  174.9130  137.8810 O   0  0  0  0  0  0  0  0  0  0  0  0
  192.6070  172.4660  137.3420 N   0  0  0  0  0  2  0  0  0  0  0  0
  192.3830  172.3150  135.9160 C   0  0  0  0  0  1  0  0  0  0  0  0
  1 28  1  1  0  0  0
  1 10  1  0  0  0  0
  2 23  1  1  0  0  0
  2 12  1  0  0  0  0
  2 26  1  0  0  0  0
  3  4  1  0  0  0  0
  5 26  1  0  0  0  0
  5  6  2  0  0  0  0
  6 27  1  0  0  0  0
  7 19  1  6  0  0  0
  7 17  1  0  0  0  0
  7 23  1  0  0  0  0
  9 25  1  0  0  0  0
 11  3  2  0  0  0  0
 12  8  1  6  0  0  0
 12 13  1  0  0  0  0
 13 11  1  1  0  0  0
 13 21  1  0  0  0  0
 14 21  1  0  0  0  0
 14 22  1  0  0  0  0
 15  9  1  0  0  0  0
 16  1  1  0  0  0  0
 16 19  1  0  0  0  0
 17 10  1  6  0  0  0
 17  8  1  0  0  0  0
 18  6  1  0  0  0  0
 18 15  2  0  0  0  0
 20  4  2  0  0  0  0
 21 20  1  1  0  0  0
 24  5  1  0  0  0  0
 26 14  2  0  0  0  0
 27 22  1  0  0  0  0
 27  9  2  0  0  0  0
 29 30  2  1  0  0  0
 29 28  1  0  0  0  0
 31 29  1  0  0  0  0
 32 31  1  0  0  0  0
M  END
>  <MODEL>
5

>  <REMARK>
 VINA RESULT:      -7.5      3.587      5.433
  Name = 
  3 active torsions:
  status: ('A' for Active; 'I' for Inactive)
    1  A    between atoms: S_1  and  N_10
    2  A    between atoms: S_1  and  C_24
    3  A    between atoms: C_2  and  C_24
                            x       y       z     vdW  Elec       q    Type
                         _______ _______ _______ _____ _____    ______ ____

>  <TORSDO>
F 3

$$$$
=
 OpenBabel11052421313D

 32 37  0  0  1  0  0  0  0  0999 V2000
  185.3370  178.6530  142.7220 C   0  0  1  0  0  3  0  0  0  0  0  0
  188.8960  175.4040  142.1920 C   0  0  1  0  0  3  0  0  0  0  0  0
  192.1070  176.7910  145.6910 C   0  0  0  0  0  3  0  0  0  0  0  0
  192.8370  175.5180  145.4960 C   0  0  0  0  0  3  0  0  0  0  0  0
  189.4200  173.2400  140.9410 C   0  0  0  0  0  0  0  0  0  0  0  0
  190.3120  172.2100  140.6940 C   0  0  0  0  0  0  0  0  0  0  0  0
  187.1540  176.8520  141.5420 C   0  0  1  0  0  3  0  0  0  0  0  0
  188.5390  177.4530  143.4790 N   0  0  0  0  0  2  0  0  0  0  0  0
  192.2210  171.0760  140.8950 C   0  0  0  0  0  0  0  0  0  0  0  0
  186.8080  179.0700  142.7980 C   0  0  0  0  0  2  0  0  0  0  0  0
  191.0040  177.0500  144.9770 C   0  0  0  0  0  3  0  0  0  0  0  0
  189.5730  176.5620  142.9500 C   0  0  1  0  0  3  0  0  0  0  0  0
  190.4550  175.9970  144.0480 C   0  0  1  0  0  3  0  0  0  0  0  0
  191.1390  174.1750  142.4370 C   0  0  0  0  0  0  0  0  0  0  0  0
  191.4190  170.3850  140.0490 N   0  0  0  0  0  0  0  0  0  0  0  0
  184.8000  178.2210  141.0140 S   0  0  0  0  0  0  0  0  0  0  0  0
  187.8030  177.9970  142.3370 C   0  0  2  0  0  3  0  0  0  0  0  0
  190.2480  171.0670  139.9200 C   0  0  0  0  0  3  0  0  0  0  0  0
  186.3340  177.4200  140.4030 C   0  0  0  0  0  2  0  0  0  0  0  0
  192.5820  174.7550  144.4250 C   0  0  0  0  0  3  0  0  0  0  0  0
  191.6150  175.2490  143.3810 C   0  0  2  0  0  3  0  0  0  0  0  0
  191.9640  173.1560  142.1570 O   0  0  0  0  0  0  0  0  0  0  0  0
  188.1910  175.9550  141.0340 N   0  0  0  0  0  2  0  0  0  0  0  0
  188.1160  173.2170  140.3640 N   0  0  0  0  0  1  0  0  0  0  0  0
  193.5870  170.6400  141.2910 C   0  0  0  0  0  1  0  0  0  0  0  0
  189.8480  174.2810  141.8080 C   0  0  0  0  0  0  0  0  0  0  0  0
  191.5820  172.2080  141.3240 C   0  0  0  0  0  0  0  0  0  0  0  0
  185.0200  177.5410  143.7130 C   0  0  0  0  0  2  0  0  0  0  0  0
  185.4120  178.0600  145.3930 S   0  0  1  0  0  0  0  0  0  0  0  0
  184.0660  177.9850  146.1010 O   0  0  0  0  0  0  0  0  0  0  0  0
  186.2890  176.6930  146.0440 N   0  0  0  0  0  2  0  0  0  0  0  0
  186.3160  176.8600  147.4850 C   0  0  0  0  0  1  0  0  0  0  0  0
  1 10  1  0  0  0  0
  1 28  1  1  0  0  0
  2 23  1  6  0  0  0
  2 12  1  0  0  0  0
  4  3  1  0  0  0  0
  5 26  1  0  0  0  0
  6  5  2  0  0  0  0
  6 27  1  0  0  0  0
  7 19  1  6  0  0  0
  7 17  1  0  0  0  0
  9 25  1  0  0  0  0
  9 27  2  0  0  0  0
 11  3  2  0  0  0  0
 12  8  1  1  0  0  0
 12 13  1  0  0  0  0
 13 11  1  6  0  0  0
 14 21  1  0  0  0  0
 15  9  1  0  0  0  0
 16  1  1  0  0  0  0
 17 10  1  1  0  0  0
 17  8  1  0  0  0  0
 18 15  2  0  0  0  0
 18  6  1  0  0  0  0
 19 16  1  0  0  0  0
 20  4  2  0  0  0  0
 21 13  1  0  0  0  0
 21 20  1  1  0  0  0
 22 14  1  0  0  0  0
 23  7  1  0  0  0  0
 24  5  1  0  0  0  0
 26  2  1  0  0  0  0
 26 14  2  0  0  0  0
 27 22  1  0  0  0  0
 28 29  1  0  0  0  0
 29 31  1  0  0  0  0
 29 30  2  1  0  0  0
 31 32  1  0  0  0  0
M  END
>  <MODEL>
6

>  <REMARK>
 VINA RESULT:      -7.3      3.470      7.624
  Name = 
  3 active torsions:
  status: ('A' for Active; 'I' for Inactive)
    1  A    between atoms: S_1  and  N_10
    2  A    between atoms: S_1  and  C_24
    3  A    between atoms: C_2  and  C_24
                            x       y       z     vdW  Elec       q    Type
                         _______ _______ _______ _____ _____    ______ ____

>  <TORSDO>
F 3

$$$$
=
 OpenBabel11052421313D

 32 37  0  0  1  0  0  0  0  0999 V2000
  187.1910  177.5070  144.1670 C   0  0  1  0  0  3  0  0  0  0  0  0
  190.7140  174.1970  143.7990 C   0  0  1  0  0  3  0  0  0  0  0  0
  194.4710  176.4050  146.1410 C   0  0  0  0  0  3  0  0  0  0  0  0
  195.2020  175.1170  146.1380 C   0  0  0  0  0  3  0  0  0  0  0  0
  191.0790  171.7790  143.0610 C   0  0  0  0  0  0  0  0  0  0  0  0
  191.9490  170.7120  142.9140 C   0  0  0  0  0  0  0  0  0  0  0  0
  188.8230  175.4470  143.1530 C   0  0  1  0  0  3  0  0  0  0  0  0
  190.5250  176.5110  144.5680 N   0  0  0  0  0  2  0  0  0  0  0  0
  193.9060  169.6500  143.0220 C   0  0  0  0  0  0  0  0  0  0  0  0
  188.6320  177.9160  143.8490 C   0  0  0  0  0  2  0  0  0  0  0  0
  193.2440  176.4830  145.6130 C   0  0  0  0  0  3  0  0  0  0  0  0
  191.4750  175.5050  144.0930 C   0  0  1  0  0  3  0  0  0  0  0  0
  192.5720  175.2320  145.1060 C   0  0  1  0  0  3  0  0  0  0  0  0
  193.0110  173.0510  143.9080 C   0  0  0  0  0  0  0  0  0  0  0  0
  192.9870  168.7730  142.5520 N   0  0  0  0  0  0  0  0  0  0  0  0
  186.3580  176.6560  142.7630 S   0  0  0  0  0  0  0  0  0  0  0  0
  189.5630  176.7510  143.4920 C   0  0  2  0  0  3  0  0  0  0  0  0
  191.7860  169.4100  142.4840 C   0  0  0  0  0  3  0  0  0  0  0  0
  187.7790  175.7100  142.0890 C   0  0  0  0  0  2  0  0  0  0  0  0
  194.7800  174.1080  145.3660 C   0  0  0  0  0  3  0  0  0  0  0  0
  193.6130  174.3260  144.4380 C   0  0  2  0  0  3  0  0  0  0  0  0
  193.8090  171.9870  143.7420 O   0  0  0  0  0  0  0  0  0  0  0  0
  189.7810  174.4390  142.6990 N   0  0  0  0  0  2  0  0  0  0  0  0
  189.6910  171.6210  142.7720 N   0  0  0  0  0  1  0  0  0  0  0  0
  195.3390  169.3170  143.2440 C   0  0  0  0  0  1  0  0  0  0  0  0
  191.6210  173.0040  143.5350 C   0  0  0  0  0  0  0  0  0  0  0  0
  193.3150  170.8600  143.2660 C   0  0  0  0  0  0  0  0  0  0  0  0
  187.1130  176.6900  145.4500 C   0  0  0  0  0  2  0  0  0  0  0  0
  185.6250  177.1050  146.3750 S   0  0  1  0  0  0  0  0  0  0  0  0
  186.1020  177.0970  147.8210 O   0  0  0  0  0  0  0  0  0  0  0  0
  185.3980  178.8060  146.0340 N   0  0  0  0  0  2  0  0  0  0  0  0
  184.0660  178.9480  145.4740 C   0  0  0  0  0  1  0  0  0  0  0  0
  1 28  1  1  0  0  0
  2 23  1  6  0  0  0
  2 12  1  0  0  0  0
  4  3  1  0  0  0  0
  5 26  1  0  0  0  0
  6  5  2  0  0  0  0
  6 27  1  0  0  0  0
  7 19  1  6  0  0  0
  7 17  1  0  0  0  0
  9 25  1  0  0  0  0
  9 27  2  0  0  0  0
 10  1  1  0  0  0  0
 11  3  2  0  0  0  0
 12  8  1  1  0  0  0
 12 13  1  0  0  0  0
 13 11  1  6  0  0  0
 14 21  1  0  0  0  0
 15  9  1  0  0  0  0
 16  1  1  0  0  0  0
 17 10  1  1  0  0  0
 17  8  1  0  0  0  0
 18 15  2  0  0  0  0
 18  6  1  0  0  0  0
 19 16  1  0  0  0  0
 20  4  2  0  0  0  0
 21 13  1  0  0  0  0
 21 20  1  1  0  0  0
 22 14  1  0  0  0  0
 23  7  1  0  0  0  0
 24  5  1  0  0  0  0
 26  2  1  0  0  0  0
 26 14  2  0  0  0  0
 27 22  1  0  0  0  0
 28 29  1  0  0  0  0
 29 30  2  1  0  0  0
 31 29  1  0  0  0  0
 32 31  1  0  0  0  0
M  END
>  <MODEL>
7

>  <REMARK>
 VINA RESULT:      -7.2      3.783      8.592
  Name = 
  3 active torsions:
  status: ('A' for Active; 'I' for Inactive)
    1  A    between atoms: S_1  and  N_10
    2  A    between atoms: S_1  and  C_24
    3  A    between atoms: C_2  and  C_24
                            x       y       z     vdW  Elec       q    Type
                         _______ _______ _______ _____ _____    ______ ____

>  <TORSDO>
F 3

$$$$
=
 OpenBabel11052421313D

 32 37  0  0  1  0  0  0  0  0999 V2000
  185.9620  178.0470  143.9490 C   0  0  1  0  0  3  0  0  0  0  0  0
  189.2210  174.7110  142.6270 C   0  0  1  0  0  3  0  0  0  0  0  0
  192.5860  175.0490  146.2380 C   0  0  0  0  0  3  0  0  0  0  0  0
  193.2020  173.7920  145.7530 C   0  0  0  0  0  3  0  0  0  0  0  0
  189.5400  172.8310  140.9280 C   0  0  0  0  0  0  0  0  0  0  0  0
  190.3370  171.8100  140.4380 C   0  0  0  0  0  0  0  0  0  0  0  0
  187.6010  176.4010  142.3560 C   0  0  1  0  0  3  0  0  0  0  0  0
  189.0590  176.4580  144.3320 N   0  0  0  0  0  2  0  0  0  0  0  0
  192.1450  170.5090  140.3330 C   0  0  0  0  0  0  0  0  0  0  0  0
  187.4640  178.3180  144.0660 C   0  0  0  0  0  2  0  0  0  0  0  0
  191.5000  175.5440  145.6310 C   0  0  0  0  0  3  0  0  0  0  0  0
  190.0050  175.6210  143.5920 C   0  0  1  0  0  3  0  0  0  0  0  0
  190.8500  174.7630  144.5170 C   0  0  1  0  0  3  0  0  0  0  0  0
  191.3530  173.2810  142.5330 C   0  0  0  0  0  0  0  0  0  0  0  0
  191.2750  170.0830  139.3860 N   0  0  0  0  0  0  0  0  0  0  0  0
  185.3670  178.0370  142.2060 S   0  0  0  0  0  0  0  0  0  0  0  0
  188.3560  177.2920  143.3560 C   0  0  2  0  0  3  0  0  0  0  0  0
  190.1650  170.8690  139.4420 C   0  0  0  0  0  3  0  0  0  0  0  0
  186.8170  177.2650  141.3900 C   0  0  0  0  0  2  0  0  0  0  0  0
  192.8670  173.3010  144.5530 C   0  0  0  0  0  3  0  0  0  0  0  0
  191.9320  174.0840  143.6690 C   0  0  2  0  0  3  0  0  0  0  0  0
  192.0840  172.2820  142.0170 O   0  0  0  0  0  0  0  0  0  0  0  0
  188.5500  175.5530  141.6360 N   0  0  0  0  0  2  0  0  0  0  0  0
  188.2320  173.0380  140.4000 N   0  0  0  0  0  1  0  0  0  0  0  0
  193.4730  169.8880  140.5840 C   0  0  0  0  0  1  0  0  0  0  0  0
  190.0670  173.6230  141.9820 C   0  0  0  0  0  0  0  0  0  0  0  0
  191.6110  171.5700  141.0130 C   0  0  0  0  0  0  0  0  0  0  0  0
  185.5640  176.7780  144.6900 C   0  0  0  0  0  2  0  0  0  0  0  0
  185.2150  177.1380  146.4200 S   0  0  1  0  0  0  0  0  0  0  0  0
  186.5240  176.7910  147.1160 O   0  0  0  0  0  0  0  0  0  0  0  0
  185.1810  178.8860  146.4700 N   0  0  0  0  0  2  0  0  0  0  0  0
  185.9500  179.2880  147.6340 C   0  0  0  0  0  1  0  0  0  0  0  0
  1 10  1  0  0  0  0
  1 28  1  6  0  0  0
  2 23  1  6  0  0  0
  2 12  1  0  0  0  0
  4  3  1  0  0  0  0
  5 26  1  0  0  0  0
  6  5  2  0  0  0  0
  6 27  1  0  0  0  0
  7 19  1  6  0  0  0
  7 17  1  0  0  0  0
  9 25  1  0  0  0  0
  9 27  2  0  0  0  0
 11  3  2  0  0  0  0
 12  8  1  1  0  0  0
 12 13  1  0  0  0  0
 13 11  1  1  0  0  0
 14 21  1  0  0  0  0
 15 18  2  0  0  0  0
 15  9  1  0  0  0  0
 16  1  1  0  0  0  0
 17 10  1  1  0  0  0
 17  8  1  0  0  0  0
 18  6  1  0  0  0  0
 19 16  1  0  0  0  0
 20  4  2  0  0  0  0
 21 13  1  0  0  0  0
 21 20  1  1  0  0  0
 22 14  1  0  0  0  0
 23  7  1  0  0  0  0
 24  5  1  0  0  0  0
 26 14  2  0  0  0  0
 26  2  1  0  0  0  0
 27 22  1  0  0  0  0
 28 29  1  0  0  0  0
 29 31  1  0  0  0  0
 29 30  2  1  0  0  0
 31 32  1  0  0  0  0
M  END
>  <MODEL>
8

>  <REMARK>
 VINA RESULT:      -7.1      3.711      7.718
  Name = 
  3 active torsions:
  status: ('A' for Active; 'I' for Inactive)
    1  A    between atoms: S_1  and  N_10
    2  A    between atoms: S_1  and  C_24
    3  A    between atoms: C_2  and  C_24
                            x       y       z     vdW  Elec       q    Type
                         _______ _______ _______ _____ _____    ______ ____

>  <TORSDO>
F 3

$$$$
=
 OpenBabel11052421313D

 32 37  0  0  1  0  0  0  0  0999 V2000
  195.9300  172.6620  144.7230 C   0  0  1  0  0  3  0  0  0  0  0  0
  191.5210  174.6740  144.6000 C   0  0  1  0  0  3  0  0  0  0  0  0
  189.5120  172.5440  140.6110 C   0  0  0  0  0  3  0  0  0  0  0  0
  188.1910  173.0730  141.0200 C   0  0  0  0  0  3  0  0  0  0  0  0
  189.9900  176.1570  146.0060 C   0  0  0  0  0  0  0  0  0  0  0  0
  188.7620  176.7800  146.1490 C   0  0  0  0  0  0  0  0  0  0  0  0
  193.8450  174.5400  144.9700 C   0  0  1  0  0  3  0  0  0  0  0  0
  192.8540  173.2250  143.1470 N   0  0  0  0  0  2  0  0  0  0  0  0
  186.6970  177.3720  145.5530 C   0  0  0  0  0  0  0  0  0  0  0  0
  195.3030  173.1140  143.4020 C   0  0  0  0  0  2  0  0  0  0  0  0
  190.5940  172.7790  141.3650 C   0  0  0  0  0  3  0  0  0  0  0  0
  191.7220  174.1530  143.1630 C   0  0  1  0  0  3  0  0  0  0  0  0
  190.4400  173.4980  142.6810 C   0  0  1  0  0  3  0  0  0  0  0  0
  189.1670  175.3550  143.8280 C   0  0  0  0  0  0  0  0  0  0  0  0
  186.9390  177.8980  146.7780 N   0  0  0  0  0  0  0  0  0  0  0  0
  196.4520  174.0700  145.7900 S   0  0  0  0  0  0  0  0  0  0  0  0
  194.0420  173.9750  143.5540 C   0  0  2  0  0  3  0  0  0  0  0  0
  188.1970  177.5410  147.1550 C   0  0  0  0  0  3  0  0  0  0  0  0
  195.1010  175.2550  145.4170 C   0  0  0  0  0  2  0  0  0  0  0  0
  188.1100  174.0150  141.9680 C   0  0  0  0  0  3  0  0  0  0  0  0
  189.3760  174.5930  142.5450 C   0  0  2  0  0  3  0  0  0  0  0  0
  187.9970  175.9820  144.0170 O   0  0  0  0  0  0  0  0  0  0  0  0
  192.7000  175.4500  144.9830 N   0  0  0  0  0  2  0  0  0  0  0  0
  190.9500  176.2080  147.0600 N   0  0  0  0  0  1  0  0  0  0  0  0
  185.4170  177.5390  144.8130 C   0  0  0  0  0  1  0  0  0  0  0  0
  190.2280  175.4510  144.7970 C   0  0  0  0  0  0  0  0  0  0  0  0
  187.7890  176.6690  145.1240 C   0  0  0  0  0  0  0  0  0  0  0  0
  195.0230  171.6930  145.4700 C   0  0  0  0  0  2  0  0  0  0  0  0
  195.7820  170.0620  145.5640 S   0  0  1  0  0  0  0  0  0  0  0  0
  197.1610  170.3540  146.1380 O   0  0  0  0  0  0  0  0  0  0  0  0
  194.9410  169.3020  146.8970 N   0  0  0  0  0  2  0  0  0  0  0  0
  195.9180  168.4910  147.6010 C   0  0  0  0  0  1  0  0  0  0  0  0
  1 28  1  1  0  0  0
  1 16  1  0  0  0  0
  2 26  1  6  0  0  0
  2 23  1  0  0  0  0
  3  4  1  0  0  0  0
  3 11  2  0  0  0  0
  4 20  2  0  0  0  0
  5  6  2  0  0  0  0
  5 24  1  0  0  0  0
  6 18  1  0  0  0  0
  7 23  1  0  0  0  0
  7 19  1  6  0  0  0
  8 17  1  0  0  0  0
  9 15  1  0  0  0  0
 10  1  1  0  0  0  0
 12  8  1  1  0  0  0
 12  2  1  0  0  0  0
 13 11  1  6  0  0  0
 13 12  1  0  0  0  0
 14 22  1  0  0  0  0
 14 26  2  0  0  0  0
 15 18  2  0  0  0  0
 17 10  1  1  0  0  0
 17  7  1  0  0  0  0
 19 16  1  0  0  0  0
 21 20  1  1  0  0  0
 21 13  1  0  0  0  0
 21 14  1  0  0  0  0
 22 27  1  0  0  0  0
 25  9  1  0  0  0  0
 26  5  1  0  0  0  0
 27  9  2  0  0  0  0
 27  6  1  0  0  0  0
 28 29  1  0  0  0  0
 29 30  2  1  0  0  0
 29 31  1  0  0  0  0
 31 32  1  0  0  0  0
M  END
>  <MODEL>
9

>  <REMARK>
 VINA RESULT:      -7.0      3.412      6.152
  Name = 
  3 active torsions:
  status: ('A' for Active; 'I' for Inactive)
    1  A    between atoms: S_1  and  N_10
    2  A    between atoms: S_1  and  C_24
    3  A    between atoms: C_2  and  C_24
                            x       y       z     vdW  Elec       q    Type
                         _______ _______ _______ _____ _____    ______ ____

>  <TORSDO>
F 3

$$$$
