=
 OpenBabel11052420253D

 34 39  0  0  0  0  0  0  0  0999 V2000
  192.1390  175.3710  145.5470 C   0  0  0  0  0  0  0  0  0  0  0  0
  194.8720  173.2120  144.5260 C   0  0  0  0  0  2  0  0  0  0  0  0
  192.3910  173.2970  144.7270 C   0  0  0  0  0  0  0  0  0  0  0  0
  189.9380  176.2170  146.2360 N   0  0  0  0  0  0  0  0  0  0  0  0
  191.3640  176.5570  146.0510 C   0  0  0  0  0  2  0  0  0  0  0  0
  190.1920  173.9770  145.3860 C   0  0  0  0  0  0  0  0  0  0  0  0
  189.7340  172.7440  145.0250 N   0  0  0  0  0  0  0  0  0  0  0  0
  189.3910  174.9270  145.8760 C   0  0  0  0  0  3  0  0  0  0  0  0
  191.9050  172.0420  144.3750 C   0  0  0  0  0  3  0  0  0  0  0  0
  191.5410  174.2360  145.2370 C   0  0  0  0  0  0  0  0  0  0  0  0
  190.5660  171.8080  144.5380 N   0  0  0  0  0  0  0  0  0  0  0  0
  196.1980  173.8140  144.8650 C   0  0  0  0  0  2  0  0  0  0  0  0
  196.4760  175.1240  144.1930 C   0  0  0  0  0  0  0  0  0  0  0  0
  195.7100  176.2120  144.3600 C   0  0  0  0  0  3  0  0  0  0  0  0
  193.7330  173.8700  144.7160 C   0  0  0  0  0  0  0  0  0  0  0  0
  194.3860  176.2850  145.0080 C   0  0  0  0  0  2  0  0  0  0  0  0
  193.5590  175.2530  145.1930 C   0  0  0  0  0  0  0  0  0  0  0  0
  197.7680  175.2440  143.4510 C   0  0  0  0  0  3  0  0  0  0  0  0
  197.7990  174.3450  142.3840 O   0  0  0  0  0  1  0  0  0  0  0  0
  197.9410  176.5450  142.9770 O   0  0  0  0  0  1  0  0  0  0  0  0
  189.0570  177.2070  146.8330 C   0  0  0  0  0  2  0  0  0  0  0  0
  185.4340  177.3810  145.7320 C   0  0  0  0  0  3  0  0  0  0  0  0
  187.9900  177.7080  144.6240 C   0  0  0  0  0  3  0  0  0  0  0  0
  184.5750  178.1610  142.2130 C   0  0  0  0  0  0  0  0  0  0  0  0
  184.4380  177.8460  143.5720 C   0  0  0  0  0  3  0  0  0  0  0  0
  185.5700  177.6960  144.3780 C   0  0  0  0  0  0  0  0  0  0  0  0
  186.9940  178.1710  142.4650 C   0  0  0  0  0  3  0  0  0  0  0  0
  186.8580  177.8600  143.8190 C   0  0  0  0  0  0  0  0  0  0  0  0
  185.8560  178.3210  141.6650 C   0  0  0  0  0  3  0  0  0  0  0  0
  187.8480  177.4000  145.9820 C   0  0  0  0  0  0  0  0  0  0  0  0
  186.5710  177.2300  146.5320 C   0  0  0  0  0  3  0  0  0  0  0  0
  183.3780  178.3170  141.3700 C   0  0  0  0  0  0  0  0  0  0  0  0
  183.4710  178.2670  140.1150 O   0  0  0  0  0  0  0  0  0  0  0  0
  182.1330  178.5240  141.9530 O   0  0  0  0  0  1  0  0  0  0  0  0
  1  5  1  0  0  0  0
  2 15  1  0  0  0  0
  2 12  1  0  0  0  0
  3 10  1  0  0  0  0
  4 21  1  0  0  0  0
  5  4  1  0  0  0  0
  6  8  2  0  0  0  0
  7  6  1  0  0  0  0
  8  4  1  0  0  0  0
  9 11  1  0  0  0  0
  9  3  2  0  0  0  0
 10  6  1  0  0  0  0
 10  1  2  0  0  0  0
 11  7  2  0  0  0  0
 13 14  2  0  0  0  0
 13 12  1  0  0  0  0
 14 16  1  0  0  0  0
 15  3  1  0  0  0  0
 15 17  2  0  0  0  0
 16 17  1  0  0  0  0
 17  1  1  0  0  0  0
 18 13  1  0  0  0  0
 19 18  1  0  0  0  0
 20 18  1  0  0  0  0
 22 31  1  0  0  0  0
 23 30  1  0  0  0  0
 24 25  2  0  0  0  0
 25 26  1  0  0  0  0
 26 22  2  0  0  0  0
 27 28  1  0  0  0  0
 28 26  1  0  0  0  0
 28 23  2  0  0  0  0
 29 24  1  0  0  0  0
 29 27  2  0  0  0  0
 30 31  2  0  0  0  0
 30 21  1  0  0  0  0
 32 34  1  0  0  0  0
 32 24  1  0  0  0  0
 33 32  2  0  0  0  0
M  END
>  <MODEL>
1

>  <REMARK>
 VINA RESULT:      -9.0      0.000      0.000
  Name = 
  4 active torsions:
  status: ('A' for Active; 'I' for Inactive)
    1  A    between atoms: C_3  and  C_25
    2  A    between atoms: C_7  and  C_11
    3  A    between atoms: N_8  and  C_18
    4  A    between atoms: C_18  and  C_30
                            x       y       z     vdW  Elec       q    Type
                         _______ _______ _______ _____ _____    ______ ____

>  <TORSDO>
F 4

$$$$
=
 OpenBabel11052420253D

 34 39  0  0  0  0  0  0  0  0999 V2000
  193.2040  173.3710  144.1900 C   0  0  0  0  0  0  0  0  0  0  0  0
  196.3570  172.8820  145.9200 C   0  0  0  0  0  2  0  0  0  0  0  0
  194.6820  174.6240  145.3220 C   0  0  0  0  0  0  0  0  0  0  0  0
  191.2750  174.3790  143.0520 N   0  0  0  0  0  0  0  0  0  0  0  0
  191.9450  173.1110  143.4100 C   0  0  0  0  0  2  0  0  0  0  0  0
  192.8660  175.7460  144.2370 C   0  0  0  0  0  0  0  0  0  0  0  0
  193.3660  176.9310  144.6910 N   0  0  0  0  0  0  0  0  0  0  0  0
  191.7550  175.6680  143.4990 C   0  0  0  0  0  3  0  0  0  0  0  0
  195.1800  175.8450  145.7660 C   0  0  0  0  0  3  0  0  0  0  0  0
  193.5510  174.5900  144.5590 C   0  0  0  0  0  0  0  0  0  0  0  0
  194.4870  176.9760  145.4290 N   0  0  0  0  0  0  0  0  0  0  0  0
  196.8830  171.4970  145.7120 C   0  0  0  0  0  2  0  0  0  0  0  0
  195.9930  170.4090  146.2300 C   0  0  0  0  0  0  0  0  0  0  0  0
  194.7390  170.2170  145.7930 C   0  0  0  0  0  3  0  0  0  0  0  0
  195.1660  173.2550  145.4630 C   0  0  0  0  0  0  0  0  0  0  0  0
  193.9380  171.1190  144.9410 C   0  0  0  0  0  2  0  0  0  0  0  0
  194.1620  172.4250  144.7760 C   0  0  0  0  0  0  0  0  0  0  0  0
  196.6140  169.4000  147.1420 C   0  0  0  0  0  3  0  0  0  0  0  0
  195.6330  168.5720  147.6870 O   0  0  0  0  0  1  0  0  0  0  0  0
  197.5530  168.6300  146.4530 O   0  0  0  0  0  1  0  0  0  0  0  0
  190.1040  174.3300  142.1920 C   0  0  0  0  0  2  0  0  0  0  0  0
  186.8880  176.2950  142.5900 C   0  0  0  0  0  3  0  0  0  0  0  0
  188.9780  175.3280  144.1930 C   0  0  0  0  0  3  0  0  0  0  0  0
  185.8340  177.5160  145.9270 C   0  0  0  0  0  0  0  0  0  0  0  0
  185.8390  177.2680  144.5470 C   0  0  0  0  0  3  0  0  0  0  0  0
  186.8810  176.5400  143.9660 C   0  0  0  0  0  0  0  0  0  0  0  0
  187.9300  176.3030  146.1470 C   0  0  0  0  0  3  0  0  0  0  0  0
  187.9350  176.0540  144.7730 C   0  0  0  0  0  0  0  0  0  0  0  0
  186.8830  177.0310  146.7210 C   0  0  0  0  0  3  0  0  0  0  0  0
  188.9750  175.0780  142.8150 C   0  0  0  0  0  0  0  0  0  0  0  0
  187.9350  175.5670  142.0160 C   0  0  0  0  0  3  0  0  0  0  0  0
  184.7330  178.2840  146.5320 C   0  0  0  0  0  0  0  0  0  0  0  0
  184.7010  178.4810  147.7760 O   0  0  0  0  0  1  0  0  0  0  0  0
  183.7160  178.7970  145.7350 O   0  0  0  0  0  0  0  0  0  0  0  0
  1 10  2  0  0  0  0
  1 17  1  0  0  0  0
  3 15  1  0  0  0  0
  3  9  2  0  0  0  0
  4  5  1  0  0  0  0
  4  8  1  0  0  0  0
  5  1  1  0  0  0  0
  6 10  1  0  0  0  0
  6  7  1  0  0  0  0
  7 11  2  0  0  0  0
  8  6  2  0  0  0  0
 10  3  1  0  0  0  0
 11  9  1  0  0  0  0
 12  2  1  0  0  0  0
 12 13  1  0  0  0  0
 13 18  1  0  0  0  0
 14 13  2  0  0  0  0
 15  2  1  0  0  0  0
 16 14  1  0  0  0  0
 17 16  1  0  0  0  0
 17 15  2  0  0  0  0
 18 19  1  0  0  0  0
 20 18  1  0  0  0  0
 21 30  1  0  0  0  0
 21  4  1  0  0  0  0
 22 26  1  0  0  0  0
 23 28  1  0  0  0  0
 24 32  1  0  0  0  0
 24 29  1  0  0  0  0
 25 24  2  0  0  0  0
 26 25  1  0  0  0  0
 26 28  2  0  0  0  0
 27 29  2  0  0  0  0
 28 27  1  0  0  0  0
 30 23  2  0  0  0  0
 31 22  2  0  0  0  0
 31 30  1  0  0  0  0
 32 33  1  0  0  0  0
 34 32  2  0  0  0  0
M  END
>  <MODEL>
2

>  <REMARK>
 VINA RESULT:      -8.6      3.146      4.711
  Name = 
  4 active torsions:
  status: ('A' for Active; 'I' for Inactive)
    1  A    between atoms: C_3  and  C_25
    2  A    between atoms: C_7  and  C_11
    3  A    between atoms: N_8  and  C_18
    4  A    between atoms: C_18  and  C_30
                            x       y       z     vdW  Elec       q    Type
                         _______ _______ _______ _____ _____    ______ ____

>  <TORSDO>
F 4

$$$$
=
 OpenBabel11052420253D

 34 39  0  0  0  0  0  0  0  0999 V2000
  193.4780  173.1350  144.7680 C   0  0  0  0  0  0  0  0  0  0  0  0
  194.2130  169.6060  145.1910 C   0  0  0  0  0  2  0  0  0  0  0  0
  192.7190  171.1790  143.9700 C   0  0  0  0  0  0  0  0  0  0  0  0
  192.3850  175.2600  144.2010 N   0  0  0  0  0  0  0  0  0  0  0  0
  193.5270  174.6320  144.8970 C   0  0  0  0  0  2  0  0  0  0  0  0
  191.5360  173.1690  143.3580 C   0  0  0  0  0  0  0  0  0  0  0  0
  190.6660  172.3980  142.6450 N   0  0  0  0  0  0  0  0  0  0  0  0
  191.4260  174.4980  143.4310 C   0  0  0  0  0  3  0  0  0  0  0  0
  191.8140  170.4100  143.2450 C   0  0  0  0  0  3  0  0  0  0  0  0
  192.5630  172.5340  144.0300 C   0  0  0  0  0  0  0  0  0  0  0  0
  190.8020  171.0620  142.5940 N   0  0  0  0  0  0  0  0  0  0  0  0
  195.2000  169.3830  146.2930 C   0  0  0  0  0  2  0  0  0  0  0  0
  196.5350  170.0260  146.0720 C   0  0  0  0  0  0  0  0  0  0  0  0
  196.6960  171.3490  145.9190 C   0  0  0  0  0  3  0  0  0  0  0  0
  193.8720  170.8260  144.7910 C   0  0  0  0  0  0  0  0  0  0  0  0
  195.6430  172.3630  145.7120 C   0  0  0  0  0  2  0  0  0  0  0  0
  194.4100  172.1140  145.2620 C   0  0  0  0  0  0  0  0  0  0  0  0
  197.7400  169.1520  146.2090 C   0  0  0  0  0  3  0  0  0  0  0  0
  197.6780  168.4260  147.3990 O   0  0  0  0  0  1  0  0  0  0  0  0
  197.8360  168.2770  145.1260 O   0  0  0  0  0  1  0  0  0  0  0  0
  192.2000  176.6970  144.3210 C   0  0  0  0  0  2  0  0  0  0  0  0
  189.4300  177.0520  146.8830 C   0  0  0  0  0  3  0  0  0  0  0  0
  189.8140  177.4310  144.1300 C   0  0  0  0  0  3  0  0  0  0  0  0
  186.0540  178.1860  145.8560 C   0  0  0  0  0  0  0  0  0  0  0  0
  187.1180  177.7450  146.6550 C   0  0  0  0  0  3  0  0  0  0  0  0
  188.3700  177.4940  146.0860 C   0  0  0  0  0  0  0  0  0  0  0  0
  187.5030  178.1210  143.9030 C   0  0  0  0  0  3  0  0  0  0  0  0
  188.5630  177.6840  144.6990 C   0  0  0  0  0  0  0  0  0  0  0  0
  186.2530  178.3710  144.4790 C   0  0  0  0  0  3  0  0  0  0  0  0
  190.8740  176.9960  144.9340 C   0  0  0  0  0  0  0  0  0  0  0  0
  190.6790  176.8020  146.3070 C   0  0  0  0  0  3  0  0  0  0  0  0
  184.7390  178.4480  146.4610 C   0  0  0  0  0  0  0  0  0  0  0  0
  184.5630  178.2880  147.6990 O   0  0  0  0  0  1  0  0  0  0  0  0
  183.6760  178.8740  145.6730 O   0  0  0  0  0  0  0  0  0  0  0  0
  1  5  1  0  0  0  0
  1 17  1  0  0  0  0
  2 12  1  0  0  0  0
  3 10  1  0  0  0  0
  3 15  1  0  0  0  0
  4 21  1  0  0  0  0
  4  5  1  0  0  0  0
  6  8  2  0  0  0  0
  6 10  1  0  0  0  0
  7  6  1  0  0  0  0
  8  4  1  0  0  0  0
  9  3  2  0  0  0  0
 10  1  2  0  0  0  0
 11  7  2  0  0  0  0
 11  9  1  0  0  0  0
 13 18  1  0  0  0  0
 13 12  1  0  0  0  0
 14 13  2  0  0  0  0
 15  2  1  0  0  0  0
 15 17  2  0  0  0  0
 16 14  1  0  0  0  0
 17 16  1  0  0  0  0
 18 19  1  0  0  0  0
 20 18  1  0  0  0  0
 21 30  1  0  0  0  0
 23 28  2  0  0  0  0
 23 30  1  0  0  0  0
 24 32  1  0  0  0  0
 24 25  2  0  0  0  0
 26 25  1  0  0  0  0
 26 22  2  0  0  0  0
 27 29  2  0  0  0  0
 27 28  1  0  0  0  0
 28 26  1  0  0  0  0
 29 24  1  0  0  0  0
 30 31  2  0  0  0  0
 31 22  1  0  0  0  0
 32 33  1  0  0  0  0
 34 32  2  0  0  0  0
M  END
>  <MODEL>
3

>  <REMARK>
 VINA RESULT:      -8.5      2.952      4.214
  Name = 
  4 active torsions:
  status: ('A' for Active; 'I' for Inactive)
    1  A    between atoms: C_3  and  C_25
    2  A    between atoms: C_7  and  C_11
    3  A    between atoms: N_8  and  C_18
    4  A    between atoms: C_18  and  C_30
                            x       y       z     vdW  Elec       q    Type
                         _______ _______ _______ _____ _____    ______ ____

>  <TORSDO>
F 4

$$$$
=
 OpenBabel11052420253D

 34 39  0  0  0  0  0  0  0  0999 V2000
  190.8590  176.6910  143.9780 C   0  0  0  0  0  0  0  0  0  0  0  0
  187.4170  177.1740  145.0250 C   0  0  0  0  0  2  0  0  0  0  0  0
  189.7490  177.0650  145.8930 C   0  0  0  0  0  0  0  0  0  0  0  0
  193.2760  176.2510  143.9640 N   0  0  0  0  0  0  0  0  0  0  0  0
  192.0770  176.4620  143.1260 C   0  0  0  0  0  2  0  0  0  0  0  0
  192.0970  176.6200  146.0330 C   0  0  0  0  0  0  0  0  0  0  0  0
  192.0090  176.7340  147.3890 N   0  0  0  0  0  0  0  0  0  0  0  0
  193.2470  176.3560  145.4070 C   0  0  0  0  0  3  0  0  0  0  0  0
  189.6780  177.1670  147.2790 C   0  0  0  0  0  3  0  0  0  0  0  0
  190.9420  176.7800  145.2930 C   0  0  0  0  0  0  0  0  0  0  0  0
  190.8360  176.9970  147.9890 N   0  0  0  0  0  0  0  0  0  0  0  0
  186.4660  176.9280  143.8980 C   0  0  0  0  0  2  0  0  0  0  0  0
  186.6390  177.8450  142.7260 C   0  0  0  0  0  0  0  0  0  0  0  0
  187.7760  177.9250  142.0180 C   0  0  0  0  0  3  0  0  0  0  0  0
  188.7340  177.1550  144.8480 C   0  0  0  0  0  0  0  0  0  0  0  0
  189.0880  177.3420  142.3610 C   0  0  0  0  0  2  0  0  0  0  0  0
  189.4730  176.9740  143.5860 C   0  0  0  0  0  0  0  0  0  0  0  0
  185.4200  178.5600  142.2380 C   0  0  0  0  0  3  0  0  0  0  0  0
  185.3270  178.4640  140.8490 O   0  0  0  0  0  1  0  0  0  0  0  0
  184.2720  178.0290  142.8260 O   0  0  0  0  0  1  0  0  0  0  0  0
  194.5260  175.8930  143.3140 C   0  0  0  0  0  2  0  0  0  0  0  0
  197.0840  173.8080  145.1770 C   0  0  0  0  0  3  0  0  0  0  0  0
  194.4890  173.5330  144.1480 C   0  0  0  0  0  3  0  0  0  0  0  0
  196.3440  170.2900  146.0780 C   0  0  0  0  0  0  0  0  0  0  0  0
  197.0210  171.5110  145.9480 C   0  0  0  0  0  3  0  0  0  0  0  0
  196.4080  172.5920  145.3090 C   0  0  0  0  0  0  0  0  0  0  0  0
  194.4280  171.2360  144.9160 C   0  0  0  0  0  3  0  0  0  0  0  0
  195.1010  172.4530  144.7890 C   0  0  0  0  0  0  0  0  0  0  0  0
  195.0470  170.1590  145.5580 C   0  0  0  0  0  3  0  0  0  0  0  0
  195.1680  174.7510  144.0260 C   0  0  0  0  0  0  0  0  0  0  0  0
  196.4650  174.8850  144.5350 C   0  0  0  0  0  3  0  0  0  0  0  0
  196.9950  169.1560  146.7530 C   0  0  0  0  0  0  0  0  0  0  0  0
  196.7750  168.9270  147.9720 O   0  0  0  0  0  1  0  0  0  0  0  0
  197.8620  168.3260  146.0510 O   0  0  0  0  0  0  0  0  0  0  0  0
  1 10  2  0  0  0  0
  3  9  2  0  0  0  0
  4  8  1  0  0  0  0
  5  4  1  0  0  0  0
  5  1  1  0  0  0  0
  6  7  1  0  0  0  0
  7 11  2  0  0  0  0
  8  6  2  0  0  0  0
  9 11  1  0  0  0  0
 10  3  1  0  0  0  0
 10  6  1  0  0  0  0
 12  2  1  0  0  0  0
 13 12  1  0  0  0  0
 14 16  1  0  0  0  0
 14 13  2  0  0  0  0
 15  2  1  0  0  0  0
 15  3  1  0  0  0  0
 16 17  1  0  0  0  0
 17  1  1  0  0  0  0
 17 15  2  0  0  0  0
 18 13  1  0  0  0  0
 18 20  1  0  0  0  0
 19 18  1  0  0  0  0
 21  4  1  0  0  0  0
 21 30  1  0  0  0  0
 22 26  1  0  0  0  0
 23 28  1  0  0  0  0
 24 32  1  0  0  0  0
 25 24  1  0  0  0  0
 26 25  2  0  0  0  0
 27 29  1  0  0  0  0
 28 27  2  0  0  0  0
 28 26  1  0  0  0  0
 29 24  2  0  0  0  0
 30 23  2  0  0  0  0
 30 31  1  0  0  0  0
 31 22  2  0  0  0  0
 32 33  1  0  0  0  0
 34 32  2  0  0  0  0
M  END
>  <MODEL>
4

>  <REMARK>
 VINA RESULT:      -8.5      2.774     10.184
  Name = 
  4 active torsions:
  status: ('A' for Active; 'I' for Inactive)
    1  A    between atoms: C_3  and  C_25
    2  A    between atoms: C_7  and  C_11
    3  A    between atoms: N_8  and  C_18
    4  A    between atoms: C_18  and  C_30
                            x       y       z     vdW  Elec       q    Type
                         _______ _______ _______ _____ _____    ______ ____

>  <TORSDO>
F 4

$$$$
=
 OpenBabel11052420253D

 34 39  0  0  0  0  0  0  0  0999 V2000
  191.9500  174.2710  145.0240 C   0  0  0  0  0  0  0  0  0  0  0  0
  193.6180  171.0570  144.7710 C   0  0  0  0  0  2  0  0  0  0  0  0
  191.6180  172.3130  143.9780 C   0  0  0  0  0  0  0  0  0  0  0  0
  190.2810  176.0720  144.9310 N   0  0  0  0  0  0  0  0  0  0  0  0
  191.6290  175.6910  145.4010 C   0  0  0  0  0  2  0  0  0  0  0  0
  189.8930  173.9660  143.8260 C   0  0  0  0  0  0  0  0  0  0  0  0
  189.1620  173.0920  143.0760 N   0  0  0  0  0  0  0  0  0  0  0  0
  189.4560  175.1900  144.1340 C   0  0  0  0  0  3  0  0  0  0  0  0
  190.8520  171.4330  143.2200 C   0  0  0  0  0  3  0  0  0  0  0  0
  191.1290  173.5510  144.2820 C   0  0  0  0  0  0  0  0  0  0  0  0
  189.6280  171.8660  142.7860 N   0  0  0  0  0  0  0  0  0  0  0  0
  194.7670  170.9640  145.7230 C   0  0  0  0  0  2  0  0  0  0  0  0
  195.8500  171.9730  145.4910 C   0  0  0  0  0  0  0  0  0  0  0  0
  195.6440  173.2980  145.5520 C   0  0  0  0  0  3  0  0  0  0  0  0
  192.9240  172.1800  144.6170 C   0  0  0  0  0  0  0  0  0  0  0  0
  194.3470  174.0010  145.6190 C   0  0  0  0  0  2  0  0  0  0  0  0
  193.1710  173.4880  145.2490 C   0  0  0  0  0  0  0  0  0  0  0  0
  197.2460  171.4540  145.3660 C   0  0  0  0  0  3  0  0  0  0  0  0
  197.3660  170.2250  146.0160 O   0  0  0  0  0  1  0  0  0  0  0  0
  197.5980  171.3150  144.0230 O   0  0  0  0  0  1  0  0  0  0  0  0
  189.7510  177.3710  145.3100 C   0  0  0  0  0  2  0  0  0  0  0  0
  185.9700  177.5820  145.1550 C   0  0  0  0  0  3  0  0  0  0  0  0
  188.1610  177.7300  143.4100 C   0  0  0  0  0  3  0  0  0  0  0  0
  184.2490  178.1080  141.9160 C   0  0  0  0  0  0  0  0  0  0  0  0
  184.4610  177.9080  143.2870 C   0  0  0  0  0  3  0  0  0  0  0  0
  185.7590  177.7840  143.7890 C   0  0  0  0  0  0  0  0  0  0  0  0
  186.6520  178.0530  141.5430 C   0  0  0  0  0  3  0  0  0  0  0  0
  186.8630  177.8570  142.9090 C   0  0  0  0  0  0  0  0  0  0  0  0
  185.3500  178.1790  141.0490 C   0  0  0  0  0  3  0  0  0  0  0  0
  188.3670  177.5370  144.7810 C   0  0  0  0  0  0  0  0  0  0  0  0
  187.2720  177.4570  145.6500 C   0  0  0  0  0  3  0  0  0  0  0  0
  182.8790  178.2390  141.3940 C   0  0  0  0  0  0  0  0  0  0  0  0
  181.9640  178.7180  142.1170 O   0  0  0  0  0  1  0  0  0  0  0  0
  182.5800  177.8320  140.0990 O   0  0  0  0  0  0  0  0  0  0  0  0
  1 17  1  0  0  0  0
  1  5  1  0  0  0  0
  2 12  1  0  0  0  0
  3 10  1  0  0  0  0
  3 15  1  0  0  0  0
  4 21  1  0  0  0  0
  4  5  1  0  0  0  0
  6  8  2  0  0  0  0
  6 10  1  0  0  0  0
  7  6  1  0  0  0  0
  8  4  1  0  0  0  0
  9  3  2  0  0  0  0
 10  1  2  0  0  0  0
 11  7  2  0  0  0  0
 11  9  1  0  0  0  0
 13 14  2  0  0  0  0
 13 12  1  0  0  0  0
 14 16  1  0  0  0  0
 15  2  1  0  0  0  0
 15 17  2  0  0  0  0
 17 16  1  0  0  0  0
 18 13  1  0  0  0  0
 18 19  1  0  0  0  0
 20 18  1  0  0  0  0
 22 31  1  0  0  0  0
 23 30  1  0  0  0  0
 24 25  2  0  0  0  0
 25 26  1  0  0  0  0
 26 22  2  0  0  0  0
 27 28  1  0  0  0  0
 28 23  2  0  0  0  0
 28 26  1  0  0  0  0
 29 27  2  0  0  0  0
 29 24  1  0  0  0  0
 30 21  1  0  0  0  0
 30 31  2  0  0  0  0
 32 24  1  0  0  0  0
 32 33  1  0  0  0  0
 34 32  2  0  0  0  0
M  END
>  <MODEL>
5

>  <REMARK>
 VINA RESULT:      -8.2      1.770      2.273
  Name = 
  4 active torsions:
  status: ('A' for Active; 'I' for Inactive)
    1  A    between atoms: C_3  and  C_25
    2  A    between atoms: C_7  and  C_11
    3  A    between atoms: N_8  and  C_18
    4  A    between atoms: C_18  and  C_30
                            x       y       z     vdW  Elec       q    Type
                         _______ _______ _______ _____ _____    ______ ____

>  <TORSDO>
F 4

$$$$
=
 OpenBabel11052420253D

 34 39  0  0  0  0  0  0  0  0999 V2000
  194.0640  174.1130  145.4300 C   0  0  0  0  0  0  0  0  0  0  0  0
  196.1920  172.0300  143.3540 C   0  0  0  0  0  2  0  0  0  0  0  0
  195.8350  174.3860  144.0770 C   0  0  0  0  0  0  0  0  0  0  0  0
  192.9180  176.0350  146.4420 N   0  0  0  0  0  0  0  0  0  0  0  0
  192.9860  174.5600  146.3780 C   0  0  0  0  0  2  0  0  0  0  0  0
  194.7980  176.3510  144.9690 C   0  0  0  0  0  0  0  0  0  0  0  0
  195.7060  177.1050  144.2860 N   0  0  0  0  0  0  0  0  0  0  0  0
  193.8500  176.8910  145.7400 C   0  0  0  0  0  3  0  0  0  0  0  0
  196.7450  175.1740  143.3800 C   0  0  0  0  0  3  0  0  0  0  0  0
  194.8720  174.9780  144.8440 C   0  0  0  0  0  0  0  0  0  0  0  0
  196.6470  176.5330  143.5160 N   0  0  0  0  0  0  0  0  0  0  0  0
  195.6710  170.6310  143.2720 C   0  0  0  0  0  2  0  0  0  0  0  0
  195.6030  169.9140  144.5860 C   0  0  0  0  0  0  0  0  0  0  0  0
  194.8640  170.3450  145.6200 C   0  0  0  0  0  3  0  0  0  0  0  0
  195.6310  172.9430  144.1410 C   0  0  0  0  0  0  0  0  0  0  0  0
  194.1930  171.6540  145.7580 C   0  0  0  0  0  2  0  0  0  0  0  0
  194.5100  172.7590  145.0790 C   0  0  0  0  0  0  0  0  0  0  0  0
  196.2540  168.5710  144.6610 C   0  0  0  0  0  3  0  0  0  0  0  0
  197.1970  168.4330  143.6420 O   0  0  0  0  0  1  0  0  0  0  0  0
  196.8700  168.3940  145.9010 O   0  0  0  0  0  1  0  0  0  0  0  0
  191.8530  176.6500  147.2170 C   0  0  0  0  0  2  0  0  0  0  0  0
  189.7610  177.6030  144.2040 C   0  0  0  0  0  3  0  0  0  0  0  0
  189.3790  176.8210  146.8700 C   0  0  0  0  0  3  0  0  0  0  0  0
  186.0630  177.6760  144.4300 C   0  0  0  0  0  0  0  0  0  0  0  0
  187.3620  177.7810  143.9120 C   0  0  0  0  0  3  0  0  0  0  0  0
  188.4670  177.4960  144.7190 C   0  0  0  0  0  0  0  0  0  0  0  0
  186.9810  177.0010  146.5790 C   0  0  0  0  0  3  0  0  0  0  0  0
  188.2740  177.1030  146.0630 C   0  0  0  0  0  0  0  0  0  0  0  0
  185.8800  177.2860  145.7650 C   0  0  0  0  0  3  0  0  0  0  0  0
  190.6730  176.9220  146.3460 C   0  0  0  0  0  0  0  0  0  0  0  0
  190.8630  177.3190  145.0170 C   0  0  0  0  0  3  0  0  0  0  0  0
  184.9040  177.9770  143.5750 C   0  0  0  0  0  0  0  0  0  0  0  0
  184.8520  177.5410  142.3940 O   0  0  0  0  0  0  0  0  0  0  0  0
  183.8540  178.7470  144.0620 O   0  0  0  0  0  1  0  0  0  0  0  0
  1  5  1  0  0  0  0
  2 15  1  0  0  0  0
  3 15  1  0  0  0  0
  3 10  1  0  0  0  0
  4 21  1  0  0  0  0
  5  4  1  0  0  0  0
  6  8  2  0  0  0  0
  7  6  1  0  0  0  0
  8  4  1  0  0  0  0
  9 11  1  0  0  0  0
  9  3  2  0  0  0  0
 10  6  1  0  0  0  0
 10  1  2  0  0  0  0
 11  7  2  0  0  0  0
 12  2  1  0  0  0  0
 12 13  1  0  0  0  0
 13 18  1  0  0  0  0
 13 14  2  0  0  0  0
 14 16  1  0  0  0  0
 15 17  2  0  0  0  0
 17  1  1  0  0  0  0
 17 16  1  0  0  0  0
 18 20  1  0  0  0  0
 19 18  1  0  0  0  0
 22 26  2  0  0  0  0
 22 31  1  0  0  0  0
 24 29  1  0  0  0  0
 25 24  2  0  0  0  0
 25 26  1  0  0  0  0
 26 28  1  0  0  0  0
 28 27  1  0  0  0  0
 28 23  2  0  0  0  0
 29 27  2  0  0  0  0
 30 23  1  0  0  0  0
 30 21  1  0  0  0  0
 31 30  2  0  0  0  0
 32 34  1  0  0  0  0
 32 24  1  0  0  0  0
 33 32  2  0  0  0  0
M  END
>  <MODEL>
6

>  <REMARK>
 VINA RESULT:      -8.1      2.874      4.477
  Name = 
  4 active torsions:
  status: ('A' for Active; 'I' for Inactive)
    1  A    between atoms: C_3  and  C_25
    2  A    between atoms: C_7  and  C_11
    3  A    between atoms: N_8  and  C_18
    4  A    between atoms: C_18  and  C_30
                            x       y       z     vdW  Elec       q    Type
                         _______ _______ _______ _____ _____    ______ ____

>  <TORSDO>
F 4

$$$$
=
 OpenBabel11052420253D

 34 39  0  0  0  0  0  0  0  0999 V2000
  190.8870  174.7000  145.0960 C   0  0  0  0  0  0  0  0  0  0  0  0
  192.9340  172.5670  142.9890 C   0  0  0  0  0  2  0  0  0  0  0  0
  193.0590  174.1720  144.8900 C   0  0  0  0  0  0  0  0  0  0  0  0
  190.1330  176.4300  146.6690 N   0  0  0  0  0  0  0  0  0  0  0  0
  189.7010  175.3990  145.7010 C   0  0  0  0  0  2  0  0  0  0  0  0
  192.4720  175.8980  146.4410 C   0  0  0  0  0  0  0  0  0  0  0  0
  193.7960  176.0430  146.7370 N   0  0  0  0  0  0  0  0  0  0  0  0
  191.5210  176.6340  147.0230 C   0  0  0  0  0  3  0  0  0  0  0  0
  194.4050  174.3420  145.1980 C   0  0  0  0  0  3  0  0  0  0  0  0
  192.1190  174.9540  145.4970 C   0  0  0  0  0  0  0  0  0  0  0  0
  194.7290  175.2890  146.1320 N   0  0  0  0  0  0  0  0  0  0  0  0
  192.1350  171.9800  141.8700 C   0  0  0  0  0  2  0  0  0  0  0  0
  191.0000  171.1060  142.3070 C   0  0  0  0  0  0  0  0  0  0  0  0
  189.9870  171.5450  143.0700 C   0  0  0  0  0  3  0  0  0  0  0  0
  192.3700  173.3000  143.9440 C   0  0  0  0  0  0  0  0  0  0  0  0
  189.9000  172.8300  143.7910 C   0  0  0  0  0  2  0  0  0  0  0  0
  190.9390  173.6000  144.1250 C   0  0  0  0  0  0  0  0  0  0  0  0
  190.9260  169.7390  141.7060 C   0  0  0  0  0  3  0  0  0  0  0  0
  190.8300  169.8250  140.3170 O   0  0  0  0  0  1  0  0  0  0  0  0
  192.0500  168.9890  142.0570 O   0  0  0  0  0  1  0  0  0  0  0  0
  189.1260  177.2920  147.2650 C   0  0  0  0  0  2  0  0  0  0  0  0
  185.5830  177.3260  145.9190 C   0  0  0  0  0  3  0  0  0  0  0  0
  188.1900  177.8040  145.0000 C   0  0  0  0  0  3  0  0  0  0  0  0
  184.9300  178.1640  142.3680 C   0  0  0  0  0  0  0  0  0  0  0  0
  184.7160  177.8050  143.7070 C   0  0  0  0  0  3  0  0  0  0  0  0
  185.7960  177.6860  144.5860 C   0  0  0  0  0  0  0  0  0  0  0  0
  187.3230  178.2800  142.7890 C   0  0  0  0  0  3  0  0  0  0  0  0
  187.1100  177.9260  144.1220 C   0  0  0  0  0  0  0  0  0  0  0  0
  186.2370  178.3990  141.9160 C   0  0  0  0  0  3  0  0  0  0  0  0
  187.9700  177.4510  146.3370 C   0  0  0  0  0  0  0  0  0  0  0  0
  186.6690  177.2070  146.7920 C   0  0  0  0  0  3  0  0  0  0  0  0
  183.7880  178.2880  141.4490 C   0  0  0  0  0  0  0  0  0  0  0  0
  183.9760  178.3880  140.2070 O   0  0  0  0  0  0  0  0  0  0  0  0
  182.4880  178.2970  141.9420 O   0  0  0  0  0  1  0  0  0  0  0  0
  1 10  2  0  0  0  0
  1  5  1  0  0  0  0
  2 15  1  0  0  0  0
  3  9  2  0  0  0  0
  3 10  1  0  0  0  0
  4  8  1  0  0  0  0
  4 21  1  0  0  0  0
  5  4  1  0  0  0  0
  6  7  1  0  0  0  0
  6  8  2  0  0  0  0
  9 11  1  0  0  0  0
 10  6  1  0  0  0  0
 11  7  2  0  0  0  0
 12 13  1  0  0  0  0
 12  2  1  0  0  0  0
 13 14  2  0  0  0  0
 14 16  1  0  0  0  0
 15 17  2  0  0  0  0
 15  3  1  0  0  0  0
 16 17  1  0  0  0  0
 17  1  1  0  0  0  0
 18 20  1  0  0  0  0
 18 13  1  0  0  0  0
 19 18  1  0  0  0  0
 22 31  1  0  0  0  0
 23 30  1  0  0  0  0
 24 25  2  0  0  0  0
 25 26  1  0  0  0  0
 26 22  2  0  0  0  0
 27 28  1  0  0  0  0
 28 26  1  0  0  0  0
 28 23  2  0  0  0  0
 29 24  1  0  0  0  0
 29 27  2  0  0  0  0
 30 31  2  0  0  0  0
 30 21  1  0  0  0  0
 32 34  1  0  0  0  0
 32 24  1  0  0  0  0
 33 32  2  0  0  0  0
M  END
>  <MODEL>
7

>  <REMARK>
 VINA RESULT:      -8.1      2.678      3.981
  Name = 
  4 active torsions:
  status: ('A' for Active; 'I' for Inactive)
    1  A    between atoms: C_3  and  C_25
    2  A    between atoms: C_7  and  C_11
    3  A    between atoms: N_8  and  C_18
    4  A    between atoms: C_18  and  C_30
                            x       y       z     vdW  Elec       q    Type
                         _______ _______ _______ _____ _____    ______ ____

>  <TORSDO>
F 4

$$$$
=
 OpenBabel11052420253D

 34 39  0  0  0  0  0  0  0  0999 V2000
  190.5960  176.8460  144.1580 C   0  0  0  0  0  0  0  0  0  0  0  0
  192.7440  175.6700  146.8380 C   0  0  0  0  0  2  0  0  0  0  0  0
  190.3540  175.8900  146.1740 C   0  0  0  0  0  0  0  0  0  0  0  0
  188.6550  177.6020  142.8560 N   0  0  0  0  0  0  0  0  0  0  0  0
  190.1230  177.4310  142.8560 C   0  0  0  0  0  2  0  0  0  0  0  0
  188.3750  176.6050  145.0320 C   0  0  0  0  0  0  0  0  0  0  0  0
  187.6390  176.1680  146.0930 N   0  0  0  0  0  0  0  0  0  0  0  0
  187.8190  177.1610  143.9510 C   0  0  0  0  0  3  0  0  0  0  0  0
  189.5850  175.4600  147.2510 C   0  0  0  0  0  3  0  0  0  0  0  0
  189.7470  176.4660  145.0940 C   0  0  0  0  0  0  0  0  0  0  0  0
  188.2280  175.6150  147.1670 N   0  0  0  0  0  0  0  0  0  0  0  0
  194.1720  176.0400  146.5930 C   0  0  0  0  0  2  0  0  0  0  0  0
  194.7620  175.4530  145.3480 C   0  0  0  0  0  0  0  0  0  0  0  0
  194.2770  175.6960  144.1210 C   0  0  0  0  0  3  0  0  0  0  0  0
  191.7940  175.9090  145.9390 C   0  0  0  0  0  0  0  0  0  0  0  0
  193.0020  176.3550  143.7750 C   0  0  0  0  0  2  0  0  0  0  0  0
  191.9500  176.4770  144.5890 C   0  0  0  0  0  0  0  0  0  0  0  0
  196.0530  174.7130  145.4920 C   0  0  0  0  0  3  0  0  0  0  0  0
  195.8100  173.3620  145.7430 O   0  0  0  0  0  1  0  0  0  0  0  0
  196.8260  174.8470  144.3380 O   0  0  0  0  0  1  0  0  0  0  0  0
  188.0310  178.2670  141.7250 C   0  0  0  0  0  2  0  0  0  0  0  0
  184.7100  178.9290  143.4260 C   0  0  0  0  0  3  0  0  0  0  0  0
  185.6640  178.0590  140.9360 C   0  0  0  0  0  3  0  0  0  0  0  0
  181.5250  178.3560  141.6180 C   0  0  0  0  0  0  0  0  0  0  0  0
  182.4310  178.6920  142.6340 C   0  0  0  0  0  3  0  0  0  0  0  0
  183.8070  178.5970  142.4120 C   0  0  0  0  0  0  0  0  0  0  0  0
  183.3860  177.8200  140.1470 C   0  0  0  0  0  3  0  0  0  0  0  0
  184.2880  178.1570  141.1570 C   0  0  0  0  0  0  0  0  0  0  0  0
  182.0100  177.9190  140.3760 C   0  0  0  0  0  3  0  0  0  0  0  0
  186.5630  178.4010  141.9520 C   0  0  0  0  0  0  0  0  0  0  0  0
  186.0850  178.8300  143.1970 C   0  0  0  0  0  3  0  0  0  0  0  0
  180.0770  178.4590  141.8600 C   0  0  0  0  0  0  0  0  0  0  0  0
  179.4410  177.4880  142.3500 O   0  0  0  0  0  1  0  0  0  0  0  0
  179.3960  179.6300  141.5470 O   0  0  0  0  0  0  0  0  0  0  0  0
  1 17  1  0  0  0  0
  1 10  2  0  0  0  0
  3  9  2  0  0  0  0
  4  8  1  0  0  0  0
  5  4  1  0  0  0  0
  5  1  1  0  0  0  0
  6 10  1  0  0  0  0
  6  7  1  0  0  0  0
  7 11  2  0  0  0  0
  8  6  2  0  0  0  0
 10  3  1  0  0  0  0
 11  9  1  0  0  0  0
 12  2  1  0  0  0  0
 13 18  1  0  0  0  0
 13 12  1  0  0  0  0
 14 13  2  0  0  0  0
 15  3  1  0  0  0  0
 15  2  1  0  0  0  0
 16 14  1  0  0  0  0
 16 17  1  0  0  0  0
 17 15  2  0  0  0  0
 18 19  1  0  0  0  0
 20 18  1  0  0  0  0
 21 30  1  0  0  0  0
 21  4  1  0  0  0  0
 23 28  2  0  0  0  0
 23 30  1  0  0  0  0
 24 32  1  0  0  0  0
 24 25  2  0  0  0  0
 26 25  1  0  0  0  0
 26 22  2  0  0  0  0
 27 29  2  0  0  0  0
 27 28  1  0  0  0  0
 28 26  1  0  0  0  0
 29 24  1  0  0  0  0
 30 31  2  0  0  0  0
 31 22  1  0  0  0  0
 32 33  1  0  0  0  0
 34 32  2  0  0  0  0
M  END
>  <MODEL>
8

>  <REMARK>
 VINA RESULT:      -7.9      2.273      3.557
  Name = 
  4 active torsions:
  status: ('A' for Active; 'I' for Inactive)
    1  A    between atoms: C_3  and  C_25
    2  A    between atoms: C_7  and  C_11
    3  A    between atoms: N_8  and  C_18
    4  A    between atoms: C_18  and  C_30
                            x       y       z     vdW  Elec       q    Type
                         _______ _______ _______ _____ _____    ______ ____

>  <TORSDO>
F 4

$$$$
=
 OpenBabel11052420253D

 34 39  0  0  0  0  0  0  0  0999 V2000
  187.9370  175.6170  142.3890 C   0  0  0  0  0  0  0  0  0  0  0  0
  186.1360  178.7420  142.8000 C   0  0  0  0  0  2  0  0  0  0  0  0
  186.7720  177.0370  141.0990 C   0  0  0  0  0  0  0  0  0  0  0  0
  189.1180  173.6890  141.4290 N   0  0  0  0  0  0  0  0  0  0  0  0
  188.7450  174.3830  142.6790 C   0  0  0  0  0  2  0  0  0  0  0  0
  187.8980  175.2190  140.0230 C   0  0  0  0  0  0  0  0  0  0  0  0
  187.4340  175.6790  138.8260 N   0  0  0  0  0  0  0  0  0  0  0  0
  188.6610  174.1270  140.1280 C   0  0  0  0  0  3  0  0  0  0  0  0
  186.3180  177.4950  139.8660 C   0  0  0  0  0  3  0  0  0  0  0  0
  187.5610  175.9250  141.1610 C   0  0  0  0  0  0  0  0  0  0  0  0
  186.6710  176.7820  138.7530 N   0  0  0  0  0  0  0  0  0  0  0  0
  186.3310  179.3070  144.1710 C   0  0  0  0  0  2  0  0  0  0  0  0
  185.8340  178.4320  145.2800 C   0  0  0  0  0  0  0  0  0  0  0  0
  186.2980  177.1930  145.5040 C   0  0  0  0  0  3  0  0  0  0  0  0
  186.6200  177.5520  142.4560 C   0  0  0  0  0  0  0  0  0  0  0  0
  187.1680  176.3900  144.6220 C   0  0  0  0  0  2  0  0  0  0  0  0
  187.3290  176.5850  143.3110 C   0  0  0  0  0  0  0  0  0  0  0  0
  184.9080  179.0570  146.2740 C   0  0  0  0  0  3  0  0  0  0  0  0
  183.5880  178.7000  145.9970 O   0  0  0  0  0  1  0  0  0  0  0  0
  185.2420  178.6630  147.5700 O   0  0  0  0  0  1  0  0  0  0  0  0
  190.0050  172.5400  141.5070 C   0  0  0  0  0  2  0  0  0  0  0  0
  193.3790  174.2140  141.9240 C   0  0  0  0  0  3  0  0  0  0  0  0
  191.7580  172.3730  143.2860 C   0  0  0  0  0  3  0  0  0  0  0  0
  195.5070  173.4460  144.8600 C   0  0  0  0  0  0  0  0  0  0  0  0
  195.0640  174.0080  143.6540 C   0  0  0  0  0  3  0  0  0  0  0  0
  193.8180  173.6560  143.1280 C   0  0  0  0  0  0  0  0  0  0  0  0
  193.4440  172.1660  145.0120 C   0  0  0  0  0  3  0  0  0  0  0  0
  193.0020  172.7270  143.8130 C   0  0  0  0  0  0  0  0  0  0  0  0
  194.6920  172.5250  145.5340 C   0  0  0  0  0  3  0  0  0  0  0  0
  191.3190  172.9420  142.0840 C   0  0  0  0  0  0  0  0  0  0  0  0
  192.1320  173.8560  141.4020 C   0  0  0  0  0  3  0  0  0  0  0  0
  196.8200  173.8220  145.4080 C   0  0  0  0  0  0  0  0  0  0  0  0
  197.1450  173.4790  146.5770 O   0  0  0  0  0  1  0  0  0  0  0  0
  197.7140  174.5610  144.6420 O   0  0  0  0  0  0  0  0  0  0  0  0
  1  5  1  0  0  0  0
  1 17  1  0  0  0  0
  2 12  1  0  0  0  0
  3 10  1  0  0  0  0
  3 15  1  0  0  0  0
  4 21  1  0  0  0  0
  4  5  1  0  0  0  0
  6  8  2  0  0  0  0
  6 10  1  0  0  0  0
  7  6  1  0  0  0  0
  8  4  1  0  0  0  0
  9  3  2  0  0  0  0
 10  1  2  0  0  0  0
 11  7  2  0  0  0  0
 11  9  1  0  0  0  0
 12 13  1  0  0  0  0
 13 14  2  0  0  0  0
 13 18  1  0  0  0  0
 15  2  1  0  0  0  0
 15 17  2  0  0  0  0
 16 14  1  0  0  0  0
 17 16  1  0  0  0  0
 18 20  1  0  0  0  0
 19 18  1  0  0  0  0
 21 30  1  0  0  0  0
 22 26  1  0  0  0  0
 23 28  1  0  0  0  0
 24 32  1  0  0  0  0
 24 29  1  0  0  0  0
 25 24  2  0  0  0  0
 26 25  1  0  0  0  0
 26 28  2  0  0  0  0
 27 29  2  0  0  0  0
 28 27  1  0  0  0  0
 30 23  2  0  0  0  0
 31 22  2  0  0  0  0
 31 30  1  0  0  0  0
 32 33  1  0  0  0  0
 34 32  2  0  0  0  0
M  END
>  <MODEL>
9

>  <REMARK>
 VINA RESULT:      -7.8      3.212      9.927
  Name = 
  4 active torsions:
  status: ('A' for Active; 'I' for Inactive)
    1  A    between atoms: C_3  and  C_25
    2  A    between atoms: C_7  and  C_11
    3  A    between atoms: N_8  and  C_18
    4  A    between atoms: C_18  and  C_30
                            x       y       z     vdW  Elec       q    Type
                         _______ _______ _______ _____ _____    ______ ____

>  <TORSDO>
F 4

$$$$
