=
 OpenBabel11052418443D

 34 39  0  0  1  0  0  0  0  0999 V2000
  189.7420  174.3230  141.5440 C   0  0  0  0  0  0  0  0  0  0  0  0
  192.1430  174.6560  141.7150 C   0  0  0  0  0  0  0  0  0  0  0  0
  190.5960  175.3650  143.5720 C   0  0  0  0  0  0  0  0  0  0  0  0
  191.1790  175.9500  145.9460 C   0  0  1  0  0  3  0  0  0  0  0  0
  191.2130  173.3970  139.8610 C   0  0  0  0  0  3  0  0  0  0  0  0
  192.3110  173.9380  140.5280 C   0  0  0  0  0  3  0  0  0  0  0  0
  192.7610  174.6240  144.7390 C   0  0  0  0  0  2  0  0  0  0  0  0
  190.8570  174.7680  142.3030 C   0  0  0  0  0  0  0  0  0  0  0  0
  192.6830  176.4470  146.8090 S   0  0  0  0  0  0  0  0  0  0  0  0
  189.9290  173.6130  140.3550 C   0  0  0  0  0  3  0  0  0  0  0  0
  189.2790  175.7920  143.8630 C   0  0  0  0  0  0  0  0  0  0  0  0
  188.4790  174.6130  141.9400 N   0  0  0  0  0  0  0  0  0  0  0  0
  193.2470  175.3250  142.2240 O   0  0  0  0  0  1  0  0  0  0  0  0
  190.1800  177.0810  145.8140 C   0  0  0  0  0  2  0  0  0  0  0  0
  189.0320  176.6140  145.0340 N   0  0  0  0  0  0  0  0  0  0  0  0
  193.5730  175.1040  145.9410 C   0  0  2  0  0  3  0  0  0  0  0  0
  191.5750  175.4550  144.6390 N   0  0  0  0  0  0  0  0  0  0  0  0
  188.2310  175.3550  143.0470 C   0  0  0  0  0  3  0  0  0  0  0  0
  185.9060  178.6980  145.0810 C   0  0  0  0  0  0  0  0  0  0  0  0
  185.2250  178.1350  146.1620 C   0  0  0  0  0  3  0  0  0  0  0  0
  187.7310  177.1200  145.3940 C   0  0  0  0  0  0  0  0  0  0  0  0
  185.7950  177.0710  146.8670 C   0  0  0  0  0  3  0  0  0  0  0  0
  187.1530  178.1960  144.7020 C   0  0  0  0  0  3  0  0  0  0  0  0
  187.0430  176.5700  146.4870 C   0  0  0  0  0  3  0  0  0  0  0  0
  185.1980  180.0360  144.2030 Cl  0  0  0  0  0  0  0  0  0  0  0  0
  194.9210  175.5180  145.5540 N   0  0  0  0  0  2  0  0  0  0  0  0
  195.8450  174.5780  146.0440 N   0  0  0  0  0  2  0  0  0  0  0  0
  196.1450  171.8310  145.4940 C   0  0  0  0  0  1  0  0  0  0  0  0
  196.7580  174.2620  144.9540 C   0  0  1  0  0  3  0  0  0  0  0  0
  196.5140  172.8370  144.4160 C   0  0  2  0  0  3  0  0  0  0  0  0
  196.1930  173.3440  142.2430 C   0  0  0  0  0  2  0  0  0  0  0  0
  196.8630  174.7180  142.4500 C   0  0  0  0  0  2  0  0  0  0  0  0
  196.5640  175.2960  143.8350 C   0  0  0  0  0  2  0  0  0  0  0  0
  195.5450  172.8620  143.4020 O   0  0  0  0  0  0  0  0  0  0  0  0
  1 12  2  0  0  0  0
  1  8  1  0  0  0  0
  2 13  1  0  0  0  0
  2  8  1  0  0  0  0
  3 11  1  0  0  0  0
  3 17  1  0  0  0  0
  4 14  1  6  0  0  0
  4  9  1  0  0  0  0
  5 10  2  0  0  0  0
  5  6  1  0  0  0  0
  6  2  2  0  0  0  0
  7 16  1  0  0  0  0
  8  3  2  0  0  0  0
 10  1  1  0  0  0  0
 11 15  1  0  0  0  0
 12 18  1  0  0  0  0
 15 21  1  0  0  0  0
 15 14  1  0  0  0  0
 16 26  1  6  0  0  0
 16  9  1  0  0  0  0
 17  7  1  0  0  0  0
 17  4  1  0  0  0  0
 18 11  2  0  0  0  0
 19 20  1  0  0  0  0
 20 22  2  0  0  0  0
 21 24  2  0  0  0  0
 23 19  2  0  0  0  0
 23 21  1  0  0  0  0
 24 22  1  0  0  0  0
 25 19  1  0  0  0  0
 26 27  1  0  0  0  0
 29 27  1  1  0  0  0
 30 29  1  0  0  0  0
 30 28  1  1  0  0  0
 31 32  1  0  0  0  0
 31 34  1  0  0  0  0
 32 33  1  0  0  0  0
 33 29  1  0  0  0  0
 34 30  1  0  0  0  0
M  END
>  <MODEL>
1

>  <REMARK>
 VINA RESULT:      -8.0      0.000      0.000
  Name = 
  4 active torsions:
  status: ('A' for Active; 'I' for Inactive)
    1  A    between atoms: N_3  and  C_13
    2  A    between atoms: N_3  and  N_17
    3  A    between atoms: C_12  and  N_28
    4  A    between atoms: N_17  and  C_29
                            x       y       z     vdW  Elec       q    Type
                         _______ _______ _______ _____ _____    ______ ____

>  <TORSDO>
F 4

$$$$
=
 OpenBabel11052418443D

 34 39  0  0  1  0  0  0  0  0999 V2000
  191.0270  173.3890  140.4720 C   0  0  0  0  0  0  0  0  0  0  0  0
  188.9570  174.5020  141.0910 C   0  0  0  0  0  0  0  0  0  0  0  0
  190.9590  174.5340  142.6190 C   0  0  0  0  0  0  0  0  0  0  0  0
  191.3880  176.0320  144.5920 C   0  0  1  0  0  3  0  0  0  0  0  0
  189.2200  173.5580  138.8710 C   0  0  0  0  0  3  0  0  0  0  0  0
  188.4470  174.2260  139.8190 C   0  0  0  0  0  3  0  0  0  0  0  0
  189.7930  176.7950  142.9800 C   0  0  0  0  0  2  0  0  0  0  0  0
  190.3030  174.1810  141.4030 C   0  0  0  0  0  0  0  0  0  0  0  0
  190.3640  177.0550  145.6680 S   0  0  0  0  0  0  0  0  0  0  0  0
  190.4980  173.1170  139.2080 C   0  0  0  0  0  3  0  0  0  0  0  0
  192.1240  173.8240  142.9930 C   0  0  0  0  0  0  0  0  0  0  0  0
  192.2250  172.8530  140.8080 N   0  0  0  0  0  0  0  0  0  0  0  0
  188.0780  174.9980  142.0430 O   0  0  0  0  0  1  0  0  0  0  0  0
  191.9220  174.8000  145.2920 C   0  0  0  0  0  2  0  0  0  0  0  0
  192.6700  173.9910  144.3280 N   0  0  0  0  0  0  0  0  0  0  0  0
  189.5220  177.7050  144.1780 C   0  0  2  0  0  3  0  0  0  0  0  0
  190.5750  175.6630  143.4460 N   0  0  0  0  0  0  0  0  0  0  0  0
  192.7620  173.0240  142.0400 C   0  0  0  0  0  3  0  0  0  0  0  0
  194.8790  171.2940  145.7310 C   0  0  0  0  0  0  0  0  0  0  0  0
  196.1030  171.9630  145.8060 C   0  0  0  0  0  3  0  0  0  0  0  0
  193.8340  173.2880  144.8070 C   0  0  0  0  0  0  0  0  0  0  0  0
  196.1960  173.2950  145.3920 C   0  0  0  0  0  3  0  0  0  0  0  0
  193.7510  171.9540  145.2380 C   0  0  0  0  0  3  0  0  0  0  0  0
  195.0670  173.9540  144.8990 C   0  0  0  0  0  3  0  0  0  0  0  0
  194.7580  169.6300  146.2570 Cl  0  0  0  0  0  0  0  0  0  0  0  0
  188.0900  177.8850  144.4080 N   0  0  0  0  0  2  0  0  0  0  0  0
  187.5930  176.7610  145.0900 N   0  0  0  0  0  2  0  0  0  0  0  0
  186.1310  176.8910  147.4950 C   0  0  0  0  0  1  0  0  0  0  0  0
  186.1440  176.7670  144.9330 C   0  0  1  0  0  3  0  0  0  0  0  0
  185.4480  177.3030  146.2010 C   0  0  2  0  0  3  0  0  0  0  0  0
  184.2340  178.9490  145.2520 C   0  0  0  0  0  2  0  0  0  0  0  0
  184.4150  178.3010  143.8640 C   0  0  0  0  0  2  0  0  0  0  0  0
  185.7850  177.6350  143.7190 C   0  0  0  0  0  2  0  0  0  0  0  0
  185.3150  178.6970  146.1270 O   0  0  0  0  0  0  0  0  0  0  0  0
  1 12  2  0  0  0  0
  1  8  1  0  0  0  0
  2  8  1  0  0  0  0
  2 13  1  0  0  0  0
  3 11  1  0  0  0  0
  3 17  1  0  0  0  0
  4 14  1  1  0  0  0
  4  9  1  0  0  0  0
  5 10  2  0  0  0  0
  5  6  1  0  0  0  0
  6  2  2  0  0  0  0
  7 17  1  0  0  0  0
  7 16  1  0  0  0  0
  8  3  2  0  0  0  0
 10  1  1  0  0  0  0
 11 15  1  0  0  0  0
 12 18  1  0  0  0  0
 15 21  1  0  0  0  0
 15 14  1  0  0  0  0
 16 26  1  1  0  0  0
 16  9  1  0  0  0  0
 17  4  1  0  0  0  0
 18 11  2  0  0  0  0
 19 20  1  0  0  0  0
 19 25  1  0  0  0  0
 21 24  2  0  0  0  0
 21 23  1  0  0  0  0
 22 20  2  0  0  0  0
 23 19  2  0  0  0  0
 24 22  1  0  0  0  0
 26 27  1  0  0  0  0
 29 27  1  1  0  0  0
 29 30  1  0  0  0  0
 30 28  1  1  0  0  0
 31 34  1  0  0  0  0
 32 31  1  0  0  0  0
 33 32  1  0  0  0  0
 33 29  1  0  0  0  0
 34 30  1  0  0  0  0
M  END
>  <MODEL>
2

>  <REMARK>
 VINA RESULT:      -7.7      3.461      8.009
  Name = 
  4 active torsions:
  status: ('A' for Active; 'I' for Inactive)
    1  A    between atoms: N_3  and  C_13
    2  A    between atoms: N_3  and  N_17
    3  A    between atoms: C_12  and  N_28
    4  A    between atoms: N_17  and  C_29
                            x       y       z     vdW  Elec       q    Type
                         _______ _______ _______ _____ _____    ______ ____

>  <TORSDO>
F 4

$$$$
=
 OpenBabel11052418443D

 34 39  0  0  1  0  0  0  0  0999 V2000
  191.5790  176.1500  145.6390 C   0  0  0  0  0  0  0  0  0  0  0  0
  192.0540  174.0340  144.5410 C   0  0  0  0  0  0  0  0  0  0  0  0
  190.1260  175.4780  143.8050 C   0  0  0  0  0  0  0  0  0  0  0  0
  188.8090  175.3450  141.6680 C   0  0  1  0  0  3  0  0  0  0  0  0
  193.5870  174.9230  146.1990 C   0  0  0  0  0  3  0  0  0  0  0  0
  193.2260  173.9240  145.2960 C   0  0  0  0  0  3  0  0  0  0  0  0
  190.9820  174.3460  141.6640 C   0  0  0  0  0  2  0  0  0  0  0  0
  191.2630  175.2090  144.6230 C   0  0  0  0  0  0  0  0  0  0  0  0
  188.5380  174.0830  140.4070 S   0  0  0  0  0  0  0  0  0  0  0  0
  192.7510  176.0200  146.3890 C   0  0  0  0  0  3  0  0  0  0  0  0
  189.1900  176.4460  144.2400 C   0  0  0  0  0  0  0  0  0  0  0  0
  190.7310  177.1680  145.9230 N   0  0  0  0  0  0  0  0  0  0  0  0
  191.6560  172.9280  143.8050 O   0  0  0  0  0  1  0  0  0  0  0  0
  187.5810  175.5940  142.5180 C   0  0  0  0  0  2  0  0  0  0  0  0
  187.9130  176.5670  143.5610 N   0  0  0  0  0  0  0  0  0  0  0  0
  190.3400  173.7590  140.4060 C   0  0  2  0  0  3  0  0  0  0  0  0
  189.9240  174.9050  142.4870 N   0  0  0  0  0  0  0  0  0  0  0  0
  189.5480  177.3120  145.2780 C   0  0  0  0  0  3  0  0  0  0  0  0
  185.0990  178.1890  145.4510 C   0  0  0  0  0  0  0  0  0  0  0  0
  184.8460  179.3030  144.6490 C   0  0  0  0  0  3  0  0  0  0  0  0
  186.8880  177.5030  143.9510 C   0  0  0  0  0  0  0  0  0  0  0  0
  185.6030  179.5180  143.4950 C   0  0  0  0  0  3  0  0  0  0  0  0
  186.1120  177.2920  145.1020 C   0  0  0  0  0  3  0  0  0  0  0  0
  186.6160  178.6200  143.1460 C   0  0  0  0  0  3  0  0  0  0  0  0
  184.1460  177.9130  146.8930 Cl  0  0  0  0  0  0  0  0  0  0  0  0
  190.6280  172.3320  140.2670 N   0  0  0  0  0  2  0  0  0  0  0  0
  190.5270  171.9770  138.9110 N   0  0  0  0  0  2  0  0  0  0  0  0
  189.6250  171.1760  136.3650 C   0  0  0  0  0  1  0  0  0  0  0  0
  189.9340  170.6480  138.8550 C   0  0  1  0  0  3  0  0  0  0  0  0
  189.9050  170.1090  137.4100 C   0  0  2  0  0  3  0  0  0  0  0  0
  190.9980  168.1660  137.7500 C   0  0  0  0  0  2  0  0  0  0  0  0
  190.7240  168.2620  139.2660 C   0  0  0  0  0  2  0  0  0  0  0  0
  190.7470  169.7090  139.7600 C   0  0  0  0  0  2  0  0  0  0  0  0
  191.0980  169.4280  137.1240 O   0  0  0  0  0  0  0  0  0  0  0  0
  1 12  1  0  0  0  0
  1 10  2  0  0  0  0
  2  8  2  0  0  0  0
  2  6  1  0  0  0  0
  3 11  2  0  0  0  0
  3  8  1  0  0  0  0
  4 17  1  0  0  0  0
  4 14  1  1  0  0  0
  5 10  1  0  0  0  0
  6  5  2  0  0  0  0
  7 17  1  0  0  0  0
  8  1  1  0  0  0  0
  9  4  1  0  0  0  0
 11 18  1  0  0  0  0
 13  2  1  0  0  0  0
 14 15  1  0  0  0  0
 15 21  1  0  0  0  0
 15 11  1  0  0  0  0
 16 26  1  1  0  0  0
 16  9  1  0  0  0  0
 16  7  1  0  0  0  0
 17  3  1  0  0  0  0
 18 12  2  0  0  0  0
 19 25  1  0  0  0  0
 20 19  2  0  0  0  0
 21 23  2  0  0  0  0
 22 20  1  0  0  0  0
 23 19  1  0  0  0  0
 24 22  2  0  0  0  0
 24 21  1  0  0  0  0
 27 26  1  0  0  0  0
 29 27  1  6  0  0  0
 29 33  1  0  0  0  0
 30 28  1  6  0  0  0
 30 29  1  0  0  0  0
 31 32  1  0  0  0  0
 32 33  1  0  0  0  0
 34 30  1  0  0  0  0
 34 31  1  0  0  0  0
M  END
>  <MODEL>
3

>  <REMARK>
 VINA RESULT:      -7.5      3.157      5.993
  Name = 
  4 active torsions:
  status: ('A' for Active; 'I' for Inactive)
    1  A    between atoms: N_3  and  C_13
    2  A    between atoms: N_3  and  N_17
    3  A    between atoms: C_12  and  N_28
    4  A    between atoms: N_17  and  C_29
                            x       y       z     vdW  Elec       q    Type
                         _______ _______ _______ _____ _____    ______ ____

>  <TORSDO>
F 4

$$$$
=
 OpenBabel11052418443D

 34 39  0  0  1  0  0  0  0  0999 V2000
  188.6610  173.6500  141.5260 C   0  0  0  0  0  0  0  0  0  0  0  0
  191.0700  173.4160  141.7460 C   0  0  0  0  0  0  0  0  0  0  0  0
  189.7600  174.9010  143.3010 C   0  0  0  0  0  0  0  0  0  0  0  0
  190.4840  175.8730  145.5040 C   0  0  1  0  0  3  0  0  0  0  0  0
  189.8440  172.0190  140.1860 C   0  0  0  0  0  3  0  0  0  0  0  0
  191.0470  172.4170  140.7670 C   0  0  0  0  0  3  0  0  0  0  0  0
  191.6770  173.9520  144.7240 C   0  0  0  0  0  2  0  0  0  0  0  0
  189.8560  173.9750  142.2210 C   0  0  0  0  0  0  0  0  0  0  0  0
  192.0690  176.1770  146.3100 S   0  0  0  0  0  0  0  0  0  0  0  0
  188.6580  172.6540  140.5460 C   0  0  0  0  0  3  0  0  0  0  0  0
  188.5940  175.6940  143.4140 C   0  0  0  0  0  0  0  0  0  0  0  0
  187.5130  174.3250  141.7750 N   0  0  0  0  0  0  0  0  0  0  0  0
  192.3090  173.8960  142.1460 O   0  0  0  0  0  1  0  0  0  0  0  0
  189.8000  177.1480  145.0600 C   0  0  0  0  0  2  0  0  0  0  0  0
  188.5670  176.8050  144.3480 N   0  0  0  0  0  0  0  0  0  0  0  0
  192.5900  174.4900  145.8260 C   0  0  2  0  0  3  0  0  0  0  0  0
  190.7360  175.0000  144.3700 N   0  0  0  0  0  0  0  0  0  0  0  0
  187.4660  175.3460  142.6650 C   0  0  0  0  0  3  0  0  0  0  0  0
  185.5860  178.5400  145.8390 C   0  0  0  0  0  0  0  0  0  0  0  0
  185.1900  179.3530  144.7750 C   0  0  0  0  0  3  0  0  0  0  0  0
  187.4360  177.6840  144.5100 C   0  0  0  0  0  0  0  0  0  0  0  0
  185.9070  179.3300  143.5750 C   0  0  0  0  0  3  0  0  0  0  0  0
  186.7000  177.7070  145.7060 C   0  0  0  0  0  3  0  0  0  0  0  0
  187.0210  178.4970  143.4430 C   0  0  0  0  0  3  0  0  0  0  0  0
  184.6840  178.5610  147.3380 Cl  0  0  0  0  0  0  0  0  0  0  0  0
  193.9960  174.4570  145.4270 N   0  0  0  0  0  2  0  0  0  0  0  0
  194.1820  175.3290  144.3400 N   0  0  0  0  0  2  0  0  0  0  0  0
  194.4780  176.4590  141.7760 C   0  0  0  0  0  1  0  0  0  0  0  0
  195.3060  174.8200  143.5660 C   0  0  1  0  0  3  0  0  0  0  0  0
  195.6770  175.7830  142.4200 C   0  0  2  0  0  3  0  0  0  0  0  0
  197.8570  176.0770  142.9150 C   0  0  0  0  0  2  0  0  0  0  0  0
  197.8430  174.8080  143.7930 C   0  0  0  0  0  2  0  0  0  0  0  0
  196.5030  174.6230  144.5080 C   0  0  0  0  0  2  0  0  0  0  0  0
  196.6070  176.7330  142.8680 O   0  0  0  0  0  0  0  0  0  0  0  0
  1 12  2  0  0  0  0
  1  8  1  0  0  0  0
  2 13  1  0  0  0  0
  2  8  1  0  0  0  0
  3 11  1  0  0  0  0
  3 17  1  0  0  0  0
  4 14  1  6  0  0  0
  4  9  1  0  0  0  0
  5 10  2  0  0  0  0
  5  6  1  0  0  0  0
  6  2  2  0  0  0  0
  7 16  1  0  0  0  0
  8  3  2  0  0  0  0
 10  1  1  0  0  0  0
 11 15  1  0  0  0  0
 12 18  1  0  0  0  0
 15 21  1  0  0  0  0
 15 14  1  0  0  0  0
 16 26  1  6  0  0  0
 16  9  1  0  0  0  0
 17  7  1  0  0  0  0
 17  4  1  0  0  0  0
 18 11  2  0  0  0  0
 19 25  1  0  0  0  0
 20 19  2  0  0  0  0
 21 23  2  0  0  0  0
 22 20  1  0  0  0  0
 23 19  1  0  0  0  0
 24 22  2  0  0  0  0
 24 21  1  0  0  0  0
 27 26  1  0  0  0  0
 29 27  1  1  0  0  0
 29 33  1  0  0  0  0
 30 28  1  1  0  0  0
 30 34  1  0  0  0  0
 30 29  1  0  0  0  0
 31 32  1  0  0  0  0
 32 33  1  0  0  0  0
 34 31  1  0  0  0  0
M  END
>  <MODEL>
4

>  <REMARK>
 VINA RESULT:      -7.4      1.573      2.251
  Name = 
  4 active torsions:
  status: ('A' for Active; 'I' for Inactive)
    1  A    between atoms: N_3  and  C_13
    2  A    between atoms: N_3  and  N_17
    3  A    between atoms: C_12  and  N_28
    4  A    between atoms: N_17  and  C_29
                            x       y       z     vdW  Elec       q    Type
                         _______ _______ _______ _____ _____    ______ ____

>  <TORSDO>
F 4

$$$$
=
 OpenBabel11052418443D

 34 39  0  0  1  0  0  0  0  0999 V2000
  191.5080  176.1100  145.7410 C   0  0  0  0  0  0  0  0  0  0  0  0
  191.9550  173.9550  144.7080 C   0  0  0  0  0  0  0  0  0  0  0  0
  190.0520  175.4040  143.9220 C   0  0  0  0  0  0  0  0  0  0  0  0
  188.7400  175.2270  141.7850 C   0  0  1  0  0  3  0  0  0  0  0  0
  193.4960  174.8690  146.3460 C   0  0  0  0  0  3  0  0  0  0  0  0
  193.1230  173.8500  145.4710 C   0  0  0  0  0  3  0  0  0  0  0  0
  190.8980  174.1960  141.8190 C   0  0  0  0  0  2  0  0  0  0  0  0
  191.1820  175.1440  144.7520 C   0  0  0  0  0  0  0  0  0  0  0  0
  188.4550  173.9320  140.5620 S   0  0  0  0  0  0  0  0  0  0  0  0
  192.6750  175.9840  146.4990 C   0  0  0  0  0  3  0  0  0  0  0  0
  189.1290  176.3990  144.3240 C   0  0  0  0  0  0  0  0  0  0  0  0
  190.6750  177.1480  145.9910 N   0  0  0  0  0  0  0  0  0  0  0  0
  191.5440  172.8330  144.0050 O   0  0  0  0  0  1  0  0  0  0  0  0
  187.5140  175.5200  142.6230 C   0  0  0  0  0  2  0  0  0  0  0  0
  187.8560  176.5190  143.6370 N   0  0  0  0  0  0  0  0  0  0  0  0
  190.2520  173.5820  140.5780 C   0  0  2  0  0  3  0  0  0  0  0  0
  189.8460  174.7950  142.6210 N   0  0  0  0  0  0  0  0  0  0  0  0
  189.4970  177.2900  145.3370 C   0  0  0  0  0  3  0  0  0  0  0  0
  185.0470  178.2280  145.4550 C   0  0  0  0  0  0  0  0  0  0  0  0
  184.8280  179.3330  144.6300 C   0  0  0  0  0  3  0  0  0  0  0  0
  186.8440  177.4810  143.9950 C   0  0  0  0  0  0  0  0  0  0  0  0
  185.6070  179.5130  143.4840 C   0  0  0  0  0  3  0  0  0  0  0  0
  186.0460  177.3050  145.1370 C   0  0  0  0  0  3  0  0  0  0  0  0
  186.6060  178.5900  143.1670 C   0  0  0  0  0  3  0  0  0  0  0  0
  184.0660  177.9960  146.8860 Cl  0  0  0  0  0  0  0  0  0  0  0  0
  190.5190  172.1470  140.4820 N   0  0  0  0  0  2  0  0  0  0  0  0
  191.9090  171.9420  140.4750 N   0  0  0  0  0  2  0  0  0  0  0  0
  193.5880  170.6620  142.3400 C   0  0  0  0  0  1  0  0  0  0  0  0
  192.1340  170.5230  140.2320 C   0  0  1  0  0  3  0  0  0  0  0  0
  192.6450  169.8130  141.5030 C   0  0  2  0  0  3  0  0  0  0  0  0
  191.0850  168.1920  141.6380 C   0  0  0  0  0  2  0  0  0  0  0  0
  190.7020  168.4180  140.1600 C   0  0  0  0  0  2  0  0  0  0  0  0
  190.8170  169.8900  139.7600 C   0  0  0  0  0  2  0  0  0  0  0  0
  191.5630  169.3600  142.2730 O   0  0  0  0  0  0  0  0  0  0  0  0
  1 12  1  0  0  0  0
  1 10  2  0  0  0  0
  2  8  2  0  0  0  0
  2  6  1  0  0  0  0
  3 11  2  0  0  0  0
  3  8  1  0  0  0  0
  4 17  1  0  0  0  0
  4 14  1  1  0  0  0
  5 10  1  0  0  0  0
  6  5  2  0  0  0  0
  7 17  1  0  0  0  0
  8  1  1  0  0  0  0
  9 16  1  0  0  0  0
  9  4  1  0  0  0  0
 11 18  1  0  0  0  0
 13  2  1  0  0  0  0
 14 15  1  0  0  0  0
 15 21  1  0  0  0  0
 15 11  1  0  0  0  0
 16 26  1  1  0  0  0
 16  7  1  0  0  0  0
 17  3  1  0  0  0  0
 18 12  2  0  0  0  0
 19 25  1  0  0  0  0
 20 19  2  0  0  0  0
 21 23  2  0  0  0  0
 22 20  1  0  0  0  0
 23 19  1  0  0  0  0
 24 22  2  0  0  0  0
 24 21  1  0  0  0  0
 27 26  1  0  0  0  0
 29 27  1  1  0  0  0
 29 30  1  0  0  0  0
 30 34  1  0  0  0  0
 30 28  1  1  0  0  0
 31 34  1  0  0  0  0
 32 31  1  0  0  0  0
 33 32  1  0  0  0  0
 33 29  1  0  0  0  0
M  END
>  <MODEL>
5

>  <REMARK>
 VINA RESULT:      -7.4      2.932      5.163
  Name = 
  4 active torsions:
  status: ('A' for Active; 'I' for Inactive)
    1  A    between atoms: N_3  and  C_13
    2  A    between atoms: N_3  and  N_17
    3  A    between atoms: C_12  and  N_28
    4  A    between atoms: N_17  and  C_29
                            x       y       z     vdW  Elec       q    Type
                         _______ _______ _______ _____ _____    ______ ____

>  <TORSDO>
F 4

$$$$
=
 OpenBabel11052418443D

 34 39  0  0  1  0  0  0  0  0999 V2000
  187.4760  177.8340  144.0250 C   0  0  0  0  0  0  0  0  0  0  0  0
  186.9470  177.5290  141.6720 C   0  0  0  0  0  0  0  0  0  0  0  0
  188.9080  176.3530  142.7270 C   0  0  0  0  0  0  0  0  0  0  0  0
  190.2160  174.4000  141.8360 C   0  0  1  0  0  3  0  0  0  0  0  0
  185.4400  178.7700  143.1130 C   0  0  0  0  0  3  0  0  0  0  0  0
  185.7740  178.2690  141.8570 C   0  0  0  0  0  3  0  0  0  0  0  0
  188.0190  174.7270  140.9480 C   0  0  0  0  0  2  0  0  0  0  0  0
  187.7660  177.2060  142.7840 C   0  0  0  0  0  0  0  0  0  0  0  0
  190.4530  173.6540  140.2110 S   0  0  0  0  0  0  0  0  0  0  0  0
  186.3030  178.5760  144.1880 C   0  0  0  0  0  3  0  0  0  0  0  0
  189.8680  176.4330  143.7640 C   0  0  0  0  0  0  0  0  0  0  0  0
  188.3490  177.7550  145.0580 N   0  0  0  0  0  0  0  0  0  0  0  0
  187.3160  177.2220  140.3710 O   0  0  0  0  0  1  0  0  0  0  0  0
  191.4510  175.1210  142.3330 C   0  0  0  0  0  2  0  0  0  0  0  0
  191.1460  175.7620  143.6140 N   0  0  0  0  0  0  0  0  0  0  0  0
  188.6440  173.7530  139.9490 C   0  0  2  0  0  3  0  0  0  0  0  0
  189.0920  175.3140  141.7310 N   0  0  0  0  0  0  0  0  0  0  0  0
  189.5330  177.1070  144.9430 C   0  0  0  0  0  3  0  0  0  0  0  0
  194.1290  176.9080  145.5910 C   0  0  0  0  0  0  0  0  0  0  0  0
  194.2750  175.8500  146.4910 C   0  0  0  0  0  3  0  0  0  0  0  0
  192.1940  175.8120  144.6020 C   0  0  0  0  0  0  0  0  0  0  0  0
  193.3900  174.7700  146.4470 C   0  0  0  0  0  3  0  0  0  0  0  0
  193.0970  176.8860  144.6490 C   0  0  0  0  0  3  0  0  0  0  0  0
  192.3590  174.7490  145.5040 C   0  0  0  0  0  3  0  0  0  0  0  0
  195.2410  178.2580  145.6380 Cl  0  0  0  0  0  0  0  0  0  0  0  0
  188.3210  174.1120  138.5690 N   0  0  0  0  0  2  0  0  0  0  0  0
  189.4790  173.9830  137.7820 N   0  0  0  0  0  2  0  0  0  0  0  0
  189.8060  175.2790  135.3020 C   0  0  0  0  0  1  0  0  0  0  0  0
  189.1210  173.1860  136.6160 C   0  0  1  0  0  3  0  0  0  0  0  0
  189.7530  173.7610  135.3310 C   0  0  2  0  0  3  0  0  0  0  0  0
  190.8260  171.9090  134.6230 C   0  0  0  0  0  2  0  0  0  0  0  0
  189.9430  171.0320  135.5350 C   0  0  0  0  0  2  0  0  0  0  0  0
  189.5910  171.7420  136.8430 C   0  0  0  0  0  2  0  0  0  0  0  0
  191.0280  173.2110  135.1320 O   0  0  0  0  0  0  0  0  0  0  0  0
  1 10  1  0  0  0  0
  1 12  1  0  0  0  0
  2  6  2  0  0  0  0
  2  8  1  0  0  0  0
  3  8  1  0  0  0  0
  3 11  2  0  0  0  0
  4 14  1  6  0  0  0
  5 10  2  0  0  0  0
  6  5  1  0  0  0  0
  7 17  1  0  0  0  0
  8  1  2  0  0  0  0
  9  4  1  0  0  0  0
 11 18  1  0  0  0  0
 13  2  1  0  0  0  0
 14 15  1  0  0  0  0
 15 11  1  0  0  0  0
 15 21  1  0  0  0  0
 16 26  1  6  0  0  0
 16  9  1  0  0  0  0
 16  7  1  0  0  0  0
 17  4  1  0  0  0  0
 17  3  1  0  0  0  0
 18 12  2  0  0  0  0
 19 25  1  0  0  0  0
 19 20  1  0  0  0  0
 21 23  1  0  0  0  0
 21 24  2  0  0  0  0
 22 20  2  0  0  0  0
 23 19  2  0  0  0  0
 24 22  1  0  0  0  0
 27 26  1  0  0  0  0
 29 33  1  0  0  0  0
 29 27  1  1  0  0  0
 30 28  1  1  0  0  0
 30 29  1  0  0  0  0
 31 34  1  0  0  0  0
 31 32  1  0  0  0  0
 32 33  1  0  0  0  0
 34 30  1  0  0  0  0
M  END
>  <MODEL>
6

>  <REMARK>
 VINA RESULT:      -7.2      3.840      7.646
  Name = 
  4 active torsions:
  status: ('A' for Active; 'I' for Inactive)
    1  A    between atoms: N_3  and  C_13
    2  A    between atoms: N_3  and  N_17
    3  A    between atoms: C_12  and  N_28
    4  A    between atoms: N_17  and  C_29
                            x       y       z     vdW  Elec       q    Type
                         _______ _______ _______ _____ _____    ______ ____

>  <TORSDO>
F 4

$$$$
=
 OpenBabel11052418443D

 34 39  0  0  1  0  0  0  0  0999 V2000
  192.8170  175.9460  145.8730 C   0  0  0  0  0  0  0  0  0  0  0  0
  193.3840  174.0070  144.5220 C   0  0  0  0  0  0  0  0  0  0  0  0
  191.2060  175.2290  144.1940 C   0  0  0  0  0  0  0  0  0  0  0  0
  189.6190  175.0860  142.2500 C   0  0  1  0  0  3  0  0  0  0  0  0
  195.0210  174.9620  146.0380 C   0  0  0  0  0  3  0  0  0  0  0  0
  194.6580  173.9980  145.0990 C   0  0  0  0  0  3  0  0  0  0  0  0
  191.8740  174.3940  141.8580 C   0  0  0  0  0  2  0  0  0  0  0  0
  192.4750  175.0540  144.8220 C   0  0  0  0  0  0  0  0  0  0  0  0
  189.3250  173.9020  140.9210 S   0  0  0  0  0  0  0  0  0  0  0  0
  194.0920  175.9170  146.4430 C   0  0  0  0  0  3  0  0  0  0  0  0
  190.2320  176.0240  144.8420 C   0  0  0  0  0  0  0  0  0  0  0  0
  191.9000  176.8150  146.3650 N   0  0  0  0  0  0  0  0  0  0  0  0
  193.0230  172.9180  143.7430 O   0  0  0  0  0  1  0  0  0  0  0  0
  188.5070  175.0990  143.2780 C   0  0  0  0  0  2  0  0  0  0  0  0
  188.8640  176.0240  144.3550 N   0  0  0  0  0  0  0  0  0  0  0  0
  191.1330  173.8260  140.6480 C   0  0  2  0  0  3  0  0  0  0  0  0
  190.8870  174.7390  142.8660 N   0  0  0  0  0  0  0  0  0  0  0  0
  190.6280  176.8470  145.9010 C   0  0  0  0  0  3  0  0  0  0  0  0
  186.2270  178.6360  144.9430 C   0  0  0  0  0  0  0  0  0  0  0  0
  185.7760  178.2780  146.2150 C   0  0  0  0  0  3  0  0  0  0  0  0
  187.8000  176.7790  144.9680 C   0  0  0  0  0  0  0  0  0  0  0  0
  186.3370  177.1790  146.8710 C   0  0  0  0  0  3  0  0  0  0  0  0
  187.2360  177.8930  144.3250 C   0  0  0  0  0  3  0  0  0  0  0  0
  187.3460  176.4360  146.2510 C   0  0  0  0  0  3  0  0  0  0  0  0
  185.5320  180.0180  144.1250 Cl  0  0  0  0  0  0  0  0  0  0  0  0
  191.5710  172.4670  140.3340 N   0  0  0  0  0  2  0  0  0  0  0  0
  190.4390  171.6470  140.1850 N   0  0  0  0  0  2  0  0  0  0  0  0
  189.7120  169.9570  138.0510 C   0  0  0  0  0  1  0  0  0  0  0  0
  190.8880  170.2660  140.3090 C   0  0  1  0  0  3  0  0  0  0  0  0
  190.8730  169.5490  138.9430 C   0  0  2  0  0  3  0  0  0  0  0  0
  193.0170  168.8540  138.8990 C   0  0  0  0  0  2  0  0  0  0  0  0
  193.1300  169.0630  140.4240 C   0  0  0  0  0  2  0  0  0  0  0  0
  192.3060  170.2610  140.8990 C   0  0  0  0  0  2  0  0  0  0  0  0
  192.0980  169.7340  138.2850 O   0  0  0  0  0  0  0  0  0  0  0  0
  1 12  1  0  0  0  0
  1 10  2  0  0  0  0
  2  8  2  0  0  0  0
  2  6  1  0  0  0  0
  3  8  1  0  0  0  0
  3 11  2  0  0  0  0
  4 17  1  0  0  0  0
  4 14  1  1  0  0  0
  5 10  1  0  0  0  0
  6  5  2  0  0  0  0
  7 17  1  0  0  0  0
  8  1  1  0  0  0  0
  9  4  1  0  0  0  0
 11 18  1  0  0  0  0
 13  2  1  0  0  0  0
 14 15  1  0  0  0  0
 15 11  1  0  0  0  0
 15 21  1  0  0  0  0
 16 26  1  1  0  0  0
 16  9  1  0  0  0  0
 16  7  1  0  0  0  0
 17  3  1  0  0  0  0
 18 12  2  0  0  0  0
 19 20  1  0  0  0  0
 20 22  2  0  0  0  0
 21 24  2  0  0  0  0
 23 19  2  0  0  0  0
 23 21  1  0  0  0  0
 24 22  1  0  0  0  0
 25 19  1  0  0  0  0
 27 26  1  0  0  0  0
 29 27  1  6  0  0  0
 29 33  1  0  0  0  0
 30 28  1  6  0  0  0
 30 29  1  0  0  0  0
 31 32  1  0  0  0  0
 32 33  1  0  0  0  0
 34 31  1  0  0  0  0
 34 30  1  0  0  0  0
M  END
>  <MODEL>
7

>  <REMARK>
 VINA RESULT:      -7.2      2.806      5.269
  Name = 
  4 active torsions:
  status: ('A' for Active; 'I' for Inactive)
    1  A    between atoms: N_3  and  C_13
    2  A    between atoms: N_3  and  N_17
    3  A    between atoms: C_12  and  N_28
    4  A    between atoms: N_17  and  C_29
                            x       y       z     vdW  Elec       q    Type
                         _______ _______ _______ _____ _____    ______ ____

>  <TORSDO>
F 4

$$$$
=
 OpenBabel11052418443D

 34 39  0  0  1  0  0  0  0  0999 V2000
  185.9980  177.4280  143.1120 C   0  0  0  0  0  0  0  0  0  0  0  0
  186.3710  177.2590  140.7160 C   0  0  0  0  0  0  0  0  0  0  0  0
  187.9180  176.1360  142.3560 C   0  0  0  0  0  0  0  0  0  0  0  0
  189.6180  174.3380  141.9130 C   0  0  1  0  0  3  0  0  0  0  0  0
  184.3500  178.2970  141.5680 C   0  0  0  0  0  3  0  0  0  0  0  0
  185.1520  177.9090  140.4970 C   0  0  0  0  0  3  0  0  0  0  0  0
  187.8640  174.5890  140.3060 C   0  0  0  0  0  2  0  0  0  0  0  0
  186.7640  176.9100  142.0340 C   0  0  0  0  0  0  0  0  0  0  0  0
  190.4820  173.7260  140.4520 S   0  0  0  0  0  0  0  0  0  0  0  0
  184.7860  178.0810  142.8730 C   0  0  0  0  0  3  0  0  0  0  0  0
  188.4340  176.2030  143.6720 C   0  0  0  0  0  0  0  0  0  0  0  0
  186.4480  177.3300  144.3870 N   0  0  0  0  0  0  0  0  0  0  0  0
  187.2050  177.0690  139.6240 O   0  0  0  0  0  1  0  0  0  0  0  0
  190.5290  175.0980  142.8540 C   0  0  0  0  0  2  0  0  0  0  0  0
  189.7330  175.6250  143.9650 N   0  0  0  0  0  0  0  0  0  0  0  0
  188.8840  173.7300  139.5590 C   0  0  2  0  0  3  0  0  0  0  0  0
  188.5330  175.1850  141.4490 N   0  0  0  0  0  0  0  0  0  0  0  0
  187.6450  176.7690  144.6790 C   0  0  0  0  0  3  0  0  0  0  0  0
  192.2350  176.2260  146.7040 C   0  0  0  0  0  0  0  0  0  0  0  0
  191.5650  175.6800  147.8010 C   0  0  0  0  0  3  0  0  0  0  0  0
  190.3510  175.6710  145.2660 C   0  0  0  0  0  0  0  0  0  0  0  0
  190.2950  175.1230  147.6360 C   0  0  0  0  0  3  0  0  0  0  0  0
  191.6330  176.2170  145.4430 C   0  0  0  0  0  3  0  0  0  0  0  0
  189.6940  175.1140  146.3750 C   0  0  0  0  0  3  0  0  0  0  0  0
  193.8300  176.9170  146.9060 Cl  0  0  0  0  0  0  0  0  0  0  0  0
  189.0460  174.1660  138.1730 N   0  0  0  0  0  2  0  0  0  0  0  0
  187.8170  174.6610  137.7040 N   0  0  0  0  0  2  0  0  0  0  0  0
  185.6760  176.0410  136.5010 C   0  0  0  0  0  1  0  0  0  0  0  0
  187.9730  174.9220  136.2790 C   0  0  1  0  0  3  0  0  0  0  0  0
  187.0310  176.0510  135.8120 C   0  0  2  0  0  3  0  0  0  0  0  0
  188.5670  177.4160  134.8860 C   0  0  0  0  0  2  0  0  0  0  0  0
  189.5790  176.2520  134.8170 C   0  0  0  0  0  2  0  0  0  0  0  0
  189.4360  175.3000  136.0060 C   0  0  0  0  0  2  0  0  0  0  0  0
  187.6580  177.2970  135.9600 O   0  0  0  0  0  0  0  0  0  0  0  0
  1 12  1  0  0  0  0
  2  8  1  0  0  0  0
  3 11  2  0  0  0  0
  4 14  1  1  0  0  0
  5 10  2  0  0  0  0
  6  2  2  0  0  0  0
  6  5  1  0  0  0  0
  7 17  1  0  0  0  0
  8  3  1  0  0  0  0
  8  1  2  0  0  0  0
  9  4  1  0  0  0  0
 10  1  1  0  0  0  0
 11 15  1  0  0  0  0
 11 18  1  0  0  0  0
 12 18  2  0  0  0  0
 13  2  1  0  0  0  0
 14 15  1  0  0  0  0
 15 21  1  0  0  0  0
 16 26  1  6  0  0  0
 16  7  1  0  0  0  0
 16  9  1  0  0  0  0
 17  4  1  0  0  0  0
 17  3  1  0  0  0  0
 19 25  1  0  0  0  0
 19 20  1  0  0  0  0
 21 23  1  0  0  0  0
 21 24  2  0  0  0  0
 22 20  2  0  0  0  0
 23 19  2  0  0  0  0
 24 22  1  0  0  0  0
 27 26  1  0  0  0  0
 29 27  1  1  0  0  0
 30 34  1  0  0  0  0
 30 29  1  0  0  0  0
 30 28  1  1  0  0  0
 31 34  1  0  0  0  0
 32 31  1  0  0  0  0
 32 33  1  0  0  0  0
 33 29  1  0  0  0  0
M  END
>  <MODEL>
8

>  <REMARK>
 VINA RESULT:      -7.2      4.328      7.835
  Name = 
  4 active torsions:
  status: ('A' for Active; 'I' for Inactive)
    1  A    between atoms: N_3  and  C_13
    2  A    between atoms: N_3  and  N_17
    3  A    between atoms: C_12  and  N_28
    4  A    between atoms: N_17  and  C_29
                            x       y       z     vdW  Elec       q    Type
                         _______ _______ _______ _____ _____    ______ ____

>  <TORSDO>
F 4

$$$$
=
 OpenBabel11052418443D

 34 39  0  0  1  0  0  0  0  0999 V2000
  193.0880  173.9740  144.6070 C   0  0  0  0  0  0  0  0  0  0  0  0
  191.9870  176.1290  144.8300 C   0  0  0  0  0  0  0  0  0  0  0  0
  191.2260  174.4520  143.1130 C   0  0  0  0  0  0  0  0  0  0  0  0
  189.0660  174.4110  141.8270 C   0  0  1  0  0  3  0  0  0  0  0  0
  193.6760  175.4470  146.4340 C   0  0  0  0  0  3  0  0  0  0  0  0
  192.7620  176.3890  145.9650 C   0  0  0  0  0  3  0  0  0  0  0  0
  189.0940  175.6770  143.8570 C   0  0  0  0  0  2  0  0  0  0  0  0
  192.0620  174.8640  144.1930 C   0  0  0  0  0  0  0  0  0  0  0  0
  187.7950  175.6250  141.4220 S   0  0  0  0  0  0  0  0  0  0  0  0
  193.8570  174.2540  145.7390 C   0  0  0  0  0  3  0  0  0  0  0  0
  191.6500  173.3740  142.3000 C   0  0  0  0  0  0  0  0  0  0  0  0
  193.3620  172.8580  143.8890 N   0  0  0  0  0  0  0  0  0  0  0  0
  191.2390  177.1740  144.3090 O   0  0  0  0  0  1  0  0  0  0  0  0
  189.8970  174.0110  140.6260 C   0  0  0  0  0  2  0  0  0  0  0  0
  190.9500  173.0900  141.0600 N   0  0  0  0  0  0  0  0  0  0  0  0
  187.8230  176.1740  143.1680 C   0  0  2  0  0  3  0  0  0  0  0  0
  189.9020  174.9910  142.8640 N   0  0  0  0  0  0  0  0  0  0  0  0
  192.6980  172.5640  142.7460 C   0  0  0  0  0  3  0  0  0  0  0  0
  191.1280  169.7390  139.3690 C   0  0  0  0  0  0  0  0  0  0  0  0
  192.1330  169.9690  138.4270 C   0  0  0  0  0  3  0  0  0  0  0  0
  191.3270  172.0340  140.1550 C   0  0  0  0  0  0  0  0  0  0  0  0
  192.7430  171.2240  138.3490 C   0  0  0  0  0  3  0  0  0  0  0  0
  190.7310  170.7650  140.2310 C   0  0  0  0  0  3  0  0  0  0  0  0
  192.3450  172.2490  139.2120 C   0  0  0  0  0  3  0  0  0  0  0  0
  190.3690  168.1660  139.4740 Cl  0  0  0  0  0  0  0  0  0  0  0  0
  187.6820  177.6250  143.2750 N   0  0  0  0  0  2  0  0  0  0  0  0
  187.5650  177.9720  144.6320 N   0  0  0  0  0  2  0  0  0  0  0  0
  187.4760  176.3620  146.9420 C   0  0  0  0  0  1  0  0  0  0  0  0
  186.2290  177.5830  145.0630 C   0  0  1  0  0  3  0  0  0  0  0  0
  186.2280  177.1290  146.5380 C   0  0  2  0  0  3  0  0  0  0  0  0
  184.6400  178.5240  147.3220 C   0  0  0  0  0  2  0  0  0  0  0  0
  184.1380  178.7830  145.8860 C   0  0  0  0  0  2  0  0  0  0  0  0
  185.2830  178.7780  144.8720 C   0  0  0  0  0  2  0  0  0  0  0  0
  186.0200  178.2290  147.3830 O   0  0  0  0  0  0  0  0  0  0  0  0
  1 10  2  0  0  0  0
  2  6  1  0  0  0  0
  3  8  1  0  0  0  0
  4 14  1  6  0  0  0
  4 17  1  0  0  0  0
  6  5  2  0  0  0  0
  8  1  1  0  0  0  0
  8  2  2  0  0  0  0
  9  4  1  0  0  0  0
  9 16  1  0  0  0  0
 10  5  1  0  0  0  0
 11 18  1  0  0  0  0
 11  3  2  0  0  0  0
 12  1  1  0  0  0  0
 13  2  1  0  0  0  0
 14 15  1  0  0  0  0
 15 11  1  0  0  0  0
 16 26  1  6  0  0  0
 16  7  1  0  0  0  0
 17  3  1  0  0  0  0
 17  7  1  0  0  0  0
 18 12  2  0  0  0  0
 19 25  1  0  0  0  0
 19 23  1  0  0  0  0
 20 19  2  0  0  0  0
 21 23  2  0  0  0  0
 21 15  1  0  0  0  0
 22 20  1  0  0  0  0
 22 24  2  0  0  0  0
 24 21  1  0  0  0  0
 26 27  1  0  0  0  0
 29 27  1  1  0  0  0
 29 30  1  0  0  0  0
 30 28  1  1  0  0  0
 30 34  1  0  0  0  0
 31 34  1  0  0  0  0
 32 31  1  0  0  0  0
 33 29  1  0  0  0  0
 33 32  1  0  0  0  0
M  END
>  <MODEL>
9

>  <REMARK>
 VINA RESULT:      -7.2      3.633      8.617
  Name = 
  4 active torsions:
  status: ('A' for Active; 'I' for Inactive)
    1  A    between atoms: N_3  and  C_13
    2  A    between atoms: N_3  and  N_17
    3  A    between atoms: C_12  and  N_28
    4  A    between atoms: N_17  and  C_29
                            x       y       z     vdW  Elec       q    Type
                         _______ _______ _______ _____ _____    ______ ____

>  <TORSDO>
F 4

$$$$
