=
 OpenBabel11052418253D

 27 31  0  0  0  0  0  0  0  0999 V2000
  188.4530  177.6970  143.0600 C   0  0  0  0  0  2  0  0  0  0  0  0
  188.6620  175.3790  142.2260 C   0  0  0  0  0  0  0  0  0  0  0  0
  187.3260  176.7090  140.5310 N   0  0  0  0  0  2  0  0  0  0  0  0
  189.4810  172.1030  139.2900 C   0  0  0  0  0  3  0  0  0  0  0  0
  188.5910  172.5800  137.0900 O   0  0  0  0  0  1  0  0  0  0  0  0
  189.2690  174.2060  142.2660 O   0  0  0  0  0  0  0  0  0  0  0  0
  188.2980  174.2010  138.8700 C   0  0  0  0  0  0  0  0  0  0  0  0
  184.1880  177.9100  141.5220 C   0  0  0  0  0  3  0  0  0  0  0  0
  187.6080  175.0590  138.0210 O   0  0  0  0  0  1  0  0  0  0  0  0
  183.9910  178.2720  142.7870 C   0  0  0  0  0  3  0  0  0  0  0  0
  188.5320  174.5380  140.2040 C   0  0  0  0  0  0  0  0  0  0  0  0
  188.5690  176.2710  143.3340 N   0  0  0  0  0  0  0  0  0  0  0  0
  188.7880  172.9640  138.4110 C   0  0  0  0  0  0  0  0  0  0  0  0
  189.1980  173.6920  141.0600 C   0  0  0  0  0  0  0  0  0  0  0  0
  187.0790  178.0390  142.5860 C   0  0  0  0  0  0  0  0  0  0  0  0
  188.1770  175.6360  140.9530 C   0  0  0  0  0  0  0  0  0  0  0  0
  185.4190  178.2860  140.7690 C   0  0  0  0  0  2  0  0  0  0  0  0
  189.6930  172.4620  140.6340 C   0  0  0  0  0  3  0  0  0  0  0  0
  184.9760  179.0010  143.6050 C   0  0  0  0  0  3  0  0  0  0  0  0
  186.3080  178.9070  143.5060 C   0  0  0  0  0  3  0  0  0  0  0  0
  186.6350  177.6580  141.3650 C   0  0  0  0  0  0  0  0  0  0  0  0
  189.5650  175.4000  147.3670 C   0  0  0  0  0  2  0  0  0  0  0  0
  188.8600  175.7910  144.6800 C   0  0  0  0  0  3  0  0  0  0  0  0
  187.8680  176.3620  145.6940 C   0  0  0  0  0  2  0  0  0  0  0  0
  188.1040  175.7830  147.0940 C   0  0  0  0  0  2  0  0  0  0  0  0
  190.5270  176.2760  146.5700 C   0  0  0  0  0  2  0  0  0  0  0  0
  190.3190  176.0940  145.0610 C   0  0  0  0  0  2  0  0  0  0  0  0
  1 12  1  0  0  0  0
  2  6  1  0  0  0  0
  2 12  1  0  0  0  0
  3 16  1  0  0  0  0
  3 21  1  0  0  0  0
  4 18  1  0  0  0  0
  5 13  1  0  0  0  0
  7 11  2  0  0  0  0
  8 10  2  0  0  0  0
  9  7  1  0  0  0  0
 10 19  1  0  0  0  0
 11 16  1  0  0  0  0
 11 14  1  0  0  0  0
 12 23  1  0  0  0  0
 13  7  1  0  0  0  0
 13  4  2  0  0  0  0
 14  6  1  0  0  0  0
 15  1  1  0  0  0  0
 15 20  1  0  0  0  0
 16  2  2  0  0  0  0
 17 21  1  0  0  0  0
 17  8  1  0  0  0  0
 18 14  2  0  0  0  0
 20 19  2  0  0  0  0
 21 15  2  0  0  0  0
 23 27  1  0  0  0  0
 23 24  1  0  0  0  0
 24 25  1  0  0  0  0
 25 22  1  0  0  0  0
 26 22  1  0  0  0  0
 27 26  1  0  0  0  0
M  END
>  <MODEL>
1

>  <REMARK>
 VINA RESULT:      -8.1      0.000      0.000
  Name = 
  1 active torsions:
  status: ('A' for Active; 'I' for Inactive)
    1  A    between atoms: C_9  and  N_15
                            x       y       z     vdW  Elec       q    Type
                         _______ _______ _______ _____ _____    ______ ____

>  <TORSDO>
F 1

$$$$
=
 OpenBabel11052418253D

 27 31  0  0  0  0  0  0  0  0999 V2000
  190.4040  177.8120  144.4950 C   0  0  0  0  0  2  0  0  0  0  0  0
  188.7580  177.3340  142.7130 C   0  0  0  0  0  0  0  0  0  0  0  0
  187.4900  177.7120  144.8750 N   0  0  0  0  0  2  0  0  0  0  0  0
  185.0710  177.8890  140.2360 C   0  0  0  0  0  3  0  0  0  0  0  0
  183.1340  178.4650  141.5680 O   0  0  0  0  0  1  0  0  0  0  0  0
  188.4640  177.2550  141.4270 O   0  0  0  0  0  0  0  0  0  0  0  0
  185.2700  178.1220  142.6620 C   0  0  0  0  0  0  0  0  0  0  0  0
  187.9610  175.3910  147.4570 C   0  0  0  0  0  3  0  0  0  0  0  0
  184.7110  178.3800  143.9090 O   0  0  0  0  0  1  0  0  0  0  0  0
  189.1450  174.8040  147.6060 C   0  0  0  0  0  3  0  0  0  0  0  0
  186.6260  177.8180  142.5270 C   0  0  0  0  0  0  0  0  0  0  0  0
  190.0630  177.1360  143.2500 N   0  0  0  0  0  0  0  0  0  0  0  0
  184.4880  178.1610  141.4930 C   0  0  0  0  0  0  0  0  0  0  0  0
  187.1890  177.5430  141.3030 C   0  0  0  0  0  0  0  0  0  0  0  0
  189.7510  177.1440  145.6600 C   0  0  0  0  0  0  0  0  0  0  0  0
  187.6360  177.6820  143.4500 C   0  0  0  0  0  0  0  0  0  0  0  0
  187.8250  176.8500  147.1840 C   0  0  0  0  0  2  0  0  0  0  0  0
  186.4390  177.5740  140.1290 C   0  0  0  0  0  3  0  0  0  0  0  0
  190.4390  175.4900  147.4430 C   0  0  0  0  0  3  0  0  0  0  0  0
  190.6920  176.5080  146.6110 C   0  0  0  0  0  3  0  0  0  0  0  0
  188.4140  177.2140  145.8610 C   0  0  0  0  0  0  0  0  0  0  0  0
  193.2510  175.0740  141.3520 C   0  0  0  0  0  2  0  0  0  0  0  0
  191.0960  176.5080  142.4350 C   0  0  0  0  0  3  0  0  0  0  0  0
  190.8820  174.9960  142.3460 C   0  0  0  0  0  2  0  0  0  0  0  0
  191.9040  174.3410  141.4080 C   0  0  0  0  0  2  0  0  0  0  0  0
  193.5490  175.7900  142.6670 C   0  0  0  0  0  2  0  0  0  0  0  0
  192.4960  176.8660  142.9610 C   0  0  0  0  0  2  0  0  0  0  0  0
  1 15  1  0  0  0  0
  2 12  1  0  0  0  0
  2 16  2  0  0  0  0
  3 21  1  0  0  0  0
  4 13  1  0  0  0  0
  6  2  1  0  0  0  0
  7  9  1  0  0  0  0
  8 10  2  0  0  0  0
 11  7  1  0  0  0  0
 11 16  1  0  0  0  0
 12  1  1  0  0  0  0
 13  5  1  0  0  0  0
 13  7  2  0  0  0  0
 14  6  1  0  0  0  0
 14 11  2  0  0  0  0
 15 21  2  0  0  0  0
 15 20  1  0  0  0  0
 16  3  1  0  0  0  0
 17  8  1  0  0  0  0
 18  4  2  0  0  0  0
 18 14  1  0  0  0  0
 19 10  1  0  0  0  0
 20 19  2  0  0  0  0
 21 17  1  0  0  0  0
 22 25  1  0  0  0  0
 22 26  1  0  0  0  0
 23 27  1  0  0  0  0
 23 12  1  0  0  0  0
 24 23  1  0  0  0  0
 25 24  1  0  0  0  0
 26 27  1  0  0  0  0
M  END
>  <MODEL>
2

>  <REMARK>
 VINA RESULT:      -7.8      2.638      5.713
  Name = 
  1 active torsions:
  status: ('A' for Active; 'I' for Inactive)
    1  A    between atoms: C_9  and  N_15
                            x       y       z     vdW  Elec       q    Type
                         _______ _______ _______ _____ _____    ______ ____

>  <TORSDO>
F 1

$$$$
=
 OpenBabel11052418253D

 27 31  0  0  0  0  0  0  0  0999 V2000
  189.3160  174.6060  146.2270 C   0  0  0  0  0  2  0  0  0  0  0  0
  189.0410  174.8950  143.7870 C   0  0  0  0  0  0  0  0  0  0  0  0
  191.3580  173.9590  144.2130 N   0  0  0  0  0  2  0  0  0  0  0  0
  189.1880  173.7910  139.4520 C   0  0  0  0  0  3  0  0  0  0  0  0
  191.2160  172.6080  138.8610 O   0  0  0  0  0  1  0  0  0  0  0  0
  188.2480  175.0620  142.7430 O   0  0  0  0  0  0  0  0  0  0  0  0
  190.8750  173.3120  141.1570 C   0  0  0  0  0  0  0  0  0  0  0  0
  193.6320  175.9840  145.9460 C   0  0  0  0  0  3  0  0  0  0  0  0
  192.0990  172.7740  141.5390 O   0  0  0  0  0  1  0  0  0  0  0  0
  193.1890  176.8140  146.8880 C   0  0  0  0  0  3  0  0  0  0  0  0
  190.0430  173.9440  142.0820 C   0  0  0  0  0  0  0  0  0  0  0  0
  188.7300  175.3300  145.1080 N   0  0  0  0  0  0  0  0  0  0  0  0
  190.4310  173.2330  139.8230 C   0  0  0  0  0  0  0  0  0  0  0  0
  188.8380  174.4960  141.7150 C   0  0  0  0  0  0  0  0  0  0  0  0
  190.7610  174.9480  146.3850 C   0  0  0  0  0  0  0  0  0  0  0  0
  190.1860  174.2010  143.4260 C   0  0  0  0  0  0  0  0  0  0  0  0
  193.1430  174.5810  145.8290 C   0  0  0  0  0  2  0  0  0  0  0  0
  188.3740  174.4340  140.4030 C   0  0  0  0  0  3  0  0  0  0  0  0
  192.1290  176.4820  147.8560 C   0  0  0  0  0  3  0  0  0  0  0  0
  191.0900  175.6660  147.6380 C   0  0  0  0  0  3  0  0  0  0  0  0
  191.6900  174.5360  145.4900 C   0  0  0  0  0  0  0  0  0  0  0  0
  185.9420  178.3920  146.0420 C   0  0  0  0  0  2  0  0  0  0  0  0
  187.6470  176.2830  145.3220 C   0  0  0  0  0  3  0  0  0  0  0  0
  187.9410  177.6140  144.6260 C   0  0  0  0  0  2  0  0  0  0  0  0
  186.7620  178.5870  144.7600 C   0  0  0  0  0  2  0  0  0  0  0  0
  186.8040  177.8440  147.1760 C   0  0  0  0  0  2  0  0  0  0  0  0
  187.3680  176.4620  146.8230 C   0  0  0  0  0  2  0  0  0  0  0  0
  1 15  1  0  0  0  0
  2 12  1  0  0  0  0
  3 21  1  0  0  0  0
  4 13  2  0  0  0  0
  4 18  1  0  0  0  0
  5 13  1  0  0  0  0
  6  2  1  0  0  0  0
  7  9  1  0  0  0  0
  7 11  2  0  0  0  0
  8 10  2  0  0  0  0
 10 19  1  0  0  0  0
 11 16  1  0  0  0  0
 12 23  1  0  0  0  0
 12  1  1  0  0  0  0
 13  7  1  0  0  0  0
 14 11  1  0  0  0  0
 14  6  1  0  0  0  0
 15 20  1  0  0  0  0
 16  2  2  0  0  0  0
 16  3  1  0  0  0  0
 17  8  1  0  0  0  0
 18 14  2  0  0  0  0
 20 19  2  0  0  0  0
 21 17  1  0  0  0  0
 21 15  2  0  0  0  0
 22 26  1  0  0  0  0
 23 27  1  0  0  0  0
 24 25  1  0  0  0  0
 24 23  1  0  0  0  0
 25 22  1  0  0  0  0
 27 26  1  0  0  0  0
M  END
>  <MODEL>
3

>  <REMARK>
 VINA RESULT:      -7.6      2.404      5.317
  Name = 
  1 active torsions:
  status: ('A' for Active; 'I' for Inactive)
    1  A    between atoms: C_9  and  N_15
                            x       y       z     vdW  Elec       q    Type
                         _______ _______ _______ _____ _____    ______ ____

>  <TORSDO>
F 1

$$$$
=
 OpenBabel11052418253D

 27 31  0  0  0  0  0  0  0  0999 V2000
  189.3090  176.6840  142.6610 C   0  0  0  0  0  2  0  0  0  0  0  0
  190.9150  176.4020  144.5200 C   0  0  0  0  0  0  0  0  0  0  0  0
  191.5900  174.8290  142.6490 N   0  0  0  0  0  2  0  0  0  0  0  0
  194.9050  176.0440  146.5140 C   0  0  0  0  0  3  0  0  0  0  0  0
  196.4530  174.6690  145.2600 O   0  0  0  0  0  1  0  0  0  0  0  0
  191.4570  176.8600  145.6340 O   0  0  0  0  0  0  0  0  0  0  0  0
  194.2180  175.0400  144.3930 C   0  0  0  0  0  0  0  0  0  0  0  0
  189.3940  172.2180  141.8540 C   0  0  0  0  0  3  0  0  0  0  0  0
  194.4840  174.2540  143.2770 O   0  0  0  0  0  1  0  0  0  0  0  0
  188.0820  172.4020  141.9740 C   0  0  0  0  0  3  0  0  0  0  0  0
  192.9760  175.6510  144.5670 C   0  0  0  0  0  0  0  0  0  0  0  0
  189.5900  176.7040  144.0900 N   0  0  0  0  0  0  0  0  0  0  0  0
  195.1950  175.2480  145.3850 C   0  0  0  0  0  0  0  0  0  0  0  0
  192.6930  176.4170  145.6730 C   0  0  0  0  0  0  0  0  0  0  0  0
  189.2240  175.2820  142.1540 C   0  0  0  0  0  0  0  0  0  0  0  0
  191.8260  175.6330  143.8120 C   0  0  0  0  0  0  0  0  0  0  0  0
  190.2880  173.2430  141.2450 C   0  0  0  0  0  2  0  0  0  0  0  0
  193.6400  176.6400  146.6710 C   0  0  0  0  0  3  0  0  0  0  0  0
  187.3790  173.6440  141.6040 C   0  0  0  0  0  3  0  0  0  0  0  0
  187.8810  174.8830  141.6710 C   0  0  0  0  0  3  0  0  0  0  0  0
  190.3200  174.4940  142.0600 C   0  0  0  0  0  0  0  0  0  0  0  0
  186.4200  178.1060  146.5410 C   0  0  0  0  0  2  0  0  0  0  0  0
  188.6360  177.2810  145.0300 C   0  0  0  0  0  3  0  0  0  0  0  0
  188.0440  176.2060  145.9420 C   0  0  0  0  0  2  0  0  0  0  0  0
  187.1170  176.8180  147.0010 C   0  0  0  0  0  2  0  0  0  0  0  0
  186.2080  178.1150  145.0300 C   0  0  0  0  0  2  0  0  0  0  0  0
  187.5480  178.0720  144.2840 C   0  0  0  0  0  2  0  0  0  0  0  0
  1 12  1  0  0  0  0
  2  6  1  0  0  0  0
  3 16  1  0  0  0  0
  4 18  1  0  0  0  0
  5 13  1  0  0  0  0
  6 14  1  0  0  0  0
  7 11  2  0  0  0  0
  7 13  1  0  0  0  0
  8 10  2  0  0  0  0
  9  7  1  0  0  0  0
 11 14  1  0  0  0  0
 12  2  1  0  0  0  0
 12 23  1  0  0  0  0
 13  4  2  0  0  0  0
 14 18  2  0  0  0  0
 15  1  1  0  0  0  0
 16  2  2  0  0  0  0
 16 11  1  0  0  0  0
 17  8  1  0  0  0  0
 17 21  1  0  0  0  0
 19 20  2  0  0  0  0
 19 10  1  0  0  0  0
 20 15  1  0  0  0  0
 21 15  2  0  0  0  0
 21  3  1  0  0  0  0
 22 25  1  0  0  0  0
 23 24  1  0  0  0  0
 24 25  1  0  0  0  0
 26 22  1  0  0  0  0
 27 23  1  0  0  0  0
 27 26  1  0  0  0  0
M  END
>  <MODEL>
4

>  <REMARK>
 VINA RESULT:      -7.5      3.360      6.147
  Name = 
  1 active torsions:
  status: ('A' for Active; 'I' for Inactive)
    1  A    between atoms: C_9  and  N_15
                            x       y       z     vdW  Elec       q    Type
                         _______ _______ _______ _____ _____    ______ ____

>  <TORSDO>
F 1

$$$$
=
 OpenBabel11052418253D

 27 31  0  0  0  0  0  0  0  0999 V2000
  190.4520  177.0370  142.9170 C   0  0  0  0  0  2  0  0  0  0  0  0
  190.8580  174.6570  142.3810 C   0  0  0  0  0  0  0  0  0  0  0  0
  188.6440  175.3310  141.3470 N   0  0  0  0  0  2  0  0  0  0  0  0
  191.1420  170.9840  139.8410 C   0  0  0  0  0  3  0  0  0  0  0  0
  189.3140  170.7990  138.2650 O   0  0  0  0  0  1  0  0  0  0  0  0
  191.6960  173.6400  142.2840 O   0  0  0  0  0  0  0  0  0  0  0  0
  189.4100  172.7090  139.7560 C   0  0  0  0  0  0  0  0  0  0  0  0
  186.0330  176.1900  143.5190 C   0  0  0  0  0  3  0  0  0  0  0  0
  188.2350  173.2270  139.2230 O   0  0  0  0  0  1  0  0  0  0  0  0
  186.3090  176.7910  144.6740 C   0  0  0  0  0  3  0  0  0  0  0  0
  190.0960  173.3720  140.7750 C   0  0  0  0  0  0  0  0  0  0  0  0
  191.0240  175.7480  143.2830 N   0  0  0  0  0  0  0  0  0  0  0  0
  189.9510  171.4980  139.2830 C   0  0  0  0  0  0  0  0  0  0  0  0
  191.2500  172.8630  141.3240 C   0  0  0  0  0  0  0  0  0  0  0  0
  188.9700  177.0310  143.0940 C   0  0  0  0  0  0  0  0  0  0  0  0
  189.8310  174.5360  141.4580 C   0  0  0  0  0  0  0  0  0  0  0  0
  186.6910  176.5840  142.2410 C   0  0  0  0  0  2  0  0  0  0  0  0
  191.8070  171.6670  140.8760 C   0  0  0  0  0  3  0  0  0  0  0  0
  187.3320  177.8380  144.8420 C   0  0  0  0  0  3  0  0  0  0  0  0
  188.4720  177.9450  144.1490 C   0  0  0  0  0  3  0  0  0  0  0  0
  188.1600  176.3170  142.2780 C   0  0  0  0  0  0  0  0  0  0  0  0
  193.7680  175.9900  146.5130 C   0  0  0  0  0  2  0  0  0  0  0  0
  191.9690  175.6400  144.3890 C   0  0  0  0  0  3  0  0  0  0  0  0
  191.3310  176.0910  145.7030 C   0  0  0  0  0  2  0  0  0  0  0  0
  192.2840  175.8830  146.8880 C   0  0  0  0  0  2  0  0  0  0  0  0
  193.9770  176.9310  145.3300 C   0  0  0  0  0  2  0  0  0  0  0  0
  193.2630  176.4090  144.0770 C   0  0  0  0  0  2  0  0  0  0  0  0
  1 15  1  0  0  0  0
  1 12  1  0  0  0  0
  2 12  1  0  0  0  0
  3 16  1  0  0  0  0
  3 21  1  0  0  0  0
  4 18  1  0  0  0  0
  5 13  1  0  0  0  0
  6  2  1  0  0  0  0
  7 11  2  0  0  0  0
  8 10  2  0  0  0  0
  9  7  1  0  0  0  0
 10 19  1  0  0  0  0
 11 14  1  0  0  0  0
 11 16  1  0  0  0  0
 12 23  1  0  0  0  0
 13  7  1  0  0  0  0
 13  4  2  0  0  0  0
 14  6  1  0  0  0  0
 15 20  1  0  0  0  0
 16  2  2  0  0  0  0
 17 21  1  0  0  0  0
 17  8  1  0  0  0  0
 18 14  2  0  0  0  0
 20 19  2  0  0  0  0
 21 15  2  0  0  0  0
 22 25  1  0  0  0  0
 23 24  1  0  0  0  0
 24 25  1  0  0  0  0
 26 22  1  0  0  0  0
 27 23  1  0  0  0  0
 27 26  1  0  0  0  0
M  END
>  <MODEL>
5

>  <REMARK>
 VINA RESULT:      -7.3      2.040      2.737
  Name = 
  1 active torsions:
  status: ('A' for Active; 'I' for Inactive)
    1  A    between atoms: C_9  and  N_15
                            x       y       z     vdW  Elec       q    Type
                         _______ _______ _______ _____ _____    ______ ____

>  <TORSDO>
F 1

$$$$
=
 OpenBabel11052418253D

 27 31  0  0  0  0  0  0  0  0999 V2000
  191.2830  177.0090  143.6810 C   0  0  0  0  0  2  0  0  0  0  0  0
  188.8550  176.7100  143.3160 C   0  0  0  0  0  0  0  0  0  0  0  0
  189.1920  177.6500  145.6460 N   0  0  0  0  0  2  0  0  0  0  0  0
  184.5150  177.7990  143.3000 C   0  0  0  0  0  3  0  0  0  0  0  0
  183.8450  178.9820  145.3020 O   0  0  0  0  0  1  0  0  0  0  0  0
  187.8430  176.5390  142.4840 O   0  0  0  0  0  0  0  0  0  0  0  0
  186.1540  178.2860  145.0480 C   0  0  0  0  0  0  0  0  0  0  0  0
  190.8470  175.6330  147.9840 C   0  0  0  0  0  3  0  0  0  0  0  0
  186.4880  178.8260  146.2850 O   0  0  0  0  0  1  0  0  0  0  0  0
  191.8070  174.8070  147.5780 C   0  0  0  0  0  3  0  0  0  0  0  0
  187.1110  177.6560  144.2520 C   0  0  0  0  0  0  0  0  0  0  0  0
  190.1890  176.2790  143.0540 N   0  0  0  0  0  0  0  0  0  0  0  0
  184.8370  178.3590  144.5550 C   0  0  0  0  0  0  0  0  0  0  0  0
  186.7910  177.1020  143.0350 C   0  0  0  0  0  0  0  0  0  0  0  0
  191.3880  176.6680  145.1310 C   0  0  0  0  0  0  0  0  0  0  0  0
  188.4500  177.4040  144.4450 C   0  0  0  0  0  0  0  0  0  0  0  0
  190.7430  177.0350  147.4900 C   0  0  0  0  0  2  0  0  0  0  0  0
  185.4970  177.1580  142.5220 C   0  0  0  0  0  3  0  0  0  0  0  0
  192.8120  175.1410  146.5540 C   0  0  0  0  0  3  0  0  0  0  0  0
  192.6310  175.9550  145.5070 C   0  0  0  0  0  3  0  0  0  0  0  0
  190.4580  177.0780  146.0250 C   0  0  0  0  0  0  0  0  0  0  0  0
  191.1990  173.1950  140.3170 C   0  0  0  0  0  2  0  0  0  0  0  0
  190.4470  175.3260  141.9810 C   0  0  0  0  0  3  0  0  0  0  0  0
  189.6520  174.0360  142.1900 C   0  0  0  0  0  2  0  0  0  0  0  0
  189.8370  173.0680  141.0140 C   0  0  0  0  0  2  0  0  0  0  0  0
  192.2780  173.6670  141.2870 C   0  0  0  0  0  2  0  0  0  0  0  0
  191.9550  175.0620  141.8370 C   0  0  0  0  0  2  0  0  0  0  0  0
  1 15  1  0  0  0  0
  2 16  2  0  0  0  0
  3 21  1  0  0  0  0
  4 13  1  0  0  0  0
  6 14  1  0  0  0  0
  6  2  1  0  0  0  0
  7  9  1  0  0  0  0
 10  8  2  0  0  0  0
 11 16  1  0  0  0  0
 11  7  1  0  0  0  0
 12  2  1  0  0  0  0
 12  1  1  0  0  0  0
 13  7  2  0  0  0  0
 13  5  1  0  0  0  0
 14 11  2  0  0  0  0
 15 20  1  0  0  0  0
 15 21  2  0  0  0  0
 16  3  1  0  0  0  0
 17  8  1  0  0  0  0
 18 14  1  0  0  0  0
 18  4  2  0  0  0  0
 19 10  1  0  0  0  0
 20 19  2  0  0  0  0
 21 17  1  0  0  0  0
 22 25  1  0  0  0  0
 22 26  1  0  0  0  0
 23 24  1  0  0  0  0
 23 12  1  0  0  0  0
 25 24  1  0  0  0  0
 26 27  1  0  0  0  0
 27 23  1  0  0  0  0
M  END
>  <MODEL>
6

>  <REMARK>
 VINA RESULT:      -7.3      2.673      6.781
  Name = 
  1 active torsions:
  status: ('A' for Active; 'I' for Inactive)
    1  A    between atoms: C_9  and  N_15
                            x       y       z     vdW  Elec       q    Type
                         _______ _______ _______ _____ _____    ______ ____

>  <TORSDO>
F 1

$$$$
=
 OpenBabel11052418253D

 27 31  0  0  0  0  0  0  0  0999 V2000
  192.8360  175.9730  144.4580 C   0  0  0  0  0  2  0  0  0  0  0  0
  192.3290  174.2180  142.7910 C   0  0  0  0  0  0  0  0  0  0  0  0
  190.1750  175.4440  143.3250 N   0  0  0  0  0  2  0  0  0  0  0  0
  190.6090  172.4310  139.0670 C   0  0  0  0  0  3  0  0  0  0  0  0
  188.3550  173.1950  138.6220 O   0  0  0  0  0  1  0  0  0  0  0  0
  192.7480  173.3670  141.8730 O   0  0  0  0  0  0  0  0  0  0  0  0
  189.5290  174.0230  140.5770 C   0  0  0  0  0  0  0  0  0  0  0  0
  188.9070  175.1540  146.5780 C   0  0  0  0  0  3  0  0  0  0  0  0
  188.4370  174.8010  140.9450 O   0  0  0  0  0  1  0  0  0  0  0  0
  189.7460  175.0400  147.6040 C   0  0  0  0  0  3  0  0  0  0  0  0
  190.6990  174.0140  141.3370 C   0  0  0  0  0  0  0  0  0  0  0  0
  193.1160  174.6590  143.8950 N   0  0  0  0  0  0  0  0  0  0  0  0
  189.4920  173.2190  139.4210 C   0  0  0  0  0  0  0  0  0  0  0  0
  191.7800  173.2360  140.9950 C   0  0  0  0  0  0  0  0  0  0  0  0
  191.5870  175.9470  145.2760 C   0  0  0  0  0  0  0  0  0  0  0  0
  191.0440  174.6540  142.5050 C   0  0  0  0  0  0  0  0  0  0  0  0
  189.1280  176.1300  145.4740 C   0  0  0  0  0  2  0  0  0  0  0  0
  191.7720  172.4310  139.8580 C   0  0  0  0  0  3  0  0  0  0  0  0
  191.0090  175.7880  147.7310 C   0  0  0  0  0  3  0  0  0  0  0  0
  191.7930  176.1890  146.7220 C   0  0  0  0  0  3  0  0  0  0  0  0
  190.3670  175.8120  144.7040 C   0  0  0  0  0  0  0  0  0  0  0  0
  196.5710  172.7530  145.4600 C   0  0  0  0  0  2  0  0  0  0  0  0
  194.3310  173.9370  144.2550 C   0  0  0  0  0  3  0  0  0  0  0  0
  194.0160  172.7580  145.1770 C   0  0  0  0  0  2  0  0  0  0  0  0
  195.2740  171.9330  145.4780 C   0  0  0  0  0  2  0  0  0  0  0  0
  196.3170  174.2040  145.8580 C   0  0  0  0  0  2  0  0  0  0  0  0
  195.3700  174.8910  144.8660 C   0  0  0  0  0  2  0  0  0  0  0  0
  1 15  1  0  0  0  0
  2 12  1  0  0  0  0
  3 21  1  0  0  0  0
  4 13  2  0  0  0  0
  4 18  1  0  0  0  0
  5 13  1  0  0  0  0
  6  2  1  0  0  0  0
  7  9  1  0  0  0  0
  7 11  2  0  0  0  0
  8 10  2  0  0  0  0
 10 19  1  0  0  0  0
 11 16  1  0  0  0  0
 12 23  1  0  0  0  0
 12  1  1  0  0  0  0
 13  7  1  0  0  0  0
 14 11  1  0  0  0  0
 14  6  1  0  0  0  0
 15 20  1  0  0  0  0
 16  2  2  0  0  0  0
 16  3  1  0  0  0  0
 17  8  1  0  0  0  0
 18 14  2  0  0  0  0
 20 19  2  0  0  0  0
 21 15  2  0  0  0  0
 21 17  1  0  0  0  0
 22 25  1  0  0  0  0
 22 26  1  0  0  0  0
 23 27  1  0  0  0  0
 23 24  1  0  0  0  0
 24 25  1  0  0  0  0
 27 26  1  0  0  0  0
M  END
>  <MODEL>
7

>  <REMARK>
 VINA RESULT:      -7.1      3.322      5.291
  Name = 
  1 active torsions:
  status: ('A' for Active; 'I' for Inactive)
    1  A    between atoms: C_9  and  N_15
                            x       y       z     vdW  Elec       q    Type
                         _______ _______ _______ _____ _____    ______ ____

>  <TORSDO>
F 1

$$$$
=
 OpenBabel11052418253D

 27 31  0  0  0  0  0  0  0  0999 V2000
  191.5800  174.7090  146.6700 C   0  0  0  0  0  2  0  0  0  0  0  0
  190.9910  173.4560  144.6220 C   0  0  0  0  0  0  0  0  0  0  0  0
  193.4440  173.0500  145.1160 N   0  0  0  0  0  2  0  0  0  0  0  0
  190.7810  169.9640  141.8310 C   0  0  0  0  0  3  0  0  0  0  0  0
  192.8640  168.7360  141.7180 O   0  0  0  0  0  1  0  0  0  0  0  0
  190.0680  172.9310  143.8350 O   0  0  0  0  0  0  0  0  0  0  0  0
  192.7010  170.6720  143.1710 C   0  0  0  0  0  0  0  0  0  0  0  0
  195.6170  175.7900  144.8980 C   0  0  0  0  0  3  0  0  0  0  0  0
  194.0200  170.5170  143.5810 O   0  0  0  0  0  1  0  0  0  0  0  0
  195.1810  177.0030  145.2260 C   0  0  0  0  0  3  0  0  0  0  0  0
  191.9050  171.7050  143.6690 C   0  0  0  0  0  0  0  0  0  0  0  0
  190.7790  174.5900  145.4600 N   0  0  0  0  0  0  0  0  0  0  0  0
  192.1210  169.7880  142.2410 C   0  0  0  0  0  0  0  0  0  0  0  0
  190.6040  171.8800  143.2590 C   0  0  0  0  0  0  0  0  0  0  0  0
  192.9750  175.1280  146.3460 C   0  0  0  0  0  0  0  0  0  0  0  0
  192.1670  172.7260  144.5520 C   0  0  0  0  0  0  0  0  0  0  0  0
  195.3050  174.5840  145.7180 C   0  0  0  0  0  2  0  0  0  0  0  0
  190.0050  171.0210  142.3390 C   0  0  0  0  0  3  0  0  0  0  0  0
  194.2910  177.2860  146.3660 C   0  0  0  0  0  3  0  0  0  0  0  0
  193.3500  176.4680  146.8540 C   0  0  0  0  0  3  0  0  0  0  0  0
  193.8410  174.2920  145.7260 C   0  0  0  0  0  0  0  0  0  0  0  0
  187.5460  177.3370  145.3090 C   0  0  0  0  0  2  0  0  0  0  0  0
  189.6120  175.4400  145.2500 C   0  0  0  0  0  3  0  0  0  0  0  0
  190.0300  176.8570  144.8550 C   0  0  0  0  0  2  0  0  0  0  0  0
  188.8100  177.7300  144.5330 C   0  0  0  0  0  2  0  0  0  0  0  0
  187.8930  176.7200  146.6610 C   0  0  0  0  0  2  0  0  0  0  0  0
  188.7000  175.4270  146.4870 C   0  0  0  0  0  2  0  0  0  0  0  0
  2 12  1  0  0  0  0
  3 21  1  0  0  0  0
  4 13  2  0  0  0  0
  4 18  1  0  0  0  0
  5 13  1  0  0  0  0
  6  2  1  0  0  0  0
  7  9  1  0  0  0  0
  7 11  2  0  0  0  0
  8 10  2  0  0  0  0
  8 17  1  0  0  0  0
 10 19  1  0  0  0  0
 11 16  1  0  0  0  0
 12  1  1  0  0  0  0
 13  7  1  0  0  0  0
 14 11  1  0  0  0  0
 14  6  1  0  0  0  0
 15  1  1  0  0  0  0
 15 20  1  0  0  0  0
 16  2  2  0  0  0  0
 16  3  1  0  0  0  0
 17 21  1  0  0  0  0
 18 14  2  0  0  0  0
 19 20  2  0  0  0  0
 21 15  2  0  0  0  0
 22 26  1  0  0  0  0
 23 12  1  0  0  0  0
 23 27  1  0  0  0  0
 24 23  1  0  0  0  0
 25 24  1  0  0  0  0
 25 22  1  0  0  0  0
 27 26  1  0  0  0  0
M  END
>  <MODEL>
8

>  <REMARK>
 VINA RESULT:      -7.1      3.807      6.739
  Name = 
  1 active torsions:
  status: ('A' for Active; 'I' for Inactive)
    1  A    between atoms: C_9  and  N_15
                            x       y       z     vdW  Elec       q    Type
                         _______ _______ _______ _____ _____    ______ ____

>  <TORSDO>
F 1

$$$$
=
 OpenBabel11052418253D

 27 31  0  0  0  0  0  0  0  0999 V2000
  190.8540  176.1020  142.7550 C   0  0  0  0  0  2  0  0  0  0  0  0
  188.6770  176.0290  143.9240 C   0  0  0  0  0  0  0  0  0  0  0  0
  190.4180  176.8890  145.5540 N   0  0  0  0  0  2  0  0  0  0  0  0
  185.3000  177.5020  146.4650 C   0  0  0  0  0  3  0  0  0  0  0  0
  186.0630  178.7000  148.4250 O   0  0  0  0  0  1  0  0  0  0  0  0
  187.3580  175.9660  143.8700 O   0  0  0  0  0  0  0  0  0  0  0  0
  187.6930  177.8060  146.8670 C   0  0  0  0  0  0  0  0  0  0  0  0
  192.9670  174.6860  146.5140 C   0  0  0  0  0  3  0  0  0  0  0  0
  188.7440  178.2890  147.6370 O   0  0  0  0  0  1  0  0  0  0  0  0
  193.4200  173.7850  145.6460 C   0  0  0  0  0  3  0  0  0  0  0  0
  187.9260  177.1090  145.6810 C   0  0  0  0  0  0  0  0  0  0  0  0
  189.5460  175.4870  142.9340 N   0  0  0  0  0  0  0  0  0  0  0  0
  186.3550  178.0060  147.2570 C   0  0  0  0  0  0  0  0  0  0  0  0
  186.8970  176.6100  144.9180 C   0  0  0  0  0  0  0  0  0  0  0  0
  191.7770  175.7250  143.8660 C   0  0  0  0  0  0  0  0  0  0  0  0
  189.0870  176.7340  145.0450 C   0  0  0  0  0  0  0  0  0  0  0  0
  192.7060  176.1010  146.1280 C   0  0  0  0  0  2  0  0  0  0  0  0
  185.5640  176.7920  145.2790 C   0  0  0  0  0  3  0  0  0  0  0  0
  193.6360  174.0480  144.2120 C   0  0  0  0  0  3  0  0  0  0  0  0
  192.9330  174.8960  143.4520 C   0  0  0  0  0  3  0  0  0  0  0  0
  191.6060  176.1980  145.1230 C   0  0  0  0  0  0  0  0  0  0  0  0
  188.3020  173.0290  139.7040 C   0  0  0  0  0  2  0  0  0  0  0  0
  189.0300  174.5350  141.9570 C   0  0  0  0  0  3  0  0  0  0  0  0
  190.1620  173.7090  141.3430 C   0  0  0  0  0  2  0  0  0  0  0  0
  189.6180  172.6370  140.3900 C   0  0  0  0  0  2  0  0  0  0  0  0
  188.1940  174.5410  139.5300 C   0  0  0  0  0  2  0  0  0  0  0  0
  188.1900  175.2550  140.8880 C   0  0  0  0  0  2  0  0  0  0  0  0
  1 12  1  0  0  0  0
  1 15  1  0  0  0  0
  2 16  2  0  0  0  0
  4 13  1  0  0  0  0
  6  2  1  0  0  0  0
  6 14  1  0  0  0  0
  7 13  2  0  0  0  0
  7  9  1  0  0  0  0
 10  8  2  0  0  0  0
 11  7  1  0  0  0  0
 12  2  1  0  0  0  0
 13  5  1  0  0  0  0
 14 18  1  0  0  0  0
 14 11  2  0  0  0  0
 15 21  2  0  0  0  0
 16  3  1  0  0  0  0
 16 11  1  0  0  0  0
 17  8  1  0  0  0  0
 18  4  2  0  0  0  0
 19 10  1  0  0  0  0
 20 15  1  0  0  0  0
 20 19  2  0  0  0  0
 21  3  1  0  0  0  0
 21 17  1  0  0  0  0
 22 25  1  0  0  0  0
 23 12  1  0  0  0  0
 24 23  1  0  0  0  0
 25 24  1  0  0  0  0
 26 22  1  0  0  0  0
 26 27  1  0  0  0  0
 27 23  1  0  0  0  0
M  END
>  <MODEL>
9

>  <REMARK>
 VINA RESULT:      -7.0      2.945      7.579
  Name = 
  1 active torsions:
  status: ('A' for Active; 'I' for Inactive)
    1  A    between atoms: C_9  and  N_15
                            x       y       z     vdW  Elec       q    Type
                         _______ _______ _______ _____ _____    ______ ____

>  <TORSDO>
F 1

$$$$
