=
 OpenBabel11052417463D

 31 35  0  0  1  0  0  0  0  0999 V2000
  191.1840  176.8980  148.0070 C   0  0  0  0  0  0  0  0  0  0  0  0
  188.5970  176.2940  145.2460 C   0  0  0  0  0  0  0  0  0  0  0  0
  187.3940  176.9680  145.6250 C   0  0  0  0  0  0  0  0  0  0  0  0
  185.9210  177.3610  147.6500 C   0  0  0  0  0  2  0  0  0  0  0  0
  189.7960  176.1560  146.1430 C   0  0  0  0  0  0  0  0  0  0  0  0
  192.1140  175.8960  147.7270 C   0  0  0  0  0  3  0  0  0  0  0  0
  187.2810  177.5750  147.0050 C   0  0  0  0  0  2  0  0  0  0  0  0
  189.9350  174.9700  143.5300 C   0  0  2  0  0  3  0  0  0  0  0  0
  191.4100  177.8250  149.1450 C   0  0  0  0  0  1  0  0  0  0  0  0
  186.4850  176.5490  143.4010 C   0  0  0  0  0  3  0  0  0  0  0  0
  184.9830  178.5200  147.3200 C   0  0  0  0  0  2  0  0  0  0  0  0
  190.5610  174.2320  144.7100 C   0  0  0  0  0  2  0  0  0  0  0  0
  188.6770  175.6960  143.9610 C   0  0  0  0  0  0  0  0  0  0  0  0
  190.0400  177.0290  147.2170 C   0  0  0  0  0  3  0  0  0  0  0  0
  185.0480  178.9380  145.8520 C   0  0  0  0  0  2  0  0  0  0  0  0
  190.7650  175.1690  145.8530 C   0  0  0  0  0  0  0  0  0  0  0  0
  191.9040  175.0330  146.6510 C   0  0  0  0  0  3  0  0  0  0  0  0
  187.6340  175.8600  143.0470 C   0  0  0  0  0  3  0  0  0  0  0  0
  186.3440  177.1080  144.6670 C   0  0  0  0  0  0  0  0  0  0  0  0
  184.9950  177.7210  144.9430 C   0  0  0  0  0  2  0  0  0  0  0  0
  191.6610  174.4110  141.3340 O   0  0  0  0  0  0  0  0  0  0  0  0
  190.5750  173.7730  141.3840 C   0  0  0  0  0  0  0  0  0  0  0  0
  189.6590  174.0200  142.4570 N   0  0  0  0  0  2  0  0  0  0  0  0
  189.6550  170.8140  138.4140 C   0  0  0  0  0  0  0  0  0  0  0  0
  190.8380  171.5080  140.4030 C   0  0  0  0  0  3  0  0  0  0  0  0
  188.7040  174.2850  139.1830 O   0  0  0  0  0  1  0  0  0  0  0  0
  189.3750  169.8690  137.4840 F   0  0  0  0  0  0  0  0  0  0  0  0
  190.5500  170.5330  139.4460 C   0  0  0  0  0  3  0  0  0  0  0  0
  189.3300  173.0490  139.2940 C   0  0  0  0  0  0  0  0  0  0  0  0
  190.2360  172.7750  140.3440 C   0  0  0  0  0  0  0  0  0  0  0  0
  189.0470  172.0670  138.3390 C   0  0  0  0  0  3  0  0  0  0  0  0
  1  9  1  0  0  0  0
  2  3  1  0  0  0  0
  2  5  1  0  0  0  0
  3  7  1  0  0  0  0
  5 14  1  0  0  0  0
  6  1  1  0  0  0  0
  7  4  1  0  0  0  0
  8 23  1  6  0  0  0
  8 13  1  0  0  0  0
  8 12  1  0  0  0  0
 10 19  1  0  0  0  0
 11  4  1  0  0  0  0
 12 16  1  0  0  0  0
 13  2  2  0  0  0  0
 14  1  2  0  0  0  0
 15 11  1  0  0  0  0
 16  5  2  0  0  0  0
 16 17  1  0  0  0  0
 17  6  2  0  0  0  0
 18 10  2  0  0  0  0
 18 13  1  0  0  0  0
 19 20  1  0  0  0  0
 19  3  2  0  0  0  0
 20 15  1  0  0  0  0
 21 22  2  0  0  0  0
 22 23  1  0  0  0  0
 24 28  1  0  0  0  0
 26 29  1  0  0  0  0
 27 24  1  0  0  0  0
 28 25  2  0  0  0  0
 29 30  2  0  0  0  0
 30 25  1  0  0  0  0
 30 22  1  0  0  0  0
 31 24  2  0  0  0  0
 31 29  1  0  0  0  0
M  END
>  <MODEL>
1

>  <REMARK>
 VINA RESULT:      -9.4      0.000      0.000
  Name = 
  2 active torsions:
  status: ('A' for Active; 'I' for Inactive)
    1  A    between atoms: C_9  and  C_22
    2  A    between atoms: C_15  and  N_23
                            x       y       z     vdW  Elec       q    Type
                         _______ _______ _______ _____ _____    ______ ____

>  <TORSDO>
F 2

$$$$
=
 OpenBabel11052417463D

 31 35  0  0  1  0  0  0  0  0999 V2000
  185.3240  177.8110  145.7820 C   0  0  0  0  0  0  0  0  0  0  0  0
  188.5050  176.0830  144.5280 C   0  0  0  0  0  0  0  0  0  0  0  0
  189.4640  176.1190  145.5880 C   0  0  0  0  0  0  0  0  0  0  0  0
  190.3800  177.6930  147.3510 C   0  0  0  0  0  2  0  0  0  0  0  0
  187.1840  176.8010  144.5700 C   0  0  0  0  0  0  0  0  0  0  0  0
  184.6630  178.0620  144.5790 C   0  0  0  0  0  3  0  0  0  0  0  0
  189.1730  176.9290  146.8310 C   0  0  0  0  0  2  0  0  0  0  0  0
  187.8140  175.2940  142.2060 C   0  0  2  0  0  3  0  0  0  0  0  0
  184.7030  178.2150  147.0700 C   0  0  0  0  0  1  0  0  0  0  0  0
  190.8850  174.5910  144.3240 C   0  0  0  0  0  3  0  0  0  0  0  0
  191.1520  176.8510  148.3650 C   0  0  0  0  0  2  0  0  0  0  0  0
  187.0880  176.6290  142.0600 C   0  0  0  0  0  2  0  0  0  0  0  0
  188.8050  175.3490  143.3500 C   0  0  0  0  0  0  0  0  0  0  0  0
  186.5700  177.1800  145.7760 C   0  0  0  0  0  3  0  0  0  0  0  0
  191.3300  175.4000  147.9190 C   0  0  0  0  0  2  0  0  0  0  0  0
  186.4860  177.0320  143.3640 C   0  0  0  0  0  0  0  0  0  0  0  0
  185.2430  177.6730  143.3720 C   0  0  0  0  0  3  0  0  0  0  0  0
  189.9750  174.5890  143.2790 C   0  0  0  0  0  3  0  0  0  0  0  0
  190.6530  175.3360  145.4760 C   0  0  0  0  0  0  0  0  0  0  0  0
  191.7860  175.3330  146.4710 C   0  0  0  0  0  2  0  0  0  0  0  0
  187.7810  172.7380  140.9510 O   0  0  0  0  0  0  0  0  0  0  0  0
  188.4090  173.6570  140.3590 C   0  0  0  0  0  0  0  0  0  0  0  0
  188.4730  174.9610  140.9470 N   0  0  0  0  0  2  0  0  0  0  0  0
  190.4280  172.8530  136.6570 C   0  0  0  0  0  0  0  0  0  0  0  0
  190.1850  172.5320  139.0400 C   0  0  0  0  0  3  0  0  0  0  0  0
  187.5760  174.8690  137.8190 O   0  0  0  0  0  1  0  0  0  0  0  0
  191.0760  172.5890  135.4970 F   0  0  0  0  0  0  0  0  0  0  0  0
  190.8530  172.2580  137.8450 C   0  0  0  0  0  3  0  0  0  0  0  0
  188.6600  173.9990  137.8560 C   0  0  0  0  0  0  0  0  0  0  0  0
  189.0830  173.4020  139.0660 C   0  0  0  0  0  0  0  0  0  0  0  0
  189.3350  173.7200  136.6640 C   0  0  0  0  0  3  0  0  0  0  0  0
  1  9  1  0  0  0  0
  2  5  1  0  0  0  0
  2  3  1  0  0  0  0
  3  7  1  0  0  0  0
  4 11  1  0  0  0  0
  5 14  2  0  0  0  0
  6  1  2  0  0  0  0
  7  4  1  0  0  0  0
  8 23  1  6  0  0  0
  8 13  1  0  0  0  0
 10 19  1  0  0  0  0
 12  8  1  0  0  0  0
 12 16  1  0  0  0  0
 13  2  2  0  0  0  0
 14  1  1  0  0  0  0
 15 11  1  0  0  0  0
 16 17  2  0  0  0  0
 16  5  1  0  0  0  0
 17  6  1  0  0  0  0
 18 13  1  0  0  0  0
 18 10  2  0  0  0  0
 19  3  2  0  0  0  0
 19 20  1  0  0  0  0
 20 15  1  0  0  0  0
 22 23  1  0  0  0  0
 22 21  2  0  0  0  0
 24 31  2  0  0  0  0
 24 28  1  0  0  0  0
 25 30  1  0  0  0  0
 26 29  1  0  0  0  0
 27 24  1  0  0  0  0
 28 25  2  0  0  0  0
 29 30  2  0  0  0  0
 30 22  1  0  0  0  0
 31 29  1  0  0  0  0
M  END
>  <MODEL>
2

>  <REMARK>
 VINA RESULT:      -8.8      1.559      4.458
  Name = 
  2 active torsions:
  status: ('A' for Active; 'I' for Inactive)
    1  A    between atoms: C_9  and  C_22
    2  A    between atoms: C_15  and  N_23
                            x       y       z     vdW  Elec       q    Type
                         _______ _______ _______ _____ _____    ______ ____

>  <TORSDO>
F 2

$$$$
=
 OpenBabel11052417463D

 31 35  0  0  1  0  0  0  0  0999 V2000
  184.7920  177.8500  141.3140 C   0  0  0  0  0  0  0  0  0  0  0  0
  187.4770  177.5660  144.0330 C   0  0  0  0  0  0  0  0  0  0  0  0
  186.8420  177.7980  145.2940 C   0  0  0  0  0  0  0  0  0  0  0  0
  185.1500  179.3390  146.3830 C   0  0  0  0  0  2  0  0  0  0  0  0
  186.7930  177.7500  142.7060 C   0  0  0  0  0  0  0  0  0  0  0  0
  185.5810  178.0100  140.1740 C   0  0  0  0  0  3  0  0  0  0  0  0
  185.4070  178.2720  145.3310 C   0  0  0  0  0  2  0  0  0  0  0  0
  189.5400  176.9080  142.6910 C   0  0  2  0  0  3  0  0  0  0  0  0
  183.3110  177.8240  141.1970 C   0  0  0  0  0  1  0  0  0  0  0  0
  188.8770  177.0700  146.4250 C   0  0  0  0  0  3  0  0  0  0  0  0
  184.7280  178.7000  147.7040 C   0  0  0  0  0  2  0  0  0  0  0  0
  189.0650  177.9010  141.6320 C   0  0  0  0  0  2  0  0  0  0  0  0
  188.8360  177.1570  144.0090 C   0  0  0  0  0  0  0  0  0  0  0  0
  185.3950  177.7150  142.5670 C   0  0  0  0  0  3  0  0  0  0  0  0
  185.5770  177.4840  148.0740 C   0  0  0  0  0  2  0  0  0  0  0  0
  187.5760  177.8790  141.5380 C   0  0  0  0  0  0  0  0  0  0  0  0
  186.9710  178.0240  140.2860 C   0  0  0  0  0  3  0  0  0  0  0  0
  189.5050  176.8850  145.2040 C   0  0  0  0  0  3  0  0  0  0  0  0
  187.5610  177.5170  146.4950 C   0  0  0  0  0  0  0  0  0  0  0  0
  187.0560  177.7850  147.8910 C   0  0  0  0  0  2  0  0  0  0  0  0
  191.3780  174.7460  142.4500 O   0  0  0  0  0  0  0  0  0  0  0  0
  191.8630  175.8850  142.6890 C   0  0  0  0  0  0  0  0  0  0  0  0
  190.9890  177.0100  142.8340 N   0  0  0  0  0  2  0  0  0  0  0  0
  196.1120  176.4240  142.9780 C   0  0  0  0  0  0  0  0  0  0  0  0
  194.1050  176.1610  141.6580 C   0  0  0  0  0  3  0  0  0  0  0  0
  193.2510  176.0760  145.2670 O   0  0  0  0  0  1  0  0  0  0  0  0
  197.4540  176.5940  143.0530 F   0  0  0  0  0  0  0  0  0  0  0  0
  195.4880  176.3370  141.7340 C   0  0  0  0  0  3  0  0  0  0  0  0
  193.9680  176.1610  144.0800 C   0  0  0  0  0  0  0  0  0  0  0  0
  193.3260  176.0710  142.8240 C   0  0  0  0  0  0  0  0  0  0  0  0
  195.3540  176.3360  144.1460 C   0  0  0  0  0  3  0  0  0  0  0  0
  1 14  1  0  0  0  0
  2  3  1  0  0  0  0
  3  7  1  0  0  0  0
  3 19  2  0  0  0  0
  4 11  1  0  0  0  0
  5  2  1  0  0  0  0
  6 17  1  0  0  0  0
  6  1  2  0  0  0  0
  7  4  1  0  0  0  0
  8 23  1  1  0  0  0
  8 13  1  0  0  0  0
  9  1  1  0  0  0  0
 10 19  1  0  0  0  0
 11 15  1  0  0  0  0
 12  8  1  0  0  0  0
 13  2  2  0  0  0  0
 13 18  1  0  0  0  0
 14  5  2  0  0  0  0
 16 12  1  0  0  0  0
 16  5  1  0  0  0  0
 17 16  2  0  0  0  0
 18 10  2  0  0  0  0
 19 20  1  0  0  0  0
 20 15  1  0  0  0  0
 21 22  2  0  0  0  0
 22 30  1  0  0  0  0
 22 23  1  0  0  0  0
 24 27  1  0  0  0  0
 24 31  1  0  0  0  0
 25 28  1  0  0  0  0
 25 30  2  0  0  0  0
 28 24  2  0  0  0  0
 29 31  2  0  0  0  0
 29 26  1  0  0  0  0
 30 29  1  0  0  0  0
M  END
>  <MODEL>
3

>  <REMARK>
 VINA RESULT:      -8.3      3.861      6.177
  Name = 
  2 active torsions:
  status: ('A' for Active; 'I' for Inactive)
    1  A    between atoms: C_9  and  C_22
    2  A    between atoms: C_15  and  N_23
                            x       y       z     vdW  Elec       q    Type
                         _______ _______ _______ _____ _____    ______ ____

>  <TORSDO>
F 2

$$$$
=
 OpenBabel11052417463D

 31 35  0  0  1  0  0  0  0  0999 V2000
  195.2530  174.4150  145.7650 C   0  0  0  0  0  0  0  0  0  0  0  0
  191.8280  173.4580  144.3380 C   0  0  0  0  0  0  0  0  0  0  0  0
  192.0070  172.2940  143.5280 C   0  0  0  0  0  0  0  0  0  0  0  0
  193.5870  171.3360  141.7930 C   0  0  0  0  0  2  0  0  0  0  0  0
  192.9630  174.2390  144.9440 C   0  0  0  0  0  0  0  0  0  0  0  0
  195.0180  175.7300  146.1680 C   0  0  0  0  0  3  0  0  0  0  0  0
  193.4040  171.7990  143.2290 C   0  0  0  0  0  2  0  0  0  0  0  0
  190.2880  175.1690  145.4310 C   0  0  2  0  0  3  0  0  0  0  0  0
  196.5890  173.8010  145.9740 C   0  0  0  0  0  1  0  0  0  0  0  0
  189.5840  172.0590  143.3720 C   0  0  0  0  0  3  0  0  0  0  0  0
  193.2850  169.8440  141.6680 C   0  0  0  0  0  2  0  0  0  0  0  0
  191.3960  176.1930  145.1950 C   0  0  0  0  0  2  0  0  0  0  0  0
  190.5130  173.9350  144.5820 C   0  0  0  0  0  0  0  0  0  0  0  0
  194.2320  173.6760  145.1650 C   0  0  0  0  0  3  0  0  0  0  0  0
  192.0250  169.4270  142.4250 C   0  0  0  0  0  2  0  0  0  0  0  0
  192.7330  175.5590  145.3890 C   0  0  0  0  0  0  0  0  0  0  0  0
  193.7590  176.3010  145.9800 C   0  0  0  0  0  3  0  0  0  0  0  0
  189.4110  173.2110  144.1220 C   0  0  0  0  0  3  0  0  0  0  0  0
  190.8560  171.5840  143.0680 C   0  0  0  0  0  0  0  0  0  0  0  0
  190.8850  170.3920  142.1450 C   0  0  0  0  0  2  0  0  0  0  0  0
  189.0330  177.1800  147.0100 O   0  0  0  0  0  0  0  0  0  0  0  0
  188.4210  176.7990  145.9750 C   0  0  0  0  0  0  0  0  0  0  0  0
  188.9950  175.7810  145.1480 N   0  0  0  0  0  2  0  0  0  0  0  0
  184.6720  178.5490  144.8280 C   0  0  0  0  0  0  0  0  0  0  0  0
  186.9970  178.0610  144.3810 C   0  0  0  0  0  3  0  0  0  0  0  0
  186.0350  176.6600  147.6780 O   0  0  0  0  0  1  0  0  0  0  0  0
  183.4960  179.1060  144.4520 F   0  0  0  0  0  0  0  0  0  0  0  0
  185.7850  178.6350  143.9910 C   0  0  0  0  0  3  0  0  0  0  0  0
  185.9800  177.3090  146.4500 C   0  0  0  0  0  0  0  0  0  0  0  0
  187.1140  177.3920  145.6100 C   0  0  0  0  0  0  0  0  0  0  0  0
  184.7700  177.8870  146.0530 C   0  0  0  0  0  3  0  0  0  0  0  0
  1  9  1  0  0  0  0
  1  6  1  0  0  0  0
  2 13  1  0  0  0  0
  2  5  1  0  0  0  0
  3  2  2  0  0  0  0
  4  7  1  0  0  0  0
  5 14  1  0  0  0  0
  5 16  2  0  0  0  0
  7  3  1  0  0  0  0
  8 23  1  6  0  0  0
 10 18  1  0  0  0  0
 11  4  1  0  0  0  0
 11 15  1  0  0  0  0
 12 16  1  0  0  0  0
 12  8  1  0  0  0  0
 13  8  1  0  0  0  0
 14  1  2  0  0  0  0
 16 17  1  0  0  0  0
 17  6  2  0  0  0  0
 18 13  2  0  0  0  0
 19 10  2  0  0  0  0
 19  3  1  0  0  0  0
 20 15  1  0  0  0  0
 20 19  1  0  0  0  0
 22 21  2  0  0  0  0
 23 22  1  0  0  0  0
 24 31  1  0  0  0  0
 25 30  2  0  0  0  0
 27 24  1  0  0  0  0
 28 25  1  0  0  0  0
 28 24  2  0  0  0  0
 29 26  1  0  0  0  0
 30 22  1  0  0  0  0
 30 29  1  0  0  0  0
 31 29  2  0  0  0  0
M  END
>  <MODEL>
4

>  <REMARK>
 VINA RESULT:      -8.2      3.844      7.765
  Name = 
  2 active torsions:
  status: ('A' for Active; 'I' for Inactive)
    1  A    between atoms: C_9  and  C_22
    2  A    between atoms: C_15  and  N_23
                            x       y       z     vdW  Elec       q    Type
                         _______ _______ _______ _____ _____    ______ ____

>  <TORSDO>
F 2

$$$$
=
 OpenBabel11052417463D

 31 35  0  0  1  0  0  0  0  0999 V2000
  195.2600  174.7210  145.3070 C   0  0  0  0  0  0  0  0  0  0  0  0
  191.9680  174.7870  143.3490 C   0  0  0  0  0  0  0  0  0  0  0  0
  192.2270  174.2530  142.0470 C   0  0  0  0  0  0  0  0  0  0  0  0
  193.9480  174.3670  140.1890 C   0  0  0  0  0  2  0  0  0  0  0  0
  193.0400  175.0800  144.3620 C   0  0  0  0  0  0  0  0  0  0  0  0
  194.9710  175.6050  146.3470 C   0  0  0  0  0  3  0  0  0  0  0  0
  193.6520  173.9710  141.6270 C   0  0  0  0  0  2  0  0  0  0  0  0
  190.3200  175.6540  145.0870 C   0  0  2  0  0  3  0  0  0  0  0  0
  196.5890  174.0610  145.2390 C   0  0  0  0  0  1  0  0  0  0  0  0
  189.8270  174.2020  141.6150 C   0  0  0  0  0  3  0  0  0  0  0  0
  193.6850  173.1960  139.2450 C   0  0  0  0  0  2  0  0  0  0  0  0
  191.4220  176.6130  145.5310 C   0  0  0  0  0  2  0  0  0  0  0  0
  190.6300  175.0830  143.7190 C   0  0  0  0  0  0  0  0  0  0  0  0
  194.3000  174.4570  144.3280 C   0  0  0  0  0  3  0  0  0  0  0  0
  192.3810  172.4620  139.5570 C   0  0  0  0  0  2  0  0  0  0  0  0
  192.7530  175.9450  145.4410 C   0  0  0  0  0  0  0  0  0  0  0  0
  193.7190  176.2150  146.4140 C   0  0  0  0  0  3  0  0  0  0  0  0
  189.5780  174.7570  142.8590 C   0  0  0  0  0  3  0  0  0  0  0  0
  191.1270  173.9400  141.1920 C   0  0  0  0  0  0  0  0  0  0  0  0
  191.2460  173.4490  139.7720 C   0  0  0  0  0  2  0  0  0  0  0  0
  188.2920  175.3620  147.0650 O   0  0  0  0  0  0  0  0  0  0  0  0
  188.0630  176.1720  146.1270 C   0  0  0  0  0  0  0  0  0  0  0  0
  189.0390  176.3530  145.0950 N   0  0  0  0  0  2  0  0  0  0  0  0
  184.3990  178.4090  146.0880 C   0  0  0  0  0  0  0  0  0  0  0  0
  186.3610  177.5940  147.2410 C   0  0  0  0  0  3  0  0  0  0  0  0
  186.3830  176.3940  143.7320 O   0  0  0  0  0  1  0  0  0  0  0  0
  183.2460  179.1190  146.0920 F   0  0  0  0  0  0  0  0  0  0  0  0
  185.1720  178.3270  147.2470 C   0  0  0  0  0  3  0  0  0  0  0  0
  186.0050  177.0260  144.9110 C   0  0  0  0  0  0  0  0  0  0  0  0
  186.7950  176.9350  146.0800 C   0  0  0  0  0  0  0  0  0  0  0  0
  184.8150  177.7610  144.9250 C   0  0  0  0  0  3  0  0  0  0  0  0
  1  6  1  0  0  0  0
  2 13  1  0  0  0  0
  2  5  1  0  0  0  0
  3  2  2  0  0  0  0
  4  7  1  0  0  0  0
  5 16  2  0  0  0  0
  6 17  2  0  0  0  0
  7  3  1  0  0  0  0
  8 23  1  6  0  0  0
  8 12  1  0  0  0  0
  9  1  1  0  0  0  0
 10 18  1  0  0  0  0
 11 15  1  0  0  0  0
 11  4  1  0  0  0  0
 13  8  1  0  0  0  0
 14  5  1  0  0  0  0
 14  1  2  0  0  0  0
 15 20  1  0  0  0  0
 16 12  1  0  0  0  0
 16 17  1  0  0  0  0
 18 13  2  0  0  0  0
 19 10  2  0  0  0  0
 19  3  1  0  0  0  0
 20 19  1  0  0  0  0
 22 21  2  0  0  0  0
 23 22  1  0  0  0  0
 24 27  1  0  0  0  0
 24 28  1  0  0  0  0
 25 28  2  0  0  0  0
 26 29  1  0  0  0  0
 29 31  1  0  0  0  0
 29 30  2  0  0  0  0
 30 22  1  0  0  0  0
 30 25  1  0  0  0  0
 31 24  2  0  0  0  0
M  END
>  <MODEL>
5

>  <REMARK>
 VINA RESULT:      -8.2      3.665      7.685
  Name = 
  2 active torsions:
  status: ('A' for Active; 'I' for Inactive)
    1  A    between atoms: C_9  and  C_22
    2  A    between atoms: C_15  and  N_23
                            x       y       z     vdW  Elec       q    Type
                         _______ _______ _______ _____ _____    ______ ____

>  <TORSDO>
F 2

$$$$
=
 OpenBabel11052417463D

 31 35  0  0  1  0  0  0  0  0999 V2000
  183.4600  178.2900  141.6950 C   0  0  0  0  0  0  0  0  0  0  0  0
  186.5560  177.0540  143.5840 C   0  0  0  0  0  0  0  0  0  0  0  0
  186.4080  177.4360  144.9540 C   0  0  0  0  0  0  0  0  0  0  0  0
  185.6770  179.4050  146.3730 C   0  0  0  0  0  2  0  0  0  0  0  0
  185.6270  177.4970  142.4870 C   0  0  0  0  0  0  0  0  0  0  0  0
  183.9080  178.2240  140.3750 C   0  0  0  0  0  3  0  0  0  0  0  0
  185.2720  178.3490  145.3560 C   0  0  0  0  0  2  0  0  0  0  0  0
  187.8380  175.8080  141.7680 C   0  0  2  0  0  3  0  0  0  0  0  0
  182.0790  178.7510  141.9900 C   0  0  0  0  0  1  0  0  0  0  0  0
  188.3300  176.0470  145.5250 C   0  0  0  0  0  3  0  0  0  0  0  0
  185.4570  178.8930  147.7940 C   0  0  0  0  0  2  0  0  0  0  0  0
  187.4320  176.9370  140.8240 C   0  0  0  0  0  2  0  0  0  0  0  0
  187.6480  176.2270  143.2120 C   0  0  0  0  0  0  0  0  0  0  0  0
  184.3120  177.9230  142.7390 C   0  0  0  0  0  3  0  0  0  0  0  0
  185.9380  177.4550  147.9890 C   0  0  0  0  0  2  0  0  0  0  0  0
  186.0510  177.4040  141.1430 C   0  0  0  0  0  0  0  0  0  0  0  0
  185.2010  177.7810  140.1000 C   0  0  0  0  0  3  0  0  0  0  0  0
  188.4990  175.7100  144.1910 C   0  0  0  0  0  3  0  0  0  0  0  0
  187.3030  176.8950  145.9270 C   0  0  0  0  0  0  0  0  0  0  0  0
  187.3210  177.2640  147.3890 C   0  0  0  0  0  2  0  0  0  0  0  0
  188.7610  173.1520  141.3150 O   0  0  0  0  0  0  0  0  0  0  0  0
  189.6210  174.0730  141.2690 C   0  0  0  0  0  0  0  0  0  0  0  0
  189.2210  175.4270  141.5020 N   0  0  0  0  0  2  0  0  0  0  0  0
  193.7600  173.2010  140.5310 C   0  0  0  0  0  0  0  0  0  0  0  0
  191.9710  173.8250  142.0320 C   0  0  0  0  0  3  0  0  0  0  0  0
  190.6240  173.3440  138.6090 O   0  0  0  0  0  1  0  0  0  0  0  0
  195.0690  172.9290  140.3150 F   0  0  0  0  0  0  0  0  0  0  0  0
  193.3200  173.5440  141.8100 C   0  0  0  0  0  3  0  0  0  0  0  0
  191.4970  173.4170  139.6890 C   0  0  0  0  0  0  0  0  0  0  0  0
  191.0410  173.7660  140.9800 C   0  0  0  0  0  0  0  0  0  0  0  0
  192.8500  173.1380  139.4750 C   0  0  0  0  0  3  0  0  0  0  0  0
  1  9  1  0  0  0  0
  1 14  1  0  0  0  0
  2  3  1  0  0  0  0
  3  7  1  0  0  0  0
  3 19  2  0  0  0  0
  4 11  1  0  0  0  0
  5 14  2  0  0  0  0
  5  2  1  0  0  0  0
  6  1  2  0  0  0  0
  7  4  1  0  0  0  0
  8 23  1  1  0  0  0
  8 13  1  0  0  0  0
 10 19  1  0  0  0  0
 11 15  1  0  0  0  0
 12 16  1  0  0  0  0
 12  8  1  0  0  0  0
 13  2  2  0  0  0  0
 13 18  1  0  0  0  0
 16  5  1  0  0  0  0
 17  6  1  0  0  0  0
 17 16  2  0  0  0  0
 18 10  2  0  0  0  0
 19 20  1  0  0  0  0
 20 15  1  0  0  0  0
 22 21  2  0  0  0  0
 22 23  1  0  0  0  0
 24 28  1  0  0  0  0
 26 29  1  0  0  0  0
 27 24  1  0  0  0  0
 28 25  2  0  0  0  0
 29 30  2  0  0  0  0
 30 22  1  0  0  0  0
 30 25  1  0  0  0  0
 31 29  1  0  0  0  0
 31 24  2  0  0  0  0
M  END
>  <MODEL>
6

>  <REMARK>
 VINA RESULT:      -8.2      2.595      5.227
  Name = 
  2 active torsions:
  status: ('A' for Active; 'I' for Inactive)
    1  A    between atoms: C_9  and  C_22
    2  A    between atoms: C_15  and  N_23
                            x       y       z     vdW  Elec       q    Type
                         _______ _______ _______ _____ _____    ______ ____

>  <TORSDO>
F 2

$$$$
=
 OpenBabel11052417463D

 31 35  0  0  1  0  0  0  0  0999 V2000
  192.3980  170.6420  141.5820 C   0  0  0  0  0  0  0  0  0  0  0  0
  192.3970  173.3920  144.2510 C   0  0  0  0  0  0  0  0  0  0  0  0
  193.7160  173.4630  144.8000 C   0  0  0  0  0  0  0  0  0  0  0  0
  195.5920  171.9560  145.5960 C   0  0  0  0  0  2  0  0  0  0  0  0
  191.9470  172.3260  143.2890 C   0  0  0  0  0  0  0  0  0  0  0  0
  191.0290  170.4090  141.4370 C   0  0  0  0  0  3  0  0  0  0  0  0
  194.7380  172.4140  144.4240 C   0  0  0  0  0  2  0  0  0  0  0  0
  190.0270  174.3110  144.0820 C   0  0  2  0  0  3  0  0  0  0  0  0
  193.3740  169.8750  140.7660 C   0  0  0  0  0  1  0  0  0  0  0  0
  193.0970  175.5170  145.9600 C   0  0  0  0  0  3  0  0  0  0  0  0
  196.8530  172.8090  145.7060 C   0  0  0  0  0  2  0  0  0  0  0  0
  189.5670  172.8650  143.9090 C   0  0  0  0  0  2  0  0  0  0  0  0
  191.4340  174.3610  144.6390 C   0  0  0  0  0  0  0  0  0  0  0  0
  192.8500  171.5980  142.4950 C   0  0  0  0  0  3  0  0  0  0  0  0
  196.5780  174.3020  145.5290 C   0  0  0  0  0  2  0  0  0  0  0  0
  190.5650  172.1010  143.1050 C   0  0  0  0  0  0  0  0  0  0  0  0
  190.1150  171.1380  142.1980 C   0  0  0  0  0  3  0  0  0  0  0  0
  191.8080  175.4250  145.4620 C   0  0  0  0  0  3  0  0  0  0  0  0
  194.0580  174.5620  145.6450 C   0  0  0  0  0  0  0  0  0  0  0  0
  195.3770  174.7300  146.3560 C   0  0  0  0  0  2  0  0  0  0  0  0
  188.4770  176.5790  143.3300 O   0  0  0  0  0  0  0  0  0  0  0  0
  188.3260  176.1470  144.5050 C   0  0  0  0  0  0  0  0  0  0  0  0
  189.0870  175.0170  144.9460 N   0  0  0  0  0  2  0  0  0  0  0  0
  185.4850  178.0030  147.1350 C   0  0  0  0  0  0  0  0  0  0  0  0
  186.0000  176.7410  145.1390 C   0  0  0  0  0  3  0  0  0  0  0  0
  189.1340  177.5630  146.9450 O   0  0  0  0  0  1  0  0  0  0  0  0
  184.5760  178.5830  147.9550 F   0  0  0  0  0  0  0  0  0  0  0  0
  185.0620  177.3380  145.9840 C   0  0  0  0  0  3  0  0  0  0  0  0
  187.7900  177.4720  146.6020 C   0  0  0  0  0  0  0  0  0  0  0  0
  187.3720  176.7970  145.4330 C   0  0  0  0  0  0  0  0  0  0  0  0
  186.8440  178.0680  147.4430 C   0  0  0  0  0  3  0  0  0  0  0  0
  1 14  1  0  0  0  0
  2 13  2  0  0  0  0
  2  3  1  0  0  0  0
  3 19  2  0  0  0  0
  4 11  1  0  0  0  0
  5  2  1  0  0  0  0
  6  1  2  0  0  0  0
  6 17  1  0  0  0  0
  7  3  1  0  0  0  0
  7  4  1  0  0  0  0
  8 13  1  0  0  0  0
  8 23  1  1  0  0  0
  9  1  1  0  0  0  0
 12  8  1  0  0  0  0
 13 18  1  0  0  0  0
 14  5  2  0  0  0  0
 15 11  1  0  0  0  0
 15 20  1  0  0  0  0
 16  5  1  0  0  0  0
 16 12  1  0  0  0  0
 17 16  2  0  0  0  0
 18 10  2  0  0  0  0
 19 10  1  0  0  0  0
 19 20  1  0  0  0  0
 21 22  2  0  0  0  0
 22 23  1  0  0  0  0
 22 30  1  0  0  0  0
 24 31  1  0  0  0  0
 24 27  1  0  0  0  0
 25 30  2  0  0  0  0
 25 28  1  0  0  0  0
 28 24  2  0  0  0  0
 29 26  1  0  0  0  0
 29 31  2  0  0  0  0
 30 29  1  0  0  0  0
M  END
>  <MODEL>
7

>  <REMARK>
 VINA RESULT:      -8.1      3.879      8.507
  Name = 
  2 active torsions:
  status: ('A' for Active; 'I' for Inactive)
    1  A    between atoms: C_9  and  C_22
    2  A    between atoms: C_15  and  N_23
                            x       y       z     vdW  Elec       q    Type
                         _______ _______ _______ _____ _____    ______ ____

>  <TORSDO>
F 2

$$$$
=
 OpenBabel11052417463D

 31 35  0  0  1  0  0  0  0  0999 V2000
  192.1630  171.3710  141.0770 C   0  0  0  0  0  0  0  0  0  0  0  0
  191.9130  174.1540  143.6980 C   0  0  0  0  0  0  0  0  0  0  0  0
  193.1460  174.1800  144.4210 C   0  0  0  0  0  0  0  0  0  0  0  0
  194.8320  172.6100  145.4780 C   0  0  0  0  0  2  0  0  0  0  0  0
  191.5550  173.0950  142.6920 C   0  0  0  0  0  0  0  0  0  0  0  0
  190.8180  171.1910  140.7480 C   0  0  0  0  0  3  0  0  0  0  0  0
  194.1660  173.0860  144.1970 C   0  0  0  0  0  2  0  0  0  0  0  0
  189.6290  175.1660  143.1990 C   0  0  2  0  0  3  0  0  0  0  0  0
  193.2080  170.5540  140.4080 C   0  0  0  0  0  1  0  0  0  0  0  0
  192.4620  176.2730  145.4690 C   0  0  0  0  0  3  0  0  0  0  0  0
  196.1020  173.4140  145.7530 C   0  0  0  0  0  2  0  0  0  0  0  0
  189.1370  173.7380  142.9770 C   0  0  0  0  0  2  0  0  0  0  0  0
  190.9480  175.1670  143.9430 C   0  0  0  0  0  0  0  0  0  0  0  0
  192.5250  172.3200  142.0350 C   0  0  0  0  0  3  0  0  0  0  0  0
  195.9150  174.9140  145.5280 C   0  0  0  0  0  2  0  0  0  0  0  0
  190.2020  172.9230  142.3220 C   0  0  0  0  0  0  0  0  0  0  0  0
  189.8400  171.9660  141.3700 C   0  0  0  0  0  3  0  0  0  0  0  0
  191.2500  176.2270  144.8000 C   0  0  0  0  0  3  0  0  0  0  0  0
  193.4170  175.2760  145.2960 C   0  0  0  0  0  0  0  0  0  0  0  0
  194.6320  175.4010  146.1790 C   0  0  0  0  0  2  0  0  0  0  0  0
  187.2730  176.2790  142.0480 O   0  0  0  0  0  0  0  0  0  0  0  0
  187.4380  176.4460  143.2870 C   0  0  0  0  0  0  0  0  0  0  0  0
  188.6100  175.9210  143.9210 N   0  0  0  0  0  2  0  0  0  0  0  0
  184.5320  178.5030  145.6850 C   0  0  0  0  0  0  0  0  0  0  0  0
  185.9660  176.6000  145.2800 C   0  0  0  0  0  3  0  0  0  0  0  0
  186.3600  179.0710  142.5420 O   0  0  0  0  0  1  0  0  0  0  0  0
  183.6150  179.1390  146.4530 F   0  0  0  0  0  0  0  0  0  0  0  0
  185.0220  177.2550  146.0730 C   0  0  0  0  0  3  0  0  0  0  0  0
  185.9340  178.4460  143.7080 C   0  0  0  0  0  0  0  0  0  0  0  0
  186.4360  177.1810  144.0910 C   0  0  0  0  0  0  0  0  0  0  0  0
  184.9870  179.0960  144.5080 C   0  0  0  0  0  3  0  0  0  0  0  0
  1 14  1  0  0  0  0
  2 13  2  0  0  0  0
  2  3  1  0  0  0  0
  3 19  2  0  0  0  0
  4 11  1  0  0  0  0
  5  2  1  0  0  0  0
  6  1  2  0  0  0  0
  6 17  1  0  0  0  0
  7  3  1  0  0  0  0
  7  4  1  0  0  0  0
  8 23  1  1  0  0  0
  8 13  1  0  0  0  0
  9  1  1  0  0  0  0
 12  8  1  0  0  0  0
 13 18  1  0  0  0  0
 14  5  2  0  0  0  0
 15 11  1  0  0  0  0
 15 20  1  0  0  0  0
 16  5  1  0  0  0  0
 16 12  1  0  0  0  0
 17 16  2  0  0  0  0
 18 10  2  0  0  0  0
 19 10  1  0  0  0  0
 19 20  1  0  0  0  0
 21 22  2  0  0  0  0
 22 23  1  0  0  0  0
 22 30  1  0  0  0  0
 24 28  1  0  0  0  0
 24 27  1  0  0  0  0
 25 28  2  0  0  0  0
 26 29  1  0  0  0  0
 29 30  2  0  0  0  0
 29 31  1  0  0  0  0
 30 25  1  0  0  0  0
 31 24  2  0  0  0  0
M  END
>  <MODEL>
8

>  <REMARK>
 VINA RESULT:      -8.0      3.549      8.045
  Name = 
  2 active torsions:
  status: ('A' for Active; 'I' for Inactive)
    1  A    between atoms: C_9  and  C_22
    2  A    between atoms: C_15  and  N_23
                            x       y       z     vdW  Elec       q    Type
                         _______ _______ _______ _____ _____    ______ ____

>  <TORSDO>
F 2

$$$$
=
 OpenBabel11052417463D

 31 35  0  0  1  0  0  0  0  0999 V2000
  185.1920  177.8270  141.0000 C   0  0  0  0  0  0  0  0  0  0  0  0
  187.2230  176.8680  144.1050 C   0  0  0  0  0  0  0  0  0  0  0  0
  186.5200  177.3580  145.2500 C   0  0  0  0  0  0  0  0  0  0  0  0
  185.2680  179.4110  146.0520 C   0  0  0  0  0  2  0  0  0  0  0  0
  186.8330  177.1820  142.6860 C   0  0  0  0  0  0  0  0  0  0  0  0
  186.1470  177.6660  139.9950 C   0  0  0  0  0  3  0  0  0  0  0  0
  185.3210  178.2600  145.0610 C   0  0  0  0  0  2  0  0  0  0  0  0
  189.1400  175.5210  143.1040 C   0  0  2  0  0  3  0  0  0  0  0  0
  183.8140  178.2600  140.6540 C   0  0  0  0  0  1  0  0  0  0  0  0
  188.0290  176.0930  146.6890 C   0  0  0  0  0  3  0  0  0  0  0  0
  184.4780  179.0120  147.2960 C   0  0  0  0  0  2  0  0  0  0  0  0
  189.1650  176.5510  141.9770 C   0  0  0  0  0  2  0  0  0  0  0  0
  188.3690  176.0520  144.2950 C   0  0  0  0  0  0  0  0  0  0  0  0
  185.5320  177.5800  142.3320 C   0  0  0  0  0  3  0  0  0  0  0  0
  184.8320  177.6140  147.8030 C   0  0  0  0  0  2  0  0  0  0  0  0
  187.7770  176.9920  141.6530 C   0  0  0  0  0  0  0  0  0  0  0  0
  187.4370  177.2490  140.3220 C   0  0  0  0  0  3  0  0  0  0  0  0
  188.7360  175.6520  145.5820 C   0  0  0  0  0  3  0  0  0  0  0  0
  186.9290  176.9340  146.5500 C   0  0  0  0  0  0  0  0  0  0  0  0
  186.3390  177.4250  147.8480 C   0  0  0  0  0  2  0  0  0  0  0  0
  190.3170  172.9440  142.8150 O   0  0  0  0  0  0  0  0  0  0  0  0
  191.0470  173.8570  143.2870 C   0  0  0  0  0  0  0  0  0  0  0  0
  190.5080  175.1710  143.4700 N   0  0  0  0  0  2  0  0  0  0  0  0
  195.0930  173.0060  144.4460 C   0  0  0  0  0  0  0  0  0  0  0  0
  192.7100  172.7940  144.7930 C   0  0  0  0  0  3  0  0  0  0  0  0
  193.3580  174.8690  141.7880 O   0  0  0  0  0  1  0  0  0  0  0  0
  196.3630  172.7290  144.8250 F   0  0  0  0  0  0  0  0  0  0  0  0
  194.0200  172.5070  145.1840 C   0  0  0  0  0  3  0  0  0  0  0  0
  193.5480  174.0830  142.9180 C   0  0  0  0  0  0  0  0  0  0  0  0
  192.4540  173.5820  143.6590 C   0  0  0  0  0  0  0  0  0  0  0  0
  194.8570  173.7910  143.3170 C   0  0  0  0  0  3  0  0  0  0  0  0
  1 14  1  0  0  0  0
  2 13  2  0  0  0  0
  2  3  1  0  0  0  0
  3 19  2  0  0  0  0
  4 11  1  0  0  0  0
  5  2  1  0  0  0  0
  6 17  1  0  0  0  0
  6  1  2  0  0  0  0
  7  3  1  0  0  0  0
  7  4  1  0  0  0  0
  8 23  1  1  0  0  0
  8 13  1  0  0  0  0
  9  1  1  0  0  0  0
 11 15  1  0  0  0  0
 12  8  1  0  0  0  0
 13 18  1  0  0  0  0
 14  5  2  0  0  0  0
 15 20  1  0  0  0  0
 16 12  1  0  0  0  0
 16  5  1  0  0  0  0
 17 16  2  0  0  0  0
 18 10  2  0  0  0  0
 19 10  1  0  0  0  0
 19 20  1  0  0  0  0
 21 22  2  0  0  0  0
 22 23  1  0  0  0  0
 22 30  1  0  0  0  0
 24 27  1  0  0  0  0
 24 28  1  0  0  0  0
 25 28  2  0  0  0  0
 26 29  1  0  0  0  0
 29 31  1  0  0  0  0
 29 30  2  0  0  0  0
 30 25  1  0  0  0  0
 31 24  2  0  0  0  0
M  END
>  <MODEL>
9

>  <REMARK>
 VINA RESULT:      -8.0      3.388      5.565
  Name = 
  2 active torsions:
  status: ('A' for Active; 'I' for Inactive)
    1  A    between atoms: C_9  and  C_22
    2  A    between atoms: C_15  and  N_23
                            x       y       z     vdW  Elec       q    Type
                         _______ _______ _______ _____ _____    ______ ____

>  <TORSDO>
F 2

$$$$
