=
 OpenBabel11052417373D

 25 28  0  0  1  0  0  0  0  0999 V2000
  186.0540  177.5540  145.2870 C   0  0  0  0  0  0  0  0  0  0  0  0
  186.3540  177.4020  143.9170 C   0  0  0  0  0  0  0  0  0  0  0  0
  184.0880  178.8550  144.8130 C   0  0  0  0  0  3  0  0  0  0  0  0
  186.8140  177.0300  146.4600 C   0  0  2  0  0  3  0  0  0  0  0  0
  188.3120  176.6400  142.4820 C   0  0  0  0  0  0  0  0  0  0  0  0
  184.3480  178.7230  143.4480 C   0  0  0  0  0  3  0  0  0  0  0  0
  186.0270  177.5070  147.7030 C   0  0  1  0  0  3  0  0  0  0  0  0
  185.9680  179.0240  147.8270 C   0  0  0  0  0  2  0  0  0  0  0  0
  185.5800  177.8990  141.4840 C   0  0  0  0  0  0  0  0  0  0  0  0
  184.7390  178.4900  140.7520 O   0  0  0  0  0  0  0  0  0  0  0  0
  187.5790  176.6240  143.5960 C   0  0  0  0  0  3  0  0  0  0  0  0
  184.9570  178.2570  145.7150 C   0  0  0  0  0  0  0  0  0  0  0  0
  184.8060  178.2840  147.1910 C   0  0  1  0  0  3  0  0  0  0  0  0
  186.6350  177.1070  140.7940 C   0  0  0  0  0  2  0  0  0  0  0  0
  187.9910  177.5030  141.3170 C   0  0  0  0  0  2  0  0  0  0  0  0
  185.4620  178.0010  142.9670 C   0  0  0  0  0  0  0  0  0  0  0  0
  189.5180  175.7620  142.4020 C   0  0  0  0  0  2  0  0  0  0  0  0
  189.4920  173.6750  143.6050 N   0  0  0  0  0  2  0  0  0  0  0  0
  189.1440  174.3170  142.5390 C   0  0  0  0  0  0  0  0  0  0  0  0
  188.3000  173.6600  141.5300 C   0  0  0  0  0  0  0  0  0  0  0  0
  188.4510  173.9710  140.1820 O   0  0  0  0  0  0  0  0  0  0  0  0
  187.4310  172.8180  141.8750 O   0  0  0  0  0  1  0  0  0  0  0  0
  188.2520  177.5420  146.4850 C   0  0  0  0  0  2  0  0  0  0  0  0
  188.5500  175.1970  146.7880 O   0  0  0  0  0  1  0  0  0  0  0  0
  189.2040  176.4250  146.8750 C   0  0  0  0  0  2  0  0  0  0  0  0
  1 12  1  0  0  0  0
  1  4  1  0  0  0  0
  2  1  2  0  0  0  0
  3 12  2  0  0  0  0
  4 23  1  1  0  0  0
  4  7  1  0  0  0  0
  5 11  2  0  0  0  0
  6  3  1  0  0  0  0
  7  8  1  1  0  0  0
  9 16  1  0  0  0  0
 10  9  2  0  0  0  0
 11  2  1  0  0  0  0
 12 13  1  0  0  0  0
 13  7  1  0  0  0  0
 13  8  1  1  0  0  0
 14 15  1  0  0  0  0
 14  9  1  0  0  0  0
 15  5  1  0  0  0  0
 16  6  2  0  0  0  0
 16  2  1  0  0  0  0
 17  5  1  0  0  0  0
 17 19  1  0  0  0  0
 19 18  2  0  0  0  0
 20 22  1  0  0  0  0
 20 19  1  0  0  0  0
 21 20  2  0  0  0  0
 23 25  1  0  0  0  0
 24 25  1  0  0  0  0
M  END
>  <MODEL>
1

>  <REMARK>
 VINA RESULT:      -7.6      0.000      0.000
  Name = 
  5 active torsions:
  status: ('A' for Active; 'I' for Inactive)
    1  A    between atoms: C_2  and  CA_25
    2  A    between atoms: C_5  and  C_22
    3  A    between atoms: C_6  and  C_15
    4  A    between atoms: C_15  and  CA_25
    5  A    between atoms: C_17  and  C_22
                            x       y       z     vdW  Elec       q    Type
                         _______ _______ _______ _____ _____    ______ ____

>  <TORSDO>
F 5

$$$$
=
 OpenBabel11052417373D

 25 28  0  0  1  0  0  0  0  0999 V2000
  185.9450  177.4670  145.1630 C   0  0  0  0  0  0  0  0  0  0  0  0
  186.2100  177.3610  143.7810 C   0  0  0  0  0  0  0  0  0  0  0  0
  184.0370  178.8810  144.7900 C   0  0  0  0  0  3  0  0  0  0  0  0
  186.7040  176.8560  146.2950 C   0  0  2  0  0  3  0  0  0  0  0  0
  188.0980  176.5700  142.2700 C   0  0  0  0  0  0  0  0  0  0  0  0
  184.2620  178.7960  143.4150 C   0  0  0  0  0  3  0  0  0  0  0  0
  185.9660  177.3150  147.5750 C   0  0  1  0  0  3  0  0  0  0  0  0
  185.9840  178.8270  147.7650 C   0  0  0  0  0  2  0  0  0  0  0  0
  185.4110  178.0020  141.3900 C   0  0  0  0  0  0  0  0  0  0  0  0
  184.5850  178.6640  140.7030 O   0  0  0  0  0  0  0  0  0  0  0  0
  187.3880  176.5400  143.4000 C   0  0  0  0  0  3  0  0  0  0  0  0
  184.8930  178.2030  145.6460 C   0  0  0  0  0  0  0  0  0  0  0  0
  184.7750  178.1720  147.1240 C   0  0  1  0  0  3  0  0  0  0  0  0
  186.4110  177.1900  140.6430 C   0  0  0  0  0  2  0  0  0  0  0  0
  187.7960  177.4980  141.1510 C   0  0  0  0  0  2  0  0  0  0  0  0
  185.3280  178.0430  142.8780 C   0  0  0  0  0  0  0  0  0  0  0  0
  189.2570  175.6390  142.1260 C   0  0  0  0  0  2  0  0  0  0  0  0
  190.4800  174.8860  144.0590 N   0  0  0  0  0  2  0  0  0  0  0  0
  190.2560  175.8460  143.2230 C   0  0  0  0  0  0  0  0  0  0  0  0
  191.0550  177.0780  143.2900 C   0  0  0  0  0  0  0  0  0  0  0  0
  190.5690  178.1900  143.9720 O   0  0  0  0  0  1  0  0  0  0  0  0
  192.1790  177.1420  142.7290 O   0  0  0  0  0  0  0  0  0  0  0  0
  188.1650  177.2970  146.3080 C   0  0  0  0  0  2  0  0  0  0  0  0
  190.3440  176.6790  147.0510 O   0  0  0  0  0  1  0  0  0  0  0  0
  189.0380  176.2110  146.9100 C   0  0  0  0  0  2  0  0  0  0  0  0
  1 12  1  0  0  0  0
  1  4  1  0  0  0  0
  2  1  2  0  0  0  0
  3 12  2  0  0  0  0
  4 23  1  1  0  0  0
  4  7  1  0  0  0  0
  5 11  2  0  0  0  0
  6  3  1  0  0  0  0
  7  8  1  1  0  0  0
  9 16  1  0  0  0  0
 10  9  2  0  0  0  0
 11  2  1  0  0  0  0
 12 13  1  0  0  0  0
 13  7  1  0  0  0  0
 13  8  1  1  0  0  0
 14 15  1  0  0  0  0
 14  9  1  0  0  0  0
 15  5  1  0  0  0  0
 16  6  2  0  0  0  0
 16  2  1  0  0  0  0
 17  5  1  0  0  0  0
 17 19  1  0  0  0  0
 19 20  1  0  0  0  0
 19 18  2  0  0  0  0
 20 21  1  0  0  0  0
 22 20  2  0  0  0  0
 23 25  1  0  0  0  0
 25 24  1  0  0  0  0
M  END
>  <MODEL>
2

>  <REMARK>
 VINA RESULT:      -7.5      1.884      2.138
  Name = 
  5 active torsions:
  status: ('A' for Active; 'I' for Inactive)
    1  A    between atoms: C_2  and  CA_25
    2  A    between atoms: C_5  and  C_22
    3  A    between atoms: C_6  and  C_15
    4  A    between atoms: C_15  and  CA_25
    5  A    between atoms: C_17  and  C_22
                            x       y       z     vdW  Elec       q    Type
                         _______ _______ _______ _____ _____    ______ ____

>  <TORSDO>
F 5

$$$$
=
 OpenBabel11052417373D

 25 28  0  0  1  0  0  0  0  0999 V2000
  187.0670  177.6400  144.6430 C   0  0  0  0  0  0  0  0  0  0  0  0
  188.0400  176.6490  144.8910 C   0  0  0  0  0  0  0  0  0  0  0  0
  186.1700  177.4580  146.8660 C   0  0  0  0  0  3  0  0  0  0  0  0
  186.8320  178.4030  143.3820 C   0  0  2  0  0  3  0  0  0  0  0  0
  189.6640  175.2140  143.5580 C   0  0  0  0  0  0  0  0  0  0  0  0
  187.1210  176.4770  147.1530 C   0  0  0  0  0  3  0  0  0  0  0  0
  185.6410  179.3420  143.6880 C   0  0  1  0  0  3  0  0  0  0  0  0
  184.3590  178.5900  144.0240 C   0  0  0  0  0  2  0  0  0  0  0  0
  189.0570  175.0390  146.6640 C   0  0  0  0  0  0  0  0  0  0  0  0
  188.9670  174.5780  147.8350 O   0  0  0  0  0  0  0  0  0  0  0  0
  188.9450  176.3200  143.7600 C   0  0  0  0  0  3  0  0  0  0  0  0
  186.1660  178.0280  145.6010 C   0  0  0  0  0  0  0  0  0  0  0  0
  185.2410  179.0970  145.1500 C   0  0  1  0  0  3  0  0  0  0  0  0
  190.1840  174.5410  145.8290 C   0  0  0  0  0  2  0  0  0  0  0  0
  189.6590  174.0650  144.4990 C   0  0  0  0  0  2  0  0  0  0  0  0
  188.0710  176.0560  146.1970 C   0  0  0  0  0  0  0  0  0  0  0  0
  190.5010  175.1160  142.3250 C   0  0  0  0  0  2  0  0  0  0  0  0
  190.8760  173.0030  141.2330 N   0  0  0  0  0  2  0  0  0  0  0  0
  190.0580  173.9770  141.4590 C   0  0  0  0  0  0  0  0  0  0  0  0
  188.6770  173.9050  140.9580 C   0  0  0  0  0  0  0  0  0  0  0  0
  187.7730  173.0130  141.5250 O   0  0  0  0  0  1  0  0  0  0  0  0
  188.3030  174.6430  140.0100 O   0  0  0  0  0  0  0  0  0  0  0  0
  186.5230  177.4820  142.2050 C   0  0  0  0  0  2  0  0  0  0  0  0
  186.5550  177.5870  139.8240 O   0  0  0  0  0  1  0  0  0  0  0  0
  187.2740  177.9370  140.9660 C   0  0  0  0  0  2  0  0  0  0  0  0
  1  2  2  0  0  0  0
  1 12  1  0  0  0  0
  2 16  1  0  0  0  0
  3  6  1  0  0  0  0
  4 23  1  6  0  0  0
  4  7  1  0  0  0  0
  4  1  1  0  0  0  0
  5 11  2  0  0  0  0
  5 15  1  0  0  0  0
  7  8  1  6  0  0  0
  7 13  1  0  0  0  0
  9 10  2  0  0  0  0
 11  2  1  0  0  0  0
 12  3  2  0  0  0  0
 13  8  1  6  0  0  0
 13 12  1  0  0  0  0
 14  9  1  0  0  0  0
 15 14  1  0  0  0  0
 16  9  1  0  0  0  0
 16  6  2  0  0  0  0
 17  5  1  0  0  0  0
 18 19  2  0  0  0  0
 19 17  1  0  0  0  0
 20 19  1  0  0  0  0
 20 21  1  0  0  0  0
 22 20  2  0  0  0  0
 24 25  1  0  0  0  0
 25 23  1  0  0  0  0
M  END
>  <MODEL>
3

>  <REMARK>
 VINA RESULT:      -7.4      1.402      4.329
  Name = 
  5 active torsions:
  status: ('A' for Active; 'I' for Inactive)
    1  A    between atoms: C_2  and  CA_25
    2  A    between atoms: C_5  and  C_22
    3  A    between atoms: C_6  and  C_15
    4  A    between atoms: C_15  and  CA_25
    5  A    between atoms: C_17  and  C_22
                            x       y       z     vdW  Elec       q    Type
                         _______ _______ _______ _____ _____    ______ ____

>  <TORSDO>
F 5

$$$$
=
 OpenBabel11052417373D

 25 28  0  0  1  0  0  0  0  0999 V2000
  186.8550  177.6950  144.9210 C   0  0  0  0  0  0  0  0  0  0  0  0
  187.8340  176.6840  145.0270 C   0  0  0  0  0  0  0  0  0  0  0  0
  186.2520  177.4920  147.2400 C   0  0  0  0  0  3  0  0  0  0  0  0
  186.4710  178.4810  143.7120 C   0  0  2  0  0  3  0  0  0  0  0  0
  189.2450  175.2440  143.4740 C   0  0  0  0  0  0  0  0  0  0  0  0
  187.2140  176.4910  147.3870 C   0  0  0  0  0  3  0  0  0  0  0  0
  185.3470  179.4330  144.1830 C   0  0  1  0  0  3  0  0  0  0  0  0
  184.1060  178.6960  144.6730 C   0  0  0  0  0  2  0  0  0  0  0  0
  189.0440  175.0310  146.6310 C   0  0  0  0  0  0  0  0  0  0  0  0
  189.0990  174.5530  147.7970 O   0  0  0  0  0  0  0  0  0  0  0  0
  188.5780  176.3580  143.7840 C   0  0  0  0  0  3  0  0  0  0  0  0
  186.0930  178.0820  145.9940 C   0  0  0  0  0  0  0  0  0  0  0  0
  185.1360  179.1710  145.6810 C   0  0  1  0  0  3  0  0  0  0  0  0
  190.0440  174.5290  145.6490 C   0  0  0  0  0  2  0  0  0  0  0  0
  189.3420  174.0810  144.3930 C   0  0  0  0  0  2  0  0  0  0  0  0
  188.0240  176.0700  146.3100 C   0  0  0  0  0  0  0  0  0  0  0  0
  189.9130  175.1530  142.1420 C   0  0  0  0  0  2  0  0  0  0  0  0
  192.1240  174.3570  141.6160 N   0  0  0  0  0  2  0  0  0  0  0  0
  191.4040  175.1990  142.2810 C   0  0  0  0  0  0  0  0  0  0  0  0
  192.0540  176.2520  143.0740 C   0  0  0  0  0  0  0  0  0  0  0  0
  191.7770  177.5920  142.8180 O   0  0  0  0  0  0  0  0  0  0  0  0
  192.8690  175.9540  143.9850 O   0  0  0  0  0  1  0  0  0  0  0  0
  185.9950  177.5830  142.5730 C   0  0  0  0  0  2  0  0  0  0  0  0
  187.5790  177.8080  140.8060 O   0  0  0  0  0  1  0  0  0  0  0  0
  186.3160  178.2170  141.2310 C   0  0  0  0  0  2  0  0  0  0  0  0
  1  2  2  0  0  0  0
  1 12  1  0  0  0  0
  2 16  1  0  0  0  0
  3  6  1  0  0  0  0
  4 23  1  6  0  0  0
  4  7  1  0  0  0  0
  4  1  1  0  0  0  0
  5 11  2  0  0  0  0
  5 15  1  0  0  0  0
  7  8  1  6  0  0  0
  7 13  1  0  0  0  0
  9 10  2  0  0  0  0
 11  2  1  0  0  0  0
 12  3  2  0  0  0  0
 13  8  1  6  0  0  0
 13 12  1  0  0  0  0
 14  9  1  0  0  0  0
 15 14  1  0  0  0  0
 16  9  1  0  0  0  0
 16  6  2  0  0  0  0
 17 19  1  0  0  0  0
 17  5  1  0  0  0  0
 18 19  2  0  0  0  0
 19 20  1  0  0  0  0
 20 22  1  0  0  0  0
 21 20  2  0  0  0  0
 24 25  1  0  0  0  0
 25 23  1  0  0  0  0
M  END
>  <MODEL>
4

>  <REMARK>
 VINA RESULT:      -7.2      2.172      4.629
  Name = 
  5 active torsions:
  status: ('A' for Active; 'I' for Inactive)
    1  A    between atoms: C_2  and  CA_25
    2  A    between atoms: C_5  and  C_22
    3  A    between atoms: C_6  and  C_15
    4  A    between atoms: C_15  and  CA_25
    5  A    between atoms: C_17  and  C_22
                            x       y       z     vdW  Elec       q    Type
                         _______ _______ _______ _____ _____    ______ ____

>  <TORSDO>
F 5

$$$$
=
 OpenBabel11052417373D

 25 28  0  0  1  0  0  0  0  0999 V2000
  188.1150  176.2940  145.7720 C   0  0  0  0  0  0  0  0  0  0  0  0
  187.0370  177.1070  145.3650 C   0  0  0  0  0  0  0  0  0  0  0  0
  187.1900  175.9940  147.9700 C   0  0  0  0  0  3  0  0  0  0  0  0
  189.3130  175.8900  144.9780 C   0  0  2  0  0  3  0  0  0  0  0  0
  186.4720  178.6860  143.4510 C   0  0  0  0  0  0  0  0  0  0  0  0
  186.1030  176.7890  147.6050 C   0  0  0  0  0  3  0  0  0  0  0  0
  190.1560  175.0090  145.9300 C   0  0  1  0  0  3  0  0  0  0  0  0
  190.6450  175.7600  147.1630 C   0  0  0  0  0  2  0  0  0  0  0  0
  184.7480  178.1340  146.0530 C   0  0  0  0  0  0  0  0  0  0  0  0
  183.9080  178.2970  146.9810 O   0  0  0  0  0  0  0  0  0  0  0  0
  187.0950  177.6290  143.9750 C   0  0  0  0  0  3  0  0  0  0  0  0
  188.1850  175.7580  147.0320 C   0  0  0  0  0  0  0  0  0  0  0  0
  189.3870  174.9170  147.2560 C   0  0  1  0  0  3  0  0  0  0  0  0
  184.4120  178.7270  144.7300 C   0  0  0  0  0  2  0  0  0  0  0  0
  185.5670  179.5610  144.2390 C   0  0  0  0  0  2  0  0  0  0  0  0
  185.9900  177.3530  146.3150 C   0  0  0  0  0  0  0  0  0  0  0  0
  186.7010  179.0150  142.0120 C   0  0  0  0  0  2  0  0  0  0  0  0
  184.6770  178.1310  141.0530 N   0  0  0  0  0  2  0  0  0  0  0  0
  185.9660  178.0650  141.1170 C   0  0  0  0  0  0  0  0  0  0  0  0
  186.6970  177.1410  140.2380 C   0  0  0  0  0  0  0  0  0  0  0  0
  187.6100  176.2390  140.7760 O   0  0  0  0  0  1  0  0  0  0  0  0
  186.5090  177.1600  138.9940 O   0  0  0  0  0  0  0  0  0  0  0  0
  190.1100  177.0970  144.4910 C   0  0  0  0  0  2  0  0  0  0  0  0
  190.2470  175.5910  142.6490 O   0  0  0  0  0  1  0  0  0  0  0  0
  190.5730  176.8820  143.0600 C   0  0  0  0  0  2  0  0  0  0  0  0
  1 12  1  0  0  0  0
  2  1  2  0  0  0  0
  2 16  1  0  0  0  0
  4 23  1  1  0  0  0
  4  1  1  0  0  0  0
  4  7  1  0  0  0  0
  5 11  2  0  0  0  0
  5 15  1  0  0  0  0
  6  3  1  0  0  0  0
  7  8  1  1  0  0  0
  7 13  1  0  0  0  0
  9 16  1  0  0  0  0
  9 10  2  0  0  0  0
 11  2  1  0  0  0  0
 12 13  1  0  0  0  0
 12  3  2  0  0  0  0
 13  8  1  1  0  0  0
 14  9  1  0  0  0  0
 15 14  1  0  0  0  0
 16  6  2  0  0  0  0
 17  5  1  0  0  0  0
 18 19  2  0  0  0  0
 19 17  1  0  0  0  0
 20 21  1  0  0  0  0
 20 19  1  0  0  0  0
 22 20  2  0  0  0  0
 24 25  1  0  0  0  0
 25 23  1  0  0  0  0
M  END
>  <MODEL>
5

>  <REMARK>
 VINA RESULT:      -7.1      2.456      4.447
  Name = 
  5 active torsions:
  status: ('A' for Active; 'I' for Inactive)
    1  A    between atoms: C_2  and  CA_25
    2  A    between atoms: C_5  and  C_22
    3  A    between atoms: C_6  and  C_15
    4  A    between atoms: C_15  and  CA_25
    5  A    between atoms: C_17  and  C_22
                            x       y       z     vdW  Elec       q    Type
                         _______ _______ _______ _____ _____    ______ ____

>  <TORSDO>
F 5

$$$$
=
 OpenBabel11052417373D

 25 28  0  0  1  0  0  0  0  0999 V2000
  186.9830  177.6460  144.6060 C   0  0  0  0  0  0  0  0  0  0  0  0
  187.9330  176.6130  144.7560 C   0  0  0  0  0  0  0  0  0  0  0  0
  186.4390  177.6200  146.9480 C   0  0  0  0  0  3  0  0  0  0  0  0
  186.5910  178.3600  143.3560 C   0  0  2  0  0  3  0  0  0  0  0  0
  189.2550  175.0260  143.2690 C   0  0  0  0  0  0  0  0  0  0  0  0
  187.3730  176.6010  147.1380 C   0  0  0  0  0  3  0  0  0  0  0  0
  185.5100  179.3790  143.7900 C   0  0  1  0  0  3  0  0  0  0  0  0
  184.2610  178.7180  144.3600 C   0  0  0  0  0  2  0  0  0  0  0  0
  189.1360  175.0340  146.4370 C   0  0  0  0  0  0  0  0  0  0  0  0
  189.2080  174.6340  147.6310 O   0  0  0  0  0  0  0  0  0  0  0  0
  188.6320  176.1800  143.5190 C   0  0  0  0  0  3  0  0  0  0  0  0
  186.2640  178.1290  145.6690 C   0  0  0  0  0  0  0  0  0  0  0  0
  185.3320  179.2260  145.3070 C   0  0  1  0  0  3  0  0  0  0  0  0
  190.0920  174.4340  145.4670 C   0  0  0  0  0  2  0  0  0  0  0  0
  189.3420  173.9250  144.2630 C   0  0  0  0  0  2  0  0  0  0  0  0
  188.1400  176.0810  146.0730 C   0  0  0  0  0  0  0  0  0  0  0  0
  189.8830  174.8230  141.9290 C   0  0  0  0  0  2  0  0  0  0  0  0
  192.0380  175.7590  142.4560 N   0  0  0  0  0  2  0  0  0  0  0  0
  191.3740  174.7320  142.0400 C   0  0  0  0  0  0  0  0  0  0  0  0
  192.0700  173.4620  141.7860 C   0  0  0  0  0  0  0  0  0  0  0  0
  191.3570  172.2680  141.7480 O   0  0  0  0  0  1  0  0  0  0  0  0
  193.3160  173.4420  141.6070 O   0  0  0  0  0  0  0  0  0  0  0  0
  186.0550  177.4040  142.2940 C   0  0  0  0  0  2  0  0  0  0  0  0
  187.1840  176.7620  140.2950 O   0  0  0  0  0  1  0  0  0  0  0  0
  186.5310  177.8260  140.9150 C   0  0  0  0  0  2  0  0  0  0  0  0
  1  2  2  0  0  0  0
  1 12  1  0  0  0  0
  2 16  1  0  0  0  0
  3  6  1  0  0  0  0
  4 23  1  6  0  0  0
  4  7  1  0  0  0  0
  4  1  1  0  0  0  0
  5 11  2  0  0  0  0
  5 15  1  0  0  0  0
  7  8  1  6  0  0  0
  7 13  1  0  0  0  0
  9 10  2  0  0  0  0
 11  2  1  0  0  0  0
 12  3  2  0  0  0  0
 13  8  1  6  0  0  0
 13 12  1  0  0  0  0
 14  9  1  0  0  0  0
 15 14  1  0  0  0  0
 16  9  1  0  0  0  0
 16  6  2  0  0  0  0
 17 19  1  0  0  0  0
 17  5  1  0  0  0  0
 19 18  2  0  0  0  0
 20 19  1  0  0  0  0
 21 20  1  0  0  0  0
 22 20  2  0  0  0  0
 24 25  1  0  0  0  0
 25 23  1  0  0  0  0
M  END
>  <MODEL>
6

>  <REMARK>
 VINA RESULT:      -7.0      2.054      4.513
  Name = 
  5 active torsions:
  status: ('A' for Active; 'I' for Inactive)
    1  A    between atoms: C_2  and  CA_25
    2  A    between atoms: C_5  and  C_22
    3  A    between atoms: C_6  and  C_15
    4  A    between atoms: C_15  and  CA_25
    5  A    between atoms: C_17  and  C_22
                            x       y       z     vdW  Elec       q    Type
                         _______ _______ _______ _____ _____    ______ ____

>  <TORSDO>
F 5

$$$$
=
 OpenBabel11052417373D

 25 28  0  0  1  0  0  0  0  0999 V2000
  186.2150  177.1210  144.2530 C   0  0  0  0  0  0  0  0  0  0  0  0
  187.3270  176.3090  143.9440 C   0  0  0  0  0  0  0  0  0  0  0  0
  185.6520  177.4050  141.9340 C   0  0  0  0  0  3  0  0  0  0  0  0
  185.7340  177.5470  145.6000 C   0  0  2  0  0  3  0  0  0  0  0  0
  189.3830  175.3830  145.1240 C   0  0  0  0  0  0  0  0  0  0  0  0
  186.7390  176.6010  141.5860 C   0  0  0  0  0  3  0  0  0  0  0  0
  184.4900  178.4270  145.3300 C   0  0  1  0  0  3  0  0  0  0  0  0
  184.8100  179.6840  144.5300 C   0  0  0  0  0  2  0  0  0  0  0  0
  188.6760  175.1540  142.0430 C   0  0  0  0  0  0  0  0  0  0  0  0
  188.8160  175.0060  140.7980 O   0  0  0  0  0  0  0  0  0  0  0  0
  188.1200  175.8140  145.0990 C   0  0  0  0  0  3  0  0  0  0  0  0
  185.4090  177.6480  143.2780 C   0  0  0  0  0  0  0  0  0  0  0  0
  184.2840  178.4570  143.8090 C   0  0  1  0  0  3  0  0  0  0  0  0
  189.6120  174.3990  142.9200 C   0  0  0  0  0  2  0  0  0  0  0  0
  190.2440  175.3380  143.9150 C   0  0  0  0  0  2  0  0  0  0  0  0
  187.5890  176.0330  142.5600 C   0  0  0  0  0  0  0  0  0  0  0  0
  189.9640  174.9390  146.4260 C   0  0  0  0  0  2  0  0  0  0  0  0
  190.5510  176.9580  147.5990 N   0  0  0  0  0  2  0  0  0  0  0  0
  190.9650  175.9290  146.9360 C   0  0  0  0  0  0  0  0  0  0  0  0
  192.4080  175.6880  146.7850 C   0  0  0  0  0  0  0  0  0  0  0  0
  192.8700  174.4350  146.3940 O   0  0  0  0  0  0  0  0  0  0  0  0
  193.2360  176.6070  147.0140 O   0  0  0  0  0  1  0  0  0  0  0  0
  186.8010  178.3200  146.3710 C   0  0  0  0  0  2  0  0  0  0  0  0
  186.1950  179.8950  148.0540 O   0  0  0  0  0  1  0  0  0  0  0  0
  186.3630  178.5330  147.8100 C   0  0  0  0  0  2  0  0  0  0  0  0
  1  4  1  0  0  0  0
  2  1  1  0  0  0  0
  2 11  1  0  0  0  0
  3 12  1  0  0  0  0
  4 23  1  6  0  0  0
  5 17  1  0  0  0  0
  6  3  2  0  0  0  0
  6 16  1  0  0  0  0
  7  8  1  6  0  0  0
  7  4  1  0  0  0  0
  9 16  1  0  0  0  0
  9 14  1  0  0  0  0
 10  9  2  0  0  0  0
 11  5  2  0  0  0  0
 12 13  1  0  0  0  0
 12  1  2  0  0  0  0
 13  8  1  6  0  0  0
 13  7  1  0  0  0  0
 14 15  1  0  0  0  0
 15  5  1  0  0  0  0
 16  2  2  0  0  0  0
 17 19  1  0  0  0  0
 19 18  2  0  0  0  0
 20 19  1  0  0  0  0
 20 22  1  0  0  0  0
 21 20  2  0  0  0  0
 23 25  1  0  0  0  0
 25 24  1  0  0  0  0
M  END
>  <MODEL>
7

>  <REMARK>
 VINA RESULT:      -6.6      2.352      4.353
  Name = 
  5 active torsions:
  status: ('A' for Active; 'I' for Inactive)
    1  A    between atoms: C_2  and  CA_25
    2  A    between atoms: C_5  and  C_22
    3  A    between atoms: C_6  and  C_15
    4  A    between atoms: C_15  and  CA_25
    5  A    between atoms: C_17  and  C_22
                            x       y       z     vdW  Elec       q    Type
                         _______ _______ _______ _____ _____    ______ ____

>  <TORSDO>
F 5

$$$$
=
 OpenBabel11052417373D

 25 28  0  0  1  0  0  0  0  0999 V2000
  187.2630  177.7210  143.2710 C   0  0  0  0  0  0  0  0  0  0  0  0
  187.2730  177.6180  144.6780 C   0  0  0  0  0  0  0  0  0  0  0  0
  185.4340  179.2810  143.2990 C   0  0  0  0  0  3  0  0  0  0  0  0
  188.1450  177.0200  142.2910 C   0  0  2  0  0  3  0  0  0  0  0  0
  188.2890  176.1110  146.4590 C   0  0  0  0  0  0  0  0  0  0  0  0
  185.4150  179.2100  144.6930 C   0  0  0  0  0  3  0  0  0  0  0  0
  187.6780  177.5100  140.8990 C   0  0  1  0  0  3  0  0  0  0  0  0
  186.2370  177.1280  140.5850 C   0  0  0  0  0  2  0  0  0  0  0  0
  186.2160  178.4680  146.8980 C   0  0  0  0  0  0  0  0  0  0  0  0
  185.3190  179.1810  147.4260 O   0  0  0  0  0  0  0  0  0  0  0  0
  188.2850  176.7000  145.2620 C   0  0  0  0  0  3  0  0  0  0  0  0
  186.3720  178.5260  142.6090 C   0  0  0  0  0  0  0  0  0  0  0  0
  186.5380  178.5100  141.1350 C   0  0  1  0  0  3  0  0  0  0  0  0
  187.1400  177.7550  147.8210 C   0  0  0  0  0  2  0  0  0  0  0  0
  187.2010  176.2960  147.4530 C   0  0  0  0  0  2  0  0  0  0  0  0
  186.3200  178.4000  145.4120 C   0  0  0  0  0  0  0  0  0  0  0  0
  189.4300  175.2150  146.8150 C   0  0  0  0  0  2  0  0  0  0  0  0
  190.8390  176.8230  147.9230 N   0  0  0  0  0  2  0  0  0  0  0  0
  190.7050  175.9890  146.9440 C   0  0  0  0  0  0  0  0  0  0  0  0
  191.8360  175.7330  146.0410 C   0  0  0  0  0  0  0  0  0  0  0  0
  192.5980  174.5770  146.1840 O   0  0  0  0  0  1  0  0  0  0  0  0
  192.1300  176.5570  145.1360 O   0  0  0  0  0  0  0  0  0  0  0  0
  188.0390  175.5020  142.4080 C   0  0  0  0  0  2  0  0  0  0  0  0
  190.4200  175.6020  142.4360 O   0  0  0  0  0  1  0  0  0  0  0  0
  189.3400  174.8470  141.9800 C   0  0  0  0  0  2  0  0  0  0  0  0
  1  2  1  0  0  0  0
  2 11  1  0  0  0  0
  2 16  2  0  0  0  0
  3  6  2  0  0  0  0
  4 23  1  6  0  0  0
  4  1  1  0  0  0  0
  5 17  1  0  0  0  0
  5 15  1  0  0  0  0
  6 16  1  0  0  0  0
  7  8  1  6  0  0  0
  7 13  1  0  0  0  0
  7  4  1  0  0  0  0
  9 10  2  0  0  0  0
  9 14  1  0  0  0  0
 11  5  2  0  0  0  0
 12  1  2  0  0  0  0
 12  3  1  0  0  0  0
 13  8  1  6  0  0  0
 13 12  1  0  0  0  0
 15 14  1  0  0  0  0
 16  9  1  0  0  0  0
 17 19  1  0  0  0  0
 19 18  2  0  0  0  0
 20 21  1  0  0  0  0
 20 19  1  0  0  0  0
 22 20  2  0  0  0  0
 25 23  1  0  0  0  0
 25 24  1  0  0  0  0
M  END
>  <MODEL>
8

>  <REMARK>
 VINA RESULT:      -6.5      2.414      5.152
  Name = 
  5 active torsions:
  status: ('A' for Active; 'I' for Inactive)
    1  A    between atoms: C_2  and  CA_25
    2  A    between atoms: C_5  and  C_22
    3  A    between atoms: C_6  and  C_15
    4  A    between atoms: C_15  and  CA_25
    5  A    between atoms: C_17  and  C_22
                            x       y       z     vdW  Elec       q    Type
                         _______ _______ _______ _____ _____    ______ ____

>  <TORSDO>
F 5

$$$$
=
 OpenBabel11052417373D

 25 28  0  0  1  0  0  0  0  0999 V2000
  188.7970  175.6900  144.7280 C   0  0  0  0  0  0  0  0  0  0  0  0
  187.7440  176.5480  145.1100 C   0  0  0  0  0  0  0  0  0  0  0  0
  189.0410  174.8340  146.9620 C   0  0  0  0  0  3  0  0  0  0  0  0
  189.4060  175.5270  143.3760 C   0  0  2  0  0  3  0  0  0  0  0  0
  186.4760  178.5330  144.1470 C   0  0  0  0  0  0  0  0  0  0  0  0
  187.9990  175.6650  147.3780 C   0  0  0  0  0  3  0  0  0  0  0  0
  190.5150  174.4620  143.5530 C   0  0  1  0  0  3  0  0  0  0  0  0
  191.6160  174.9000  144.5110 C   0  0  0  0  0  2  0  0  0  0  0  0
  186.2000  177.3120  147.0590 C   0  0  0  0  0  0  0  0  0  0  0  0
  185.9430  177.2190  148.2910 O   0  0  0  0  0  0  0  0  0  0  0  0
  187.1670  177.3970  144.0360 C   0  0  0  0  0  3  0  0  0  0  0  0
  189.4200  174.8630  145.6280 C   0  0  0  0  0  0  0  0  0  0  0  0
  190.4870  174.0260  145.0250 C   0  0  1  0  0  3  0  0  0  0  0  0
  185.3210  178.2030  146.2530 C   0  0  0  0  0  2  0  0  0  0  0  0
  186.1640  179.1630  145.4560 C   0  0  0  0  0  2  0  0  0  0  0  0
  187.3270  176.5250  146.4830 C   0  0  0  0  0  0  0  0  0  0  0  0
  186.0030  179.2110  142.9030 C   0  0  0  0  0  2  0  0  0  0  0  0
  183.7800  178.2880  142.9420 N   0  0  0  0  0  2  0  0  0  0  0  0
  184.8720  178.4580  142.2730 C   0  0  0  0  0  0  0  0  0  0  0  0
  184.9540  178.0080  140.8760 C   0  0  0  0  0  0  0  0  0  0  0  0
  186.1620  177.5540  140.3560 O   0  0  0  0  0  1  0  0  0  0  0  0
  183.9360  178.0370  140.1360 O   0  0  0  0  0  0  0  0  0  0  0  0
  189.9780  176.8380  142.8440 C   0  0  0  0  0  2  0  0  0  0  0  0
  190.8440  178.8480  143.7880 O   0  0  0  0  0  1  0  0  0  0  0  0
  190.9150  177.4580  143.8660 C   0  0  0  0  0  2  0  0  0  0  0  0
  1  2  2  0  0  0  0
  1 12  1  0  0  0  0
  2 16  1  0  0  0  0
  3  6  1  0  0  0  0
  4 23  1  1  0  0  0
  4  7  1  0  0  0  0
  4  1  1  0  0  0  0
  5 15  1  0  0  0  0
  7  8  1  1  0  0  0
  7 13  1  0  0  0  0
  9 10  2  0  0  0  0
 11  5  2  0  0  0  0
 11  2  1  0  0  0  0
 12  3  2  0  0  0  0
 13  8  1  1  0  0  0
 13 12  1  0  0  0  0
 14  9  1  0  0  0  0
 15 14  1  0  0  0  0
 16  9  1  0  0  0  0
 16  6  2  0  0  0  0
 17  5  1  0  0  0  0
 19 17  1  0  0  0  0
 19 18  2  0  0  0  0
 20 19  1  0  0  0  0
 21 20  1  0  0  0  0
 22 20  2  0  0  0  0
 23 25  1  0  0  0  0
 24 25  1  0  0  0  0
M  END
>  <MODEL>
9

>  <REMARK>
 VINA RESULT:      -6.4      2.524      5.476
  Name = 
  5 active torsions:
  status: ('A' for Active; 'I' for Inactive)
    1  A    between atoms: C_2  and  CA_25
    2  A    between atoms: C_5  and  C_22
    3  A    between atoms: C_6  and  C_15
    4  A    between atoms: C_15  and  CA_25
    5  A    between atoms: C_17  and  C_22
                            x       y       z     vdW  Elec       q    Type
                         _______ _______ _______ _____ _____    ______ ____

>  <TORSDO>
F 5

$$$$
