=
 OpenBabel11052418303D

 27 31  0  0  1  0  0  0  0  0999 V2000
  188.8730  176.1420  145.5030 C   0  0  2  0  0  3  0  0  0  0  0  0
  188.4380  176.1120  144.0770 C   0  0  0  0  0  0  0  0  0  0  0  0
  189.9140  174.3520  144.2780 N   0  0  0  0  0  0  0  0  0  0  0  0
  187.7590  175.4250  140.0670 N   0  0  0  0  0  0  0  0  0  0  0  0
  188.5140  173.7910  138.3350 C   0  0  0  0  0  1  0  0  0  0  0  0
  187.5520  176.9810  143.4170 C   0  0  0  0  0  3  0  0  0  0  0  0
  189.4020  173.7210  141.0010 S   0  0  0  0  0  0  0  0  0  0  0  0
  192.2840  174.4230  145.7540 N   0  0  0  0  0  0  0  0  0  0  0  0
  190.8480  172.1050  144.4170 C   0  0  0  0  0  1  0  0  0  0  0  0
  193.5940  174.9810  146.0610 C   0  0  0  0  0  1  0  0  0  0  0  0
  188.8140  174.8850  142.0600 C   0  0  0  0  0  0  0  0  0  0  0  0
  188.5020  174.3490  139.7110 C   0  0  0  0  0  0  0  0  0  0  0  0
  187.9360  175.7210  141.3800 C   0  0  0  0  0  0  0  0  0  0  0  0
  189.8680  174.9570  145.6110 C   0  0  1  0  0  3  0  0  0  0  0  0
  189.0660  175.0880  143.4150 C   0  0  0  0  0  0  0  0  0  0  0  0
  192.3250  174.1230  144.3210 C   0  0  0  0  0  2  0  0  0  0  0  0
  187.2940  176.7790  142.0450 C   0  0  0  0  0  3  0  0  0  0  0  0
  191.2260  175.8100  147.4980 C   0  0  0  0  0  1  0  0  0  0  0  0
  191.2630  175.4560  146.0140 C   0  0  1  0  0  3  0  0  0  0  0  0
  191.0140  173.5020  143.8480 C   0  0  2  0  0  3  0  0  0  0  0  0
  187.7400  175.9680  146.4130 N   0  0  0  0  0  2  0  0  0  0  0  0
  184.7330  178.8130  147.1820 C   0  0  0  0  0  3  0  0  0  0  0  0
  186.7210  176.9400  146.6750 C   0  0  0  0  0  0  0  0  0  0  0  0
  185.4210  176.7070  146.2180 C   0  0  0  0  0  3  0  0  0  0  0  0
  184.4250  177.6510  146.4730 C   0  0  0  0  0  3  0  0  0  0  0  0
  186.0420  179.0130  147.6240 C   0  0  0  0  0  3  0  0  0  0  0  0
  186.9990  178.0820  147.3650 N   0  0  0  0  0  0  0  0  0  0  0  0
  1 14  1  0  0  0  0
  1 21  1  1  0  0  0
  2  1  1  0  0  0  0
  4 13  1  0  0  0  0
  5 12  1  0  0  0  0
  6  2  1  0  0  0  0
  7 11  1  0  0  0  0
  8 19  1  0  0  0  0
  8 10  1  0  0  0  0
 11 15  1  0  0  0  0
 12  4  2  0  0  0  0
 12  7  1  0  0  0  0
 13 17  1  0  0  0  0
 13 11  2  0  0  0  0
 14  3  1  6  0  0  0
 14 19  1  0  0  0  0
 15  2  2  0  0  0  0
 15  3  1  0  0  0  0
 16  8  1  0  0  0  0
 17  6  2  0  0  0  0
 19 18  1  1  0  0  0
 20  3  1  0  0  0  0
 20 16  1  0  0  0  0
 20  9  1  1  0  0  0
 21 23  1  0  0  0  0
 22 26  2  0  0  0  0
 23 27  2  0  0  0  0
 24 25  2  0  0  0  0
 24 23  1  0  0  0  0
 25 22  1  0  0  0  0
 27 26  1  0  0  0  0
M  END
>  <MODEL>
1

>  <REMARK>
 VINA RESULT:      -7.8      0.000      0.000
  Name = 
  2 active torsions:
  status: ('A' for Active; 'I' for Inactive)
    1  A    between atoms: C_1  and  N_15
    2  A    between atoms: C_9  and  N_15
                            x       y       z     vdW  Elec       q    Type
                         _______ _______ _______ _____ _____    ______ ____

>  <TORSDO>
F 2

$$$$
=
 OpenBabel11052418303D

 27 31  0  0  1  0  0  0  0  0999 V2000
  188.9300  175.6810  145.9560 C   0  0  2  0  0  3  0  0  0  0  0  0
  189.3010  174.5600  145.0440 C   0  0  0  0  0  0  0  0  0  0  0  0
  188.4650  176.1980  143.6530 N   0  0  0  0  0  0  0  0  0  0  0  0
  190.0190  171.9300  141.9500 N   0  0  0  0  0  0  0  0  0  0  0  0
  189.7580  171.9100  139.4650 C   0  0  0  0  0  1  0  0  0  0  0  0
  189.8430  173.3070  145.3790 C   0  0  0  0  0  3  0  0  0  0  0  0
  189.0330  174.1030  141.0670 S   0  0  0  0  0  0  0  0  0  0  0  0
  186.2480  177.7960  144.2290 N   0  0  0  0  0  0  0  0  0  0  0  0
  188.2940  177.9730  141.9910 C   0  0  0  0  0  1  0  0  0  0  0  0
  184.8400  177.9760  144.5570 C   0  0  0  0  0  1  0  0  0  0  0  0
  189.2600  173.9790  142.7260 C   0  0  0  0  0  0  0  0  0  0  0  0
  189.6410  172.5450  140.8030 C   0  0  0  0  0  0  0  0  0  0  0  0
  189.8050  172.7350  143.0220 C   0  0  0  0  0  0  0  0  0  0  0  0
  188.3650  176.7640  145.0000 C   0  0  1  0  0  3  0  0  0  0  0  0
  189.0060  174.8930  143.7470 C   0  0  0  0  0  0  0  0  0  0  0  0
  186.2530  176.9600  143.0250 C   0  0  0  0  0  2  0  0  0  0  0  0
  190.1020  172.3800  144.3480 C   0  0  0  0  0  3  0  0  0  0  0  0
  186.8750  177.9120  146.6110 C   0  0  0  0  0  1  0  0  0  0  0  0
  186.8990  177.0730  145.3370 C   0  0  1  0  0  3  0  0  0  0  0  0
  187.6750  176.6990  142.5390 C   0  0  2  0  0  3  0  0  0  0  0  0
  190.0910  176.1790  146.6940 N   0  0  0  0  0  2  0  0  0  0  0  0
  194.0490  176.2980  145.2620 C   0  0  0  0  0  3  0  0  0  0  0  0
  191.4370  176.2240  146.2040 C   0  0  0  0  0  0  0  0  0  0  0  0
  192.4340  175.5150  146.8790 C   0  0  0  0  0  3  0  0  0  0  0  0
  193.7460  175.5560  146.4040 C   0  0  0  0  0  3  0  0  0  0  0  0
  193.0280  176.9940  144.6110 C   0  0  0  0  0  3  0  0  0  0  0  0
  191.7560  176.9430  145.0910 N   0  0  0  0  0  0  0  0  0  0  0  0
  1 21  1  6  0  0  0
  2  6  1  0  0  0  0
  2  1  1  0  0  0  0
  3 15  1  0  0  0  0
  4 13  1  0  0  0  0
  5 12  1  0  0  0  0
  7 11  1  0  0  0  0
  8 10  1  0  0  0  0
  8 19  1  0  0  0  0
 11 13  2  0  0  0  0
 11 15  1  0  0  0  0
 12  7  1  0  0  0  0
 12  4  2  0  0  0  0
 13 17  1  0  0  0  0
 14  3  1  6  0  0  0
 14 19  1  0  0  0  0
 14  1  1  0  0  0  0
 15  2  2  0  0  0  0
 16  8  1  0  0  0  0
 17  6  2  0  0  0  0
 19 18  1  1  0  0  0
 20  9  1  1  0  0  0
 20 16  1  0  0  0  0
 20  3  1  0  0  0  0
 22 25  1  0  0  0  0
 23 21  1  0  0  0  0
 23 24  1  0  0  0  0
 25 24  2  0  0  0  0
 26 27  1  0  0  0  0
 26 22  2  0  0  0  0
 27 23  2  0  0  0  0
M  END
>  <MODEL>
2

>  <REMARK>
 VINA RESULT:      -7.6      1.864      5.378
  Name = 
  2 active torsions:
  status: ('A' for Active; 'I' for Inactive)
    1  A    between atoms: C_1  and  N_15
    2  A    between atoms: C_9  and  N_15
                            x       y       z     vdW  Elec       q    Type
                         _______ _______ _______ _____ _____    ______ ____

>  <TORSDO>
F 2

$$$$
=
 OpenBabel11052418303D

 27 31  0  0  1  0  0  0  0  0999 V2000
  188.9940  176.1840  145.1690 C   0  0  2  0  0  3  0  0  0  0  0  0
  188.6530  175.9060  143.7430 C   0  0  0  0  0  0  0  0  0  0  0  0
  190.4430  174.5250  144.1990 N   0  0  0  0  0  0  0  0  0  0  0  0
  188.3490  174.6530  139.8250 N   0  0  0  0  0  0  0  0  0  0  0  0
  189.5140  173.0300  138.3260 C   0  0  0  0  0  1  0  0  0  0  0  0
  187.6460  176.4930  142.9580 C   0  0  0  0  0  3  0  0  0  0  0  0
  190.2500  173.4420  141.0070 S   0  0  0  0  0  0  0  0  0  0  0  0
  192.6640  175.2510  145.7290 N   0  0  0  0  0  0  0  0  0  0  0  0
  191.8060  172.5510  144.6350 C   0  0  0  0  0  1  0  0  0  0  0  0
  193.8150  176.1000  146.0060 C   0  0  0  0  0  1  0  0  0  0  0  0
  189.3810  174.5680  141.9010 C   0  0  0  0  0  0  0  0  0  0  0  0
  189.3140  173.7220  139.6250 C   0  0  0  0  0  0  0  0  0  0  0  0
  188.3900  175.1220  141.0990 C   0  0  0  0  0  0  0  0  0  0  0  0
  190.2020  175.2510  145.4490 C   0  0  1  0  0  3  0  0  0  0  0  0
  189.5120  174.9680  143.2290 C   0  0  0  0  0  0  0  0  0  0  0  0
  192.8440  174.8090  144.3430 C   0  0  0  0  0  2  0  0  0  0  0  0
  187.5110  176.0910  141.6120 C   0  0  0  0  0  3  0  0  0  0  0  0
  191.2530  176.5720  147.2600 C   0  0  0  0  0  1  0  0  0  0  0  0
  191.4420  176.0710  145.8320 C   0  0  1  0  0  3  0  0  0  0  0  0
  191.7150  173.8810  143.9080 C   0  0  2  0  0  3  0  0  0  0  0  0
  187.8730  175.8790  146.0580 N   0  0  0  0  0  2  0  0  0  0  0  0
  184.8600  178.5830  147.2160 C   0  0  0  0  0  3  0  0  0  0  0  0
  186.8440  176.7950  146.4510 C   0  0  0  0  0  0  0  0  0  0  0  0
  187.1680  177.8700  147.2820 C   0  0  0  0  0  3  0  0  0  0  0  0
  186.1680  178.7660  147.6660 C   0  0  0  0  0  3  0  0  0  0  0  0
  184.5720  177.4980  146.3850 C   0  0  0  0  0  3  0  0  0  0  0  0
  185.5600  176.6360  146.0230 N   0  0  0  0  0  0  0  0  0  0  0  0
  1 14  1  0  0  0  0
  1 21  1  1  0  0  0
  2  1  1  0  0  0  0
  4 13  1  0  0  0  0
  5 12  1  0  0  0  0
  6  2  2  0  0  0  0
  7 11  1  0  0  0  0
  8 19  1  0  0  0  0
  8 10  1  0  0  0  0
 11 15  2  0  0  0  0
 12  4  2  0  0  0  0
 12  7  1  0  0  0  0
 13 17  2  0  0  0  0
 13 11  1  0  0  0  0
 14  3  1  6  0  0  0
 14 19  1  0  0  0  0
 15  2  1  0  0  0  0
 15  3  1  0  0  0  0
 16  8  1  0  0  0  0
 17  6  1  0  0  0  0
 19 18  1  1  0  0  0
 20  3  1  0  0  0  0
 20 16  1  0  0  0  0
 20  9  1  1  0  0  0
 21 23  1  0  0  0  0
 22 25  1  0  0  0  0
 23 24  1  0  0  0  0
 24 25  2  0  0  0  0
 26 22  2  0  0  0  0
 27 26  1  0  0  0  0
 27 23  2  0  0  0  0
M  END
>  <MODEL>
3

>  <REMARK>
 VINA RESULT:      -7.5      0.881      1.172
  Name = 
  2 active torsions:
  status: ('A' for Active; 'I' for Inactive)
    1  A    between atoms: C_1  and  N_15
    2  A    between atoms: C_9  and  N_15
                            x       y       z     vdW  Elec       q    Type
                         _______ _______ _______ _____ _____    ______ ____

>  <TORSDO>
F 2

$$$$
=
 OpenBabel11052418303D

 27 31  0  0  1  0  0  0  0  0999 V2000
  188.0420  176.1660  142.7270 C   0  0  2  0  0  3  0  0  0  0  0  0
  188.2620  175.2720  141.5520 C   0  0  0  0  0  0  0  0  0  0  0  0
  189.3260  174.2140  143.3040 N   0  0  0  0  0  0  0  0  0  0  0  0
  189.3110  172.3690  138.8180 N   0  0  0  0  0  0  0  0  0  0  0  0
  190.5720  170.2120  138.8290 C   0  0  0  0  0  1  0  0  0  0  0  0
  187.8370  175.4560  140.2250 C   0  0  0  0  0  3  0  0  0  0  0  0
  190.2140  171.7920  141.1260 S   0  0  0  0  0  0  0  0  0  0  0  0
  190.8240  175.5100  145.2730 N   0  0  0  0  0  0  0  0  0  0  0  0
  189.8820  172.6300  145.0710 C   0  0  0  0  0  1  0  0  0  0  0  0
  191.9230  176.3650  145.7010 C   0  0  0  0  0  1  0  0  0  0  0  0
  189.3460  173.2220  140.9740 C   0  0  0  0  0  0  0  0  0  0  0  0
  190.0240  171.4280  139.4830 C   0  0  0  0  0  0  0  0  0  0  0  0
  188.9330  173.3690  139.6540 C   0  0  0  0  0  0  0  0  0  0  0  0
  188.7700  175.4380  143.8870 C   0  0  1  0  0  3  0  0  0  0  0  0
  189.0090  174.1840  141.9240 C   0  0  0  0  0  0  0  0  0  0  0  0
  191.4470  174.4780  144.4420 C   0  0  0  0  0  2  0  0  0  0  0  0
  188.1770  174.4850  139.2600 C   0  0  0  0  0  3  0  0  0  0  0  0
  189.2610  177.4180  145.2900 C   0  0  0  0  0  1  0  0  0  0  0  0
  189.8980  176.3140  144.4520 C   0  0  1  0  0  3  0  0  0  0  0  0
  190.4140  173.4790  143.9300 C   0  0  2  0  0  3  0  0  0  0  0  0
  186.6160  176.3290  143.0160 N   0  0  0  0  0  2  0  0  0  0  0  0
  184.9570  179.0990  145.7190 C   0  0  0  0  0  3  0  0  0  0  0  0
  186.0520  177.2680  143.9400 C   0  0  0  0  0  0  0  0  0  0  0  0
  186.0210  178.6230  143.6020 C   0  0  0  0  0  3  0  0  0  0  0  0
  185.4710  179.5410  144.4990 C   0  0  0  0  0  3  0  0  0  0  0  0
  185.0050  177.7370  146.0240 C   0  0  0  0  0  3  0  0  0  0  0  0
  185.5460  176.8580  145.1370 N   0  0  0  0  0  0  0  0  0  0  0  0
  1 21  1  1  0  0  0
  1 14  1  0  0  0  0
  2 15  1  0  0  0  0
  2  1  1  0  0  0  0
  3 20  1  0  0  0  0
  4 12  2  0  0  0  0
  4 13  1  0  0  0  0
  5 12  1  0  0  0  0
  6  2  2  0  0  0  0
  8 10  1  0  0  0  0
 11  7  1  0  0  0  0
 11 15  2  0  0  0  0
 12  7  1  0  0  0  0
 13 11  1  0  0  0  0
 14  3  1  6  0  0  0
 14 19  1  0  0  0  0
 15  3  1  0  0  0  0
 16  8  1  0  0  0  0
 17 13  2  0  0  0  0
 17  6  1  0  0  0  0
 19  8  1  0  0  0  0
 19 18  1  1  0  0  0
 20 16  1  0  0  0  0
 20  9  1  1  0  0  0
 21 23  1  0  0  0  0
 22 26  2  0  0  0  0
 23 27  2  0  0  0  0
 24 23  1  0  0  0  0
 24 25  2  0  0  0  0
 25 22  1  0  0  0  0
 27 26  1  0  0  0  0
M  END
>  <MODEL>
4

>  <REMARK>
 VINA RESULT:      -7.3      1.952      2.684
  Name = 
  2 active torsions:
  status: ('A' for Active; 'I' for Inactive)
    1  A    between atoms: C_1  and  N_15
    2  A    between atoms: C_9  and  N_15
                            x       y       z     vdW  Elec       q    Type
                         _______ _______ _______ _____ _____    ______ ____

>  <TORSDO>
F 2

$$$$
=
 OpenBabel11052418303D

 27 31  0  0  1  0  0  0  0  0999 V2000
  191.2630  174.8760  143.5870 C   0  0  2  0  0  3  0  0  0  0  0  0
  190.2490  175.8830  144.0130 C   0  0  0  0  0  0  0  0  0  0  0  0
  189.0930  174.4250  142.6510 N   0  0  0  0  0  0  0  0  0  0  0  0
  186.9510  178.2620  144.7050 N   0  0  0  0  0  0  0  0  0  0  0  0
  184.5430  178.2930  144.0410 C   0  0  0  0  0  1  0  0  0  0  0  0
  190.4290  177.0060  144.8390 C   0  0  0  0  0  3  0  0  0  0  0  0
  186.3480  176.3180  143.1790 S   0  0  0  0  0  0  0  0  0  0  0  0
  190.0970  173.3170  140.2920 N   0  0  0  0  0  0  0  0  0  0  0  0
  187.5710  172.6940  141.8590 C   0  0  0  0  0  1  0  0  0  0  0  0
  190.6550  173.4300  138.9510 C   0  0  0  0  0  1  0  0  0  0  0  0
  187.9410  176.4220  143.7000 C   0  0  0  0  0  0  0  0  0  0  0  0
  185.9120  177.7160  144.0280 C   0  0  0  0  0  0  0  0  0  0  0  0
  188.0830  177.5350  144.5200 C   0  0  0  0  0  0  0  0  0  0  0  0
  190.4650  173.9130  142.6690 C   0  0  1  0  0  3  0  0  0  0  0  0
  189.0340  175.5950  143.4450 C   0  0  0  0  0  0  0  0  0  0  0  0
  188.8680  174.1140  140.2600 C   0  0  0  0  0  2  0  0  0  0  0  0
  189.3250  177.8450  145.0990 C   0  0  0  0  0  3  0  0  0  0  0  0
  192.3500  173.1180  141.2730 C   0  0  0  0  0  1  0  0  0  0  0  0
  191.0480  173.9130  141.2480 C   0  0  1  0  0  3  0  0  0  0  0  0
  188.1470  174.0750  141.6030 C   0  0  2  0  0  3  0  0  0  0  0  0
  191.8290  174.1660  144.7350 N   0  0  0  0  0  2  0  0  0  0  0  0
  195.8600  174.2690  145.9470 C   0  0  0  0  0  3  0  0  0  0  0  0
  193.2020  174.1970  145.1440 C   0  0  0  0  0  0  0  0  0  0  0  0
  193.7130  175.3570  145.7310 C   0  0  0  0  0  3  0  0  0  0  0  0
  195.0500  175.3900  146.1320 C   0  0  0  0  0  3  0  0  0  0  0  0
  195.3150  173.1260  145.3580 C   0  0  0  0  0  3  0  0  0  0  0  0
  194.0100  173.1130  144.9730 N   0  0  0  0  0  0  0  0  0  0  0  0
  1  2  1  0  0  0  0
  1 21  1  1  0  0  0
  2  6  1  0  0  0  0
  3 15  1  0  0  0  0
  6 17  2  0  0  0  0
  7 11  1  0  0  0  0
  7 12  1  0  0  0  0
  8 19  1  0  0  0  0
 10  8  1  0  0  0  0
 11 13  2  0  0  0  0
 12  5  1  0  0  0  0
 12  4  2  0  0  0  0
 13  4  1  0  0  0  0
 13 17  1  0  0  0  0
 14  3  1  6  0  0  0
 14  1  1  0  0  0  0
 15 11  1  0  0  0  0
 15  2  2  0  0  0  0
 16  8  1  0  0  0  0
 16 20  1  0  0  0  0
 19 18  1  1  0  0  0
 19 14  1  0  0  0  0
 20  9  1  1  0  0  0
 20  3  1  0  0  0  0
 21 23  1  0  0  0  0
 22 25  1  0  0  0  0
 23 24  1  0  0  0  0
 24 25  2  0  0  0  0
 26 22  2  0  0  0  0
 27 23  2  0  0  0  0
 27 26  1  0  0  0  0
M  END
>  <MODEL>
5

>  <REMARK>
 VINA RESULT:      -7.1      2.265      6.303
  Name = 
  2 active torsions:
  status: ('A' for Active; 'I' for Inactive)
    1  A    between atoms: C_1  and  N_15
    2  A    between atoms: C_9  and  N_15
                            x       y       z     vdW  Elec       q    Type
                         _______ _______ _______ _____ _____    ______ ____

>  <TORSDO>
F 2

$$$$
=
 OpenBabel11052418303D

 27 31  0  0  1  0  0  0  0  0999 V2000
  190.6390  173.6130  145.0440 C   0  0  2  0  0  3  0  0  0  0  0  0
  190.3570  173.0660  143.6850 C   0  0  0  0  0  0  0  0  0  0  0  0
  189.5860  175.2380  143.6160 N   0  0  0  0  0  0  0  0  0  0  0  0
  189.2340  172.2660  139.7980 N   0  0  0  0  0  0  0  0  0  0  0  0
  188.1550  173.5010  137.9130 C   0  0  0  0  0  1  0  0  0  0  0  0
  190.6120  171.7730  143.1960 C   0  0  0  0  0  3  0  0  0  0  0  0
  188.6480  174.6620  140.4240 S   0  0  0  0  0  0  0  0  0  0  0  0
  188.2260  176.5110  145.6970 N   0  0  0  0  0  0  0  0  0  0  0  0
  189.3610  177.6100  143.1030 C   0  0  0  0  0  1  0  0  0  0  0  0
  187.1190  176.6160  146.6380 C   0  0  0  0  0  1  0  0  0  0  0  0
  189.3780  173.7150  141.6030 C   0  0  0  0  0  0  0  0  0  0  0  0
  188.6770  173.3970  139.2990 C   0  0  0  0  0  0  0  0  0  0  0  0
  189.6250  172.4480  141.0850 C   0  0  0  0  0  0  0  0  0  0  0  0
  190.1070  175.0680  144.9750 C   0  0  1  0  0  3  0  0  0  0  0  0
  189.7450  174.0190  142.9130 C   0  0  0  0  0  0  0  0  0  0  0  0
  187.5940  176.3830  144.3810 C   0  0  0  0  0  2  0  0  0  0  0  0
  190.2420  171.4610  141.8710 C   0  0  0  0  0  3  0  0  0  0  0  0
  189.6250  175.3810  147.3830 C   0  0  0  0  0  1  0  0  0  0  0  0
  188.9860  175.2840  146.0010 C   0  0  1  0  0  3  0  0  0  0  0  0
  188.6380  176.2860  143.2730 C   0  0  2  0  0  3  0  0  0  0  0  0
  192.0710  173.5860  145.3460 N   0  0  0  0  0  2  0  0  0  0  0  0
  194.6610  176.9060  145.2930 C   0  0  0  0  0  3  0  0  0  0  0  0
  192.9520  174.7160  145.3230 C   0  0  0  0  0  0  0  0  0  0  0  0
  193.2450  175.3780  146.5180 C   0  0  0  0  0  3  0  0  0  0  0  0
  194.1040  176.4780  146.4990 C   0  0  0  0  0  3  0  0  0  0  0  0
  194.3460  176.2210  144.1180 C   0  0  0  0  0  3  0  0  0  0  0  0
  193.5070  175.1510  144.1560 N   0  0  0  0  0  0  0  0  0  0  0  0
  1 21  1  6  0  0  0
  2  1  1  0  0  0  0
  4 13  1  0  0  0  0
  5 12  1  0  0  0  0
  6  2  1  0  0  0  0
  7 11  1  0  0  0  0
  8 19  1  0  0  0  0
  8 10  1  0  0  0  0
 11 15  1  0  0  0  0
 12  4  2  0  0  0  0
 12  7  1  0  0  0  0
 13 11  2  0  0  0  0
 13 17  1  0  0  0  0
 14  3  1  6  0  0  0
 14  1  1  0  0  0  0
 14 19  1  0  0  0  0
 15  3  1  0  0  0  0
 15  2  2  0  0  0  0
 16  8  1  0  0  0  0
 17  6  2  0  0  0  0
 19 18  1  1  0  0  0
 20  9  1  1  0  0  0
 20  3  1  0  0  0  0
 20 16  1  0  0  0  0
 22 25  1  0  0  0  0
 23 21  1  0  0  0  0
 23 24  1  0  0  0  0
 25 24  2  0  0  0  0
 26 27  1  0  0  0  0
 26 22  2  0  0  0  0
 27 23  2  0  0  0  0
M  END
>  <MODEL>
6

>  <REMARK>
 VINA RESULT:      -7.0      1.730      5.325
  Name = 
  2 active torsions:
  status: ('A' for Active; 'I' for Inactive)
    1  A    between atoms: C_1  and  N_15
    2  A    between atoms: C_9  and  N_15
                            x       y       z     vdW  Elec       q    Type
                         _______ _______ _______ _____ _____    ______ ____

>  <TORSDO>
F 2

$$$$
=
 OpenBabel11052418303D

 27 31  0  0  1  0  0  0  0  0999 V2000
  188.2470  176.8670  145.7550 C   0  0  2  0  0  3  0  0  0  0  0  0
  188.3260  176.3880  144.3450 C   0  0  0  0  0  0  0  0  0  0  0  0
  186.7840  178.1020  144.2980 N   0  0  0  0  0  0  0  0  0  0  0  0
  187.9680  175.6030  140.3120 N   0  0  0  0  0  0  0  0  0  0  0  0
  186.6760  176.5130  138.3770 C   0  0  0  0  0  1  0  0  0  0  0  0
  189.1070  175.3430  143.8220 C   0  0  0  0  0  3  0  0  0  0  0  0
  186.4440  177.5260  140.9880 S   0  0  0  0  0  0  0  0  0  0  0  0
  184.8500  178.5570  146.2600 N   0  0  0  0  0  0  0  0  0  0  0  0
  185.7070  180.2500  143.8880 C   0  0  0  0  0  1  0  0  0  0  0  0
  183.7070  178.1430  147.0620 C   0  0  0  0  0  1  0  0  0  0  0  0
  187.3710  176.8160  142.1960 C   0  0  0  0  0  0  0  0  0  0  0  0
  187.0660  176.4810  139.8100 C   0  0  0  0  0  0  0  0  0  0  0  0
  188.1360  175.7940  141.6450 C   0  0  0  0  0  0  0  0  0  0  0  0
  187.2020  178.0120  145.6990 C   0  0  1  0  0  3  0  0  0  0  0  0
  187.4680  177.1090  143.5550 C   0  0  0  0  0  0  0  0  0  0  0  0
  184.4420  178.3280  144.8710 C   0  0  0  0  0  2  0  0  0  0  0  0
  189.0120  175.0430  142.4470 C   0  0  0  0  0  3  0  0  0  0  0  0
  186.4140  177.8840  148.0430 C   0  0  0  0  0  1  0  0  0  0  0  0
  185.9940  177.6870  146.5900 C   0  0  1  0  0  3  0  0  0  0  0  0
  185.5400  178.7410  143.8970 C   0  0  2  0  0  3  0  0  0  0  0  0
  189.5420  177.3560  146.2290 N   0  0  0  0  0  2  0  0  0  0  0  0
  193.2010  175.2930  145.9290 C   0  0  0  0  0  3  0  0  0  0  0  0
  190.7890  176.6580  146.1250 C   0  0  0  0  0  0  0  0  0  0  0  0
  191.0590  175.6070  147.0040 C   0  0  0  0  0  3  0  0  0  0  0  0
  192.2720  174.9230  146.9040 C   0  0  0  0  0  3  0  0  0  0  0  0
  192.8980  176.3490  145.0670 C   0  0  0  0  0  3  0  0  0  0  0  0
  191.7100  177.0030  145.1810 N   0  0  0  0  0  0  0  0  0  0  0  0
  1 21  1  6  0  0  0
  2  1  1  0  0  0  0
  4 13  1  0  0  0  0
  5 12  1  0  0  0  0
  6  2  1  0  0  0  0
  7 11  1  0  0  0  0
  8 19  1  0  0  0  0
  8 10  1  0  0  0  0
 11 15  1  0  0  0  0
 12  4  2  0  0  0  0
 12  7  1  0  0  0  0
 13 11  2  0  0  0  0
 13 17  1  0  0  0  0
 14  3  1  6  0  0  0
 14  1  1  0  0  0  0
 14 19  1  0  0  0  0
 15  3  1  0  0  0  0
 15  2  2  0  0  0  0
 16  8  1  0  0  0  0
 17  6  2  0  0  0  0
 19 18  1  1  0  0  0
 20  9  1  1  0  0  0
 20  3  1  0  0  0  0
 20 16  1  0  0  0  0
 22 25  1  0  0  0  0
 23 21  1  0  0  0  0
 23 24  1  0  0  0  0
 25 24  2  0  0  0  0
 26 27  1  0  0  0  0
 26 22  2  0  0  0  0
 27 23  2  0  0  0  0
M  END
>  <MODEL>
7

>  <REMARK>
 VINA RESULT:      -6.9      2.012      5.704
  Name = 
  2 active torsions:
  status: ('A' for Active; 'I' for Inactive)
    1  A    between atoms: C_1  and  N_15
    2  A    between atoms: C_9  and  N_15
                            x       y       z     vdW  Elec       q    Type
                         _______ _______ _______ _____ _____    ______ ____

>  <TORSDO>
F 2

$$$$
=
 OpenBabel11052418303D

 27 31  0  0  1  0  0  0  0  0999 V2000
  190.1730  175.0110  143.8280 C   0  0  2  0  0  3  0  0  0  0  0  0
  191.5110  175.5790  144.1620 C   0  0  0  0  0  0  0  0  0  0  0  0
  191.8500  174.3840  142.2190 N   0  0  0  0  0  0  0  0  0  0  0  0
  195.4600  176.7360  144.4480 N   0  0  0  0  0  0  0  0  0  0  0  0
  197.5620  176.4150  143.1370 C   0  0  0  0  0  1  0  0  0  0  0  0
  191.8690  176.3770  145.2630 C   0  0  0  0  0  3  0  0  0  0  0  0
  195.0950  175.2990  142.3800 S   0  0  0  0  0  0  0  0  0  0  0  0
  190.6980  171.9030  141.6560 N   0  0  0  0  0  0  0  0  0  0  0  0
  192.2770  173.8040  139.8910 C   0  0  0  0  0  1  0  0  0  0  0  0
  190.4550  170.4980  141.9550 C   0  0  0  0  0  1  0  0  0  0  0  0
  193.7620  175.5930  143.3570 C   0  0  0  0  0  0  0  0  0  0  0  0
  196.1120  176.2080  143.3840 C   0  0  0  0  0  0  0  0  0  0  0  0
  194.1470  176.3910  144.4290 C   0  0  0  0  0  0  0  0  0  0  0  0
  190.4280  174.2080  142.5250 C   0  0  1  0  0  3  0  0  0  0  0  0
  192.4360  175.1850  143.2290 C   0  0  0  0  0  0  0  0  0  0  0  0
  192.1570  172.0470  141.6670 C   0  0  0  0  0  2  0  0  0  0  0  0
  193.2100  176.7930  145.3960 C   0  0  0  0  0  3  0  0  0  0  0  0
  188.5960  172.5590  142.7650 C   0  0  0  0  0  1  0  0  0  0  0  0
  190.1130  172.7200  142.7350 C   0  0  1  0  0  3  0  0  0  0  0  0
  192.5740  173.4770  141.3430 C   0  0  2  0  0  3  0  0  0  0  0  0
  189.1810  176.0650  143.6150 N   0  0  0  0  0  2  0  0  0  0  0  0
  185.9180  176.9080  146.1400 C   0  0  0  0  0  3  0  0  0  0  0  0
  188.0670  176.3510  144.4700 C   0  0  0  0  0  0  0  0  0  0  0  0
  188.2500  176.3410  145.8550 C   0  0  0  0  0  3  0  0  0  0  0  0
  187.1680  176.6200  146.6920 C   0  0  0  0  0  3  0  0  0  0  0  0
  185.7720  176.9090  144.7510 C   0  0  0  0  0  3  0  0  0  0  0  0
  186.8380  176.6330  143.9530 N   0  0  0  0  0  0  0  0  0  0  0  0
  1 21  1  6  0  0  0
  1  2  1  0  0  0  0
  2  6  1  0  0  0  0
  3 15  1  0  0  0  0
  5 12  1  0  0  0  0
  6 17  2  0  0  0  0
  7 11  1  0  0  0  0
  7 12  1  0  0  0  0
  8 16  1  0  0  0  0
  8 10  1  0  0  0  0
  8 19  1  0  0  0  0
 11 13  2  0  0  0  0
 12  4  2  0  0  0  0
 13  4  1  0  0  0  0
 13 17  1  0  0  0  0
 14  3  1  1  0  0  0
 14 19  1  0  0  0  0
 14  1  1  0  0  0  0
 15 11  1  0  0  0  0
 15  2  2  0  0  0  0
 19 18  1  6  0  0  0
 20  9  1  6  0  0  0
 20 16  1  0  0  0  0
 20  3  1  0  0  0  0
 21 23  1  0  0  0  0
 22 25  1  0  0  0  0
 23 24  1  0  0  0  0
 24 25  2  0  0  0  0
 26 22  2  0  0  0  0
 27 23  2  0  0  0  0
 27 26  1  0  0  0  0
M  END
>  <MODEL>
8

>  <REMARK>
 VINA RESULT:      -6.8      2.759      5.223
  Name = 
  2 active torsions:
  status: ('A' for Active; 'I' for Inactive)
    1  A    between atoms: C_1  and  N_15
    2  A    between atoms: C_9  and  N_15
                            x       y       z     vdW  Elec       q    Type
                         _______ _______ _______ _____ _____    ______ ____

>  <TORSDO>
F 2

$$$$
=
 OpenBabel11052418303D

 27 31  0  0  1  0  0  0  0  0999 V2000
  188.0460  176.6130  144.1390 C   0  0  2  0  0  3  0  0  0  0  0  0
  187.4330  176.9290  142.8170 C   0  0  0  0  0  0  0  0  0  0  0  0
  188.7850  175.1040  142.4160 N   0  0  0  0  0  0  0  0  0  0  0  0
  186.2030  177.2090  138.8900 N   0  0  0  0  0  0  0  0  0  0  0  0
  186.6070  175.9810  136.7520 C   0  0  0  0  0  1  0  0  0  0  0  0
  186.5390  177.9660  142.4960 C   0  0  0  0  0  3  0  0  0  0  0  0
  187.8160  175.2630  139.1860 S   0  0  0  0  0  0  0  0  0  0  0  0
  191.3210  174.7280  143.5250 N   0  0  0  0  0  0  0  0  0  0  0  0
  189.5560  172.8450  141.9240 C   0  0  0  0  0  1  0  0  0  0  0  0
  192.6980  175.1410  143.7590 C   0  0  0  0  0  1  0  0  0  0  0  0
  187.4570  176.1800  140.5470 C   0  0  0  0  0  0  0  0  0  0  0  0
  186.8110  176.2100  138.2050 C   0  0  0  0  0  0  0  0  0  0  0  0
  186.5660  177.1880  140.1980 C   0  0  0  0  0  0  0  0  0  0  0  0
  188.9530  175.3900  143.8430 C   0  0  1  0  0  3  0  0  0  0  0  0
  187.8930  176.0560  141.8650 C   0  0  0  0  0  0  0  0  0  0  0  0
  191.1570  174.7620  142.0690 C   0  0  0  0  0  2  0  0  0  0  0  0
  186.0960  178.0950  141.1630 C   0  0  0  0  0  3  0  0  0  0  0  0
  190.6000  175.7260  145.6620 C   0  0  0  0  0  1  0  0  0  0  0  0
  190.4220  175.7190  144.1460 C   0  0  1  0  0  3  0  0  0  0  0  0
  189.7540  174.3260  141.6600 C   0  0  2  0  0  3  0  0  0  0  0  0
  187.0270  176.2860  145.1380 N   0  0  0  0  0  2  0  0  0  0  0  0
  185.1990  179.0110  147.7770 C   0  0  0  0  0  3  0  0  0  0  0  0
  186.4100  177.2150  146.0370 C   0  0  0  0  0  0  0  0  0  0  0  0
  185.0540  177.5150  145.8850 C   0  0  0  0  0  3  0  0  0  0  0  0
  184.4490  178.4190  146.7600 C   0  0  0  0  0  3  0  0  0  0  0  0
  186.5520  178.6880  147.9010 C   0  0  0  0  0  3  0  0  0  0  0  0
  187.1230  177.8060  147.0370 N   0  0  0  0  0  0  0  0  0  0  0  0
  1 21  1  1  0  0  0
  2  1  1  0  0  0  0
  4 13  1  0  0  0  0
  5 12  1  0  0  0  0
  6  2  1  0  0  0  0
  7 11  1  0  0  0  0
  8 10  1  0  0  0  0
  8 19  1  0  0  0  0
 11 15  1  0  0  0  0
 12  4  2  0  0  0  0
 12  7  1  0  0  0  0
 13 11  2  0  0  0  0
 13 17  1  0  0  0  0
 14  3  1  6  0  0  0
 14  1  1  0  0  0  0
 14 19  1  0  0  0  0
 15  3  1  0  0  0  0
 15  2  2  0  0  0  0
 16  8  1  0  0  0  0
 17  6  2  0  0  0  0
 19 18  1  1  0  0  0
 20  9  1  1  0  0  0
 20 16  1  0  0  0  0
 20  3  1  0  0  0  0
 21 23  1  0  0  0  0
 22 26  2  0  0  0  0
 23 27  2  0  0  0  0
 24 23  1  0  0  0  0
 24 25  2  0  0  0  0
 25 22  1  0  0  0  0
 27 26  1  0  0  0  0
M  END
>  <MODEL>
9

>  <REMARK>
 VINA RESULT:      -6.7      1.683      2.117
  Name = 
  2 active torsions:
  status: ('A' for Active; 'I' for Inactive)
    1  A    between atoms: C_1  and  N_15
    2  A    between atoms: C_9  and  N_15
                            x       y       z     vdW  Elec       q    Type
                         _______ _______ _______ _____ _____    ______ ____

>  <TORSDO>
F 2

$$$$
