=
 OpenBabel11052418243D

 27 31  0  0  1  0  0  0  0  0999 V2000
  191.5400  176.2520  142.8310 C   0  0  0  0  0  2  0  0  0  0  0  0
  189.1680  175.4960  143.2400 C   0  0  1  0  0  3  0  0  0  0  0  0
  190.1160  176.0540  145.4030 O   0  0  0  0  0  0  0  0  0  0  0  0
  185.4990  177.1130  144.6890 C   0  0  0  0  0  3  0  0  0  0  0  0
  184.1250  178.2490  146.4370 C   0  0  0  0  0  1  0  0  0  0  0  0
  188.1160  175.9310  142.2270 C   0  0  0  0  0  2  0  0  0  0  0  0
  187.8400  177.6220  146.1270 C   0  0  0  0  0  3  0  0  0  0  0  0
  193.1820  176.3770  147.0310 C   0  0  0  0  0  3  0  0  0  0  0  0
  186.6070  178.0530  146.6220 C   0  0  0  0  0  3  0  0  0  0  0  0
  194.2770  176.6670  146.3330 C   0  0  0  0  0  3  0  0  0  0  0  0
  187.9140  176.9170  144.9180 C   0  0  0  0  0  0  0  0  0  0  0  0
  190.4620  175.2970  142.5770 N   0  0  0  0  0  0  0  0  0  0  0  0
  185.4370  177.7960  145.9060 C   0  0  0  0  0  0  0  0  0  0  0  0
  186.7290  176.6890  144.1770 C   0  0  0  0  0  0  0  0  0  0  0  0
  192.2050  175.9600  144.1420 C   0  0  0  0  0  0  0  0  0  0  0  0
  189.2660  176.5380  144.3650 C   0  0  2  0  0  3  0  0  0  0  0  0
  192.1770  175.3860  146.5550 C   0  0  0  0  0  2  0  0  0  0  0  0
  186.7440  175.9150  142.8900 C   0  0  0  0  0  2  0  0  0  0  0  0
  194.5760  176.1210  144.9960 C   0  0  0  0  0  3  0  0  0  0  0  0
  193.6760  175.8060  144.0570 C   0  0  0  0  0  3  0  0  0  0  0  0
  191.5030  175.8370  145.3000 C   0  0  0  0  0  0  0  0  0  0  0  0
  191.2260  171.7720  140.3210 C   0  0  0  0  0  3  0  0  0  0  0  0
  190.7190  174.1020  141.8110 C   0  0  0  0  0  0  0  0  0  0  0  0
  189.9320  172.9520  141.9920 C   0  0  0  0  0  3  0  0  0  0  0  0
  190.1830  171.7940  141.2500 C   0  0  0  0  0  3  0  0  0  0  0  0
  192.0160  172.9080  140.1320 C   0  0  0  0  0  3  0  0  0  0  0  0
  191.7640  174.0660  140.8730 C   0  0  0  0  0  3  0  0  0  0  0  0
  1 15  1  0  0  0  0
  2  6  1  6  0  0  0
  2 16  1  0  0  0  0
  4 13  1  0  0  0  0
  6 18  1  0  0  0  0
  7  9  1  0  0  0  0
 10  8  2  0  0  0  0
 11  7  2  0  0  0  0
 12  1  1  0  0  0  0
 12  2  1  0  0  0  0
 13  5  1  0  0  0  0
 13  9  2  0  0  0  0
 14  4  2  0  0  0  0
 14 11  1  0  0  0  0
 15 21  2  0  0  0  0
 16 11  1  1  0  0  0
 16  3  1  0  0  0  0
 17  8  1  0  0  0  0
 18 14  1  0  0  0  0
 19 10  1  0  0  0  0
 20 15  1  0  0  0  0
 20 19  2  0  0  0  0
 21  3  1  0  0  0  0
 21 17  1  0  0  0  0
 22 25  1  0  0  0  0
 23 24  1  0  0  0  0
 23 12  1  0  0  0  0
 25 24  2  0  0  0  0
 26 22  2  0  0  0  0
 26 27  1  0  0  0  0
 27 23  2  0  0  0  0
M  END
>  <MODEL>
1

>  <REMARK>
 VINA RESULT:      -8.3      0.000      0.000
  Name = 
  1 active torsions:
  status: ('A' for Active; 'I' for Inactive)
    1  A    between atoms: C_9  and  N_15
                            x       y       z     vdW  Elec       q    Type
                         _______ _______ _______ _____ _____    ______ ____

>  <TORSDO>
F 1

$$$$
=
 OpenBabel11052418243D

 27 31  0  0  1  0  0  0  0  0999 V2000
  188.1770  177.9620  142.7320 C   0  0  0  0  0  2  0  0  0  0  0  0
  189.1710  176.7550  144.7120 C   0  0  1  0  0  3  0  0  0  0  0  0
  189.4860  175.3220  142.7790 O   0  0  0  0  0  0  0  0  0  0  0  0
  192.9860  175.4000  146.0500 C   0  0  0  0  0  3  0  0  0  0  0  0
  195.0810  174.0740  145.7630 C   0  0  0  0  0  1  0  0  0  0  0  0
  189.9230  177.5980  145.7340 C   0  0  0  0  0  2  0  0  0  0  0  0
  192.2380  174.8820  143.4070 C   0  0  0  0  0  3  0  0  0  0  0  0
  188.1920  174.7160  139.5990 C   0  0  0  0  0  3  0  0  0  0  0  0
  193.4370  174.3700  143.9080 C   0  0  0  0  0  3  0  0  0  0  0  0
  187.5750  175.6910  138.9370 C   0  0  0  0  0  3  0  0  0  0  0  0
  191.3920  175.6420  144.2260 C   0  0  0  0  0  0  0  0  0  0  0  0
  188.0710  177.5280  144.1240 N   0  0  0  0  0  0  0  0  0  0  0  0
  193.8080  174.6250  145.2290 C   0  0  0  0  0  0  0  0  0  0  0  0
  191.7890  175.9280  145.5540 C   0  0  0  0  0  0  0  0  0  0  0  0
  187.8390  176.8370  141.8020 C   0  0  0  0  0  0  0  0  0  0  0  0
  190.1450  176.2530  143.6350 C   0  0  2  0  0  3  0  0  0  0  0  0
  187.9630  174.4760  141.0520 C   0  0  0  0  0  2  0  0  0  0  0  0
  190.9110  176.7140  146.4860 C   0  0  0  0  0  2  0  0  0  0  0  0
  186.6800  176.6820  139.5630 C   0  0  0  0  0  3  0  0  0  0  0  0
  186.7920  177.1660  140.8060 C   0  0  0  0  0  3  0  0  0  0  0  0
  188.4390  175.6200  141.8850 C   0  0  0  0  0  0  0  0  0  0  0  0
  184.4420  178.1150  146.2660 C   0  0  0  0  0  3  0  0  0  0  0  0
  186.8420  177.7270  144.8530 C   0  0  0  0  0  0  0  0  0  0  0  0
  186.4150  176.7910  145.8100 C   0  0  0  0  0  3  0  0  0  0  0  0
  185.2230  176.9840  146.5130 C   0  0  0  0  0  3  0  0  0  0  0  0
  184.8530  179.0540  145.3170 C   0  0  0  0  0  3  0  0  0  0  0  0
  186.0460  178.8610  144.6150 C   0  0  0  0  0  3  0  0  0  0  0  0
  1 12  1  0  0  0  0
  2  6  1  1  0  0  0
  6 18  1  0  0  0  0
  7  9  2  0  0  0  0
  7 11  1  0  0  0  0
  8 17  1  0  0  0  0
  9 13  1  0  0  0  0
 10 19  1  0  0  0  0
 10  8  2  0  0  0  0
 11 14  2  0  0  0  0
 12  2  1  0  0  0  0
 12 23  1  0  0  0  0
 13  5  1  0  0  0  0
 13  4  2  0  0  0  0
 14  4  1  0  0  0  0
 14 18  1  0  0  0  0
 15 21  2  0  0  0  0
 15  1  1  0  0  0  0
 16  3  1  1  0  0  0
 16 11  1  0  0  0  0
 16  2  1  0  0  0  0
 17 21  1  0  0  0  0
 19 20  2  0  0  0  0
 20 15  1  0  0  0  0
 21  3  1  0  0  0  0
 22 25  1  0  0  0  0
 23 24  1  0  0  0  0
 24 25  2  0  0  0  0
 26 22  2  0  0  0  0
 27 23  2  0  0  0  0
 27 26  1  0  0  0  0
M  END
>  <MODEL>
2

>  <REMARK>
 VINA RESULT:      -7.9      2.086      7.225
  Name = 
  1 active torsions:
  status: ('A' for Active; 'I' for Inactive)
    1  A    between atoms: C_9  and  N_15
                            x       y       z     vdW  Elec       q    Type
                         _______ _______ _______ _____ _____    ______ ____

>  <TORSDO>
F 1

$$$$
=
 OpenBabel11052418243D

 27 31  0  0  1  0  0  0  0  0999 V2000
  189.9740  176.2900  142.6530 C   0  0  0  0  0  2  0  0  0  0  0  0
  191.1210  175.7610  144.8370 C   0  0  1  0  0  3  0  0  0  0  0  0
  191.3620  173.8070  143.4190 O   0  0  0  0  0  0  0  0  0  0  0  0
  195.0480  174.9240  146.2690 C   0  0  0  0  0  3  0  0  0  0  0  0
  197.1620  173.5960  146.2640 C   0  0  0  0  0  1  0  0  0  0  0  0
  191.9070  176.8860  145.4990 C   0  0  0  0  0  2  0  0  0  0  0  0
  194.1590  173.6100  143.9680 C   0  0  0  0  0  3  0  0  0  0  0  0
  189.9000  172.2390  140.6700 C   0  0  0  0  0  3  0  0  0  0  0  0
  195.4020  173.2900  144.5200 C   0  0  0  0  0  3  0  0  0  0  0  0
  189.2150  172.9570  139.7830 C   0  0  0  0  0  3  0  0  0  0  0  0
  193.3410  174.5760  144.5690 C   0  0  0  0  0  0  0  0  0  0  0  0
  189.9650  176.3040  144.1150 N   0  0  0  0  0  0  0  0  0  0  0  0
  195.8430  173.9430  145.6720 C   0  0  0  0  0  0  0  0  0  0  0  0
  193.8080  175.2610  145.7160 C   0  0  0  0  0  0  0  0  0  0  0  0
  189.6150  174.9300  142.1360 C   0  0  0  0  0  0  0  0  0  0  0  0
  192.0430  174.9630  143.9030 C   0  0  2  0  0  3  0  0  0  0  0  0
  189.7650  172.4540  142.1390 C   0  0  0  0  0  2  0  0  0  0  0  0
  192.9640  176.2860  146.4190 C   0  0  0  0  0  2  0  0  0  0  0  0
  188.3290  174.0820  140.1350 C   0  0  0  0  0  3  0  0  0  0  0  0
  188.5000  174.9260  141.1600 C   0  0  0  0  0  3  0  0  0  0  0  0
  190.2560  173.8050  142.5480 C   0  0  0  0  0  0  0  0  0  0  0  0
  186.4530  177.4820  146.2100 C   0  0  0  0  0  3  0  0  0  0  0  0
  188.7750  176.7050  144.8270 C   0  0  0  0  0  0  0  0  0  0  0  0
  188.4200  176.0830  146.0370 C   0  0  0  0  0  3  0  0  0  0  0  0
  187.2670  176.4700  146.7240 C   0  0  0  0  0  3  0  0  0  0  0  0
  186.7940  178.1090  145.0090 C   0  0  0  0  0  3  0  0  0  0  0  0
  187.9480  177.7220  144.3220 C   0  0  0  0  0  3  0  0  0  0  0  0
  1 12  1  0  0  0  0
  2  6  1  6  0  0  0
  6 18  1  0  0  0  0
  7  9  2  0  0  0  0
  7 11  1  0  0  0  0
  8 17  1  0  0  0  0
  9 13  1  0  0  0  0
 10 19  1  0  0  0  0
 10  8  2  0  0  0  0
 11 14  2  0  0  0  0
 12 23  1  0  0  0  0
 12  2  1  0  0  0  0
 13  5  1  0  0  0  0
 13  4  2  0  0  0  0
 14  4  1  0  0  0  0
 14 18  1  0  0  0  0
 15 21  2  0  0  0  0
 15  1  1  0  0  0  0
 16  3  1  1  0  0  0
 16 11  1  0  0  0  0
 16  2  1  0  0  0  0
 17 21  1  0  0  0  0
 19 20  2  0  0  0  0
 20 15  1  0  0  0  0
 21  3  1  0  0  0  0
 22 25  1  0  0  0  0
 23 24  1  0  0  0  0
 24 25  2  0  0  0  0
 26 22  2  0  0  0  0
 27 23  2  0  0  0  0
 27 26  1  0  0  0  0
M  END
>  <MODEL>
3

>  <REMARK>
 VINA RESULT:      -7.9      1.803      7.220
  Name = 
  1 active torsions:
  status: ('A' for Active; 'I' for Inactive)
    1  A    between atoms: C_9  and  N_15
                            x       y       z     vdW  Elec       q    Type
                         _______ _______ _______ _____ _____    ______ ____

>  <TORSDO>
F 1

$$$$
=
 OpenBabel11052418243D

 27 31  0  0  1  0  0  0  0  0999 V2000
  190.4750  173.4350  144.7950 C   0  0  0  0  0  2  0  0  0  0  0  0
  189.8790  175.8270  145.3320 C   0  0  1  0  0  3  0  0  0  0  0  0
  188.9600  175.3440  143.1390 O   0  0  0  0  0  0  0  0  0  0  0  0
  186.3910  178.1780  146.0220 C   0  0  0  0  0  3  0  0  0  0  0  0
  184.1670  179.0810  145.3360 C   0  0  0  0  0  1  0  0  0  0  0  0
  189.4870  176.1380  146.7710 C   0  0  0  0  0  2  0  0  0  0  0  0
  186.4150  176.4390  143.8350 C   0  0  0  0  0  3  0  0  0  0  0  0
  189.3710  173.1900  140.4280 C   0  0  0  0  0  3  0  0  0  0  0  0
  185.3290  177.2940  144.0370 C   0  0  0  0  0  3  0  0  0  0  0  0
  189.9020  171.9850  140.6120 C   0  0  0  0  0  3  0  0  0  0  0  0
  187.5070  176.4560  144.7130 C   0  0  0  0  0  0  0  0  0  0  0  0
  190.8740  174.7480  145.2970 N   0  0  0  0  0  0  0  0  0  0  0  0
  185.3190  178.1660  145.1270 C   0  0  0  0  0  0  0  0  0  0  0  0
  187.4770  177.3170  145.8370 C   0  0  0  0  0  0  0  0  0  0  0  0
  190.4620  173.4250  143.2960 C   0  0  0  0  0  0  0  0  0  0  0  0
  188.6270  175.4630  144.5200 C   0  0  2  0  0  3  0  0  0  0  0  0
  189.9230  174.4090  141.0840 C   0  0  0  0  0  2  0  0  0  0  0  0
  188.6310  177.3990  146.7960 C   0  0  0  0  0  2  0  0  0  0  0  0
  191.0170  171.7020  141.5350 C   0  0  0  0  0  3  0  0  0  0  0  0
  191.2610  172.3350  142.6890 C   0  0  0  0  0  3  0  0  0  0  0  0
  189.7810  174.3510  142.5700 C   0  0  0  0  0  0  0  0  0  0  0  0
  194.9530  175.5370  146.2170 C   0  0  0  0  0  3  0  0  0  0  0  0
  192.2580  175.0150  145.6070 C   0  0  0  0  0  0  0  0  0  0  0  0
  193.2180  173.9910  145.5390 C   0  0  0  0  0  3  0  0  0  0  0  0
  194.5580  174.2510  145.8400 C   0  0  0  0  0  3  0  0  0  0  0  0
  194.0090  176.5640  146.2890 C   0  0  0  0  0  3  0  0  0  0  0  0
  192.6690  176.3040  145.9860 C   0  0  0  0  0  3  0  0  0  0  0  0
  1 12  1  0  0  0  0
  2  6  1  1  0  0  0
  6 18  1  0  0  0  0
  7  9  2  0  0  0  0
  7 11  1  0  0  0  0
  8 10  2  0  0  0  0
  8 17  1  0  0  0  0
  9 13  1  0  0  0  0
 10 19  1  0  0  0  0
 11 14  2  0  0  0  0
 12  2  1  0  0  0  0
 12 23  1  0  0  0  0
 13  5  1  0  0  0  0
 13  4  2  0  0  0  0
 14  4  1  0  0  0  0
 14 18  1  0  0  0  0
 15  1  1  0  0  0  0
 16  3  1  6  0  0  0
 16 11  1  0  0  0  0
 16  2  1  0  0  0  0
 17 21  1  0  0  0  0
 19 20  2  0  0  0  0
 20 15  1  0  0  0  0
 21  3  1  0  0  0  0
 21 15  2  0  0  0  0
 22 26  1  0  0  0  0
 23 27  1  0  0  0  0
 24 23  2  0  0  0  0
 24 25  1  0  0  0  0
 25 22  2  0  0  0  0
 27 26  2  0  0  0  0
M  END
>  <MODEL>
4

>  <REMARK>
 VINA RESULT:      -7.9      1.535      4.750
  Name = 
  1 active torsions:
  status: ('A' for Active; 'I' for Inactive)
    1  A    between atoms: C_9  and  N_15
                            x       y       z     vdW  Elec       q    Type
                         _______ _______ _______ _____ _____    ______ ____

>  <TORSDO>
F 1

$$$$
=
 OpenBabel11052418243D

 27 31  0  0  1  0  0  0  0  0999 V2000
  189.2700  177.4920  143.6580 C   0  0  0  0  0  2  0  0  0  0  0  0
  189.8460  175.1300  142.9850 C   0  0  1  0  0  3  0  0  0  0  0  0
  187.5950  175.5640  142.1890 O   0  0  0  0  0  0  0  0  0  0  0  0
  190.4240  172.8690  139.4160 C   0  0  0  0  0  3  0  0  0  0  0  0
  189.6510  171.9900  137.2110 C   0  0  0  0  0  1  0  0  0  0  0  0
  191.2710  174.8700  142.5130 C   0  0  0  0  0  2  0  0  0  0  0  0
  188.1910  174.5410  139.5890 C   0  0  0  0  0  3  0  0  0  0  0  0
  184.8460  177.6250  142.7830 C   0  0  0  0  0  3  0  0  0  0  0  0
  188.3620  173.7130  138.4760 C   0  0  0  0  0  3  0  0  0  0  0  0
  185.0230  178.8250  143.3300 C   0  0  0  0  0  3  0  0  0  0  0  0
  189.1250  174.5280  140.6340 C   0  0  0  0  0  0  0  0  0  0  0  0
  189.8310  176.1870  144.0020 N   0  0  0  0  0  0  0  0  0  0  0  0
  189.4750  172.8760  138.3920 C   0  0  0  0  0  0  0  0  0  0  0  0
  190.2700  173.7030  140.5290 C   0  0  0  0  0  0  0  0  0  0  0  0
  187.7730  177.4570  143.7210 C   0  0  0  0  0  0  0  0  0  0  0  0
  188.9600  175.4930  141.7830 C   0  0  2  0  0  3  0  0  0  0  0  0
  185.5660  176.4160  143.2740 C   0  0  0  0  0  2  0  0  0  0  0  0
  191.2890  173.6280  141.6300 C   0  0  0  0  0  2  0  0  0  0  0  0
  185.9930  179.1130  144.4020 C   0  0  0  0  0  3  0  0  0  0  0  0
  187.1760  178.5110  144.5740 C   0  0  0  0  0  3  0  0  0  0  0  0
  187.0410  176.5220  143.0590 C   0  0  0  0  0  0  0  0  0  0  0  0
  190.9760  175.3410  148.0120 C   0  0  0  0  0  3  0  0  0  0  0  0
  190.2190  175.9020  145.3630 C   0  0  0  0  0  0  0  0  0  0  0  0
  191.4660  176.3240  145.8560 C   0  0  0  0  0  3  0  0  0  0  0  0
  191.8410  176.0460  147.1730 C   0  0  0  0  0  3  0  0  0  0  0  0
  189.7340  174.9160  147.5350 C   0  0  0  0  0  3  0  0  0  0  0  0
  189.3580  175.1950  146.2180 C   0  0  0  0  0  3  0  0  0  0  0  0
  1 15  1  0  0  0  0
  1 12  1  0  0  0  0
  2  6  1  6  0  0  0
  2 12  1  0  0  0  0
  3 21  1  0  0  0  0
  4 14  1  0  0  0  0
  5 13  1  0  0  0  0
  7 11  1  0  0  0  0
  8 17  1  0  0  0  0
  8 10  2  0  0  0  0
  9  7  2  0  0  0  0
 10 19  1  0  0  0  0
 12 23  1  0  0  0  0
 13  9  1  0  0  0  0
 13  4  2  0  0  0  0
 14 11  2  0  0  0  0
 14 18  1  0  0  0  0
 15 20  1  0  0  0  0
 16 11  1  6  0  0  0
 16  3  1  0  0  0  0
 16  2  1  0  0  0  0
 18  6  1  0  0  0  0
 19 20  2  0  0  0  0
 21 17  1  0  0  0  0
 21 15  2  0  0  0  0
 23 24  2  0  0  0  0
 23 27  1  0  0  0  0
 24 25  1  0  0  0  0
 25 22  2  0  0  0  0
 26 22  1  0  0  0  0
 27 26  2  0  0  0  0
M  END
>  <MODEL>
5

>  <REMARK>
 VINA RESULT:      -7.7      2.089      6.923
  Name = 
  1 active torsions:
  status: ('A' for Active; 'I' for Inactive)
    1  A    between atoms: C_9  and  N_15
                            x       y       z     vdW  Elec       q    Type
                         _______ _______ _______ _____ _____    ______ ____

>  <TORSDO>
F 1

$$$$
=
 OpenBabel11052418243D

 27 31  0  0  1  0  0  0  0  0999 V2000
  188.9160  175.5840  145.5130 C   0  0  0  0  0  2  0  0  0  0  0  0
  188.6140  175.7760  143.0160 C   0  0  1  0  0  3  0  0  0  0  0  0
  191.0020  175.8020  143.4440 O   0  0  0  0  0  0  0  0  0  0  0  0
  189.5010  173.5290  139.5030 C   0  0  0  0  0  3  0  0  0  0  0  0
  191.0920  172.3610  137.9740 C   0  0  0  0  0  1  0  0  0  0  0  0
  187.5030  174.9460  142.3850 C   0  0  0  0  0  2  0  0  0  0  0  0
  191.5040  173.8420  141.4270 C   0  0  0  0  0  3  0  0  0  0  0  0
  193.3100  176.5010  145.9620 C   0  0  0  0  0  3  0  0  0  0  0  0
  191.7870  173.1950  140.2210 C   0  0  0  0  0  3  0  0  0  0  0  0
  192.9520  176.3930  147.2390 C   0  0  0  0  0  3  0  0  0  0  0  0
  190.2230  174.3540  141.6760 C   0  0  0  0  0  0  0  0  0  0  0  0
  188.2330  176.1900  144.3710 N   0  0  0  0  0  0  0  0  0  0  0  0
  190.7870  173.0430  139.2590 C   0  0  0  0  0  0  0  0  0  0  0  0
  189.2040  174.1660  140.7120 C   0  0  0  0  0  0  0  0  0  0  0  0
  190.2530  176.2250  145.7290 C   0  0  0  0  0  0  0  0  0  0  0  0
  189.9230  174.9710  143.0200 C   0  0  2  0  0  3  0  0  0  0  0  0
  192.4250  177.1280  144.9400 C   0  0  0  0  0  2  0  0  0  0  0  0
  187.8210  174.7180  140.9120 C   0  0  0  0  0  2  0  0  0  0  0  0
  191.6340  176.7910  147.7670 C   0  0  0  0  0  3  0  0  0  0  0  0
  190.4720  176.7260  147.1060 C   0  0  0  0  0  3  0  0  0  0  0  0
  191.1720  176.3410  144.7340 C   0  0  0  0  0  0  0  0  0  0  0  0
  185.5270  179.4180  144.9740 C   0  0  0  0  0  3  0  0  0  0  0  0
  187.3140  177.2830  144.5740 C   0  0  0  0  0  0  0  0  0  0  0  0
  186.9230  178.1010  143.5000 C   0  0  0  0  0  3  0  0  0  0  0  0
  186.0340  179.1600  143.6980 C   0  0  0  0  0  3  0  0  0  0  0  0
  185.9080  178.6140  146.0510 C   0  0  0  0  0  3  0  0  0  0  0  0
  186.7960  177.5530  145.8520 C   0  0  0  0  0  3  0  0  0  0  0  0
  1 15  1  0  0  0  0
  2  6  1  1  0  0  0
  2 16  1  0  0  0  0
  2 12  1  0  0  0  0
  3 21  1  0  0  0  0
  4 14  1  0  0  0  0
  5 13  1  0  0  0  0
  7 11  1  0  0  0  0
  8 10  2  0  0  0  0
  9  7  2  0  0  0  0
 10 19  1  0  0  0  0
 12 23  1  0  0  0  0
 12  1  1  0  0  0  0
 13  4  2  0  0  0  0
 13  9  1  0  0  0  0
 14 18  1  0  0  0  0
 14 11  2  0  0  0  0
 15 20  1  0  0  0  0
 16 11  1  6  0  0  0
 16  3  1  0  0  0  0
 17  8  1  0  0  0  0
 18  6  1  0  0  0  0
 20 19  2  0  0  0  0
 21 17  1  0  0  0  0
 21 15  2  0  0  0  0
 22 26  1  0  0  0  0
 23 27  1  0  0  0  0
 24 25  1  0  0  0  0
 24 23  2  0  0  0  0
 25 22  2  0  0  0  0
 27 26  2  0  0  0  0
M  END
>  <MODEL>
6

>  <REMARK>
 VINA RESULT:      -7.6      1.597      6.125
  Name = 
  1 active torsions:
  status: ('A' for Active; 'I' for Inactive)
    1  A    between atoms: C_9  and  N_15
                            x       y       z     vdW  Elec       q    Type
                         _______ _______ _______ _____ _____    ______ ____

>  <TORSDO>
F 1

$$$$
=
 OpenBabel11052418243D

 27 31  0  0  1  0  0  0  0  0999 V2000
  190.3090  174.6750  145.2570 C   0  0  0  0  0  2  0  0  0  0  0  0
  189.3640  175.0810  142.9530 C   0  0  1  0  0  3  0  0  0  0  0  0
  191.7610  175.4240  142.8060 O   0  0  0  0  0  0  0  0  0  0  0  0
  189.5990  173.3780  139.0520 C   0  0  0  0  0  3  0  0  0  0  0  0
  190.8800  172.6330  137.0430 C   0  0  0  0  0  1  0  0  0  0  0  0
  188.2380  174.1640  142.4930 C   0  0  0  0  0  2  0  0  0  0  0  0
  191.9700  173.7860  140.4740 C   0  0  0  0  0  3  0  0  0  0  0  0
  194.5290  176.1960  144.7800 C   0  0  0  0  0  3  0  0  0  0  0  0
  192.0150  173.3210  139.1570 C   0  0  0  0  0  3  0  0  0  0  0  0
  194.5220  175.9010  146.0780 C   0  0  0  0  0  3  0  0  0  0  0  0
  190.7420  174.0690  141.0870 C   0  0  0  0  0  0  0  0  0  0  0  0
  189.2920  175.2880  144.4040 N   0  0  0  0  0  0  0  0  0  0  0  0
  190.8310  173.1210  138.4460 C   0  0  0  0  0  0  0  0  0  0  0  0
  189.5420  173.8320  140.3740 C   0  0  0  0  0  0  0  0  0  0  0  0
  191.5700  175.4850  145.2390 C   0  0  0  0  0  0  0  0  0  0  0  0
  190.7190  174.4890  142.5360 C   0  0  2  0  0  3  0  0  0  0  0  0
  193.3450  176.7850  144.0940 C   0  0  0  0  0  2  0  0  0  0  0  0
  188.1990  174.1430  140.9690 C   0  0  0  0  0  2  0  0  0  0  0  0
  193.3420  176.0360  146.9520 C   0  0  0  0  0  3  0  0  0  0  0  0
  192.0670  175.8660  146.5820 C   0  0  0  0  0  3  0  0  0  0  0  0
  192.1860  175.8430  144.0810 C   0  0  0  0  0  0  0  0  0  0  0  0
  186.4460  177.9810  146.0650 C   0  0  0  0  0  3  0  0  0  0  0  0
  188.3280  176.2020  144.9690 C   0  0  0  0  0  0  0  0  0  0  0  0
  187.9060  176.0650  146.3020 C   0  0  0  0  0  3  0  0  0  0  0  0
  186.9720  176.9500  146.8470 C   0  0  0  0  0  3  0  0  0  0  0  0
  186.8570  178.1280  144.7380 C   0  0  0  0  0  3  0  0  0  0  0  0
  187.7920  177.2440  144.1940 C   0  0  0  0  0  3  0  0  0  0  0  0
  2  6  1  1  0  0  0
  2 12  1  0  0  0  0
  3 21  1  0  0  0  0
  4 14  1  0  0  0  0
  5 13  1  0  0  0  0
  7 11  1  0  0  0  0
  8 10  2  0  0  0  0
  9  7  2  0  0  0  0
 10 19  1  0  0  0  0
 12 23  1  0  0  0  0
 12  1  1  0  0  0  0
 13  4  2  0  0  0  0
 13  9  1  0  0  0  0
 14 18  1  0  0  0  0
 14 11  2  0  0  0  0
 15  1  1  0  0  0  0
 15 20  1  0  0  0  0
 16 11  1  6  0  0  0
 16  3  1  0  0  0  0
 16  2  1  0  0  0  0
 17  8  1  0  0  0  0
 18  6  1  0  0  0  0
 20 19  2  0  0  0  0
 21 17  1  0  0  0  0
 21 15  2  0  0  0  0
 22 25  1  0  0  0  0
 23 24  1  0  0  0  0
 24 25  2  0  0  0  0
 26 22  2  0  0  0  0
 27 26  1  0  0  0  0
 27 23  2  0  0  0  0
M  END
>  <MODEL>
7

>  <REMARK>
 VINA RESULT:      -7.3      1.541      6.011
  Name = 
  1 active torsions:
  status: ('A' for Active; 'I' for Inactive)
    1  A    between atoms: C_9  and  N_15
                            x       y       z     vdW  Elec       q    Type
                         _______ _______ _______ _____ _____    ______ ____

>  <TORSDO>
F 1

$$$$
=
 OpenBabel11052418243D

 27 31  0  0  1  0  0  0  0  0999 V2000
  191.7140  173.5270  143.2830 C   0  0  0  0  0  2  0  0  0  0  0  0
  190.8550  175.8930  143.4560 C   0  0  1  0  0  3  0  0  0  0  0  0
  189.5520  174.7910  141.7320 O   0  0  0  0  0  0  0  0  0  0  0  0
  187.2690  177.9230  144.5470 C   0  0  0  0  0  3  0  0  0  0  0  0
  184.8250  178.3710  144.3030 C   0  0  0  0  0  1  0  0  0  0  0  0
  190.7580  176.4960  144.8520 C   0  0  0  0  0  2  0  0  0  0  0  0
  187.0870  175.7210  142.8360 C   0  0  0  0  0  3  0  0  0  0  0  0
  189.6910  172.1080  139.5100 C   0  0  0  0  0  3  0  0  0  0  0  0
  185.9460  176.4690  143.1380 C   0  0  0  0  0  3  0  0  0  0  0  0
  190.4500  171.0520  139.7910 C   0  0  0  0  0  3  0  0  0  0  0  0
  188.3320  176.0760  143.3720 C   0  0  0  0  0  0  0  0  0  0  0  0
  191.9860  174.9600  143.3820 N   0  0  0  0  0  0  0  0  0  0  0  0
  186.0380  177.5710  143.9890 C   0  0  0  0  0  0  0  0  0  0  0  0
  188.4140  177.1740  144.2620 C   0  0  0  0  0  0  0  0  0  0  0  0
  191.3570  173.1530  141.8770 C   0  0  0  0  0  0  0  0  0  0  0  0
  189.5310  175.2010  143.0970 C   0  0  2  0  0  3  0  0  0  0  0  0
  190.1600  173.5050  139.7330 C   0  0  0  0  0  2  0  0  0  0  0  0
  189.7260  177.6180  144.8440 C   0  0  0  0  0  2  0  0  0  0  0  0
  191.7790  171.1320  140.4230 C   0  0  0  0  0  3  0  0  0  0  0  0
  192.1710  172.0490  141.3160 C   0  0  0  0  0  3  0  0  0  0  0  0
  190.3780  173.7920  141.1830 C   0  0  0  0  0  0  0  0  0  0  0  0
  195.9660  176.4160  143.0020 C   0  0  0  0  0  3  0  0  0  0  0  0
  193.3360  175.4520  143.2540 C   0  0  0  0  0  0  0  0  0  0  0  0
  194.2050  175.4580  144.3580 C   0  0  0  0  0  3  0  0  0  0  0  0
  195.5120  175.9360  144.2320 C   0  0  0  0  0  3  0  0  0  0  0  0
  195.1120  176.4160  141.8960 C   0  0  0  0  0  3  0  0  0  0  0  0
  193.8060  175.9360  142.0210 C   0  0  0  0  0  3  0  0  0  0  0  0
  1 12  1  0  0  0  0
  2  6  1  1  0  0  0
  7  9  2  0  0  0  0
  7 11  1  0  0  0  0
  8 17  1  0  0  0  0
  8 10  2  0  0  0  0
  9 13  1  0  0  0  0
 10 19  1  0  0  0  0
 11 14  2  0  0  0  0
 12  2  1  0  0  0  0
 13  5  1  0  0  0  0
 13  4  2  0  0  0  0
 14  4  1  0  0  0  0
 14 18  1  0  0  0  0
 15  1  1  0  0  0  0
 16  3  1  6  0  0  0
 16 11  1  0  0  0  0
 16  2  1  0  0  0  0
 17 21  1  0  0  0  0
 18  6  1  0  0  0  0
 19 20  2  0  0  0  0
 20 15  1  0  0  0  0
 21  3  1  0  0  0  0
 21 15  2  0  0  0  0
 22 25  1  0  0  0  0
 23 12  1  0  0  0  0
 23 24  1  0  0  0  0
 25 24  2  0  0  0  0
 26 27  1  0  0  0  0
 26 22  2  0  0  0  0
 27 23  2  0  0  0  0
M  END
>  <MODEL>
8

>  <REMARK>
 VINA RESULT:      -7.1      1.686      4.854
  Name = 
  1 active torsions:
  status: ('A' for Active; 'I' for Inactive)
    1  A    between atoms: C_9  and  N_15
                            x       y       z     vdW  Elec       q    Type
                         _______ _______ _______ _____ _____    ______ ____

>  <TORSDO>
F 1

$$$$
=
 OpenBabel11052418243D

 27 31  0  0  1  0  0  0  0  0999 V2000
  186.4650  176.0340  144.4350 C   0  0  0  0  0  2  0  0  0  0  0  0
  188.7880  176.4980  143.5650 C   0  0  1  0  0  3  0  0  0  0  0  0
  188.6290  177.5420  145.7500 O   0  0  0  0  0  0  0  0  0  0  0  0
  192.8250  175.5590  144.5620 C   0  0  0  0  0  3  0  0  0  0  0  0
  194.7610  175.5380  146.1380 C   0  0  0  0  0  1  0  0  0  0  0  0
  189.4810  175.3750  142.8040 C   0  0  0  0  0  2  0  0  0  0  0  0
  191.1130  176.4160  146.5980 C   0  0  0  0  0  3  0  0  0  0  0  0
  186.2820  178.7710  148.0160 C   0  0  0  0  0  3  0  0  0  0  0  0
  192.4660  176.1920  146.8690 C   0  0  0  0  0  3  0  0  0  0  0  0
  185.0420  178.2910  148.0140 C   0  0  0  0  0  3  0  0  0  0  0  0
  190.6070  176.2310  145.3050 C   0  0  0  0  0  0  0  0  0  0  0  0
  187.3390  176.4480  143.3380 N   0  0  0  0  0  0  0  0  0  0  0  0
  193.3210  175.7690  145.8510 C   0  0  0  0  0  0  0  0  0  0  0  0
  191.4700  175.7670  144.2840 C   0  0  0  0  0  0  0  0  0  0  0  0
  186.2430  177.1680  145.3890 C   0  0  0  0  0  0  0  0  0  0  0  0
  189.1270  176.3970  145.0600 C   0  0  2  0  0  3  0  0  0  0  0  0
  187.0130  179.0890  146.7570 C   0  0  0  0  0  2  0  0  0  0  0  0
  190.9900  175.5790  142.8730 C   0  0  0  0  0  2  0  0  0  0  0  0
  184.2910  177.9400  146.7940 C   0  0  0  0  0  3  0  0  0  0  0  0
  184.8160  177.4660  145.6580 C   0  0  0  0  0  3  0  0  0  0  0  0
  187.2720  177.8640  145.9420 C   0  0  0  0  0  0  0  0  0  0  0  0
  185.6640  177.9160  139.7130 C   0  0  0  0  0  3  0  0  0  0  0  0
  186.7700  176.9440  142.1080 C   0  0  0  0  0  0  0  0  0  0  0  0
  187.3920  176.6840  140.8750 C   0  0  0  0  0  3  0  0  0  0  0  0
  186.8420  177.1660  139.6840 C   0  0  0  0  0  3  0  0  0  0  0  0
  185.0350  178.1820  140.9310 C   0  0  0  0  0  3  0  0  0  0  0  0
  185.5850  177.6980  142.1220 C   0  0  0  0  0  3  0  0  0  0  0  0
  1 15  1  0  0  0  0
  2  6  1  6  0  0  0
  2 16  1  0  0  0  0
  3 21  1  0  0  0  0
  4 13  1  0  0  0  0
  6 18  1  0  0  0  0
  7  9  1  0  0  0  0
 10  8  2  0  0  0  0
 11  7  2  0  0  0  0
 12  2  1  0  0  0  0
 12  1  1  0  0  0  0
 13  5  1  0  0  0  0
 13  9  2  0  0  0  0
 14  4  2  0  0  0  0
 14 11  1  0  0  0  0
 15 20  1  0  0  0  0
 15 21  2  0  0  0  0
 16 11  1  6  0  0  0
 16  3  1  0  0  0  0
 17  8  1  0  0  0  0
 18 14  1  0  0  0  0
 19 10  1  0  0  0  0
 20 19  2  0  0  0  0
 21 17  1  0  0  0  0
 22 26  1  0  0  0  0
 23 27  1  0  0  0  0
 23 12  1  0  0  0  0
 24 23  2  0  0  0  0
 25 22  2  0  0  0  0
 25 24  1  0  0  0  0
 26 27  2  0  0  0  0
M  END
>  <MODEL>
9

>  <REMARK>
 VINA RESULT:      -7.0      1.965      6.444
  Name = 
  1 active torsions:
  status: ('A' for Active; 'I' for Inactive)
    1  A    between atoms: C_9  and  N_15
                            x       y       z     vdW  Elec       q    Type
                         _______ _______ _______ _____ _____    ______ ____

>  <TORSDO>
F 1

$$$$
