=
 OpenBabel11052418503D

 34 38  0  0  1  0  0  0  0  0999 V2000
  185.6080  178.6720  145.0610 C   0  0  0  0  0  0  0  0  0  0  0  0
  186.7350  177.1130  146.5740 C   0  0  0  0  0  0  0  0  0  0  0  0
  187.5330  177.4120  144.2870 C   0  0  0  0  0  0  0  0  0  0  0  0
  189.5840  175.8900  143.7640 N   0  0  0  0  0  0  0  0  0  0  0  0
  184.8110  178.3760  147.3330 C   0  0  0  0  0  3  0  0  0  0  0  0
  185.8240  177.4390  147.5820 C   0  0  0  0  0  3  0  0  0  0  0  0
  188.6550  175.8730  145.7630 C   0  0  0  0  0  0  0  0  0  0  0  0
  186.6230  177.7330  145.3090 C   0  0  0  0  0  0  0  0  0  0  0  0
  190.3840  175.0250  144.4600 O   0  0  0  0  0  0  0  0  0  0  0  0
  184.7020  178.9910  146.0770 C   0  0  0  0  0  3  0  0  0  0  0  0
  186.4530  178.9250  142.8130 C   0  0  0  0  0  3  0  0  0  0  0  0
  185.5230  179.2720  143.8020 C   0  0  0  0  0  3  0  0  0  0  0  0
  187.7590  176.1720  146.8000 O   0  0  0  0  0  0  0  0  0  0  0  0
  189.7640  174.8910  145.7410 C   0  0  1  0  0  3  0  0  0  0  0  0
  188.5860  176.4300  144.5990 C   0  0  0  0  0  0  0  0  0  0  0  0
  187.4300  178.0110  143.0700 N   0  0  0  0  0  0  0  0  0  0  0  0
  190.7210  175.2130  146.7860 N   0  0  0  0  0  2  0  0  0  0  0  0
  192.0170  175.3730  146.1460 C   0  0  0  0  0  2  0  0  0  0  0  0
  192.8690  176.3530  146.9330 C   0  0  0  0  0  2  0  0  0  0  0  0
  194.1100  176.7330  146.1330 C   0  0  0  0  0  2  0  0  0  0  0  0
  195.6630  174.9350  145.7780 O   0  0  0  0  0  1  0  0  0  0  0  0
  194.5710  175.6010  145.2170 C   0  0  2  0  0  3  0  0  0  0  0  0
  194.9280  176.1050  143.8280 C   0  0  0  0  0  2  0  0  0  0  0  0
  196.7640  176.4850  142.6650 C   0  0  0  0  0  1  0  0  0  0  0  0
  196.1350  176.8050  143.8680 O   0  0  0  0  0  0  0  0  0  0  0  0
  189.3350  175.6850  142.3460 C   0  0  0  0  0  2  0  0  0  0  0  0
  188.2310  174.6620  142.1530 C   0  0  0  0  0  2  0  0  0  0  0  0
  191.0210  171.4920  140.7100 C   0  0  0  0  0  2  0  0  0  0  0  0
  189.8130  172.0080  139.9500 C   0  0  0  0  0  2  0  0  0  0  0  0
  188.8210  173.3620  141.7370 C   0  0  0  0  0  0  0  0  0  0  0  0
  189.2990  173.2430  140.5330 N   0  0  0  0  0  0  0  0  0  0  0  0
  190.0950  171.5940  143.0320 C   0  0  0  0  0  2  0  0  0  0  0  0
  188.8620  172.2870  142.6820 N   0  0  0  0  0  2  0  0  0  0  0  0
  190.5620  170.6830  141.9090 C   0  0  0  0  0  2  0  0  0  0  0  0
  1  8  1  0  0  0  0
  1 10  2  0  0  0  0
  2 13  1  0  0  0  0
  2  6  1  0  0  0  0
  3 15  1  0  0  0  0
  3  8  1  0  0  0  0
  4  9  1  0  0  0  0
  4 15  1  0  0  0  0
  5  6  2  0  0  0  0
  7 13  1  0  0  0  0
  8  2  2  0  0  0  0
  9 14  1  0  0  0  0
 10  5  1  0  0  0  0
 11 16  1  0  0  0  0
 11 12  2  0  0  0  0
 12  1  1  0  0  0  0
 14  7  1  0  0  0  0
 14 17  1  1  0  0  0
 15  7  2  0  0  0  0
 16  3  2  0  0  0  0
 18 17  1  0  0  0  0
 18 19  1  0  0  0  0
 20 19  1  0  0  0  0
 22 21  1  1  0  0  0
 22 20  1  0  0  0  0
 23 25  1  0  0  0  0
 23 22  1  0  0  0  0
 24 25  1  0  0  0  0
 26  4  1  0  0  0  0
 27 26  1  0  0  0  0
 28 34  1  0  0  0  0
 29 31  1  0  0  0  0
 29 28  1  0  0  0  0
 30 27  1  0  0  0  0
 30 33  1  0  0  0  0
 31 30  2  0  0  0  0
 33 32  1  0  0  0  0
 34 32  1  0  0  0  0
M  END
>  <MODEL>
1

>  <REMARK>
 VINA RESULT:      -7.4      0.000      0.000
  Name = 
  10 active torsions:
  status: ('A' for Active; 'I' for Inactive)
    1  A    between atoms: C_3  and  C_13
    2  A    between atoms: C_3  and  N_17
    3  A    between atoms: N_5  and  C_26
    4  A    between atoms: C_12  and  C_28
    5  A    between atoms: C_13  and  C_33
    6  A    between atoms: O_14  and  C_20
    7  A    between atoms: N_17  and  C_29
    8  A    between atoms: C_20  and  C_34
    9  A    between atoms: C_26  and  C_28
   10  A    between atoms: C_33  and  C_34
                            x       y       z     vdW  Elec       q    Type
                         _______ _______ _______ _____ _____    ______ ____

>  <TORSDO>
F 10

$$$$
=
 OpenBabel11052418503D

 34 38  0  0  1  0  0  0  0  0999 V2000
  185.5620  178.5730  144.6510 C   0  0  0  0  0  0  0  0  0  0  0  0
  186.5170  177.1720  146.4150 C   0  0  0  0  0  0  0  0  0  0  0  0
  187.5690  177.2780  144.2150 C   0  0  0  0  0  0  0  0  0  0  0  0
  189.6720  175.7460  144.0660 N   0  0  0  0  0  0  0  0  0  0  0  0
  184.5140  178.4680  146.8360 C   0  0  0  0  0  3  0  0  0  0  0  0
  185.4960  177.5720  147.2800 C   0  0  0  0  0  3  0  0  0  0  0  0
  188.5220  175.8930  145.9410 C   0  0  0  0  0  0  0  0  0  0  0  0
  186.5470  177.6760  145.0950 C   0  0  0  0  0  0  0  0  0  0  0  0
  190.3920  174.9580  144.9220 O   0  0  0  0  0  0  0  0  0  0  0  0
  184.5450  178.9680  145.5260 C   0  0  0  0  0  3  0  0  0  0  0  0
  186.6550  178.6380  142.4990 C   0  0  0  0  0  3  0  0  0  0  0  0
  185.6180  179.0580  143.3420 C   0  0  0  0  0  3  0  0  0  0  0  0
  187.5130  176.2700  146.8390 O   0  0  0  0  0  0  0  0  0  0  0  0
  189.6300  174.9290  146.1320 C   0  0  1  0  0  3  0  0  0  0  0  0
  188.5830  176.3430  144.7310 C   0  0  0  0  0  0  0  0  0  0  0  0
  187.6020  177.7660  142.9460 N   0  0  0  0  0  0  0  0  0  0  0  0
  190.4620  175.3570  147.2450 N   0  0  0  0  0  2  0  0  0  0  0  0
  191.8430  175.0980  146.8730 C   0  0  0  0  0  2  0  0  0  0  0  0
  192.6530  176.3790  146.9550 C   0  0  0  0  0  2  0  0  0  0  0  0
  194.0610  176.1490  146.4190 C   0  0  0  0  0  2  0  0  0  0  0  0
  193.0190  177.1660  144.5090 O   0  0  0  0  0  1  0  0  0  0  0  0
  194.2440  176.7290  145.0180 C   0  0  2  0  0  3  0  0  0  0  0  0
  194.8740  175.7260  144.0650 C   0  0  0  0  0  2  0  0  0  0  0  0
  196.6800  176.7580  143.3310 C   0  0  0  0  0  1  0  0  0  0  0  0
  196.2630  175.7470  144.1960 O   0  0  0  0  0  0  0  0  0  0  0  0
  189.5870  175.4130  142.6520 C   0  0  0  0  0  2  0  0  0  0  0  0
  188.6390  174.2450  142.4490 C   0  0  0  0  0  2  0  0  0  0  0  0
  189.7920  173.7010  138.1720 C   0  0  0  0  0  2  0  0  0  0  0  0
  188.3960  174.0300  138.6680 C   0  0  0  0  0  2  0  0  0  0  0  0
  188.7880  173.7150  141.0680 C   0  0  0  0  0  0  0  0  0  0  0  0
  188.4080  174.4510  140.0650 N   0  0  0  0  0  0  0  0  0  0  0  0
  190.5180  172.1830  140.0240 C   0  0  0  0  0  2  0  0  0  0  0  0
  189.3640  172.4160  140.8830 N   0  0  0  0  0  2  0  0  0  0  0  0
  190.1460  172.2750  138.5530 C   0  0  0  0  0  2  0  0  0  0  0  0
  1  8  1  0  0  0  0
  1 10  2  0  0  0  0
  2 13  1  0  0  0  0
  2  6  1  0  0  0  0
  3 15  1  0  0  0  0
  3  8  1  0  0  0  0
  4 15  1  0  0  0  0
  4  9  1  0  0  0  0
  5  6  2  0  0  0  0
  7 14  1  0  0  0  0
  7 13  1  0  0  0  0
  8  2  2  0  0  0  0
  9 14  1  0  0  0  0
 10  5  1  0  0  0  0
 11 16  1  0  0  0  0
 11 12  2  0  0  0  0
 12  1  1  0  0  0  0
 14 17  1  1  0  0  0
 15  7  2  0  0  0  0
 16  3  2  0  0  0  0
 18 19  1  0  0  0  0
 18 17  1  0  0  0  0
 20 19  1  0  0  0  0
 22 21  1  6  0  0  0
 22 20  1  0  0  0  0
 23 25  1  0  0  0  0
 23 22  1  0  0  0  0
 24 25  1  0  0  0  0
 26  4  1  0  0  0  0
 27 26  1  0  0  0  0
 28 34  1  0  0  0  0
 28 29  1  0  0  0  0
 29 31  1  0  0  0  0
 30 27  1  0  0  0  0
 31 30  2  0  0  0  0
 32 33  1  0  0  0  0
 33 30  1  0  0  0  0
 34 32  1  0  0  0  0
M  END
>  <MODEL>
2

>  <REMARK>
 VINA RESULT:      -7.4      1.061      1.457
  Name = 
  10 active torsions:
  status: ('A' for Active; 'I' for Inactive)
    1  A    between atoms: C_3  and  C_13
    2  A    between atoms: C_3  and  N_17
    3  A    between atoms: N_5  and  C_26
    4  A    between atoms: C_12  and  C_28
    5  A    between atoms: C_13  and  C_33
    6  A    between atoms: O_14  and  C_20
    7  A    between atoms: N_17  and  C_29
    8  A    between atoms: C_20  and  C_34
    9  A    between atoms: C_26  and  C_28
   10  A    between atoms: C_33  and  C_34
                            x       y       z     vdW  Elec       q    Type
                         _______ _______ _______ _____ _____    ______ ____

>  <TORSDO>
F 10

$$$$
=
 OpenBabel11052418503D

 34 38  0  0  1  0  0  0  0  0999 V2000
  185.1850  177.9860  145.7860 C   0  0  0  0  0  0  0  0  0  0  0  0
  185.8260  177.6760  143.4450 C   0  0  0  0  0  0  0  0  0  0  0  0
  187.1200  176.6300  145.2300 C   0  0  0  0  0  0  0  0  0  0  0  0
  189.1480  175.2810  144.3010 N   0  0  0  0  0  0  0  0  0  0  0  0
  183.8970  179.0280  144.0140 C   0  0  0  0  0  3  0  0  0  0  0  0
  184.7510  178.4770  143.0490 C   0  0  0  0  0  3  0  0  0  0  0  0
  187.7650  176.3140  142.9300 C   0  0  0  0  0  0  0  0  0  0  0  0
  186.0410  177.4330  144.8200 C   0  0  0  0  0  0  0  0  0  0  0  0
  189.6330  174.9360  143.0690 O   0  0  0  0  0  0  0  0  0  0  0  0
  184.1120  178.7850  145.3790 C   0  0  0  0  0  3  0  0  0  0  0  0
  186.5050  176.9190  147.5040 C   0  0  0  0  0  3  0  0  0  0  0  0
  185.4200  177.7270  147.1380 C   0  0  0  0  0  3  0  0  0  0  0  0
  186.6990  177.1130  142.4930 O   0  0  0  0  0  0  0  0  0  0  0  0
  188.8360  175.6680  142.1360 C   0  0  1  0  0  3  0  0  0  0  0  0
  187.9840  176.0650  144.1790 C   0  0  0  0  0  0  0  0  0  0  0  0
  187.3270  176.3910  146.5530 N   0  0  0  0  0  0  0  0  0  0  0  0
  188.2440  174.7540  141.1730 N   0  0  0  0  0  2  0  0  0  0  0  0
  189.3360  174.1440  140.4330 C   0  0  0  0  0  2  0  0  0  0  0  0
  189.1790  172.6340  140.4250 C   0  0  0  0  0  2  0  0  0  0  0  0
  190.4190  171.9720  141.0160 C   0  0  0  0  0  2  0  0  0  0  0  0
  189.0060  171.8310  142.9520 O   0  0  0  0  0  1  0  0  0  0  0  0
  190.1170  171.2570  142.3310 C   0  0  2  0  0  3  0  0  0  0  0  0
  191.3080  171.2790  143.2760 C   0  0  0  0  0  2  0  0  0  0  0  0
  192.4030  172.5840  144.6770 C   0  0  0  0  0  1  0  0  0  0  0  0
  191.1150  172.2400  144.2690 O   0  0  0  0  0  0  0  0  0  0  0  0
  190.0530  175.4660  145.4250 C   0  0  0  0  0  2  0  0  0  0  0  0
  190.6950  176.8400  145.3560 C   0  0  0  0  0  2  0  0  0  0  0  0
  194.8650  175.2890  145.7020 C   0  0  0  0  0  2  0  0  0  0  0  0
  194.2830  176.4270  146.5190 C   0  0  0  0  0  2  0  0  0  0  0  0
  192.1740  176.6990  145.2990 C   0  0  0  0  0  0  0  0  0  0  0  0
  192.8300  176.4850  146.4020 N   0  0  0  0  0  0  0  0  0  0  0  0
  193.7120  175.7380  143.5270 C   0  0  0  0  0  2  0  0  0  0  0  0
  192.8290  176.7840  144.0280 N   0  0  0  0  0  2  0  0  0  0  0  0
  195.0430  175.7320  144.2620 C   0  0  0  0  0  2  0  0  0  0  0  0
  1 12  1  0  0  0  0
  2  8  1  0  0  0  0
  3 16  2  0  0  0  0
  4 26  1  0  0  0  0
  5 10  2  0  0  0  0
  6  2  2  0  0  0  0
  6  5  1  0  0  0  0
  7 15  2  0  0  0  0
  8  3  1  0  0  0  0
  8  1  2  0  0  0  0
  9  4  1  0  0  0  0
 10  1  1  0  0  0  0
 12 11  2  0  0  0  0
 13  7  1  0  0  0  0
 13  2  1  0  0  0  0
 14 17  1  6  0  0  0
 14  7  1  0  0  0  0
 14  9  1  0  0  0  0
 15  4  1  0  0  0  0
 15  3  1  0  0  0  0
 16 11  1  0  0  0  0
 18 17  1  0  0  0  0
 19 18  1  0  0  0  0
 19 20  1  0  0  0  0
 20 22  1  0  0  0  0
 22 21  1  1  0  0  0
 22 23  1  0  0  0  0
 23 25  1  0  0  0  0
 25 24  1  0  0  0  0
 27 26  1  0  0  0  0
 28 29  1  0  0  0  0
 30 27  1  0  0  0  0
 30 31  2  0  0  0  0
 31 29  1  0  0  0  0
 32 33  1  0  0  0  0
 32 34  1  0  0  0  0
 33 30  1  0  0  0  0
 34 28  1  0  0  0  0
M  END
>  <MODEL>
3

>  <REMARK>
 VINA RESULT:      -7.1      2.186      5.353
  Name = 
  10 active torsions:
  status: ('A' for Active; 'I' for Inactive)
    1  A    between atoms: C_3  and  C_13
    2  A    between atoms: C_3  and  N_17
    3  A    between atoms: N_5  and  C_26
    4  A    between atoms: C_12  and  C_28
    5  A    between atoms: C_13  and  C_33
    6  A    between atoms: O_14  and  C_20
    7  A    between atoms: N_17  and  C_29
    8  A    between atoms: C_20  and  C_34
    9  A    between atoms: C_26  and  C_28
   10  A    between atoms: C_33  and  C_34
                            x       y       z     vdW  Elec       q    Type
                         _______ _______ _______ _____ _____    ______ ____

>  <TORSDO>
F 10

$$$$
=
 OpenBabel11052418503D

 34 38  0  0  1  0  0  0  0  0999 V2000
  185.0570  178.5560  145.7720 C   0  0  0  0  0  0  0  0  0  0  0  0
  185.9320  178.0390  143.5460 C   0  0  0  0  0  0  0  0  0  0  0  0
  187.2650  177.5760  145.5380 C   0  0  0  0  0  0  0  0  0  0  0  0
  189.5920  176.5650  144.9390 N   0  0  0  0  0  0  0  0  0  0  0  0
  183.7300  179.0190  143.7940 C   0  0  0  0  0  3  0  0  0  0  0  0
  184.7530  178.5220  142.9750 C   0  0  0  0  0  3  0  0  0  0  0  0
  188.1420  177.0600  143.3540 C   0  0  0  0  0  0  0  0  0  0  0  0
  186.0820  178.0580  144.9510 C   0  0  0  0  0  0  0  0  0  0  0  0
  190.2340  176.1490  143.8040 O   0  0  0  0  0  0  0  0  0  0  0  0
  183.8800  179.0370  145.1890 C   0  0  0  0  0  3  0  0  0  0  0  0
  186.4250  178.0680  147.7020 C   0  0  0  0  0  3  0  0  0  0  0  0
  185.2300  178.5610  147.1580 C   0  0  0  0  0  3  0  0  0  0  0  0
  186.9740  177.5370  142.7420 O   0  0  0  0  0  0  0  0  0  0  0  0
  189.3820  176.5440  142.7270 C   0  0  1  0  0  3  0  0  0  0  0  0
  188.3070  177.0550  144.6360 C   0  0  0  0  0  0  0  0  0  0  0  0
  187.4090  177.5890  146.8900 N   0  0  0  0  0  0  0  0  0  0  0  0
  189.0660  175.3900  141.9020 N   0  0  0  0  0  2  0  0  0  0  0  0
  190.1380  174.4250  142.0870 C   0  0  0  0  0  2  0  0  0  0  0  0
  189.7610  173.1000  141.4480 C   0  0  0  0  0  2  0  0  0  0  0  0
  188.3220  173.1460  140.9490 C   0  0  0  0  0  2  0  0  0  0  0  0
  189.1970  171.8460  139.1290 O   0  0  0  0  0  1  0  0  0  0  0  0
  188.2150  172.7780  139.4700 C   0  0  2  0  0  3  0  0  0  0  0  0
  188.3260  174.0000  138.5720 C   0  0  0  0  0  2  0  0  0  0  0  0
  188.9520  174.4780  136.5110 C   0  0  0  0  0  1  0  0  0  0  0  0
  189.3830  173.8420  137.6750 O   0  0  0  0  0  0  0  0  0  0  0  0
  190.3480  177.1070  146.0580 C   0  0  0  0  0  2  0  0  0  0  0  0
  190.8130  175.9830  146.9650 C   0  0  0  0  0  2  0  0  0  0  0  0
  194.4080  174.6800  144.6650 C   0  0  0  0  0  2  0  0  0  0  0  0
  193.6530  173.8270  145.6670 C   0  0  0  0  0  2  0  0  0  0  0  0
  192.1880  175.5670  146.5820 C   0  0  0  0  0  0  0  0  0  0  0  0
  192.3610  174.4140  146.0060 N   0  0  0  0  0  0  0  0  0  0  0  0
  194.2000  176.8980  145.8030 C   0  0  0  0  0  2  0  0  0  0  0  0
  193.2780  176.4590  146.8430 N   0  0  0  0  0  2  0  0  0  0  0  0
  195.1500  175.7860  145.3910 C   0  0  0  0  0  2  0  0  0  0  0  0
  1 12  1  0  0  0  0
  2  8  1  0  0  0  0
  3 16  2  0  0  0  0
  4 26  1  0  0  0  0
  5 10  2  0  0  0  0
  6  2  2  0  0  0  0
  6  5  1  0  0  0  0
  7 15  2  0  0  0  0
  8  3  1  0  0  0  0
  8  1  2  0  0  0  0
  9  4  1  0  0  0  0
 10  1  1  0  0  0  0
 12 11  2  0  0  0  0
 13  7  1  0  0  0  0
 13  2  1  0  0  0  0
 14 17  1  6  0  0  0
 14  7  1  0  0  0  0
 14  9  1  0  0  0  0
 15  4  1  0  0  0  0
 15  3  1  0  0  0  0
 16 11  1  0  0  0  0
 17 18  1  0  0  0  0
 19 18  1  0  0  0  0
 20 19  1  0  0  0  0
 22 21  1  6  0  0  0
 22 20  1  0  0  0  0
 23 22  1  0  0  0  0
 24 25  1  0  0  0  0
 25 23  1  0  0  0  0
 26 27  1  0  0  0  0
 28 34  1  0  0  0  0
 28 29  1  0  0  0  0
 29 31  1  0  0  0  0
 30 33  1  0  0  0  0
 30 27  1  0  0  0  0
 31 30  2  0  0  0  0
 32 33  1  0  0  0  0
 34 32  1  0  0  0  0
M  END
>  <MODEL>
4

>  <REMARK>
 VINA RESULT:      -6.9      2.441      5.812
  Name = 
  10 active torsions:
  status: ('A' for Active; 'I' for Inactive)
    1  A    between atoms: C_3  and  C_13
    2  A    between atoms: C_3  and  N_17
    3  A    between atoms: N_5  and  C_26
    4  A    between atoms: C_12  and  C_28
    5  A    between atoms: C_13  and  C_33
    6  A    between atoms: O_14  and  C_20
    7  A    between atoms: N_17  and  C_29
    8  A    between atoms: C_20  and  C_34
    9  A    between atoms: C_26  and  C_28
   10  A    between atoms: C_33  and  C_34
                            x       y       z     vdW  Elec       q    Type
                         _______ _______ _______ _____ _____    ______ ____

>  <TORSDO>
F 10

$$$$
=
 OpenBabel11052418503D

 34 38  0  0  1  0  0  0  0  0999 V2000
  186.2220  177.3930  146.6520 C   0  0  0  0  0  0  0  0  0  0  0  0
  184.9940  178.3300  144.7550 C   0  0  0  0  0  0  0  0  0  0  0  0
  187.0580  177.0800  144.3940 C   0  0  0  0  0  0  0  0  0  0  0  0
  187.6970  176.9620  141.8690 N   0  0  0  0  0  0  0  0  0  0  0  0
  184.1710  178.6360  147.0140 C   0  0  0  0  0  3  0  0  0  0  0  0
  184.0380  178.8460  145.6340 C   0  0  0  0  0  3  0  0  0  0  0  0
  185.8610  177.9970  142.5150 C   0  0  0  0  0  0  0  0  0  0  0  0
  186.0900  177.6020  145.2690 C   0  0  0  0  0  0  0  0  0  0  0  0
  187.1360  177.3470  140.6820 O   0  0  0  0  0  0  0  0  0  0  0  0
  185.2600  177.9120  147.5230 C   0  0  0  0  0  3  0  0  0  0  0  0
  188.2560  176.1610  146.2250 C   0  0  0  0  0  3  0  0  0  0  0  0
  187.3150  176.6660  147.1320 C   0  0  0  0  0  3  0  0  0  0  0  0
  184.8820  178.5310  143.3650 O   0  0  0  0  0  0  0  0  0  0  0  0
  185.9900  178.1200  141.0450 C   0  0  1  0  0  3  0  0  0  0  0  0
  186.8700  177.3180  142.9530 C   0  0  0  0  0  0  0  0  0  0  0  0
  188.1120  176.3750  144.8870 N   0  0  0  0  0  0  0  0  0  0  0  0
  184.8060  177.5730  140.4040 N   0  0  0  0  0  2  0  0  0  0  0  0
  183.7610  178.5780  140.5020 C   0  0  0  0  0  2  0  0  0  0  0  0
  182.3960  177.9130  140.4940 C   0  0  0  0  0  2  0  0  0  0  0  0
  181.4460  178.6460  141.4330 C   0  0  0  0  0  2  0  0  0  0  0  0
  180.3200  180.5550  140.5080 O   0  0  0  0  0  1  0  0  0  0  0  0
  180.2140  179.1770  140.7030 C   0  0  2  0  0  3  0  0  0  0  0  0
  178.9290  178.8560  141.4510 C   0  0  0  0  0  2  0  0  0  0  0  0
  178.2130  177.2770  142.8150 C   0  0  0  0  0  1  0  0  0  0  0  0
  178.7640  177.4740  141.5500 O   0  0  0  0  0  0  0  0  0  0  0  0
  189.1430  176.9190  142.0230 C   0  0  0  0  0  2  0  0  0  0  0  0
  189.6190  175.4780  142.0670 C   0  0  0  0  0  2  0  0  0  0  0  0
  192.5990  175.3890  145.3870 C   0  0  0  0  0  2  0  0  0  0  0  0
  192.4710  176.4940  144.3560 C   0  0  0  0  0  2  0  0  0  0  0  0
  190.8800  175.3910  142.8510 C   0  0  0  0  0  0  0  0  0  0  0  0
  191.2200  176.3900  143.6110 N   0  0  0  0  0  0  0  0  0  0  0  0
  192.0660  173.4270  143.9290 C   0  0  0  0  0  2  0  0  0  0  0  0
  191.6710  174.2000  142.7590 N   0  0  0  0  0  2  0  0  0  0  0  0
  193.1470  174.1360  144.7290 C   0  0  0  0  0  2  0  0  0  0  0  0
  1 12  1  0  0  0  0
  1 10  2  0  0  0  0
  2  8  2  0  0  0  0
  2  6  1  0  0  0  0
  3 16  2  0  0  0  0
  3  8  1  0  0  0  0
  4 26  1  0  0  0  0
  4 15  1  0  0  0  0
  5 10  1  0  0  0  0
  6  5  2  0  0  0  0
  7 15  2  0  0  0  0
  7 13  1  0  0  0  0
  8  1  1  0  0  0  0
  9 14  1  0  0  0  0
  9  4  1  0  0  0  0
 11 12  2  0  0  0  0
 13  2  1  0  0  0  0
 14 17  1  6  0  0  0
 14  7  1  0  0  0  0
 15  3  1  0  0  0  0
 16 11  1  0  0  0  0
 17 18  1  0  0  0  0
 19 18  1  0  0  0  0
 19 20  1  0  0  0  0
 22 21  1  1  0  0  0
 22 20  1  0  0  0  0
 22 23  1  0  0  0  0
 23 25  1  0  0  0  0
 25 24  1  0  0  0  0
 26 27  1  0  0  0  0
 27 30  1  0  0  0  0
 29 28  1  0  0  0  0
 30 31  2  0  0  0  0
 31 29  1  0  0  0  0
 32 34  1  0  0  0  0
 33 30  1  0  0  0  0
 33 32  1  0  0  0  0
 34 28  1  0  0  0  0
M  END
>  <MODEL>
5

>  <REMARK>
 VINA RESULT:      -6.9      4.011      8.353
  Name = 
  10 active torsions:
  status: ('A' for Active; 'I' for Inactive)
    1  A    between atoms: C_3  and  C_13
    2  A    between atoms: C_3  and  N_17
    3  A    between atoms: N_5  and  C_26
    4  A    between atoms: C_12  and  C_28
    5  A    between atoms: C_13  and  C_33
    6  A    between atoms: O_14  and  C_20
    7  A    between atoms: N_17  and  C_29
    8  A    between atoms: C_20  and  C_34
    9  A    between atoms: C_26  and  C_28
   10  A    between atoms: C_33  and  C_34
                            x       y       z     vdW  Elec       q    Type
                         _______ _______ _______ _____ _____    ______ ____

>  <TORSDO>
F 10

$$$$
=
 OpenBabel11052418503D

 34 38  0  0  1  0  0  0  0  0999 V2000
  195.0680  174.9330  145.6000 C   0  0  0  0  0  0  0  0  0  0  0  0
  193.7670  172.9010  145.1960 C   0  0  0  0  0  0  0  0  0  0  0  0
  192.7000  175.0930  145.0880 C   0  0  0  0  0  0  0  0  0  0  0  0
  190.1540  174.9130  144.5580 N   0  0  0  0  0  0  0  0  0  0  0  0
  196.1310  172.7550  145.7100 C   0  0  0  0  0  3  0  0  0  0  0  0
  194.9140  172.1300  145.4060 C   0  0  0  0  0  3  0  0  0  0  0  0
  191.4050  173.1020  144.6870 C   0  0  0  0  0  0  0  0  0  0  0  0
  193.8480  174.3080  145.2950 C   0  0  0  0  0  0  0  0  0  0  0  0
  189.2720  173.9160  144.2430 O   0  0  0  0  0  0  0  0  0  0  0  0
  196.2090  174.1530  145.8080 C   0  0  0  0  0  3  0  0  0  0  0  0
  193.9530  177.0720  145.4730 C   0  0  0  0  0  3  0  0  0  0  0  0
  195.1200  176.3270  145.6900 C   0  0  0  0  0  3  0  0  0  0  0  0
  192.5320  172.2940  144.8920 O   0  0  0  0  0  0  0  0  0  0  0  0
  190.0050  172.7010  144.4160 C   0  0  1  0  0  3  0  0  0  0  0  0
  191.4470  174.3920  144.7620 C   0  0  0  0  0  0  0  0  0  0  0  0
  192.7770  176.4480  145.1790 N   0  0  0  0  0  0  0  0  0  0  0  0
  189.9510  171.9170  143.1930 N   0  0  0  0  0  2  0  0  0  0  0  0
  188.7740  172.3500  142.4570 C   0  0  0  0  0  2  0  0  0  0  0  0
  189.1450  172.6620  141.0180 C   0  0  0  0  0  2  0  0  0  0  0  0
  189.3800  174.1580  140.8470 C   0  0  0  0  0  2  0  0  0  0  0  0
  187.8190  175.4770  139.5850 O   0  0  0  0  0  1  0  0  0  0  0  0
  188.0740  174.9490  140.8520 C   0  0  2  0  0  3  0  0  0  0  0  0
  188.0900  176.0650  141.8850 C   0  0  0  0  0  2  0  0  0  0  0  0
  188.4890  178.2350  141.8610 C   0  0  0  0  0  1  0  0  0  0  0  0
  187.6600  177.2600  141.3070 O   0  0  0  0  0  0  0  0  0  0  0  0
  189.7070  176.0920  145.2830 C   0  0  0  0  0  2  0  0  0  0  0  0
  188.5680  175.7280  146.2180 C   0  0  0  0  0  2  0  0  0  0  0  0
  184.6480  177.8430  145.9530 C   0  0  0  0  0  2  0  0  0  0  0  0
  185.7070  177.8240  144.8680 C   0  0  0  0  0  2  0  0  0  0  0  0
  187.5130  176.7730  146.1520 C   0  0  0  0  0  0  0  0  0  0  0  0
  186.7180  176.8030  145.1220 N   0  0  0  0  0  0  0  0  0  0  0  0
  186.1420  177.9050  147.9590 C   0  0  0  0  0  2  0  0  0  0  0  0
  187.3900  177.7020  147.2350 N   0  0  0  0  0  2  0  0  0  0  0  0
  185.1310  178.6760  147.1260 C   0  0  0  0  0  2  0  0  0  0  0  0
  1 12  1  0  0  0  0
  1 10  2  0  0  0  0
  2  8  2  0  0  0  0
  2  6  1  0  0  0  0
  3 16  2  0  0  0  0
  3  8  1  0  0  0  0
  4 15  1  0  0  0  0
  4 26  1  0  0  0  0
  5 10  1  0  0  0  0
  6  5  2  0  0  0  0
  7 15  2  0  0  0  0
  7 13  1  0  0  0  0
  8  1  1  0  0  0  0
  9 14  1  0  0  0  0
  9  4  1  0  0  0  0
 11 12  2  0  0  0  0
 13  2  1  0  0  0  0
 14 17  1  6  0  0  0
 14  7  1  0  0  0  0
 15  3  1  0  0  0  0
 16 11  1  0  0  0  0
 18 17  1  0  0  0  0
 19 18  1  0  0  0  0
 20 22  1  0  0  0  0
 20 19  1  0  0  0  0
 22 21  1  6  0  0  0
 22 23  1  0  0  0  0
 25 24  1  0  0  0  0
 25 23  1  0  0  0  0
 26 27  1  0  0  0  0
 28 34  1  0  0  0  0
 29 31  1  0  0  0  0
 29 28  1  0  0  0  0
 30 27  1  0  0  0  0
 30 33  1  0  0  0  0
 31 30  2  0  0  0  0
 33 32  1  0  0  0  0
 34 32  1  0  0  0  0
M  END
>  <MODEL>
6

>  <REMARK>
 VINA RESULT:      -6.8      2.285      7.797
  Name = 
  10 active torsions:
  status: ('A' for Active; 'I' for Inactive)
    1  A    between atoms: C_3  and  C_13
    2  A    between atoms: C_3  and  N_17
    3  A    between atoms: N_5  and  C_26
    4  A    between atoms: C_12  and  C_28
    5  A    between atoms: C_13  and  C_33
    6  A    between atoms: O_14  and  C_20
    7  A    between atoms: N_17  and  C_29
    8  A    between atoms: C_20  and  C_34
    9  A    between atoms: C_26  and  C_28
   10  A    between atoms: C_33  and  C_34
                            x       y       z     vdW  Elec       q    Type
                         _______ _______ _______ _____ _____    ______ ____

>  <TORSDO>
F 10

$$$$
=
 OpenBabel11052418503D

 34 38  0  0  1  0  0  0  0  0999 V2000
  185.1940  178.1900  145.8840 C   0  0  0  0  0  0  0  0  0  0  0  0
  186.4950  178.3010  143.8150 C   0  0  0  0  0  0  0  0  0  0  0  0
  187.5040  177.4430  145.8650 C   0  0  0  0  0  0  0  0  0  0  0  0
  189.9970  176.7650  145.5150 N   0  0  0  0  0  0  0  0  0  0  0  0
  184.1890  179.0450  143.8480 C   0  0  0  0  0  3  0  0  0  0  0  0
  185.3880  178.8350  143.1510 C   0  0  0  0  0  3  0  0  0  0  0  0
  188.8000  177.5450  143.8360 C   0  0  0  0  0  0  0  0  0  0  0  0
  186.3950  177.9790  145.1870 C   0  0  0  0  0  0  0  0  0  0  0  0
  190.8680  176.6870  144.4630 O   0  0  0  0  0  0  0  0  0  0  0  0
  184.0910  178.7240  145.2100 C   0  0  0  0  0  3  0  0  0  0  0  0
  186.2500  177.3250  147.8760 C   0  0  0  0  0  3  0  0  0  0  0  0
  185.1220  177.8600  147.2390 C   0  0  0  0  0  3  0  0  0  0  0  0
  187.7110  178.0840  143.1360 O   0  0  0  0  0  0  0  0  0  0  0  0
  190.1780  177.2820  143.3620 C   0  0  1  0  0  3  0  0  0  0  0  0
  188.7370  177.2310  145.0890 C   0  0  0  0  0  0  0  0  0  0  0  0
  187.4080  177.1280  147.1850 N   0  0  0  0  0  0  0  0  0  0  0  0
  190.1400  176.3520  142.2460 N   0  0  0  0  0  2  0  0  0  0  0  0
  190.6090  175.0680  142.7410 C   0  0  0  0  0  2  0  0  0  0  0  0
  189.4290  174.1460  142.9950 C   0  0  0  0  0  2  0  0  0  0  0  0
  189.6780  173.3020  144.2390 C   0  0  0  0  0  2  0  0  0  0  0  0
  191.4490  171.7030  143.9660 O   0  0  0  0  0  1  0  0  0  0  0  0
  190.0650  171.8660  143.8900 C   0  0  2  0  0  3  0  0  0  0  0  0
  189.5700  171.4650  142.5090 C   0  0  0  0  0  2  0  0  0  0  0  0
  190.4140  171.5450  140.4720 C   0  0  0  0  0  1  0  0  0  0  0  0
  190.6330  170.9970  141.7360 O   0  0  0  0  0  0  0  0  0  0  0  0
  190.4820  177.0580  146.8550 C   0  0  0  0  0  2  0  0  0  0  0  0
  191.1330  175.8250  147.4540 C   0  0  0  0  0  2  0  0  0  0  0  0
  194.3290  175.0570  144.4360 C   0  0  0  0  0  2  0  0  0  0  0  0
  193.8560  174.0650  145.4820 C   0  0  0  0  0  2  0  0  0  0  0  0
  192.4420  175.5800  146.7940 C   0  0  0  0  0  0  0  0  0  0  0  0
  192.6050  174.4920  146.0990 N   0  0  0  0  0  0  0  0  0  0  0  0
  194.1440  177.1610  145.7780 C   0  0  0  0  0  2  0  0  0  0  0  0
  193.4790  176.5600  146.9270 N   0  0  0  0  0  2  0  0  0  0  0  0
  195.0940  176.1830  145.1070 C   0  0  0  0  0  2  0  0  0  0  0  0
  1 12  1  0  0  0  0
  2  8  1  0  0  0  0
  3 16  2  0  0  0  0
  4 26  1  0  0  0  0
  5 10  2  0  0  0  0
  6  2  2  0  0  0  0
  6  5  1  0  0  0  0
  7 15  2  0  0  0  0
  8  3  1  0  0  0  0
  8  1  2  0  0  0  0
  9  4  1  0  0  0  0
 10  1  1  0  0  0  0
 12 11  2  0  0  0  0
 13  2  1  0  0  0  0
 13  7  1  0  0  0  0
 14 17  1  6  0  0  0
 14  7  1  0  0  0  0
 14  9  1  0  0  0  0
 15  4  1  0  0  0  0
 15  3  1  0  0  0  0
 16 11  1  0  0  0  0
 17 18  1  0  0  0  0
 18 19  1  0  0  0  0
 19 20  1  0  0  0  0
 22 21  1  6  0  0  0
 22 20  1  0  0  0  0
 23 22  1  0  0  0  0
 24 25  1  0  0  0  0
 25 23  1  0  0  0  0
 26 27  1  0  0  0  0
 28 34  1  0  0  0  0
 28 29  1  0  0  0  0
 29 31  1  0  0  0  0
 30 33  1  0  0  0  0
 30 27  1  0  0  0  0
 31 30  2  0  0  0  0
 32 33  1  0  0  0  0
 34 32  1  0  0  0  0
M  END
>  <MODEL>
7

>  <REMARK>
 VINA RESULT:      -6.8      2.194      5.211
  Name = 
  10 active torsions:
  status: ('A' for Active; 'I' for Inactive)
    1  A    between atoms: C_3  and  C_13
    2  A    between atoms: C_3  and  N_17
    3  A    between atoms: N_5  and  C_26
    4  A    between atoms: C_12  and  C_28
    5  A    between atoms: C_13  and  C_33
    6  A    between atoms: O_14  and  C_20
    7  A    between atoms: N_17  and  C_29
    8  A    between atoms: C_20  and  C_34
    9  A    between atoms: C_26  and  C_28
   10  A    between atoms: C_33  and  C_34
                            x       y       z     vdW  Elec       q    Type
                         _______ _______ _______ _____ _____    ______ ____

>  <TORSDO>
F 10

$$$$
=
 OpenBabel11052418503D

 34 38  0  0  1  0  0  0  0  0999 V2000
  185.3900  178.3980  145.3480 C   0  0  0  0  0  0  0  0  0  0  0  0
  185.7780  177.3000  143.1960 C   0  0  0  0  0  0  0  0  0  0  0  0
  187.3030  176.9290  145.0650 C   0  0  0  0  0  0  0  0  0  0  0  0
  189.2650  175.3380  144.4210 N   0  0  0  0  0  0  0  0  0  0  0  0
  183.8740  178.7700  143.4920 C   0  0  0  0  0  3  0  0  0  0  0  0
  184.6360  177.9180  142.6800 C   0  0  0  0  0  3  0  0  0  0  0  0
  187.6990  175.8400  142.9530 C   0  0  0  0  0  0  0  0  0  0  0  0
  186.1550  177.5440  144.5360 C   0  0  0  0  0  0  0  0  0  0  0  0
  189.6220  174.5900  143.3330 O   0  0  0  0  0  0  0  0  0  0  0  0
  184.2490  179.0100  144.8220 C   0  0  0  0  0  3  0  0  0  0  0  0
  186.9340  177.9830  147.1590 C   0  0  0  0  0  3  0  0  0  0  0  0
  185.7850  178.6180  146.6710 C   0  0  0  0  0  3  0  0  0  0  0  0
  186.5610  176.4430  142.3980 O   0  0  0  0  0  0  0  0  0  0  0  0
  188.6980  174.9580  142.3070 C   0  0  1  0  0  3  0  0  0  0  0  0
  188.0650  176.0350  144.1770 C   0  0  0  0  0  0  0  0  0  0  0  0
  187.6650  177.1590  146.3570 N   0  0  0  0  0  0  0  0  0  0  0  0
  188.0390  173.7700  141.7910 N   0  0  0  0  0  2  0  0  0  0  0  0
  189.0490  172.7310  141.6830 C   0  0  0  0  0  2  0  0  0  0  0  0
  189.4380  172.5330  140.2290 C   0  0  0  0  0  2  0  0  0  0  0  0
  188.2270  172.7360  139.3260 C   0  0  0  0  0  2  0  0  0  0  0  0
  189.9400  173.7930  138.0170 O   0  0  0  0  0  1  0  0  0  0  0  0
  188.5640  173.5700  138.0920 C   0  0  2  0  0  3  0  0  0  0  0  0
  187.8220  174.8970  138.0840 C   0  0  0  0  0  2  0  0  0  0  0  0
  186.4470  176.1020  136.8490 C   0  0  0  0  0  1  0  0  0  0  0  0
  187.5920  175.3100  136.7710 O   0  0  0  0  0  0  0  0  0  0  0  0
  190.2820  175.8970  145.2990 C   0  0  0  0  0  2  0  0  0  0  0  0
  191.4060  176.5000  144.4760 C   0  0  0  0  0  2  0  0  0  0  0  0
  194.6270  173.4120  144.5330 C   0  0  0  0  0  2  0  0  0  0  0  0
  193.7640  173.7980  145.7190 C   0  0  0  0  0  2  0  0  0  0  0  0
  192.6700  175.7610  144.7380 C   0  0  0  0  0  0  0  0  0  0  0  0
  192.6110  174.5930  145.3080 N   0  0  0  0  0  0  0  0  0  0  0  0
  194.8630  175.6640  143.4690 C   0  0  0  0  0  2  0  0  0  0  0  0
  193.9110  176.3500  144.3350 N   0  0  0  0  0  2  0  0  0  0  0  0
  195.5820  174.5450  144.2050 C   0  0  0  0  0  2  0  0  0  0  0  0
  1 12  1  0  0  0  0
  2  8  1  0  0  0  0
  3 16  2  0  0  0  0
  4 26  1  0  0  0  0
  5 10  2  0  0  0  0
  6  2  2  0  0  0  0
  6  5  1  0  0  0  0
  7 15  2  0  0  0  0
  8  3  1  0  0  0  0
  8  1  2  0  0  0  0
  9  4  1  0  0  0  0
 10  1  1  0  0  0  0
 12 11  2  0  0  0  0
 13  7  1  0  0  0  0
 13  2  1  0  0  0  0
 14 17  1  1  0  0  0
 14  7  1  0  0  0  0
 14  9  1  0  0  0  0
 15  4  1  0  0  0  0
 15  3  1  0  0  0  0
 16 11  1  0  0  0  0
 18 17  1  0  0  0  0
 19 18  1  0  0  0  0
 20 19  1  0  0  0  0
 22 21  1  1  0  0  0
 22 20  1  0  0  0  0
 23 22  1  0  0  0  0
 25 24  1  0  0  0  0
 25 23  1  0  0  0  0
 27 30  1  0  0  0  0
 27 26  1  0  0  0  0
 28 29  1  0  0  0  0
 30 31  2  0  0  0  0
 31 29  1  0  0  0  0
 32 34  1  0  0  0  0
 32 33  1  0  0  0  0
 33 30  1  0  0  0  0
 34 28  1  0  0  0  0
M  END
>  <MODEL>
8

>  <REMARK>
 VINA RESULT:      -6.6      2.842      6.003
  Name = 
  10 active torsions:
  status: ('A' for Active; 'I' for Inactive)
    1  A    between atoms: C_3  and  C_13
    2  A    between atoms: C_3  and  N_17
    3  A    between atoms: N_5  and  C_26
    4  A    between atoms: C_12  and  C_28
    5  A    between atoms: C_13  and  C_33
    6  A    between atoms: O_14  and  C_20
    7  A    between atoms: N_17  and  C_29
    8  A    between atoms: C_20  and  C_34
    9  A    between atoms: C_26  and  C_28
   10  A    between atoms: C_33  and  C_34
                            x       y       z     vdW  Elec       q    Type
                         _______ _______ _______ _____ _____    ______ ____

>  <TORSDO>
F 10

$$$$
=
 OpenBabel11052418503D

 34 38  0  0  1  0  0  0  0  0999 V2000
  190.8880  173.9690  141.1370 C   0  0  0  0  0  0  0  0  0  0  0  0
  189.0230  174.4240  142.6550 C   0  0  0  0  0  0  0  0  0  0  0  0
  191.2300  175.3710  143.0890 C   0  0  0  0  0  0  0  0  0  0  0  0
  191.2690  176.7910  145.2760 N   0  0  0  0  0  0  0  0  0  0  0  0
  188.6960  173.0240  140.7040 C   0  0  0  0  0  3  0  0  0  0  0  0
  188.1870  173.6400  141.8560 C   0  0  0  0  0  3  0  0  0  0  0  0
  189.4050  175.8300  144.5940 C   0  0  0  0  0  0  0  0  0  0  0  0
  190.3790  174.5860  142.2920 C   0  0  0  0  0  0  0  0  0  0  0  0
  190.3560  177.2130  146.2040 O   0  0  0  0  0  0  0  0  0  0  0  0
  190.0420  173.1870  140.3450 C   0  0  0  0  0  3  0  0  0  0  0  0
  193.0450  174.9420  141.6210 C   0  0  0  0  0  3  0  0  0  0  0  0
  192.2320  174.1490  140.8000 C   0  0  0  0  0  3  0  0  0  0  0  0
  188.5350  175.0500  143.8190 O   0  0  0  0  0  0  0  0  0  0  0  0
  189.1440  176.5310  145.8720 C   0  0  1  0  0  3  0  0  0  0  0  0
  190.6480  176.0060  144.2840 C   0  0  0  0  0  0  0  0  0  0  0  0
  192.5350  175.5330  142.7380 N   0  0  0  0  0  0  0  0  0  0  0  0
  188.0730  177.4970  145.6880 N   0  0  0  0  0  2  0  0  0  0  0  0
  186.8430  176.8620  146.1300 C   0  0  0  0  0  2  0  0  0  0  0  0
  185.6580  177.7700  145.8500 C   0  0  0  0  0  2  0  0  0  0  0  0
  186.0510  178.8570  144.8560 C   0  0  0  0  0  2  0  0  0  0  0  0
  183.8530  178.8860  143.8890 O   0  0  0  0  0  1  0  0  0  0  0  0
  185.2120  178.8000  143.5810 C   0  0  2  0  0  3  0  0  0  0  0  0
  185.4840  177.5370  142.7800 C   0  0  0  0  0  2  0  0  0  0  0  0
  186.7980  177.1930  141.0410 C   0  0  0  0  0  1  0  0  0  0  0  0
  186.8270  177.4870  142.4030 O   0  0  0  0  0  0  0  0  0  0  0  0
  192.6510  176.5460  145.6580 C   0  0  0  0  0  2  0  0  0  0  0  0
  192.7710  175.1960  146.3400 C   0  0  0  0  0  2  0  0  0  0  0  0
  196.7580  173.2160  146.0270 C   0  0  0  0  0  2  0  0  0  0  0  0
  196.3850  174.5390  145.3860 C   0  0  0  0  0  2  0  0  0  0  0  0
  193.9750  174.4850  145.8350 C   0  0  0  0  0  0  0  0  0  0  0  0
  195.1350  175.0640  145.9270 N   0  0  0  0  0  0  0  0  0  0  0  0
  194.5750  172.0220  145.7620 C   0  0  0  0  0  2  0  0  0  0  0  0
  193.8210  173.1730  145.2800 N   0  0  0  0  0  2  0  0  0  0  0  0
  196.0290  172.0840  145.3250 C   0  0  0  0  0  2  0  0  0  0  0  0
  1  8  1  0  0  0  0
  2 13  1  0  0  0  0
  3 15  1  0  0  0  0
  4 26  1  0  0  0  0
  4  9  1  0  0  0  0
  5  6  1  0  0  0  0
  6  2  2  0  0  0  0
  7 14  1  0  0  0  0
  8  2  1  0  0  0  0
  8  3  2  0  0  0  0
 10  5  2  0  0  0  0
 10  1  1  0  0  0  0
 11 16  2  0  0  0  0
 12  1  2  0  0  0  0
 12 11  1  0  0  0  0
 13  7  1  0  0  0  0
 14 17  1  6  0  0  0
 14  9  1  0  0  0  0
 15  7  2  0  0  0  0
 15  4  1  0  0  0  0
 16  3  1  0  0  0  0
 17 18  1  0  0  0  0
 19 18  1  0  0  0  0
 20 19  1  0  0  0  0
 22 21  1  1  0  0  0
 22 20  1  0  0  0  0
 23 22  1  0  0  0  0
 24 25  1  0  0  0  0
 25 23  1  0  0  0  0
 26 27  1  0  0  0  0
 29 31  1  0  0  0  0
 29 28  1  0  0  0  0
 30 31  2  0  0  0  0
 30 27  1  0  0  0  0
 33 32  1  0  0  0  0
 33 30  1  0  0  0  0
 34 32  1  0  0  0  0
 34 28  1  0  0  0  0
M  END
>  <MODEL>
9

>  <REMARK>
 VINA RESULT:      -6.6      2.556      7.111
  Name = 
  10 active torsions:
  status: ('A' for Active; 'I' for Inactive)
    1  A    between atoms: C_3  and  C_13
    2  A    between atoms: C_3  and  N_17
    3  A    between atoms: N_5  and  C_26
    4  A    between atoms: C_12  and  C_28
    5  A    between atoms: C_13  and  C_33
    6  A    between atoms: O_14  and  C_20
    7  A    between atoms: N_17  and  C_29
    8  A    between atoms: C_20  and  C_34
    9  A    between atoms: C_26  and  C_28
   10  A    between atoms: C_33  and  C_34
                            x       y       z     vdW  Elec       q    Type
                         _______ _______ _______ _____ _____    ______ ____

>  <TORSDO>
F 10

$$$$
