=
 OpenBabel11052418223D

 27 30  0  0  1  0  0  0  0  0999 V2000
  187.3210  177.7280  143.7650 C   0  0  1  0  0  3  0  0  0  0  0  0
  188.7250  177.4240  144.2180 C   0  0  0  0  0  0  0  0  0  0  0  0
  192.7480  176.6240  145.4300 C   0  0  0  0  0  3  0  0  0  0  0  0
  194.2670  175.5890  146.8530 F   0  0  0  0  0  0  0  0  0  0  0  0
  189.7880  178.1410  143.6530 C   0  0  0  0  0  3  0  0  0  0  0  0
  190.5930  175.0650  146.5440 C   0  0  0  0  0  2  0  0  0  0  0  0
  191.8590  175.3550  147.3600 C   0  0  0  0  0  2  0  0  0  0  0  0
  188.9910  176.4350  145.1780 C   0  0  0  0  0  3  0  0  0  0  0  0
  192.9880  175.8470  146.4910 C   0  0  0  0  0  0  0  0  0  0  0  0
  191.3660  176.9030  145.0100 C   0  0  0  0  0  0  0  0  0  0  0  0
  190.3030  176.1820  145.5830 C   0  0  0  0  0  0  0  0  0  0  0  0
  191.1050  177.8810  144.0450 C   0  0  0  0  0  3  0  0  0  0  0  0
  186.8030  176.9230  142.5450 C   0  0  2  0  0  0  0  0  0  0  0  0
  188.1200  177.8280  140.7520 O   0  0  0  0  0  0  0  0  0  0  0  0
  189.5830  175.3710  141.2820 O   0  0  0  0  0  1  0  0  0  0  0  0
  187.7640  175.0600  139.9190 O   0  0  0  0  0  1  0  0  0  0  0  0
  185.4850  177.5090  142.0530 C   0  0  0  0  0  1  0  0  0  0  0  0
  188.1980  175.4990  141.1700 C   0  0  0  0  0  0  0  0  0  0  0  0
  187.4960  174.7450  142.2780 C   0  0  0  0  0  2  0  0  0  0  0  0
  186.5620  175.5850  142.9380 O   0  0  0  0  0  0  0  0  0  0  0  0
  187.7690  176.8680  141.4210 C   0  0  0  0  0  0  0  0  0  0  0  0
  184.5240  178.1010  146.9800 C   0  0  0  0  0  3  0  0  0  0  0  0
  186.3450  177.8560  144.9000 C   0  0  0  0  0  0  0  0  0  0  0  0
  185.8520  176.7510  145.5260 N   0  0  0  0  0  0  0  0  0  0  0  0
  184.9590  176.8470  146.5480 C   0  0  0  0  0  3  0  0  0  0  0  0
  185.0140  179.2460  146.3520 C   0  0  0  0  0  3  0  0  0  0  0  0
  185.9300  179.1270  145.3050 C   0  0  0  0  0  3  0  0  0  0  0  0
  1  2  1  1  0  0  0
  1 23  1  0  0  0  0
  2  8  1  0  0  0  0
  3  9  2  0  0  0  0
  5 12  1  0  0  0  0
  5  2  2  0  0  0  0
  6  7  1  0  0  0  0
  8 11  2  0  0  0  0
  9  4  1  0  0  0  0
  9  7  1  0  0  0  0
 10  3  1  0  0  0  0
 10 11  1  0  0  0  0
 11  6  1  0  0  0  0
 12 10  2  0  0  0  0
 13 17  1  6  0  0  0
 13 20  1  0  0  0  0
 13  1  1  0  0  0  0
 14 21  2  0  0  0  0
 16 18  1  0  0  0  0
 18 15  1  0  0  0  0
 18 21  1  0  0  0  0
 18 19  1  0  0  0  0
 19 20  1  0  0  0  0
 21 13  1  0  0  0  0
 23 27  2  0  0  0  0
 23 24  1  0  0  0  0
 24 25  2  0  0  0  0
 25 22  1  0  0  0  0
 26 22  2  0  0  0  0
 27 26  1  0  0  0  0
M  END
>  <MODEL>
1

>  <REMARK>
 VINA RESULT:      -8.0      0.000      0.000
  Name = 
  3 active torsions:
  status: ('A' for Active; 'I' for Inactive)
    1  A    between atoms: C_1  and  C_15
    2  A    between atoms: C_2  and  C_15
    3  A    between atoms: C_9  and  C_15
                            x       y       z     vdW  Elec       q    Type
                         _______ _______ _______ _____ _____    ______ ____

>  <TORSDO>
F 3

$$$$
=
 OpenBabel11052418223D

 27 30  0  0  1  0  0  0  0  0999 V2000
  190.2870  176.2020  143.2930 C   0  0  1  0  0  3  0  0  0  0  0  0
  188.9570  176.8200  143.6380 C   0  0  0  0  0  0  0  0  0  0  0  0
  185.1790  178.6170  144.5240 C   0  0  0  0  0  3  0  0  0  0  0  0
  183.3650  178.9250  145.9450 F   0  0  0  0  0  0  0  0  0  0  0  0
  188.2630  177.5280  142.6480 C   0  0  0  0  0  3  0  0  0  0  0  0
  186.6230  177.2480  146.6100 C   0  0  0  0  0  2  0  0  0  0  0  0
  185.0900  177.2810  146.6050 C   0  0  0  0  0  2  0  0  0  0  0  0
  188.4070  176.7120  144.9250 C   0  0  0  0  0  3  0  0  0  0  0  0
  184.5530  178.3360  145.6710 C   0  0  0  0  0  0  0  0  0  0  0  0
  186.4780  178.0010  144.2140 C   0  0  0  0  0  0  0  0  0  0  0  0
  187.1680  177.2880  145.2110 C   0  0  0  0  0  0  0  0  0  0  0  0
  187.0280  178.1190  142.9340 C   0  0  0  0  0  3  0  0  0  0  0  0
  191.5460  177.0090  143.7040 C   0  0  2  0  0  0  0  0  0  0  0  0
  191.5690  176.7220  146.0890 O   0  0  0  0  0  0  0  0  0  0  0  0
  193.5490  174.7400  145.3080 O   0  0  0  0  0  1  0  0  0  0  0  0
  194.4100  176.8610  145.4570 O   0  0  0  0  0  1  0  0  0  0  0  0
  191.2230  178.4970  143.7510 C   0  0  0  0  0  1  0  0  0  0  0  0
  193.4610  176.0490  144.8350 C   0  0  0  0  0  0  0  0  0  0  0  0
  193.6230  176.0900  143.3310 C   0  0  0  0  0  2  0  0  0  0  0  0
  192.5590  176.8160  142.7350 O   0  0  0  0  0  0  0  0  0  0  0  0
  192.1180  176.5870  145.0060 C   0  0  0  0  0  0  0  0  0  0  0  0
  190.4550  172.0110  144.1290 C   0  0  0  0  0  3  0  0  0  0  0  0
  190.3550  174.7310  143.5880 C   0  0  0  0  0  0  0  0  0  0  0  0
  190.9720  173.8740  142.7270 N   0  0  0  0  0  0  0  0  0  0  0  0
  191.0340  172.5370  142.9730 C   0  0  0  0  0  3  0  0  0  0  0  0
  189.8160  172.8700  145.0220 C   0  0  0  0  0  3  0  0  0  0  0  0
  189.7630  174.2390  144.7540 C   0  0  0  0  0  3  0  0  0  0  0  0
  1 23  1  1  0  0  0
  1  2  1  0  0  0  0
  1 13  1  0  0  0  0
  2  8  1  0  0  0  0
  3  9  2  0  0  0  0
  5 12  1  0  0  0  0
  5  2  2  0  0  0  0
  7  6  1  0  0  0  0
  8 11  2  0  0  0  0
  9  4  1  0  0  0  0
  9  7  1  0  0  0  0
 10  3  1  0  0  0  0
 10 11  1  0  0  0  0
 11  6  1  0  0  0  0
 12 10  2  0  0  0  0
 13 17  1  1  0  0  0
 13 21  1  0  0  0  0
 18 21  1  0  0  0  0
 18 15  1  0  0  0  0
 18 16  1  0  0  0  0
 19 18  1  0  0  0  0
 20 19  1  0  0  0  0
 20 13  1  0  0  0  0
 21 14  2  0  0  0  0
 22 26  1  0  0  0  0
 23 27  1  0  0  0  0
 24 25  1  0  0  0  0
 24 23  2  0  0  0  0
 25 22  2  0  0  0  0
 27 26  2  0  0  0  0
M  END
>  <MODEL>
2

>  <REMARK>
 VINA RESULT:      -7.8      3.685      6.381
  Name = 
  3 active torsions:
  status: ('A' for Active; 'I' for Inactive)
    1  A    between atoms: C_1  and  C_15
    2  A    between atoms: C_2  and  C_15
    3  A    between atoms: C_9  and  C_15
                            x       y       z     vdW  Elec       q    Type
                         _______ _______ _______ _____ _____    ______ ____

>  <TORSDO>
F 3

$$$$
=
 OpenBabel11052418223D

 27 30  0  0  1  0  0  0  0  0999 V2000
  191.1070  174.9320  145.1490 C   0  0  1  0  0  3  0  0  0  0  0  0
  189.9010  175.8290  145.0470 C   0  0  0  0  0  0  0  0  0  0  0  0
  186.5240  178.4270  144.6820 C   0  0  0  0  0  3  0  0  0  0  0  0
  184.3640  179.0380  145.2830 F   0  0  0  0  0  0  0  0  0  0  0  0
  189.8560  176.7890  144.0270 C   0  0  0  0  0  3  0  0  0  0  0  0
  186.6250  176.5270  146.8470 C   0  0  0  0  0  2  0  0  0  0  0  0
  185.2850  176.9500  146.2330 C   0  0  0  0  0  2  0  0  0  0  0  0
  188.8330  175.7320  145.9520 C   0  0  0  0  0  3  0  0  0  0  0  0
  185.4190  178.1980  145.3970 C   0  0  0  0  0  0  0  0  0  0  0  0
  187.6880  177.5360  144.8030 C   0  0  0  0  0  0  0  0  0  0  0  0
  187.7250  176.5720  145.8260 C   0  0  0  0  0  0  0  0  0  0  0  0
  188.7550  177.6430  143.9060 C   0  0  0  0  0  3  0  0  0  0  0  0
  191.1940  173.7770  144.1180 C   0  0  2  0  0  0  0  0  0  0  0  0
  189.3400  172.3910  144.7600 O   0  0  0  0  0  0  0  0  0  0  0  0
  188.1690  173.8150  142.5110 O   0  0  0  0  0  1  0  0  0  0  0  0
  189.4270  172.0050  141.8740 O   0  0  0  0  0  1  0  0  0  0  0  0
  192.2620  172.7770  144.5410 C   0  0  0  0  0  1  0  0  0  0  0  0
  189.4330  173.2270  142.5470 C   0  0  0  0  0  0  0  0  0  0  0  0
  190.4760  174.1560  141.9640 C   0  0  0  0  0  2  0  0  0  0  0  0
  191.5680  174.3040  142.8590 O   0  0  0  0  0  0  0  0  0  0  0  0
  189.9060  173.0690  143.9160 C   0  0  0  0  0  0  0  0  0  0  0  0
  194.7690  177.0500  145.7840 C   0  0  0  0  0  3  0  0  0  0  0  0
  192.3900  175.6830  145.3680 C   0  0  0  0  0  0  0  0  0  0  0  0
  193.2290  175.9500  144.3280 N   0  0  0  0  0  0  0  0  0  0  0  0
  194.3990  176.6200  144.5090 C   0  0  0  0  0  3  0  0  0  0  0  0
  193.9250  176.7850  146.8630 C   0  0  0  0  0  3  0  0  0  0  0  0
  192.7280  176.0970  146.6580 C   0  0  0  0  0  3  0  0  0  0  0  0
  1  2  1  6  0  0  0
  1 23  1  0  0  0  0
  2  8  1  0  0  0  0
  3 10  1  0  0  0  0
  3  9  2  0  0  0  0
  4  9  1  0  0  0  0
  5  2  2  0  0  0  0
  7  6  1  0  0  0  0
  9  7  1  0  0  0  0
 10 11  1  0  0  0  0
 11  8  2  0  0  0  0
 11  6  1  0  0  0  0
 12  5  1  0  0  0  0
 12 10  2  0  0  0  0
 13 17  1  1  0  0  0
 13  1  1  0  0  0  0
 15 18  1  0  0  0  0
 16 18  1  0  0  0  0
 18 21  1  0  0  0  0
 19 18  1  0  0  0  0
 19 20  1  0  0  0  0
 20 13  1  0  0  0  0
 21 13  1  0  0  0  0
 21 14  2  0  0  0  0
 22 26  1  0  0  0  0
 23 27  1  0  0  0  0
 24 25  1  0  0  0  0
 24 23  2  0  0  0  0
 25 22  2  0  0  0  0
 27 26  2  0  0  0  0
M  END
>  <MODEL>
3

>  <REMARK>
 VINA RESULT:      -7.8      3.249      6.173
  Name = 
  3 active torsions:
  status: ('A' for Active; 'I' for Inactive)
    1  A    between atoms: C_1  and  C_15
    2  A    between atoms: C_2  and  C_15
    3  A    between atoms: C_9  and  C_15
                            x       y       z     vdW  Elec       q    Type
                         _______ _______ _______ _____ _____    ______ ____

>  <TORSDO>
F 3

$$$$
=
 OpenBabel11052418223D

 27 30  0  0  1  0  0  0  0  0999 V2000
  188.1700  176.5030  144.9120 C   0  0  1  0  0  3  0  0  0  0  0  0
  188.1870  175.9500  143.5100 C   0  0  0  0  0  0  0  0  0  0  0  0
  188.1910  174.4690  139.4990 C   0  0  0  0  0  3  0  0  0  0  0  0
  188.7310  172.8250  137.9470 F   0  0  0  0  0  0  0  0  0  0  0  0
  187.8040  176.7820  142.4510 C   0  0  0  0  0  3  0  0  0  0  0  0
  188.8950  172.7010  141.6650 C   0  0  0  0  0  2  0  0  0  0  0  0
  189.5130  172.5260  140.2730 C   0  0  0  0  0  2  0  0  0  0  0  0
  188.5640  174.6240  143.2470 C   0  0  0  0  0  3  0  0  0  0  0  0
  188.7520  173.2880  139.2190 C   0  0  0  0  0  0  0  0  0  0  0  0
  188.1880  174.9830  140.8770 C   0  0  0  0  0  0  0  0  0  0  0  0
  188.5770  174.1440  141.9360 C   0  0  0  0  0  0  0  0  0  0  0  0
  187.8010  176.3010  141.1370 C   0  0  0  0  0  3  0  0  0  0  0  0
  189.4950  177.1280  145.4200 C   0  0  2  0  0  0  0  0  0  0  0  0
  190.8250  175.1790  145.8780 O   0  0  0  0  0  0  0  0  0  0  0  0
  191.8940  175.9390  143.2820 O   0  0  0  0  0  1  0  0  0  0  0  0
  192.8320  177.1080  145.0190 O   0  0  0  0  0  1  0  0  0  0  0  0
  189.3540  177.5400  146.8790 C   0  0  0  0  0  1  0  0  0  0  0  0
  191.6460  176.7960  144.3550 C   0  0  0  0  0  0  0  0  0  0  0  0
  190.9440  178.0530  143.8890 C   0  0  0  0  0  2  0  0  0  0  0  0
  189.7800  178.2910  144.6670 O   0  0  0  0  0  0  0  0  0  0  0  0
  190.6660  176.2280  145.2720 C   0  0  0  0  0  0  0  0  0  0  0  0
  184.6620  178.7750  145.8200 C   0  0  0  0  0  3  0  0  0  0  0  0
  186.9350  177.2990  145.2230 C   0  0  0  0  0  0  0  0  0  0  0  0
  186.7210  178.5130  144.6410 N   0  0  0  0  0  0  0  0  0  0  0  0
  185.6140  179.2520  144.9180 C   0  0  0  0  0  3  0  0  0  0  0  0
  184.8610  177.5360  146.4280 C   0  0  0  0  0  3  0  0  0  0  0  0
  186.0040  176.7900  146.1310 C   0  0  0  0  0  3  0  0  0  0  0  0
  1  2  1  6  0  0  0
  1 23  1  0  0  0  0
  1 13  1  0  0  0  0
  3 10  1  0  0  0  0
  4  9  1  0  0  0  0
  5  2  2  0  0  0  0
  6 11  1  0  0  0  0
  7  6  1  0  0  0  0
  8  2  1  0  0  0  0
  9  3  2  0  0  0  0
  9  7  1  0  0  0  0
 10 12  2  0  0  0  0
 10 11  1  0  0  0  0
 11  8  2  0  0  0  0
 12  5  1  0  0  0  0
 13 17  1  1  0  0  0
 15 18  1  0  0  0  0
 18 16  1  0  0  0  0
 18 21  1  0  0  0  0
 19 18  1  0  0  0  0
 19 20  1  0  0  0  0
 20 13  1  0  0  0  0
 21 13  1  0  0  0  0
 21 14  2  0  0  0  0
 22 26  1  0  0  0  0
 23 27  1  0  0  0  0
 24 25  1  0  0  0  0
 24 23  2  0  0  0  0
 25 22  2  0  0  0  0
 27 26  2  0  0  0  0
M  END
>  <MODEL>
4

>  <REMARK>
 VINA RESULT:      -7.5      3.041      5.179
  Name = 
  3 active torsions:
  status: ('A' for Active; 'I' for Inactive)
    1  A    between atoms: C_1  and  C_15
    2  A    between atoms: C_2  and  C_15
    3  A    between atoms: C_9  and  C_15
                            x       y       z     vdW  Elec       q    Type
                         _______ _______ _______ _____ _____    ______ ____

>  <TORSDO>
F 3

$$$$
=
 OpenBabel11052418223D

 27 30  0  0  1  0  0  0  0  0999 V2000
  189.1430  175.8490  146.0290 C   0  0  1  0  0  3  0  0  0  0  0  0
  189.4140  174.7390  145.0480 C   0  0  0  0  0  0  0  0  0  0  0  0
  190.2080  171.5240  142.3420 C   0  0  0  0  0  3  0  0  0  0  0  0
  190.2570  170.6550  140.1870 F   0  0  0  0  0  0  0  0  0  0  0  0
  189.6960  173.4570  145.5390 C   0  0  0  0  0  3  0  0  0  0  0  0
  189.7260  174.1680  141.3010 C   0  0  0  0  0  2  0  0  0  0  0  0
  189.3240  172.9230  140.5020 C   0  0  0  0  0  2  0  0  0  0  0  0
  189.4040  174.9620  143.6630 C   0  0  0  0  0  3  0  0  0  0  0  0
  189.9860  171.6760  141.0330 C   0  0  0  0  0  0  0  0  0  0  0  0
  189.9360  172.6260  143.2770 C   0  0  0  0  0  0  0  0  0  0  0  0
  189.6510  173.9100  142.7780 C   0  0  0  0  0  0  0  0  0  0  0  0
  189.9580  172.4030  144.6570 C   0  0  0  0  0  3  0  0  0  0  0  0
  190.3670  176.6960  146.4640 C   0  0  2  0  0  0  0  0  0  0  0  0
  191.3640  175.3060  148.1510 O   0  0  0  0  0  0  0  0  0  0  0  0
  193.0730  174.6770  145.8840 O   0  0  0  0  0  1  0  0  0  0  0  0
  193.6890  176.6030  146.9680 O   0  0  0  0  0  1  0  0  0  0  0  0
  189.9310  177.7900  147.4310 C   0  0  0  0  0  1  0  0  0  0  0  0
  192.6650  175.9500  146.2810 C   0  0  0  0  0  0  0  0  0  0  0  0
  192.2130  176.7670  145.0890 C   0  0  0  0  0  2  0  0  0  0  0  0
  190.9280  177.3230  145.3260 O   0  0  0  0  0  0  0  0  0  0  0  0
  191.4500  175.8930  147.0830 C   0  0  0  0  0  0  0  0  0  0  0  0
  185.6310  178.1180  145.1260 C   0  0  0  0  0  3  0  0  0  0  0  0
  187.9090  176.6420  145.7050 C   0  0  0  0  0  0  0  0  0  0  0  0
  187.8980  177.5240  144.6660 N   0  0  0  0  0  0  0  0  0  0  0  0
  186.7930  178.2570  144.3640 C   0  0  0  0  0  3  0  0  0  0  0  0
  185.6220  177.2220  146.1950 C   0  0  0  0  0  3  0  0  0  0  0  0
  186.7650  176.4780  146.4900 C   0  0  0  0  0  3  0  0  0  0  0  0
  1  2  1  6  0  0  0
  1 13  1  0  0  0  0
  2  5  1  0  0  0  0
  3 10  1  0  0  0  0
  4  9  1  0  0  0  0
  6 11  1  0  0  0  0
  7  9  1  0  0  0  0
  7  6  1  0  0  0  0
  8  2  2  0  0  0  0
  9  3  2  0  0  0  0
 10 12  1  0  0  0  0
 11 10  2  0  0  0  0
 11  8  1  0  0  0  0
 12  5  2  0  0  0  0
 13 21  1  0  0  0  0
 13 17  1  1  0  0  0
 15 18  1  0  0  0  0
 18 16  1  0  0  0  0
 18 21  1  0  0  0  0
 19 20  1  0  0  0  0
 19 18  1  0  0  0  0
 20 13  1  0  0  0  0
 21 14  2  0  0  0  0
 22 26  1  0  0  0  0
 23  1  1  0  0  0  0
 23 27  1  0  0  0  0
 24 23  2  0  0  0  0
 25 24  1  0  0  0  0
 25 22  2  0  0  0  0
 26 27  2  0  0  0  0
M  END
>  <MODEL>
5

>  <REMARK>
 VINA RESULT:      -7.5      3.606      5.622
  Name = 
  3 active torsions:
  status: ('A' for Active; 'I' for Inactive)
    1  A    between atoms: C_1  and  C_15
    2  A    between atoms: C_2  and  C_15
    3  A    between atoms: C_9  and  C_15
                            x       y       z     vdW  Elec       q    Type
                         _______ _______ _______ _____ _____    ______ ____

>  <TORSDO>
F 3

$$$$
=
 OpenBabel11052418223D

 27 30  0  0  1  0  0  0  0  0999 V2000
  190.7100  175.3200  144.2190 C   0  0  1  0  0  3  0  0  0  0  0  0
  189.5160  175.8120  144.9940 C   0  0  0  0  0  0  0  0  0  0  0  0
  186.1420  177.1360  147.2640 C   0  0  0  0  0  3  0  0  0  0  0  0
  184.3910  178.6250  147.6100 F   0  0  0  0  0  0  0  0  0  0  0  0
  189.2410  175.2450  146.2450 C   0  0  0  0  0  3  0  0  0  0  0  0
  186.6240  178.2580  144.6520 C   0  0  0  0  0  2  0  0  0  0  0  0
  185.9600  179.0900  145.7560 C   0  0  0  0  0  2  0  0  0  0  0  0
  188.6710  176.8120  144.4880 C   0  0  0  0  0  3  0  0  0  0  0  0
  185.4670  178.2280  146.8910 C   0  0  0  0  0  0  0  0  0  0  0  0
  187.3040  176.6770  146.4870 C   0  0  0  0  0  0  0  0  0  0  0  0
  187.5760  177.2530  145.2330 C   0  0  0  0  0  0  0  0  0  0  0  0
  188.1370  175.6730  146.9900 C   0  0  0  0  0  3  0  0  0  0  0  0
  191.9190  174.8290  145.0580 C   0  0  2  0  0  0  0  0  0  0  0  0
  193.7540  175.1920  143.5500 O   0  0  0  0  0  0  0  0  0  0  0  0
  194.0040  177.5410  145.2470 O   0  0  0  0  0  1  0  0  0  0  0  0
  194.9850  175.6720  146.1470 O   0  0  0  0  0  1  0  0  0  0  0  0
  192.0060  173.3090  145.0120 C   0  0  0  0  0  1  0  0  0  0  0  0
  193.7950  176.2310  145.6780 C   0  0  0  0  0  0  0  0  0  0  0  0
  192.7200  176.1780  146.7420 C   0  0  0  0  0  2  0  0  0  0  0  0
  191.7350  175.2120  146.4070 O   0  0  0  0  0  0  0  0  0  0  0  0
  193.2120  175.4110  144.6230 C   0  0  0  0  0  0  0  0  0  0  0  0
  189.6470  172.8180  140.9160 C   0  0  0  0  0  3  0  0  0  0  0  0
  190.3440  174.4370  143.0600 C   0  0  0  0  0  0  0  0  0  0  0  0
  190.9920  174.5470  141.8660 N   0  0  0  0  0  0  0  0  0  0  0  0
  190.6680  173.7630  140.8030 C   0  0  0  0  0  3  0  0  0  0  0  0
  188.9690  172.6900  142.1290 C   0  0  0  0  0  3  0  0  0  0  0  0
  189.3170  173.5020  143.2100 C   0  0  0  0  0  3  0  0  0  0  0  0
  1 23  1  1  0  0  0
  1  2  1  0  0  0  0
  1 13  1  0  0  0  0
  2  5  1  0  0  0  0
  5 12  2  0  0  0  0
  6 11  1  0  0  0  0
  6  7  1  0  0  0  0
  7  9  1  0  0  0  0
  8  2  2  0  0  0  0
  8 11  1  0  0  0  0
  9  3  2  0  0  0  0
  9  4  1  0  0  0  0
 10 12  1  0  0  0  0
 10  3  1  0  0  0  0
 11 10  2  0  0  0  0
 13 17  1  6  0  0  0
 13 20  1  0  0  0  0
 14 21  2  0  0  0  0
 15 18  1  0  0  0  0
 18 16  1  0  0  0  0
 18 19  1  0  0  0  0
 20 19  1  0  0  0  0
 21 13  1  0  0  0  0
 21 18  1  0  0  0  0
 22 26  1  0  0  0  0
 23 27  1  0  0  0  0
 24 23  2  0  0  0  0
 25 22  2  0  0  0  0
 25 24  1  0  0  0  0
 26 27  2  0  0  0  0
M  END
>  <MODEL>
6

>  <REMARK>
 VINA RESULT:      -7.3      3.737      6.713
  Name = 
  3 active torsions:
  status: ('A' for Active; 'I' for Inactive)
    1  A    between atoms: C_1  and  C_15
    2  A    between atoms: C_2  and  C_15
    3  A    between atoms: C_9  and  C_15
                            x       y       z     vdW  Elec       q    Type
                         _______ _______ _______ _____ _____    ______ ____

>  <TORSDO>
F 3

$$$$
=
 OpenBabel11052418223D

 27 30  0  0  1  0  0  0  0  0999 V2000
  190.6730  174.8140  145.1180 C   0  0  1  0  0  3  0  0  0  0  0  0
  189.5240  175.7850  145.0710 C   0  0  0  0  0  0  0  0  0  0  0  0
  186.3030  178.5910  144.8550 C   0  0  0  0  0  3  0  0  0  0  0  0
  184.2480  179.3780  145.6040 F   0  0  0  0  0  0  0  0  0  0  0  0
  189.4520  176.6970  144.0090 C   0  0  0  0  0  3  0  0  0  0  0  0
  186.4710  176.7930  147.1030 C   0  0  0  0  0  2  0  0  0  0  0  0
  185.1120  177.2780  146.5820 C   0  0  0  0  0  2  0  0  0  0  0  0
  188.5360  175.8060  146.0670 C   0  0  0  0  0  3  0  0  0  0  0  0
  185.2520  178.4720  145.6730 C   0  0  0  0  0  0  0  0  0  0  0  0
  187.4130  177.6280  144.9250 C   0  0  0  0  0  0  0  0  0  0  0  0
  187.4770  176.7130  145.9910 C   0  0  0  0  0  0  0  0  0  0  0  0
  188.4020  177.6180  143.9370 C   0  0  0  0  0  3  0  0  0  0  0  0
  190.6920  173.7170  144.0220 C   0  0  2  0  0  0  0  0  0  0  0  0
  191.6140  174.9000  142.1450 O   0  0  0  0  0  0  0  0  0  0  0  0
  193.9770  173.4840  143.0790 O   0  0  0  0  0  1  0  0  0  0  0  0
  192.6320  172.2010  141.7340 O   0  0  0  0  0  1  0  0  0  0  0  0
  189.3040  173.5610  143.4130 C   0  0  0  0  0  1  0  0  0  0  0  0
  192.7030  172.9420  142.9140 C   0  0  0  0  0  0  0  0  0  0  0  0
  192.3200  172.0920  144.1060 C   0  0  0  0  0  2  0  0  0  0  0  0
  191.0500  172.4800  144.6070 O   0  0  0  0  0  0  0  0  0  0  0  0
  191.6770  173.9770  142.9440 C   0  0  0  0  0  0  0  0  0  0  0  0
  194.4590  176.6690  145.8430 C   0  0  0  0  0  3  0  0  0  0  0  0
  191.9990  175.4720  145.3770 C   0  0  0  0  0  0  0  0  0  0  0  0
  192.3470  176.6200  144.7300 N   0  0  0  0  0  0  0  0  0  0  0  0
  193.5460  177.2240  144.9440 C   0  0  0  0  0  3  0  0  0  0  0  0
  194.1240  175.4930  146.5140 C   0  0  0  0  0  3  0  0  0  0  0  0
  192.8880  174.8870  146.2820 C   0  0  0  0  0  3  0  0  0  0  0  0
  1  2  1  6  0  0  0
  1 23  1  0  0  0  0
  2  8  1  0  0  0  0
  3 10  1  0  0  0  0
  3  9  2  0  0  0  0
  4  9  1  0  0  0  0
  5  2  2  0  0  0  0
  7  6  1  0  0  0  0
  9  7  1  0  0  0  0
 10 11  1  0  0  0  0
 11  8  2  0  0  0  0
 11  6  1  0  0  0  0
 12  5  1  0  0  0  0
 12 10  2  0  0  0  0
 13 17  1  6  0  0  0
 13 20  1  0  0  0  0
 13  1  1  0  0  0  0
 14 21  2  0  0  0  0
 16 18  1  0  0  0  0
 18 21  1  0  0  0  0
 18 15  1  0  0  0  0
 18 19  1  0  0  0  0
 19 20  1  0  0  0  0
 21 13  1  0  0  0  0
 22 26  1  0  0  0  0
 23 27  1  0  0  0  0
 24 25  1  0  0  0  0
 24 23  2  0  0  0  0
 25 22  2  0  0  0  0
 27 26  2  0  0  0  0
M  END
>  <MODEL>
7

>  <REMARK>
 VINA RESULT:      -7.3      3.437      6.236
  Name = 
  3 active torsions:
  status: ('A' for Active; 'I' for Inactive)
    1  A    between atoms: C_1  and  C_15
    2  A    between atoms: C_2  and  C_15
    3  A    between atoms: C_9  and  C_15
                            x       y       z     vdW  Elec       q    Type
                         _______ _______ _______ _____ _____    ______ ____

>  <TORSDO>
F 3

$$$$
=
 OpenBabel11052418223D

 27 30  0  0  1  0  0  0  0  0999 V2000
  188.1460  177.6790  144.3830 C   0  0  1  0  0  3  0  0  0  0  0  0
  189.2700  176.7130  144.6520 C   0  0  0  0  0  0  0  0  0  0  0  0
  192.3930  173.8910  145.4090 C   0  0  0  0  0  3  0  0  0  0  0  0
  194.6370  173.3980  145.7570 F   0  0  0  0  0  0  0  0  0  0  0  0
  189.0090  175.3380  144.5880 C   0  0  0  0  0  3  0  0  0  0  0  0
  192.9420  176.7120  145.6410 C   0  0  0  0  0  2  0  0  0  0  0  0
  194.0350  175.7310  145.2000 C   0  0  0  0  0  2  0  0  0  0  0  0
  190.5610  177.1570  144.9740 C   0  0  0  0  0  3  0  0  0  0  0  0
  193.6620  174.3010  145.5000 C   0  0  0  0  0  0  0  0  0  0  0  0
  191.3140  174.8580  145.1480 C   0  0  0  0  0  0  0  0  0  0  0  0
  191.5840  176.2370  145.2100 C   0  0  0  0  0  0  0  0  0  0  0  0
  190.0270  174.4110  144.8380 C   0  0  0  0  0  3  0  0  0  0  0  0
  187.5040  177.6120  142.9730 C   0  0  2  0  0  0  0  0  0  0  0  0
  185.9450  175.8000  143.2180 O   0  0  0  0  0  0  0  0  0  0  0  0
  184.1530  178.0710  143.5190 O   0  0  0  0  0  1  0  0  0  0  0  0
  184.5740  177.5420  141.3270 O   0  0  0  0  0  1  0  0  0  0  0  0
  188.4240  176.8690  142.0130 C   0  0  0  0  0  1  0  0  0  0  0  0
  185.1390  177.9230  142.5450 C   0  0  0  0  0  0  0  0  0  0  0  0
  185.9400  179.1980  142.3900 C   0  0  0  0  0  2  0  0  0  0  0  0
  187.3310  178.9260  142.4780 O   0  0  0  0  0  0  0  0  0  0  0  0
  186.1640  176.9750  142.9650 C   0  0  0  0  0  0  0  0  0  0  0  0
  185.3810  177.9810  147.6330 C   0  0  0  0  0  3  0  0  0  0  0  0
  187.1680  177.7850  145.5190 C   0  0  0  0  0  0  0  0  0  0  0  0
  186.4440  178.9230  145.7140 N   0  0  0  0  0  0  0  0  0  0  0  0
  185.5620  179.0410  146.7420 C   0  0  0  0  0  3  0  0  0  0  0  0
  186.1130  176.8080  147.4530 C   0  0  0  0  0  3  0  0  0  0  0  0
  187.0140  176.7050  146.3910 C   0  0  0  0  0  3  0  0  0  0  0  0
  1  2  1  1  0  0  0
  1 23  1  0  0  0  0
  2  8  1  0  0  0  0
  3  9  2  0  0  0  0
  5  2  2  0  0  0  0
  5 12  1  0  0  0  0
  7  9  1  0  0  0  0
  7  6  1  0  0  0  0
  8 11  2  0  0  0  0
  9  4  1  0  0  0  0
 10 11  1  0  0  0  0
 10  3  1  0  0  0  0
 11  6  1  0  0  0  0
 12 10  2  0  0  0  0
 13 17  1  6  0  0  0
 13  1  1  0  0  0  0
 16 18  1  0  0  0  0
 18 21  1  0  0  0  0
 18 15  1  0  0  0  0
 19 20  1  0  0  0  0
 19 18  1  0  0  0  0
 20 13  1  0  0  0  0
 21 13  1  0  0  0  0
 21 14  2  0  0  0  0
 23 24  2  0  0  0  0
 23 27  1  0  0  0  0
 24 25  1  0  0  0  0
 25 22  2  0  0  0  0
 26 22  1  0  0  0  0
 27 26  2  0  0  0  0
M  END
>  <MODEL>
8

>  <REMARK>
 VINA RESULT:      -7.2      1.759      2.988
  Name = 
  3 active torsions:
  status: ('A' for Active; 'I' for Inactive)
    1  A    between atoms: C_1  and  C_15
    2  A    between atoms: C_2  and  C_15
    3  A    between atoms: C_9  and  C_15
                            x       y       z     vdW  Elec       q    Type
                         _______ _______ _______ _____ _____    ______ ____

>  <TORSDO>
F 3

$$$$
=
 OpenBabel11052418223D

 27 30  0  0  1  0  0  0  0  0999 V2000
  190.7780  174.5910  144.5830 C   0  0  1  0  0  3  0  0  0  0  0  0
  189.6120  175.2490  145.2740 C   0  0  0  0  0  0  0  0  0  0  0  0
  186.3160  177.0520  147.3180 C   0  0  0  0  0  3  0  0  0  0  0  0
  184.6450  178.6620  147.4410 F   0  0  0  0  0  0  0  0  0  0  0  0
  189.3120  174.8800  146.5920 C   0  0  0  0  0  3  0  0  0  0  0  0
  186.8490  177.7660  144.5760 C   0  0  0  0  0  2  0  0  0  0  0  0
  186.2310  178.7790  145.5470 C   0  0  0  0  0  2  0  0  0  0  0  0
  188.8190  176.2080  144.6270 C   0  0  0  0  0  3  0  0  0  0  0  0
  185.6980  178.1130  146.7900 C   0  0  0  0  0  0  0  0  0  0  0  0
  187.4520  176.4280  146.6190 C   0  0  0  0  0  0  0  0  0  0  0  0
  187.7500  176.8060  145.2980 C   0  0  0  0  0  0  0  0  0  0  0  0
  188.2330  175.4650  147.2630 C   0  0  0  0  0  3  0  0  0  0  0  0
  190.6900  174.4850  143.0380 C   0  0  2  0  0  0  0  0  0  0  0  0
  192.2210  172.6930  142.5710 O   0  0  0  0  0  0  0  0  0  0  0  0
  189.6920  171.2630  142.4430 O   0  0  0  0  0  1  0  0  0  0  0  0
  190.2130  172.3460  140.4890 O   0  0  0  0  0  1  0  0  0  0  0  0
  191.5460  175.5650  142.3890 C   0  0  0  0  0  1  0  0  0  0  0  0
  189.9720  172.4960  141.8560 C   0  0  0  0  0  0  0  0  0  0  0  0
  188.8460  173.4770  142.0990 C   0  0  0  0  0  2  0  0  0  0  0  0
  189.3500  174.6920  142.6330 O   0  0  0  0  0  0  0  0  0  0  0  0
  191.0910  173.1560  142.5150 C   0  0  0  0  0  0  0  0  0  0  0  0
  194.5660  175.8630  146.1100 C   0  0  0  0  0  3  0  0  0  0  0  0
  192.1120  175.0370  145.1110 C   0  0  0  0  0  0  0  0  0  0  0  0
  193.1300  174.1470  145.2760 N   0  0  0  0  0  0  0  0  0  0  0  0
  194.3410  174.5300  145.7630 C   0  0  0  0  0  3  0  0  0  0  0  0
  193.5360  176.7910  145.9500 C   0  0  0  0  0  3  0  0  0  0  0  0
  192.3000  176.3790  145.4490 C   0  0  0  0  0  3  0  0  0  0  0  0
  1 23  1  6  0  0  0
  1  2  1  0  0  0  0
  2  5  1  0  0  0  0
  5 12  2  0  0  0  0
  6 11  1  0  0  0  0
  6  7  1  0  0  0  0
  7  9  1  0  0  0  0
  8  2  2  0  0  0  0
  8 11  1  0  0  0  0
  9  3  2  0  0  0  0
  9  4  1  0  0  0  0
 10 12  1  0  0  0  0
 10  3  1  0  0  0  0
 11 10  2  0  0  0  0
 13 17  1  6  0  0  0
 13  1  1  0  0  0  0
 16 18  1  0  0  0  0
 18 19  1  0  0  0  0
 18 15  1  0  0  0  0
 18 21  1  0  0  0  0
 19 20  1  0  0  0  0
 20 13  1  0  0  0  0
 21 14  2  0  0  0  0
 21 13  1  0  0  0  0
 23 24  2  0  0  0  0
 23 27  1  0  0  0  0
 24 25  1  0  0  0  0
 25 22  2  0  0  0  0
 26 22  1  0  0  0  0
 27 26  2  0  0  0  0
M  END
>  <MODEL>
9

>  <REMARK>
 VINA RESULT:      -7.1      3.286      6.074
  Name = 
  3 active torsions:
  status: ('A' for Active; 'I' for Inactive)
    1  A    between atoms: C_1  and  C_15
    2  A    between atoms: C_2  and  C_15
    3  A    between atoms: C_9  and  C_15
                            x       y       z     vdW  Elec       q    Type
                         _______ _______ _______ _____ _____    ______ ____

>  <TORSDO>
F 3

$$$$
