=
 OpenBabel11052421253D

 32 37  0  0  1  0  0  0  0  0999 V2000
  191.1890  172.0430  141.6260 C   0  0  0  0  0  2  0  0  0  0  0  0
  188.9630  176.7570  142.8650 C   0  0  1  0  0  3  0  0  0  0  0  0
  191.6030  175.1830  146.7900 C   0  0  0  0  0  2  0  0  0  0  0  0
  190.2440  175.2850  147.4830 C   0  0  0  0  0  2  0  0  0  0  0  0
  187.0180  178.3000  143.2380 C   0  0  0  0  0  0  0  0  0  0  0  0
  186.0470  178.7780  144.1640 N   0  0  0  0  0  0  0  0  0  0  0  0
  189.1730  174.5150  141.7590 C   0  0  1  0  0  3  0  0  0  0  0  0
  191.2550  175.7540  142.4380 C   0  0  0  0  0  2  0  0  0  0  0  0
  184.7590  178.5300  146.0220 C   0  0  0  0  0  0  0  0  0  0  0  0
  191.4820  173.5230  141.3790 C   0  0  0  0  0  2  0  0  0  0  0  0
  191.4180  175.2160  145.2750 C   0  0  0  0  0  2  0  0  0  0  0  0
  190.4230  176.6660  143.3480 C   0  0  2  0  0  3  0  0  0  0  0  0
  190.6000  176.4470  144.8760 C   0  0  1  0  0  3  0  0  0  0  0  0
  188.4150  177.6350  145.2200 C   0  0  2  0  0  3  0  0  0  0  0  0
  183.9240  179.0150  144.9740 N   0  0  0  0  0  0  0  0  0  0  0  0
  189.0790  172.4380  140.3940 C   0  0  0  0  0  2  0  0  0  0  0  0
  190.6110  174.3760  142.2920 C   0  0  2  0  0  3  0  0  0  0  0  0
  184.6800  179.1300  143.9190 C   0  0  0  0  0  3  0  0  0  0  0  0
  188.4880  173.1650  141.5940 C   0  0  0  0  0  2  0  0  0  0  0  0
  190.1170  171.4780  140.7870 N   0  0  0  0  0  0  0  0  0  0  0  0
  189.5700  176.5230  147.0940 N   0  0  0  0  0  2  0  0  0  0  0  0
  189.2800  176.4550  145.6610 C   0  0  2  0  0  3  0  0  0  0  0  0
  187.1400  177.7320  146.0350 C   0  0  0  0  0  3  0  0  0  0  0  0
  188.3440  175.3680  142.7120 C   0  0  0  0  0  2  0  0  0  0  0  0
  186.8620  178.4630  141.9970 O   0  0  0  0  0  0  0  0  0  0  0  0
  184.3610  178.2580  147.1850 O   0  0  0  0  0  0  0  0  0  0  0  0
  188.1460  177.5790  143.7630 N   0  0  0  0  0  0  0  0  0  0  0  0
  186.0940  178.3680  145.5120 C   0  0  0  0  0  0  0  0  0  0  0  0
  190.7370  170.9890  139.5650 C   0  0  0  0  0  2  0  0  0  0  0  0
  189.8270  171.2420  138.3700 C   0  0  0  0  0  2  0  0  0  0  0  0
  190.3860  168.8200  138.1460 C   0  0  0  0  0  1  0  0  0  0  0  0
  189.7470  170.0190  137.4700 C   0  0  0  0  0  2  0  0  0  0  0  0
  2 24  1  1  0  0  0
  2 12  1  0  0  0  0
  2 27  1  0  0  0  0
  3  4  1  0  0  0  0
  5 27  1  0  0  0  0
  5  6  1  0  0  0  0
  6 28  1  0  0  0  0
  7 19  1  1  0  0  0
  7 17  1  0  0  0  0
  7 24  1  0  0  0  0
  9 26  2  0  0  0  0
 10  1  1  0  0  0  0
 11  3  1  0  0  0  0
 12  8  1  6  0  0  0
 12 13  1  0  0  0  0
 13 11  1  6  0  0  0
 13 22  1  0  0  0  0
 14 22  1  0  0  0  0
 14 23  1  1  0  0  0
 15  9  1  0  0  0  0
 16 20  1  0  0  0  0
 16 19  1  0  0  0  0
 17 10  1  6  0  0  0
 17  8  1  0  0  0  0
 18  6  1  0  0  0  0
 18 15  2  0  0  0  0
 20  1  1  0  0  0  0
 21  4  1  0  0  0  0
 22 21  1  1  0  0  0
 25  5  2  0  0  0  0
 27 14  1  0  0  0  0
 28  9  1  0  0  0  0
 28 23  2  0  0  0  0
 29 20  1  0  0  0  0
 30 29  1  0  0  0  0
 32 31  1  0  0  0  0
 32 30  1  0  0  0  0
M  END
>  <MODEL>
1

>  <REMARK>
 VINA RESULT:      -8.3      0.000      0.000
  Name = 
  3 active torsions:
  status: ('A' for Active; 'I' for Inactive)
    1  A    between atoms: C_1  and  C_10
    2  A    between atoms: C_1  and  C_20
    3  A    between atoms: C_10  and  N_24
                            x       y       z     vdW  Elec       q    Type
                         _______ _______ _______ _____ _____    ______ ____

>  <TORSDO>
F 3

$$$$
=
 OpenBabel11052421253D

 32 37  0  0  1  0  0  0  0  0999 V2000
  188.3120  177.1560  147.0280 C   0  0  0  0  0  2  0  0  0  0  0  0
  190.5010  173.9590  143.3270 C   0  0  1  0  0  3  0  0  0  0  0  0
  194.1360  175.6710  146.2760 C   0  0  0  0  0  2  0  0  0  0  0  0
  194.6760  176.2100  144.9500 C   0  0  0  0  0  2  0  0  0  0  0  0
  191.0490  173.2890  140.9700 C   0  0  0  0  0  0  0  0  0  0  0  0
  191.9540  173.4320  139.8800 N   0  0  0  0  0  0  0  0  0  0  0  0
  188.8700  175.6000  144.2970 C   0  0  1  0  0  3  0  0  0  0  0  0
  190.0820  174.0150  145.8300 C   0  0  0  0  0  2  0  0  0  0  0  0
  193.5230  174.6000  138.7190 C   0  0  0  0  0  0  0  0  0  0  0  0
  188.5010  175.6540  146.8110 C   0  0  0  0  0  2  0  0  0  0  0  0
  192.6740  175.2660  146.1160 C   0  0  0  0  0  2  0  0  0  0  0  0
  191.1030  173.7160  144.7240 C   0  0  2  0  0  3  0  0  0  0  0  0
  192.5270  174.2980  144.9380 C   0  0  1  0  0  3  0  0  0  0  0  0
  192.9270  174.0170  142.4760 C   0  0  2  0  0  3  0  0  0  0  0  0
  192.5550  174.1250  137.7870 N   0  0  0  0  0  0  0  0  0  0  0  0
  187.0010  177.1150  144.9300 C   0  0  0  0  0  2  0  0  0  0  0  0
  189.5050  175.4230  145.6890 C   0  0  2  0  0  3  0  0  0  0  0  0
  191.6600  173.4780  138.4790 C   0  0  0  0  0  3  0  0  0  0  0  0
  188.2770  176.9900  144.1090 C   0  0  0  0  0  2  0  0  0  0  0  0
  187.2390  177.7660  146.2240 N   0  0  0  0  0  0  0  0  0  0  0  0
  194.5560  175.1930  143.9060 N   0  0  0  0  0  2  0  0  0  0  0  0
  193.1330  174.9350  143.6790 C   0  0  2  0  0  3  0  0  0  0  0  0
  193.5910  174.5680  141.2290 C   0  0  0  0  0  3  0  0  0  0  0  0
  189.9160  175.3660  143.2140 C   0  0  0  0  0  2  0  0  0  0  0  0
  189.8870  172.8350  140.7900 O   0  0  0  0  0  0  0  0  0  0  0  0
  194.5210  175.3060  138.4160 O   0  0  0  0  0  0  0  0  0  0  0  0
  191.4870  173.7340  142.2660 N   0  0  0  0  0  0  0  0  0  0  0  0
  193.1410  174.1750  140.0390 C   0  0  0  0  0  0  0  0  0  0  0  0
  186.0070  177.6590  146.9930 C   0  0  0  0  0  2  0  0  0  0  0  0
  184.8200  177.4360  146.0650 C   0  0  0  0  0  2  0  0  0  0  0  0
  184.0130  179.1400  144.4300 C   0  0  0  0  0  1  0  0  0  0  0  0
  184.0130  178.7120  145.8860 C   0  0  0  0  0  2  0  0  0  0  0  0
  2 24  1  1  0  0  0
  2 12  1  0  0  0  0
  4  3  1  0  0  0  0
  5 27  1  0  0  0  0
  6 28  1  0  0  0  0
  6  5  1  0  0  0  0
  7 24  1  6  0  0  0
  7 17  1  0  0  0  0
  9 28  1  0  0  0  0
 10  1  1  0  0  0  0
 11  3  1  0  0  0  0
 12 13  1  0  0  0  0
 12  8  1  1  0  0  0
 13 11  1  1  0  0  0
 14 23  1  6  0  0  0
 14 22  1  0  0  0  0
 15 18  2  0  0  0  0
 15  9  1  0  0  0  0
 16 20  1  0  0  0  0
 17  8  1  6  0  0  0
 17 10  1  0  0  0  0
 18  6  1  0  0  0  0
 19  7  1  0  0  0  0
 19 16  1  0  0  0  0
 20 29  1  0  0  0  0
 20  1  1  0  0  0  0
 21  4  1  0  0  0  0
 22 21  1  1  0  0  0
 22 13  1  0  0  0  0
 25  5  2  0  0  0  0
 26  9  2  0  0  0  0
 27 14  1  0  0  0  0
 27  2  1  0  0  0  0
 28 23  2  0  0  0  0
 30 29  1  0  0  0  0
 31 32  1  0  0  0  0
 32 30  1  0  0  0  0
M  END
>  <MODEL>
2

>  <REMARK>
 VINA RESULT:      -7.9      3.041      7.970
  Name = 
  3 active torsions:
  status: ('A' for Active; 'I' for Inactive)
    1  A    between atoms: C_1  and  C_10
    2  A    between atoms: C_1  and  C_20
    3  A    between atoms: C_10  and  N_24
                            x       y       z     vdW  Elec       q    Type
                         _______ _______ _______ _____ _____    ______ ____

>  <TORSDO>
F 3

$$$$
=
 OpenBabel11052421253D

 32 37  0  0  1  0  0  0  0  0999 V2000
  186.6170  177.8450  144.3270 C   0  0  0  0  0  2  0  0  0  0  0  0
  191.1140  175.2340  143.0300 C   0  0  1  0  0  3  0  0  0  0  0  0
  191.1550  176.0960  147.9390 C   0  0  0  0  0  2  0  0  0  0  0  0
  192.4510  176.8290  147.5910 C   0  0  0  0  0  2  0  0  0  0  0  0
  193.2960  174.9730  141.8140 C   0  0  0  0  0  0  0  0  0  0  0  0
  194.6930  175.2480  141.8200 N   0  0  0  0  0  0  0  0  0  0  0  0
  189.1650  176.7840  142.7220 C   0  0  1  0  0  3  0  0  0  0  0  0
  188.9650  174.8570  144.3270 C   0  0  0  0  0  2  0  0  0  0  0  0
  196.4880  176.4900  142.4590 C   0  0  0  0  0  0  0  0  0  0  0  0
  187.0410  176.3990  144.0620 C   0  0  0  0  0  2  0  0  0  0  0  0
  190.3470  175.8360  146.6710 C   0  0  0  0  0  2  0  0  0  0  0  0
  190.4900  174.6930  144.3300 C   0  0  2  0  0  3  0  0  0  0  0  0
  191.2160  175.1170  145.6360 C   0  0  1  0  0  3  0  0  0  0  0  0
  193.3430  175.2680  144.3110 C   0  0  2  0  0  3  0  0  0  0  0  0
  196.5880  176.2700  141.0540 N   0  0  0  0  0  0  0  0  0  0  0  0
  187.3230  178.2900  141.9970 C   0  0  0  0  0  2  0  0  0  0  0  0
  188.5610  176.3060  144.0550 C   0  0  2  0  0  3  0  0  0  0  0  0
  195.5400  175.5740  140.7110 C   0  0  0  0  0  3  0  0  0  0  0  0
  188.7880  178.2250  142.4040 C   0  0  0  0  0  2  0  0  0  0  0  0
  186.4550  178.6710  143.1180 N   0  0  0  0  0  0  0  0  0  0  0  0
  193.2440  176.0350  146.6530 N   0  0  0  0  0  2  0  0  0  0  0  0
  192.4980  175.9300  145.3980 C   0  0  2  0  0  3  0  0  0  0  0  0
  194.6620  175.9890  144.1080 C   0  0  0  0  0  3  0  0  0  0  0  0
  190.6850  176.6780  142.7700 C   0  0  0  0  0  2  0  0  0  0  0  0
  192.7050  174.6480  140.7490 O   0  0  0  0  0  0  0  0  0  0  0  0
  197.3070  177.1650  143.1360 O   0  0  0  0  0  0  0  0  0  0  0  0
  192.5760  175.1360  143.0490 N   0  0  0  0  0  0  0  0  0  0  0  0
  195.2890  175.8580  142.9420 C   0  0  0  0  0  0  0  0  0  0  0  0
  185.0790  178.5160  142.6690 C   0  0  0  0  0  2  0  0  0  0  0  0
  185.0420  177.9530  141.2550 C   0  0  0  0  0  2  0  0  0  0  0  0
  182.5890  178.2910  141.5600 C   0  0  0  0  0  1  0  0  0  0  0  0
  183.7310  178.2910  140.5610 C   0  0  0  0  0  2  0  0  0  0  0  0
  2 24  1  1  0  0  0
  2 27  1  0  0  0  0
  2 12  1  0  0  0  0
  4  3  1  0  0  0  0
  5  6  1  0  0  0  0
  5 27  1  0  0  0  0
  6 28  1  0  0  0  0
  7 19  1  1  0  0  0
  7 24  1  0  0  0  0
  7 17  1  0  0  0  0
  9 28  1  0  0  0  0
  9 26  2  0  0  0  0
 10  1  1  0  0  0  0
 11  3  1  0  0  0  0
 12  8  1  1  0  0  0
 12 13  1  0  0  0  0
 13 11  1  1  0  0  0
 14 23  1  6  0  0  0
 14 22  1  0  0  0  0
 15  9  1  0  0  0  0
 16 19  1  0  0  0  0
 16 20  1  0  0  0  0
 17 10  1  6  0  0  0
 17  8  1  0  0  0  0
 18 15  2  0  0  0  0
 18  6  1  0  0  0  0
 20  1  1  0  0  0  0
 21  4  1  0  0  0  0
 22 13  1  0  0  0  0
 22 21  1  1  0  0  0
 25  5  2  0  0  0  0
 27 14  1  0  0  0  0
 28 23  2  0  0  0  0
 29 20  1  0  0  0  0
 30 29  1  0  0  0  0
 32 30  1  0  0  0  0
 32 31  1  0  0  0  0
M  END
>  <MODEL>
3

>  <REMARK>
 VINA RESULT:      -7.8      3.932      7.599
  Name = 
  3 active torsions:
  status: ('A' for Active; 'I' for Inactive)
    1  A    between atoms: C_1  and  C_10
    2  A    between atoms: C_1  and  C_20
    3  A    between atoms: C_10  and  N_24
                            x       y       z     vdW  Elec       q    Type
                         _______ _______ _______ _____ _____    ______ ____

>  <TORSDO>
F 3

$$$$
=
 OpenBabel11052421253D

 32 37  0  0  1  0  0  0  0  0999 V2000
  186.7380  176.6000  145.0770 C   0  0  0  0  0  2  0  0  0  0  0  0
  191.9200  175.7900  143.9800 C   0  0  1  0  0  3  0  0  0  0  0  0
  189.2440  172.3400  141.5750 C   0  0  0  0  0  2  0  0  0  0  0  0
  190.1120  171.3890  142.4000 C   0  0  0  0  0  2  0  0  0  0  0  0
  194.3000  175.2810  144.5980 C   0  0  0  0  0  0  0  0  0  0  0  0
  195.2660  174.2660  144.8470 N   0  0  0  0  0  0  0  0  0  0  0  0
  189.9180  176.4780  145.3270 C   0  0  1  0  0  3  0  0  0  0  0  0
  189.7890  176.5290  142.8150 C   0  0  0  0  0  2  0  0  0  0  0  0
  195.8380  172.1520  145.4620 C   0  0  0  0  0  0  0  0  0  0  0  0
  187.7890  177.1780  144.1290 C   0  0  0  0  0  2  0  0  0  0  0  0
  189.3320  173.7520  142.1450 C   0  0  0  0  0  2  0  0  0  0  0  0
  191.0370  175.6400  142.7260 C   0  0  2  0  0  3  0  0  0  0  0  0
  190.7990  174.1790  142.2580 C   0  0  1  0  0  3  0  0  0  0  0  0
  193.0190  173.5780  143.2640 C   0  0  2  0  0  3  0  0  0  0  0  0
  196.6790  173.0560  146.1740 N   0  0  0  0  0  0  0  0  0  0  0  0
  188.2170  177.3760  146.9040 C   0  0  0  0  0  2  0  0  0  0  0  0
  189.0090  176.2670  144.1020 C   0  0  2  0  0  3  0  0  0  0  0  0
  196.3190  174.2570  145.8180 C   0  0  0  0  0  3  0  0  0  0  0  0
  189.1830  176.2300  146.6380 C   0  0  0  0  0  2  0  0  0  0  0  0
  186.8500  177.0560  146.4740 N   0  0  0  0  0  0  0  0  0  0  0  0
  191.5030  171.8400  142.3910 N   0  0  0  0  0  2  0  0  0  0  0  0
  191.5700  173.1310  143.0750 C   0  0  2  0  0  3  0  0  0  0  0  0
  193.8400  172.5290  143.9890 C   0  0  0  0  0  3  0  0  0  0  0  0
  191.1160  175.5390  145.2550 C   0  0  0  0  0  2  0  0  0  0  0  0
  194.4870  176.4630  144.9960 O   0  0  0  0  0  0  0  0  0  0  0  0
  195.8700  170.8990  145.5850 O   0  0  0  0  0  0  0  0  0  0  0  0
  193.0830  174.9000  143.9310 N   0  0  0  0  0  0  0  0  0  0  0  0
  194.9390  172.9110  144.6350 C   0  0  0  0  0  0  0  0  0  0  0  0
  186.0630  178.2740  146.5970 C   0  0  0  0  0  2  0  0  0  0  0  0
  184.5830  177.9710  146.4010 C   0  0  0  0  0  2  0  0  0  0  0  0
  185.0290  179.7130  144.6710 C   0  0  0  0  0  1  0  0  0  0  0  0
  183.9550  178.9230  145.3950 C   0  0  0  0  0  2  0  0  0  0  0  0
  1 20  1  0  0  0  0
  2 24  1  1  0  0  0
  3 11  1  0  0  0  0
  3  4  1  0  0  0  0
  5  6  1  0  0  0  0
  5 25  2  0  0  0  0
  6 18  1  0  0  0  0
  7 24  1  6  0  0  0
  7 19  1  0  0  0  0
  9 26  2  0  0  0  0
  9 15  1  0  0  0  0
 10  1  1  0  0  0  0
 12  8  1  1  0  0  0
 12  2  1  0  0  0  0
 13 11  1  1  0  0  0
 13 12  1  0  0  0  0
 13 22  1  0  0  0  0
 14 27  1  0  0  0  0
 14 23  1  1  0  0  0
 17  8  1  6  0  0  0
 17 10  1  0  0  0  0
 17  7  1  0  0  0  0
 18 15  2  0  0  0  0
 19 16  1  0  0  0  0
 20 29  1  0  0  0  0
 20 16  1  0  0  0  0
 21  4  1  0  0  0  0
 22 21  1  6  0  0  0
 22 14  1  0  0  0  0
 23 28  2  0  0  0  0
 27  2  1  0  0  0  0
 27  5  1  0  0  0  0
 28  6  1  0  0  0  0
 28  9  1  0  0  0  0
 30 29  1  0  0  0  0
 31 32  1  0  0  0  0
 32 30  1  0  0  0  0
M  END
>  <MODEL>
4

>  <REMARK>
 VINA RESULT:      -7.8      3.907      8.557
  Name = 
  3 active torsions:
  status: ('A' for Active; 'I' for Inactive)
    1  A    between atoms: C_1  and  C_10
    2  A    between atoms: C_1  and  C_20
    3  A    between atoms: C_10  and  N_24
                            x       y       z     vdW  Elec       q    Type
                         _______ _______ _______ _____ _____    ______ ____

>  <TORSDO>
F 3

$$$$
=
 OpenBabel11052421253D

 32 37  0  0  1  0  0  0  0  0999 V2000
  191.0450  172.4040  143.9590 C   0  0  0  0  0  2  0  0  0  0  0  0
  188.3920  176.6280  142.0010 C   0  0  1  0  0  3  0  0  0  0  0  0
  189.0580  177.3180  146.8930 C   0  0  0  0  0  2  0  0  0  0  0  0
  187.5300  177.3860  146.8820 C   0  0  0  0  0  2  0  0  0  0  0  0
  186.4470  177.7360  140.8630 C   0  0  0  0  0  0  0  0  0  0  0  0
  185.1560  178.3150  141.0220 N   0  0  0  0  0  0  0  0  0  0  0  0
  189.1220  174.2350  142.1870 C   0  0  1  0  0  3  0  0  0  0  0  0
  190.6590  176.0570  142.9900 C   0  0  0  0  0  2  0  0  0  0  0  0
  183.1850  178.5390  142.1340 C   0  0  0  0  0  0  0  0  0  0  0  0
  191.3820  173.6970  143.2150 C   0  0  0  0  0  2  0  0  0  0  0  0
  189.5620  176.7170  145.5840 C   0  0  0  0  0  2  0  0  0  0  0  0
  189.4890  177.0500  142.9980 C   0  0  2  0  0  3  0  0  0  0  0  0
  188.9760  177.4870  144.3970 C   0  0  1  0  0  3  0  0  0  0  0  0
  186.8380  178.2130  143.3010 C   0  0  2  0  0  3  0  0  0  0  0  0
  182.8880  178.3840  140.7490 N   0  0  0  0  0  0  0  0  0  0  0  0
  189.6900  171.8230  141.9720 C   0  0  0  0  0  2  0  0  0  0  0  0
  190.1780  174.6280  143.2360 C   0  0  2  0  0  3  0  0  0  0  0  0
  184.0310  178.2390  140.1380 C   0  0  0  0  0  3  0  0  0  0  0  0
  188.6120  172.8140  142.3890 C   0  0  0  0  0  2  0  0  0  0  0  0
  190.4690  171.3410  143.1190 N   0  0  0  0  0  0  0  0  0  0  0  0
  187.0700  178.1980  145.7550 N   0  0  0  0  0  2  0  0  0  0  0  0
  187.4450  177.5160  144.5160 C   0  0  2  0  0  3  0  0  0  0  0  0
  185.3320  178.3430  143.4220 C   0  0  0  0  0  3  0  0  0  0  0  0
  187.9370  175.1920  142.2560 C   0  0  0  0  0  2  0  0  0  0  0  0
  186.8530  177.3640  139.7280 O   0  0  0  0  0  0  0  0  0  0  0  0
  182.3190  178.6630  143.0410 O   0  0  0  0  0  0  0  0  0  0  0  0
  187.2430  177.5380  142.0440 N   0  0  0  0  0  0  0  0  0  0  0  0
  184.6110  178.4830  142.3110 C   0  0  0  0  0  0  0  0  0  0  0  0
  191.5770  170.5600  142.5890 C   0  0  0  0  0  2  0  0  0  0  0  0
  191.6430  170.6920  141.0730 C   0  0  0  0  0  2  0  0  0  0  0  0
  192.8060  172.6200  139.9970 C   0  0  0  0  0  1  0  0  0  0  0  0
  192.9850  171.2510  140.6270 C   0  0  0  0  0  2  0  0  0  0  0  0
  2 27  1  0  0  0  0
  2 24  1  1  0  0  0
  2 12  1  0  0  0  0
  4  3  1  0  0  0  0
  5  6  1  0  0  0  0
  5 27  1  0  0  0  0
  6 28  1  0  0  0  0
  7 24  1  1  0  0  0
  7 19  1  0  0  0  0
  7 17  1  0  0  0  0
  9 28  1  0  0  0  0
  9 26  2  0  0  0  0
 10 17  1  0  0  0  0
 10  1  1  0  0  0  0
 11  3  1  0  0  0  0
 12  8  1  1  0  0  0
 12 13  1  0  0  0  0
 13 22  1  0  0  0  0
 13 11  1  1  0  0  0
 14 23  1  1  0  0  0
 14 22  1  0  0  0  0
 15  9  1  0  0  0  0
 16 19  1  0  0  0  0
 16 20  1  0  0  0  0
 17  8  1  6  0  0  0
 18 15  2  0  0  0  0
 18  6  1  0  0  0  0
 20  1  1  0  0  0  0
 21  4  1  0  0  0  0
 22 21  1  1  0  0  0
 25  5  2  0  0  0  0
 27 14  1  0  0  0  0
 28 23  2  0  0  0  0
 29 20  1  0  0  0  0
 30 29  1  0  0  0  0
 31 32  1  0  0  0  0
 32 30  1  0  0  0  0
M  END
>  <MODEL>
5

>  <REMARK>
 VINA RESULT:      -7.7      2.212      2.906
  Name = 
  3 active torsions:
  status: ('A' for Active; 'I' for Inactive)
    1  A    between atoms: C_1  and  C_10
    2  A    between atoms: C_1  and  C_20
    3  A    between atoms: C_10  and  N_24
                            x       y       z     vdW  Elec       q    Type
                         _______ _______ _______ _____ _____    ______ ____

>  <TORSDO>
F 3

$$$$
=
 OpenBabel11052421253D

 32 37  0  0  1  0  0  0  0  0999 V2000
  191.9180  171.6550  142.8230 C   0  0  0  0  0  2  0  0  0  0  0  0
  189.2950  176.3150  142.4590 C   0  0  1  0  0  3  0  0  0  0  0  0
  191.7380  176.2190  146.8040 C   0  0  0  0  0  2  0  0  0  0  0  0
  190.3280  176.4050  147.3650 C   0  0  0  0  0  2  0  0  0  0  0  0
  187.2280  177.7240  142.2480 C   0  0  0  0  0  0  0  0  0  0  0  0
  186.1620  178.3710  142.9360 N   0  0  0  0  0  0  0  0  0  0  0  0
  189.7370  173.8710  142.0980 C   0  0  1  0  0  3  0  0  0  0  0  0
  191.6750  175.4310  142.4730 C   0  0  0  0  0  2  0  0  0  0  0  0
  184.7600  178.5780  144.7140 C   0  0  0  0  0  0  0  0  0  0  0  0
  192.1290  173.0140  142.1530 C   0  0  0  0  0  2  0  0  0  0  0  0
  191.6640  175.7810  145.3440 C   0  0  0  0  0  2  0  0  0  0  0  0
  190.7190  176.4980  143.0200 C   0  0  2  0  0  3  0  0  0  0  0  0
  190.7960  176.7610  144.5490 C   0  0  1  0  0  3  0  0  0  0  0  0
  188.5170  177.8040  144.4060 C   0  0  2  0  0  3  0  0  0  0  0  0
  183.9730  178.6540  143.5280 N   0  0  0  0  0  0  0  0  0  0  0  0
  189.8840  171.4810  141.4250 C   0  0  0  0  0  2  0  0  0  0  0  0
  191.1370  174.0220  142.7200 C   0  0  2  0  0  3  0  0  0  0  0  0
  184.7970  178.5140  142.5270 C   0  0  0  0  0  3  0  0  0  0  0  0
  189.1580  172.4790  142.3170 C   0  0  0  0  0  2  0  0  0  0  0  0
  190.9520  170.7760  142.1430 N   0  0  0  0  0  0  0  0  0  0  0  0
  189.6030  177.4080  146.5840 N   0  0  0  0  0  2  0  0  0  0  0  0
  189.4240  176.8900  145.2270 C   0  0  2  0  0  3  0  0  0  0  0  0
  187.1820  178.0300  145.0880 C   0  0  0  0  0  3  0  0  0  0  0  0
  188.7840  174.8950  142.7040 C   0  0  0  0  0  2  0  0  0  0  0  0
  187.1540  177.4950  141.0110 O   0  0  0  0  0  0  0  0  0  0  0  0
  184.2960  178.6330  145.8840 O   0  0  0  0  0  0  0  0  0  0  0  0
  188.3610  177.2930  143.0230 N   0  0  0  0  0  0  0  0  0  0  0  0
  186.1370  178.3880  144.3450 C   0  0  0  0  0  0  0  0  0  0  0  0
  191.6920  169.9990  141.1590 C   0  0  0  0  0  2  0  0  0  0  0  0
  191.1870  170.3020  139.7550 C   0  0  0  0  0  2  0  0  0  0  0  0
  191.9950  172.2800  138.4660 C   0  0  0  0  0  1  0  0  0  0  0  0
  192.3000  170.8510  138.8750 C   0  0  0  0  0  2  0  0  0  0  0  0
  2 24  1  1  0  0  0
  2 12  1  0  0  0  0
  2 27  1  0  0  0  0
  3  4  1  0  0  0  0
  5  6  1  0  0  0  0
  5 27  1  0  0  0  0
  6 28  1  0  0  0  0
  7 19  1  1  0  0  0
  7 24  1  0  0  0  0
  7 17  1  0  0  0  0
  8 17  1  0  0  0  0
  9 26  2  0  0  0  0
 10  1  1  0  0  0  0
 11  3  1  0  0  0  0
 12  8  1  1  0  0  0
 12 13  1  0  0  0  0
 13 22  1  0  0  0  0
 13 11  1  1  0  0  0
 14 23  1  1  0  0  0
 14 22  1  0  0  0  0
 15  9  1  0  0  0  0
 16 20  1  0  0  0  0
 16 19  1  0  0  0  0
 17 10  1  6  0  0  0
 18  6  1  0  0  0  0
 18 15  2  0  0  0  0
 20  1  1  0  0  0  0
 21  4  1  0  0  0  0
 22 21  1  1  0  0  0
 25  5  2  0  0  0  0
 27 14  1  0  0  0  0
 28  9  1  0  0  0  0
 28 23  2  0  0  0  0
 29 20  1  0  0  0  0
 30 29  1  0  0  0  0
 31 32  1  0  0  0  0
 32 30  1  0  0  0  0
M  END
>  <MODEL>
6

>  <REMARK>
 VINA RESULT:      -7.7      1.267      1.453
  Name = 
  3 active torsions:
  status: ('A' for Active; 'I' for Inactive)
    1  A    between atoms: C_1  and  C_10
    2  A    between atoms: C_1  and  C_20
    3  A    between atoms: C_10  and  N_24
                            x       y       z     vdW  Elec       q    Type
                         _______ _______ _______ _____ _____    ______ ____

>  <TORSDO>
F 3

$$$$
=
 OpenBabel11052421253D

 32 37  0  0  1  0  0  0  0  0999 V2000
  187.8810  177.8170  145.0540 C   0  0  0  0  0  2  0  0  0  0  0  0
  191.6120  174.6220  142.9110 C   0  0  1  0  0  3  0  0  0  0  0  0
  193.5360  176.7880  146.9680 C   0  0  0  0  0  2  0  0  0  0  0  0
  194.5620  177.2990  145.9560 C   0  0  0  0  0  2  0  0  0  0  0  0
  193.1530  173.8770  141.0740 C   0  0  0  0  0  0  0  0  0  0  0  0
  194.4290  174.0370  140.4630 N   0  0  0  0  0  0  0  0  0  0  0  0
  189.6380  176.1700  142.9580 C   0  0  1  0  0  3  0  0  0  0  0  0
  190.1580  174.7760  144.9860 C   0  0  0  0  0  2  0  0  0  0  0  0
  196.2800  175.2690  139.9830 C   0  0  0  0  0  0  0  0  0  0  0  0
  188.2250  176.3270  145.0640 C   0  0  0  0  0  2  0  0  0  0  0  0
  192.3070  176.2530  146.2390 C   0  0  0  0  0  2  0  0  0  0  0  0
  191.5690  174.5060  144.4470 C   0  0  2  0  0  3  0  0  0  0  0  0
  192.7300  175.2150  145.1950 C   0  0  1  0  0  3  0  0  0  0  0  0
  194.1620  174.8390  143.1680 C   0  0  2  0  0  3  0  0  0  0  0  0
  195.8310  174.6660  138.7720 N   0  0  0  0  0  0  0  0  0  0  0  0
  187.6010  177.5540  142.6090 C   0  0  0  0  0  2  0  0  0  0  0  0
  189.6230  176.1210  144.4970 C   0  0  2  0  0  3  0  0  0  0  0  0
  194.7610  173.9830  139.0700 C   0  0  0  0  0  3  0  0  0  0  0  0
  189.1100  177.4940  142.4200 C   0  0  0  0  0  2  0  0  0  0  0  0
  187.2260  178.2910  143.8230 N   0  0  0  0  0  0  0  0  0  0  0  0
  194.9550  176.2210  145.0490 N   0  0  0  0  0  2  0  0  0  0  0  0
  193.7840  175.8340  144.2630 C   0  0  2  0  0  3  0  0  0  0  0  0
  195.2660  175.3760  142.2780 C   0  0  0  0  0  3  0  0  0  0  0  0
  191.0580  175.9680  142.4430 C   0  0  0  0  0  2  0  0  0  0  0  0
  192.2060  173.3180  140.4570 O   0  0  0  0  0  0  0  0  0  0  0  0
  197.2720  176.0400  140.0730 O   0  0  0  0  0  0  0  0  0  0  0  0
  192.9680  174.4250  142.3920 N   0  0  0  0  0  0  0  0  0  0  0  0
  195.3920  174.8840  141.0470 C   0  0  0  0  0  0  0  0  0  0  0  0
  185.7920  178.1230  144.0030 C   0  0  0  0  0  2  0  0  0  0  0  0
  185.2280  179.2520  144.8560 C   0  0  0  0  0  2  0  0  0  0  0  0
  184.4950  177.5390  146.5170 C   0  0  0  0  0  1  0  0  0  0  0  0
  184.0790  178.7650  145.7240 C   0  0  0  0  0  2  0  0  0  0  0  0
  1 10  1  0  0  0  0
  2 24  1  1  0  0  0
  2 12  1  0  0  0  0
  4  3  1  0  0  0  0
  5 27  1  0  0  0  0
  6 28  1  0  0  0  0
  6  5  1  0  0  0  0
  7 19  1  1  0  0  0
  7 17  1  0  0  0  0
  9 26  2  0  0  0  0
  9 28  1  0  0  0  0
 11  3  1  0  0  0  0
 12  8  1  1  0  0  0
 12 13  1  0  0  0  0
 13 11  1  6  0  0  0
 14 23  1  6  0  0  0
 14 22  1  0  0  0  0
 15 18  2  0  0  0  0
 15  9  1  0  0  0  0
 16 20  1  0  0  0  0
 17  8  1  6  0  0  0
 17 10  1  0  0  0  0
 18  6  1  0  0  0  0
 19 16  1  0  0  0  0
 20 29  1  0  0  0  0
 20  1  1  0  0  0  0
 21  4  1  0  0  0  0
 22 21  1  1  0  0  0
 22 13  1  0  0  0  0
 24  7  1  0  0  0  0
 25  5  2  0  0  0  0
 27  2  1  0  0  0  0
 27 14  1  0  0  0  0
 28 23  2  0  0  0  0
 29 30  1  0  0  0  0
 30 32  1  0  0  0  0
 32 31  1  0  0  0  0
M  END
>  <MODEL>
7

>  <REMARK>
 VINA RESULT:      -7.6      3.703      8.278
  Name = 
  3 active torsions:
  status: ('A' for Active; 'I' for Inactive)
    1  A    between atoms: C_1  and  C_10
    2  A    between atoms: C_1  and  C_20
    3  A    between atoms: C_10  and  N_24
                            x       y       z     vdW  Elec       q    Type
                         _______ _______ _______ _____ _____    ______ ____

>  <TORSDO>
F 3

$$$$
=
 OpenBabel11052421253D

 32 37  0  0  1  0  0  0  0  0999 V2000
  194.2360  174.9930  142.5270 C   0  0  0  0  0  2  0  0  0  0  0  0
  189.5920  175.2930  145.1830 C   0  0  1  0  0  3  0  0  0  0  0  0
  188.5970  174.5840  140.3510 C   0  0  0  0  0  2  0  0  0  0  0  0
  187.8420  175.9030  140.5250 C   0  0  0  0  0  2  0  0  0  0  0  0
  187.8930  176.4510  146.6260 C   0  0  0  0  0  0  0  0  0  0  0  0
  186.7730  177.3290  146.6610 N   0  0  0  0  0  0  0  0  0  0  0  0
  192.0010  175.7690  144.6710 C   0  0  1  0  0  3  0  0  0  0  0  0
  190.9870  173.5950  143.9130 C   0  0  0  0  0  2  0  0  0  0  0  0
  185.5210  179.0140  145.7860 C   0  0  0  0  0  0  0  0  0  0  0  0
  193.3590  174.0630  143.3670 C   0  0  0  0  0  2  0  0  0  0  0  0
  189.5400  174.3650  141.5300 C   0  0  0  0  0  2  0  0  0  0  0  0
  189.5800  174.1680  144.1310 C   0  0  2  0  0  3  0  0  0  0  0  0
  188.7650  174.4760  142.8460 C   0  0  1  0  0  3  0  0  0  0  0  0
  187.3070  175.9830  144.2260 C   0  0  2  0  0  3  0  0  0  0  0  0
  185.7170  179.2910  147.1710 N   0  0  0  0  0  0  0  0  0  0  0  0
  194.4100  176.3800  144.5690 C   0  0  0  0  0  2  0  0  0  0  0  0
  191.9880  174.6950  143.5670 C   0  0  2  0  0  3  0  0  0  0  0  0
  186.4520  178.3230  147.6420 C   0  0  0  0  0  3  0  0  0  0  0  0
  192.9890  176.8890  144.3720 C   0  0  0  0  0  2  0  0  0  0  0  0
  195.0270  175.9630  143.3040 N   0  0  0  0  0  0  0  0  0  0  0  0
  187.0780  175.8860  141.7720 N   0  0  0  0  0  2  0  0  0  0  0  0
  188.0240  175.8210  142.8870 C   0  0  2  0  0  3  0  0  0  0  0  0
  186.4890  177.2590  144.2730 C   0  0  0  0  0  3  0  0  0  0  0  0
  190.6110  176.3740  144.8260 C   0  0  0  0  0  2  0  0  0  0  0  0
  188.5650  176.2180  147.6670 O   0  0  0  0  0  0  0  0  0  0  0  0
  184.8890  179.7590  144.9910 O   0  0  0  0  0  0  0  0  0  0  0  0
  188.2630  175.8870  145.3550 N   0  0  0  0  0  0  0  0  0  0  0  0
  186.1940  177.7850  145.4600 C   0  0  0  0  0  0  0  0  0  0  0  0
  196.2930  175.3240  143.6320 C   0  0  0  0  0  2  0  0  0  0  0  0
  196.2790  174.8250  145.0700 C   0  0  0  0  0  2  0  0  0  0  0  0
  196.8850  172.6130  146.0550 C   0  0  0  0  0  1  0  0  0  0  0  0
  197.4060  173.8350  145.3210 C   0  0  0  0  0  2  0  0  0  0  0  0
  1 20  1  0  0  0  0
  1 10  1  0  0  0  0
  2 24  1  6  0  0  0
  2 27  1  0  0  0  0
  3  4  1  0  0  0  0
  3 11  1  0  0  0  0
  4 21  1  0  0  0  0
  5  6  1  0  0  0  0
  5 25  2  0  0  0  0
  6 18  1  0  0  0  0
  7 19  1  6  0  0  0
  7 24  1  0  0  0  0
  9 15  1  0  0  0  0
 12  8  1  6  0  0  0
 12  2  1  0  0  0  0
 13 11  1  6  0  0  0
 13 22  1  0  0  0  0
 13 12  1  0  0  0  0
 14 23  1  6  0  0  0
 14 27  1  0  0  0  0
 15 18  2  0  0  0  0
 17 10  1  1  0  0  0
 17  8  1  0  0  0  0
 17  7  1  0  0  0  0
 19 16  1  0  0  0  0
 20 29  1  0  0  0  0
 20 16  1  0  0  0  0
 22 21  1  6  0  0  0
 22 14  1  0  0  0  0
 23 28  2  0  0  0  0
 26  9  2  0  0  0  0
 27  5  1  0  0  0  0
 28  9  1  0  0  0  0
 28  6  1  0  0  0  0
 29 30  1  0  0  0  0
 30 32  1  0  0  0  0
 32 31  1  0  0  0  0
M  END
>  <MODEL>
8

>  <REMARK>
 VINA RESULT:      -7.5      3.045      5.441
  Name = 
  3 active torsions:
  status: ('A' for Active; 'I' for Inactive)
    1  A    between atoms: C_1  and  C_10
    2  A    between atoms: C_1  and  C_20
    3  A    between atoms: C_10  and  N_24
                            x       y       z     vdW  Elec       q    Type
                         _______ _______ _______ _____ _____    ______ ____

>  <TORSDO>
F 3

$$$$
=
 OpenBabel11052421253D

 32 37  0  0  1  0  0  0  0  0999 V2000
  187.7490  177.8750  145.0730 C   0  0  0  0  0  2  0  0  0  0  0  0
  191.1170  173.8950  143.8350 C   0  0  1  0  0  3  0  0  0  0  0  0
  193.2920  176.7900  147.2610 C   0  0  0  0  0  2  0  0  0  0  0  0
  194.3530  176.9310  146.1690 C   0  0  0  0  0  2  0  0  0  0  0  0
  192.5550  172.5700  142.2600 C   0  0  0  0  0  0  0  0  0  0  0  0
  193.8340  172.4470  141.6460 N   0  0  0  0  0  0  0  0  0  0  0  0
  189.3090  175.5960  143.4710 C   0  0  1  0  0  3  0  0  0  0  0  0
  189.7090  174.7000  145.7880 C   0  0  0  0  0  2  0  0  0  0  0  0
  195.7930  173.3310  140.9040 C   0  0  0  0  0  0  0  0  0  0  0  0
  187.9410  176.4060  145.4540 C   0  0  0  0  0  2  0  0  0  0  0  0
  192.0080  176.2170  146.6680 C   0  0  0  0  0  2  0  0  0  0  0  0
  191.0790  174.1650  145.3510 C   0  0  2  0  0  3  0  0  0  0  0  0
  192.3140  174.9180  145.9180 C   0  0  1  0  0  3  0  0  0  0  0  0
  193.6780  173.9120  144.0660 C   0  0  2  0  0  3  0  0  0  0  0  0
  195.2730  172.4970  139.8720 N   0  0  0  0  0  0  0  0  0  0  0  0
  187.4170  177.0480  142.7640 C   0  0  0  0  0  2  0  0  0  0  0  0
  189.3060  175.9290  144.9740 C   0  0  2  0  0  3  0  0  0  0  0  0
  194.1440  172.0190  140.3140 C   0  0  0  0  0  3  0  0  0  0  0  0
  188.9100  176.7920  142.6170 C   0  0  0  0  0  2  0  0  0  0  0  0
  187.1310  178.0940  143.7540 N   0  0  0  0  0  0  0  0  0  0  0  0
  194.6270  175.6290  145.5600 N   0  0  0  0  0  2  0  0  0  0  0  0
  193.4140  175.1790  144.8780 C   0  0  2  0  0  3  0  0  0  0  0  0
  194.8210  174.1010  143.0870 C   0  0  0  0  0  3  0  0  0  0  0  0
  190.6960  175.1320  143.0430 C   0  0  0  0  0  2  0  0  0  0  0  0
  191.5500  171.9740  141.7860 O   0  0  0  0  0  0  0  0  0  0  0  0
  196.8590  173.9980  140.8150 O   0  0  0  0  0  0  0  0  0  0  0  0
  192.4400  173.4410  143.3990 N   0  0  0  0  0  0  0  0  0  0  0  0
  194.8830  173.3110  142.0180 C   0  0  0  0  0  0  0  0  0  0  0  0
  185.6890  178.1190  143.9500 C   0  0  0  0  0  2  0  0  0  0  0  0
  185.3130  179.1660  144.9900 C   0  0  0  0  0  2  0  0  0  0  0  0
  184.8040  178.3560  147.2950 C   0  0  0  0  0  1  0  0  0  0  0  0
  184.2280  178.6520  145.9220 C   0  0  0  0  0  2  0  0  0  0  0  0
  1 10  1  0  0  0  0
  2 24  1  6  0  0  0
  2 12  1  0  0  0  0
  4  3  1  0  0  0  0
  5 27  1  0  0  0  0
  6 28  1  0  0  0  0
  6  5  1  0  0  0  0
  7 19  1  6  0  0  0
  7 17  1  0  0  0  0
  9 28  1  0  0  0  0
 11  3  1  0  0  0  0
 12  8  1  6  0  0  0
 12 13  1  0  0  0  0
 13 11  1  6  0  0  0
 14 23  1  6  0  0  0
 14 22  1  0  0  0  0
 15 18  2  0  0  0  0
 15  9  1  0  0  0  0
 16 20  1  0  0  0  0
 17 10  1  1  0  0  0
 17  8  1  0  0  0  0
 18  6  1  0  0  0  0
 19 16  1  0  0  0  0
 20 29  1  0  0  0  0
 20  1  1  0  0  0  0
 21  4  1  0  0  0  0
 22 21  1  1  0  0  0
 22 13  1  0  0  0  0
 24  7  1  0  0  0  0
 25  5  2  0  0  0  0
 26  9  2  0  0  0  0
 27  2  1  0  0  0  0
 27 14  1  0  0  0  0
 28 23  2  0  0  0  0
 29 30  1  0  0  0  0
 30 32  1  0  0  0  0
 32 31  1  0  0  0  0
M  END
>  <MODEL>
9

>  <REMARK>
 VINA RESULT:      -7.4      3.487      8.293
  Name = 
  3 active torsions:
  status: ('A' for Active; 'I' for Inactive)
    1  A    between atoms: C_1  and  C_10
    2  A    between atoms: C_1  and  C_20
    3  A    between atoms: C_10  and  N_24
                            x       y       z     vdW  Elec       q    Type
                         _______ _______ _______ _____ _____    ______ ____

>  <TORSDO>
F 3

$$$$
