=
 OpenBabel11052417053D

 30 35  0  0  1  0  0  0  0  0999 V2000
  188.1950  176.7420  145.1890 C   0  0  0  0  0  0  0  0  0  0  0  0
  186.2510  178.2650  146.3530 C   0  0  0  0  0  0  0  0  0  0  0  0
  185.9910  177.8880  142.0960 N   0  0  0  0  0  2  0  0  0  0  0  0
  188.6080  175.8920  144.1040 C   0  0  0  0  0  0  0  0  0  0  0  0
  189.1370  177.0950  146.1720 C   0  0  0  0  0  3  0  0  0  0  0  0
  192.0670  175.5140  145.1830 N   0  0  0  0  0  0  0  0  0  0  0  0
  189.9640  173.2190  142.9110 C   0  0  0  0  0  2  0  0  0  0  0  0
  190.7970  175.8360  145.0340 N   0  0  0  0  0  0  0  0  0  0  0  0
  191.4430  176.8350  146.9140 N   0  0  0  0  0  0  0  0  0  0  0  0
  187.4310  175.2640  140.6680 O   0  0  0  0  0  0  0  0  0  0  0  0
  187.2510  177.4850  141.5280 C   0  0  0  0  0  0  0  0  0  0  0  0
  190.4310  176.6100  146.0580 C   0  0  0  0  0  0  0  0  0  0  0  0
  189.9520  175.4440  144.0430 C   0  0  0  0  0  0  0  0  0  0  0  0
  185.0550  178.9680  146.2100 C   0  0  0  0  0  3  0  0  0  0  0  0
  188.5700  174.5410  140.2990 C   0  0  0  0  0  2  0  0  0  0  0  0
  189.8250  172.7270  141.4700 C   0  0  0  0  0  2  0  0  0  0  0  0
  193.8160  176.0410  146.8880 C   0  0  0  0  0  1  0  0  0  0  0  0
  186.9610  178.4360  147.6500 C   0  0  0  0  0  1  0  0  0  0  0  0
  185.2790  177.1660  143.1380 C   0  0  2  0  0  3  0  0  0  0  0  0
  184.1000  178.9590  144.9770 C   0  0  0  0  0  2  0  0  0  0  0  0
  192.4420  176.1300  146.3260 C   0  0  0  0  0  0  0  0  0  0  0  0
  186.8230  177.3310  145.2800 C   0  0  0  0  0  0  0  0  0  0  0  0
  187.6370  175.4270  143.0540 C   0  0  0  0  0  2  0  0  0  0  0  0
  187.8530  178.2960  140.7770 O   0  0  0  0  0  0  0  0  0  0  0  0
  187.8570  176.1080  141.6990 C   0  0  1  0  0  3  0  0  0  0  0  0
  188.4900  173.1360  140.8720 C   0  0  0  0  0  2  0  0  0  0  0  0
  191.6340  174.9840  142.2620 C   0  0  0  0  0  1  0  0  0  0  0  0
  184.6990  178.0470  144.0420 N   0  0  0  0  0  0  0  0  0  0  0  0
  185.9840  177.3200  144.2980 C   0  0  0  0  0  0  0  0  0  0  0  0
  190.4190  174.6060  142.9730 N   0  0  0  0  0  0  0  0  0  0  0  0
  1 22  1  0  0  0  0
  1  5  2  0  0  0  0
  2 18  1  0  0  0  0
  4  1  1  0  0  0  0
  6 21  2  0  0  0  0
  7 30  1  0  0  0  0
  8  6  1  0  0  0  0
  8 12  1  0  0  0  0
 10 25  1  0  0  0  0
 11 25  1  0  0  0  0
 11  3  1  0  0  0  0
 12  5  1  0  0  0  0
 12  9  2  0  0  0  0
 13  4  2  0  0  0  0
 13  8  1  0  0  0  0
 14  2  2  0  0  0  0
 15 10  1  0  0  0  0
 15 26  1  0  0  0  0
 16  7  1  0  0  0  0
 19  3  1  6  0  0  0
 19 28  1  0  0  0  0
 19 29  1  0  0  0  0
 20 14  1  0  0  0  0
 21 17  1  0  0  0  0
 21  9  1  0  0  0  0
 22  2  1  0  0  0  0
 23  4  1  0  0  0  0
 24 11  2  0  0  0  0
 25 23  1  1  0  0  0
 26 16  1  0  0  0  0
 27 30  1  0  0  0  0
 28 29  1  0  0  0  0
 28 20  1  0  0  0  0
 29 22  2  0  0  0  0
 30 13  1  0  0  0  0
M  END
>  <MODEL>
1

>  <REMARK>
 VINA RESULT:      -9.2      0.000      0.000
  Name = 
  0 active torsions:
  status: ('A' for Active; 'I' for Inactive)
                            x       y       z     vdW  Elec       q    Type
                         _______ _______ _______ _____ _____    ______ ____

>  <TORSDO>
F 0

$$$$
=
 OpenBabel11052417053D

 30 35  0  0  1  0  0  0  0  0999 V2000
  188.1680  176.3870  143.4110 C   0  0  0  0  0  0  0  0  0  0  0  0
  185.7220  177.5110  143.8720 C   0  0  0  0  0  0  0  0  0  0  0  0
  187.9010  176.3480  147.3700 N   0  0  0  0  0  2  0  0  0  0  0  0
  189.5040  176.1180  143.8700 C   0  0  0  0  0  0  0  0  0  0  0  0
  187.7470  175.8390  142.1870 C   0  0  0  0  0  3  0  0  0  0  0  0
  190.4950  174.0520  141.0370 N   0  0  0  0  0  0  0  0  0  0  0  0
  192.7070  176.0390  143.4890 C   0  0  0  0  0  2  0  0  0  0  0  0
  189.8670  174.8050  141.9200 N   0  0  0  0  0  0  0  0  0  0  0  0
  188.4020  174.4740  140.2780 N   0  0  0  0  0  0  0  0  0  0  0  0
  191.2010  176.0920  147.1430 O   0  0  0  0  0  0  0  0  0  0  0  0
  188.9220  175.3820  147.0530 C   0  0  0  0  0  0  0  0  0  0  0  0
  188.6360  175.0560  141.4670 C   0  0  0  0  0  0  0  0  0  0  0  0
  190.3570  175.2960  143.0890 C   0  0  0  0  0  0  0  0  0  0  0  0
  184.8050  178.0090  144.7970 C   0  0  0  0  0  3  0  0  0  0  0  0
  192.3500  175.4600  146.6580 C   0  0  0  0  0  2  0  0  0  0  0  0
  193.7260  175.8750  144.6160 C   0  0  0  0  0  2  0  0  0  0  0  0
  189.8720  173.0560  138.8320 C   0  0  0  0  0  1  0  0  0  0  0  0
  185.2270  177.3500  142.4780 C   0  0  0  0  0  1  0  0  0  0  0  0
  187.7730  177.6560  146.7470 C   0  0  2  0  0  3  0  0  0  0  0  0
  185.0550  178.2960  146.3090 C   0  0  0  0  0  2  0  0  0  0  0  0
  189.5900  173.8600  140.0510 C   0  0  0  0  0  0  0  0  0  0  0  0
  187.1770  177.1670  144.2150 C   0  0  0  0  0  0  0  0  0  0  0  0
  190.0390  176.7230  145.1390 C   0  0  0  0  0  2  0  0  0  0  0  0
  188.8070  174.2190  147.5210 O   0  0  0  0  0  0  0  0  0  0  0  0
  190.1790  175.7000  146.2720 C   0  0  1  0  0  3  0  0  0  0  0  0
  193.2120  176.4680  145.9170 C   0  0  0  0  0  2  0  0  0  0  0  0
  192.1250  173.5920  143.5130 C   0  0  0  0  0  1  0  0  0  0  0  0
  186.4360  177.9710  146.5310 N   0  0  0  0  0  0  0  0  0  0  0  0
  187.3520  177.4580  145.4620 C   0  0  0  0  0  0  0  0  0  0  0  0
  191.6950  174.9850  143.5100 N   0  0  0  0  0  0  0  0  0  0  0  0
  1  4  1  0  0  0  0
  1 22  1  0  0  0  0
  2 22  1  0  0  0  0
  2 14  2  0  0  0  0
  4 23  1  0  0  0  0
  5  1  2  0  0  0  0
  6  8  1  0  0  0  0
  7 30  1  0  0  0  0
  7 16  1  0  0  0  0
  8 13  1  0  0  0  0
  9 12  2  0  0  0  0
 11  3  1  0  0  0  0
 11 24  2  0  0  0  0
 12  8  1  0  0  0  0
 12  5  1  0  0  0  0
 13 30  1  0  0  0  0
 13  4  2  0  0  0  0
 14 20  1  0  0  0  0
 15 10  1  0  0  0  0
 16 26  1  0  0  0  0
 17 21  1  0  0  0  0
 18  2  1  0  0  0  0
 19 29  1  6  0  0  0
 19  3  1  0  0  0  0
 20 28  1  0  0  0  0
 21  9  1  0  0  0  0
 21  6  2  0  0  0  0
 22 29  2  0  0  0  0
 25 23  1  6  0  0  0
 25 11  1  0  0  0  0
 25 10  1  0  0  0  0
 26 15  1  0  0  0  0
 28 19  1  0  0  0  0
 29 28  1  0  0  0  0
 30 27  1  0  0  0  0
M  END
>  <MODEL>
2

>  <REMARK>
 VINA RESULT:      -9.1      2.519      5.045
  Name = 
  0 active torsions:
  status: ('A' for Active; 'I' for Inactive)
                            x       y       z     vdW  Elec       q    Type
                         _______ _______ _______ _____ _____    ______ ____

>  <TORSDO>
F 0

$$$$
=
 OpenBabel11052417053D

 30 35  0  0  1  0  0  0  0  0999 V2000
  187.3680  177.0670  145.1750 C   0  0  0  0  0  0  0  0  0  0  0  0
  185.1310  178.5630  145.6390 C   0  0  0  0  0  0  0  0  0  0  0  0
  186.0620  177.8740  141.5170 N   0  0  0  0  0  2  0  0  0  0  0  0
  188.0890  176.1660  144.3170 C   0  0  0  0  0  0  0  0  0  0  0  0
  187.9920  177.5380  146.3450 C   0  0  0  0  0  3  0  0  0  0  0  0
  191.1290  176.0490  146.3210 N   0  0  0  0  0  0  0  0  0  0  0  0
  189.8050  173.4920  143.7610 C   0  0  0  0  0  2  0  0  0  0  0  0
  189.9400  176.2930  145.8070 N   0  0  0  0  0  0  0  0  0  0  0  0
  190.0120  177.4540  147.7040 N   0  0  0  0  0  0  0  0  0  0  0  0
  187.9220  175.2350  140.7540 O   0  0  0  0  0  0  0  0  0  0  0  0
  187.4420  177.4990  141.3480 C   0  0  0  0  0  0  0  0  0  0  0  0
  189.2820  177.1170  146.6260 C   0  0  0  0  0  0  0  0  0  0  0  0
  189.4120  175.7880  144.6600 C   0  0  0  0  0  0  0  0  0  0  0  0
  183.9980  179.1900  145.1190 C   0  0  0  0  0  3  0  0  0  0  0  0
  189.1410  174.5500  140.7700 C   0  0  0  0  0  2  0  0  0  0  0  0
  190.0830  172.8930  142.3830 C   0  0  0  0  0  2  0  0  0  0  0  0
  192.3260  176.7880  148.3870 C   0  0  0  0  0  1  0  0  0  0  0  0
  185.4520  178.8630  147.0610 C   0  0  0  0  0  1  0  0  0  0  0  0
  185.1140  177.1900  142.3830 C   0  0  2  0  0  3  0  0  0  0  0  0
  183.4190  179.0430  143.6780 C   0  0  0  0  0  2  0  0  0  0  0  0
  191.1560  176.7640  147.4680 C   0  0  0  0  0  0  0  0  0  0  0  0
  186.0050  177.5870  144.8430 C   0  0  0  0  0  0  0  0  0  0  0  0
  187.4600  175.5770  143.0860 C   0  0  0  0  0  2  0  0  0  0  0  0
  188.2010  178.2850  140.7240 O   0  0  0  0  0  0  0  0  0  0  0  0
  188.0210  176.1710  141.7890 C   0  0  1  0  0  3  0  0  0  0  0  0
  188.9510  173.1870  141.4130 C   0  0  0  0  0  2  0  0  0  0  0  0
  191.5320  175.2920  143.4470 C   0  0  0  0  0  1  0  0  0  0  0  0
  184.2810  178.1010  143.0200 N   0  0  0  0  0  0  0  0  0  0  0  0
  185.4690  177.4630  143.6740 C   0  0  0  0  0  0  0  0  0  0  0  0
  190.1810  174.9020  143.8300 N   0  0  0  0  0  0  0  0  0  0  0  0
  1  5  2  0  0  0  0
  2 18  1  0  0  0  0
  4 13  2  0  0  0  0
  4  1  1  0  0  0  0
  5 12  1  0  0  0  0
  6 21  2  0  0  0  0
  7 30  1  0  0  0  0
  8  6  1  0  0  0  0
  8 12  1  0  0  0  0
 10 15  1  0  0  0  0
 10 25  1  0  0  0  0
 11  3  1  0  0  0  0
 11 25  1  0  0  0  0
 12  9  2  0  0  0  0
 13  8  1  0  0  0  0
 14  2  2  0  0  0  0
 15 26  1  0  0  0  0
 16  7  1  0  0  0  0
 19  3  1  6  0  0  0
 19 28  1  0  0  0  0
 19 29  1  0  0  0  0
 20 14  1  0  0  0  0
 21  9  1  0  0  0  0
 21 17  1  0  0  0  0
 22  1  1  0  0  0  0
 22  2  1  0  0  0  0
 23  4  1  0  0  0  0
 24 11  2  0  0  0  0
 25 23  1  1  0  0  0
 26 16  1  0  0  0  0
 27 30  1  0  0  0  0
 28 29  1  0  0  0  0
 28 20  1  0  0  0  0
 29 22  2  0  0  0  0
 30 13  1  0  0  0  0
M  END
>  <MODEL>
3

>  <REMARK>
 VINA RESULT:      -8.4      1.008      1.148
  Name = 
  0 active torsions:
  status: ('A' for Active; 'I' for Inactive)
                            x       y       z     vdW  Elec       q    Type
                         _______ _______ _______ _____ _____    ______ ____

>  <TORSDO>
F 0

$$$$
=
 OpenBabel11052417053D

 30 35  0  0  1  0  0  0  0  0999 V2000
  189.6330  175.7340  143.7490 C   0  0  0  0  0  0  0  0  0  0  0  0
  187.1090  176.5990  144.3330 C   0  0  0  0  0  0  0  0  0  0  0  0
  189.8780  176.6630  147.5980 N   0  0  0  0  0  2  0  0  0  0  0  0
  191.0420  175.7710  144.0320 C   0  0  0  0  0  0  0  0  0  0  0  0
  189.1600  174.8420  142.7700 C   0  0  0  0  0  3  0  0  0  0  0  0
  192.0040  173.2070  141.6290 N   0  0  0  0  0  0  0  0  0  0  0  0
  194.1370  176.0280  143.1590 C   0  0  0  0  0  2  0  0  0  0  0  0
  191.3740  174.0680  142.4040 N   0  0  0  0  0  0  0  0  0  0  0  0
  189.7910  173.1390  141.1460 N   0  0  0  0  0  0  0  0  0  0  0  0
  193.1170  176.8030  146.8980 O   0  0  0  0  0  0  0  0  0  0  0  0
  191.0000  175.7940  147.3500 C   0  0  0  0  0  0  0  0  0  0  0  0
  190.0710  174.0290  142.1140 C   0  0  0  0  0  0  0  0  0  0  0  0
  191.9160  174.9010  143.3320 C   0  0  0  0  0  0  0  0  0  0  0  0
  186.2450  177.1880  145.2550 C   0  0  0  0  0  3  0  0  0  0  0  0
  194.2870  176.2290  146.3900 C   0  0  0  0  0  2  0  0  0  0  0  0
  195.3030  176.2930  144.1100 C   0  0  0  0  0  2  0  0  0  0  0  0
  191.2870  171.6110  139.8450 C   0  0  0  0  0  1  0  0  0  0  0  0
  186.4760  176.0250  143.1140 C   0  0  0  0  0  1  0  0  0  0  0  0
  189.4510  177.7410  146.7200 C   0  0  2  0  0  3  0  0  0  0  0  0
  186.6310  177.8790  146.5980 C   0  0  0  0  0  2  0  0  0  0  0  0
  191.0280  172.6520  140.8750 C   0  0  0  0  0  0  0  0  0  0  0  0
  188.6320  176.5520  144.5030 C   0  0  0  0  0  0  0  0  0  0  0  0
  191.6220  176.7440  145.0210 C   0  0  0  0  0  2  0  0  0  0  0  0
  191.1450  174.7830  148.0850 O   0  0  0  0  0  0  0  0  0  0  0  0
  192.0760  176.0700  146.3200 C   0  0  1  0  0  3  0  0  0  0  0  0
  194.8640  177.1220  145.3060 C   0  0  0  0  0  2  0  0  0  0  0  0
  193.9880  173.6120  143.8410 C   0  0  0  0  0  1  0  0  0  0  0  0
  188.0640  177.8090  146.6600 N   0  0  0  0  0  0  0  0  0  0  0  0
  188.9110  177.1690  145.6020 C   0  0  0  0  0  0  0  0  0  0  0  0
  193.3300  174.8880  143.5880 N   0  0  0  0  0  0  0  0  0  0  0  0
  1  4  1  0  0  0  0
  1 22  1  0  0  0  0
  2 22  1  0  0  0  0
  2 14  2  0  0  0  0
  4 23  1  0  0  0  0
  5  1  2  0  0  0  0
  6  8  1  0  0  0  0
  7 30  1  0  0  0  0
  7 16  1  0  0  0  0
  8 13  1  0  0  0  0
  9 12  2  0  0  0  0
 11  3  1  0  0  0  0
 11 24  2  0  0  0  0
 12  8  1  0  0  0  0
 12  5  1  0  0  0  0
 13 30  1  0  0  0  0
 13  4  2  0  0  0  0
 14 20  1  0  0  0  0
 15 10  1  0  0  0  0
 16 26  1  0  0  0  0
 17 21  1  0  0  0  0
 18  2  1  0  0  0  0
 19 29  1  6  0  0  0
 19  3  1  0  0  0  0
 20 28  1  0  0  0  0
 21  9  1  0  0  0  0
 21  6  2  0  0  0  0
 22 29  2  0  0  0  0
 25 23  1  6  0  0  0
 25 10  1  0  0  0  0
 25 11  1  0  0  0  0
 26 15  1  0  0  0  0
 28 19  1  0  0  0  0
 29 28  1  0  0  0  0
 30 27  1  0  0  0  0
M  END
>  <MODEL>
4

>  <REMARK>
 VINA RESULT:      -8.0      2.861      5.528
  Name = 
  0 active torsions:
  status: ('A' for Active; 'I' for Inactive)
                            x       y       z     vdW  Elec       q    Type
                         _______ _______ _______ _____ _____    ______ ____

>  <TORSDO>
F 0

$$$$
=
 OpenBabel11052417053D

 30 35  0  0  1  0  0  0  0  0999 V2000
  189.7790  175.4910  142.9430 C   0  0  0  0  0  0  0  0  0  0  0  0
  187.3190  176.4120  142.1970 C   0  0  0  0  0  0  0  0  0  0  0  0
  188.0610  176.3560  146.4130 N   0  0  0  0  0  2  0  0  0  0  0  0
  190.8530  175.4870  143.9000 C   0  0  0  0  0  0  0  0  0  0  0  0
  189.8520  174.6250  141.8360 C   0  0  0  0  0  3  0  0  0  0  0  0
  192.8580  172.9350  142.2440 N   0  0  0  0  0  0  0  0  0  0  0  0
  193.9690  175.6770  144.7140 C   0  0  0  0  0  2  0  0  0  0  0  0
  191.9360  173.8000  142.6180 N   0  0  0  0  0  0  0  0  0  0  0  0
  191.1920  172.9310  140.7100 N   0  0  0  0  0  0  0  0  0  0  0  0
  191.2120  176.4220  147.4470 O   0  0  0  0  0  0  0  0  0  0  0  0
  189.1420  175.4620  146.7420 C   0  0  0  0  0  0  0  0  0  0  0  0
  190.9570  173.7990  141.7100 C   0  0  0  0  0  0  0  0  0  0  0  0
  191.9480  174.6050  143.7140 C   0  0  0  0  0  0  0  0  0  0  0  0
  186.1160  177.0090  142.5720 C   0  0  0  0  0  3  0  0  0  0  0  0
  192.4690  175.8260  147.5840 C   0  0  0  0  0  2  0  0  0  0  0  0
  194.4990  175.8970  146.1310 C   0  0  0  0  0  2  0  0  0  0  0  0
  193.1170  171.3840  140.3020 C   0  0  0  0  0  1  0  0  0  0  0  0
  187.3800  175.8730  140.8100 C   0  0  0  0  0  1  0  0  0  0  0  0
  188.1520  177.4570  145.4680 C   0  0  2  0  0  3  0  0  0  0  0  0
  185.7820  177.6710  143.9440 C   0  0  0  0  0  2  0  0  0  0  0  0
  192.3890  172.4160  141.0880 C   0  0  0  0  0  0  0  0  0  0  0  0
  188.5470  176.3230  143.1100 C   0  0  0  0  0  0  0  0  0  0  0  0
  190.8680  176.4290  145.0710 C   0  0  0  0  0  2  0  0  0  0  0  0
  188.8800  174.4360  147.4240 O   0  0  0  0  0  0  0  0  0  0  0  0
  190.5940  175.7250  146.4040 C   0  0  1  0  0  3  0  0  0  0  0  0
  193.5280  176.7200  146.9630 C   0  0  0  0  0  2  0  0  0  0  0  0
  193.4600  173.2560  145.1660 C   0  0  0  0  0  1  0  0  0  0  0  0
  186.9870  177.5620  144.7180 N   0  0  0  0  0  0  0  0  0  0  0  0
  188.2420  176.9170  144.2160 C   0  0  0  0  0  0  0  0  0  0  0  0
  193.0390  174.5520  144.6480 N   0  0  0  0  0  0  0  0  0  0  0  0
  1 22  1  0  0  0  0
  1  4  1  0  0  0  0
  2 14  2  0  0  0  0
  2 22  1  0  0  0  0
  3 11  1  0  0  0  0
  4 23  1  0  0  0  0
  5  1  2  0  0  0  0
  6  8  1  0  0  0  0
  7 16  1  0  0  0  0
  8 13  1  0  0  0  0
  9 21  1  0  0  0  0
  9 12  2  0  0  0  0
 10 15  1  0  0  0  0
 11 24  2  0  0  0  0
 12  5  1  0  0  0  0
 12  8  1  0  0  0  0
 13  4  2  0  0  0  0
 13 30  1  0  0  0  0
 14 20  1  0  0  0  0
 16 26  1  0  0  0  0
 17 21  1  0  0  0  0
 18  2  1  0  0  0  0
 19 29  1  6  0  0  0
 19  3  1  0  0  0  0
 20 28  1  0  0  0  0
 21  6  2  0  0  0  0
 22 29  2  0  0  0  0
 25 23  1  6  0  0  0
 25 11  1  0  0  0  0
 25 10  1  0  0  0  0
 26 15  1  0  0  0  0
 28 19  1  0  0  0  0
 29 28  1  0  0  0  0
 30  7  1  0  0  0  0
 30 27  1  0  0  0  0
M  END
>  <MODEL>
5

>  <REMARK>
 VINA RESULT:      -7.7      2.624      5.379
  Name = 
  0 active torsions:
  status: ('A' for Active; 'I' for Inactive)
                            x       y       z     vdW  Elec       q    Type
                         _______ _______ _______ _____ _____    ______ ____

>  <TORSDO>
F 0

$$$$
=
 OpenBabel11052417053D

 30 35  0  0  1  0  0  0  0  0999 V2000
  190.0670  174.5830  143.4700 C   0  0  0  0  0  0  0  0  0  0  0  0
  187.6750  175.8770  143.2230 C   0  0  0  0  0  0  0  0  0  0  0  0
  190.0460  177.0240  146.5980 N   0  0  0  0  0  2  0  0  0  0  0  0
  191.4240  174.5870  143.9460 C   0  0  0  0  0  0  0  0  0  0  0  0
  189.5600  173.4160  142.8710 C   0  0  0  0  0  3  0  0  0  0  0  0
  192.1990  171.1600  142.9820 N   0  0  0  0  0  0  0  0  0  0  0  0
  194.5940  174.1190  143.5770 C   0  0  0  0  0  2  0  0  0  0  0  0
  191.6410  172.3300  143.2260 N   0  0  0  0  0  0  0  0  0  0  0  0
  190.0710  171.1290  142.2040 N   0  0  0  0  0  0  0  0  0  0  0  0
  193.3200  176.5100  146.4560 O   0  0  0  0  0  0  0  0  0  0  0  0
  191.0280  176.0180  146.9140 C   0  0  0  0  0  0  0  0  0  0  0  0
  190.3890  172.3100  142.7630 C   0  0  0  0  0  0  0  0  0  0  0  0
  192.2110  173.4140  143.8150 C   0  0  0  0  0  0  0  0  0  0  0  0
  186.8260  176.8900  143.6690 C   0  0  0  0  0  3  0  0  0  0  0  0
  194.4260  175.6540  146.4270 C   0  0  0  0  0  2  0  0  0  0  0  0
  195.6790  174.6370  144.5210 C   0  0  0  0  0  2  0  0  0  0  0  0
  191.4230  169.0440  141.9020 C   0  0  0  0  0  1  0  0  0  0  0  0
  187.0910  174.9120  142.2520 C   0  0  0  0  0  1  0  0  0  0  0  0
  189.9030  177.6670  145.3020 C   0  0  2  0  0  3  0  0  0  0  0  0
  187.1750  178.0400  144.6630 C   0  0  0  0  0  2  0  0  0  0  0  0
  191.2310  170.4450  142.3650 C   0  0  0  0  0  0  0  0  0  0  0  0
  189.1410  175.7450  143.6500 C   0  0  0  0  0  0  0  0  0  0  0  0
  192.0470  175.8190  144.5400 C   0  0  0  0  0  2  0  0  0  0  0  0
  190.9220  175.4050  148.0080 O   0  0  0  0  0  0  0  0  0  0  0  0
  192.2400  175.7160  146.0570 C   0  0  1  0  0  3  0  0  0  0  0  0
  195.2580  175.9360  145.1880 C   0  0  0  0  0  2  0  0  0  0  0  0
  193.9720  172.2510  145.1410 C   0  0  0  0  0  1  0  0  0  0  0  0
  188.5610  177.8500  144.9870 N   0  0  0  0  0  0  0  0  0  0  0  0
  189.3990  176.7370  144.4370 C   0  0  0  0  0  0  0  0  0  0  0  0
  193.5670  173.3610  144.2870 N   0  0  0  0  0  0  0  0  0  0  0  0
  1 22  1  0  0  0  0
  1  4  1  0  0  0  0
  2 22  1  0  0  0  0
  2 14  2  0  0  0  0
  3 11  1  0  0  0  0
  4 23  1  0  0  0  0
  5  1  2  0  0  0  0
  6  8  1  0  0  0  0
  7 30  1  0  0  0  0
  7 16  1  0  0  0  0
  8 13  1  0  0  0  0
  9 21  1  0  0  0  0
  9 12  2  0  0  0  0
 11 24  2  0  0  0  0
 12  5  1  0  0  0  0
 12  8  1  0  0  0  0
 13  4  2  0  0  0  0
 13 30  1  0  0  0  0
 14 20  1  0  0  0  0
 15 10  1  0  0  0  0
 16 26  1  0  0  0  0
 17 21  1  0  0  0  0
 18  2  1  0  0  0  0
 19 29  1  6  0  0  0
 19  3  1  0  0  0  0
 20 28  1  0  0  0  0
 21  6  2  0  0  0  0
 22 29  2  0  0  0  0
 25 23  1  6  0  0  0
 25 10  1  0  0  0  0
 25 11  1  0  0  0  0
 26 15  1  0  0  0  0
 28 19  1  0  0  0  0
 29 28  1  0  0  0  0
 30 27  1  0  0  0  0
M  END
>  <MODEL>
6

>  <REMARK>
 VINA RESULT:      -7.6      3.041      5.746
  Name = 
  0 active torsions:
  status: ('A' for Active; 'I' for Inactive)
                            x       y       z     vdW  Elec       q    Type
                         _______ _______ _______ _____ _____    ______ ____

>  <TORSDO>
F 0

$$$$
=
 OpenBabel11052417053D

 30 35  0  0  1  0  0  0  0  0999 V2000
  189.3060  174.3020  142.3190 C   0  0  0  0  0  0  0  0  0  0  0  0
  189.5470  172.8180  140.0390 C   0  0  0  0  0  0  0  0  0  0  0  0
  193.2240  174.2550  141.6970 N   0  0  0  0  0  2  0  0  0  0  0  0
  189.8820  174.7640  143.5530 C   0  0  0  0  0  0  0  0  0  0  0  0
  188.0470  174.7950  141.9300 C   0  0  0  0  0  3  0  0  0  0  0  0
  187.1460  176.9870  144.4690 N   0  0  0  0  0  0  0  0  0  0  0  0
  189.7900  175.3280  146.7280 C   0  0  0  0  0  2  0  0  0  0  0  0
  187.9700  176.1390  143.8860 N   0  0  0  0  0  0  0  0  0  0  0  0
  186.2020  176.2640  142.5400 N   0  0  0  0  0  0  0  0  0  0  0  0
  193.2940  175.0060  144.9270 O   0  0  0  0  0  0  0  0  0  0  0  0
  192.9990  175.3660  142.5840 C   0  0  0  0  0  0  0  0  0  0  0  0
  187.4090  175.7110  142.7520 C   0  0  0  0  0  0  0  0  0  0  0  0
  189.1790  175.7130  144.3380 C   0  0  0  0  0  0  0  0  0  0  0  0
  190.3860  172.1760  139.1290 C   0  0  0  0  0  3  0  0  0  0  0  0
  192.9140  175.8090  146.0070 C   0  0  0  0  0  2  0  0  0  0  0  0
  191.0040  175.6300  147.6060 C   0  0  0  0  0  2  0  0  0  0  0  0
  184.8910  177.9040  143.9020 C   0  0  0  0  0  1  0  0  0  0  0  0
  188.1130  172.9180  139.6510 C   0  0  0  0  0  1  0  0  0  0  0  0
  192.5950  172.9490  141.8230 C   0  0  2  0  0  3  0  0  0  0  0  0
  191.9160  171.9130  139.2830 C   0  0  0  0  0  2  0  0  0  0  0  0
  186.0820  177.0530  143.6370 C   0  0  0  0  0  0  0  0  0  0  0  0
  190.0190  173.3720  141.3880 C   0  0  0  0  0  0  0  0  0  0  0  0
  191.1950  174.2310  144.0570 C   0  0  0  0  0  2  0  0  0  0  0  0
  193.4510  176.4940  142.2540 O   0  0  0  0  0  0  0  0  0  0  0  0
  192.3340  175.2500  143.9400 C   0  0  1  0  0  3  0  0  0  0  0  0
  192.2550  174.9510  147.0730 C   0  0  0  0  0  2  0  0  0  0  0  0
  189.7570  177.6590  145.7840 C   0  0  0  0  0  1  0  0  0  0  0  0
  192.2600  172.4400  140.5740 N   0  0  0  0  0  0  0  0  0  0  0  0
  191.2760  173.0970  141.4940 C   0  0  0  0  0  0  0  0  0  0  0  0
  189.7180  176.2170  145.5710 N   0  0  0  0  0  0  0  0  0  0  0  0
  1  4  1  0  0  0  0
  2 22  1  0  0  0  0
  3 19  1  0  0  0  0
  3 11  1  0  0  0  0
  4 23  1  0  0  0  0
  4 13  2  0  0  0  0
  5  1  2  0  0  0  0
  5 12  1  0  0  0  0
  7 16  1  0  0  0  0
  8 13  1  0  0  0  0
  8  6  1  0  0  0  0
  9 12  2  0  0  0  0
  9 21  1  0  0  0  0
 10 15  1  0  0  0  0
 11 25  1  0  0  0  0
 12  8  1  0  0  0  0
 13 30  1  0  0  0  0
 14 20  1  0  0  0  0
 14  2  2  0  0  0  0
 15 26  1  0  0  0  0
 18  2  1  0  0  0  0
 19 29  1  1  0  0  0
 20 28  1  0  0  0  0
 21 17  1  0  0  0  0
 21  6  2  0  0  0  0
 22 29  2  0  0  0  0
 22  1  1  0  0  0  0
 24 11  2  0  0  0  0
 25 23  1  6  0  0  0
 25 10  1  0  0  0  0
 26 16  1  0  0  0  0
 28 29  1  0  0  0  0
 28 19  1  0  0  0  0
 30 27  1  0  0  0  0
 30  7  1  0  0  0  0
M  END
>  <MODEL>
7

>  <REMARK>
 VINA RESULT:      -7.6      2.491      6.938
  Name = 
  0 active torsions:
  status: ('A' for Active; 'I' for Inactive)
                            x       y       z     vdW  Elec       q    Type
                         _______ _______ _______ _____ _____    ______ ____

>  <TORSDO>
F 0

$$$$
=
 OpenBabel11052417053D

 30 35  0  0  1  0  0  0  0  0999 V2000
  189.9310  176.5960  144.9690 C   0  0  0  0  0  0  0  0  0  0  0  0
  192.3830  175.7440  145.8150 C   0  0  0  0  0  0  0  0  0  0  0  0
  190.7880  173.6780  142.4210 N   0  0  0  0  0  2  0  0  0  0  0  0
  188.9850  176.7510  143.8970 C   0  0  0  0  0  0  0  0  0  0  0  0
  189.5470  176.9610  146.2720 C   0  0  0  0  0  3  0  0  0  0  0  0
  186.2750  178.0780  145.9380 N   0  0  0  0  0  0  0  0  0  0  0  0
  186.8810  178.4640  142.1520 C   0  0  0  0  0  2  0  0  0  0  0  0
  187.3990  177.5750  145.4670 N   0  0  0  0  0  0  0  0  0  0  0  0
  187.7490  177.8650  147.6450 N   0  0  0  0  0  0  0  0  0  0  0  0
  188.5180  175.2330  140.5690 O   0  0  0  0  0  0  0  0  0  0  0  0
  189.3620  173.8520  142.3260 C   0  0  0  0  0  0  0  0  0  0  0  0
  188.2680  177.4550  146.4740 C   0  0  0  0  0  0  0  0  0  0  0  0
  187.6880  177.2500  144.1790 C   0  0  0  0  0  0  0  0  0  0  0  0
  193.4990  174.9400  145.5870 C   0  0  0  0  0  3  0  0  0  0  0  0
  187.2370  175.7660  140.3930 C   0  0  0  0  0  2  0  0  0  0  0  0
  186.3330  178.0600  140.7840 C   0  0  0  0  0  2  0  0  0  0  0  0
  185.4920  178.7940  148.2010 C   0  0  0  0  0  1  0  0  0  0  0  0
  192.3110  176.4030  147.1480 C   0  0  0  0  0  1  0  0  0  0  0  0
  191.7560  174.7630  142.4790 C   0  0  2  0  0  3  0  0  0  0  0  0
  193.8410  174.1520  144.2860 C   0  0  0  0  0  2  0  0  0  0  0  0
  186.5050  178.2440  147.2600 C   0  0  0  0  0  0  0  0  0  0  0  0
  191.2860  175.9940  144.7740 C   0  0  0  0  0  0  0  0  0  0  0  0
  189.3500  176.4380  142.4720 C   0  0  0  0  0  2  0  0  0  0  0  0
  188.6270  172.8410  142.4800 O   0  0  0  0  0  0  0  0  0  0  0  0
  188.6880  175.1560  141.9560 C   0  0  1  0  0  3  0  0  0  0  0  0
  187.3420  177.2310  140.0070 C   0  0  0  0  0  2  0  0  0  0  0  0
  185.3690  176.8530  143.3540 C   0  0  0  0  0  1  0  0  0  0  0  0
  192.7810  174.4630  143.3680 N   0  0  0  0  0  0  0  0  0  0  0  0
  191.6290  175.3600  143.7020 C   0  0  0  0  0  0  0  0  0  0  0  0
  186.7010  177.4090  143.1460 N   0  0  0  0  0  0  0  0  0  0  0  0
  1  5  2  0  0  0  0
  2 18  1  0  0  0  0
  4 13  2  0  0  0  0
  4  1  1  0  0  0  0
  5 12  1  0  0  0  0
  6 21  2  0  0  0  0
  7 30  1  0  0  0  0
  8  6  1  0  0  0  0
  8 12  1  0  0  0  0
 10 25  1  0  0  0  0
 11  3  1  0  0  0  0
 11 24  2  0  0  0  0
 12  9  2  0  0  0  0
 13  8  1  0  0  0  0
 14  2  2  0  0  0  0
 15 10  1  0  0  0  0
 16  7  1  0  0  0  0
 19  3  1  1  0  0  0
 19 28  1  0  0  0  0
 19 29  1  0  0  0  0
 20 14  1  0  0  0  0
 21  9  1  0  0  0  0
 21 17  1  0  0  0  0
 22  1  1  0  0  0  0
 22  2  1  0  0  0  0
 23  4  1  0  0  0  0
 25 11  1  0  0  0  0
 25 23  1  6  0  0  0
 26 15  1  0  0  0  0
 26 16  1  0  0  0  0
 28 29  1  0  0  0  0
 28 20  1  0  0  0  0
 29 22  2  0  0  0  0
 30 27  1  0  0  0  0
 30 13  1  0  0  0  0
M  END
>  <MODEL>
8

>  <REMARK>
 VINA RESULT:      -7.4      1.743      5.605
  Name = 
  0 active torsions:
  status: ('A' for Active; 'I' for Inactive)
                            x       y       z     vdW  Elec       q    Type
                         _______ _______ _______ _____ _____    ______ ____

>  <TORSDO>
F 0

$$$$
=
 OpenBabel11052417053D

 30 35  0  0  1  0  0  0  0  0999 V2000
  190.5830  175.9890  144.9820 C   0  0  0  0  0  0  0  0  0  0  0  0
  189.2510  177.3460  146.9430 C   0  0  0  0  0  0  0  0  0  0  0  0
  187.2690  177.1760  143.1510 N   0  0  0  0  0  2  0  0  0  0  0  0
  190.5340  175.2200  143.7680 C   0  0  0  0  0  0  0  0  0  0  0  0
  191.8370  176.3400  145.5150 C   0  0  0  0  0  3  0  0  0  0  0  0
  194.1390  174.9680  143.3060 N   0  0  0  0  0  0  0  0  0  0  0  0
  191.3480  172.6870  141.9440 C   0  0  0  0  0  2  0  0  0  0  0  0
  192.9120  175.2310  143.7120 N   0  0  0  0  0  0  0  0  0  0  0  0
  194.2490  176.1630  145.2270 N   0  0  0  0  0  0  0  0  0  0  0  0
  188.0620  174.7080  141.0820 O   0  0  0  0  0  0  0  0  0  0  0  0
  188.1940  176.8690  142.0910 C   0  0  0  0  0  0  0  0  0  0  0  0
  192.9800  175.9310  144.8470 C   0  0  0  0  0  0  0  0  0  0  0  0
  191.7450  174.8470  143.1310 C   0  0  0  0  0  0  0  0  0  0  0  0
  188.0840  177.9910  147.3510 C   0  0  0  0  0  3  0  0  0  0  0  0
  188.9670  174.0660  140.2300 C   0  0  0  0  0  2  0  0  0  0  0  0
  190.6410  172.2630  140.6560 C   0  0  0  0  0  2  0  0  0  0  0  0
  196.4210  175.4980  144.1750 C   0  0  0  0  0  1  0  0  0  0  0  0
  190.4280  177.4870  147.8430 C   0  0  0  0  0  1  0  0  0  0  0  0
  187.0700  176.3640  144.3410 C   0  0  2  0  0  3  0  0  0  0  0  0
  186.7070  177.9960  146.6200 C   0  0  0  0  0  2  0  0  0  0  0  0
  194.9350  175.5440  144.2340 C   0  0  0  0  0  0  0  0  0  0  0  0
  189.3550  176.5000  145.6680 C   0  0  0  0  0  0  0  0  0  0  0  0
  189.2300  174.7590  143.1790 C   0  0  0  0  0  2  0  0  0  0  0  0
  188.4110  177.7490  141.2160 O   0  0  0  0  0  0  0  0  0  0  0  0
  188.8530  175.5190  141.9030 C   0  0  1  0  0  3  0  0  0  0  0  0
  189.1670  172.6320  140.6870 C   0  0  0  0  0  2  0  0  0  0  0  0
  192.5540  174.5680  140.7900 C   0  0  0  0  0  1  0  0  0  0  0  0
  186.8920  177.1670  145.4620 N   0  0  0  0  0  0  0  0  0  0  0  0
  188.1870  176.4960  145.1180 C   0  0  0  0  0  0  0  0  0  0  0  0
  191.7510  174.0910  141.9090 N   0  0  0  0  0  0  0  0  0  0  0  0
  1  5  2  0  0  0  0
  1 22  1  0  0  0  0
  2 14  2  0  0  0  0
  2 18  1  0  0  0  0
  4  1  1  0  0  0  0
  6  8  1  0  0  0  0
  6 21  2  0  0  0  0
  8 12  1  0  0  0  0
 10 25  1  0  0  0  0
 11  3  1  0  0  0  0
 12  9  2  0  0  0  0
 12  5  1  0  0  0  0
 13  8  1  0  0  0  0
 13  4  2  0  0  0  0
 15 26  1  0  0  0  0
 15 10  1  0  0  0  0
 16 26  1  0  0  0  0
 16  7  1  0  0  0  0
 17 21  1  0  0  0  0
 19  3  1  6  0  0  0
 19 29  1  0  0  0  0
 19 28  1  0  0  0  0
 20 14  1  0  0  0  0
 21  9  1  0  0  0  0
 22  2  1  0  0  0  0
 23  4  1  0  0  0  0
 24 11  2  0  0  0  0
 25 11  1  0  0  0  0
 25 23  1  1  0  0  0
 27 30  1  0  0  0  0
 28 20  1  0  0  0  0
 29 28  1  0  0  0  0
 29 22  2  0  0  0  0
 30  7  1  0  0  0  0
 30 13  1  0  0  0  0
M  END
>  <MODEL>
9

>  <REMARK>
 VINA RESULT:      -7.4      1.662      2.432
  Name = 
  0 active torsions:
  status: ('A' for Active; 'I' for Inactive)
                            x       y       z     vdW  Elec       q    Type
                         _______ _______ _______ _____ _____    ______ ____

>  <TORSDO>
F 0

$$$$
