=
 OpenBabel11052419453D

 55 61  0  0  1  0  0  0  0  0999 V2000
  194.6260  175.3890  139.9240 C   0  0  0  0  0  3  0  0  0  0  0  0
  195.6190  172.9330  140.8580 C   0  0  0  0  0  0  0  0  0  0  0  0
  194.7870  173.7190  141.6740 C   0  0  0  0  0  3  0  0  0  0  0  0
  195.4540  174.6130  139.1070 C   0  0  0  0  0  3  0  0  0  0  0  0
  194.2950  174.9490  141.2170 C   0  0  0  0  0  0  0  0  0  0  0  0
  195.9510  173.3880  139.5740 C   0  0  0  0  0  3  0  0  0  0  0  0
  193.4040  175.7570  142.0930 C   0  0  2  0  0  3  0  0  0  0  0  0
  192.6960  173.5640  145.5000 C   0  0  0  0  0  2  0  0  0  0  0  0
  190.3240  174.2410  145.1130 C   0  0  2  0  0  3  0  0  0  0  0  0
  193.6590  175.4470  143.5520 C   0  0  2  0  0  3  0  0  0  0  0  0
  191.8350  174.4640  145.0370 C   0  0  0  0  0  0  0  0  0  0  0  0
  192.0510  175.4830  141.8310 O   0  0  0  0  0  0  0  0  0  0  0  0
  190.0970  175.1280  143.0860 N   0  0  2  0  0  0  0  0  0  0  0  0
  189.6570  175.2410  144.3720 O   0  0  0  0  0  0  0  0  0  0  0  0
  192.2980  175.6310  144.1930 C   0  0  2  0  0  3  0  0  0  0  0  0
  191.3660  175.8730  142.9850 C   0  0  1  0  0  3  0  0  0  0  0  0
  189.1360  177.3280  142.4780 C   0  0  0  0  0  2  0  0  0  0  0  0
  186.8420  177.5010  141.4850 C   0  0  2  0  0  3  0  0  0  0  0  0
  187.6800  175.3770  142.5470 C   0  0  0  0  0  2  0  0  0  0  0  0
  186.7960  176.6020  142.7150 C   0  0  1  0  0  3  0  0  0  0  0  0
  187.7130  177.8180  142.6970 C   0  0  1  0  0  3  0  0  0  0  0  0
  189.1080  175.8230  142.2490 C   0  0  2  0  0  3  0  0  0  0  0  0
  185.5780  178.3600  141.3990 C   0  0  2  0  0  3  0  0  0  0  0  0
  184.5980  177.9050  142.4600 C   0  0  0  0  0  1  0  0  0  0  0  0
  184.9610  178.3340  140.1410 O   0  0  0  0  0  1  0  0  0  0  0  0
  194.3240  177.2660  145.2060 N   0  0  0  0  0  2  0  0  0  0  0  0
  195.8590  176.3570  143.6880 O   0  0  0  0  0  0  0  0  0  0  0  0
  195.3000  178.1340  145.8470 C   0  0  0  0  0  1  0  0  0  0  0  0
  194.6810  176.3640  144.1500 C   0  0  0  0  0  0  0  0  0  0  0  0
  190.1000  175.2710  147.4940 C   0  0  0  0  0  2  0  0  0  0  0  0
  189.6960  174.1610  146.5230 C   0  0  0  0  0  3  0  0  0  0  0  0
  188.7750  175.3520  146.7600 C   0  0  0  0  0  2  0  0  0  0  0  0
  196.1270  171.6340  141.4100 C   0  0  0  0  0  2  0  0  0  0  0  0
  195.1680  170.9070  142.3650 C   0  0  0  0  0  2  0  0  0  0  0  0
  194.9690  169.4600  141.9260 C   0  0  0  0  0  2  0  0  0  0  0  0
  195.5260  169.2430  140.5310 C   0  0  0  0  0  2  0  0  0  0  0  0
  194.4650  169.0980  139.6370 O   0  0  0  0  0  0  0  0  0  0  0  0
  196.5840  170.2380  138.2330 O   0  0  0  0  0  1  0  0  0  0  0  0
  194.9760  169.7060  138.1390 P   0  0  1  0  0  0  0  0  0  0  0  0
  194.8750  168.6750  137.0280 O   0  0  0  0  0  0  0  0  0  0  0  0
  193.8830  171.0960  137.7010 C   0  0  0  0  0  2  0  0  0  0  0  0
  192.7130  171.1640  138.6650 C   0  0  0  0  0  2  0  0  0  0  0  0
  191.3530  170.6430  138.1640 C   0  0  2  0  0  0  0  0  0  0  0  0
  189.7360  172.5980  140.3530 C   0  0  0  0  0  2  0  0  0  0  0  0
  189.9710  172.7330  137.8320 C   0  0  0  0  0  0  0  0  0  0  0  0
  191.5850  173.7760  139.2830 O   0  0  0  0  0  1  0  0  0  0  0  0
  190.2400  173.4000  139.1510 C   0  0  2  0  0  3  0  0  0  0  0  0
  190.4320  170.2680  139.3440 C   0  0  2  0  0  3  0  0  0  0  0  0
  191.5340  169.4960  137.3750 O   0  0  0  0  0  1  0  0  0  0  0  0
  190.4190  171.2460  140.5190 C   0  0  1  0  0  3  0  0  0  0  0  0
  188.9390  173.0740  137.2040 O   0  0  0  0  0  0  0  0  0  0  0  0
  190.6680  168.9690  139.8000 O   0  0  0  0  0  1  0  0  0  0  0  0
  190.7140  171.6320  137.3510 O   0  0  0  0  0  0  0  0  0  0  0  0
  191.3330  171.0060  141.7160 C   0  0  0  0  0  2  0  0  0  0  0  0
  191.8180  172.2120  142.2270 O   0  0  0  0  0  1  0  0  0  0  0  0
  1  5  1  0  0  0  0
  2 33  1  0  0  0  0
  2  3  1  0  0  0  0
  4  6  1  0  0  0  0
  4  1  2  0  0  0  0
  5  3  2  0  0  0  0
  6  2  2  0  0  0  0
  7  5  1  6  0  0  0
  7 10  1  0  0  0  0
  9 31  1  1  0  0  0
 10 29  1  1  0  0  0
 10 15  1  0  0  0  0
 11  9  1  0  0  0  0
 11  8  2  0  0  0  0
 12  7  1  0  0  0  0
 13 14  1  1  0  0  0
 14  9  1  0  0  0  0
 15 11  1  6  0  0  0
 16 12  1  6  0  0  0
 16 13  1  0  0  0  0
 16 15  1  0  0  0  0
 18 23  1  1  0  0  0
 18 21  1  0  0  0  0
 18 20  1  0  0  0  0
 20 19  1  6  0  0  0
 21 17  1  6  0  0  0
 21 20  1  0  0  0  0
 22 17  1  1  0  0  0
 22 19  1  0  0  0  0
 22 13  1  0  0  0  0
 23 24  1  1  0  0  0
 25 23  1  0  0  0  0
 26 28  1  0  0  0  0
 27 29  2  0  0  0  0
 29 26  1  0  0  0  0
 31 32  1  0  0  0  0
 31 30  1  0  0  0  0
 32 30  1  0  0  0  0
 33 34  1  0  0  0  0
 35 34  1  0  0  0  0
 36 35  1  0  0  0  0
 37 36  1  0  0  0  0
 39 40  2  6  0  0  0
 39 38  1  0  0  0  0
 39 37  1  0  0  0  0
 41 39  1  0  0  0  0
 41 42  1  0  0  0  0
 43 49  1  6  0  0  0
 43 42  1  0  0  0  0
 43 48  1  0  0  0  0
 44 50  1  0  0  0  0
 45 47  1  0  0  0  0
 47 46  1  1  0  0  0
 47 44  1  0  0  0  0
 48 52  1  1  0  0  0
 48 50  1  0  0  0  0
 50 54  1  6  0  0  0
 51 45  2  0  0  0  0
 53 45  1  0  0  0  0
 53 43  1  0  0  0  0
 54 55  1  0  0  0  0
M  END
>  <MODEL>
1

>  <REMARK>
 VINA RESULT:      -5.9      0.000      0.000
  Name = 
  15 active torsions:
  status: ('A' for Active; 'I' for Inactive)
    1  A    between atoms: C_1  and  C_21
    2  A    between atoms: C_2  and  C_44
    3  A    between atoms: O_8  and  P_20
    4  A    between atoms: O_8  and  C_43
    5  A    between atoms: C_10  and  C_32
    6  A    between atoms: C_11  and  C_38
    7  A    between atoms: C_16  and  C_17
    8  A    between atoms: C_19  and  C_40
    9  A    between atoms: P_20  and  C_42
   10  A    between atoms: C_21  and  C_42
   11  A    between atoms: C_27  and  C_54
   12  A    between atoms: N_33  and  C_52
   13  A    between atoms: C_35  and  C_43
   14  A    between atoms: C_35  and  C_51
   15  A    between atoms: C_51  and  C_54
                            x       y       z     vdW  Elec       q    Type
                         _______ _______ _______ _____ _____    ______ ____

>  <TORSDO>
F 15

$$$$
=
 OpenBabel11052419453D

 55 61  0  0  1  0  0  0  0  0999 V2000
  192.2940  175.7020  136.0920 C   0  0  0  0  0  3  0  0  0  0  0  0
  190.6420  173.5050  136.6720 C   0  0  0  0  0  0  0  0  0  0  0  0
  191.8580  173.6790  137.3550 C   0  0  0  0  0  3  0  0  0  0  0  0
  191.0860  175.5340  135.4070 C   0  0  0  0  0  3  0  0  0  0  0  0
  192.6900  174.7680  137.0650 C   0  0  0  0  0  0  0  0  0  0  0  0
  190.2630  174.4370  135.6960 C   0  0  0  0  0  3  0  0  0  0  0  0
  193.9660  174.9400  137.8130 C   0  0  2  0  0  3  0  0  0  0  0  0
  195.7090  171.2320  138.1620 C   0  0  0  0  0  2  0  0  0  0  0  0
  196.0440  171.9160  140.5390 C   0  0  2  0  0  3  0  0  0  0  0  0
  194.9830  173.9040  137.3870 C   0  0  2  0  0  3  0  0  0  0  0  0
  195.9140  172.2040  139.0420 C   0  0  0  0  0  0  0  0  0  0  0  0
  193.7660  174.7980  139.1960 O   0  0  0  0  0  0  0  0  0  0  0  0
  194.8600  173.7450  140.9880 N   0  0  2  0  0  0  0  0  0  0  0  0
  196.0470  173.1300  141.2600 O   0  0  0  0  0  0  0  0  0  0  0  0
  195.7840  173.6590  138.6500 C   0  0  2  0  0  3  0  0  0  0  0  0
  195.0220  174.4770  139.7180 C   0  0  1  0  0  3  0  0  0  0  0  0
  195.8560  174.8120  142.9890 C   0  0  0  0  0  2  0  0  0  0  0  0
  194.4110  175.9120  144.7160 C   0  0  2  0  0  3  0  0  0  0  0  0
  193.4540  174.4200  142.9270 C   0  0  0  0  0  2  0  0  0  0  0  0
  193.8520  174.5320  144.3900 C   0  0  1  0  0  3  0  0  0  0  0  0
  195.3580  174.7520  144.4240 C   0  0  1  0  0  3  0  0  0  0  0  0
  194.6600  174.7410  142.0500 C   0  0  2  0  0  3  0  0  0  0  0  0
  194.2560  176.2170  146.2070 C   0  0  2  0  0  3  0  0  0  0  0  0
  192.8350  175.9080  146.6310 C   0  0  0  0  0  1  0  0  0  0  0  0
  194.5780  177.5360  146.5520 O   0  0  0  0  0  1  0  0  0  0  0  0
  196.6630  175.5640  136.4330 N   0  0  0  0  0  2  0  0  0  0  0  0
  195.8300  173.7820  135.1620 O   0  0  0  0  0  0  0  0  0  0  0  0
  197.5560  176.0400  135.3890 C   0  0  0  0  0  1  0  0  0  0  0  0
  195.8490  174.3940  136.2690 C   0  0  0  0  0  0  0  0  0  0  0  0
  197.3150  170.7340  142.4800 C   0  0  0  0  0  2  0  0  0  0  0  0
  197.2530  171.0640  140.9880 C   0  0  0  0  0  3  0  0  0  0  0  0
  196.7830  169.7070  141.4990 C   0  0  0  0  0  2  0  0  0  0  0  0
  189.8030  172.3100  137.0170 C   0  0  0  0  0  2  0  0  0  0  0  0
  189.4990  172.1300  138.5120 C   0  0  0  0  0  2  0  0  0  0  0  0
  188.2090  172.8510  138.8880 C   0  0  0  0  0  2  0  0  0  0  0  0
  188.4880  173.9600  139.8860 C   0  0  0  0  0  2  0  0  0  0  0  0
  189.5950  173.6080  140.6580 O   0  0  0  0  0  0  0  0  0  0  0  0
  187.3320  172.7430  142.0330 O   0  0  0  0  0  0  0  0  0  0  0  0
  189.0140  172.9440  142.1050 P   0  0  1  0  0  0  0  0  0  0  0  0
  189.6460  171.5990  142.4210 O   0  0  0  0  0  1  0  0  0  0  0  0
  189.4500  174.0860  143.4560 C   0  0  0  0  0  2  0  0  0  0  0  0
  188.7830  175.4320  143.2360 C   0  0  0  0  0  2  0  0  0  0  0  0
  189.6280  176.6920  143.5040 C   0  0  2  0  0  0  0  0  0  0  0  0
  187.0220  178.1910  144.9830 C   0  0  0  0  0  2  0  0  0  0  0  0
  189.1730  177.2410  145.9290 C   0  0  0  0  0  0  0  0  0  0  0  0
  187.2230  175.8550  145.6580 O   0  0  0  0  0  1  0  0  0  0  0  0
  187.6740  177.1600  145.9070 C   0  0  2  0  0  3  0  0  0  0  0  0
  188.8590  177.9710  143.1110 C   0  0  2  0  0  3  0  0  0  0  0  0
  190.8120  176.6500  142.7510 O   0  0  0  0  0  1  0  0  0  0  0  0
  187.3840  178.0150  143.5140 C   0  0  1  0  0  3  0  0  0  0  0  0
  189.7110  177.9090  146.8460 O   0  0  0  0  0  0  0  0  0  0  0  0
  188.9970  178.2670  141.7530 O   0  0  0  0  0  1  0  0  0  0  0  0
  189.9930  176.7560  144.8850 O   0  0  0  0  0  0  0  0  0  0  0  0
  186.3130  177.5820  142.5200 C   0  0  0  0  0  2  0  0  0  0  0  0
  185.3320  176.8090  143.1450 O   0  0  0  0  0  1  0  0  0  0  0  0
  1  5  1  0  0  0  0
  2 33  1  0  0  0  0
  2  3  1  0  0  0  0
  4  6  1  0  0  0  0
  4  1  2  0  0  0  0
  5  3  2  0  0  0  0
  6  2  2  0  0  0  0
  7  5  1  6  0  0  0
  7 12  1  0  0  0  0
  8 11  2  0  0  0  0
  9 31  1  6  0  0  0
  9 14  1  0  0  0  0
 10 29  1  6  0  0  0
 10  7  1  0  0  0  0
 10 15  1  0  0  0  0
 11  9  1  0  0  0  0
 13 14  1  1  0  0  0
 13 22  1  0  0  0  0
 15 11  1  1  0  0  0
 15 16  1  0  0  0  0
 16 12  1  6  0  0  0
 16 13  1  0  0  0  0
 18 23  1  1  0  0  0
 20 19  1  6  0  0  0
 20 21  1  0  0  0  0
 20 18  1  0  0  0  0
 21 17  1  6  0  0  0
 21 18  1  0  0  0  0
 22 19  1  1  0  0  0
 22 17  1  0  0  0  0
 23 25  1  0  0  0  0
 23 24  1  6  0  0  0
 27 29  2  0  0  0  0
 28 26  1  0  0  0  0
 29 26  1  0  0  0  0
 31 32  1  0  0  0  0
 31 30  1  0  0  0  0
 32 30  1  0  0  0  0
 33 34  1  0  0  0  0
 34 35  1  0  0  0  0
 35 36  1  0  0  0  0
 36 37  1  0  0  0  0
 37 39  1  0  0  0  0
 39 38  2  6  0  0  0
 39 40  1  0  0  0  0
 39 41  1  0  0  0  0
 42 41  1  0  0  0  0
 42 43  1  0  0  0  0
 43 49  1  6  0  0  0
 43 53  1  0  0  0  0
 44 47  1  0  0  0  0
 45 51  2  0  0  0  0
 47 46  1  6  0  0  0
 47 45  1  0  0  0  0
 48 52  1  6  0  0  0
 48 43  1  0  0  0  0
 48 50  1  0  0  0  0
 50 54  1  1  0  0  0
 50 44  1  0  0  0  0
 53 45  1  0  0  0  0
 54 55  1  0  0  0  0
M  END
>  <MODEL>
2

>  <REMARK>
 VINA RESULT:      -5.7      2.962      8.036
  Name = 
  15 active torsions:
  status: ('A' for Active; 'I' for Inactive)
    1  A    between atoms: C_1  and  C_21
    2  A    between atoms: C_2  and  C_44
    3  A    between atoms: O_8  and  P_20
    4  A    between atoms: O_8  and  C_43
    5  A    between atoms: C_10  and  C_32
    6  A    between atoms: C_11  and  C_38
    7  A    between atoms: C_16  and  C_17
    8  A    between atoms: C_19  and  C_40
    9  A    between atoms: P_20  and  C_42
   10  A    between atoms: C_21  and  C_42
   11  A    between atoms: C_27  and  C_54
   12  A    between atoms: N_33  and  C_52
   13  A    between atoms: C_35  and  C_43
   14  A    between atoms: C_35  and  C_51
   15  A    between atoms: C_51  and  C_54
                            x       y       z     vdW  Elec       q    Type
                         _______ _______ _______ _____ _____    ______ ____

>  <TORSDO>
F 15

$$$$
=
 OpenBabel11052419453D

 55 61  0  0  1  0  0  0  0  0999 V2000
  192.2200  175.5000  142.1420 C   0  0  0  0  0  3  0  0  0  0  0  0
  193.4560  176.5740  144.4250 C   0  0  0  0  0  0  0  0  0  0  0  0
  193.9740  175.4180  143.8140 C   0  0  0  0  0  3  0  0  0  0  0  0
  191.6990  176.6490  142.7460 C   0  0  0  0  0  3  0  0  0  0  0  0
  193.3570  174.8730  142.6800 C   0  0  0  0  0  0  0  0  0  0  0  0
  192.3150  177.1830  143.8850 C   0  0  0  0  0  3  0  0  0  0  0  0
  193.9320  173.6580  142.0410 C   0  0  2  0  0  3  0  0  0  0  0  0
  191.6130  172.7600  138.7670 C   0  0  0  0  0  2  0  0  0  0  0  0
  191.7320  170.4330  139.6640 C   0  0  2  0  0  3  0  0  0  0  0  0
  193.6790  173.6630  140.5490 C   0  0  2  0  0  3  0  0  0  0  0  0
  192.2950  171.8360  139.4340 C   0  0  0  0  0  0  0  0  0  0  0  0
  193.3590  172.4880  142.5660 O   0  0  0  0  0  0  0  0  0  0  0  0
  192.5560  170.4450  141.7290 N   0  0  2  0  0  0  0  0  0  0  0  0
  192.5580  169.7290  140.5680 O   0  0  0  0  0  0  0  0  0  0  0  0
  193.5430  172.1920  140.2120 C   0  0  2  0  0  3  0  0  0  0  0  0
  193.5730  171.5060  141.5970 C   0  0  1  0  0  3  0  0  0  0  0  0
  192.7130  170.0670  144.1710 C   0  0  0  0  0  2  0  0  0  0  0  0
  194.4290  168.5100  145.1260 C   0  0  2  0  0  3  0  0  0  0  0  0
  194.5200  169.2920  142.7340 C   0  0  0  0  0  2  0  0  0  0  0  0
  195.0960  169.4520  144.1310 C   0  0  1  0  0  3  0  0  0  0  0  0
  193.9700  169.9610  145.0210 C   0  0  1  0  0  3  0  0  0  0  0  0
  193.0130  169.5250  142.7810 C   0  0  2  0  0  3  0  0  0  0  0  0
  195.3520  168.2440  146.3170 C   0  0  2  0  0  3  0  0  0  0  0  0
  194.5610  168.3950  147.6000 C   0  0  0  0  0  1  0  0  0  0  0  0
  196.4800  169.0740  146.3560 O   0  0  0  0  0  1  0  0  0  0  0  0
  195.8090  173.5000  139.1630 N   0  0  0  0  0  2  0  0  0  0  0  0
  194.8700  175.5650  139.7420 O   0  0  0  0  0  0  0  0  0  0  0  0
  196.8850  174.0810  138.3750 C   0  0  0  0  0  1  0  0  0  0  0  0
  194.8020  174.3020  139.7920 C   0  0  0  0  0  0  0  0  0  0  0  0
  190.2150  168.7290  138.4090 C   0  0  0  0  0  2  0  0  0  0  0  0
  191.5000  169.5560  138.4120 C   0  0  0  0  0  3  0  0  0  0  0  0
  190.2740  170.0390  137.6470 C   0  0  0  0  0  2  0  0  0  0  0  0
  194.1520  177.1000  145.6450 C   0  0  0  0  0  2  0  0  0  0  0  0
  193.7700  176.4140  146.9660 C   0  0  0  0  0  2  0  0  0  0  0  0
  192.2670  176.5060  147.2030 C   0  0  0  0  0  2  0  0  0  0  0  0
  191.6530  175.1210  147.2890 C   0  0  0  0  0  2  0  0  0  0  0  0
  191.4110  174.6510  145.9980 O   0  0  0  0  0  0  0  0  0  0  0  0
  189.6870  172.5280  145.4700 O   0  0  0  0  0  0  0  0  0  0  0  0
  189.7900  174.1560  145.9330 P   0  0  1  0  0  0  0  0  0  0  0  0
  189.0780  174.3230  147.2650 O   0  0  0  0  0  1  0  0  0  0  0  0
  188.9350  175.2080  144.7170 C   0  0  0  0  0  2  0  0  0  0  0  0
  187.8690  176.0400  145.4060 C   0  0  0  0  0  2  0  0  0  0  0  0
  188.1070  177.5590  145.4980 C   0  0  2  0  0  0  0  0  0  0  0  0
  184.8900  178.1630  144.7820 C   0  0  0  0  0  2  0  0  0  0  0  0
  186.2060  178.4010  146.9350 C   0  0  0  0  0  0  0  0  0  0  0  0
  185.1330  176.3220  146.3640 O   0  0  0  0  0  1  0  0  0  0  0  0
  185.0660  177.7170  146.2360 C   0  0  2  0  0  3  0  0  0  0  0  0
  187.4740  178.2950  144.2980 C   0  0  2  0  0  3  0  0  0  0  0  0
  189.4830  177.8340  145.4970 O   0  0  0  0  0  1  0  0  0  0  0  0
  186.0770  177.8270  143.8880 C   0  0  1  0  0  3  0  0  0  0  0  0
  185.9440  179.4150  147.6280 O   0  0  0  0  0  0  0  0  0  0  0  0
  188.3220  178.3120  143.1890 O   0  0  0  0  0  1  0  0  0  0  0  0
  187.5620  178.0710  146.7180 O   0  0  0  0  0  0  0  0  0  0  0  0
  185.9190  176.7890  142.7830 C   0  0  0  0  0  2  0  0  0  0  0  0
  185.5690  177.3930  141.5730 O   0  0  0  0  0  1  0  0  0  0  0  0
  1  5  2  0  0  0  0
  1  4  1  0  0  0  0
  2 33  1  0  0  0  0
  3  2  2  0  0  0  0
  4  6  2  0  0  0  0
  5  3  1  0  0  0  0
  6  2  1  0  0  0  0
  7 12  1  0  0  0  0
  7  5  1  1  0  0  0
  8 11  2  0  0  0  0
  9 31  1  6  0  0  0
  9 14  1  0  0  0  0
 10 29  1  6  0  0  0
 10  7  1  0  0  0  0
 11  9  1  0  0  0  0
 13 14  1  6  0  0  0
 13 22  1  0  0  0  0
 15 11  1  1  0  0  0
 15 10  1  0  0  0  0
 15 16  1  0  0  0  0
 16 13  1  0  0  0  0
 16 12  1  1  0  0  0
 18 23  1  1  0  0  0
 20 19  1  6  0  0  0
 20 21  1  0  0  0  0
 20 18  1  0  0  0  0
 21 17  1  6  0  0  0
 21 18  1  0  0  0  0
 22 19  1  1  0  0  0
 22 17  1  0  0  0  0
 23 25  1  0  0  0  0
 23 24  1  1  0  0  0
 26 29  1  0  0  0  0
 27 29  2  0  0  0  0
 28 26  1  0  0  0  0
 30 31  1  0  0  0  0
 32 30  1  0  0  0  0
 32 31  1  0  0  0  0
 33 34  1  0  0  0  0
 34 35  1  0  0  0  0
 35 36  1  0  0  0  0
 37 36  1  0  0  0  0
 39 38  2  6  0  0  0
 39 37  1  0  0  0  0
 39 40  1  0  0  0  0
 41 42  1  0  0  0  0
 41 39  1  0  0  0  0
 42 43  1  0  0  0  0
 43 49  1  6  0  0  0
 43 53  1  0  0  0  0
 44 47  1  0  0  0  0
 45 51  2  0  0  0  0
 47 46  1  6  0  0  0
 47 45  1  0  0  0  0
 48 52  1  6  0  0  0
 48 43  1  0  0  0  0
 50 54  1  1  0  0  0
 50 48  1  0  0  0  0
 50 44  1  0  0  0  0
 53 45  1  0  0  0  0
 55 54  1  0  0  0  0
M  END
>  <MODEL>
3

>  <REMARK>
 VINA RESULT:      -5.5      3.281      9.037
  Name = 
  15 active torsions:
  status: ('A' for Active; 'I' for Inactive)
    1  A    between atoms: C_1  and  C_21
    2  A    between atoms: C_2  and  C_44
    3  A    between atoms: O_8  and  P_20
    4  A    between atoms: O_8  and  C_43
    5  A    between atoms: C_10  and  C_32
    6  A    between atoms: C_11  and  C_38
    7  A    between atoms: C_16  and  C_17
    8  A    between atoms: C_19  and  C_40
    9  A    between atoms: P_20  and  C_42
   10  A    between atoms: C_21  and  C_42
   11  A    between atoms: C_27  and  C_54
   12  A    between atoms: N_33  and  C_52
   13  A    between atoms: C_35  and  C_43
   14  A    between atoms: C_35  and  C_51
   15  A    between atoms: C_51  and  C_54
                            x       y       z     vdW  Elec       q    Type
                         _______ _______ _______ _____ _____    ______ ____

>  <TORSDO>
F 15

$$$$
=
 OpenBabel11052419453D

 55 61  0  0  1  0  0  0  0  0999 V2000
  185.1850  177.5490  142.6820 C   0  0  0  0  0  3  0  0  0  0  0  0
  186.1760  177.4850  140.0540 C   0  0  0  0  0  0  0  0  0  0  0  0
  186.8630  176.8240  141.0880 C   0  0  0  0  0  3  0  0  0  0  0  0
  184.4990  178.2100  141.6580 C   0  0  0  0  0  3  0  0  0  0  0  0
  186.3770  176.8590  142.4030 C   0  0  0  0  0  0  0  0  0  0  0  0
  184.9950  178.1790  140.3480 C   0  0  0  0  0  3  0  0  0  0  0  0
  187.1120  176.1390  143.4780 C   0  0  2  0  0  3  0  0  0  0  0  0
  190.5250  178.2810  144.2990 C   0  0  0  0  0  2  0  0  0  0  0  0
  191.6250  176.0420  144.2070 C   0  0  2  0  0  3  0  0  0  0  0  0
  187.9010  177.1070  144.3320 C   0  0  2  0  0  3  0  0  0  0  0  0
  190.4410  176.9700  144.4890 C   0  0  0  0  0  0  0  0  0  0  0  0
  188.0190  175.2110  142.9400 O   0  0  0  0  0  0  0  0  0  0  0  0
  190.2310  174.5350  143.3510 N   0  0  2  0  0  0  0  0  0  0  0  0
  191.2050  174.6960  144.2910 O   0  0  0  0  0  0  0  0  0  0  0  0
  189.1120  176.2980  144.7520 C   0  0  2  0  0  3  0  0  0  0  0  0
  188.9600  174.9870  143.9470 C   0  0  1  0  0  3  0  0  0  0  0  0
  191.2130  172.3150  143.8400 C   0  0  0  0  0  2  0  0  0  0  0  0
  190.8160  170.3660  142.3150 C   0  0  2  0  0  3  0  0  0  0  0  0
  190.2500  172.7260  141.6410 C   0  0  0  0  0  2  0  0  0  0  0  0
  191.2350  171.5780  141.4920 C   0  0  1  0  0  3  0  0  0  0  0  0
  191.8540  171.3410  142.8630 C   0  0  1  0  0  3  0  0  0  0  0  0
  190.1180  173.0870  143.1180 C   0  0  2  0  0  3  0  0  0  0  0  0
  191.4240  169.0860  141.7360 C   0  0  2  0  0  3  0  0  0  0  0  0
  192.3790  169.4530  140.6200 C   0  0  0  0  0  1  0  0  0  0  0  0
  190.4730  168.1710  141.2650 O   0  0  0  0  0  1  0  0  0  0  0  0
  186.9210  176.7290  146.6520 N   0  0  0  0  0  2  0  0  0  0  0  0
  186.5940  178.7330  145.4870 O   0  0  0  0  0  0  0  0  0  0  0  0
  186.2080  177.1710  147.8410 C   0  0  0  0  0  1  0  0  0  0  0  0
  187.1150  177.5810  145.5160 C   0  0  0  0  0  0  0  0  0  0  0  0
  192.6570  176.2180  146.5900 C   0  0  0  0  0  2  0  0  0  0  0  0
  192.8870  176.2280  145.0790 C   0  0  0  0  0  3  0  0  0  0  0  0
  193.1580  174.9680  145.8930 C   0  0  0  0  0  2  0  0  0  0  0  0
  186.7550  177.4240  138.6720 C   0  0  0  0  0  2  0  0  0  0  0  0
  186.6910  176.0470  137.9930 C   0  0  0  0  0  2  0  0  0  0  0  0
  186.9060  176.1800  136.4890 C   0  0  0  0  0  2  0  0  0  0  0  0
  188.1530  175.4290  136.0590 C   0  0  0  0  0  2  0  0  0  0  0  0
  188.5050  174.5240  137.0610 O   0  0  0  0  0  0  0  0  0  0  0  0
  189.8940  172.5550  135.6630 O   0  0  0  0  0  0  0  0  0  0  0  0
  190.0370  173.9090  136.6740 P   0  0  1  0  0  0  0  0  0  0  0  0
  190.9170  174.9350  135.9810 O   0  0  0  0  0  1  0  0  0  0  0  0
  190.8590  173.4410  138.2310 C   0  0  0  0  0  2  0  0  0  0  0  0
  192.3320  173.8020  138.1720 C   0  0  0  0  0  2  0  0  0  0  0  0
  193.3360  172.6450  138.0090 C   0  0  2  0  0  0  0  0  0  0  0  0
  195.9080  174.7900  138.1250 C   0  0  0  0  0  2  0  0  0  0  0  0
  195.0740  173.0750  139.7940 C   0  0  0  0  0  0  0  0  0  0  0  0
  194.2110  175.3230  139.7950 O   0  0  0  0  0  1  0  0  0  0  0  0
  195.3340  174.5280  139.5200 C   0  0  2  0  0  3  0  0  0  0  0  0
  194.4030  172.9810  136.9460 C   0  0  2  0  0  3  0  0  0  0  0  0
  192.6710  171.4790  137.6010 O   0  0  0  0  0  1  0  0  0  0  0  0
  194.9680  174.4020  136.9910 C   0  0  1  0  0  3  0  0  0  0  0  0
  195.9600  172.4260  140.4030 O   0  0  0  0  0  0  0  0  0  0  0  0
  193.9680  172.6760  135.6540 O   0  0  0  0  0  1  0  0  0  0  0  0
  193.9750  172.3660  139.2590 O   0  0  0  0  0  0  0  0  0  0  0  0
  194.3650  175.4860  136.1060 C   0  0  0  0  0  2  0  0  0  0  0  0
  195.3500  176.3650  135.6480 O   0  0  0  0  0  1  0  0  0  0  0  0
  2  6  2  0  0  0  0
  2  3  1  0  0  0  0
  3  5  2  0  0  0  0
  4  1  2  0  0  0  0
  5  1  1  0  0  0  0
  6  4  1  0  0  0  0
  7  5  1  6  0  0  0
  7 10  1  0  0  0  0
  8 11  2  0  0  0  0
  9 14  1  0  0  0  0
  9 11  1  0  0  0  0
  9 31  1  1  0  0  0
 10 15  1  0  0  0  0
 10 29  1  1  0  0  0
 12  7  1  0  0  0  0
 13 16  1  0  0  0  0
 13 14  1  1  0  0  0
 15 11  1  6  0  0  0
 16 12  1  6  0  0  0
 16 15  1  0  0  0  0
 18 23  1  6  0  0  0
 18 21  1  0  0  0  0
 20 19  1  1  0  0  0
 20 18  1  0  0  0  0
 20 21  1  0  0  0  0
 21 17  1  1  0  0  0
 22 19  1  6  0  0  0
 22 13  1  0  0  0  0
 22 17  1  0  0  0  0
 23 24  1  6  0  0  0
 25 23  1  0  0  0  0
 26 28  1  0  0  0  0
 27 29  2  0  0  0  0
 29 26  1  0  0  0  0
 31 32  1  0  0  0  0
 31 30  1  0  0  0  0
 32 30  1  0  0  0  0
 33  2  1  0  0  0  0
 34 33  1  0  0  0  0
 35 34  1  0  0  0  0
 36 35  1  0  0  0  0
 36 37  1  0  0  0  0
 39 38  2  6  0  0  0
 39 37  1  0  0  0  0
 39 41  1  0  0  0  0
 40 39  1  0  0  0  0
 42 41  1  0  0  0  0
 43 49  1  6  0  0  0
 43 42  1  0  0  0  0
 43 53  1  0  0  0  0
 44 47  1  0  0  0  0
 45 51  2  0  0  0  0
 47 45  1  0  0  0  0
 47 46  1  6  0  0  0
 48 52  1  6  0  0  0
 48 50  1  0  0  0  0
 48 43  1  0  0  0  0
 50 54  1  1  0  0  0
 50 44  1  0  0  0  0
 53 45  1  0  0  0  0
 55 54  1  0  0  0  0
M  END
>  <MODEL>
4

>  <REMARK>
 VINA RESULT:      -5.5      2.601      7.334
  Name = 
  15 active torsions:
  status: ('A' for Active; 'I' for Inactive)
    1  A    between atoms: C_1  and  C_21
    2  A    between atoms: C_2  and  C_44
    3  A    between atoms: O_8  and  P_20
    4  A    between atoms: O_8  and  C_43
    5  A    between atoms: C_10  and  C_32
    6  A    between atoms: C_11  and  C_38
    7  A    between atoms: C_16  and  C_17
    8  A    between atoms: C_19  and  C_40
    9  A    between atoms: P_20  and  C_42
   10  A    between atoms: C_21  and  C_42
   11  A    between atoms: C_27  and  C_54
   12  A    between atoms: N_33  and  C_52
   13  A    between atoms: C_35  and  C_43
   14  A    between atoms: C_35  and  C_51
   15  A    between atoms: C_51  and  C_54
                            x       y       z     vdW  Elec       q    Type
                         _______ _______ _______ _____ _____    ______ ____

>  <TORSDO>
F 15

$$$$
=
 OpenBabel11052419453D

 55 61  0  0  1  0  0  0  0  0999 V2000
  195.2720  174.6470  140.2760 C   0  0  0  0  0  3  0  0  0  0  0  0
  194.6460  171.9650  140.8300 C   0  0  0  0  0  0  0  0  0  0  0  0
  194.0330  173.0020  141.5550 C   0  0  0  0  0  3  0  0  0  0  0  0
  195.8880  173.6210  139.5520 C   0  0  0  0  0  3  0  0  0  0  0  0
  194.3470  174.3420  141.2890 C   0  0  0  0  0  0  0  0  0  0  0  0
  195.5760  172.2830  139.8300 C   0  0  0  0  0  3  0  0  0  0  0  0
  193.6730  175.4230  142.0580 C   0  0  2  0  0  3  0  0  0  0  0  0
  193.2450  174.1070  145.9310 C   0  0  0  0  0  2  0  0  0  0  0  0
  190.9200  174.9830  145.6820 C   0  0  2  0  0  3  0  0  0  0  0  0
  194.1020  175.3980  143.5090 C   0  0  2  0  0  3  0  0  0  0  0  0
  192.4200  174.9910  145.3810 C   0  0  0  0  0  0  0  0  0  0  0  0
  192.2770  175.2750  142.0250 O   0  0  0  0  0  0  0  0  0  0  0  0
  190.4960  175.4430  143.5480 N   0  0  2  0  0  0  0  0  0  0  0  0
  190.2560  175.8810  144.8170 O   0  0  0  0  0  0  0  0  0  0  0  0
  192.8710  175.8850  144.2470 C   0  0  2  0  0  3  0  0  0  0  0  0
  191.8040  175.9830  143.1330 C   0  0  1  0  0  3  0  0  0  0  0  0
  189.4170  177.5750  142.8960 C   0  0  0  0  0  2  0  0  0  0  0  0
  187.1170  177.6020  141.9000 C   0  0  2  0  0  3  0  0  0  0  0  0
  188.0690  175.5490  143.0040 C   0  0  0  0  0  2  0  0  0  0  0  0
  187.1200  176.7270  143.1470 C   0  0  1  0  0  3  0  0  0  0  0  0
  187.9690  177.9910  143.1040 C   0  0  1  0  0  3  0  0  0  0  0  0
  189.4710  176.0660  142.6970 C   0  0  2  0  0  3  0  0  0  0  0  0
  185.8080  178.3880  141.7960 C   0  0  2  0  0  3  0  0  0  0  0  0
  184.7860  177.7730  142.7290 C   0  0  0  0  0  1  0  0  0  0  0  0
  185.2870  178.4510  140.4970 O   0  0  0  0  0  1  0  0  0  0  0  0
  196.4670  176.1670  142.9590 N   0  0  0  0  0  2  0  0  0  0  0  0
  195.2390  177.1130  144.7130 O   0  0  0  0  0  0  0  0  0  0  0  0
  197.6140  177.0430  143.1380 C   0  0  0  0  0  1  0  0  0  0  0  0
  195.2830  176.2830  143.7600 C   0  0  0  0  0  0  0  0  0  0  0  0
  190.8190  176.6870  147.6480 C   0  0  0  0  0  2  0  0  0  0  0  0
  190.4950  175.2840  147.1370 C   0  0  0  0  0  3  0  0  0  0  0  0
  189.4200  176.3640  147.1620 C   0  0  0  0  0  2  0  0  0  0  0  0
  194.2800  170.5520  141.1730 C   0  0  0  0  0  2  0  0  0  0  0  0
  194.6730  169.4990  140.1250 C   0  0  0  0  0  2  0  0  0  0  0  0
  193.4360  168.9720  139.4060 C   0  0  0  0  0  2  0  0  0  0  0  0
  193.6750  168.9050  137.9080 C   0  0  0  0  0  2  0  0  0  0  0  0
  194.7280  169.7590  137.5790 O   0  0  0  0  0  0  0  0  0  0  0  0
  195.5720  170.6420  135.0760 O   0  0  0  0  0  0  0  0  0  0  0  0
  194.2810  170.5970  136.1750 P   0  0  1  0  0  0  0  0  0  0  0  0
  193.0820  169.9730  135.4820 O   0  0  0  0  0  1  0  0  0  0  0  0
  193.8160  172.2900  136.6610 C   0  0  0  0  0  2  0  0  0  0  0  0
  192.4320  172.2910  137.2850 C   0  0  0  0  0  2  0  0  0  0  0  0
  191.9380  173.6110  137.9070 C   0  0  2  0  0  0  0  0  0  0  0  0
  188.7670  172.5320  137.8160 C   0  0  0  0  0  2  0  0  0  0  0  0
  190.3690  172.8820  139.7500 C   0  0  0  0  0  0  0  0  0  0  0  0
  190.2960  170.7850  138.5680 O   0  0  0  0  0  1  0  0  0  0  0  0
  189.5430  171.8970  138.9730 C   0  0  2  0  0  3  0  0  0  0  0  0
  190.7180  174.1650  137.1410 C   0  0  2  0  0  3  0  0  0  0  0  0
  192.9540  174.5780  137.8600 O   0  0  0  0  0  1  0  0  0  0  0  0
  189.6590  173.1380  136.7390 C   0  0  1  0  0  3  0  0  0  0  0  0
  189.8700  173.3710  140.7920 O   0  0  0  0  0  0  0  0  0  0  0  0
  191.0980  174.9250  136.0330 O   0  0  0  0  0  1  0  0  0  0  0  0
  191.5930  173.4110  139.2810 O   0  0  0  0  0  0  0  0  0  0  0  0
  189.7010  172.5070  135.3530 C   0  0  0  0  0  2  0  0  0  0  0  0
  189.5910  171.1160  135.4310 O   0  0  0  0  0  1  0  0  0  0  0  0
  1  5  1  0  0  0  0
  2 33  1  0  0  0  0
  2  3  1  0  0  0  0
  4  6  1  0  0  0  0
  4  1  2  0  0  0  0
  5  3  2  0  0  0  0
  6  2  2  0  0  0  0
  7  5  1  6  0  0  0
  7 10  1  0  0  0  0
  9 31  1  1  0  0  0
 10 29  1  6  0  0  0
 10 15  1  0  0  0  0
 11  9  1  0  0  0  0
 11  8  2  0  0  0  0
 12  7  1  0  0  0  0
 13 14  1  1  0  0  0
 14  9  1  0  0  0  0
 15 11  1  1  0  0  0
 16 12  1  6  0  0  0
 16 13  1  0  0  0  0
 16 15  1  0  0  0  0
 18 23  1  1  0  0  0
 18 21  1  0  0  0  0
 18 20  1  0  0  0  0
 20 19  1  6  0  0  0
 21 17  1  6  0  0  0
 21 20  1  0  0  0  0
 22 17  1  1  0  0  0
 22 19  1  0  0  0  0
 22 13  1  0  0  0  0
 23 24  1  1  0  0  0
 25 23  1  0  0  0  0
 26 28  1  0  0  0  0
 26 29  1  0  0  0  0
 29 27  2  0  0  0  0
 31 32  1  0  0  0  0
 31 30  1  0  0  0  0
 32 30  1  0  0  0  0
 34 33  1  0  0  0  0
 35 34  1  0  0  0  0
 36 35  1  0  0  0  0
 37 36  1  0  0  0  0
 39 38  2  6  0  0  0
 39 41  1  0  0  0  0
 39 37  1  0  0  0  0
 40 39  1  0  0  0  0
 41 42  1  0  0  0  0
 42 43  1  0  0  0  0
 43 49  1  6  0  0  0
 43 53  1  0  0  0  0
 44 47  1  0  0  0  0
 45 51  2  0  0  0  0
 47 46  1  6  0  0  0
 47 45  1  0  0  0  0
 48 52  1  6  0  0  0
 48 43  1  0  0  0  0
 50 54  1  1  0  0  0
 50 48  1  0  0  0  0
 50 44  1  0  0  0  0
 53 45  1  0  0  0  0
 54 55  1  0  0  0  0
M  END
>  <MODEL>
5

>  <REMARK>
 VINA RESULT:      -5.4      1.531      2.643
  Name = 
  15 active torsions:
  status: ('A' for Active; 'I' for Inactive)
    1  A    between atoms: C_1  and  C_21
    2  A    between atoms: C_2  and  C_44
    3  A    between atoms: O_8  and  P_20
    4  A    between atoms: O_8  and  C_43
    5  A    between atoms: C_10  and  C_32
    6  A    between atoms: C_11  and  C_38
    7  A    between atoms: C_16  and  C_17
    8  A    between atoms: C_19  and  C_40
    9  A    between atoms: P_20  and  C_42
   10  A    between atoms: C_21  and  C_42
   11  A    between atoms: C_27  and  C_54
   12  A    between atoms: N_33  and  C_52
   13  A    between atoms: C_35  and  C_43
   14  A    between atoms: C_35  and  C_51
   15  A    between atoms: C_51  and  C_54
                            x       y       z     vdW  Elec       q    Type
                         _______ _______ _______ _____ _____    ______ ____

>  <TORSDO>
F 15

$$$$
=
 OpenBabel11052419453D

 55 61  0  0  1  0  0  0  0  0999 V2000
  188.6300  173.1110  141.4630 C   0  0  0  0  0  3  0  0  0  0  0  0
  187.6360  175.7330  141.6340 C   0  0  0  0  0  0  0  0  0  0  0  0
  188.6460  175.4150  140.7090 C   0  0  0  0  0  3  0  0  0  0  0  0
  187.6280  173.4200  142.3870 C   0  0  0  0  0  3  0  0  0  0  0  0
  189.1520  174.1110  140.6240 C   0  0  0  0  0  0  0  0  0  0  0  0
  187.1330  174.7290  142.4730 C   0  0  0  0  0  3  0  0  0  0  0  0
  190.2090  173.7950  139.6250 C   0  0  2  0  0  3  0  0  0  0  0  0
  189.3170  170.1290  137.9900 C   0  0  0  0  0  2  0  0  0  0  0  0
  191.7420  169.6730  138.3750 C   0  0  2  0  0  3  0  0  0  0  0  0
  189.6560  172.9360  138.5090 C   0  0  2  0  0  3  0  0  0  0  0  0
  190.5590  170.5940  138.0680 C   0  0  0  0  0  0  0  0  0  0  0  0
  191.2720  173.0920  140.2160 O   0  0  0  0  0  0  0  0  0  0  0  0
  192.6240  171.2500  139.6720 N   0  0  2  0  0  0  0  0  0  0  0  0
  192.9010  170.4470  138.6050 O   0  0  0  0  0  0  0  0  0  0  0  0
  190.8390  172.0800  138.1060 C   0  0  2  0  0  3  0  0  0  0  0  0
  191.9110  172.4360  139.1610 C   0  0  1  0  0  3  0  0  0  0  0  0
  193.9710  171.6440  141.7120 C   0  0  0  0  0  2  0  0  0  0  0  0
  195.8990  173.2460  141.6930 C   0  0  2  0  0  3  0  0  0  0  0  0
  194.2220  173.1530  139.8170 C   0  0  0  0  0  2  0  0  0  0  0  0
  194.6840  173.9060  141.0530 C   0  0  1  0  0  3  0  0  0  0  0  0
  194.5020  172.9690  142.2390 C   0  0  1  0  0  3  0  0  0  0  0  0
  193.9220  171.7050  140.1920 C   0  0  2  0  0  3  0  0  0  0  0  0
  196.6900  174.2610  142.5210 C   0  0  2  0  0  3  0  0  0  0  0  0
  197.7050  174.9440  141.6280 C   0  0  0  0  0  1  0  0  0  0  0  0
  197.3350  173.7050  143.6330 O   0  0  0  0  0  1  0  0  0  0  0  0
  187.9940  174.5890  137.5130 N   0  0  0  0  0  2  0  0  0  0  0  0
  189.7460  173.6880  136.2480 O   0  0  0  0  0  0  0  0  0  0  0  0
  187.5060  175.4420  136.4410 C   0  0  0  0  0  1  0  0  0  0  0  0
  189.1530  173.7590  137.3640 C   0  0  0  0  0  0  0  0  0  0  0  0
  191.6960  168.9060  135.8880 C   0  0  0  0  0  2  0  0  0  0  0  0
  192.0690  168.5790  137.3340 C   0  0  0  0  0  3  0  0  0  0  0  0
  193.1280  169.0770  136.3580 C   0  0  0  0  0  2  0  0  0  0  0  0
  187.1480  177.1500  141.6880 C   0  0  0  0  0  2  0  0  0  0  0  0
  185.6340  177.3150  141.8880 C   0  0  0  0  0  2  0  0  0  0  0  0
  185.3350  178.5690  142.7030 C   0  0  0  0  0  2  0  0  0  0  0  0
  184.8670  178.2010  144.0990 C   0  0  0  0  0  2  0  0  0  0  0  0
  185.5190  177.0370  144.5030 O   0  0  0  0  0  0  0  0  0  0  0  0
  186.0560  178.8470  146.5510 O   0  0  0  0  0  0  0  0  0  0  0  0
  186.6010  177.4640  145.7370 P   0  0  1  0  0  0  0  0  0  0  0  0
  186.7920  176.3510  146.7530 O   0  0  0  0  0  1  0  0  0  0  0  0
  188.2210  177.7890  144.9680 C   0  0  0  0  0  2  0  0  0  0  0  0
  189.1320  176.5880  145.1440 C   0  0  0  0  0  2  0  0  0  0  0  0
  190.3070  176.7310  146.1300 C   0  0  2  0  0  0  0  0  0  0  0  0
  191.9860  174.2880  144.5670 C   0  0  0  0  0  2  0  0  0  0  0  0
  192.3560  176.7940  144.6490 C   0  0  0  0  0  0  0  0  0  0  0  0
  190.9220  175.8090  142.9840 O   0  0  0  0  0  1  0  0  0  0  0  0
  192.0540  175.6030  143.7860 C   0  0  2  0  0  3  0  0  0  0  0  0
  190.7710  175.3520  146.6450 C   0  0  2  0  0  3  0  0  0  0  0  0
  189.9200  177.5000  147.2380 O   0  0  0  0  0  1  0  0  0  0  0  0
  190.8640  174.2430  145.5970 C   0  0  1  0  0  3  0  0  0  0  0  0
  193.5510  177.1690  144.7330 O   0  0  0  0  0  0  0  0  0  0  0  0
  190.0150  174.9220  147.7380 O   0  0  0  0  0  1  0  0  0  0  0  0
  191.4020  177.4010  145.4980 O   0  0  0  0  0  0  0  0  0  0  0  0
  189.6900  173.2920  145.3930 C   0  0  0  0  0  2  0  0  0  0  0  0
  190.0550  172.2120  144.5850 O   0  0  0  0  0  1  0  0  0  0  0  0
  1  4  1  0  0  0  0
  2 33  1  0  0  0  0
  2  6  1  0  0  0  0
  3  2  2  0  0  0  0
  4  6  2  0  0  0  0
  5  3  1  0  0  0  0
  5  1  2  0  0  0  0
  7 12  1  0  0  0  0
  7  5  1  1  0  0  0
  8 11  2  0  0  0  0
  9 31  1  6  0  0  0
  9 14  1  0  0  0  0
 10 29  1  6  0  0  0
 10  7  1  0  0  0  0
 11  9  1  0  0  0  0
 13 14  1  6  0  0  0
 13 22  1  0  0  0  0
 15 11  1  1  0  0  0
 15 10  1  0  0  0  0
 15 16  1  0  0  0  0
 16 13  1  0  0  0  0
 16 12  1  1  0  0  0
 18 21  1  0  0  0  0
 18 23  1  1  0  0  0
 20 19  1  6  0  0  0
 20 18  1  0  0  0  0
 20 21  1  0  0  0  0
 21 17  1  6  0  0  0
 22 19  1  1  0  0  0
 22 17  1  0  0  0  0
 23 24  1  6  0  0  0
 23 25  1  0  0  0  0
 27 29  2  0  0  0  0
 28 26  1  0  0  0  0
 29 26  1  0  0  0  0
 30 32  1  0  0  0  0
 30 31  1  0  0  0  0
 32 31  1  0  0  0  0
 33 34  1  0  0  0  0
 34 35  1  0  0  0  0
 35 36  1  0  0  0  0
 36 37  1  0  0  0  0
 37 39  1  0  0  0  0
 39 38  2  1  0  0  0
 39 40  1  0  0  0  0
 41 42  1  0  0  0  0
 41 39  1  0  0  0  0
 42 43  1  0  0  0  0
 43 48  1  0  0  0  0
 43 49  1  1  0  0  0
 44 50  1  0  0  0  0
 45 51  2  0  0  0  0
 45 53  1  0  0  0  0
 47 46  1  1  0  0  0
 47 44  1  0  0  0  0
 47 45  1  0  0  0  0
 48 52  1  1  0  0  0
 50 54  1  6  0  0  0
 50 48  1  0  0  0  0
 53 43  1  0  0  0  0
 55 54  1  0  0  0  0
M  END
>  <MODEL>
6

>  <REMARK>
 VINA RESULT:      -5.4      3.024      9.674
  Name = 
  15 active torsions:
  status: ('A' for Active; 'I' for Inactive)
    1  A    between atoms: C_1  and  C_21
    2  A    between atoms: C_2  and  C_44
    3  A    between atoms: O_8  and  P_20
    4  A    between atoms: O_8  and  C_43
    5  A    between atoms: C_10  and  C_32
    6  A    between atoms: C_11  and  C_38
    7  A    between atoms: C_16  and  C_17
    8  A    between atoms: C_19  and  C_40
    9  A    between atoms: P_20  and  C_42
   10  A    between atoms: C_21  and  C_42
   11  A    between atoms: C_27  and  C_54
   12  A    between atoms: N_33  and  C_52
   13  A    between atoms: C_35  and  C_43
   14  A    between atoms: C_35  and  C_51
   15  A    between atoms: C_51  and  C_54
                            x       y       z     vdW  Elec       q    Type
                         _______ _______ _______ _____ _____    ______ ____

>  <TORSDO>
F 15

$$$$
=
 OpenBabel11052419453D

 55 61  0  0  1  0  0  0  0  0999 V2000
  188.8810  172.9510  141.4510 C   0  0  0  0  0  3  0  0  0  0  0  0
  187.7650  175.5250  141.6050 C   0  0  0  0  0  0  0  0  0  0  0  0
  188.7400  175.2310  140.6350 C   0  0  0  0  0  3  0  0  0  0  0  0
  187.9130  173.2390  142.4190 C   0  0  0  0  0  3  0  0  0  0  0  0
  189.3060  173.9510  140.5590 C   0  0  0  0  0  0  0  0  0  0  0  0
  187.3580  174.5230  142.4960 C   0  0  0  0  0  3  0  0  0  0  0  0
  190.3240  173.6580  139.5140 C   0  0  2  0  0  3  0  0  0  0  0  0
  189.4460  169.9690  137.9230 C   0  0  0  0  0  2  0  0  0  0  0  0
  191.8950  169.5710  138.1990 C   0  0  2  0  0  3  0  0  0  0  0  0
  189.7420  172.7840  138.4240 C   0  0  2  0  0  3  0  0  0  0  0  0
  190.6780  170.4630  137.9450 C   0  0  0  0  0  0  0  0  0  0  0  0
  191.4290  172.9810  140.0560 O   0  0  0  0  0  0  0  0  0  0  0  0
  192.7980  171.1700  139.4530 N   0  0  2  0  0  0  0  0  0  0  0  0
  193.0450  170.3720  138.3750 O   0  0  0  0  0  0  0  0  0  0  0  0
  190.9260  171.9550  137.9690 C   0  0  2  0  0  3  0  0  0  0  0  0
  192.0350  172.3380  138.9750 C   0  0  1  0  0  3  0  0  0  0  0  0
  194.2210  171.6120  141.4310 C   0  0  0  0  0  2  0  0  0  0  0  0
  196.1140  173.2510  141.3160 C   0  0  2  0  0  3  0  0  0  0  0  0
  194.3610  173.1050  139.5130 C   0  0  0  0  0  2  0  0  0  0  0  0
  194.8590  173.8800  140.7220 C   0  0  1  0  0  3  0  0  0  0  0  0
  194.7460  172.9520  141.9230 C   0  0  1  0  0  3  0  0  0  0  0  0
  194.1070  171.6550  139.9140 C   0  0  2  0  0  3  0  0  0  0  0  0
  196.9180  174.2900  142.1010 C   0  0  2  0  0  3  0  0  0  0  0  0
  197.5060  175.2950  141.1320 C   0  0  0  0  0  1  0  0  0  0  0  0
  197.9360  173.7400  142.8900 O   0  0  0  0  0  1  0  0  0  0  0  0
  189.9180  173.8050  136.0970 N   0  0  0  0  0  2  0  0  0  0  0  0
  188.0270  174.1200  137.4430 O   0  0  0  0  0  0  0  0  0  0  0  0
  189.3760  174.5410  134.9660 C   0  0  0  0  0  1  0  0  0  0  0  0
  189.1690  173.5940  137.3020 C   0  0  0  0  0  0  0  0  0  0  0  0
  192.2380  168.9570  135.6920 C   0  0  0  0  0  2  0  0  0  0  0  0
  192.2000  168.4830  137.1440 C   0  0  0  0  0  3  0  0  0  0  0  0
  193.5320  168.7680  136.4600 C   0  0  0  0  0  2  0  0  0  0  0  0
  187.2090  176.9180  141.6460 C   0  0  0  0  0  2  0  0  0  0  0  0
  187.8190  177.8370  142.7150 C   0  0  0  0  0  2  0  0  0  0  0  0
  186.8360  178.0550  143.8600 C   0  0  0  0  0  2  0  0  0  0  0  0
  187.3120  177.3480  145.1150 C   0  0  0  0  0  2  0  0  0  0  0  0
  188.6280  176.9260  144.9270 O   0  0  0  0  0  0  0  0  0  0  0  0
  190.1770  176.9970  147.2400 O   0  0  0  0  0  1  0  0  0  0  0  0
  189.0930  176.0760  146.3180 P   0  0  1  0  0  0  0  0  0  0  0  0
  187.9090  175.7050  147.1950 O   0  0  0  0  0  0  0  0  0  0  0  0
  189.8870  174.5260  145.7830 C   0  0  0  0  0  2  0  0  0  0  0  0
  191.3970  174.6570  145.8690 C   0  0  0  0  0  2  0  0  0  0  0  0
  192.2300  173.9680  144.7720 C   0  0  2  0  0  0  0  0  0  0  0  0
  194.3890  176.5300  144.7250 C   0  0  0  0  0  2  0  0  0  0  0  0
  194.6140  174.1580  145.5900 C   0  0  0  0  0  0  0  0  0  0  0  0
  193.7660  175.9150  147.0020 O   0  0  0  0  0  1  0  0  0  0  0  0
  194.6250  175.6200  145.9330 C   0  0  2  0  0  3  0  0  0  0  0  0
  192.5820  174.9540  143.6390 C   0  0  2  0  0  3  0  0  0  0  0  0
  191.5070  172.9040  144.2110 O   0  0  0  0  0  1  0  0  0  0  0  0
  193.0210  176.3510  144.0800 C   0  0  1  0  0  3  0  0  0  0  0  0
  195.7170  173.5990  145.3750 O   0  0  0  0  0  0  0  0  0  0  0  0
  191.5610  175.0460  142.6900 O   0  0  0  0  0  1  0  0  0  0  0  0
  193.4320  173.4290  145.3300 O   0  0  0  0  0  0  0  0  0  0  0  0
  191.9970  177.4780  144.1590 C   0  0  0  0  0  2  0  0  0  0  0  0
  191.6270  177.9110  142.8830 O   0  0  0  0  0  1  0  0  0  0  0  0
  1  4  1  0  0  0  0
  2 33  1  0  0  0  0
  2  6  1  0  0  0  0
  3  2  2  0  0  0  0
  4  6  2  0  0  0  0
  5  3  1  0  0  0  0
  5  1  2  0  0  0  0
  7 12  1  0  0  0  0
  7  5  1  1  0  0  0
  8 11  2  0  0  0  0
  9 31  1  6  0  0  0
  9 14  1  0  0  0  0
 10 29  1  6  0  0  0
 10  7  1  0  0  0  0
 11  9  1  0  0  0  0
 13 14  1  6  0  0  0
 13 22  1  0  0  0  0
 15 11  1  1  0  0  0
 15 10  1  0  0  0  0
 15 16  1  0  0  0  0
 16 13  1  0  0  0  0
 16 12  1  1  0  0  0
 18 21  1  0  0  0  0
 18 23  1  1  0  0  0
 20 19  1  6  0  0  0
 20 18  1  0  0  0  0
 20 21  1  0  0  0  0
 21 17  1  6  0  0  0
 22 19  1  1  0  0  0
 22 17  1  0  0  0  0
 23 24  1  6  0  0  0
 23 25  1  0  0  0  0
 26 29  1  0  0  0  0
 28 26  1  0  0  0  0
 29 27  2  0  0  0  0
 30 32  1  0  0  0  0
 30 31  1  0  0  0  0
 32 31  1  0  0  0  0
 33 34  1  0  0  0  0
 34 35  1  0  0  0  0
 35 36  1  0  0  0  0
 37 36  1  0  0  0  0
 37 39  1  0  0  0  0
 39 40  2  1  0  0  0
 39 38  1  0  0  0  0
 41 42  1  0  0  0  0
 41 39  1  0  0  0  0
 43 49  1  6  0  0  0
 43 53  1  0  0  0  0
 43 42  1  0  0  0  0
 44 47  1  0  0  0  0
 45 47  1  0  0  0  0
 47 46  1  1  0  0  0
 48 52  1  6  0  0  0
 48 50  1  0  0  0  0
 48 43  1  0  0  0  0
 50 54  1  1  0  0  0
 50 44  1  0  0  0  0
 51 45  2  0  0  0  0
 53 45  1  0  0  0  0
 55 54  1  0  0  0  0
M  END
>  <MODEL>
7

>  <REMARK>
 VINA RESULT:      -5.4      2.880      9.353
  Name = 
  15 active torsions:
  status: ('A' for Active; 'I' for Inactive)
    1  A    between atoms: C_1  and  C_21
    2  A    between atoms: C_2  and  C_44
    3  A    between atoms: O_8  and  P_20
    4  A    between atoms: O_8  and  C_43
    5  A    between atoms: C_10  and  C_32
    6  A    between atoms: C_11  and  C_38
    7  A    between atoms: C_16  and  C_17
    8  A    between atoms: C_19  and  C_40
    9  A    between atoms: P_20  and  C_42
   10  A    between atoms: C_21  and  C_42
   11  A    between atoms: C_27  and  C_54
   12  A    between atoms: N_33  and  C_52
   13  A    between atoms: C_35  and  C_43
   14  A    between atoms: C_35  and  C_51
   15  A    between atoms: C_51  and  C_54
                            x       y       z     vdW  Elec       q    Type
                         _______ _______ _______ _____ _____    ______ ____

>  <TORSDO>
F 15

$$$$
=
 OpenBabel11052419453D

 55 61  0  0  1  0  0  0  0  0999 V2000
  188.3010  177.0570  144.7150 C   0  0  0  0  0  3  0  0  0  0  0  0
  190.1590  176.8760  146.8140 C   0  0  0  0  0  0  0  0  0  0  0  0
  190.5520  176.5990  145.4930 C   0  0  0  0  0  3  0  0  0  0  0  0
  187.9040  177.3320  146.0280 C   0  0  0  0  0  3  0  0  0  0  0  0
  189.6270  176.6800  144.4420 C   0  0  0  0  0  0  0  0  0  0  0  0
  188.8310  177.2390  147.0750 C   0  0  0  0  0  3  0  0  0  0  0  0
  190.0690  176.3980  143.0500 C   0  0  2  0  0  3  0  0  0  0  0  0
  187.8740  173.2050  141.6720 C   0  0  0  0  0  2  0  0  0  0  0  0
  190.0900  172.3750  140.8770 C   0  0  2  0  0  3  0  0  0  0  0  0
  188.9360  175.8170  142.2320 C   0  0  2  0  0  3  0  0  0  0  0  0
  189.0920  173.4820  141.2220 C   0  0  0  0  0  0  0  0  0  0  0  0
  191.1250  175.4720  143.0300 O   0  0  0  0  0  0  0  0  0  0  0  0
  191.7300  173.5830  141.7700 N   0  0  2  0  0  0  0  0  0  0  0  0
  191.3600  172.9400  140.6260 O   0  0  0  0  0  0  0  0  0  0  0  0
  189.6420  174.8910  141.2620 C   0  0  2  0  0  3  0  0  0  0  0  0
  191.1100  174.9220  141.7460 C   0  0  1  0  0  3  0  0  0  0  0  0
  193.5640  175.2440  141.6690 C   0  0  0  0  0  2  0  0  0  0  0  0
  195.7970  174.6400  140.7050 C   0  0  2  0  0  3  0  0  0  0  0  0
  193.7740  173.1690  140.4130 C   0  0  0  0  0  2  0  0  0  0  0  0
  194.6950  174.1850  139.7570 C   0  0  1  0  0  3  0  0  0  0  0  0
  194.5410  175.4880  140.5290 C   0  0  1  0  0  3  0  0  0  0  0  0
  193.1860  173.7700  141.6850 C   0  0  2  0  0  3  0  0  0  0  0  0
  197.0030  175.1600  139.9200 C   0  0  2  0  0  3  0  0  0  0  0  0
  197.6740  173.9990  139.2160 C   0  0  0  0  0  1  0  0  0  0  0  0
  197.9400  175.8430  140.7070 O   0  0  0  0  0  1  0  0  0  0  0  0
  187.0310  176.5340  140.7010 N   0  0  0  0  0  2  0  0  0  0  0  0
  188.5310  178.0840  141.6130 O   0  0  0  0  0  0  0  0  0  0  0  0
  186.2200  177.5410  140.0340 C   0  0  0  0  0  1  0  0  0  0  0  0
  188.1590  176.8790  141.5170 C   0  0  0  0  0  0  0  0  0  0  0  0
  189.5740  172.1050  138.3390 C   0  0  0  0  0  2  0  0  0  0  0  0
  189.7200  171.4360  139.7060 C   0  0  0  0  0  3  0  0  0  0  0  0
  190.8580  171.3790  138.6940 C   0  0  0  0  0  2  0  0  0  0  0  0
  191.1910  176.7560  147.8970 C   0  0  0  0  0  2  0  0  0  0  0  0
  192.6510  176.7810  147.4190 C   0  0  0  0  0  2  0  0  0  0  0  0
  193.0640  175.4110  146.8890 C   0  0  0  0  0  2  0  0  0  0  0  0
  194.0750  175.5550  145.7660 C   0  0  0  0  0  2  0  0  0  0  0  0
  194.3100  174.3010  145.2040 O   0  0  0  0  0  0  0  0  0  0  0  0
  196.5610  175.6620  144.2890 O   0  0  0  0  0  0  0  0  0  0  0  0
  195.9720  174.1890  144.8880 P   0  0  1  0  0  0  0  0  0  0  0  0
  196.7750  173.8170  146.1230 O   0  0  0  0  0  1  0  0  0  0  0  0
  196.2170  172.8700  143.6560 C   0  0  0  0  0  2  0  0  0  0  0  0
  195.7610  171.5370  144.2210 C   0  0  0  0  0  2  0  0  0  0  0  0
  195.7650  170.3270  143.2690 C   0  0  2  0  0  0  0  0  0  0  0  0
  193.0680  169.0490  144.7930 C   0  0  0  0  0  2  0  0  0  0  0  0
  193.3610  170.1220  142.5150 C   0  0  0  0  0  0  0  0  0  0  0  0
  192.8600  171.4570  144.4550 O   0  0  0  0  0  1  0  0  0  0  0  0
  192.6900  170.2000  143.8560 C   0  0  2  0  0  3  0  0  0  0  0  0
  195.5920  169.0060  144.0470 C   0  0  2  0  0  3  0  0  0  0  0  0
  196.9810  170.2630  142.5710 O   0  0  0  0  0  1  0  0  0  0  0  0
  194.5460  169.0190  145.1620 C   0  0  1  0  0  3  0  0  0  0  0  0
  192.7260  169.5880  141.5720 O   0  0  0  0  0  0  0  0  0  0  0  0
  196.8090  168.5220  144.5330 O   0  0  0  0  0  1  0  0  0  0  0  0
  194.7170  170.4560  142.3030 O   0  0  0  0  0  0  0  0  0  0  0  0
  194.9700  169.3080  146.5970 C   0  0  0  0  0  2  0  0  0  0  0  0
  194.6530  168.2400  147.4400 O   0  0  0  0  0  1  0  0  0  0  0  0
  1  4  1  0  0  0  0
  2  6  1  0  0  0  0
  2 33  1  0  0  0  0
  3  2  2  0  0  0  0
  4  6  2  0  0  0  0
  5  1  2  0  0  0  0
  5  3  1  0  0  0  0
  7  5  1  1  0  0  0
  9 31  1  6  0  0  0
  9 11  1  0  0  0  0
 10 29  1  6  0  0  0
 10  7  1  0  0  0  0
 11  8  2  0  0  0  0
 12  7  1  0  0  0  0
 13 14  1  6  0  0  0
 14  9  1  0  0  0  0
 15 11  1  1  0  0  0
 15 16  1  0  0  0  0
 15 10  1  0  0  0  0
 16 13  1  0  0  0  0
 16 12  1  1  0  0  0
 17 22  1  0  0  0  0
 18 23  1  6  0  0  0
 20 19  1  1  0  0  0
 20 21  1  0  0  0  0
 20 18  1  0  0  0  0
 21 18  1  0  0  0  0
 21 17  1  1  0  0  0
 22 19  1  6  0  0  0
 22 13  1  0  0  0  0
 23 24  1  1  0  0  0
 23 25  1  0  0  0  0
 26 29  1  0  0  0  0
 28 26  1  0  0  0  0
 29 27  2  0  0  0  0
 30 32  1  0  0  0  0
 30 31  1  0  0  0  0
 32 31  1  0  0  0  0
 34 33  1  0  0  0  0
 35 34  1  0  0  0  0
 36 35  1  0  0  0  0
 37 36  1  0  0  0  0
 39 38  2  6  0  0  0
 39 37  1  0  0  0  0
 39 40  1  0  0  0  0
 41 42  1  0  0  0  0
 41 39  1  0  0  0  0
 43 49  1  6  0  0  0
 43 48  1  0  0  0  0
 43 42  1  0  0  0  0
 44 50  1  0  0  0  0
 45 47  1  0  0  0  0
 47 46  1  1  0  0  0
 47 44  1  0  0  0  0
 48 52  1  1  0  0  0
 48 50  1  0  0  0  0
 50 54  1  1  0  0  0
 51 45  2  0  0  0  0
 53 45  1  0  0  0  0
 53 43  1  0  0  0  0
 54 55  1  0  0  0  0
M  END
>  <MODEL>
8

>  <REMARK>
 VINA RESULT:      -5.4      2.782      7.701
  Name = 
  15 active torsions:
  status: ('A' for Active; 'I' for Inactive)
    1  A    between atoms: C_1  and  C_21
    2  A    between atoms: C_2  and  C_44
    3  A    between atoms: O_8  and  P_20
    4  A    between atoms: O_8  and  C_43
    5  A    between atoms: C_10  and  C_32
    6  A    between atoms: C_11  and  C_38
    7  A    between atoms: C_16  and  C_17
    8  A    between atoms: C_19  and  C_40
    9  A    between atoms: P_20  and  C_42
   10  A    between atoms: C_21  and  C_42
   11  A    between atoms: C_27  and  C_54
   12  A    between atoms: N_33  and  C_52
   13  A    between atoms: C_35  and  C_43
   14  A    between atoms: C_35  and  C_51
   15  A    between atoms: C_51  and  C_54
                            x       y       z     vdW  Elec       q    Type
                         _______ _______ _______ _____ _____    ______ ____

>  <TORSDO>
F 15

$$$$
=
 OpenBabel11052419453D

 55 61  0  0  1  0  0  0  0  0999 V2000
  187.0790  176.4750  147.2610 C   0  0  0  0  0  3  0  0  0  0  0  0
  186.2570  176.8310  144.5980 C   0  0  0  0  0  0  0  0  0  0  0  0
  187.5760  176.4390  144.8880 C   0  0  0  0  0  3  0  0  0  0  0  0
  185.7660  176.8670  146.9800 C   0  0  0  0  0  3  0  0  0  0  0  0
  187.9940  176.2680  146.2150 C   0  0  0  0  0  0  0  0  0  0  0  0
  185.3570  177.0460  145.6510 C   0  0  0  0  0  3  0  0  0  0  0  0
  189.3900  175.8370  146.4960 C   0  0  2  0  0  3  0  0  0  0  0  0
  191.8970  178.2300  144.2830 C   0  0  0  0  0  2  0  0  0  0  0  0
  193.0090  176.0690  143.7110 C   0  0  2  0  0  3  0  0  0  0  0  0
  190.3480  177.0010  146.3700 C   0  0  2  0  0  3  0  0  0  0  0  0
  192.2220  176.9940  144.6420 C   0  0  0  0  0  0  0  0  0  0  0  0
  189.8070  174.8440  145.5940 O   0  0  0  0  0  0  0  0  0  0  0  0
  191.7380  174.3580  144.3470 N   0  0  2  0  0  0  0  0  0  0  0  0
  193.0360  174.7630  144.2490 O   0  0  0  0  0  0  0  0  0  0  0  0
  191.6260  176.3530  145.8750 C   0  0  2  0  0  3  0  0  0  0  0  0
  191.2030  174.8890  145.6150 C   0  0  1  0  0  3  0  0  0  0  0  0
  192.9770  172.4170  145.2580 C   0  0  0  0  0  2  0  0  0  0  0  0
  192.7170  170.1360  144.2540 C   0  0  2  0  0  3  0  0  0  0  0  0
  191.8680  172.2080  143.1010 C   0  0  0  0  0  2  0  0  0  0  0  0
  192.9620  171.1540  143.1460 C   0  0  1  0  0  3  0  0  0  0  0  0
  193.6690  171.3050  144.4860 C   0  0  1  0  0  3  0  0  0  0  0  0
  191.7710  172.8930  144.4600 C   0  0  2  0  0  3  0  0  0  0  0  0
  193.4300  168.8190  143.9410 C   0  0  2  0  0  3  0  0  0  0  0  0
  194.5310  168.5980  144.9570 C   0  0  0  0  0  1  0  0  0  0  0  0
  193.9610  168.7560  142.6460 O   0  0  0  0  0  1  0  0  0  0  0  0
  191.5350  177.2330  148.6110 N   0  0  0  0  0  2  0  0  0  0  0  0
  189.8270  178.6980  147.9620 O   0  0  0  0  0  0  0  0  0  0  0  0
  191.8000  177.9180  149.8670 C   0  0  0  0  0  1  0  0  0  0  0  0
  190.5540  177.7030  147.6760 C   0  0  0  0  0  0  0  0  0  0  0  0
  195.5440  175.9900  144.2970 C   0  0  0  0  0  2  0  0  0  0  0  0
  194.4510  176.4930  143.3540 C   0  0  0  0  0  3  0  0  0  0  0  0
  195.2860  175.2720  142.9860 C   0  0  0  0  0  2  0  0  0  0  0  0
  185.8740  177.0130  143.1590 C   0  0  0  0  0  2  0  0  0  0  0  0
  186.6940  178.0600  142.3890 C   0  0  0  0  0  2  0  0  0  0  0  0
  187.7810  177.3850  141.5590 C   0  0  0  0  0  2  0  0  0  0  0  0
  187.3790  175.9650  141.2050 C   0  0  0  0  0  2  0  0  0  0  0  0
  188.2220  175.4920  140.2000 O   0  0  0  0  0  0  0  0  0  0  0  0
  188.9900  173.9430  142.3830 O   0  0  0  0  0  1  0  0  0  0  0  0
  188.8090  173.9810  140.6980 P   0  0  1  0  0  0  0  0  0  0  0  0
  187.8950  172.8390  140.2860 O   0  0  0  0  0  0  0  0  0  0  0  0
  190.4190  173.7160  139.8890 C   0  0  0  0  0  2  0  0  0  0  0  0
  190.6770  172.2300  139.7160 C   0  0  0  0  0  2  0  0  0  0  0  0
  190.6560  171.6720  138.2800 C   0  0  2  0  0  0  0  0  0  0  0  0
  192.8930  169.3170  139.1050 C   0  0  0  0  0  2  0  0  0  0  0  0
  190.4150  169.1740  138.5880 C   0  0  0  0  0  0  0  0  0  0  0  0
  191.1890  169.5890  140.8310 O   0  0  0  0  0  1  0  0  0  0  0  0
  191.4920  168.9620  139.6130 C   0  0  2  0  0  3  0  0  0  0  0  0
  192.0880  171.4290  137.7570 C   0  0  2  0  0  3  0  0  0  0  0  0
  190.0280  172.5810  137.4160 O   0  0  0  0  0  1  0  0  0  0  0  0
  193.0610  170.7880  138.7470 C   0  0  1  0  0  3  0  0  0  0  0  0
  190.0540  168.1850  137.9040 O   0  0  0  0  0  0  0  0  0  0  0  0
  192.6470  172.5870  137.2110 O   0  0  0  0  0  1  0  0  0  0  0  0
  189.9150  170.4490  138.2370 O   0  0  0  0  0  0  0  0  0  0  0  0
  193.9790  171.6680  139.5870 C   0  0  0  0  0  2  0  0  0  0  0  0
  195.2490  171.0970  139.7080 O   0  0  0  0  0  1  0  0  0  0  0  0
  2  3  2  0  0  0  0
  2  6  1  0  0  0  0
  3  5  1  0  0  0  0
  4  1  1  0  0  0  0
  5  1  2  0  0  0  0
  6  4  2  0  0  0  0
  7  5  1  6  0  0  0
  8 11  2  0  0  0  0
  9 31  1  1  0  0  0
  9 14  1  0  0  0  0
  9 11  1  0  0  0  0
 10  7  1  0  0  0  0
 10 29  1  1  0  0  0
 12  7  1  0  0  0  0
 13 14  1  1  0  0  0
 13 22  1  0  0  0  0
 13 16  1  0  0  0  0
 15 11  1  6  0  0  0
 15 10  1  0  0  0  0
 16 12  1  6  0  0  0
 16 15  1  0  0  0  0
 18 23  1  6  0  0  0
 18 21  1  0  0  0  0
 20 19  1  1  0  0  0
 20 18  1  0  0  0  0
 20 21  1  0  0  0  0
 21 17  1  1  0  0  0
 22 19  1  6  0  0  0
 22 17  1  0  0  0  0
 23 24  1  1  0  0  0
 25 23  1  0  0  0  0
 26 28  1  0  0  0  0
 29 27  2  0  0  0  0
 29 26  1  0  0  0  0
 31 30  1  0  0  0  0
 32 31  1  0  0  0  0
 32 30  1  0  0  0  0
 33  2  1  0  0  0  0
 34 33  1  0  0  0  0
 35 34  1  0  0  0  0
 36 35  1  0  0  0  0
 37 39  1  0  0  0  0
 37 36  1  0  0  0  0
 39 40  2  6  0  0  0
 39 38  1  0  0  0  0
 41 39  1  0  0  0  0
 42 41  1  0  0  0  0
 43 49  1  6  0  0  0
 43 42  1  0  0  0  0
 44 47  1  0  0  0  0
 45 47  1  0  0  0  0
 47 46  1  1  0  0  0
 48 52  1  1  0  0  0
 48 43  1  0  0  0  0
 48 50  1  0  0  0  0
 50 44  1  0  0  0  0
 50 54  1  1  0  0  0
 51 45  2  0  0  0  0
 53 43  1  0  0  0  0
 53 45  1  0  0  0  0
 54 55  1  0  0  0  0
M  END
>  <MODEL>
9

>  <REMARK>
 VINA RESULT:      -5.4      2.457      7.382
  Name = 
  15 active torsions:
  status: ('A' for Active; 'I' for Inactive)
    1  A    between atoms: C_1  and  C_21
    2  A    between atoms: C_2  and  C_44
    3  A    between atoms: O_8  and  P_20
    4  A    between atoms: O_8  and  C_43
    5  A    between atoms: C_10  and  C_32
    6  A    between atoms: C_11  and  C_38
    7  A    between atoms: C_16  and  C_17
    8  A    between atoms: C_19  and  C_40
    9  A    between atoms: P_20  and  C_42
   10  A    between atoms: C_21  and  C_42
   11  A    between atoms: C_27  and  C_54
   12  A    between atoms: N_33  and  C_52
   13  A    between atoms: C_35  and  C_43
   14  A    between atoms: C_35  and  C_51
   15  A    between atoms: C_51  and  C_54
                            x       y       z     vdW  Elec       q    Type
                         _______ _______ _______ _____ _____    ______ ____

>  <TORSDO>
F 15

$$$$
