=
 OpenBabel11052418113D

 28 31  0  0  1  0  0  0  0  0999 V2000
  192.0410  175.2260  143.8120 N   0  0  0  0  0  0  0  0  0  0  0  0
  192.2380  175.8870  145.0790 C   0  0  0  0  0  0  0  0  0  0  0  0
  191.4050  176.7320  145.5030 O   0  0  0  0  0  0  0  0  0  0  0  0
  189.7140  174.7780  143.1800 C   0  0  1  0  0  3  0  0  0  0  0  0
  190.7300  177.0950  142.8080 C   0  0  0  0  0  1  0  0  0  0  0  0
  191.2560  172.7010  144.2280 S   0  0  0  0  0  0  0  0  0  0  0  0
  190.0050  173.2820  143.0260 C   0  0  0  0  0  2  0  0  0  0  0  0
  192.5420  173.8670  143.6640 C   0  0  0  0  0  2  0  0  0  0  0  0
  190.9770  175.5910  142.8730 C   0  0  1  0  0  3  0  0  0  0  0  0
  188.6030  174.7670  140.9110 C   0  0  0  0  0  1  0  0  0  0  0  0
  188.5970  175.1670  142.3160 N   0  0  0  0  0  0  0  0  0  0  0  0
  186.6380  176.8150  147.1740 C   0  0  0  0  0  1  0  0  0  0  0  0
  185.4350  177.5220  143.8370 C   0  0  0  0  0  0  0  0  0  0  0  0
  187.3730  176.1390  144.2370 C   0  0  0  0  0  3  0  0  0  0  0  0
  184.8800  178.0200  145.8170 C   0  0  0  0  0  0  0  0  0  0  0  0
  186.3160  176.9250  144.6900 C   0  0  0  0  0  0  0  0  0  0  0  0
  186.5940  176.5940  141.9640 C   0  0  0  0  0  3  0  0  0  0  0  0
  184.5120  178.2230  144.5250 N   0  0  0  0  0  0  0  0  0  0  0  0
  185.5380  177.3820  142.4570 C   0  0  0  0  0  3  0  0  0  0  0  0
  184.1410  178.6110  146.9680 C   0  0  0  0  0  1  0  0  0  0  0  0
  185.9760  177.2330  145.9470 N   0  0  0  0  0  0  0  0  0  0  0  0
  187.5190  175.9670  142.8410 C   0  0  0  0  0  0  0  0  0  0  0  0
  193.4440  175.5920  145.9110 C   0  0  0  0  0  2  0  0  0  0  0  0
  195.3610  176.3520  144.4540 N   0  0  0  0  0  0  0  0  0  0  0  0
  194.7400  177.5410  146.3520 O   0  0  0  0  0  0  0  0  0  0  0  0
  194.5340  176.5580  145.5950 C   0  0  0  0  0  0  0  0  0  0  0  0
  196.4860  176.7280  143.5520 C   0  0  0  0  0  2  0  0  0  0  0  0
  195.7750  175.5900  143.2410 C   0  0  0  0  0  2  0  0  0  0  0  0
  1  2  1  0  0  0  0
  2  3  2  0  0  0  0
  2 23  1  0  0  0  0
  4 11  1  6  0  0  0
  7  4  1  0  0  0  0
  7  6  1  0  0  0  0
  8  1  1  0  0  0  0
  8  6  1  0  0  0  0
  9  5  1  1  0  0  0
  9  4  1  0  0  0  0
  9  1  1  0  0  0  0
 10 11  1  0  0  0  0
 11 22  1  0  0  0  0
 13 18  1  0  0  0  0
 13 16  1  0  0  0  0
 14 16  2  0  0  0  0
 15 21  1  0  0  0  0
 15 20  1  0  0  0  0
 16 21  1  0  0  0  0
 17 19  1  0  0  0  0
 17 22  2  0  0  0  0
 18 15  2  0  0  0  0
 19 13  2  0  0  0  0
 21 12  1  0  0  0  0
 22 14  1  0  0  0  0
 24 26  1  0  0  0  0
 26 23  1  0  0  0  0
 26 25  2  0  0  0  0
 27 24  1  0  0  0  0
 28 27  1  0  0  0  0
 28 24  1  0  0  0  0
M  END
>  <MODEL>
1

>  <REMARK>
 VINA RESULT:      -7.2      0.000      0.000
  Name = 
  4 active torsions:
  status: ('A' for Active; 'I' for Inactive)
    1  A    between atoms: C_2  and  C_3
    2  A    between atoms: C_3  and  C_11
    3  A    between atoms: C_16  and  N_20
    4  A    between atoms: N_20  and  C_25
                            x       y       z     vdW  Elec       q    Type
                         _______ _______ _______ _____ _____    ______ ____

>  <TORSDO>
F 4

$$$$
=
 OpenBabel11052418113D

 28 31  0  0  1  0  0  0  0  0999 V2000
  187.4830  176.2200  143.6990 N   0  0  0  0  0  0  0  0  0  0  0  0
  187.6010  177.6560  143.7860 C   0  0  0  0  0  0  0  0  0  0  0  0
  188.5770  178.1900  144.3760 O   0  0  0  0  0  0  0  0  0  0  0  0
  189.5900  174.9740  143.5330 C   0  0  1  0  0  3  0  0  0  0  0  0
  188.7450  175.7850  145.8060 C   0  0  0  0  0  1  0  0  0  0  0  0
  188.0920  175.4160  141.2200 S   0  0  0  0  0  0  0  0  0  0  0  0
  189.1340  174.3050  142.2330 C   0  0  0  0  0  2  0  0  0  0  0  0
  186.8370  175.6560  142.5230 C   0  0  0  0  0  2  0  0  0  0  0  0
  188.3740  175.2980  144.4090 C   0  0  1  0  0  3  0  0  0  0  0  0
  190.1140  172.8160  144.7360 C   0  0  0  0  0  1  0  0  0  0  0  0
  190.5490  174.1170  144.2340 N   0  0  0  0  0  0  0  0  0  0  0  0
  194.7160  176.2870  141.3910 C   0  0  0  0  0  1  0  0  0  0  0  0
  194.5040  175.4470  144.9030 C   0  0  0  0  0  0  0  0  0  0  0  0
  192.6630  175.0870  143.3830 C   0  0  0  0  0  3  0  0  0  0  0  0
  195.9480  176.2710  143.5960 C   0  0  0  0  0  0  0  0  0  0  0  0
  193.9600  175.5130  143.6530 C   0  0  0  0  0  0  0  0  0  0  0  0
  192.4770  174.5070  145.7510 C   0  0  0  0  0  3  0  0  0  0  0  0
  195.7650  175.9210  144.8960 N   0  0  0  0  0  0  0  0  0  0  0  0
  193.7920  174.9480  145.9880 C   0  0  0  0  0  3  0  0  0  0  0  0
  197.2220  176.8580  143.0910 C   0  0  0  0  0  1  0  0  0  0  0  0
  194.8650  176.0340  142.8160 N   0  0  0  0  0  0  0  0  0  0  0  0
  191.8990  174.5700  144.4550 C   0  0  0  0  0  0  0  0  0  0  0  0
  186.5580  178.5410  143.1840 C   0  0  0  0  0  2  0  0  0  0  0  0
  185.2560  178.4360  145.3440 N   0  0  0  0  0  0  0  0  0  0  0  0
  185.5250  180.4360  144.1920 O   0  0  0  0  0  0  0  0  0  0  0  0
  185.7660  179.2030  144.2590 C   0  0  0  0  0  0  0  0  0  0  0  0
  184.4930  178.2910  146.6160 C   0  0  0  0  0  2  0  0  0  0  0  0
  185.0670  177.1560  146.0850 C   0  0  0  0  0  2  0  0  0  0  0  0
  1  2  1  0  0  0  0
  1  9  1  0  0  0  0
  2  3  2  0  0  0  0
  4 11  1  1  0  0  0
  4  9  1  0  0  0  0
  6  7  1  0  0  0  0
  6  8  1  0  0  0  0
  7  4  1  0  0  0  0
  8  1  1  0  0  0  0
  9  5  1  1  0  0  0
 11 22  1  0  0  0  0
 11 10  1  0  0  0  0
 12 21  1  0  0  0  0
 13 19  1  0  0  0  0
 14 16  1  0  0  0  0
 14 22  2  0  0  0  0
 15 18  2  0  0  0  0
 16 13  2  0  0  0  0
 17 19  2  0  0  0  0
 18 13  1  0  0  0  0
 20 15  1  0  0  0  0
 21 15  1  0  0  0  0
 21 16  1  0  0  0  0
 22 17  1  0  0  0  0
 23  2  1  0  0  0  0
 23 26  1  0  0  0  0
 24 28  1  0  0  0  0
 24 27  1  0  0  0  0
 25 26  2  0  0  0  0
 26 24  1  0  0  0  0
 28 27  1  0  0  0  0
M  END
>  <MODEL>
2

>  <REMARK>
 VINA RESULT:      -7.0      2.229      8.013
  Name = 
  4 active torsions:
  status: ('A' for Active; 'I' for Inactive)
    1  A    between atoms: C_2  and  C_3
    2  A    between atoms: C_3  and  C_11
    3  A    between atoms: C_16  and  N_20
    4  A    between atoms: N_20  and  C_25
                            x       y       z     vdW  Elec       q    Type
                         _______ _______ _______ _____ _____    ______ ____

>  <TORSDO>
F 4

$$$$
=
 OpenBabel11052418113D

 28 31  0  0  1  0  0  0  0  0999 V2000
  193.8930  174.7880  144.2180 N   0  0  0  0  0  0  0  0  0  0  0  0
  193.9950  173.8150  145.2780 C   0  0  0  0  0  0  0  0  0  0  0  0
  193.2930  173.9160  146.3190 O   0  0  0  0  0  0  0  0  0  0  0  0
  191.6710  175.7660  143.8640 C   0  0  1  0  0  3  0  0  0  0  0  0
  193.1920  176.6520  145.7200 C   0  0  0  0  0  1  0  0  0  0  0  0
  192.5440  173.7370  142.1590 S   0  0  0  0  0  0  0  0  0  0  0  0
  191.6700  175.3260  142.3970 C   0  0  0  0  0  2  0  0  0  0  0  0
  194.1210  174.3390  142.8520 C   0  0  0  0  0  2  0  0  0  0  0  0
  193.1080  176.0210  144.3330 C   0  0  1  0  0  3  0  0  0  0  0  0
  191.2190  178.2080  143.4040 C   0  0  0  0  0  1  0  0  0  0  0  0
  190.8280  176.9510  144.0380 N   0  0  0  0  0  0  0  0  0  0  0  0
  185.8640  179.2800  144.3460 C   0  0  0  0  0  1  0  0  0  0  0  0
  187.3560  176.7330  146.4370 C   0  0  0  0  0  0  0  0  0  0  0  0
  188.5300  177.7080  144.5660 C   0  0  0  0  0  3  0  0  0  0  0  0
  185.5160  177.7710  146.3420 C   0  0  0  0  0  0  0  0  0  0  0  0
  187.4090  177.5990  145.3840 C   0  0  0  0  0  0  0  0  0  0  0  0
  189.5740  175.9860  145.9530 C   0  0  0  0  0  3  0  0  0  0  0  0
  186.1670  176.8210  147.0630 N   0  0  0  0  0  0  0  0  0  0  0  0
  188.4240  175.9030  146.7590 C   0  0  0  0  0  3  0  0  0  0  0  0
  184.1300  178.2190  146.6630 C   0  0  0  0  0  1  0  0  0  0  0  0
  186.2480  178.2620  145.3130 N   0  0  0  0  0  0  0  0  0  0  0  0
  189.6420  176.8840  144.8540 C   0  0  0  0  0  0  0  0  0  0  0  0
  194.9500  172.6700  145.1680 C   0  0  0  0  0  2  0  0  0  0  0  0
  194.7770  170.2790  145.9600 N   0  0  0  0  0  0  0  0  0  0  0  0
  193.1030  171.2490  144.6730 O   0  0  0  0  0  0  0  0  0  0  0  0
  194.2130  171.3780  145.2520 C   0  0  0  0  0  0  0  0  0  0  0  0
  194.7540  168.8730  146.4540 C   0  0  0  0  0  2  0  0  0  0  0  0
  195.8510  169.6430  146.7760 C   0  0  0  0  0  2  0  0  0  0  0  0
  1  9  1  0  0  0  0
  1  2  1  0  0  0  0
  2  3  2  0  0  0  0
  4 11  1  6  0  0  0
  4  9  1  0  0  0  0
  6  7  1  0  0  0  0
  6  8  1  0  0  0  0
  7  4  1  0  0  0  0
  8  1  1  0  0  0  0
  9  5  1  1  0  0  0
 10 11  1  0  0  0  0
 11 22  1  0  0  0  0
 12 21  1  0  0  0  0
 13 19  1  0  0  0  0
 13 18  1  0  0  0  0
 14 22  2  0  0  0  0
 14 16  1  0  0  0  0
 15 20  1  0  0  0  0
 15 18  2  0  0  0  0
 16 13  2  0  0  0  0
 17 19  2  0  0  0  0
 21 16  1  0  0  0  0
 21 15  1  0  0  0  0
 22 17  1  0  0  0  0
 23 26  1  0  0  0  0
 23  2  1  0  0  0  0
 24 27  1  0  0  0  0
 24 28  1  0  0  0  0
 25 26  2  0  0  0  0
 26 24  1  0  0  0  0
 27 28  1  0  0  0  0
M  END
>  <MODEL>
3

>  <REMARK>
 VINA RESULT:      -6.8      2.932      4.040
  Name = 
  4 active torsions:
  status: ('A' for Active; 'I' for Inactive)
    1  A    between atoms: C_2  and  C_3
    2  A    between atoms: C_3  and  C_11
    3  A    between atoms: C_16  and  N_20
    4  A    between atoms: N_20  and  C_25
                            x       y       z     vdW  Elec       q    Type
                         _______ _______ _______ _____ _____    ______ ____

>  <TORSDO>
F 4

$$$$
=
 OpenBabel11052418113D

 28 31  0  0  1  0  0  0  0  0999 V2000
  191.5020  174.5840  144.6750 N   0  0  0  0  0  0  0  0  0  0  0  0
  191.1490  173.5060  143.7840 C   0  0  0  0  0  0  0  0  0  0  0  0
  189.9430  173.1940  143.5930 O   0  0  0  0  0  0  0  0  0  0  0  0
  189.9280  176.4630  144.7690 C   0  0  1  0  0  3  0  0  0  0  0  0
  189.4770  174.3330  146.1110 C   0  0  0  0  0  1  0  0  0  0  0  0
  192.2530  176.7200  143.2490 S   0  0  0  0  0  0  0  0  0  0  0  0
  191.0330  177.4560  144.3950 C   0  0  0  0  0  2  0  0  0  0  0  0
  192.6990  175.3560  144.3760 C   0  0  0  0  0  2  0  0  0  0  0  0
  190.5270  175.2730  145.5270 C   0  0  1  0  0  3  0  0  0  0  0  0
  189.1590  177.4960  146.9430 C   0  0  0  0  0  1  0  0  0  0  0  0
  188.8880  177.1350  145.5540 N   0  0  0  0  0  0  0  0  0  0  0  0
  186.6250  177.7010  140.5820 C   0  0  0  0  0  1  0  0  0  0  0  0
  185.1000  177.9210  143.8550 C   0  0  0  0  0  0  0  0  0  0  0  0
  187.4530  177.4690  143.5630 C   0  0  0  0  0  3  0  0  0  0  0  0
  184.4710  178.0920  141.8430 C   0  0  0  0  0  0  0  0  0  0  0  0
  186.1850  177.7290  143.0510 C   0  0  0  0  0  0  0  0  0  0  0  0
  186.4610  177.6070  145.7940 C   0  0  0  0  0  3  0  0  0  0  0  0
  183.9980  178.1540  143.1150 N   0  0  0  0  0  0  0  0  0  0  0  0
  185.1940  177.8680  145.2410 C   0  0  0  0  0  3  0  0  0  0  0  0
  183.6000  178.2900  140.6490 C   0  0  0  0  0  1  0  0  0  0  0  0
  185.7990  177.8340  141.7740 N   0  0  0  0  0  0  0  0  0  0  0  0
  187.5990  177.4050  144.9680 C   0  0  0  0  0  0  0  0  0  0  0  0
  192.2100  172.7270  143.0770 C   0  0  0  0  0  2  0  0  0  0  0  0
  193.6940  171.6340  144.8020 N   0  0  0  0  0  0  0  0  0  0  0  0
  191.9930  170.4520  143.7500 O   0  0  0  0  0  0  0  0  0  0  0  0
  192.6050  171.5420  143.8900 C   0  0  0  0  0  0  0  0  0  0  0  0
  194.6180  171.0580  145.8200 C   0  0  0  0  0  2  0  0  0  0  0  0
  194.7960  172.3800  145.4750 C   0  0  0  0  0  2  0  0  0  0  0  0
  1  9  1  0  0  0  0
  2  1  1  0  0  0  0
  3  2  2  0  0  0  0
  4  9  1  0  0  0  0
  4 11  1  1  0  0  0
  6  8  1  0  0  0  0
  6  7  1  0  0  0  0
  7  4  1  0  0  0  0
  8  1  1  0  0  0  0
  9  5  1  6  0  0  0
 11 10  1  0  0  0  0
 12 21  1  0  0  0  0
 13 19  1  0  0  0  0
 14 22  2  0  0  0  0
 15 18  2  0  0  0  0
 16 14  1  0  0  0  0
 16 13  2  0  0  0  0
 18 13  1  0  0  0  0
 19 17  2  0  0  0  0
 20 15  1  0  0  0  0
 21 15  1  0  0  0  0
 21 16  1  0  0  0  0
 22 11  1  0  0  0  0
 22 17  1  0  0  0  0
 23  2  1  0  0  0  0
 23 26  1  0  0  0  0
 24 28  1  0  0  0  0
 24 27  1  0  0  0  0
 25 26  2  0  0  0  0
 26 24  1  0  0  0  0
 28 27  1  0  0  0  0
M  END
>  <MODEL>
4

>  <REMARK>
 VINA RESULT:      -6.8      2.772      4.285
  Name = 
  4 active torsions:
  status: ('A' for Active; 'I' for Inactive)
    1  A    between atoms: C_2  and  C_3
    2  A    between atoms: C_3  and  C_11
    3  A    between atoms: C_16  and  N_20
    4  A    between atoms: N_20  and  C_25
                            x       y       z     vdW  Elec       q    Type
                         _______ _______ _______ _____ _____    ______ ____

>  <TORSDO>
F 4

$$$$
=
 OpenBabel11052418113D

 28 31  0  0  1  0  0  0  0  0999 V2000
  191.3850  174.1070  145.3540 N   0  0  0  0  0  0  0  0  0  0  0  0
  190.8540  173.0510  144.5270 C   0  0  0  0  0  0  0  0  0  0  0  0
  189.6160  172.9600  144.3110 O   0  0  0  0  0  0  0  0  0  0  0  0
  190.2010  176.2530  145.2550 C   0  0  1  0  0  3  0  0  0  0  0  0
  189.3150  174.3560  146.7220 C   0  0  0  0  0  1  0  0  0  0  0  0
  192.5710  175.9460  143.8130 S   0  0  0  0  0  0  0  0  0  0  0  0
  191.4860  176.9850  144.8560 C   0  0  0  0  0  2  0  0  0  0  0  0
  192.7160  174.6120  145.0490 C   0  0  0  0  0  2  0  0  0  0  0  0
  190.5410  175.0320  146.1160 C   0  0  1  0  0  3  0  0  0  0  0  0
  189.6940  177.7470  147.2280 C   0  0  0  0  0  1  0  0  0  0  0  0
  189.2920  177.1680  145.9490 N   0  0  0  0  0  0  0  0  0  0  0  0
  186.8870  177.5520  141.0260 C   0  0  0  0  0  1  0  0  0  0  0  0
  185.4880  178.0380  144.3260 C   0  0  0  0  0  0  0  0  0  0  0  0
  187.8060  177.4550  143.9880 C   0  0  0  0  0  3  0  0  0  0  0  0
  184.7990  178.1210  142.3280 C   0  0  0  0  0  0  0  0  0  0  0  0
  186.5340  177.7460  143.5010 C   0  0  0  0  0  0  0  0  0  0  0  0
  186.8990  177.7710  146.2370 C   0  0  0  0  0  3  0  0  0  0  0  0
  184.3730  178.2800  143.6090 N   0  0  0  0  0  0  0  0  0  0  0  0
  185.6270  178.0610  145.7090 C   0  0  0  0  0  3  0  0  0  0  0  0
  183.8980  178.2910  141.1520 C   0  0  0  0  0  1  0  0  0  0  0  0
  186.1110  177.7950  142.2330 N   0  0  0  0  0  0  0  0  0  0  0  0
  187.9970  177.4660  145.3880 C   0  0  0  0  0  0  0  0  0  0  0  0
  191.7630  172.0330  143.9180 C   0  0  0  0  0  2  0  0  0  0  0  0
  191.2090  172.4900  141.4980 N   0  0  0  0  0  0  0  0  0  0  0  0
  190.7640  170.4260  142.4710 O   0  0  0  0  0  0  0  0  0  0  0  0
  191.2270  171.5890  142.6010 C   0  0  0  0  0  0  0  0  0  0  0  0
  190.9000  172.8400  140.0830 C   0  0  0  0  0  2  0  0  0  0  0  0
  191.4790  173.8130  140.8670 C   0  0  0  0  0  2  0  0  0  0  0  0
  1  9  1  0  0  0  0
  2  1  1  0  0  0  0
  3  2  2  0  0  0  0
  4 11  1  1  0  0  0
  4  9  1  0  0  0  0
  6  7  1  0  0  0  0
  6  8  1  0  0  0  0
  7  4  1  0  0  0  0
  8  1  1  0  0  0  0
  9  5  1  6  0  0  0
 11 10  1  0  0  0  0
 12 21  1  0  0  0  0
 13 19  1  0  0  0  0
 14 22  2  0  0  0  0
 15 18  2  0  0  0  0
 16 14  1  0  0  0  0
 16 13  2  0  0  0  0
 18 13  1  0  0  0  0
 19 17  2  0  0  0  0
 20 15  1  0  0  0  0
 21 15  1  0  0  0  0
 21 16  1  0  0  0  0
 22 11  1  0  0  0  0
 22 17  1  0  0  0  0
 23  2  1  0  0  0  0
 24 26  1  0  0  0  0
 25 26  2  0  0  0  0
 26 23  1  0  0  0  0
 27 28  1  0  0  0  0
 27 24  1  0  0  0  0
 28 24  1  0  0  0  0
M  END
>  <MODEL>
5

>  <REMARK>
 VINA RESULT:      -6.7      2.846      4.604
  Name = 
  4 active torsions:
  status: ('A' for Active; 'I' for Inactive)
    1  A    between atoms: C_2  and  C_3
    2  A    between atoms: C_3  and  C_11
    3  A    between atoms: C_16  and  N_20
    4  A    between atoms: N_20  and  C_25
                            x       y       z     vdW  Elec       q    Type
                         _______ _______ _______ _____ _____    ______ ____

>  <TORSDO>
F 4

$$$$
=
 OpenBabel11052418113D

 28 31  0  0  1  0  0  0  0  0999 V2000
  191.4650  173.5390  143.3510 N   0  0  0  0  0  0  0  0  0  0  0  0
  190.5790  173.0520  142.3230 C   0  0  0  0  0  0  0  0  0  0  0  0
  189.3330  173.2170  142.4120 O   0  0  0  0  0  0  0  0  0  0  0  0
  190.7820  175.6130  144.4690 C   0  0  1  0  0  3  0  0  0  0  0  0
  189.7730  173.3720  145.1760 C   0  0  0  0  0  1  0  0  0  0  0  0
  192.7360  175.7280  142.4800 S   0  0  0  0  0  0  0  0  0  0  0  0
  192.1060  176.2900  144.1030 C   0  0  0  0  0  2  0  0  0  0  0  0
  192.8000  173.9680  142.9580 C   0  0  0  0  0  2  0  0  0  0  0  0
  190.9910  174.1020  144.6190 C   0  0  1  0  0  3  0  0  0  0  0  0
  191.0920  176.3710  146.8590 C   0  0  0  0  0  1  0  0  0  0  0  0
  190.2310  176.2060  145.6910 N   0  0  0  0  0  0  0  0  0  0  0  0
  186.4870  178.7070  142.5460 C   0  0  0  0  0  1  0  0  0  0  0  0
  186.1590  177.3210  145.8710 C   0  0  0  0  0  0  0  0  0  0  0  0
  188.2420  177.2560  144.6530 C   0  0  0  0  0  3  0  0  0  0  0  0
  184.9090  178.3070  144.4780 C   0  0  0  0  0  0  0  0  0  0  0  0
  186.8980  177.6020  144.7600 C   0  0  0  0  0  0  0  0  0  0  0  0
  188.0630  176.3050  146.8990 C   0  0  0  0  0  3  0  0  0  0  0  0
  184.8930  177.7570  145.7210 N   0  0  0  0  0  0  0  0  0  0  0  0
  186.7060  176.6690  146.9710 C   0  0  0  0  0  3  0  0  0  0  0  0
  183.7070  178.9330  143.8580 C   0  0  0  0  0  1  0  0  0  0  0  0
  186.1170  178.2260  143.8690 N   0  0  0  0  0  0  0  0  0  0  0  0
  188.8430  176.5920  145.7470 C   0  0  0  0  0  0  0  0  0  0  0  0
  191.1210  172.3290  141.1330 C   0  0  0  0  0  2  0  0  0  0  0  0
  189.7170  173.1880  139.2190 N   0  0  0  0  0  0  0  0  0  0  0  0
  191.9380  173.8250  139.4700 O   0  0  0  0  0  0  0  0  0  0  0  0
  190.9620  173.1640  139.9090 C   0  0  0  0  0  0  0  0  0  0  0  0
  188.8280  173.6420  138.1120 C   0  0  0  0  0  2  0  0  0  0  0  0
  188.2950  172.7770  139.0420 C   0  0  0  0  0  2  0  0  0  0  0  0
  1  9  1  0  0  0  0
  2  3  2  0  0  0  0
  2  1  1  0  0  0  0
  4  9  1  0  0  0  0
  4 11  1  1  0  0  0
  6  8  1  0  0  0  0
  6  7  1  0  0  0  0
  7  4  1  0  0  0  0
  8  1  1  0  0  0  0
  9  5  1  6  0  0  0
 11 22  1  0  0  0  0
 11 10  1  0  0  0  0
 12 21  1  0  0  0  0
 13 19  1  0  0  0  0
 14 16  1  0  0  0  0
 14 22  2  0  0  0  0
 15 18  2  0  0  0  0
 16 13  2  0  0  0  0
 17 19  2  0  0  0  0
 18 13  1  0  0  0  0
 20 15  1  0  0  0  0
 21 15  1  0  0  0  0
 21 16  1  0  0  0  0
 22 17  1  0  0  0  0
 23  2  1  0  0  0  0
 24 26  1  0  0  0  0
 25 26  2  0  0  0  0
 26 23  1  0  0  0  0
 27 28  1  0  0  0  0
 27 24  1  0  0  0  0
 28 24  1  0  0  0  0
M  END
>  <MODEL>
6

>  <REMARK>
 VINA RESULT:      -6.7      2.918      4.965
  Name = 
  4 active torsions:
  status: ('A' for Active; 'I' for Inactive)
    1  A    between atoms: C_2  and  C_3
    2  A    between atoms: C_3  and  C_11
    3  A    between atoms: C_16  and  N_20
    4  A    between atoms: N_20  and  C_25
                            x       y       z     vdW  Elec       q    Type
                         _______ _______ _______ _____ _____    ______ ____

>  <TORSDO>
F 4

$$$$
=
 OpenBabel11052418113D

 28 31  0  0  1  0  0  0  0  0999 V2000
  192.2870  174.1510  144.7340 N   0  0  0  0  0  0  0  0  0  0  0  0
  192.4050  174.2920  143.3030 C   0  0  0  0  0  0  0  0  0  0  0  0
  191.3840  174.4590  142.5840 O   0  0  0  0  0  0  0  0  0  0  0  0
  190.4800  175.4260  145.7970 C   0  0  1  0  0  3  0  0  0  0  0  0
  189.9860  173.1910  144.6560 C   0  0  0  0  0  1  0  0  0  0  0  0
  193.0880  176.4090  145.9290 S   0  0  0  0  0  0  0  0  0  0  0  0
  191.4720  176.1210  146.7340 C   0  0  0  0  0  2  0  0  0  0  0  0
  193.3770  174.6440  145.5630 C   0  0  0  0  0  2  0  0  0  0  0  0
  191.0000  174.0320  145.4260 C   0  0  1  0  0  3  0  0  0  0  0  0
  188.9730  174.5730  147.6360 C   0  0  0  0  0  1  0  0  0  0  0  0
  189.1550  175.3600  146.4190 N   0  0  0  0  0  0  0  0  0  0  0  0
  187.3680  176.7920  141.4280 C   0  0  0  0  0  1  0  0  0  0  0  0
  185.8640  177.3510  144.6700 C   0  0  0  0  0  0  0  0  0  0  0  0
  187.9710  176.2000  144.4130 C   0  0  0  0  0  3  0  0  0  0  0  0
  185.3950  177.7860  142.6540 C   0  0  0  0  0  0  0  0  0  0  0  0
  186.8660  176.8620  143.8840 C   0  0  0  0  0  0  0  0  0  0  0  0
  186.9870  176.5550  146.6240 C   0  0  0  0  0  3  0  0  0  0  0  0
  184.9170  177.9440  143.9160 N   0  0  0  0  0  0  0  0  0  0  0  0
  185.8850  177.2190  146.0540 C   0  0  0  0  0  3  0  0  0  0  0  0
  184.6750  178.2910  141.4500 C   0  0  0  0  0  1  0  0  0  0  0  0
  186.5800  177.1300  142.6040 N   0  0  0  0  0  0  0  0  0  0  0  0
  188.0370  176.0410  145.8160 C   0  0  0  0  0  0  0  0  0  0  0  0
  193.7440  174.2300  142.6420 C   0  0  0  0  0  2  0  0  0  0  0  0
  195.6350  175.8760  142.9270 N   0  0  0  0  0  0  0  0  0  0  0  0
  193.5990  176.5220  142.0130 O   0  0  0  0  0  0  0  0  0  0  0  0
  194.3070  175.6010  142.4940 C   0  0  0  0  0  0  0  0  0  0  0  0
  196.7940  176.7910  143.1380 C   0  0  0  0  0  2  0  0  0  0  0  0
  196.9420  175.4760  143.5220 C   0  0  0  0  0  2  0  0  0  0  0  0
  1  9  1  0  0  0  0
  1  8  1  0  0  0  0
  2  1  1  0  0  0  0
  3  2  2  0  0  0  0
  4 11  1  1  0  0  0
  4  7  1  0  0  0  0
  6  7  1  0  0  0  0
  8  6  1  0  0  0  0
  9  5  1  6  0  0  0
  9  4  1  0  0  0  0
 11 10  1  0  0  0  0
 12 21  1  0  0  0  0
 13 19  1  0  0  0  0
 14 22  2  0  0  0  0
 15 18  2  0  0  0  0
 16 14  1  0  0  0  0
 16 13  2  0  0  0  0
 18 13  1  0  0  0  0
 19 17  2  0  0  0  0
 20 15  1  0  0  0  0
 21 15  1  0  0  0  0
 21 16  1  0  0  0  0
 22 11  1  0  0  0  0
 22 17  1  0  0  0  0
 23  2  1  0  0  0  0
 24 27  1  0  0  0  0
 24 28  1  0  0  0  0
 25 26  2  0  0  0  0
 26 23  1  0  0  0  0
 26 24  1  0  0  0  0
 27 28  1  0  0  0  0
M  END
>  <MODEL>
7

>  <REMARK>
 VINA RESULT:      -6.6      2.125      3.540
  Name = 
  4 active torsions:
  status: ('A' for Active; 'I' for Inactive)
    1  A    between atoms: C_2  and  C_3
    2  A    between atoms: C_3  and  C_11
    3  A    between atoms: C_16  and  N_20
    4  A    between atoms: N_20  and  C_25
                            x       y       z     vdW  Elec       q    Type
                         _______ _______ _______ _____ _____    ______ ____

>  <TORSDO>
F 4

$$$$
=
 OpenBabel11052418113D

 28 31  0  0  1  0  0  0  0  0999 V2000
  193.3980  175.9710  142.9580 N   0  0  0  0  0  0  0  0  0  0  0  0
  194.0700  176.4200  144.1530 C   0  0  0  0  0  0  0  0  0  0  0  0
  193.4190  176.9020  145.1180 O   0  0  0  0  0  0  0  0  0  0  0  0
  191.1670  175.0020  143.2760 C   0  0  1  0  0  3  0  0  0  0  0  0
  191.4750  177.5400  143.2030 C   0  0  0  0  0  1  0  0  0  0  0  0
  193.3440  173.2950  142.9090 S   0  0  0  0  0  0  0  0  0  0  0  0
  191.5910  173.7040  142.5820 C   0  0  0  0  0  2  0  0  0  0  0  0
  193.9830  174.8600  142.2210 C   0  0  0  0  0  2  0  0  0  0  0  0
  191.9680  176.1820  142.7130 C   0  0  1  0  0  3  0  0  0  0  0  0
  189.1040  175.0080  141.8180 C   0  0  0  0  0  1  0  0  0  0  0  0
  189.7240  175.2090  143.1250 N   0  0  0  0  0  0  0  0  0  0  0  0
  185.1390  178.0600  144.1260 C   0  0  0  0  0  1  0  0  0  0  0  0
  187.4110  176.4520  146.4360 C   0  0  0  0  0  0  0  0  0  0  0  0
  187.7590  176.4000  144.0470 C   0  0  0  0  0  3  0  0  0  0  0  0
  185.6250  177.5790  146.5580 C   0  0  0  0  0  0  0  0  0  0  0  0
  187.0300  176.7850  145.1690 C   0  0  0  0  0  0  0  0  0  0  0  0
  189.3190  175.2980  145.5740 C   0  0  0  0  0  3  0  0  0  0  0  0
  186.5390  176.9430  147.3370 N   0  0  0  0  0  0  0  0  0  0  0  0
  188.5570  175.7040  146.6850 C   0  0  0  0  0  3  0  0  0  0  0  0
  184.4420  178.2910  147.1200 C   0  0  0  0  0  1  0  0  0  0  0  0
  185.8990  177.4990  145.2330 N   0  0  0  0  0  0  0  0  0  0  0  0
  188.9320  175.6380  144.2500 C   0  0  0  0  0  0  0  0  0  0  0  0
  195.5580  176.3340  144.2660 C   0  0  0  0  0  2  0  0  0  0  0  0
  196.8090  174.1490  144.4310 N   0  0  0  0  0  0  0  0  0  0  0  0
  195.4860  174.9180  146.1790 O   0  0  0  0  0  0  0  0  0  0  0  0
  195.9450  175.1120  145.0240 C   0  0  0  0  0  0  0  0  0  0  0  0
  197.5680  172.8650  144.4470 C   0  0  0  0  0  2  0  0  0  0  0  0
  197.6520  173.6400  143.3110 C   0  0  0  0  0  2  0  0  0  0  0  0
  1  2  1  0  0  0  0
  2 23  1  0  0  0  0
  2  3  2  0  0  0  0
  4 11  1  6  0  0  0
  7  6  1  0  0  0  0
  7  4  1  0  0  0  0
  8  6  1  0  0  0  0
  8  1  1  0  0  0  0
  9  1  1  0  0  0  0
  9  5  1  1  0  0  0
  9  4  1  0  0  0  0
 10 11  1  0  0  0  0
 11 22  1  0  0  0  0
 12 21  1  0  0  0  0
 13 19  1  0  0  0  0
 13 18  1  0  0  0  0
 14 22  2  0  0  0  0
 14 16  1  0  0  0  0
 15 20  1  0  0  0  0
 15 18  2  0  0  0  0
 16 21  1  0  0  0  0
 16 13  2  0  0  0  0
 17 19  2  0  0  0  0
 21 15  1  0  0  0  0
 22 17  1  0  0  0  0
 23 26  1  0  0  0  0
 24 27  1  0  0  0  0
 24 26  1  0  0  0  0
 26 25  2  0  0  0  0
 28 24  1  0  0  0  0
 28 27  1  0  0  0  0
M  END
>  <MODEL>
8

>  <REMARK>
 VINA RESULT:      -6.6      1.774      2.552
  Name = 
  4 active torsions:
  status: ('A' for Active; 'I' for Inactive)
    1  A    between atoms: C_2  and  C_3
    2  A    between atoms: C_3  and  C_11
    3  A    between atoms: C_16  and  N_20
    4  A    between atoms: N_20  and  C_25
                            x       y       z     vdW  Elec       q    Type
                         _______ _______ _______ _____ _____    ______ ____

>  <TORSDO>
F 4

$$$$
=
 OpenBabel11052418113D

 28 31  0  0  1  0  0  0  0  0999 V2000
  193.4990  174.2570  143.7050 N   0  0  0  0  0  0  0  0  0  0  0  0
  193.6790  173.3190  144.7860 C   0  0  0  0  0  0  0  0  0  0  0  0
  193.1570  173.5260  145.9140 O   0  0  0  0  0  0  0  0  0  0  0  0
  191.3440  175.4260  143.6380 C   0  0  1  0  0  3  0  0  0  0  0  0
  193.2030  176.2340  145.1960 C   0  0  0  0  0  1  0  0  0  0  0  0
  191.7630  173.2600  141.9290 S   0  0  0  0  0  0  0  0  0  0  0  0
  191.0780  174.9320  142.2130 C   0  0  0  0  0  2  0  0  0  0  0  0
  193.4740  173.7380  142.3450 C   0  0  0  0  0  2  0  0  0  0  0  0
  192.8520  175.5620  143.8730 C   0  0  1  0  0  3  0  0  0  0  0  0
  191.1630  177.9200  143.2800 C   0  0  0  0  0  1  0  0  0  0  0  0
  190.6440  176.6910  143.8750 N   0  0  0  0  0  0  0  0  0  0  0  0
  185.7880  179.2430  144.1220 C   0  0  0  0  0  1  0  0  0  0  0  0
  187.2150  176.7710  146.3430 C   0  0  0  0  0  0  0  0  0  0  0  0
  188.3900  177.5760  144.3940 C   0  0  0  0  0  3  0  0  0  0  0  0
  185.4170  177.8790  146.2150 C   0  0  0  0  0  0  0  0  0  0  0  0
  187.2820  177.5660  145.2370 C   0  0  0  0  0  0  0  0  0  0  0  0
  189.3900  175.9020  145.8690 C   0  0  0  0  0  3  0  0  0  0  0  0
  186.0430  176.9490  146.9840 N   0  0  0  0  0  0  0  0  0  0  0  0
  188.2540  175.9180  146.6990 C   0  0  0  0  0  3  0  0  0  0  0  0
  184.0590  178.4040  146.5310 C   0  0  0  0  0  1  0  0  0  0  0  0
  186.1490  178.2730  145.1440 N   0  0  0  0  0  0  0  0  0  0  0  0
  189.4720  176.7250  144.7140 C   0  0  0  0  0  0  0  0  0  0  0  0
  194.5020  172.0860  144.5940 C   0  0  0  0  0  2  0  0  0  0  0  0
  196.6790  173.3570  144.7140 N   0  0  0  0  0  0  0  0  0  0  0  0
  196.3000  171.4820  146.0330 O   0  0  0  0  0  0  0  0  0  0  0  0
  195.8620  172.2830  145.1680 C   0  0  0  0  0  0  0  0  0  0  0  0
  197.9400  174.1520  144.7190 C   0  0  0  0  0  2  0  0  0  0  0  0
  196.9370  174.5540  143.8640 C   0  0  0  0  0  2  0  0  0  0  0  0
  1  9  1  0  0  0  0
  1  2  1  0  0  0  0
  2  3  2  0  0  0  0
  4  9  1  0  0  0  0
  4 11  1  6  0  0  0
  6  7  1  0  0  0  0
  6  8  1  0  0  0  0
  7  4  1  0  0  0  0
  8  1  1  0  0  0  0
  9  5  1  1  0  0  0
 10 11  1  0  0  0  0
 11 22  1  0  0  0  0
 12 21  1  0  0  0  0
 13 19  1  0  0  0  0
 13 18  1  0  0  0  0
 14 22  2  0  0  0  0
 14 16  1  0  0  0  0
 15 20  1  0  0  0  0
 15 18  2  0  0  0  0
 16 13  2  0  0  0  0
 17 19  2  0  0  0  0
 21 16  1  0  0  0  0
 21 15  1  0  0  0  0
 22 17  1  0  0  0  0
 23  2  1  0  0  0  0
 23 26  1  0  0  0  0
 24 27  1  0  0  0  0
 24 26  1  0  0  0  0
 26 25  2  0  0  0  0
 28 24  1  0  0  0  0
 28 27  1  0  0  0  0
M  END
>  <MODEL>
9

>  <REMARK>
 VINA RESULT:      -6.6      2.314      3.220
  Name = 
  4 active torsions:
  status: ('A' for Active; 'I' for Inactive)
    1  A    between atoms: C_2  and  C_3
    2  A    between atoms: C_3  and  C_11
    3  A    between atoms: C_16  and  N_20
    4  A    between atoms: N_20  and  C_25
                            x       y       z     vdW  Elec       q    Type
                         _______ _______ _______ _____ _____    ______ ____

>  <TORSDO>
F 4

$$$$
