=
 OpenBabel11052417233D

 30 33  0  0  1  0  0  0  0  0999 V2000
  187.5790  175.7940  141.9330 C   0  0  0  0  0  0  0  0  0  0  0  0
  185.8370  177.4520  141.8530 C   0  0  0  0  0  3  0  0  0  0  0  0
  186.2770  178.3790  145.9960 N   0  0  0  0  0  2  0  0  0  0  0  0
  189.3430  177.9310  144.4250 C   0  0  0  0  0  1  0  0  0  0  0  0
  187.2550  174.4290  142.2210 N   0  0  0  0  0  2  0  0  0  0  0  0
  190.4590  173.4790  142.6080 C   0  0  2  0  0  3  0  0  0  0  0  0
  189.4670  173.3620  141.4310 C   0  0  0  0  0  2  0  0  0  0  0  0
  187.4780  172.1410  141.9000 O   0  0  0  0  0  0  0  0  0  0  0  0
  189.2910  176.2100  147.0620 C   0  0  2  0  0  3  0  0  0  0  0  0
  187.2670  177.7420  146.8050 C   0  0  0  0  0  0  0  0  0  0  0  0
  188.0150  173.2760  141.8310 C   0  0  0  0  0  0  0  0  0  0  0  0
  189.6570  174.0600  144.5050 C   0  0  2  0  0  3  0  0  0  0  0  0
  185.0050  178.5680  142.4140 C   0  0  0  0  0  2  0  0  0  0  0  0
  189.6200  174.7150  146.9970 C   0  0  0  0  0  2  0  0  0  0  0  0
  190.0000  172.7320  143.8570 C   0  0  0  0  0  2  0  0  0  0  0  0
  188.4740  176.0840  141.0960 O   0  0  0  0  0  0  0  0  0  0  0  0
  186.1170  178.0380  144.6090 C   0  0  0  0  0  0  0  0  0  0  0  0
  184.9850  178.5350  143.8740 N   0  0  0  0  0  0  0  0  0  0  0  0
  190.2640  174.7990  143.3270 C   0  0  0  0  0  2  0  0  0  0  0  0
  186.8020  176.8660  142.5670 C   0  0  0  0  0  0  0  0  0  0  0  0
  188.2990  176.8550  144.6980 C   0  0  1  0  0  3  0  0  0  0  0  0
  187.3980  178.0750  148.0130 O   0  0  0  0  0  0  0  0  0  0  0  0
  188.0680  176.6200  146.2100 C   0  0  1  0  0  3  0  0  0  0  0  0
  191.6150  174.2440  145.8320 O   0  0  0  0  0  0  0  0  0  0  0  0
  183.9220  179.2500  144.5610 C   0  0  0  0  0  1  0  0  0  0  0  0
  187.0170  177.2410  143.9910 C   0  0  0  0  0  0  0  0  0  0  0  0
  190.3980  174.3250  145.7780 C   0  0  0  0  0  0  0  0  0  0  0  0
  190.4170  177.0110  146.8430 O   0  0  0  0  0  0  0  0  0  0  0  0
  191.1760  176.8940  148.0080 C   0  0  0  0  0  2  0  0  0  0  0  0
  190.9170  178.0890  148.9000 C   0  0  0  0  0  1  0  0  0  0  0  0
  1  5  1  0  0  0  0
  1 20  1  0  0  0  0
  2 13  1  0  0  0  0
  2 20  2  0  0  0  0
  3 10  1  0  0  0  0
  6  7  1  6  0  0  0
  6 19  1  0  0  0  0
  6 15  1  0  0  0  0
  7 11  1  0  0  0  0
  9 28  1  6  0  0  0
 10 22  2  0  0  0  0
 11  8  2  0  0  0  0
 11  5  1  0  0  0  0
 12 19  1  6  0  0  0
 12 27  1  0  0  0  0
 13 18  1  0  0  0  0
 14  9  1  0  0  0  0
 15 12  1  0  0  0  0
 16  1  2  0  0  0  0
 17  3  1  0  0  0  0
 18 25  1  0  0  0  0
 18 17  1  0  0  0  0
 20 26  1  0  0  0  0
 21  4  1  1  0  0  0
 21 23  1  0  0  0  0
 23 10  1  1  0  0  0
 23  9  1  0  0  0  0
 26 17  2  0  0  0  0
 26 21  1  0  0  0  0
 27 24  2  0  0  0  0
 27 14  1  0  0  0  0
 28 29  1  0  0  0  0
 29 30  1  0  0  0  0
M  END
>  <MODEL>
1

>  <REMARK>
 VINA RESULT:      -7.9      0.000      0.000
  Name = 
  2 active torsions:
  status: ('A' for Active; 'I' for Inactive)
    1  A    between atoms: C_7  and  O_26
    2  A    between atoms: C_10  and  O_26
                            x       y       z     vdW  Elec       q    Type
                         _______ _______ _______ _____ _____    ______ ____

>  <TORSDO>
F 2

$$$$
=
 OpenBabel11052417233D

 30 33  0  0  1  0  0  0  0  0999 V2000
  187.8080  176.1090  142.5860 C   0  0  0  0  0  0  0  0  0  0  0  0
  186.3520  177.5690  143.8260 C   0  0  0  0  0  3  0  0  0  0  0  0
  188.9660  177.6090  147.2000 N   0  0  0  0  0  2  0  0  0  0  0  0
  190.7050  177.8100  144.1990 C   0  0  0  0  0  1  0  0  0  0  0  0
  187.6390  174.6890  142.6690 N   0  0  0  0  0  2  0  0  0  0  0  0
  190.5190  173.9900  141.0790 C   0  0  2  0  0  3  0  0  0  0  0  0
  189.0490  174.0370  140.6110 C   0  0  0  0  0  2  0  0  0  0  0  0
  187.5730  172.5580  141.7510 O   0  0  0  0  0  0  0  0  0  0  0  0
  192.0040  175.5590  145.9770 C   0  0  2  0  0  3  0  0  0  0  0  0
  190.2110  176.9090  147.1910 C   0  0  0  0  0  0  0  0  0  0  0  0
  188.0320  173.7280  141.6800 C   0  0  0  0  0  0  0  0  0  0  0  0
  190.8740  174.0640  143.1880 C   0  0  2  0  0  3  0  0  0  0  0  0
  185.9880  178.4500  144.9840 C   0  0  0  0  0  2  0  0  0  0  0  0
  192.1940  174.1530  145.3990 C   0  0  0  0  0  2  0  0  0  0  0  0
  190.7700  172.9480  142.1650 C   0  0  0  0  0  2  0  0  0  0  0  0
  188.1290  176.6590  141.4990 O   0  0  0  0  0  0  0  0  0  0  0  0
  188.0790  177.5640  146.0700 C   0  0  0  0  0  0  0  0  0  0  0  0
  186.7490  178.0990  146.1810 N   0  0  0  0  0  0  0  0  0  0  0  0
  190.7850  175.0960  142.0800 C   0  0  0  0  0  2  0  0  0  0  0  0
  187.5280  176.9370  143.7640 C   0  0  0  0  0  0  0  0  0  0  0  0
  189.9290  176.6050  144.7170 C   0  0  1  0  0  3  0  0  0  0  0  0
  190.9790  176.9820  148.1880 O   0  0  0  0  0  0  0  0  0  0  0  0
  190.5310  176.0260  146.0200 C   0  0  1  0  0  3  0  0  0  0  0  0
  193.2430  174.1420  143.2870 O   0  0  0  0  0  0  0  0  0  0  0  0
  186.2410  178.5410  147.4700 C   0  0  0  0  0  1  0  0  0  0  0  0
  188.4820  177.0120  144.9040 C   0  0  0  0  0  0  0  0  0  0  0  0
  192.1870  174.1150  143.9020 C   0  0  0  0  0  0  0  0  0  0  0  0
  192.8690  176.4930  145.3950 O   0  0  0  0  0  0  0  0  0  0  0  0
  193.9580  176.5680  146.2640 C   0  0  0  0  0  2  0  0  0  0  0  0
  194.8650  177.7020  145.8370 C   0  0  0  0  0  1  0  0  0  0  0  0
  1  5  1  0  0  0  0
  1 20  1  0  0  0  0
  2 13  1  0  0  0  0
  6  7  1  1  0  0  0
  6 19  1  0  0  0  0
  6 15  1  0  0  0  0
  7 11  1  0  0  0  0
  9 28  1  6  0  0  0
  9 23  1  0  0  0  0
 10  3  1  0  0  0  0
 10 22  2  0  0  0  0
 11  8  2  0  0  0  0
 11  5  1  0  0  0  0
 12 19  1  6  0  0  0
 12 27  1  0  0  0  0
 13 18  1  0  0  0  0
 14  9  1  0  0  0  0
 15 12  1  0  0  0  0
 16  1  2  0  0  0  0
 17 18  1  0  0  0  0
 17  3  1  0  0  0  0
 18 25  1  0  0  0  0
 20  2  2  0  0  0  0
 20 26  1  0  0  0  0
 21  4  1  1  0  0  0
 21 26  1  0  0  0  0
 21 23  1  0  0  0  0
 23 10  1  1  0  0  0
 24 27  2  0  0  0  0
 26 17  2  0  0  0  0
 27 14  1  0  0  0  0
 28 29  1  0  0  0  0
 30 29  1  0  0  0  0
M  END
>  <MODEL>
2

>  <REMARK>
 VINA RESULT:      -7.8      1.737      2.471
  Name = 
  2 active torsions:
  status: ('A' for Active; 'I' for Inactive)
    1  A    between atoms: C_7  and  O_26
    2  A    between atoms: C_10  and  O_26
                            x       y       z     vdW  Elec       q    Type
                         _______ _______ _______ _____ _____    ______ ____

>  <TORSDO>
F 2

$$$$
=
 OpenBabel11052417233D

 30 33  0  0  1  0  0  0  0  0999 V2000
  192.7780  174.7360  142.9850 C   0  0  0  0  0  0  0  0  0  0  0  0
  192.1860  174.0150  140.7680 C   0  0  0  0  0  3  0  0  0  0  0  0
  188.0410  174.7940  141.4240 N   0  0  0  0  0  0  0  0  0  0  0  0
  190.0650  177.2800  142.7620 C   0  0  0  0  0  1  0  0  0  0  0  0
  192.8230  173.7880  144.0580 N   0  0  0  0  0  2  0  0  0  0  0  0
  193.1270  176.1260  146.4580 C   0  0  2  0  0  3  0  0  0  0  0  0
  194.1510  175.2170  145.7450 C   0  0  0  0  0  2  0  0  0  0  0  0
  193.7650  172.8800  145.9750 O   0  0  0  0  0  0  0  0  0  0  0  0
  187.9950  176.3660  144.9530 C   0  0  2  0  0  3  0  0  0  0  0  0
  187.5680  175.3410  142.6560 C   0  0  0  0  0  0  0  0  0  0  0  0
  193.6000  173.9000  145.2590 C   0  0  0  0  0  0  0  0  0  0  0  0
  191.0550  175.6810  146.1610 C   0  0  2  0  0  3  0  0  0  0  0  0
  191.2450  173.8200  139.6150 C   0  0  0  0  0  2  0  0  0  0  0  0
  188.4970  175.9310  146.3330 C   0  0  0  0  0  2  0  0  0  0  0  0
  192.0710  175.3470  147.2360 C   0  0  0  0  0  2  0  0  0  0  0  0
  193.6200  175.6710  142.9130 O   0  0  0  0  0  0  0  0  0  0  0  0
  189.4350  174.5070  141.2240 C   0  0  0  0  0  0  0  0  0  0  0  0
  189.8560  173.7670  140.0650 N   0  0  0  0  0  0  0  0  0  0  0  0
  192.0650  176.5850  145.4790 C   0  0  0  0  0  2  0  0  0  0  0  0
  191.7870  174.5670  141.9170 C   0  0  0  0  0  0  0  0  0  0  0  0
  189.9520  175.8420  143.2540 C   0  0  1  0  0  3  0  0  0  0  0  0
  186.3430  175.6010  142.7960 O   0  0  0  0  0  0  0  0  0  0  0  0
  188.5380  175.5070  143.7890 C   0  0  1  0  0  3  0  0  0  0  0  0
  189.9970  177.4650  147.3110 O   0  0  0  0  0  0  0  0  0  0  0  0
  188.8710  173.1740  139.1760 C   0  0  0  0  0  1  0  0  0  0  0  0
  190.3550  174.9180  142.1250 C   0  0  1  0  0  3  0  0  0  0  0  0
  189.8670  176.4400  146.6600 C   0  0  0  0  0  0  0  0  0  0  0  0
  188.1400  177.7430  144.7450 O   0  0  0  0  0  0  0  0  0  0  0  0
  186.8990  178.2900  145.0680 C   0  0  0  0  0  2  0  0  0  0  0  0
  186.2660  178.8730  143.8230 C   0  0  0  0  0  1  0  0  0  0  0  0
  1  5  1  0  0  0  0
  2 20  2  0  0  0  0
  3 10  1  0  0  0  0
  5 11  1  0  0  0  0
  6 19  1  6  0  0  0
  6 15  1  0  0  0  0
  7  6  1  0  0  0  0
  9 28  1  6  0  0  0
  9 14  1  0  0  0  0
 10 22  2  0  0  0  0
 11  7  1  0  0  0  0
 11  8  2  0  0  0  0
 12 19  1  6  0  0  0
 12 27  1  0  0  0  0
 12 15  1  0  0  0  0
 13 18  1  0  0  0  0
 13  2  1  0  0  0  0
 14 27  1  0  0  0  0
 16  1  2  0  0  0  0
 17  3  2  0  0  0  0
 18 17  1  0  0  0  0
 20 26  1  0  0  0  0
 20  1  1  0  0  0  0
 21  4  1  6  0  0  0
 21 23  1  0  0  0  0
 23 10  1  6  0  0  0
 23  9  1  0  0  0  0
 25 18  1  0  0  0  0
 26 17  1  6  0  0  0
 26 21  1  0  0  0  0
 27 24  2  0  0  0  0
 28 29  1  0  0  0  0
 30 29  1  0  0  0  0
M  END
>  <MODEL>
3

>  <REMARK>
 VINA RESULT:      -7.7      2.429      5.464
  Name = 
  2 active torsions:
  status: ('A' for Active; 'I' for Inactive)
    1  A    between atoms: C_7  and  O_26
    2  A    between atoms: C_10  and  O_26
                            x       y       z     vdW  Elec       q    Type
                         _______ _______ _______ _____ _____    ______ ____

>  <TORSDO>
F 2

$$$$
=
 OpenBabel11052417233D

 30 33  0  0  1  0  0  0  0  0999 V2000
  188.1760  174.6890  141.4540 C   0  0  0  0  0  0  0  0  0  0  0  0
  189.3090  173.3590  139.8010 C   0  0  0  0  0  3  0  0  0  0  0  0
  193.1570  174.5300  141.2320 N   0  0  0  0  0  0  0  0  0  0  0  0
  190.9360  173.8910  143.8270 C   0  0  0  0  0  1  0  0  0  0  0  0
  187.8160  176.0430  141.1600 N   0  0  0  0  0  2  0  0  0  0  0  0
  186.9670  176.7810  144.3300 C   0  0  2  0  0  3  0  0  0  0  0  0
  186.1380  176.3960  143.0860 C   0  0  0  0  0  2  0  0  0  0  0  0
  186.3690  177.8570  141.2220 O   0  0  0  0  0  0  0  0  0  0  0  0
  192.3200  176.6740  144.3350 C   0  0  2  0  0  3  0  0  0  0  0  0
  193.3050  175.3920  142.3610 C   0  0  0  0  0  0  0  0  0  0  0  0
  186.7530  176.7910  141.7670 C   0  0  0  0  0  0  0  0  0  0  0  0
  189.0270  177.2680  144.0170 C   0  0  2  0  0  3  0  0  0  0  0  0
  190.5150  172.7330  139.1630 C   0  0  0  0  0  2  0  0  0  0  0  0
  191.4550  177.9140  144.5870 C   0  0  0  0  0  2  0  0  0  0  0  0
  187.7510  178.0780  144.1520 C   0  0  0  0  0  2  0  0  0  0  0  0
  187.4160  173.9520  142.1380 O   0  0  0  0  0  0  0  0  0  0  0  0
  191.8560  174.1660  140.7390 C   0  0  0  0  0  0  0  0  0  0  0  0
  191.7330  173.4740  139.4850 N   0  0  0  0  0  0  0  0  0  0  0  0
  188.2650  176.0000  144.3550 C   0  0  0  0  0  2  0  0  0  0  0  0
  189.4090  174.1320  140.8860 C   0  0  0  0  0  0  0  0  0  0  0  0
  190.8660  175.0490  142.8390 C   0  0  1  0  0  3  0  0  0  0  0  0
  194.4570  175.6780  142.7840 O   0  0  0  0  0  0  0  0  0  0  0  0
  192.0750  176.0090  142.9610 C   0  0  1  0  0  3  0  0  0  0  0  0
  189.8020  177.5840  146.2360 O   0  0  0  0  0  0  0  0  0  0  0  0
  192.8970  173.2780  138.6370 C   0  0  0  0  0  1  0  0  0  0  0  0
  190.7450  174.4800  141.4420 C   0  0  1  0  0  3  0  0  0  0  0  0
  190.0650  177.5920  145.0430 C   0  0  0  0  0  0  0  0  0  0  0  0
  192.2810  175.7740  145.4060 O   0  0  0  0  0  0  0  0  0  0  0  0
  193.1720  176.2930  146.3460 C   0  0  0  0  0  2  0  0  0  0  0  0
  194.5350  175.6660  146.1490 C   0  0  0  0  0  1  0  0  0  0  0  0
  1 16  2  0  0  0  0
  2 20  2  0  0  0  0
  3 10  1  0  0  0  0
  5  1  1  0  0  0  0
  5 11  1  0  0  0  0
  6  7  1  6  0  0  0
  6 19  1  0  0  0  0
  8 11  2  0  0  0  0
  9 14  1  0  0  0  0
  9 28  1  1  0  0  0
 10 22  2  0  0  0  0
 11  7  1  0  0  0  0
 12 15  1  1  0  0  0
 12 19  1  0  0  0  0
 12 27  1  0  0  0  0
 13 18  1  0  0  0  0
 13  2  1  0  0  0  0
 14 27  1  0  0  0  0
 15  6  1  0  0  0  0
 17  3  2  0  0  0  0
 18 17  1  0  0  0  0
 20 26  1  0  0  0  0
 20  1  1  0  0  0  0
 21 23  1  0  0  0  0
 21  4  1  1  0  0  0
 23 10  1  1  0  0  0
 23  9  1  0  0  0  0
 25 18  1  0  0  0  0
 26 17  1  1  0  0  0
 26 21  1  0  0  0  0
 27 24  2  0  0  0  0
 28 29  1  0  0  0  0
 30 29  1  0  0  0  0
M  END
>  <MODEL>
4

>  <REMARK>
 VINA RESULT:      -7.3      2.599      5.805
  Name = 
  2 active torsions:
  status: ('A' for Active; 'I' for Inactive)
    1  A    between atoms: C_7  and  O_26
    2  A    between atoms: C_10  and  O_26
                            x       y       z     vdW  Elec       q    Type
                         _______ _______ _______ _____ _____    ______ ____

>  <TORSDO>
F 2

$$$$
=
 OpenBabel11052417233D

 30 33  0  0  1  0  0  0  0  0999 V2000
  191.6850  176.1470  146.3780 C   0  0  0  0  0  0  0  0  0  0  0  0
  189.5810  177.1950  146.8880 C   0  0  0  0  0  3  0  0  0  0  0  0
  187.8990  176.0620  143.1320 N   0  0  0  0  0  0  0  0  0  0  0  0
  189.8000  173.5140  144.5330 C   0  0  0  0  0  1  0  0  0  0  0  0
  192.7250  176.9000  145.7430 N   0  0  0  0  0  2  0  0  0  0  0  0
  194.6510  174.2120  145.1230 C   0  0  2  0  0  3  0  0  0  0  0  0
  194.6820  175.2910  146.2280 C   0  0  0  0  0  2  0  0  0  0  0  0
  194.9410  177.5270  145.4540 O   0  0  0  0  0  0  0  0  0  0  0  0
  190.6870  173.9140  141.5380 C   0  0  2  0  0  3  0  0  0  0  0  0
  188.6350  175.2860  142.1850 C   0  0  0  0  0  0  0  0  0  0  0  0
  194.1330  176.6340  145.8180 C   0  0  0  0  0  0  0  0  0  0  0  0
  193.3750  174.5730  143.4430 C   0  0  2  0  0  3  0  0  0  0  0  0
  188.1380  177.5240  146.6380 C   0  0  0  0  0  2  0  0  0  0  0  0
  192.1660  174.1390  141.2100 C   0  0  0  0  0  2  0  0  0  0  0  0
  194.8520  174.7820  143.7220 C   0  0  0  0  0  2  0  0  0  0  0  0
  191.9550  175.2920  147.2630 O   0  0  0  0  0  0  0  0  0  0  0  0
  188.4850  176.4640  144.3810 C   0  0  0  0  0  0  0  0  0  0  0  0
  187.8050  177.4140  145.2200 N   0  0  0  0  0  0  0  0  0  0  0  0
  193.2190  173.8620  144.7740 C   0  0  0  0  0  2  0  0  0  0  0  0
  190.2850  176.4330  146.0460 C   0  0  0  0  0  0  0  0  0  0  0  0
  190.3210  174.8380  143.9880 C   0  0  1  0  0  3  0  0  0  0  0  0
  188.0890  174.9310  141.1070 O   0  0  0  0  0  0  0  0  0  0  0  0
  190.0800  174.9910  142.4660 C   0  0  1  0  0  3  0  0  0  0  0  0
  193.5990  172.5570  142.2130 O   0  0  0  0  0  0  0  0  0  0  0  0
  186.6080  178.0880  144.7430 C   0  0  0  0  0  1  0  0  0  0  0  0
  189.6790  175.9640  144.7700 C   0  0  1  0  0  3  0  0  0  0  0  0
  193.0960  173.6680  142.2850 C   0  0  0  0  0  0  0  0  0  0  0  0
  190.4300  172.6050  141.9590 O   0  0  0  0  0  0  0  0  0  0  0  0
  190.0710  171.9160  140.8010 C   0  0  0  0  0  2  0  0  0  0  0  0
  190.8160  170.6000  140.7460 C   0  0  0  0  0  1  0  0  0  0  0  0
  1 16  2  0  0  0  0
  3 17  2  0  0  0  0
  5 11  1  0  0  0  0
  5  1  1  0  0  0  0
  6 15  1  6  0  0  0
  6  7  1  0  0  0  0
  8 11  2  0  0  0  0
  9 28  1  1  0  0  0
  9 23  1  0  0  0  0
 10  3  1  0  0  0  0
 11  7  1  0  0  0  0
 12 15  1  6  0  0  0
 12 19  1  0  0  0  0
 13  2  1  0  0  0  0
 14  9  1  0  0  0  0
 14 27  1  0  0  0  0
 17 18  1  0  0  0  0
 18 13  1  0  0  0  0
 19  6  1  0  0  0  0
 20  1  1  0  0  0  0
 20  2  2  0  0  0  0
 21  4  1  1  0  0  0
 21 26  1  0  0  0  0
 22 10  2  0  0  0  0
 23 10  1  1  0  0  0
 23 21  1  0  0  0  0
 24 27  2  0  0  0  0
 25 18  1  0  0  0  0
 26 17  1  1  0  0  0
 26 20  1  0  0  0  0
 27 12  1  0  0  0  0
 29 28  1  0  0  0  0
 30 29  1  0  0  0  0
M  END
>  <MODEL>
5

>  <REMARK>
 VINA RESULT:      -7.2      2.815      5.986
  Name = 
  2 active torsions:
  status: ('A' for Active; 'I' for Inactive)
    1  A    between atoms: C_7  and  O_26
    2  A    between atoms: C_10  and  O_26
                            x       y       z     vdW  Elec       q    Type
                         _______ _______ _______ _____ _____    ______ ____

>  <TORSDO>
F 2

$$$$
=
 OpenBabel11052417233D

 30 33  0  0  1  0  0  0  0  0999 V2000
  188.4250  176.0170  141.8990 C   0  0  0  0  0  0  0  0  0  0  0  0
  186.7550  177.0700  140.5250 C   0  0  0  0  0  3  0  0  0  0  0  0
  184.4240  178.2110  143.9130 N   0  0  0  0  0  2  0  0  0  0  0  0
  187.8260  178.6580  144.4580 C   0  0  0  0  0  1  0  0  0  0  0  0
  188.3110  174.6270  142.2250 N   0  0  0  0  0  2  0  0  0  0  0  0
  190.7680  174.6960  144.5220 C   0  0  2  0  0  3  0  0  0  0  0  0
  190.7280  174.2500  143.0440 C   0  0  0  0  0  2  0  0  0  0  0  0
  189.1880  172.5030  142.5530 O   0  0  0  0  0  0  0  0  0  0  0  0
  186.6050  177.0810  146.8960 C   0  0  2  0  0  3  0  0  0  0  0  0
  184.8500  177.9260  145.2460 C   0  0  0  0  0  0  0  0  0  0  0  0
  189.3890  173.7440  142.5700 C   0  0  0  0  0  0  0  0  0  0  0  0
  188.8910  175.0650  145.4800 C   0  0  2  0  0  3  0  0  0  0  0  0
  185.5280  177.9010  140.2840 C   0  0  0  0  0  2  0  0  0  0  0  0
  187.2340  175.7530  147.3290 C   0  0  0  0  0  2  0  0  0  0  0  0
  189.8400  173.8830  145.4190 C   0  0  0  0  0  2  0  0  0  0  0  0
  189.5480  176.5370  141.6690 O   0  0  0  0  0  0  0  0  0  0  0  0
  185.2010  177.7960  142.7780 C   0  0  0  0  0  0  0  0  0  0  0  0
  184.6520  177.9080  141.4540 N   0  0  0  0  0  0  0  0  0  0  0  0
  189.8940  175.9170  144.7240 C   0  0  0  0  0  2  0  0  0  0  0  0
  187.2080  176.8240  141.7570 C   0  0  0  0  0  0  0  0  0  0  0  0
  187.0990  177.3270  144.3100 C   0  0  1  0  0  3  0  0  0  0  0  0
  184.1590  178.3190  146.2240 O   0  0  0  0  0  0  0  0  0  0  0  0
  186.0740  177.0790  145.4440 C   0  0  1  0  0  3  0  0  0  0  0  0
  189.5720  175.8700  147.6050 O   0  0  0  0  0  0  0  0  0  0  0  0
  183.2620  178.2900  141.2660 C   0  0  0  0  0  1  0  0  0  0  0  0
  186.4430  177.2890  142.9460 C   0  0  0  0  0  0  0  0  0  0  0  0
  188.6460  175.5790  146.8630 C   0  0  0  0  0  0  0  0  0  0  0  0
  187.4240  178.1770  147.1890 O   0  0  0  0  0  0  0  0  0  0  0  0
  186.9310  178.6860  148.3900 C   0  0  0  0  0  2  0  0  0  0  0  0
  186.3170  180.0480  148.1460 C   0  0  0  0  0  1  0  0  0  0  0  0
  1  5  1  0  0  0  0
  2 20  2  0  0  0  0
  3 10  1  0  0  0  0
  5 11  1  0  0  0  0
  6  7  1  6  0  0  0
  6 19  1  0  0  0  0
  6 15  1  0  0  0  0
  8 11  2  0  0  0  0
  9 28  1  6  0  0  0
  9 14  1  0  0  0  0
 10 22  2  0  0  0  0
 11  7  1  0  0  0  0
 12 19  1  6  0  0  0
 12 27  1  0  0  0  0
 13  2  1  0  0  0  0
 13 18  1  0  0  0  0
 15 12  1  0  0  0  0
 16  1  2  0  0  0  0
 17 26  2  0  0  0  0
 17  3  1  0  0  0  0
 18 17  1  0  0  0  0
 20  1  1  0  0  0  0
 20 26  1  0  0  0  0
 21  4  1  1  0  0  0
 21 23  1  0  0  0  0
 23 10  1  1  0  0  0
 23  9  1  0  0  0  0
 25 18  1  0  0  0  0
 26 21  1  0  0  0  0
 27 14  1  0  0  0  0
 27 24  2  0  0  0  0
 28 29  1  0  0  0  0
 30 29  1  0  0  0  0
M  END
>  <MODEL>
6

>  <REMARK>
 VINA RESULT:      -7.1      1.644      2.517
  Name = 
  2 active torsions:
  status: ('A' for Active; 'I' for Inactive)
    1  A    between atoms: C_7  and  O_26
    2  A    between atoms: C_10  and  O_26
                            x       y       z     vdW  Elec       q    Type
                         _______ _______ _______ _____ _____    ______ ____

>  <TORSDO>
F 2

$$$$
=
 OpenBabel11052417233D

 30 33  0  0  1  0  0  0  0  0999 V2000
  189.6910  173.7420  144.3780 C   0  0  0  0  0  0  0  0  0  0  0  0
  189.2460  172.7980  142.2110 C   0  0  0  0  0  3  0  0  0  0  0  0
  192.8450  174.4040  140.5700 N   0  0  0  0  0  0  0  0  0  0  0  0
  193.3190  173.1410  143.7720 C   0  0  0  0  0  1  0  0  0  0  0  0
  189.1980  175.0460  144.7060 N   0  0  0  0  0  2  0  0  0  0  0  0
  190.9790  175.2910  147.5490 C   0  0  2  0  0  3  0  0  0  0  0  0
  189.5080  174.9160  147.2630 C   0  0  0  0  0  2  0  0  0  0  0  0
  188.2350  176.5890  146.1480 O   0  0  0  0  0  0  0  0  0  0  0  0
  194.5470  176.0380  143.6290 C   0  0  2  0  0  3  0  0  0  0  0  0
  193.7640  175.1500  141.3690 C   0  0  0  0  0  0  0  0  0  0  0  0
  188.9240  175.5440  146.0230 C   0  0  0  0  0  0  0  0  0  0  0  0
  192.1040  176.1310  145.9340 C   0  0  2  0  0  3  0  0  0  0  0  0
  189.5890  172.4450  140.7930 C   0  0  0  0  0  2  0  0  0  0  0  0
  194.1290  177.0890  144.6620 C   0  0  0  0  0  2  0  0  0  0  0  0
  191.3340  176.7070  147.1080 C   0  0  0  0  0  2  0  0  0  0  0  0
  189.7140  172.8240  145.2400 O   0  0  0  0  0  0  0  0  0  0  0  0
  191.6210  173.8930  141.1250 C   0  0  0  0  0  0  0  0  0  0  0  0
  190.6210  173.3310  140.2580 N   0  0  0  0  0  0  0  0  0  0  0  0
  191.8810  174.7280  146.4700 C   0  0  0  0  0  2  0  0  0  0  0  0
  190.1020  173.4540  142.9990 C   0  0  0  0  0  0  0  0  0  0  0  0
  192.5060  174.3740  143.3950 C   0  0  1  0  0  3  0  0  0  0  0  0
  194.8390  175.5690  140.8610 O   0  0  0  0  0  0  0  0  0  0  0  0
  193.3770  175.4950  142.7780 C   0  0  1  0  0  3  0  0  0  0  0  0
  194.2670  176.3230  146.8880 O   0  0  0  0  0  0  0  0  0  0  0  0
  190.7690  173.4160  138.8150 C   0  0  0  0  0  1  0  0  0  0  0  0
  191.3970  173.9480  142.4570 C   0  0  1  0  0  3  0  0  0  0  0  0
  193.5520  176.5030  145.9140 C   0  0  0  0  0  0  0  0  0  0  0  0
  195.3440  175.0320  144.1890 O   0  0  0  0  0  0  0  0  0  0  0  0
  196.6550  175.4000  143.8870 C   0  0  0  0  0  2  0  0  0  0  0  0
  197.3110  174.3040  143.0750 C   0  0  0  0  0  1  0  0  0  0  0  0
  1  5  1  0  0  0  0
  1 16  2  0  0  0  0
  2 20  2  0  0  0  0
  3 17  2  0  0  0  0
  3 10  1  0  0  0  0
  5 11  1  0  0  0  0
  6 19  1  6  0  0  0
  7  6  1  0  0  0  0
  9 28  1  1  0  0  0
  9 14  1  0  0  0  0
 11  8  2  0  0  0  0
 11  7  1  0  0  0  0
 12 19  1  1  0  0  0
 12 15  1  0  0  0  0
 13  2  1  0  0  0  0
 14 27  1  0  0  0  0
 15  6  1  0  0  0  0
 18 13  1  0  0  0  0
 18 17  1  0  0  0  0
 20  1  1  0  0  0  0
 21  4  1  6  0  0  0
 22 10  2  0  0  0  0
 23 10  1  6  0  0  0
 23 21  1  0  0  0  0
 23  9  1  0  0  0  0
 25 18  1  0  0  0  0
 26 17  1  1  0  0  0
 26 20  1  0  0  0  0
 26 21  1  0  0  0  0
 27 12  1  0  0  0  0
 27 24  2  0  0  0  0
 29 28  1  0  0  0  0
 30 29  1  0  0  0  0
M  END
>  <MODEL>
7

>  <REMARK>
 VINA RESULT:      -7.0      3.408      6.547
  Name = 
  2 active torsions:
  status: ('A' for Active; 'I' for Inactive)
    1  A    between atoms: C_7  and  O_26
    2  A    between atoms: C_10  and  O_26
                            x       y       z     vdW  Elec       q    Type
                         _______ _______ _______ _____ _____    ______ ____

>  <TORSDO>
F 2

$$$$
=
 OpenBabel11052417233D

 30 33  0  0  1  0  0  0  0  0999 V2000
  191.1450  175.3430  145.2180 C   0  0  0  0  0  0  0  0  0  0  0  0
  192.6990  174.0950  143.8710 C   0  0  0  0  0  3  0  0  0  0  0  0
  190.0240  174.0030  140.5460 N   0  0  0  0  0  2  0  0  0  0  0  0
  190.0430  177.0990  142.1220 C   0  0  0  0  0  1  0  0  0  0  0  0
  190.2100  174.6540  146.0550 N   0  0  0  0  0  2  0  0  0  0  0  0
  188.4230  177.4130  146.7740 C   0  0  2  0  0  3  0  0  0  0  0  0
  189.5230  176.6470  147.5420 C   0  0  0  0  0  2  0  0  0  0  0  0
  189.0210  174.3720  148.0290 O   0  0  0  0  0  0  0  0  0  0  0  0
  187.0580  176.1650  141.7500 C   0  0  2  0  0  3  0  0  0  0  0  0
  188.7510  174.6500  140.5910 C   0  0  0  0  0  0  0  0  0  0  0  0
  189.5930  175.1700  147.2440 C   0  0  0  0  0  0  0  0  0  0  0  0
  187.5830  176.4510  145.0570 C   0  0  2  0  0  3  0  0  0  0  0  0
  193.1870  173.4710  142.5960 C   0  0  0  0  0  2  0  0  0  0  0  0
  186.1200  176.1300  142.9610 C   0  0  0  0  0  2  0  0  0  0  0  0
  187.1760  176.5730  146.5140 C   0  0  0  0  0  2  0  0  0  0  0  0
  191.6850  176.4160  145.5980 O   0  0  0  0  0  0  0  0  0  0  0  0
  190.9050  174.0140  141.6810 C   0  0  0  0  0  0  0  0  0  0  0  0
  192.0800  173.1850  141.6860 N   0  0  0  0  0  0  0  0  0  0  0  0
  188.7290  177.4170  145.2900 C   0  0  0  0  0  2  0  0  0  0  0  0
  191.5360  174.7480  143.9350 C   0  0  0  0  0  0  0  0  0  0  0  0
  189.5000  175.7950  142.6930 C   0  0  1  0  0  3  0  0  0  0  0  0
  188.0080  174.6410  139.5730 O   0  0  0  0  0  0  0  0  0  0  0  0
  188.2950  175.2490  141.8890 C   0  0  1  0  0  3  0  0  0  0  0  0
  186.1320  178.1280  144.2140 O   0  0  0  0  0  0  0  0  0  0  0  0
  192.3010  172.2210  140.6210 C   0  0  0  0  0  1  0  0  0  0  0  0
  190.6310  174.7910  142.7530 C   0  0  0  0  0  0  0  0  0  0  0  0
  186.5740  176.9950  144.0960 C   0  0  0  0  0  0  0  0  0  0  0  0
  187.3720  177.4720  141.3610 O   0  0  0  0  0  0  0  0  0  0  0  0
  186.6610  177.6780  140.1780 C   0  0  0  0  0  2  0  0  0  0  0  0
  185.3190  178.3000  140.4990 C   0  0  0  0  0  1  0  0  0  0  0  0
  1 16  2  0  0  0  0
  1  5  1  0  0  0  0
  2 20  2  0  0  0  0
  3 10  1  0  0  0  0
  3 17  1  0  0  0  0
  5 11  1  0  0  0  0
  6 19  1  6  0  0  0
  6  7  1  0  0  0  0
  9 28  1  1  0  0  0
  9 23  1  0  0  0  0
  9 14  1  0  0  0  0
 11  7  1  0  0  0  0
 11  8  2  0  0  0  0
 12 19  1  1  0  0  0
 12 15  1  0  0  0  0
 13  2  1  0  0  0  0
 14 27  1  0  0  0  0
 15  6  1  0  0  0  0
 17 18  1  0  0  0  0
 17 26  2  0  0  0  0
 18 13  1  0  0  0  0
 20  1  1  0  0  0  0
 21  4  1  6  0  0  0
 21 26  1  0  0  0  0
 22 10  2  0  0  0  0
 23 10  1  6  0  0  0
 23 21  1  0  0  0  0
 25 18  1  0  0  0  0
 26 20  1  0  0  0  0
 27 24  2  0  0  0  0
 27 12  1  0  0  0  0
 29 30  1  0  0  0  0
 29 28  1  0  0  0  0
M  END
>  <MODEL>
8

>  <REMARK>
 VINA RESULT:      -7.0      2.474      6.728
  Name = 
  2 active torsions:
  status: ('A' for Active; 'I' for Inactive)
    1  A    between atoms: C_7  and  O_26
    2  A    between atoms: C_10  and  O_26
                            x       y       z     vdW  Elec       q    Type
                         _______ _______ _______ _____ _____    ______ ____

>  <TORSDO>
F 2

$$$$
=
 OpenBabel11052417233D

 30 33  0  0  1  0  0  0  0  0999 V2000
  191.0840  176.1400  145.9920 C   0  0  0  0  0  0  0  0  0  0  0  0
  188.8640  177.0620  145.8850 C   0  0  0  0  0  3  0  0  0  0  0  0
  187.8880  174.7840  142.4110 N   0  0  0  0  0  2  0  0  0  0  0  0
  189.6890  172.9250  144.7280 C   0  0  0  0  0  1  0  0  0  0  0  0
  192.1650  176.7970  145.3200 N   0  0  0  0  0  2  0  0  0  0  0  0
  194.3270  174.2590  145.7630 C   0  0  2  0  0  3  0  0  0  0  0  0
  194.1120  175.5930  146.5090 C   0  0  0  0  0  2  0  0  0  0  0  0
  194.3560  177.5500  145.1760 O   0  0  0  0  0  0  0  0  0  0  0  0
  191.0240  172.5870  141.8960 C   0  0  2  0  0  3  0  0  0  0  0  0
  188.8140  173.8610  141.8350 C   0  0  0  0  0  0  0  0  0  0  0  0
  193.5560  176.7100  145.6620 C   0  0  0  0  0  0  0  0  0  0  0  0
  193.3220  174.0150  143.8900 C   0  0  2  0  0  3  0  0  0  0  0  0
  187.4640  177.1590  145.3540 C   0  0  0  0  0  2  0  0  0  0  0  0
  192.5210  172.8670  141.7260 C   0  0  0  0  0  2  0  0  0  0  0  0
  194.7180  174.4440  144.3000 C   0  0  0  0  0  2  0  0  0  0  0  0
  191.2570  175.5900  147.1120 O   0  0  0  0  0  0  0  0  0  0  0  0
  188.2370  175.5680  143.5630 C   0  0  0  0  0  0  0  0  0  0  0  0
  187.3730  176.6340  143.9940 N   0  0  0  0  0  0  0  0  0  0  0  0
  192.9950  173.6790  145.3330 C   0  0  0  0  0  2  0  0  0  0  0  0
  189.7410  176.1780  145.4010 C   0  0  0  0  0  0  0  0  0  0  0  0
  190.2090  174.0980  143.9060 C   0  0  1  0  0  3  0  0  0  0  0  0
  188.4740  173.1710  140.8370 O   0  0  0  0  0  0  0  0  0  0  0  0
  190.2100  173.8060  142.3860 C   0  0  1  0  0  3  0  0  0  0  0  0
  193.8650  171.7760  143.3260 O   0  0  0  0  0  0  0  0  0  0  0  0
  186.2310  177.0250  143.1840 C   0  0  0  0  0  1  0  0  0  0  0  0
  189.3810  175.3200  144.2400 C   0  0  0  0  0  0  0  0  0  0  0  0
  193.2910  172.8060  143.0090 C   0  0  0  0  0  0  0  0  0  0  0  0
  190.7830  171.4220  142.6320 O   0  0  0  0  0  0  0  0  0  0  0  0
  190.5950  170.4230  141.6770 C   0  0  0  0  0  2  0  0  0  0  0  0
  191.5080  169.2550  141.9830 C   0  0  0  0  0  1  0  0  0  0  0  0
  1 16  2  0  0  0  0
  3 17  1  0  0  0  0
  5 11  1  0  0  0  0
  5  1  1  0  0  0  0
  6 15  1  6  0  0  0
  6  7  1  0  0  0  0
  8 11  2  0  0  0  0
  9 23  1  0  0  0  0
  9 28  1  1  0  0  0
 10  3  1  0  0  0  0
 11  7  1  0  0  0  0
 12 15  1  1  0  0  0
 12 19  1  0  0  0  0
 13  2  1  0  0  0  0
 14  9  1  0  0  0  0
 14 27  1  0  0  0  0
 17 18  1  0  0  0  0
 17 26  2  0  0  0  0
 18 13  1  0  0  0  0
 19  6  1  0  0  0  0
 20  2  2  0  0  0  0
 20  1  1  0  0  0  0
 21 26  1  0  0  0  0
 21  4  1  1  0  0  0
 22 10  2  0  0  0  0
 23 10  1  1  0  0  0
 23 21  1  0  0  0  0
 25 18  1  0  0  0  0
 26 20  1  0  0  0  0
 27 24  2  0  0  0  0
 27 12  1  0  0  0  0
 29 30  1  0  0  0  0
 29 28  1  0  0  0  0
M  END
>  <MODEL>
9

>  <REMARK>
 VINA RESULT:      -6.9      2.818      5.989
  Name = 
  2 active torsions:
  status: ('A' for Active; 'I' for Inactive)
    1  A    between atoms: C_7  and  O_26
    2  A    between atoms: C_10  and  O_26
                            x       y       z     vdW  Elec       q    Type
                         _______ _______ _______ _____ _____    ______ ____

>  <TORSDO>
F 2

$$$$
