=
 OpenBabel11052419063D

 32 37  0  0  1  0  0  0  0  0999 V2000
  189.9830  176.4640  143.4000 C   0  0  1  0  0  3  0  0  0  0  0  0
  189.2740  175.2310  143.9980 C   0  0  1  0  0  3  0  0  0  0  0  0
  188.1560  176.5040  141.5370 C   0  0  2  0  0  3  0  0  0  0  0  0
  190.8560  171.5080  143.4770 C   0  0  0  0  0  2  0  0  0  0  0  0
  188.3820  174.3960  143.0640 C   0  0  1  0  0  3  0  0  0  0  0  0
  190.4900  172.0240  141.0320 C   0  0  0  0  0  2  0  0  0  0  0  0
  189.4740  173.0370  141.4980 C   0  0  0  0  0  0  0  0  0  0  0  0
  188.1560  174.9780  141.6670 C   0  0  2  0  0  3  0  0  0  0  0  0
  189.1120  174.2550  140.7230 C   0  0  0  0  0  2  0  0  0  0  0  0
  189.1270  177.2740  142.4100 C   0  0  1  0  0  3  0  0  0  0  0  0
  189.6360  172.9310  145.2080 C   0  0  0  0  0  2  0  0  0  0  0  0
  187.0360  177.0410  142.1970 O   0  0  0  0  0  0  0  0  0  0  0  0
  189.9420  174.4580  145.1950 C   0  0  1  0  0  0  0  0  0  0  0  0
  189.0820  173.1320  142.7660 C   0  0  0  0  0  0  0  0  0  0  0  0
  187.8630  177.7990  143.0450 C   0  0  0  0  0  2  0  0  0  0  0  0
  190.7230  170.9180  142.0720 C   0  0  0  0  0  2  0  0  0  0  0  0
  189.5520  172.2120  143.8520 C   0  0  1  0  0  3  0  0  0  0  0  0
  193.5350  175.3110  146.4600 C   0  0  0  0  0  3  0  0  0  0  0  0
  193.6500  174.5450  144.1810 C   0  0  0  0  0  3  0  0  0  0  0  0
  191.4760  174.6250  145.3230 C   0  0  0  0  0  0  0  0  0  0  0  0
  194.2910  175.0130  145.3230 C   0  0  0  0  0  0  0  0  0  0  0  0
  192.2670  174.3640  144.1820 C   0  0  0  0  0  3  0  0  0  0  0  0
  192.1480  175.1370  146.4720 C   0  0  0  0  0  0  0  0  0  0  0  0
  191.4660  175.4950  147.7410 C   0  0  0  0  0  1  0  0  0  0  0  0
  196.2720  175.5160  143.9060 C   0  0  0  0  0  1  0  0  0  0  0  0
  196.4860  173.9670  145.8430 C   0  0  0  0  0  1  0  0  0  0  0  0
  195.7770  175.1960  145.3040 C   0  0  0  0  0  3  0  0  0  0  0  0
  190.4360  177.3080  144.4230 O   0  0  0  0  0  0  0  0  0  0  0  0
  191.4880  178.0390  143.8650 C   0  0  0  0  0  1  0  0  0  0  0  0
  189.2660  175.0410  146.4570 C   0  0  0  0  0  2  0  0  0  0  0  0
  188.0110  175.8590  146.1700 C   0  0  0  0  0  2  0  0  0  0  0  0
  188.1030  177.0910  146.8110 O   0  0  0  0  0  1  0  0  0  0  0  0
  1  2  1  0  0  0  0
  1 28  1  1  0  0  0
  2 13  1  0  0  0  0
  3  8  1  0  0  0  0
  3 12  1  0  0  0  0
  3 10  1  0  0  0  0
  4 17  1  0  0  0  0
  5  2  1  0  0  0  0
  6  7  1  0  0  0  0
  6 16  1  0  0  0  0
  7 14  2  0  0  0  0
  8  5  1  0  0  0  0
  9  7  1  0  0  0  0
  9  8  1  0  0  0  0
 10 15  1  0  0  0  0
 10  1  1  0  0  0  0
 12 15  1  0  0  0  0
 13 11  1  0  0  0  0
 13 20  1  0  0  0  0
 13 30  1  0  0  0  0
 14  5  1  0  0  0  0
 14 17  1  0  0  0  0
 16  4  1  0  0  0  0
 17 11  1  0  0  0  0
 18 23  1  0  0  0  0
 19 22  2  0  0  0  0
 19 21  1  0  0  0  0
 20 23  2  0  0  0  0
 21 18  2  0  0  0  0
 22 20  1  0  0  0  0
 23 24  1  0  0  0  0
 25 27  1  0  0  0  0
 27 21  1  0  0  0  0
 27 26  1  0  0  0  0
 29 28  1  0  0  0  0
 31 30  1  0  0  0  0
 31 32  1  0  0  0  0
M  END
>  <MODEL>
1

>  <REMARK>
 VINA RESULT:      -7.5      0.000      0.000
  Name = 
  5 active torsions:
  status: ('A' for Active; 'I' for Inactive)
    1  A    between atoms: C_1  and  C_4
    2  A    between atoms: C_1  and  C_27
    3  A    between atoms: C_2  and  O_14
    4  A    between atoms: C_16  and  C_27
    5  A    between atoms: C_19  and  C_26
                            x       y       z     vdW  Elec       q    Type
                         _______ _______ _______ _____ _____    ______ ____

>  <TORSDO>
F 5

$$$$
=
 OpenBabel11052419063D

 32 37  0  0  1  0  0  0  0  0999 V2000
  189.8970  176.9020  143.3840 C   0  0  1  0  0  3  0  0  0  0  0  0
  189.5960  175.5420  144.0480 C   0  0  1  0  0  3  0  0  0  0  0  0
  187.5730  176.7450  142.2070 C   0  0  2  0  0  3  0  0  0  0  0  0
  191.4070  172.1520  142.6830 C   0  0  0  0  0  2  0  0  0  0  0  0
  188.5690  174.6240  143.3650 C   0  0  1  0  0  3  0  0  0  0  0  0
  190.1950  172.7280  140.5440 C   0  0  0  0  0  2  0  0  0  0  0  0
  189.2610  173.5410  141.4050 C   0  0  0  0  0  0  0  0  0  0  0  0
  187.8220  175.2340  142.1760 C   0  0  2  0  0  3  0  0  0  0  0  0
  188.5040  174.7230  140.9110 C   0  0  0  0  0  2  0  0  0  0  0  0
  188.6630  177.6150  142.8010 C   0  0  1  0  0  3  0  0  0  0  0  0
  190.6400  173.2710  144.8440 C   0  0  0  0  0  2  0  0  0  0  0  0
  186.6690  177.0610  143.2370 O   0  0  0  0  0  0  0  0  0  0  0  0
  190.7170  174.8260  144.8890 C   0  0  1  0  0  0  0  0  0  0  0  0
  189.2960  173.5060  142.7350 C   0  0  0  0  0  0  0  0  0  0  0  0
  187.6190  177.8970  143.8520 C   0  0  0  0  0  2  0  0  0  0  0  0
  190.9020  171.6220  141.3390 C   0  0  0  0  0  2  0  0  0  0  0  0
  190.2150  172.6180  143.5190 C   0  0  1  0  0  3  0  0  0  0  0  0
  194.3530  176.2410  145.0100 C   0  0  0  0  0  3  0  0  0  0  0  0
  193.8670  175.4700  142.7820 C   0  0  0  0  0  3  0  0  0  0  0  0
  192.1700  175.2290  144.5420 C   0  0  0  0  0  0  0  0  0  0  0  0
  194.7540  176.0470  143.6850 C   0  0  0  0  0  0  0  0  0  0  0  0
  192.5980  175.0780  143.2040 C   0  0  0  0  0  3  0  0  0  0  0  0
  193.0810  175.8550  145.4440 C   0  0  0  0  0  0  0  0  0  0  0  0
  192.7810  176.1210  146.8740 C   0  0  0  0  0  1  0  0  0  0  0  0
  196.1320  176.6750  141.7130 C   0  0  0  0  0  1  0  0  0  0  0  0
  197.1610  175.4310  143.6070 C   0  0  0  0  0  1  0  0  0  0  0  0
  196.1150  176.4570  143.2150 C   0  0  0  0  0  3  0  0  0  0  0  0
  190.5410  177.7540  144.2900 O   0  0  0  0  0  0  0  0  0  0  0  0
  191.3220  178.6090  143.5090 C   0  0  0  0  0  1  0  0  0  0  0  0
  190.4190  175.2270  146.3520 C   0  0  0  0  0  2  0  0  0  0  0  0
  189.2220  174.5070  146.9640 C   0  0  0  0  0  2  0  0  0  0  0  0
  188.2030  175.4250  147.2060 O   0  0  0  0  0  1  0  0  0  0  0  0
  1  2  1  0  0  0  0
  1 28  1  1  0  0  0
  2 13  1  0  0  0  0
  3 10  1  0  0  0  0
  3 12  1  0  0  0  0
  4 17  1  0  0  0  0
  5  2  1  0  0  0  0
  6 16  1  0  0  0  0
  6  7  1  0  0  0  0
  7 14  2  0  0  0  0
  8  3  1  0  0  0  0
  8  5  1  0  0  0  0
  9  7  1  0  0  0  0
  9  8  1  0  0  0  0
 10  1  1  0  0  0  0
 10 15  1  0  0  0  0
 11 13  1  0  0  0  0
 12 15  1  0  0  0  0
 13 30  1  0  0  0  0
 14  5  1  0  0  0  0
 14 17  1  0  0  0  0
 16  4  1  0  0  0  0
 17 11  1  0  0  0  0
 18 23  1  0  0  0  0
 19 22  2  0  0  0  0
 19 21  1  0  0  0  0
 20 13  1  0  0  0  0
 20 23  2  0  0  0  0
 21 18  2  0  0  0  0
 22 20  1  0  0  0  0
 23 24  1  0  0  0  0
 25 27  1  0  0  0  0
 27 26  1  0  0  0  0
 27 21  1  0  0  0  0
 29 28  1  0  0  0  0
 30 31  1  0  0  0  0
 31 32  1  0  0  0  0
M  END
>  <MODEL>
2

>  <REMARK>
 VINA RESULT:      -7.0      1.150      1.358
  Name = 
  5 active torsions:
  status: ('A' for Active; 'I' for Inactive)
    1  A    between atoms: C_1  and  C_4
    2  A    between atoms: C_1  and  C_27
    3  A    between atoms: C_2  and  O_14
    4  A    between atoms: C_16  and  C_27
    5  A    between atoms: C_19  and  C_26
                            x       y       z     vdW  Elec       q    Type
                         _______ _______ _______ _____ _____    ______ ____

>  <TORSDO>
F 5

$$$$
=
 OpenBabel11052419063D

 32 37  0  0  1  0  0  0  0  0999 V2000
  192.2100  172.8510  142.6340 C   0  0  1  0  0  3  0  0  0  0  0  0
  192.5940  174.3360  142.8030 C   0  0  1  0  0  3  0  0  0  0  0  0
  189.7660  173.6280  142.1490 C   0  0  2  0  0  3  0  0  0  0  0  0
  193.1940  175.8820  146.5290 C   0  0  0  0  0  2  0  0  0  0  0  0
  191.4740  175.3290  143.1580 C   0  0  1  0  0  3  0  0  0  0  0  0
  190.7760  175.2310  146.8590 C   0  0  0  0  0  2  0  0  0  0  0  0
  190.6630  175.2630  145.3560 C   0  0  0  0  0  0  0  0  0  0  0  0
  190.0540  174.7590  143.1400 C   0  0  2  0  0  3  0  0  0  0  0  0
  189.6760  174.4560  144.5870 C   0  0  0  0  0  2  0  0  0  0  0  0
  190.8700  172.6170  141.9110 C   0  0  1  0  0  3  0  0  0  0  0  0
  194.0930  176.0190  144.1460 C   0  0  0  0  0  2  0  0  0  0  0  0
  189.8380  174.1140  140.8320 O   0  0  0  0  0  0  0  0  0  0  0  0
  194.0380  174.7100  143.3050 C   0  0  1  0  0  0  0  0  0  0  0  0
  191.6350  175.7210  144.5710 C   0  0  0  0  0  0  0  0  0  0  0  0
  190.8630  173.2020  140.5210 C   0  0  0  0  0  2  0  0  0  0  0  0
  191.9350  176.0980  147.3720 C   0  0  0  0  0  2  0  0  0  0  0  0
  192.9140  176.3070  145.0890 C   0  0  1  0  0  3  0  0  0  0  0  0
  196.6690  172.1530  144.6380 C   0  0  0  0  0  3  0  0  0  0  0  0
  194.5730  171.8100  145.7710 C   0  0  0  0  0  3  0  0  0  0  0  0
  194.7700  173.6090  144.1100 C   0  0  0  0  0  0  0  0  0  0  0  0
  195.9040  171.4550  145.5770 C   0  0  0  0  0  0  0  0  0  0  0  0
  194.0180  172.8620  145.0430 C   0  0  0  0  0  3  0  0  0  0  0  0
  196.1220  173.2070  143.9000 C   0  0  0  0  0  0  0  0  0  0  0  0
  197.0410  173.8600  142.9340 C   0  0  0  0  0  1  0  0  0  0  0  0
  197.5870  169.6250  145.6000 C   0  0  0  0  0  1  0  0  0  0  0  0
  195.4100  169.3300  146.7700 C   0  0  0  0  0  1  0  0  0  0  0  0
  196.4830  170.3260  146.3710 C   0  0  0  0  0  3  0  0  0  0  0  0
  193.2270  172.1600  141.9630 O   0  0  0  0  0  0  0  0  0  0  0  0
  192.9940  170.8070  142.2260 C   0  0  0  0  0  1  0  0  0  0  0  0
  194.8330  174.9990  142.0110 C   0  0  0  0  0  2  0  0  0  0  0  0
  194.6890  176.4280  141.4970 C   0  0  0  0  0  2  0  0  0  0  0  0
  195.9510  176.9620  141.2480 O   0  0  0  0  0  1  0  0  0  0  0  0
  1 28  1  6  0  0  0
  1  2  1  0  0  0  0
  2  5  1  0  0  0  0
  2 13  1  0  0  0  0
  3  8  1  0  0  0  0
  4 16  1  0  0  0  0
  5 14  1  0  0  0  0
  6 16  1  0  0  0  0
  7  6  1  0  0  0  0
  8  5  1  0  0  0  0
  8  9  1  0  0  0  0
  9  7  1  0  0  0  0
 10  3  1  0  0  0  0
 10  1  1  0  0  0  0
 11 17  1  0  0  0  0
 12  3  1  0  0  0  0
 13 20  1  0  0  0  0
 13 11  1  0  0  0  0
 14 17  1  0  0  0  0
 14  7  2  0  0  0  0
 15 12  1  0  0  0  0
 15 10  1  0  0  0  0
 17  4  1  0  0  0  0
 18 21  1  0  0  0  0
 20 22  2  0  0  0  0
 21 19  2  0  0  0  0
 21 27  1  0  0  0  0
 22 19  1  0  0  0  0
 23 20  1  0  0  0  0
 23 18  2  0  0  0  0
 24 23  1  0  0  0  0
 25 27  1  0  0  0  0
 27 26  1  0  0  0  0
 28 29  1  0  0  0  0
 30 13  1  0  0  0  0
 31 30  1  0  0  0  0
 32 31  1  0  0  0  0
M  END
>  <MODEL>
3

>  <REMARK>
 VINA RESULT:      -6.3      2.727      5.462
  Name = 
  5 active torsions:
  status: ('A' for Active; 'I' for Inactive)
    1  A    between atoms: C_1  and  C_4
    2  A    between atoms: C_1  and  C_27
    3  A    between atoms: C_2  and  O_14
    4  A    between atoms: C_16  and  C_27
    5  A    between atoms: C_19  and  C_26
                            x       y       z     vdW  Elec       q    Type
                         _______ _______ _______ _____ _____    ______ ____

>  <TORSDO>
F 5

$$$$
=
 OpenBabel11052419063D

 32 37  0  0  1  0  0  0  0  0999 V2000
  189.6290  174.2580  144.9980 C   0  0  1  0  0  3  0  0  0  0  0  0
  190.3630  175.2250  144.0470 C   0  0  1  0  0  3  0  0  0  0  0  0
  189.8600  172.4150  143.1650 C   0  0  2  0  0  3  0  0  0  0  0  0
  188.2740  178.0910  142.0320 C   0  0  0  0  0  2  0  0  0  0  0  0
  190.3330  174.9090  142.5420 C   0  0  1  0  0  3  0  0  0  0  0  0
  187.0940  176.0970  141.0270 C   0  0  0  0  0  2  0  0  0  0  0  0
  188.3130  175.3000  141.4200 C   0  0  0  0  0  0  0  0  0  0  0  0
  189.7150  173.5610  142.1600 C   0  0  2  0  0  3  0  0  0  0  0  0
  188.2840  173.8400  141.7080 C   0  0  0  0  0  2  0  0  0  0  0  0
  189.7810  172.7680  144.6360 C   0  0  1  0  0  3  0  0  0  0  0  0
  190.5040  177.7080  143.2100 C   0  0  0  0  0  2  0  0  0  0  0  0
  191.2100  172.0320  143.2630 O   0  0  0  0  0  0  0  0  0  0  0  0
  190.4890  176.7450  144.4340 C   0  0  1  0  0  0  0  0  0  0  0  0
  189.4230  175.8670  141.8860 C   0  0  0  0  0  0  0  0  0  0  0  0
  191.2240  172.3270  144.6380 C   0  0  0  0  0  2  0  0  0  0  0  0
  187.4040  177.5930  140.8750 C   0  0  0  0  0  2  0  0  0  0  0  0
  189.6100  177.3490  142.0130 C   0  0  1  0  0  3  0  0  0  0  0  0
  188.5970  177.9280  147.6370 C   0  0  0  0  0  3  0  0  0  0  0  0
  187.0560  177.8180  145.7910 C   0  0  0  0  0  3  0  0  0  0  0  0
  189.4230  177.2710  145.4250 C   0  0  0  0  0  0  0  0  0  0  0  0
  187.3030  178.0860  147.1340 C   0  0  0  0  0  0  0  0  0  0  0  0
  188.0970  177.4110  144.9580 C   0  0  0  0  0  3  0  0  0  0  0  0
  189.6480  177.5170  146.8120 C   0  0  0  0  0  0  0  0  0  0  0  0
  190.9710  177.3840  147.4740 C   0  0  0  0  0  1  0  0  0  0  0  0
  184.8330  178.2890  147.3410 C   0  0  0  0  0  1  0  0  0  0  0  0
  186.3160  179.9890  148.3930 C   0  0  0  0  0  1  0  0  0  0  0  0
  186.1730  178.5270  148.0120 C   0  0  0  0  0  3  0  0  0  0  0  0
  190.0510  174.4610  146.3190 O   0  0  0  0  0  0  0  0  0  0  0  0
  188.9410  174.1660  147.1150 C   0  0  0  0  0  1  0  0  0  0  0  0
  191.8850  176.8630  145.0880 C   0  0  0  0  0  2  0  0  0  0  0  0
  192.8960  175.8360  144.5860 C   0  0  0  0  0  2  0  0  0  0  0  0
  193.4510  175.1630  145.6720 O   0  0  0  0  0  1  0  0  0  0  0  0
  1 28  1  1  0  0  0
  2 13  1  0  0  0  0
  2  1  1  0  0  0  0
  3 12  1  0  0  0  0
  3 10  1  0  0  0  0
  5  2  1  0  0  0  0
  6  7  1  0  0  0  0
  7  9  1  0  0  0  0
  7 14  2  0  0  0  0
  8  5  1  0  0  0  0
  8  3  1  0  0  0  0
  9  8  1  0  0  0  0
 10 15  1  0  0  0  0
 10  1  1  0  0  0  0
 11 13  1  0  0  0  0
 12 15  1  0  0  0  0
 13 30  1  0  0  0  0
 13 20  1  0  0  0  0
 14 17  1  0  0  0  0
 14  5  1  0  0  0  0
 16  6  1  0  0  0  0
 16  4  1  0  0  0  0
 17  4  1  0  0  0  0
 17 11  1  0  0  0  0
 19 21  2  0  0  0  0
 20 23  1  0  0  0  0
 21 18  1  0  0  0  0
 21 27  1  0  0  0  0
 22 20  2  0  0  0  0
 22 19  1  0  0  0  0
 23 24  1  0  0  0  0
 23 18  2  0  0  0  0
 25 27  1  0  0  0  0
 27 26  1  0  0  0  0
 28 29  1  0  0  0  0
 31 30  1  0  0  0  0
 31 32  1  0  0  0  0
M  END
>  <MODEL>
4

>  <REMARK>
 VINA RESULT:      -6.2      2.342      5.860
  Name = 
  5 active torsions:
  status: ('A' for Active; 'I' for Inactive)
    1  A    between atoms: C_1  and  C_4
    2  A    between atoms: C_1  and  C_27
    3  A    between atoms: C_2  and  O_14
    4  A    between atoms: C_16  and  C_27
    5  A    between atoms: C_19  and  C_26
                            x       y       z     vdW  Elec       q    Type
                         _______ _______ _______ _____ _____    ______ ____

>  <TORSDO>
F 5

$$$$
=
 OpenBabel11052419063D

 32 37  0  0  1  0  0  0  0  0999 V2000
  190.1580  176.5720  143.4020 C   0  0  1  0  0  3  0  0  0  0  0  0
  189.5910  175.3210  144.1060 C   0  0  1  0  0  3  0  0  0  0  0  0
  187.8720  176.8050  142.1650 C   0  0  2  0  0  3  0  0  0  0  0  0
  190.7600  171.5990  142.9180 C   0  0  0  0  0  2  0  0  0  0  0  0
  188.4250  174.5850  143.4260 C   0  0  1  0  0  3  0  0  0  0  0  0
  189.7260  172.3040  140.7240 C   0  0  0  0  0  2  0  0  0  0  0  0
  188.9430  173.3110  141.5280 C   0  0  0  0  0  0  0  0  0  0  0  0
  187.8320  175.2750  142.1950 C   0  0  2  0  0  3  0  0  0  0  0  0
  188.4330  174.5930  140.9700 C   0  0  0  0  0  2  0  0  0  0  0  0
  189.0930  177.4790  142.7590 C   0  0  1  0  0  3  0  0  0  0  0  0
  190.1710  172.9290  145.0130 C   0  0  0  0  0  2  0  0  0  0  0  0
  187.0220  177.3270  143.1550 O   0  0  0  0  0  0  0  0  0  0  0  0
  190.5380  174.4420  145.0040 C   0  0  1  0  0  0  0  0  0  0  0  0
  188.9420  173.3250  142.8590 C   0  0  0  0  0  0  0  0  0  0  0  0
  188.0980  177.9940  143.7680 C   0  0  0  0  0  2  0  0  0  0  0  0
  190.1940  171.1180  141.5800 C   0  0  0  0  0  2  0  0  0  0  0  0
  189.6600  172.3140  143.7010 C   0  0  1  0  0  3  0  0  0  0  0  0
  193.9890  174.6660  143.1930 C   0  0  0  0  0  3  0  0  0  0  0  0
  194.3420  174.4610  145.5650 C   0  0  0  0  0  3  0  0  0  0  0  0
  192.0490  174.5510  144.6860 C   0  0  0  0  0  0  0  0  0  0  0  0
  194.8620  174.5830  144.2810 C   0  0  0  0  0  0  0  0  0  0  0  0
  192.9610  174.4370  145.7590 C   0  0  0  0  0  3  0  0  0  0  0  0
  192.6030  174.6400  143.3750 C   0  0  0  0  0  0  0  0  0  0  0  0
  191.7900  174.7320  142.1360 C   0  0  0  0  0  1  0  0  0  0  0  0
  197.0670  174.1670  145.3520 C   0  0  0  0  0  1  0  0  0  0  0  0
  196.8190  175.9940  143.6800 C   0  0  0  0  0  1  0  0  0  0  0  0
  196.3470  174.6120  144.0930 C   0  0  0  0  0  3  0  0  0  0  0  0
  190.9310  177.3240  144.2960 O   0  0  0  0  0  0  0  0  0  0  0  0
  191.5830  178.2790  143.5130 C   0  0  0  0  0  1  0  0  0  0  0  0
  190.2890  174.9520  146.4430 C   0  0  0  0  0  2  0  0  0  0  0  0
  188.9420  174.5380  147.0250 C   0  0  0  0  0  2  0  0  0  0  0  0
  188.1380  175.6650  147.1810 O   0  0  0  0  0  1  0  0  0  0  0  0
  1  2  1  0  0  0  0
  1 28  1  1  0  0  0
  2 13  1  0  0  0  0
  3  8  1  0  0  0  0
  3 10  1  0  0  0  0
  3 12  1  0  0  0  0
  4 17  1  0  0  0  0
  5  2  1  0  0  0  0
  6  7  1  0  0  0  0
  6 16  1  0  0  0  0
  7 14  2  0  0  0  0
  8  5  1  0  0  0  0
  9  7  1  0  0  0  0
  9  8  1  0  0  0  0
 10  1  1  0  0  0  0
 10 15  1  0  0  0  0
 12 15  1  0  0  0  0
 13 11  1  0  0  0  0
 13 30  1  0  0  0  0
 14  5  1  0  0  0  0
 14 17  1  0  0  0  0
 16  4  1  0  0  0  0
 17 11  1  0  0  0  0
 18 23  2  0  0  0  0
 18 21  1  0  0  0  0
 19 22  1  0  0  0  0
 20 13  1  0  0  0  0
 20 22  2  0  0  0  0
 21 19  2  0  0  0  0
 23 20  1  0  0  0  0
 24 23  1  0  0  0  0
 26 27  1  0  0  0  0
 27 21  1  0  0  0  0
 27 25  1  0  0  0  0
 29 28  1  0  0  0  0
 30 31  1  0  0  0  0
 31 32  1  0  0  0  0
M  END
>  <MODEL>
5

>  <REMARK>
 VINA RESULT:      -6.2      0.897      1.680
  Name = 
  5 active torsions:
  status: ('A' for Active; 'I' for Inactive)
    1  A    between atoms: C_1  and  C_4
    2  A    between atoms: C_1  and  C_27
    3  A    between atoms: C_2  and  O_14
    4  A    between atoms: C_16  and  C_27
    5  A    between atoms: C_19  and  C_26
                            x       y       z     vdW  Elec       q    Type
                         _______ _______ _______ _____ _____    ______ ____

>  <TORSDO>
F 5

$$$$
=
 OpenBabel11052419063D

 32 37  0  0  1  0  0  0  0  0999 V2000
  192.9550  174.6280  143.2020 C   0  0  1  0  0  3  0  0  0  0  0  0
  192.2610  173.9790  144.4180 C   0  0  1  0  0  3  0  0  0  0  0  0
  195.2370  174.2490  144.4100 C   0  0  2  0  0  3  0  0  0  0  0  0
  190.3010  176.3050  147.1350 C   0  0  0  0  0  2  0  0  0  0  0  0
  193.0140  173.9870  145.7590 C   0  0  1  0  0  3  0  0  0  0  0  0
  192.5900  177.3180  147.4680 C   0  0  0  0  0  2  0  0  0  0  0  0
  193.1350  176.0360  146.8900 C   0  0  0  0  0  0  0  0  0  0  0  0
  194.4580  174.4920  145.7060 C   0  0  2  0  0  3  0  0  0  0  0  0
  194.4400  175.9420  146.1810 C   0  0  0  0  0  2  0  0  0  0  0  0
  194.4680  174.3530  143.1090 C   0  0  1  0  0  3  0  0  0  0  0  0
  190.1390  174.0470  145.9590 C   0  0  0  0  0  2  0  0  0  0  0  0
  195.4660  172.8720  144.2410 O   0  0  0  0  0  0  0  0  0  0  0  0
  190.6900  173.9790  144.5040 C   0  0  1  0  0  0  0  0  0  0  0  0
  192.3700  174.9750  146.6450 C   0  0  0  0  0  0  0  0  0  0  0  0
  194.7740  172.8790  143.0160 C   0  0  0  0  0  2  0  0  0  0  0  0
  191.1880  177.1340  148.0670 C   0  0  0  0  0  2  0  0  0  0  0  0
  190.9070  174.9120  146.9690 C   0  0  1  0  0  3  0  0  0  0  0  0
  189.6650  177.3700  142.8650 C   0  0  0  0  0  3  0  0  0  0  0  0
  187.9870  175.7120  142.3890 C   0  0  0  0  0  3  0  0  0  0  0  0
  189.9770  175.0820  143.6850 C   0  0  0  0  0  0  0  0  0  0  0  0
  188.4530  177.0160  142.2650 C   0  0  0  0  0  0  0  0  0  0  0  0
  188.7340  174.7680  143.0930 C   0  0  0  0  0  3  0  0  0  0  0  0
  190.4200  176.4330  143.5770 C   0  0  0  0  0  0  0  0  0  0  0  0
  191.6840  176.9410  144.1670 C   0  0  0  0  0  1  0  0  0  0  0  0
  186.5960  178.6660  142.3900 C   0  0  0  0  0  1  0  0  0  0  0  0
  186.9770  177.3720  140.2960 C   0  0  0  0  0  1  0  0  0  0  0  0
  187.6410  178.0150  141.5010 C   0  0  0  0  0  3  0  0  0  0  0  0
  192.3350  174.2200  142.0140 O   0  0  0  0  0  0  0  0  0  0  0  0
  192.9880  174.9160  140.9940 C   0  0  0  0  0  1  0  0  0  0  0  0
  190.2730  172.5960  143.9530 C   0  0  0  0  0  2  0  0  0  0  0  0
  191.3670  171.5360  144.0380 C   0  0  0  0  0  2  0  0  0  0  0  0
  191.5310  170.9360  142.7920 O   0  0  0  0  0  1  0  0  0  0  0  0
  1 28  1  6  0  0  0
  1  2  1  0  0  0  0
  2 13  1  0  0  0  0
  2  5  1  0  0  0  0
  3  8  1  0  0  0  0
  4 16  1  0  0  0  0
  5 14  1  0  0  0  0
  6 16  1  0  0  0  0
  7  6  1  0  0  0  0
  8  5  1  0  0  0  0
  8  9  1  0  0  0  0
  9  7  1  0  0  0  0
 10  1  1  0  0  0  0
 10  3  1  0  0  0  0
 11 17  1  0  0  0  0
 12  3  1  0  0  0  0
 13 11  1  0  0  0  0
 14  7  2  0  0  0  0
 14 17  1  0  0  0  0
 15 10  1  0  0  0  0
 15 12  1  0  0  0  0
 17  4  1  0  0  0  0
 18 23  1  0  0  0  0
 19 22  2  0  0  0  0
 20 13  1  0  0  0  0
 21 19  1  0  0  0  0
 21 18  2  0  0  0  0
 22 20  1  0  0  0  0
 23 20  2  0  0  0  0
 23 24  1  0  0  0  0
 26 27  1  0  0  0  0
 27 21  1  0  0  0  0
 27 25  1  0  0  0  0
 29 28  1  0  0  0  0
 30 31  1  0  0  0  0
 30 13  1  0  0  0  0
 32 31  1  0  0  0  0
M  END
>  <MODEL>
6

>  <REMARK>
 VINA RESULT:      -6.2      2.280      6.534
  Name = 
  5 active torsions:
  status: ('A' for Active; 'I' for Inactive)
    1  A    between atoms: C_1  and  C_4
    2  A    between atoms: C_1  and  C_27
    3  A    between atoms: C_2  and  O_14
    4  A    between atoms: C_16  and  C_27
    5  A    between atoms: C_19  and  C_26
                            x       y       z     vdW  Elec       q    Type
                         _______ _______ _______ _____ _____    ______ ____

>  <TORSDO>
F 5

$$$$
=
 OpenBabel11052419063D

 32 37  0  0  1  0  0  0  0  0999 V2000
  194.0010  174.2640  141.8400 C   0  0  1  0  0  3  0  0  0  0  0  0
  194.0760  173.6650  143.2600 C   0  0  1  0  0  3  0  0  0  0  0  0
  196.5730  174.6830  141.9740 C   0  0  2  0  0  3  0  0  0  0  0  0
  192.7530  175.8210  146.4600 C   0  0  0  0  0  2  0  0  0  0  0  0
  195.2580  174.0830  144.1510 C   0  0  1  0  0  3  0  0  0  0  0  0
  194.5670  177.4260  145.7450 C   0  0  0  0  0  2  0  0  0  0  0  0
  195.1960  176.2500  145.0410 C   0  0  0  0  0  0  0  0  0  0  0  0
  196.3380  174.9250  143.4670 C   0  0  2  0  0  3  0  0  0  0  0  0
  196.0750  176.3800  143.8470 C   0  0  0  0  0  2  0  0  0  0  0  0
  195.3590  174.3740  141.1220 C   0  0  1  0  0  3  0  0  0  0  0  0
  192.8240  173.4370  145.5540 C   0  0  0  0  0  2  0  0  0  0  0  0
  197.1190  173.4020  141.7770 O   0  0  0  0  0  0  0  0  0  0  0  0
  192.7460  173.2770  144.0070 C   0  0  1  0  0  0  0  0  0  0  0  0
  194.7530  175.0030  145.1870 C   0  0  0  0  0  0  0  0  0  0  0  0
  196.0310  173.0320  140.9650 C   0  0  0  0  0  2  0  0  0  0  0  0
  193.6430  176.9890  146.8910 C   0  0  0  0  0  2  0  0  0  0  0  0
  193.6320  174.6220  146.1060 C   0  0  1  0  0  3  0  0  0  0  0  0
  189.1680  174.1300  142.7020 C   0  0  0  0  0  3  0  0  0  0  0  0
  190.4860  176.1420  142.7980 C   0  0  0  0  0  3  0  0  0  0  0  0
  191.4720  174.0130  143.5280 C   0  0  0  0  0  0  0  0  0  0  0  0
  189.2810  175.5100  142.5090 C   0  0  0  0  0  0  0  0  0  0  0  0
  191.5610  175.4020  143.2900 C   0  0  0  0  0  3  0  0  0  0  0  0
  190.2400  173.3780  143.1920 C   0  0  0  0  0  0  0  0  0  0  0  0
  189.9880  171.9230  143.3460 C   0  0  0  0  0  1  0  0  0  0  0  0
  188.4520  177.8040  142.0290 C   0  0  0  0  0  1  0  0  0  0  0  0
  186.8640  176.0320  142.7630 C   0  0  0  0  0  1  0  0  0  0  0  0
  188.1360  176.3200  141.9870 C   0  0  0  0  0  3  0  0  0  0  0  0
  193.1140  173.5240  141.0460 O   0  0  0  0  0  0  0  0  0  0  0  0
  192.8540  174.3250  139.9320 C   0  0  0  0  0  1  0  0  0  0  0  0
  192.5820  171.7630  143.7410 C   0  0  0  0  0  2  0  0  0  0  0  0
  193.4920  170.8790  144.5890 C   0  0  0  0  0  2  0  0  0  0  0  0
  192.9720  169.5890  144.6370 O   0  0  0  0  0  1  0  0  0  0  0  0
  1 28  1  6  0  0  0
  1  2  1  0  0  0  0
  2 13  1  0  0  0  0
  2  5  1  0  0  0  0
  3  8  1  0  0  0  0
  4 16  1  0  0  0  0
  5 14  1  0  0  0  0
  6 16  1  0  0  0  0
  7 14  2  0  0  0  0
  7  6  1  0  0  0  0
  8  9  1  0  0  0  0
  8  5  1  0  0  0  0
  9  7  1  0  0  0  0
 10  1  1  0  0  0  0
 10  3  1  0  0  0  0
 11 17  1  0  0  0  0
 12  3  1  0  0  0  0
 13 11  1  0  0  0  0
 14 17  1  0  0  0  0
 15 10  1  0  0  0  0
 15 12  1  0  0  0  0
 17  4  1  0  0  0  0
 18 23  1  0  0  0  0
 19 22  2  0  0  0  0
 20 13  1  0  0  0  0
 21 18  2  0  0  0  0
 21 19  1  0  0  0  0
 22 20  1  0  0  0  0
 23 24  1  0  0  0  0
 23 20  2  0  0  0  0
 27 25  1  0  0  0  0
 27 21  1  0  0  0  0
 27 26  1  0  0  0  0
 29 28  1  0  0  0  0
 30 13  1  0  0  0  0
 30 31  1  0  0  0  0
 31 32  1  0  0  0  0
M  END
>  <MODEL>
7

>  <REMARK>
 VINA RESULT:      -6.0      2.857      6.844
  Name = 
  5 active torsions:
  status: ('A' for Active; 'I' for Inactive)
    1  A    between atoms: C_1  and  C_4
    2  A    between atoms: C_1  and  C_27
    3  A    between atoms: C_2  and  O_14
    4  A    between atoms: C_16  and  C_27
    5  A    between atoms: C_19  and  C_26
                            x       y       z     vdW  Elec       q    Type
                         _______ _______ _______ _____ _____    ______ ____

>  <TORSDO>
F 5

$$$$
=
 OpenBabel11052419063D

 32 37  0  0  1  0  0  0  0  0999 V2000
  190.3380  174.2030  145.2910 C   0  0  1  0  0  3  0  0  0  0  0  0
  190.8890  175.3630  144.4340 C   0  0  1  0  0  3  0  0  0  0  0  0
  190.4040  175.8060  147.3490 C   0  0  2  0  0  3  0  0  0  0  0  0
  194.8040  175.3800  143.2900 C   0  0  0  0  0  2  0  0  0  0  0  0
  191.6540  176.4850  145.1570 C   0  0  1  0  0  3  0  0  0  0  0  0
  195.2180  175.4350  145.7810 C   0  0  0  0  0  2  0  0  0  0  0  0
  193.8160  175.9770  145.9040 C   0  0  0  0  0  0  0  0  0  0  0  0
  191.6410  176.4170  146.6860 C   0  0  2  0  0  3  0  0  0  0  0  0
  192.9690  175.8010  147.1160 C   0  0  0  0  0  2  0  0  0  0  0  0
  189.7470  174.6360  146.6450 C   0  0  1  0  0  3  0  0  0  0  0  0
  192.4760  175.9840  142.4400 C   0  0  0  0  0  2  0  0  0  0  0  0
  189.2900  176.6390  147.1450 O   0  0  0  0  0  0  0  0  0  0  0  0
  191.2990  175.0950  142.9390 C   0  0  1  0  0  0  0  0  0  0  0  0
  193.0890  176.3380  144.8500 C   0  0  0  0  0  0  0  0  0  0  0  0
  188.6020  175.6040  146.4850 C   0  0  0  0  0  2  0  0  0  0  0  0
  195.8190  175.6940  144.3910 C   0  0  0  0  0  2  0  0  0  0  0  0
  193.5970  176.3060  143.4400 C   0  0  1  0  0  3  0  0  0  0  0  0
  191.3480  171.5030  141.4120 C   0  0  0  0  0  3  0  0  0  0  0  0
  192.9340  171.6260  143.2180 C   0  0  0  0  0  3  0  0  0  0  0  0
  191.6490  173.6270  142.5970 C   0  0  0  0  0  0  0  0  0  0  0  0
  192.3160  170.8900  142.2140 C   0  0  0  0  0  0  0  0  0  0  0  0
  192.5990  172.9670  143.4090 C   0  0  0  0  0  3  0  0  0  0  0  0
  191.0010  172.8440  141.5960 C   0  0  0  0  0  0  0  0  0  0  0  0
  189.9570  173.3700  140.6800 C   0  0  0  0  0  1  0  0  0  0  0  0
  191.4660  168.5950  141.7720 C   0  0  0  0  0  1  0  0  0  0  0  0
  193.4680  168.9270  143.2150 C   0  0  0  0  0  1  0  0  0  0  0  0
  192.6930  169.4540  142.0210 C   0  0  0  0  0  3  0  0  0  0  0  0
  189.3750  173.4840  144.5720 O   0  0  0  0  0  0  0  0  0  0  0  0
  189.5100  172.1580  144.9920 C   0  0  0  0  0  1  0  0  0  0  0  0
  190.0610  175.5210  142.1170 C   0  0  0  0  0  2  0  0  0  0  0  0
  189.1980  176.5790  142.7950 C   0  0  0  0  0  2  0  0  0  0  0  0
  189.3900  177.8070  142.1660 O   0  0  0  0  0  1  0  0  0  0  0  0
  1 28  1  6  0  0  0
  1 10  1  0  0  0  0
  2  5  1  0  0  0  0
  2  1  1  0  0  0  0
  4 17  1  0  0  0  0
  4 16  1  0  0  0  0
  5  8  1  0  0  0  0
  6  7  1  0  0  0  0
  7  9  1  0  0  0  0
  8  9  1  0  0  0  0
  8  3  1  0  0  0  0
 10  3  1  0  0  0  0
 11 13  1  0  0  0  0
 11 17  1  0  0  0  0
 12  3  1  0  0  0  0
 13  2  1  0  0  0  0
 14  5  1  0  0  0  0
 14  7  2  0  0  0  0
 15 10  1  0  0  0  0
 15 12  1  0  0  0  0
 16  6  1  0  0  0  0
 17 14  1  0  0  0  0
 18 23  2  0  0  0  0
 18 21  1  0  0  0  0
 19 22  1  0  0  0  0
 20 13  1  0  0  0  0
 20 22  2  0  0  0  0
 21 19  2  0  0  0  0
 23 20  1  0  0  0  0
 24 23  1  0  0  0  0
 25 27  1  0  0  0  0
 27 21  1  0  0  0  0
 27 26  1  0  0  0  0
 28 29  1  0  0  0  0
 30 31  1  0  0  0  0
 30 13  1  0  0  0  0
 32 31  1  0  0  0  0
M  END
>  <MODEL>
8

>  <REMARK>
 VINA RESULT:      -5.9      1.765      5.564
  Name = 
  5 active torsions:
  status: ('A' for Active; 'I' for Inactive)
    1  A    between atoms: C_1  and  C_4
    2  A    between atoms: C_1  and  C_27
    3  A    between atoms: C_2  and  O_14
    4  A    between atoms: C_16  and  C_27
    5  A    between atoms: C_19  and  C_26
                            x       y       z     vdW  Elec       q    Type
                         _______ _______ _______ _____ _____    ______ ____

>  <TORSDO>
F 5

$$$$
=
 OpenBabel11052419063D

 32 37  0  0  1  0  0  0  0  0999 V2000
  192.8460  174.1310  145.1820 C   0  0  1  0  0  3  0  0  0  0  0  0
  193.0790  174.2100  143.6590 C   0  0  1  0  0  3  0  0  0  0  0  0
  194.3600  172.0050  145.2160 C   0  0  2  0  0  3  0  0  0  0  0  0
  190.1410  173.0500  141.0790 C   0  0  0  0  0  2  0  0  0  0  0  0
  193.4850  172.9180  142.9290 C   0  0  1  0  0  3  0  0  0  0  0  0
  190.4410  170.8150  142.2160 C   0  0  0  0  0  2  0  0  0  0  0  0
  191.8090  171.3110  142.6150 C   0  0  0  0  0  0  0  0  0  0  0  0
  193.7840  171.7150  143.8280 C   0  0  2  0  0  3  0  0  0  0  0  0
  192.5370  170.8350  143.8220 C   0  0  0  0  0  2  0  0  0  0  0  0
  193.8500  173.2380  145.9350 C   0  0  1  0  0  3  0  0  0  0  0  0
  191.9750  174.8010  141.3530 C   0  0  0  0  0  2  0  0  0  0  0  0
  195.6580  172.5330  145.0960 O   0  0  0  0  0  0  0  0  0  0  0  0
  192.2820  175.2660  142.8080 C   0  0  1  0  0  0  0  0  0  0  0  0
  192.3270  172.4450  142.1480 C   0  0  0  0  0  0  0  0  0  0  0  0
  195.2730  173.7100  145.7630 C   0  0  0  0  0  2  0  0  0  0  0  0
  189.9000  171.5420  140.9770 C   0  0  0  0  0  2  0  0  0  0  0  0
  191.6440  173.3160  141.1380 C   0  0  1  0  0  3  0  0  0  0  0  0
  189.4500  177.4370  144.3910 C   0  0  0  0  0  3  0  0  0  0  0  0
  188.7940  175.1220  144.4190 C   0  0  0  0  0  3  0  0  0  0  0  0
  190.9510  175.7560  143.4290 C   0  0  0  0  0  0  0  0  0  0  0  0
  188.5130  176.4510  144.7130 C   0  0  0  0  0  0  0  0  0  0  0  0
  189.9960  174.7830  143.7970 C   0  0  0  0  0  3  0  0  0  0  0  0
  190.6590  177.1100  143.7700 C   0  0  0  0  0  0  0  0  0  0  0  0
  191.5660  178.2510  143.4870 C   0  0  0  0  0  1  0  0  0  0  0  0
  186.7320  178.1700  144.9510 C   0  0  0  0  0  1  0  0  0  0  0  0
  187.3400  176.7280  146.8880 C   0  0  0  0  0  1  0  0  0  0  0  0
  187.2160  176.7960  145.3760 C   0  0  0  0  0  3  0  0  0  0  0  0
  192.8550  175.4150  145.7420 O   0  0  0  0  0  0  0  0  0  0  0  0
  192.0780  175.3220  146.8990 C   0  0  0  0  0  1  0  0  0  0  0  0
  193.2480  176.4670  142.6790 C   0  0  0  0  0  2  0  0  0  0  0  0
  194.6940  176.0730  142.3940 C   0  0  0  0  0  2  0  0  0  0  0  0
  195.1440  176.7500  141.2630 O   0  0  0  0  0  1  0  0  0  0  0  0
  1 28  1  1  0  0  0
  1 10  1  0  0  0  0
  2  1  1  0  0  0  0
  3 10  1  0  0  0  0
  4 17  1  0  0  0  0
  5  2  1  0  0  0  0
  5  8  1  0  0  0  0
  6  7  1  0  0  0  0
  7  9  1  0  0  0  0
  8  3  1  0  0  0  0
  9  8  1  0  0  0  0
 11 13  1  0  0  0  0
 12  3  1  0  0  0  0
 12 15  1  0  0  0  0
 13 20  1  0  0  0  0
 13  2  1  0  0  0  0
 14  7  2  0  0  0  0
 14  5  1  0  0  0  0
 15 10  1  0  0  0  0
 16  4  1  0  0  0  0
 16  6  1  0  0  0  0
 17 11  1  0  0  0  0
 17 14  1  0  0  0  0
 18 21  1  0  0  0  0
 19 21  2  0  0  0  0
 20 23  1  0  0  0  0
 20 22  2  0  0  0  0
 21 27  1  0  0  0  0
 22 19  1  0  0  0  0
 23 18  2  0  0  0  0
 24 23  1  0  0  0  0
 25 27  1  0  0  0  0
 27 26  1  0  0  0  0
 28 29  1  0  0  0  0
 30 13  1  0  0  0  0
 31 30  1  0  0  0  0
 32 31  1  0  0  0  0
M  END
>  <MODEL>
9

>  <REMARK>
 VINA RESULT:      -5.9      2.345      5.947
  Name = 
  5 active torsions:
  status: ('A' for Active; 'I' for Inactive)
    1  A    between atoms: C_1  and  C_4
    2  A    between atoms: C_1  and  C_27
    3  A    between atoms: C_2  and  O_14
    4  A    between atoms: C_16  and  C_27
    5  A    between atoms: C_19  and  C_26
                            x       y       z     vdW  Elec       q    Type
                         _______ _______ _______ _____ _____    ______ ____

>  <TORSDO>
F 5

$$$$
