=
 OpenBabel11052420093D

 37 39  0  0  1  0  0  0  0  0999 V2000
  189.8360  174.4760  146.7170 O   0  0  0  0  0  1  0  0  0  0  0  0
  189.7910  175.1710  145.5010 C   0  0  1  0  0  0  0  0  0  0  0  0
  194.0470  177.1400  146.9220 O   0  0  0  0  0  1  0  0  0  0  0  0
  190.7500  177.5790  144.7850 C   0  0  0  0  0  2  0  0  0  0  0  0
  191.6750  176.4640  144.3200 C   0  0  2  0  0  3  0  0  0  0  0  0
  193.2090  176.2870  146.2080 C   0  0  0  0  0  0  0  0  0  0  0  0
  190.8550  176.2980  145.5900 C   0  0  2  0  0  0  0  0  0  0  0  0
  193.7050  174.9840  146.2590 O   0  0  0  0  0  1  0  0  0  0  0  0
  193.0990  176.7410  144.7670 C   0  0  0  0  0  2  0  0  0  0  0  0
  191.8080  176.3270  146.7780 C   0  0  0  0  0  2  0  0  0  0  0  0
  190.0550  174.1590  144.3470 C   0  0  2  0  0  3  0  0  0  0  0  0
  189.5260  174.4620  141.8840 C   0  0  0  0  0  0  0  0  0  0  0  0
  189.1400  174.2880  143.1480 C   0  0  0  0  0  3  0  0  0  0  0  0
  190.8660  174.5800  141.5430 O   0  0  0  0  0  1  0  0  0  0  0  0
  188.4950  174.5490  140.8170 C   0  0  0  0  0  1  0  0  0  0  0  0
  190.2170  172.7130  144.8200 C   0  0  0  0  0  2  0  0  0  0  0  0
  190.8790  171.8690  143.7440 C   0  0  0  0  0  2  0  0  0  0  0  0
  193.0700  172.0680  144.5590 C   0  0  0  0  0  2  0  0  0  0  0  0
  191.9840  171.1200  144.3160 N   0  0  0  0  0  0  0  0  0  0  0  0
  192.4190  170.1710  143.2900 C   0  0  0  0  0  2  0  0  0  0  0  0
  193.1880  168.3960  144.8960 C   0  0  0  0  0  1  0  0  0  0  0  0
  194.7500  170.2530  144.2360 C   0  0  0  0  0  2  0  0  0  0  0  0
  193.6080  169.3400  143.7830 C   0  0  2  0  0  3  0  0  0  0  0  0
  194.2560  171.3420  145.1870 C   0  0  0  0  0  2  0  0  0  0  0  0
  188.4110  175.8380  145.3510 C   0  0  0  0  0  2  0  0  0  0  0  0
  187.7910  176.2330  146.6870 C   0  0  0  0  0  2  0  0  0  0  0  0
  186.3790  176.7540  146.4890 C   0  0  0  0  0  2  0  0  0  0  0  0
  186.3800  178.2340  146.1180 C   0  0  2  0  0  3  0  0  0  0  0  0
  185.3950  178.9410  147.0340 C   0  0  0  0  0  1  0  0  0  0  0  0
  185.1870  179.7280  144.4820 C   0  0  0  0  0  1  0  0  0  0  0  0
  185.9970  178.4490  144.6450 C   0  0  1  0  0  3  0  0  0  0  0  0
  187.3250  177.9360  142.5780 C   0  0  0  0  0  0  0  0  0  0  0  0
  187.2160  178.5400  143.7700 C   0  0  0  0  0  3  0  0  0  0  0  0
  188.5750  178.1270  141.7920 C   0  0  0  0  0  1  0  0  0  0  0  0
  186.2260  177.1030  141.9900 C   0  0  0  0  0  2  0  0  0  0  0  0
  185.4310  177.9070  140.9770 C   0  0  0  0  0  2  0  0  0  0  0  0
  184.1380  178.1090  141.4560 O   0  0  0  0  0  1  0  0  0  0  0  0
  2  1  1  1  0  0  0
  4  7  1  0  0  0  0
  5  9  1  1  0  0  0
  5  4  1  0  0  0  0
  5  7  1  0  0  0  0
  6  8  1  0  0  0  0
  6 10  1  0  0  0  0
  6  3  1  0  0  0  0
  7  2  1  1  0  0  0
  7 10  1  0  0  0  0
  9  6  1  0  0  0  0
 11 13  1  6  0  0  0
 11 16  1  0  0  0  0
 11  2  1  0  0  0  0
 12 13  2  0  0  0  0
 14 12  1  0  0  0  0
 15 12  1  0  0  0  0
 17 19  1  0  0  0  0
 17 16  1  0  0  0  0
 18 24  1  0  0  0  0
 19 18  1  0  0  0  0
 20 23  1  0  0  0  0
 20 19  1  0  0  0  0
 22 24  1  0  0  0  0
 23 22  1  0  0  0  0
 23 21  1  1  0  0  0
 25  2  1  0  0  0  0
 25 26  1  0  0  0  0
 27 26  1  0  0  0  0
 28 27  1  0  0  0  0
 28 29  1  1  0  0  0
 31 30  1  1  0  0  0
 31 28  1  0  0  0  0
 32 33  2  0  0  0  0
 33 31  1  0  0  0  0
 34 32  1  0  0  0  0
 35 32  1  0  0  0  0
 36 37  1  0  0  0  0
 36 35  1  0  0  0  0
M  END
>  <MODEL>
1

>  <REMARK>
 VINA RESULT:      -6.9      0.000      0.000
  Name = 
  14 active torsions:
  status: ('A' for Active; 'I' for Inactive)
    1  A    between atoms: C_1  and  C_5
    2  A    between atoms: C_1  and  C_36
    3  A    between atoms: C_5  and  C_17
    4  A    between atoms: N_6  and  C_31
    5  A    between atoms: C_7  and  C_33
    6  A    between atoms: C_10  and  C_14
    7  A    between atoms: C_10  and  C_20
    8  A    between atoms: C_10  and  C_22
    9  A    between atoms: C_11  and  C_33
   10  A    between atoms: C_14  and  C_31
   11  A    between atoms: C_17  and  C_26
   12  A    between atoms: C_20  and  C_24
   13  A    between atoms: C_20  and  C_29
   14  A    between atoms: C_29  and  C_36
                            x       y       z     vdW  Elec       q    Type
                         _______ _______ _______ _____ _____    ______ ____

>  <TORSDO>
F 14

$$$$
=
 OpenBabel11052420093D

 37 39  0  0  1  0  0  0  0  0999 V2000
  192.8580  175.4940  145.6190 O   0  0  0  0  0  1  0  0  0  0  0  0
  193.1040  175.2220  144.2660 C   0  0  1  0  0  0  0  0  0  0  0  0
  197.2720  175.3320  141.6910 O   0  0  0  0  0  1  0  0  0  0  0  0
  195.5990  175.2190  145.2720 C   0  0  0  0  0  2  0  0  0  0  0  0
  195.3330  176.4880  144.4770 C   0  0  2  0  0  3  0  0  0  0  0  0
  196.1040  175.8410  142.2550 C   0  0  0  0  0  0  0  0  0  0  0  0
  194.6470  175.1870  144.0910 C   0  0  2  0  0  0  0  0  0  0  0  0
  195.4050  176.5870  141.3050 O   0  0  0  0  0  1  0  0  0  0  0  0
  196.4320  176.7090  143.4530 C   0  0  0  0  0  2  0  0  0  0  0  0
  195.2330  174.7150  142.7670 C   0  0  0  0  0  2  0  0  0  0  0  0
  192.4090  173.8770  143.9000 C   0  0  2  0  0  3  0  0  0  0  0  0
  190.2640  173.7320  142.5520 C   0  0  0  0  0  0  0  0  0  0  0  0
  190.9110  173.9550  143.6960 C   0  0  0  0  0  3  0  0  0  0  0  0
  190.9440  173.4270  141.3810 O   0  0  0  0  0  1  0  0  0  0  0  0
  188.7820  173.8310  142.5260 C   0  0  0  0  0  1  0  0  0  0  0  0
  192.8280  172.7040  144.7880 C   0  0  0  0  0  2  0  0  0  0  0  0
  193.2070  171.5010  143.9410 C   0  0  0  0  0  2  0  0  0  0  0  0
  194.6090  169.6550  144.3000 C   0  0  0  0  0  2  0  0  0  0  0  0
  194.5780  171.1140  144.2200 N   0  0  0  0  0  0  0  0  0  0  0  0
  194.9040  171.6570  145.5410 C   0  0  0  0  0  2  0  0  0  0  0  0
  197.3520  171.9960  145.0780 C   0  0  0  0  0  1  0  0  0  0  0  0
  196.5260  169.7650  145.8920 C   0  0  0  0  0  2  0  0  0  0  0  0
  196.3320  171.2820  145.9490 C   0  0  2  0  0  3  0  0  0  0  0  0
  196.0350  169.1840  144.5670 C   0  0  0  0  0  2  0  0  0  0  0  0
  192.5590  176.3810  143.4120 C   0  0  0  0  0  2  0  0  0  0  0  0
  191.9620  177.5080  144.2470 C   0  0  0  0  0  2  0  0  0  0  0  0
  190.8890  178.2440  143.4640 C   0  0  0  0  0  2  0  0  0  0  0  0
  189.6100  177.4190  143.3630 C   0  0  2  0  0  3  0  0  0  0  0  0
  188.8300  177.9190  142.1590 C   0  0  0  0  0  1  0  0  0  0  0  0
  187.3190  177.8820  144.2970 C   0  0  0  0  0  1  0  0  0  0  0  0
  188.7610  177.5320  144.6400 C   0  0  1  0  0  3  0  0  0  0  0  0
  189.3510  176.1030  146.6180 C   0  0  0  0  0  0  0  0  0  0  0  0
  188.7680  176.2460  145.4190 C   0  0  0  0  0  3  0  0  0  0  0  0
  189.2630  174.7840  147.3020 C   0  0  0  0  0  1  0  0  0  0  0  0
  190.0570  177.2280  147.3130 C   0  0  0  0  0  2  0  0  0  0  0  0
  191.1980  176.7000  148.1610 C   0  0  0  0  0  2  0  0  0  0  0  0
  191.5570  177.6580  149.1070 O   0  0  0  0  0  1  0  0  0  0  0  0
  2  1  1  1  0  0  0
  3  6  1  0  0  0  0
  5  9  1  6  0  0  0
  5  4  1  0  0  0  0
  6 10  1  0  0  0  0
  6  9  1  0  0  0  0
  7  2  1  1  0  0  0
  7  5  1  0  0  0  0
  7  4  1  0  0  0  0
  8  6  1  0  0  0  0
 10  7  1  0  0  0  0
 11 13  1  1  0  0  0
 11  2  1  0  0  0  0
 11 16  1  0  0  0  0
 12 13  2  0  0  0  0
 14 12  1  0  0  0  0
 15 12  1  0  0  0  0
 17 19  1  0  0  0  0
 17 16  1  0  0  0  0
 18 24  1  0  0  0  0
 19 18  1  0  0  0  0
 19 20  1  0  0  0  0
 20 23  1  0  0  0  0
 22 23  1  0  0  0  0
 23 21  1  6  0  0  0
 24 22  1  0  0  0  0
 25 26  1  0  0  0  0
 25  2  1  0  0  0  0
 27 26  1  0  0  0  0
 28 29  1  6  0  0  0
 28 27  1  0  0  0  0
 28 31  1  0  0  0  0
 31 30  1  6  0  0  0
 31 33  1  0  0  0  0
 32 34  1  0  0  0  0
 32 35  1  0  0  0  0
 33 32  2  0  0  0  0
 35 36  1  0  0  0  0
 36 37  1  0  0  0  0
M  END
>  <MODEL>
2

>  <REMARK>
 VINA RESULT:      -6.5      2.330      4.677
  Name = 
  14 active torsions:
  status: ('A' for Active; 'I' for Inactive)
    1  A    between atoms: C_1  and  C_5
    2  A    between atoms: C_1  and  C_36
    3  A    between atoms: C_5  and  C_17
    4  A    between atoms: N_6  and  C_31
    5  A    between atoms: C_7  and  C_33
    6  A    between atoms: C_10  and  C_14
    7  A    between atoms: C_10  and  C_20
    8  A    between atoms: C_10  and  C_22
    9  A    between atoms: C_11  and  C_33
   10  A    between atoms: C_14  and  C_31
   11  A    between atoms: C_17  and  C_26
   12  A    between atoms: C_20  and  C_24
   13  A    between atoms: C_20  and  C_29
   14  A    between atoms: C_29  and  C_36
                            x       y       z     vdW  Elec       q    Type
                         _______ _______ _______ _____ _____    ______ ____

>  <TORSDO>
F 14

$$$$
=
 OpenBabel11052420093D

 37 39  0  0  1  0  0  0  0  0999 V2000
  190.3970  177.2250  143.9500 O   0  0  0  0  0  1  0  0  0  0  0  0
  190.3000  175.8710  143.6000 C   0  0  1  0  0  0  0  0  0  0  0  0
  191.3110  175.3250  148.3630 O   0  0  0  0  0  1  0  0  0  0  0  0
  190.3010  173.5590  144.9730 C   0  0  0  0  0  2  0  0  0  0  0  0
  189.2650  174.5230  145.5300 C   0  0  2  0  0  3  0  0  0  0  0  0
  190.5510  175.6790  147.2500 C   0  0  0  0  0  0  0  0  0  0  0  0
  190.5410  175.0550  144.8990 C   0  0  2  0  0  0  0  0  0  0  0  0
  190.0120  176.9530  147.4300 O   0  0  0  0  0  1  0  0  0  0  0  0
  189.4380  174.6750  147.0310 C   0  0  0  0  0  2  0  0  0  0  0  0
  191.4050  175.6530  146.0020 C   0  0  0  0  0  2  0  0  0  0  0  0
  188.8990  175.6260  142.9650 C   0  0  2  0  0  3  0  0  0  0  0  0
  188.5050  173.7850  141.2640 C   0  0  0  0  0  0  0  0  0  0  0  0
  188.9110  175.0150  141.5810 C   0  0  0  0  0  3  0  0  0  0  0  0
  188.0440  172.9020  142.2300 O   0  0  0  0  0  1  0  0  0  0  0  0
  188.5640  173.3450  139.8460 C   0  0  0  0  0  1  0  0  0  0  0  0
  187.9520  176.8230  143.0810 C   0  0  0  0  0  2  0  0  0  0  0  0
  186.5150  176.3560  143.2290 C   0  0  0  0  0  2  0  0  0  0  0  0
  184.9970  177.8870  144.1530 C   0  0  0  0  0  2  0  0  0  0  0  0
  185.9650  176.8420  144.4820 N   0  0  0  0  0  0  0  0  0  0  0  0
  187.0760  177.4560  145.2130 C   0  0  0  0  0  2  0  0  0  0  0  0
  186.1940  176.9210  147.5060 C   0  0  0  0  0  1  0  0  0  0  0  0
  185.4480  179.0150  146.3310 C   0  0  0  0  0  2  0  0  0  0  0  0
  186.5990  178.0300  146.5510 C   0  0  2  0  0  3  0  0  0  0  0  0
  184.3630  178.4220  145.4330 C   0  0  0  0  0  2  0  0  0  0  0  0
  191.4270  175.5250  142.6100 C   0  0  0  0  0  2  0  0  0  0  0  0
  192.5660  176.5380  142.6240 C   0  0  0  0  0  2  0  0  0  0  0  0
  193.9110  175.8340  142.5560 C   0  0  0  0  0  2  0  0  0  0  0  0
  193.9690  174.6540  143.5200 C   0  0  2  0  0  3  0  0  0  0  0  0
  194.9200  175.0240  144.6460 C   0  0  0  0  0  1  0  0  0  0  0  0
  195.9570  173.3480  142.6990 C   0  0  0  0  0  1  0  0  0  0  0  0
  194.4400  173.3700  142.8170 C   0  0  1  0  0  3  0  0  0  0  0  0
  192.8930  171.4470  143.2740 C   0  0  0  0  0  0  0  0  0  0  0  0
  194.0000  172.1430  143.5660 C   0  0  0  0  0  3  0  0  0  0  0  0
  192.5820  170.2300  144.0730 C   0  0  0  0  0  1  0  0  0  0  0  0
  191.9730  171.8250  142.1520 C   0  0  0  0  0  2  0  0  0  0  0  0
  190.8460  170.8170  142.0220 C   0  0  0  0  0  2  0  0  0  0  0  0
  190.5780  170.5900  140.6730 O   0  0  0  0  0  1  0  0  0  0  0  0
  2  1  1  1  0  0  0
  5  4  1  1  0  0  0
  5  9  1  0  0  0  0
  6  8  1  0  0  0  0
  6  3  1  0  0  0  0
  7  2  1  6  0  0  0
  7  4  1  0  0  0  0
  7  5  1  0  0  0  0
  7 10  1  0  0  0  0
  9  6  1  0  0  0  0
 10  6  1  0  0  0  0
 11 13  1  6  0  0  0
 11 16  1  0  0  0  0
 11  2  1  0  0  0  0
 12 13  2  0  0  0  0
 12 14  1  0  0  0  0
 15 12  1  0  0  0  0
 16 17  1  0  0  0  0
 17 19  1  0  0  0  0
 18 19  1  0  0  0  0
 18 24  1  0  0  0  0
 19 20  1  0  0  0  0
 20 23  1  0  0  0  0
 22 23  1  0  0  0  0
 23 21  1  1  0  0  0
 24 22  1  0  0  0  0
 25 26  1  0  0  0  0
 25  2  1  0  0  0  0
 27 26  1  0  0  0  0
 27 28  1  0  0  0  0
 28 29  1  1  0  0  0
 31 30  1  1  0  0  0
 31 28  1  0  0  0  0
 31 33  1  0  0  0  0
 32 33  2  0  0  0  0
 32 34  1  0  0  0  0
 35 32  1  0  0  0  0
 36 35  1  0  0  0  0
 37 36  1  0  0  0  0
M  END
>  <MODEL>
3

>  <REMARK>
 VINA RESULT:      -6.5      2.487      7.525
  Name = 
  14 active torsions:
  status: ('A' for Active; 'I' for Inactive)
    1  A    between atoms: C_1  and  C_5
    2  A    between atoms: C_1  and  C_36
    3  A    between atoms: C_5  and  C_17
    4  A    between atoms: N_6  and  C_31
    5  A    between atoms: C_7  and  C_33
    6  A    between atoms: C_10  and  C_14
    7  A    between atoms: C_10  and  C_20
    8  A    between atoms: C_10  and  C_22
    9  A    between atoms: C_11  and  C_33
   10  A    between atoms: C_14  and  C_31
   11  A    between atoms: C_17  and  C_26
   12  A    between atoms: C_20  and  C_24
   13  A    between atoms: C_20  and  C_29
   14  A    between atoms: C_29  and  C_36
                            x       y       z     vdW  Elec       q    Type
                         _______ _______ _______ _____ _____    ______ ____

>  <TORSDO>
F 14

$$$$
=
 OpenBabel11052420093D

 37 39  0  0  1  0  0  0  0  0999 V2000
  190.5270  177.0670  143.7530 O   0  0  0  0  0  1  0  0  0  0  0  0
  190.4030  175.6990  143.4750 C   0  0  1  0  0  0  0  0  0  0  0  0
  191.2950  175.3920  148.2840 O   0  0  0  0  0  1  0  0  0  0  0  0
  190.3540  173.4600  144.9650 C   0  0  0  0  0  2  0  0  0  0  0  0
  189.3110  174.4580  145.4460 C   0  0  2  0  0  3  0  0  0  0  0  0
  190.5640  175.6930  147.1360 C   0  0  0  0  0  0  0  0  0  0  0  0
  190.6070  174.9490  144.8190 C   0  0  2  0  0  0  0  0  0  0  0  0
  190.0300  176.9780  147.2370 O   0  0  0  0  0  1  0  0  0  0  0  0
  189.4500  174.6850  146.9410 C   0  0  0  0  0  2  0  0  0  0  0  0
  191.4480  175.5970  145.9110 C   0  0  0  0  0  2  0  0  0  0  0  0
  189.0050  175.4520  142.8340 C   0  0  2  0  0  3  0  0  0  0  0  0
  188.4960  173.5990  141.1770 C   0  0  0  0  0  0  0  0  0  0  0  0
  189.0230  174.7870  141.4740 C   0  0  0  0  0  3  0  0  0  0  0  0
  187.8840  172.8140  142.1440 O   0  0  0  0  0  1  0  0  0  0  0  0
  188.5820  173.0960  139.7820 C   0  0  0  0  0  1  0  0  0  0  0  0
  188.0780  176.6680  142.8900 C   0  0  0  0  0  2  0  0  0  0  0  0
  186.6310  176.2300  143.0350 C   0  0  0  0  0  2  0  0  0  0  0  0
  185.1040  177.7820  143.9110 C   0  0  0  0  0  2  0  0  0  0  0  0
  186.0790  176.7540  144.2720 N   0  0  0  0  0  0  0  0  0  0  0  0
  187.1860  177.3980  144.9820 C   0  0  0  0  0  2  0  0  0  0  0  0
  186.3100  176.9330  147.2920 C   0  0  0  0  0  1  0  0  0  0  0  0
  185.5510  178.9830  146.0500 C   0  0  0  0  0  2  0  0  0  0  0  0
  186.7070  178.0130  146.3000 C   0  0  2  0  0  3  0  0  0  0  0  0
  184.4680  178.3550  145.1730 C   0  0  0  0  0  2  0  0  0  0  0  0
  191.5350  175.2740  142.5220 C   0  0  0  0  0  2  0  0  0  0  0  0
  192.6720  176.2880  142.4570 C   0  0  0  0  0  2  0  0  0  0  0  0
  193.8690  175.7050  141.7260 C   0  0  0  0  0  2  0  0  0  0  0  0
  195.1750  176.0550  142.4310 C   0  0  2  0  0  3  0  0  0  0  0  0
  196.0710  176.7550  141.4230 C   0  0  0  0  0  1  0  0  0  0  0  0
  197.3290  175.0950  143.3110 C   0  0  0  0  0  1  0  0  0  0  0  0
  195.8690  174.8030  142.9920 C   0  0  1  0  0  3  0  0  0  0  0  0
  194.4840  173.1820  144.3170 C   0  0  0  0  0  0  0  0  0  0  0  0
  195.1940  174.3170  144.2440 C   0  0  0  0  0  3  0  0  0  0  0  0
  193.8880  172.7940  145.6250 C   0  0  0  0  0  1  0  0  0  0  0  0
  194.2970  172.2690  143.1420 C   0  0  0  0  0  2  0  0  0  0  0  0
  195.0650  170.9760  143.3430 C   0  0  0  0  0  2  0  0  0  0  0  0
  196.4120  171.1850  143.0530 O   0  0  0  0  0  1  0  0  0  0  0  0
  2  1  1  1  0  0  0
  5  4  1  1  0  0  0
  5  9  1  0  0  0  0
  6  8  1  0  0  0  0
  6  3  1  0  0  0  0
  7  2  1  6  0  0  0
  7  4  1  0  0  0  0
  7  5  1  0  0  0  0
  7 10  1  0  0  0  0
  9  6  1  0  0  0  0
 10  6  1  0  0  0  0
 11 13  1  6  0  0  0
 11 16  1  0  0  0  0
 11  2  1  0  0  0  0
 12 13  2  0  0  0  0
 12 14  1  0  0  0  0
 15 12  1  0  0  0  0
 16 17  1  0  0  0  0
 17 19  1  0  0  0  0
 18 19  1  0  0  0  0
 18 24  1  0  0  0  0
 19 20  1  0  0  0  0
 20 23  1  0  0  0  0
 22 23  1  0  0  0  0
 23 21  1  1  0  0  0
 24 22  1  0  0  0  0
 25  2  1  0  0  0  0
 26 25  1  0  0  0  0
 27 28  1  0  0  0  0
 27 26  1  0  0  0  0
 28 29  1  6  0  0  0
 28 31  1  0  0  0  0
 31 30  1  1  0  0  0
 31 33  1  0  0  0  0
 32 34  1  0  0  0  0
 33 32  2  0  0  0  0
 35 36  1  0  0  0  0
 35 32  1  0  0  0  0
 37 36  1  0  0  0  0
M  END
>  <MODEL>
4

>  <REMARK>
 VINA RESULT:      -6.5      2.713      7.966
  Name = 
  14 active torsions:
  status: ('A' for Active; 'I' for Inactive)
    1  A    between atoms: C_1  and  C_5
    2  A    between atoms: C_1  and  C_36
    3  A    between atoms: C_5  and  C_17
    4  A    between atoms: N_6  and  C_31
    5  A    between atoms: C_7  and  C_33
    6  A    between atoms: C_10  and  C_14
    7  A    between atoms: C_10  and  C_20
    8  A    between atoms: C_10  and  C_22
    9  A    between atoms: C_11  and  C_33
   10  A    between atoms: C_14  and  C_31
   11  A    between atoms: C_17  and  C_26
   12  A    between atoms: C_20  and  C_24
   13  A    between atoms: C_20  and  C_29
   14  A    between atoms: C_29  and  C_36
                            x       y       z     vdW  Elec       q    Type
                         _______ _______ _______ _____ _____    ______ ____

>  <TORSDO>
F 14

$$$$
=
 OpenBabel11052420093D

 37 39  0  0  1  0  0  0  0  0999 V2000
  190.3050  174.5290  140.9690 O   0  0  0  0  0  1  0  0  0  0  0  0
  189.7050  174.1690  142.1830 C   0  0  1  0  0  0  0  0  0  0  0  0
  191.0760  169.7070  140.6940 O   0  0  0  0  0  1  0  0  0  0  0  0
  189.5280  171.8920  143.6030 C   0  0  0  0  0  2  0  0  0  0  0  0
  190.9750  172.2090  143.2600 C   0  0  2  0  0  3  0  0  0  0  0  0
  191.2500  171.0100  141.1530 C   0  0  0  0  0  0  0  0  0  0  0  0
  189.8570  172.6300  142.3190 C   0  0  2  0  0  0  0  0  0  0  0  0
  192.2350  171.6500  140.4010 O   0  0  0  0  0  1  0  0  0  0  0  0
  191.6410  171.0050  142.6170 C   0  0  0  0  0  2  0  0  0  0  0  0
  189.9500  171.7790  141.0590 C   0  0  0  0  0  2  0  0  0  0  0  0
  190.3970  174.9640  143.3290 C   0  0  2  0  0  3  0  0  0  0  0  0
  189.7950  174.9250  145.7930 C   0  0  0  0  0  0  0  0  0  0  0  0
  189.5280  175.2620  144.5310 C   0  0  0  0  0  3  0  0  0  0  0  0
  190.9340  174.2070  146.1280 O   0  0  0  0  0  1  0  0  0  0  0  0
  188.8410  175.3130  146.8640 C   0  0  0  0  0  1  0  0  0  0  0  0
  191.1830  176.1850  142.8450 C   0  0  0  0  0  2  0  0  0  0  0  0
  192.6620  175.8600  142.7330 C   0  0  0  0  0  2  0  0  0  0  0  0
  193.4700  176.4650  144.8500 C   0  0  0  0  0  2  0  0  0  0  0  0
  193.1460  175.3260  143.9940 N   0  0  0  0  0  0  0  0  0  0  0  0
  194.3850  174.6060  143.6930 C   0  0  0  0  0  2  0  0  0  0  0  0
  194.1360  172.9000  145.5230 C   0  0  0  0  0  1  0  0  0  0  0  0
  195.2170  175.1160  146.0130 C   0  0  0  0  0  2  0  0  0  0  0  0
  194.9990  174.0200  144.9680 C   0  0  2  0  0  3  0  0  0  0  0  0
  193.9620  175.9670  146.2060 C   0  0  0  0  0  2  0  0  0  0  0  0
  188.2000  174.4880  142.1150 C   0  0  0  0  0  2  0  0  0  0  0  0
  187.8420  175.4380  140.9770 C   0  0  0  0  0  2  0  0  0  0  0  0
  187.5240  176.8230  141.5150 C   0  0  0  0  0  2  0  0  0  0  0  0
  186.2540  176.8120  142.3600 C   0  0  2  0  0  3  0  0  0  0  0  0
  185.2620  177.7650  141.7140 C   0  0  0  0  0  1  0  0  0  0  0  0
  187.8360  178.0190  143.9010 C   0  0  0  0  0  1  0  0  0  0  0  0
  186.5360  177.2310  143.8120 C   0  0  1  0  0  3  0  0  0  0  0  0
  184.8720  177.8940  145.5700 C   0  0  0  0  0  0  0  0  0  0  0  0
  185.4240  178.0800  144.3630 C   0  0  0  0  0  3  0  0  0  0  0  0
  183.7960  178.8220  146.0150 C   0  0  0  0  0  1  0  0  0  0  0  0
  185.3190  176.8110  146.5060 C   0  0  0  0  0  2  0  0  0  0  0  0
  185.9390  177.4070  147.7560 C   0  0  0  0  0  2  0  0  0  0  0  0
  186.9470  178.2990  147.3960 O   0  0  0  0  0  1  0  0  0  0  0  0
  2  1  1  6  0  0  0
  2 11  1  0  0  0  0
  3  6  1  0  0  0  0
  5  9  1  6  0  0  0
  5  4  1  0  0  0  0
  6  9  1  0  0  0  0
  7  2  1  6  0  0  0
  7  5  1  0  0  0  0
  7  4  1  0  0  0  0
  8  6  1  0  0  0  0
 10  6  1  0  0  0  0
 10  7  1  0  0  0  0
 11 16  1  6  0  0  0
 11 13  1  0  0  0  0
 12 14  1  0  0  0  0
 12 15  1  0  0  0  0
 13 12  2  0  0  0  0
 17 16  1  0  0  0  0
 17 19  1  0  0  0  0
 18 24  1  0  0  0  0
 19 18  1  0  0  0  0
 20 19  1  0  0  0  0
 20 23  1  0  0  0  0
 22 24  1  0  0  0  0
 23 21  1  1  0  0  0
 23 22  1  0  0  0  0
 25  2  1  0  0  0  0
 26 27  1  0  0  0  0
 26 25  1  0  0  0  0
 27 28  1  0  0  0  0
 28 29  1  6  0  0  0
 28 31  1  0  0  0  0
 31 30  1  6  0  0  0
 31 33  1  0  0  0  0
 32 34  1  0  0  0  0
 32 35  1  0  0  0  0
 33 32  2  0  0  0  0
 35 36  1  0  0  0  0
 37 36  1  0  0  0  0
M  END
>  <MODEL>
5

>  <REMARK>
 VINA RESULT:      -6.5      2.182      5.212
  Name = 
  14 active torsions:
  status: ('A' for Active; 'I' for Inactive)
    1  A    between atoms: C_1  and  C_5
    2  A    between atoms: C_1  and  C_36
    3  A    between atoms: C_5  and  C_17
    4  A    between atoms: N_6  and  C_31
    5  A    between atoms: C_7  and  C_33
    6  A    between atoms: C_10  and  C_14
    7  A    between atoms: C_10  and  C_20
    8  A    between atoms: C_10  and  C_22
    9  A    between atoms: C_11  and  C_33
   10  A    between atoms: C_14  and  C_31
   11  A    between atoms: C_17  and  C_26
   12  A    between atoms: C_20  and  C_24
   13  A    between atoms: C_20  and  C_29
   14  A    between atoms: C_29  and  C_36
                            x       y       z     vdW  Elec       q    Type
                         _______ _______ _______ _____ _____    ______ ____

>  <TORSDO>
F 14

$$$$
=
 OpenBabel11052420093D

 37 39  0  0  1  0  0  0  0  0999 V2000
  191.8670  173.7650  144.7400 O   0  0  0  0  0  1  0  0  0  0  0  0
  192.4440  174.9930  144.3890 C   0  0  1  0  0  0  0  0  0  0  0  0
  189.6580  177.6530  147.4170 O   0  0  0  0  0  1  0  0  0  0  0  0
  193.2960  176.3920  146.5220 C   0  0  0  0  0  2  0  0  0  0  0  0
  192.3220  175.3010  146.9390 C   0  0  2  0  0  3  0  0  0  0  0  0
  190.1960  176.4940  146.8620 C   0  0  0  0  0  0  0  0  0  0  0  0
  192.1910  175.9610  145.5760 C   0  0  2  0  0  0  0  0  0  0  0  0
  189.1770  175.5750  146.6060 O   0  0  0  0  0  1  0  0  0  0  0  0
  191.2160  175.8840  147.8010 C   0  0  0  0  0  2  0  0  0  0  0  0
  190.9320  176.8170  145.5800 C   0  0  0  0  0  2  0  0  0  0  0  0
  193.9550  174.7590  144.0900 C   0  0  2  0  0  3  0  0  0  0  0  0
  195.4270  176.2430  142.6520 C   0  0  0  0  0  0  0  0  0  0  0  0
  194.4560  175.3390  142.7850 C   0  0  0  0  0  3  0  0  0  0  0  0
  196.0700  176.7850  143.7560 O   0  0  0  0  0  1  0  0  0  0  0  0
  195.8140  176.6950  141.2910 C   0  0  0  0  0  1  0  0  0  0  0  0
  194.4120  173.3160  144.3160 C   0  0  0  0  0  2  0  0  0  0  0  0
  195.2430  173.2110  145.5830 C   0  0  0  0  0  2  0  0  0  0  0  0
  196.6100  171.5550  144.6370 C   0  0  0  0  0  2  0  0  0  0  0  0
  195.7110  171.8460  145.7520 N   0  0  0  0  0  0  0  0  0  0  0  0
  194.5330  170.9840  145.6330 C   0  0  0  0  0  2  0  0  0  0  0  0
  195.3710  169.1940  147.1870 C   0  0  0  0  0  1  0  0  0  0  0  0
  196.0000  169.1390  144.7530 C   0  0  0  0  0  2  0  0  0  0  0  0
  194.9190  169.5080  145.7710 C   0  0  2  0  0  3  0  0  0  0  0  0
  197.1570  170.1380  144.7740 C   0  0  0  0  0  2  0  0  0  0  0  0
  191.7140  175.5580  143.1560 C   0  0  0  0  0  2  0  0  0  0  0  0
  190.5280  174.7050  142.7210 C   0  0  0  0  0  2  0  0  0  0  0  0
  189.4730  175.5610  142.0420 C   0  0  0  0  0  2  0  0  0  0  0  0
  188.3260  175.8880  142.9930 C   0  0  2  0  0  3  0  0  0  0  0  0
  187.0530  175.3140  142.3950 C   0  0  0  0  0  1  0  0  0  0  0  0
  188.9050  178.1730  142.1110 C   0  0  0  0  0  1  0  0  0  0  0  0
  188.1840  177.4030  143.2100 C   0  0  1  0  0  3  0  0  0  0  0  0
  186.0550  178.1140  144.3330 C   0  0  0  0  0  0  0  0  0  0  0  0
  186.7400  177.8230  143.2190 C   0  0  0  0  0  3  0  0  0  0  0  0
  184.6360  178.5460  144.2070 C   0  0  0  0  0  1  0  0  0  0  0  0
  186.6710  178.0560  145.6990 C   0  0  0  0  0  2  0  0  0  0  0  0
  185.9070  177.0920  146.5890 C   0  0  0  0  0  2  0  0  0  0  0  0
  185.9670  177.5320  147.9100 O   0  0  0  0  0  1  0  0  0  0  0  0
  2  1  1  1  0  0  0
  5  4  1  1  0  0  0
  5  9  1  0  0  0  0
  6  3  1  0  0  0  0
  6  9  1  0  0  0  0
  7  2  1  6  0  0  0
  7 10  1  0  0  0  0
  7  4  1  0  0  0  0
  7  5  1  0  0  0  0
  8  6  1  0  0  0  0
 10  6  1  0  0  0  0
 11 13  1  6  0  0  0
 11 16  1  0  0  0  0
 11  2  1  0  0  0  0
 12 13  2  0  0  0  0
 12 14  1  0  0  0  0
 15 12  1  0  0  0  0
 16 17  1  0  0  0  0
 17 19  1  0  0  0  0
 18 24  1  0  0  0  0
 18 19  1  0  0  0  0
 20 19  1  0  0  0  0
 20 23  1  0  0  0  0
 22 24  1  0  0  0  0
 22 23  1  0  0  0  0
 23 21  1  1  0  0  0
 25  2  1  0  0  0  0
 26 25  1  0  0  0  0
 27 26  1  0  0  0  0
 27 28  1  0  0  0  0
 28 29  1  6  0  0  0
 28 31  1  0  0  0  0
 31 30  1  6  0  0  0
 31 33  1  0  0  0  0
 32 35  1  0  0  0  0
 33 32  2  0  0  0  0
 34 32  1  0  0  0  0
 35 36  1  0  0  0  0
 36 37  1  0  0  0  0
M  END
>  <MODEL>
6

>  <REMARK>
 VINA RESULT:      -6.2      2.270      4.267
  Name = 
  14 active torsions:
  status: ('A' for Active; 'I' for Inactive)
    1  A    between atoms: C_1  and  C_5
    2  A    between atoms: C_1  and  C_36
    3  A    between atoms: C_5  and  C_17
    4  A    between atoms: N_6  and  C_31
    5  A    between atoms: C_7  and  C_33
    6  A    between atoms: C_10  and  C_14
    7  A    between atoms: C_10  and  C_20
    8  A    between atoms: C_10  and  C_22
    9  A    between atoms: C_11  and  C_33
   10  A    between atoms: C_14  and  C_31
   11  A    between atoms: C_17  and  C_26
   12  A    between atoms: C_20  and  C_24
   13  A    between atoms: C_20  and  C_29
   14  A    between atoms: C_29  and  C_36
                            x       y       z     vdW  Elec       q    Type
                         _______ _______ _______ _____ _____    ______ ____

>  <TORSDO>
F 14

$$$$
=
 OpenBabel11052420093D

 37 39  0  0  1  0  0  0  0  0999 V2000
  190.2260  172.0300  143.7980 O   0  0  0  0  0  1  0  0  0  0  0  0
  190.6240  173.3330  143.4680 C   0  0  1  0  0  0  0  0  0  0  0  0
  195.0690  175.3550  143.8760 O   0  0  0  0  0  1  0  0  0  0  0  0
  192.9810  172.0550  143.2580 C   0  0  0  0  0  2  0  0  0  0  0  0
  192.8160  172.6720  144.6390 C   0  0  2  0  0  3  0  0  0  0  0  0
  193.8440  174.8600  144.3200 C   0  0  0  0  0  0  0  0  0  0  0  0
  192.1760  173.3300  143.4270 C   0  0  2  0  0  0  0  0  0  0  0  0
  193.2660  175.7600  145.2160 O   0  0  0  0  0  1  0  0  0  0  0  0
  194.0300  173.5140  144.9880 C   0  0  0  0  0  2  0  0  0  0  0  0
  192.9140  174.6320  143.1480 C   0  0  0  0  0  2  0  0  0  0  0  0
  189.9680  173.7180  142.1090 C   0  0  2  0  0  3  0  0  0  0  0  0
  190.4480  172.8220  139.7840 C   0  0  0  0  0  0  0  0  0  0  0  0
  190.8230  173.4760  140.8840 C   0  0  0  0  0  3  0  0  0  0  0  0
  189.1900  172.2470  139.6750 O   0  0  0  0  0  1  0  0  0  0  0  0
  191.4070  172.6890  138.6570 C   0  0  0  0  0  1  0  0  0  0  0  0
  189.3090  175.0980  142.1120 C   0  0  0  0  0  2  0  0  0  0  0  0
  187.8120  174.9770  141.8870 C   0  0  0  0  0  2  0  0  0  0  0  0
  188.2500  177.2520  142.2560 C   0  0  0  0  0  2  0  0  0  0  0  0
  187.2030  176.2950  141.9040 N   0  0  0  0  0  0  0  0  0  0  0  0
  186.2090  176.2810  142.9790 C   0  0  0  0  0  2  0  0  0  0  0  0
  184.6400  177.9190  141.8950 C   0  0  0  0  0  1  0  0  0  0  0  0
  186.5520  178.7530  143.2980 C   0  0  0  0  0  2  0  0  0  0  0  0
  185.5180  177.6420  143.1030 C   0  0  2  0  0  3  0  0  0  0  0  0
  187.6750  178.6640  142.2650 C   0  0  0  0  0  2  0  0  0  0  0  0
  190.1850  174.2920  144.5900 C   0  0  0  0  0  2  0  0  0  0  0  0
  189.5500  173.5740  145.7750 C   0  0  0  0  0  2  0  0  0  0  0  0
  189.3220  174.5390  146.9260 C   0  0  0  0  0  2  0  0  0  0  0  0
  190.1330  175.8180  146.7480 C   0  0  2  0  0  3  0  0  0  0  0  0
  191.0160  175.9800  147.9740 C   0  0  0  0  0  1  0  0  0  0  0  0
  189.7160  177.9190  145.4270 C   0  0  0  0  0  1  0  0  0  0  0  0
  189.2240  177.0450  146.5720 C   0  0  1  0  0  3  0  0  0  0  0  0
  186.7380  177.1720  146.9000 C   0  0  0  0  0  0  0  0  0  0  0  0
  187.8040  176.6390  146.2870 C   0  0  0  0  0  3  0  0  0  0  0  0
  185.3800  176.7040  146.5080 C   0  0  0  0  0  1  0  0  0  0  0  0
  186.8570  178.2460  147.9400 C   0  0  0  0  0  2  0  0  0  0  0  0
  185.9350  179.4070  147.6160 C   0  0  0  0  0  2  0  0  0  0  0  0
  186.3190  180.5250  148.3540 O   0  0  0  0  0  1  0  0  0  0  0  0
  2  1  1  1  0  0  0
  2 25  1  0  0  0  0
  3  6  1  0  0  0  0
  4  7  1  0  0  0  0
  5  4  1  6  0  0  0
  5  9  1  0  0  0  0
  6  9  1  0  0  0  0
  6  8  1  0  0  0  0
  7  2  1  6  0  0  0
  7  5  1  0  0  0  0
 10  7  1  0  0  0  0
 10  6  1  0  0  0  0
 11 13  1  6  0  0  0
 11 16  1  0  0  0  0
 11  2  1  0  0  0  0
 12 13  2  0  0  0  0
 14 12  1  0  0  0  0
 15 12  1  0  0  0  0
 17 19  1  0  0  0  0
 17 16  1  0  0  0  0
 18 24  1  0  0  0  0
 19 18  1  0  0  0  0
 19 20  1  0  0  0  0
 20 23  1  0  0  0  0
 23 21  1  6  0  0  0
 23 22  1  0  0  0  0
 24 22  1  0  0  0  0
 25 26  1  0  0  0  0
 26 27  1  0  0  0  0
 28 27  1  0  0  0  0
 28 29  1  1  0  0  0
 31 30  1  6  0  0  0
 31 28  1  0  0  0  0
 32 35  1  0  0  0  0
 33 31  1  0  0  0  0
 33 32  2  0  0  0  0
 34 32  1  0  0  0  0
 36 35  1  0  0  0  0
 36 37  1  0  0  0  0
M  END
>  <MODEL>
7

>  <REMARK>
 VINA RESULT:      -6.2      2.533      5.945
  Name = 
  14 active torsions:
  status: ('A' for Active; 'I' for Inactive)
    1  A    between atoms: C_1  and  C_5
    2  A    between atoms: C_1  and  C_36
    3  A    between atoms: C_5  and  C_17
    4  A    between atoms: N_6  and  C_31
    5  A    between atoms: C_7  and  C_33
    6  A    between atoms: C_10  and  C_14
    7  A    between atoms: C_10  and  C_20
    8  A    between atoms: C_10  and  C_22
    9  A    between atoms: C_11  and  C_33
   10  A    between atoms: C_14  and  C_31
   11  A    between atoms: C_17  and  C_26
   12  A    between atoms: C_20  and  C_24
   13  A    between atoms: C_20  and  C_29
   14  A    between atoms: C_29  and  C_36
                            x       y       z     vdW  Elec       q    Type
                         _______ _______ _______ _____ _____    ______ ____

>  <TORSDO>
F 14

$$$$
=
 OpenBabel11052420093D

 37 39  0  0  1  0  0  0  0  0999 V2000
  191.6900  175.8490  142.5840 O   0  0  0  0  0  1  0  0  0  0  0  0
  191.1580  175.6880  143.8710 C   0  0  1  0  0  0  0  0  0  0  0  0
  189.9020  171.3300  142.0140 O   0  0  0  0  0  1  0  0  0  0  0  0
  189.8540  173.7220  145.1620 C   0  0  0  0  0  2  0  0  0  0  0  0
  191.2370  173.2630  144.7240 C   0  0  2  0  0  3  0  0  0  0  0  0
  190.7580  172.3000  142.5350 C   0  0  0  0  0  0  0  0  0  0  0  0
  190.4780  174.2920  143.9020 C   0  0  2  0  0  0  0  0  0  0  0  0
  191.9040  172.3940  141.7450 O   0  0  0  0  0  1  0  0  0  0  0  0
  191.1400  171.9540  143.9590 C   0  0  0  0  0  2  0  0  0  0  0  0
  190.0600  173.6400  142.5910 C   0  0  0  0  0  2  0  0  0  0  0  0
  192.3150  175.8370  144.9030 C   0  0  2  0  0  3  0  0  0  0  0  0
  191.8490  176.2670  147.3600 C   0  0  0  0  0  0  0  0  0  0  0  0
  192.0040  176.6980  146.1080 C   0  0  0  0  0  3  0  0  0  0  0  0
  191.9310  174.9190  147.6780 O   0  0  0  0  0  1  0  0  0  0  0  0
  191.5650  177.2510  148.4350 C   0  0  0  0  0  1  0  0  0  0  0  0
  193.6680  176.1650  144.2690 C   0  0  0  0  0  2  0  0  0  0  0  0
  194.8040  175.7750  145.1990 C   0  0  0  0  0  2  0  0  0  0  0  0
  194.8370  174.1960  143.4640 C   0  0  0  0  0  2  0  0  0  0  0  0
  195.3410  174.4840  144.8060 N   0  0  0  0  0  0  0  0  0  0  0  0
  194.7780  173.4990  145.7320 C   0  0  0  0  0  2  0  0  0  0  0  0
  196.7480  171.9380  145.6680 C   0  0  0  0  0  1  0  0  0  0  0  0
  194.9400  171.7480  143.9320 C   0  0  0  0  0  2  0  0  0  0  0  0
  195.2620  172.0870  145.3890 C   0  0  2  0  0  3  0  0  0  0  0  0
  195.3890  172.8590  142.9830 C   0  0  0  0  0  2  0  0  0  0  0  0
  190.0670  176.7490  144.1010 C   0  0  0  0  0  2  0  0  0  0  0  0
  190.1490  177.9130  143.1200 C   0  0  0  0  0  2  0  0  0  0  0  0
  188.8900  177.9930  142.2750 C   0  0  0  0  0  2  0  0  0  0  0  0
  187.7290  177.2590  142.9390 C   0  0  2  0  0  3  0  0  0  0  0  0
  187.0470  176.4150  141.8760 C   0  0  0  0  0  1  0  0  0  0  0  0
  185.9600  178.9940  142.4960 C   0  0  0  0  0  1  0  0  0  0  0  0
  186.7280  178.2400  143.5730 C   0  0  1  0  0  3  0  0  0  0  0  0
  185.8850  177.3810  145.7760 C   0  0  0  0  0  0  0  0  0  0  0  0
  185.7400  177.5230  144.4510 C   0  0  0  0  0  3  0  0  0  0  0  0
  184.8200  176.6750  146.5390 C   0  0  0  0  0  1  0  0  0  0  0  0
  187.0590  177.9370  146.5250 C   0  0  0  0  0  2  0  0  0  0  0  0
  186.6180  178.5140  147.8570 C   0  0  0  0  0  2  0  0  0  0  0  0
  185.9450  179.7150  147.6440 O   0  0  0  0  0  1  0  0  0  0  0  0
  2  1  1  6  0  0  0
  2 25  1  0  0  0  0
  2 11  1  0  0  0  0
  3  6  1  0  0  0  0
  5  9  1  6  0  0  0
  5  4  1  0  0  0  0
  6 10  1  0  0  0  0
  6  9  1  0  0  0  0
  7  2  1  6  0  0  0
  7  5  1  0  0  0  0
  7  4  1  0  0  0  0
  8  6  1  0  0  0  0
 10  7  1  0  0  0  0
 11 16  1  6  0  0  0
 11 13  1  0  0  0  0
 12 14  1  0  0  0  0
 12 15  1  0  0  0  0
 13 12  2  0  0  0  0
 16 17  1  0  0  0  0
 18 19  1  0  0  0  0
 19 17  1  0  0  0  0
 19 20  1  0  0  0  0
 22 23  1  0  0  0  0
 23 21  1  6  0  0  0
 23 20  1  0  0  0  0
 24 18  1  0  0  0  0
 24 22  1  0  0  0  0
 26 25  1  0  0  0  0
 27 28  1  0  0  0  0
 27 26  1  0  0  0  0
 28 29  1  6  0  0  0
 28 31  1  0  0  0  0
 31 30  1  6  0  0  0
 31 33  1  0  0  0  0
 32 35  1  0  0  0  0
 32 34  1  0  0  0  0
 33 32  2  0  0  0  0
 35 36  1  0  0  0  0
 37 36  1  0  0  0  0
M  END
>  <MODEL>
8

>  <REMARK>
 VINA RESULT:      -6.2      2.163      4.871
  Name = 
  14 active torsions:
  status: ('A' for Active; 'I' for Inactive)
    1  A    between atoms: C_1  and  C_5
    2  A    between atoms: C_1  and  C_36
    3  A    between atoms: C_5  and  C_17
    4  A    between atoms: N_6  and  C_31
    5  A    between atoms: C_7  and  C_33
    6  A    between atoms: C_10  and  C_14
    7  A    between atoms: C_10  and  C_20
    8  A    between atoms: C_10  and  C_22
    9  A    between atoms: C_11  and  C_33
   10  A    between atoms: C_14  and  C_31
   11  A    between atoms: C_17  and  C_26
   12  A    between atoms: C_20  and  C_24
   13  A    between atoms: C_20  and  C_29
   14  A    between atoms: C_29  and  C_36
                            x       y       z     vdW  Elec       q    Type
                         _______ _______ _______ _____ _____    ______ ____

>  <TORSDO>
F 14

$$$$
=
 OpenBabel11052420093D

 37 39  0  0  1  0  0  0  0  0999 V2000
  192.1880  173.8440  146.1320 O   0  0  0  0  0  1  0  0  0  0  0  0
  191.7550  174.2730  144.8700 C   0  0  1  0  0  0  0  0  0  0  0  0
  194.9440  177.8760  145.7930 O   0  0  0  0  0  1  0  0  0  0  0  0
  192.2380  176.4100  143.3110 C   0  0  0  0  0  2  0  0  0  0  0  0
  193.4890  175.5600  143.4740 C   0  0  2  0  0  3  0  0  0  0  0  0
  194.5320  176.5980  145.4190 C   0  0  0  0  0  0  0  0  0  0  0  0
  192.4600  175.6270  144.5920 C   0  0  2  0  0  0  0  0  0  0  0  0
  195.3040  175.6400  146.0760 O   0  0  0  0  0  1  0  0  0  0  0  0
  194.6570  176.4220  143.9200 C   0  0  0  0  0  2  0  0  0  0  0  0
  193.0700  176.4000  145.7540 C   0  0  0  0  0  2  0  0  0  0  0  0
  192.1020  173.1670  143.8290 C   0  0  2  0  0  3  0  0  0  0  0  0
  190.7800  172.9580  141.6740 C   0  0  0  0  0  0  0  0  0  0  0  0
  190.9470  172.6980  142.9710 C   0  0  0  0  0  3  0  0  0  0  0  0
  191.6760  173.7490  140.9700 O   0  0  0  0  0  1  0  0  0  0  0  0
  189.5950  172.4020  140.9710 C   0  0  0  0  0  1  0  0  0  0  0  0
  192.9220  172.0120  144.4070 C   0  0  0  0  0  2  0  0  0  0  0  0
  193.8120  171.4010  143.3380 C   0  0  0  0  0  2  0  0  0  0  0  0
  195.5510  170.0060  144.0690 C   0  0  0  0  0  2  0  0  0  0  0  0
  195.1920  171.3960  143.7900 N   0  0  0  0  0  0  0  0  0  0  0  0
  195.2210  172.1430  145.0490 C   0  0  0  0  0  2  0  0  0  0  0  0
  197.5610  173.0200  144.7690 C   0  0  0  0  0  1  0  0  0  0  0  0
  197.1830  170.7580  145.7990 C   0  0  0  0  0  2  0  0  0  0  0  0
  196.6370  172.1780  145.6320 C   0  0  2  0  0  3  0  0  0  0  0  0
  197.0040  169.9320  144.5260 C   0  0  0  0  0  2  0  0  0  0  0  0
  190.2380  174.5330  144.9200 C   0  0  0  0  0  2  0  0  0  0  0  0
  189.6430  174.3320  146.3100 C   0  0  0  0  0  2  0  0  0  0  0  0
  188.7320  175.4910  146.6760 C   0  0  0  0  0  2  0  0  0  0  0  0
  189.2370  176.8030  146.0830 C   0  0  2  0  0  3  0  0  0  0  0  0
  189.7840  177.6450  147.2230 C   0  0  0  0  0  1  0  0  0  0  0  0
  188.0610  177.1300  143.8820 C   0  0  0  0  0  1  0  0  0  0  0  0
  188.1210  177.5570  145.3420 C   0  0  1  0  0  3  0  0  0  0  0  0
  185.7330  178.1340  145.8600 C   0  0  0  0  0  0  0  0  0  0  0  0
  186.7790  177.3020  145.9700 C   0  0  0  0  0  3  0  0  0  0  0  0
  184.4460  177.7540  146.5050 C   0  0  0  0  0  1  0  0  0  0  0  0
  185.7980  179.4150  145.0830 C   0  0  0  0  0  2  0  0  0  0  0  0
  184.7780  179.4100  143.9590 C   0  0  0  0  0  2  0  0  0  0  0  0
  185.4080  179.0750  142.7620 O   0  0  0  0  0  1  0  0  0  0  0  0
  2 25  1  0  0  0  0
  2  1  1  1  0  0  0
  4  7  1  0  0  0  0
  5  4  1  6  0  0  0
  5  9  1  0  0  0  0
  5  7  1  0  0  0  0
  6 10  1  0  0  0  0
  6  3  1  0  0  0  0
  6  8  1  0  0  0  0
  7  2  1  1  0  0  0
  7 10  1  0  0  0  0
  9  6  1  0  0  0  0
 11 13  1  1  0  0  0
 11 16  1  0  0  0  0
 11  2  1  0  0  0  0
 12 13  2  0  0  0  0
 14 12  1  0  0  0  0
 15 12  1  0  0  0  0
 17 19  1  0  0  0  0
 17 16  1  0  0  0  0
 18 24  1  0  0  0  0
 19 18  1  0  0  0  0
 19 20  1  0  0  0  0
 20 23  1  0  0  0  0
 23 21  1  6  0  0  0
 23 22  1  0  0  0  0
 24 22  1  0  0  0  0
 25 26  1  0  0  0  0
 26 27  1  0  0  0  0
 28 27  1  0  0  0  0
 28 29  1  1  0  0  0
 31 30  1  6  0  0  0
 31 33  1  0  0  0  0
 31 28  1  0  0  0  0
 32 33  2  0  0  0  0
 32 34  1  0  0  0  0
 35 32  1  0  0  0  0
 36 35  1  0  0  0  0
 37 36  1  0  0  0  0
M  END
>  <MODEL>
9

>  <REMARK>
 VINA RESULT:      -6.2      1.793      3.109
  Name = 
  14 active torsions:
  status: ('A' for Active; 'I' for Inactive)
    1  A    between atoms: C_1  and  C_5
    2  A    between atoms: C_1  and  C_36
    3  A    between atoms: C_5  and  C_17
    4  A    between atoms: N_6  and  C_31
    5  A    between atoms: C_7  and  C_33
    6  A    between atoms: C_10  and  C_14
    7  A    between atoms: C_10  and  C_20
    8  A    between atoms: C_10  and  C_22
    9  A    between atoms: C_11  and  C_33
   10  A    between atoms: C_14  and  C_31
   11  A    between atoms: C_17  and  C_26
   12  A    between atoms: C_20  and  C_24
   13  A    between atoms: C_20  and  C_29
   14  A    between atoms: C_29  and  C_36
                            x       y       z     vdW  Elec       q    Type
                         _______ _______ _______ _____ _____    ______ ____

>  <TORSDO>
F 14

$$$$
