=
 OpenBabel11052421233D

 43 47  0  0  1  0  0  0  0  0999 V2000
  193.4900  176.3610  146.0660 C   0  0  0  0  0  0  0  0  0  0  0  0
  191.6480  172.3120  143.0820 C   0  0  1  0  0  0  0  0  0  0  0  0
  193.4240  175.5240  143.7630 C   0  0  2  0  0  3  0  0  0  0  0  0
  192.3700  175.4410  146.4770 C   0  0  0  0  0  2  0  0  0  0  0  0
  194.2170  176.8470  146.9150 O   0  0  0  0  0  0  0  0  0  0  0  0
  192.0750  174.8430  144.0050 C   0  0  2  0  0  0  0  0  0  0  0  0
  193.6530  176.7580  144.6280 C   0  0  0  0  0  2  0  0  0  0  0  0
  192.1550  174.3150  145.4510 C   0  0  0  0  0  2  0  0  0  0  0  0
  190.8070  173.3040  142.5370 O   0  0  0  0  0  0  0  0  0  0  0  0
  192.0980  173.7390  142.9180 C   0  0  2  0  0  0  0  0  0  0  0  0
  193.0860  174.2150  141.4510 S   0  0  0  0  0  0  0  0  0  0  0  0
  193.6470  175.7350  142.2810 C   0  0  0  0  0  2  0  0  0  0  0  0
  189.6170  172.0060  144.5260 C   0  0  0  0  0  1  0  0  0  0  0  0
  191.1190  171.8110  144.4210 C   0  0  0  0  0  2  0  0  0  0  0  0
  192.0610  171.2400  142.0580 C   0  0  1  0  0  3  0  0  0  0  0  0
  192.7130  170.1530  142.6490 O   0  0  0  0  0  1  0  0  0  0  0  0
  190.8590  170.7740  141.2400 C   0  0  0  0  0  2  0  0  0  0  0  0
  192.4500  170.4110  139.3030 C   0  0  0  0  0  1  0  0  0  0  0  0
  191.0700  170.8960  139.7310 C   0  0  2  0  0  3  0  0  0  0  0  0
  190.7220  172.3040  139.2100 C   0  0  1  0  0  3  0  0  0  0  0  0
  191.5810  172.6990  138.1790 O   0  0  0  0  0  1  0  0  0  0  0  0
  189.2580  172.5140  138.7950 C   0  0  0  0  0  3  0  0  0  0  0  0
  188.2040  174.3650  139.0360 C   0  0  0  0  0  2  0  0  0  0  0  0
  189.0730  173.7610  137.9490 C   0  0  0  0  0  2  0  0  0  0  0  0
  188.3970  173.1230  139.8860 C   0  0  0  0  0  2  0  0  0  0  0  0
  190.9080  175.8770  143.8270 C   0  0  2  0  0  3  0  0  0  0  0  0
  189.7830  175.8890  144.8740 C   0  0  0  0  0  2  0  0  0  0  0  0
  190.3100  178.1540  145.2930 O   0  0  0  0  0  0  0  0  0  0  0  0
  189.6130  177.1940  145.5850 C   0  0  0  0  0  0  0  0  0  0  0  0
  188.6050  177.2970  146.6850 C   0  0  0  0  0  2  0  0  0  0  0  0
  187.4590  176.3180  146.4840 C   0  0  0  0  0  2  0  0  0  0  0  0
  186.2470  178.2710  145.6620 C   0  0  0  0  0  3  0  0  0  0  0  0
  186.1980  177.0520  146.1820 C   0  0  0  0  0  3  0  0  0  0  0  0
  183.9930  178.8360  146.0410 O   0  0  0  0  0  0  0  0  0  0  0  0
  185.0290  179.0260  145.3530 C   0  0  0  0  0  0  0  0  0  0  0  0
  185.0010  179.9670  144.2830 N   0  0  0  0  0  1  0  0  0  0  0  0
  190.4190  176.1170  142.3960 C   0  0  0  0  0  2  0  0  0  0  0  0
  188.9720  176.4680  142.3850 C   0  0  0  0  0  0  0  0  0  0  0  0
  186.2510  177.1200  142.3210 C   0  0  0  0  0  3  0  0  0  0  0  0
  187.2130  178.1060  142.0780 C   0  0  0  0  0  3  0  0  0  0  0  0
  186.6490  175.8070  142.5930 C   0  0  0  0  0  3  0  0  0  0  0  0
  188.5720  177.7800  142.1080 C   0  0  0  0  0  3  0  0  0  0  0  0
  188.0080  175.4810  142.6230 C   0  0  0  0  0  3  0  0  0  0  0  0
  1  4  1  0  0  0  0
  1  5  2  0  0  0  0
  2 14  1  1  0  0  0
  3 12  1  6  0  0  0
  3  6  1  0  0  0  0
  3  7  1  0  0  0  0
  6 26  1  6  0  0  0
  6  8  1  0  0  0  0
  7  1  1  0  0  0  0
  8  4  1  0  0  0  0
  9 10  1  0  0  0  0
  9  2  1  0  0  0  0
 10 11  1  6  0  0  0
 10  2  1  0  0  0  0
 10  6  1  0  0  0  0
 11 12  1  0  0  0  0
 14 13  1  0  0  0  0
 15 16  1  1  0  0  0
 15  2  1  0  0  0  0
 17 15  1  0  0  0  0
 19 18  1  1  0  0  0
 19 17  1  0  0  0  0
 20 21  1  6  0  0  0
 20 19  1  0  0  0  0
 22 20  1  0  0  0  0
 22 25  1  0  0  0  0
 23 25  1  0  0  0  0
 24 22  1  0  0  0  0
 24 23  1  0  0  0  0
 26 37  1  6  0  0  0
 26 27  1  0  0  0  0
 27 29  1  0  0  0  0
 28 29  2  0  0  0  0
 29 30  1  0  0  0  0
 31 30  1  0  0  0  0
 32 33  2  0  0  0  0
 33 31  1  0  0  0  0
 35 32  1  0  0  0  0
 35 34  2  0  0  0  0
 36 35  1  0  0  0  0
 38 37  1  0  0  0  0
 38 43  1  0  0  0  0
 39 41  1  0  0  0  0
 40 42  1  0  0  0  0
 40 39  2  0  0  0  0
 41 43  2  0  0  0  0
 42 38  2  0  0  0  0
M  END
>  <MODEL>
1

>  <REMARK>
 VINA RESULT:      -6.6      0.000      0.000
  Name = 
  15 active torsions:
  status: ('A' for Active; 'I' for Inactive)
    1  A    between atoms: C_1  and  C_34
    2  A    between atoms: C_1  and  C_35
    3  A    between atoms: C_3  and  C_12
    4  A    between atoms: C_4  and  C_15
    5  A    between atoms: C_8  and  C_13
    6  A    between atoms: C_8  and  C_34
    7  A    between atoms: C_9  and  C_19
    8  A    between atoms: C_9  and  C_35
    9  A    between atoms: C_10  and  C_41
   10  A    between atoms: C_10  and  C_42
   11  A    between atoms: C_11  and  C_14
   12  A    between atoms: C_14  and  C_41
   13  A    between atoms: C_15  and  C_22
   14  A    between atoms: C_21  and  C_41
   15  A    between atoms: C_22  and  C_42
                            x       y       z     vdW  Elec       q    Type
                         _______ _______ _______ _____ _____    ______ ____

>  <TORSDO>
F 15

$$$$
=
 OpenBabel11052421233D

 43 47  0  0  1  0  0  0  0  0999 V2000
  187.8170  176.2280  146.8510 C   0  0  0  0  0  0  0  0  0  0  0  0
  192.8860  175.8620  145.1590 C   0  0  1  0  0  0  0  0  0  0  0  0
  189.3750  177.1310  145.1880 C   0  0  2  0  0  3  0  0  0  0  0  0
  188.7250  175.0590  147.1290 C   0  0  0  0  0  2  0  0  0  0  0  0
  186.9570  176.5320  147.6590 O   0  0  0  0  0  0  0  0  0  0  0  0
  190.1580  175.8170  145.1470 C   0  0  2  0  0  0  0  0  0  0  0  0
  187.9030  176.9580  145.5430 C   0  0  0  0  0  2  0  0  0  0  0  0
  190.1490  175.3080  146.6030 C   0  0  0  0  0  2  0  0  0  0  0  0
  192.2950  175.2970  144.0090 O   0  0  0  0  0  0  0  0  0  0  0  0
  191.5410  176.3080  144.6500 C   0  0  2  0  0  0  0  0  0  0  0  0
  191.4210  177.8000  143.5950 S   0  0  0  0  0  0  0  0  0  0  0  0
  189.6380  177.9380  143.9350 C   0  0  0  0  0  2  0  0  0  0  0  0
  193.5440  173.5190  145.7800 C   0  0  0  0  0  1  0  0  0  0  0  0
  192.9930  174.8410  146.2860 C   0  0  0  0  0  2  0  0  0  0  0  0
  194.1500  176.6820  144.8480 C   0  0  1  0  0  3  0  0  0  0  0  0
  195.0270  176.7520  145.9350 O   0  0  0  0  0  1  0  0  0  0  0  0
  194.8600  176.1420  143.6090 C   0  0  0  0  0  2  0  0  0  0  0  0
  197.2950  176.6750  143.1600 C   0  0  0  0  0  1  0  0  0  0  0  0
  196.3150  175.7490  143.8690 C   0  0  2  0  0  3  0  0  0  0  0  0
  196.5680  174.2540  143.5930 C   0  0  1  0  0  3  0  0  0  0  0  0
  196.9710  174.0350  142.2720 O   0  0  0  0  0  1  0  0  0  0  0  0
  197.5280  173.5540  144.5670 C   0  0  0  0  0  3  0  0  0  0  0  0
  196.8980  172.1490  146.0590 C   0  0  0  0  0  2  0  0  0  0  0  0
  197.3150  172.0510  144.6040 C   0  0  0  0  0  2  0  0  0  0  0  0
  197.1010  173.6530  146.0200 C   0  0  0  0  0  2  0  0  0  0  0  0
  189.4620  174.8040  144.1730 C   0  0  2  0  0  3  0  0  0  0  0  0
  188.2510  175.2930  143.3620 C   0  0  0  0  0  2  0  0  0  0  0  0
  189.6420  175.3060  141.4520 O   0  0  0  0  0  0  0  0  0  0  0  0
  188.5330  175.5310  141.9120 C   0  0  0  0  0  0  0  0  0  0  0  0
  187.4510  176.0840  141.0420 C   0  0  0  0  0  2  0  0  0  0  0  0
  187.5520  177.5960  140.9190 C   0  0  0  0  0  2  0  0  0  0  0  0
  185.5570  178.2740  142.1530 C   0  0  0  0  0  3  0  0  0  0  0  0
  186.8810  178.2560  142.0750 C   0  0  0  0  0  3  0  0  0  0  0  0
  183.6390  178.6740  143.4580 O   0  0  0  0  0  0  0  0  0  0  0  0
  184.8600  178.9130  143.2730 C   0  0  0  0  0  0  0  0  0  0  0  0
  185.5450  179.8030  144.1510 N   0  0  0  0  0  1  0  0  0  0  0  0
  189.3280  173.3610  144.6670 C   0  0  0  0  0  2  0  0  0  0  0  0
  190.0450  172.4220  143.7600 C   0  0  0  0  0  0  0  0  0  0  0  0
  191.4070  170.6930  142.0330 C   0  0  0  0  0  3  0  0  0  0  0  0
  190.1370  171.1650  141.6900 C   0  0  0  0  0  3  0  0  0  0  0  0
  191.9990  171.0860  143.2370 C   0  0  0  0  0  3  0  0  0  0  0  0
  189.4560  172.0310  142.5520 C   0  0  0  0  0  3  0  0  0  0  0  0
  191.3190  171.9530  144.0990 C   0  0  0  0  0  3  0  0  0  0  0  0
  1  4  1  0  0  0  0
  1  5  2  0  0  0  0
  2 14  1  1  0  0  0
  3 12  1  6  0  0  0
  3  7  1  0  0  0  0
  6 26  1  6  0  0  0
  6  3  1  0  0  0  0
  6  8  1  0  0  0  0
  7  1  1  0  0  0  0
  8  4  1  0  0  0  0
  9 10  1  0  0  0  0
  9  2  1  0  0  0  0
 10 11  1  6  0  0  0
 10  6  1  0  0  0  0
 10  2  1  0  0  0  0
 11 12  1  0  0  0  0
 13 14  1  0  0  0  0
 15  2  1  0  0  0  0
 15 16  1  1  0  0  0
 17 19  1  0  0  0  0
 17 15  1  0  0  0  0
 19 18  1  6  0  0  0
 20 21  1  6  0  0  0
 20 19  1  0  0  0  0
 20 22  1  0  0  0  0
 22 24  1  0  0  0  0
 22 25  1  0  0  0  0
 24 23  1  0  0  0  0
 25 23  1  0  0  0  0
 26 27  1  1  0  0  0
 26 37  1  0  0  0  0
 28 29  2  0  0  0  0
 29 27  1  0  0  0  0
 30 29  1  0  0  0  0
 31 30  1  0  0  0  0
 31 33  1  0  0  0  0
 32 35  1  0  0  0  0
 33 32  2  0  0  0  0
 35 34  2  0  0  0  0
 35 36  1  0  0  0  0
 38 43  1  0  0  0  0
 38 37  1  0  0  0  0
 39 41  1  0  0  0  0
 40 39  2  0  0  0  0
 40 42  1  0  0  0  0
 41 43  2  0  0  0  0
 42 38  2  0  0  0  0
M  END
>  <MODEL>
2

>  <REMARK>
 VINA RESULT:      -6.6      2.515      6.054
  Name = 
  15 active torsions:
  status: ('A' for Active; 'I' for Inactive)
    1  A    between atoms: C_1  and  C_34
    2  A    between atoms: C_1  and  C_35
    3  A    between atoms: C_3  and  C_12
    4  A    between atoms: C_4  and  C_15
    5  A    between atoms: C_8  and  C_13
    6  A    between atoms: C_8  and  C_34
    7  A    between atoms: C_9  and  C_19
    8  A    between atoms: C_9  and  C_35
    9  A    between atoms: C_10  and  C_41
   10  A    between atoms: C_10  and  C_42
   11  A    between atoms: C_11  and  C_14
   12  A    between atoms: C_14  and  C_41
   13  A    between atoms: C_15  and  C_22
   14  A    between atoms: C_21  and  C_41
   15  A    between atoms: C_22  and  C_42
                            x       y       z     vdW  Elec       q    Type
                         _______ _______ _______ _____ _____    ______ ____

>  <TORSDO>
F 15

$$$$
=
 OpenBabel11052421233D

 43 47  0  0  1  0  0  0  0  0999 V2000
  195.0600  176.2680  142.3200 C   0  0  0  0  0  0  0  0  0  0  0  0
  190.5630  175.8990  145.2070 C   0  0  1  0  0  0  0  0  0  0  0  0
  194.2410  176.1740  144.6290 C   0  0  2  0  0  3  0  0  0  0  0  0
  193.7460  175.7570  141.7880 C   0  0  0  0  0  2  0  0  0  0  0  0
  195.8320  176.8440  141.5740 O   0  0  0  0  0  0  0  0  0  0  0  0
  193.0370  175.3260  144.2110 C   0  0  2  0  0  0  0  0  0  0  0  0
  195.4630  175.9850  143.7380 C   0  0  0  0  0  2  0  0  0  0  0  0
  192.6240  175.8820  142.8330 C   0  0  0  0  0  2  0  0  0  0  0  0
  191.0700  174.6270  145.5430 O   0  0  0  0  0  0  0  0  0  0  0  0
  192.0390  175.6410  145.3540 C   0  0  2  0  0  0  0  0  0  0  0  0
  192.8780  176.0460  146.9300 S   0  0  0  0  0  0  0  0  0  0  0  0
  194.5040  176.0180  146.1110 C   0  0  0  0  0  2  0  0  0  0  0  0
  189.7070  177.2970  143.3050 C   0  0  0  0  0  1  0  0  0  0  0  0
  189.9030  175.8870  143.8330 C   0  0  0  0  0  2  0  0  0  0  0  0
  189.7680  176.5540  146.3500 C   0  0  1  0  0  3  0  0  0  0  0  0
  189.8430  177.9510  146.3270 O   0  0  0  0  0  1  0  0  0  0  0  0
  188.3150  176.0870  146.3420 C   0  0  0  0  0  2  0  0  0  0  0  0
  186.3260  176.9120  147.6750 C   0  0  0  0  0  1  0  0  0  0  0  0
  187.3130  177.2220  146.5560 C   0  0  2  0  0  3  0  0  0  0  0  0
  186.6380  177.6540  145.2410 C   0  0  1  0  0  3  0  0  0  0  0  0
  185.9220  176.6030  144.6590 O   0  0  0  0  0  1  0  0  0  0  0  0
  185.7620  178.9140  145.3270 C   0  0  0  0  0  3  0  0  0  0  0  0
  184.0710  179.2790  144.0620 C   0  0  0  0  0  2  0  0  0  0  0  0
  184.2820  178.5820  145.3920 C   0  0  0  0  0  2  0  0  0  0  0  0
  185.5520  179.6020  143.9910 C   0  0  0  0  0  2  0  0  0  0  0  0
  193.4450  173.8130  144.1290 C   0  0  2  0  0  3  0  0  0  0  0  0
  192.9420  172.9890  142.9330 C   0  0  0  0  0  2  0  0  0  0  0  0
  192.1750  170.7920  143.3400 O   0  0  0  0  0  0  0  0  0  0  0  0
  191.8940  171.9790  143.2740 C   0  0  0  0  0  0  0  0  0  0  0  0
  190.4880  172.4360  143.4970 C   0  0  0  0  0  2  0  0  0  0  0  0
  189.5010  171.6310  142.6660 C   0  0  0  0  0  2  0  0  0  0  0  0
  189.3020  173.5440  141.1620 C   0  0  0  0  0  3  0  0  0  0  0  0
  188.7090  172.5340  141.7850 C   0  0  0  0  0  3  0  0  0  0  0  0
  188.0730  175.5130  140.7670 O   0  0  0  0  0  0  0  0  0  0  0  0
  188.5560  174.4550  140.2880 C   0  0  0  0  0  0  0  0  0  0  0  0
  188.3700  174.1570  138.9070 N   0  0  0  0  0  1  0  0  0  0  0  0
  193.4560  173.0360  145.4490 C   0  0  0  0  0  2  0  0  0  0  0  0
  194.6880  172.2070  145.5630 C   0  0  0  0  0  0  0  0  0  0  0  0
  197.0050  170.6590  145.8190 C   0  0  0  0  0  3  0  0  0  0  0  0
  197.1040  172.0280  145.5500 C   0  0  0  0  0  3  0  0  0  0  0  0
  195.7480  170.0630  145.9630 C   0  0  0  0  0  3  0  0  0  0  0  0
  195.9470  172.8010  145.4240 C   0  0  0  0  0  3  0  0  0  0  0  0
  194.5900  170.8370  145.8380 C   0  0  0  0  0  3  0  0  0  0  0  0
  1  7  1  0  0  0  0
  2 14  1  6  0  0  0
  2 10  1  0  0  0  0
  2  9  1  0  0  0  0
  2 15  1  0  0  0  0
  3  7  1  6  0  0  0
  3 12  1  0  0  0  0
  4  1  1  0  0  0  0
  4  8  1  0  0  0  0
  5  1  2  0  0  0  0
  6 26  1  6  0  0  0
  6  3  1  0  0  0  0
  6 10  1  0  0  0  0
  8  6  1  0  0  0  0
 10  9  1  1  0  0  0
 10 11  1  0  0  0  0
 12 11  1  0  0  0  0
 13 14  1  0  0  0  0
 15 16  1  6  0  0  0
 17 15  1  0  0  0  0
 17 19  1  0  0  0  0
 19 18  1  1  0  0  0
 20 21  1  1  0  0  0
 20 22  1  0  0  0  0
 20 19  1  0  0  0  0
 22 24  1  0  0  0  0
 23 24  1  0  0  0  0
 25 23  1  0  0  0  0
 25 22  1  0  0  0  0
 26 27  1  6  0  0  0
 26 37  1  0  0  0  0
 27 29  1  0  0  0  0
 29 28  2  0  0  0  0
 29 30  1  0  0  0  0
 31 30  1  0  0  0  0
 32 33  2  0  0  0  0
 33 31  1  0  0  0  0
 35 34  2  0  0  0  0
 35 32  1  0  0  0  0
 36 35  1  0  0  0  0
 37 38  1  0  0  0  0
 38 43  1  0  0  0  0
 39 41  1  0  0  0  0
 40 39  2  0  0  0  0
 42 40  1  0  0  0  0
 42 38  2  0  0  0  0
 43 41  2  0  0  0  0
M  END
>  <MODEL>
3

>  <REMARK>
 VINA RESULT:      -6.6      2.903      7.419
  Name = 
  15 active torsions:
  status: ('A' for Active; 'I' for Inactive)
    1  A    between atoms: C_1  and  C_34
    2  A    between atoms: C_1  and  C_35
    3  A    between atoms: C_3  and  C_12
    4  A    between atoms: C_4  and  C_15
    5  A    between atoms: C_8  and  C_13
    6  A    between atoms: C_8  and  C_34
    7  A    between atoms: C_9  and  C_19
    8  A    between atoms: C_9  and  C_35
    9  A    between atoms: C_10  and  C_41
   10  A    between atoms: C_10  and  C_42
   11  A    between atoms: C_11  and  C_14
   12  A    between atoms: C_14  and  C_41
   13  A    between atoms: C_15  and  C_22
   14  A    between atoms: C_21  and  C_41
   15  A    between atoms: C_22  and  C_42
                            x       y       z     vdW  Elec       q    Type
                         _______ _______ _______ _____ _____    ______ ____

>  <TORSDO>
F 15

$$$$
=
 OpenBabel11052421233D

 43 47  0  0  1  0  0  0  0  0999 V2000
  187.9340  176.4000  146.6880 C   0  0  0  0  0  0  0  0  0  0  0  0
  193.0300  175.7990  145.1520 C   0  0  1  0  0  0  0  0  0  0  0  0
  189.6020  177.2770  145.1200 C   0  0  2  0  0  3  0  0  0  0  0  0
  188.7610  175.1670  146.9440 C   0  0  0  0  0  2  0  0  0  0  0  0
  187.0650  176.7210  147.4790 O   0  0  0  0  0  0  0  0  0  0  0  0
  190.3070  175.9200  145.0470 C   0  0  2  0  0  0  0  0  0  0  0  0
  188.1100  177.1780  145.4170 C   0  0  0  0  0  2  0  0  0  0  0  0
  190.2150  175.3520  146.4770 C   0  0  0  0  0  2  0  0  0  0  0  0
  192.4490  175.3200  143.9590 O   0  0  0  0  0  0  0  0  0  0  0  0
  191.7340  176.3480  144.6180 C   0  0  2  0  0  0  0  0  0  0  0  0
  191.7400  177.8870  143.6270 S   0  0  0  0  0  0  0  0  0  0  0  0
  189.9570  178.1180  143.9140 C   0  0  0  0  0  2  0  0  0  0  0  0
  193.1930  173.3410  145.6350 C   0  0  0  0  0  1  0  0  0  0  0  0
  193.0360  174.7270  146.2350 C   0  0  0  0  0  2  0  0  0  0  0  0
  194.3510  176.5540  144.9200 C   0  0  1  0  0  3  0  0  0  0  0  0
  194.5820  177.5440  145.8800 O   0  0  0  0  0  1  0  0  0  0  0  0
  195.5280  175.5840  144.8440 C   0  0  0  0  0  2  0  0  0  0  0  0
  195.3640  176.3010  142.4210 C   0  0  0  0  0  1  0  0  0  0  0  0
  196.0740  175.4040  143.4270 C   0  0  2  0  0  3  0  0  0  0  0  0
  196.1190  173.9220  143.0090 C   0  0  1  0  0  3  0  0  0  0  0  0
  196.3800  173.0860  144.1000 O   0  0  0  0  0  1  0  0  0  0  0  0
  194.8970  173.4160  142.2280 C   0  0  0  0  0  3  0  0  0  0  0  0
  194.8200  171.5180  141.2330 C   0  0  0  0  0  2  0  0  0  0  0  0
  194.4990  172.0070  142.6320 C   0  0  0  0  0  2  0  0  0  0  0  0
  195.2280  172.9240  140.8310 C   0  0  0  0  0  2  0  0  0  0  0  0
  189.5880  174.9930  144.0050 C   0  0  2  0  0  3  0  0  0  0  0  0
  188.1660  175.3710  143.5580 C   0  0  0  0  0  2  0  0  0  0  0  0
  187.7770  174.5150  141.3900 O   0  0  0  0  0  0  0  0  0  0  0  0
  187.9990  175.5010  142.0770 C   0  0  0  0  0  0  0  0  0  0  0  0
  188.1440  176.8480  141.4440 C   0  0  0  0  0  2  0  0  0  0  0  0
  186.7910  177.4940  141.1920 C   0  0  0  0  0  2  0  0  0  0  0  0
  185.4060  178.2430  143.0580 C   0  0  0  0  0  3  0  0  0  0  0  0
  186.4630  178.4530  142.2850 C   0  0  0  0  0  3  0  0  0  0  0  0
  185.5010  180.3370  144.1290 O   0  0  0  0  0  0  0  0  0  0  0  0
  185.0500  179.1630  144.1420 C   0  0  0  0  0  0  0  0  0  0  0  0
  184.2040  178.7460  145.2110 N   0  0  0  0  0  1  0  0  0  0  0  0
  189.7990  173.4860  144.1710 C   0  0  0  0  0  2  0  0  0  0  0  0
  190.2850  172.8780  142.9010 C   0  0  0  0  0  0  0  0  0  0  0  0
  191.2350  171.7290  140.5330 C   0  0  0  0  0  3  0  0  0  0  0  0
  191.4490  173.0870  140.7860 C   0  0  0  0  0  3  0  0  0  0  0  0
  190.5490  170.9430  141.4640 C   0  0  0  0  0  3  0  0  0  0  0  0
  190.9750  173.6610  141.9690 C   0  0  0  0  0  3  0  0  0  0  0  0
  190.0760  171.5170  142.6480 C   0  0  0  0  0  3  0  0  0  0  0  0
  1  4  1  0  0  0  0
  1  5  2  0  0  0  0
  2 14  1  1  0  0  0
  3 12  1  6  0  0  0
  3  7  1  0  0  0  0
  6 26  1  6  0  0  0
  6  3  1  0  0  0  0
  6  8  1  0  0  0  0
  7  1  1  0  0  0  0
  8  4  1  0  0  0  0
  9 10  1  0  0  0  0
  9  2  1  0  0  0  0
 10 11  1  6  0  0  0
 10  6  1  0  0  0  0
 10  2  1  0  0  0  0
 11 12  1  0  0  0  0
 13 14  1  0  0  0  0
 15  2  1  0  0  0  0
 15 16  1  1  0  0  0
 17 15  1  0  0  0  0
 19 18  1  6  0  0  0
 19 17  1  0  0  0  0
 20 19  1  0  0  0  0
 20 21  1  1  0  0  0
 22 24  1  0  0  0  0
 22 20  1  0  0  0  0
 23 24  1  0  0  0  0
 25 23  1  0  0  0  0
 25 22  1  0  0  0  0
 26 27  1  1  0  0  0
 26 37  1  0  0  0  0
 28 29  2  0  0  0  0
 29 27  1  0  0  0  0
 30 29  1  0  0  0  0
 31 30  1  0  0  0  0
 31 33  1  0  0  0  0
 32 35  1  0  0  0  0
 33 32  2  0  0  0  0
 34 35  2  0  0  0  0
 35 36  1  0  0  0  0
 38 37  1  0  0  0  0
 39 40  2  0  0  0  0
 39 41  1  0  0  0  0
 40 42  1  0  0  0  0
 41 43  2  0  0  0  0
 42 38  2  0  0  0  0
 43 38  1  0  0  0  0
M  END
>  <MODEL>
4

>  <REMARK>
 VINA RESULT:      -6.4      2.218      5.329
  Name = 
  15 active torsions:
  status: ('A' for Active; 'I' for Inactive)
    1  A    between atoms: C_1  and  C_34
    2  A    between atoms: C_1  and  C_35
    3  A    between atoms: C_3  and  C_12
    4  A    between atoms: C_4  and  C_15
    5  A    between atoms: C_8  and  C_13
    6  A    between atoms: C_8  and  C_34
    7  A    between atoms: C_9  and  C_19
    8  A    between atoms: C_9  and  C_35
    9  A    between atoms: C_10  and  C_41
   10  A    between atoms: C_10  and  C_42
   11  A    between atoms: C_11  and  C_14
   12  A    between atoms: C_14  and  C_41
   13  A    between atoms: C_15  and  C_22
   14  A    between atoms: C_21  and  C_41
   15  A    between atoms: C_22  and  C_42
                            x       y       z     vdW  Elec       q    Type
                         _______ _______ _______ _____ _____    ______ ____

>  <TORSDO>
F 15

$$$$
=
 OpenBabel11052421233D

 43 47  0  0  1  0  0  0  0  0999 V2000
  188.2990  175.8900  146.9750 C   0  0  0  0  0  0  0  0  0  0  0  0
  193.2020  175.6010  144.8370 C   0  0  1  0  0  0  0  0  0  0  0  0
  189.8140  177.0510  145.4370 C   0  0  2  0  0  3  0  0  0  0  0  0
  189.1260  174.6330  146.9090 C   0  0  0  0  0  2  0  0  0  0  0  0
  187.5200  176.0540  147.8980 O   0  0  0  0  0  0  0  0  0  0  0  0
  190.4850  175.7330  145.0380 C   0  0  2  0  0  0  0  0  0  0  0  0
  188.3590  176.8940  145.8610 C   0  0  0  0  0  2  0  0  0  0  0  0
  190.5280  174.9050  146.3380 C   0  0  0  0  0  2  0  0  0  0  0  0
  192.4950  175.3540  143.6420 O   0  0  0  0  0  0  0  0  0  0  0  0
  191.8670  176.2370  144.5520 C   0  0  2  0  0  0  0  0  0  0  0  0
  191.8000  177.9360  143.8730 S   0  0  0  0  0  0  0  0  0  0  0  0
  190.0590  178.1050  144.3800 C   0  0  0  0  0  2  0  0  0  0  0  0
  193.3870  173.0970  144.8310 C   0  0  0  0  0  1  0  0  0  0  0  0
  193.2980  174.3430  145.6930 C   0  0  0  0  0  2  0  0  0  0  0  0
  194.5050  176.3880  144.6170 C   0  0  1  0  0  3  0  0  0  0  0  0
  195.3490  176.3570  145.7320 O   0  0  0  0  0  1  0  0  0  0  0  0
  195.2350  175.8980  143.3690 C   0  0  0  0  0  2  0  0  0  0  0  0
  197.7050  176.0840  142.8410 C   0  0  0  0  0  1  0  0  0  0  0  0
  196.6380  175.3650  143.6580 C   0  0  2  0  0  3  0  0  0  0  0  0
  196.7080  173.8300  143.5490 C   0  0  1  0  0  3  0  0  0  0  0  0
  197.0800  173.4210  142.2640 O   0  0  0  0  0  1  0  0  0  0  0  0
  197.5770  173.1290  144.6050 C   0  0  0  0  0  3  0  0  0  0  0  0
  196.7870  171.8920  146.1670 C   0  0  0  0  0  2  0  0  0  0  0  0
  197.2410  171.6540  144.7390 C   0  0  0  0  0  2  0  0  0  0  0  0
  197.1130  173.3670  146.0300 C   0  0  0  0  0  2  0  0  0  0  0  0
  189.6470  175.0180  143.9200 C   0  0  2  0  0  3  0  0  0  0  0  0
  189.7160  173.4850  143.8310 C   0  0  0  0  0  2  0  0  0  0  0  0
  190.9390  172.7660  141.9420 O   0  0  0  0  0  0  0  0  0  0  0  0
  189.8380  172.9520  142.4390 C   0  0  0  0  0  0  0  0  0  0  0  0
  188.5970  172.6870  141.6490 C   0  0  0  0  0  2  0  0  0  0  0  0
  188.9000  172.5380  140.1660 C   0  0  0  0  0  2  0  0  0  0  0  0
  188.3700  173.7180  138.0960 C   0  0  0  0  0  3  0  0  0  0  0  0
  188.4380  173.7430  139.4200 C   0  0  0  0  0  3  0  0  0  0  0  0
  187.0600  175.6540  137.8190 O   0  0  0  0  0  0  0  0  0  0  0  0
  187.9230  174.8830  137.3260 C   0  0  0  0  0  0  0  0  0  0  0  0
  188.4500  175.1510  136.0290 N   0  0  0  0  0  1  0  0  0  0  0  0
  189.5950  175.7120  142.5560 C   0  0  0  0  0  2  0  0  0  0  0  0
  188.2630  176.3420  142.3340 C   0  0  0  0  0  0  0  0  0  0  0  0
  185.7690  177.5500  141.9510 C   0  0  0  0  0  3  0  0  0  0  0  0
  185.8940  176.4660  142.8250 C   0  0  0  0  0  3  0  0  0  0  0  0
  186.8910  178.0340  141.2700 C   0  0  0  0  0  3  0  0  0  0  0  0
  187.1400  175.8630  143.0180 C   0  0  0  0  0  3  0  0  0  0  0  0
  188.1380  177.4310  141.4640 C   0  0  0  0  0  3  0  0  0  0  0  0
  1  5  2  0  0  0  0
  2 14  1  1  0  0  0
  3 12  1  6  0  0  0
  3  7  1  0  0  0  0
  4  1  1  0  0  0  0
  6 26  1  6  0  0  0
  6  3  1  0  0  0  0
  6  8  1  0  0  0  0
  7  1  1  0  0  0  0
  8  4  1  0  0  0  0
  9  2  1  0  0  0  0
 10  9  1  6  0  0  0
 10  2  1  0  0  0  0
 10  6  1  0  0  0  0
 11 12  1  0  0  0  0
 11 10  1  0  0  0  0
 13 14  1  0  0  0  0
 15  2  1  0  0  0  0
 15 16  1  1  0  0  0
 17 19  1  0  0  0  0
 17 15  1  0  0  0  0
 19 18  1  6  0  0  0
 20 21  1  6  0  0  0
 20 19  1  0  0  0  0
 20 22  1  0  0  0  0
 22 24  1  0  0  0  0
 22 25  1  0  0  0  0
 24 23  1  0  0  0  0
 25 23  1  0  0  0  0
 26 37  1  6  0  0  0
 27 26  1  0  0  0  0
 28 29  2  0  0  0  0
 29 27  1  0  0  0  0
 30 29  1  0  0  0  0
 31 30  1  0  0  0  0
 32 33  2  0  0  0  0
 33 31  1  0  0  0  0
 35 34  2  0  0  0  0
 35 32  1  0  0  0  0
 36 35  1  0  0  0  0
 38 37  1  0  0  0  0
 38 42  1  0  0  0  0
 39 40  1  0  0  0  0
 40 42  2  0  0  0  0
 41 43  1  0  0  0  0
 41 39  2  0  0  0  0
 43 38  2  0  0  0  0
M  END
>  <MODEL>
5

>  <REMARK>
 VINA RESULT:      -6.4      3.078      6.344
  Name = 
  15 active torsions:
  status: ('A' for Active; 'I' for Inactive)
    1  A    between atoms: C_1  and  C_34
    2  A    between atoms: C_1  and  C_35
    3  A    between atoms: C_3  and  C_12
    4  A    between atoms: C_4  and  C_15
    5  A    between atoms: C_8  and  C_13
    6  A    between atoms: C_8  and  C_34
    7  A    between atoms: C_9  and  C_19
    8  A    between atoms: C_9  and  C_35
    9  A    between atoms: C_10  and  C_41
   10  A    between atoms: C_10  and  C_42
   11  A    between atoms: C_11  and  C_14
   12  A    between atoms: C_14  and  C_41
   13  A    between atoms: C_15  and  C_22
   14  A    between atoms: C_21  and  C_41
   15  A    between atoms: C_22  and  C_42
                            x       y       z     vdW  Elec       q    Type
                         _______ _______ _______ _____ _____    ______ ____

>  <TORSDO>
F 15

$$$$
=
 OpenBabel11052421233D

 43 47  0  0  1  0  0  0  0  0999 V2000
  193.6010  175.0770  141.5150 C   0  0  0  0  0  0  0  0  0  0  0  0
  188.4660  176.1390  142.6100 C   0  0  1  0  0  0  0  0  0  0  0  0
  192.1700  176.4800  142.9260 C   0  0  2  0  0  3  0  0  0  0  0  0
  192.4540  174.1530  141.1970 C   0  0  0  0  0  2  0  0  0  0  0  0
  194.5870  175.0850  140.7990 O   0  0  0  0  0  0  0  0  0  0  0  0
  191.0740  175.4120  142.9490 C   0  0  2  0  0  0  0  0  0  0  0  0
  193.5750  175.9140  142.7600 C   0  0  0  0  0  2  0  0  0  0  0  0
  191.0980  174.7950  141.5360 C   0  0  0  0  0  2  0  0  0  0  0  0
  188.7720  175.5440  143.8520 O   0  0  0  0  0  0  0  0  0  0  0  0
  189.8230  176.2760  143.2500 C   0  0  2  0  0  0  0  0  0  0  0  0
  190.2180  177.7740  144.2250 S   0  0  0  0  0  0  0  0  0  0  0  0
  192.0010  177.4310  144.0910 C   0  0  0  0  0  2  0  0  0  0  0  0
  187.4820  173.8830  142.1110 C   0  0  0  0  0  1  0  0  0  0  0  0
  188.2130  175.0850  141.5390 C   0  0  0  0  0  2  0  0  0  0  0  0
  187.4330  177.2730  142.7220 C   0  0  1  0  0  3  0  0  0  0  0  0
  187.4170  178.1000  141.5940 O   0  0  0  0  0  1  0  0  0  0  0  0
  186.0400  176.7170  143.0080 C   0  0  0  0  0  2  0  0  0  0  0  0
  184.0710  178.2900  142.7630 C   0  0  0  0  0  1  0  0  0  0  0  0
  185.1210  177.7180  143.7080 C   0  0  2  0  0  3  0  0  0  0  0  0
  185.9130  178.7950  144.4740 C   0  0  1  0  0  3  0  0  0  0  0  0
  185.5300  180.0850  144.0950 O   0  0  0  0  0  1  0  0  0  0  0  0
  185.9020  178.6620  146.0050 C   0  0  0  0  0  3  0  0  0  0  0  0
  186.0570  176.7920  147.0410 C   0  0  0  0  0  2  0  0  0  0  0  0
  187.0510  177.8110  146.5170 C   0  0  0  0  0  2  0  0  0  0  0  0
  184.9100  177.6370  146.5200 C   0  0  0  0  0  2  0  0  0  0  0  0
  191.3830  174.3440  144.0550 C   0  0  2  0  0  3  0  0  0  0  0  0
  190.3830  173.1940  144.2530 C   0  0  0  0  0  2  0  0  0  0  0  0
  191.7400  171.2880  143.9170 O   0  0  0  0  0  0  0  0  0  0  0  0
  190.7590  171.9220  143.5600 C   0  0  0  0  0  0  0  0  0  0  0  0
  189.9390  171.4570  142.4000 C   0  0  0  0  0  2  0  0  0  0  0  0
  190.7780  170.6770  141.4010 C   0  0  0  0  0  2  0  0  0  0  0  0
  189.5960  172.0820  139.7920 C   0  0  0  0  0  3  0  0  0  0  0  0
  190.5500  171.1900  140.0200 C   0  0  0  0  0  3  0  0  0  0  0  0
  188.1930  173.0410  138.1630 O   0  0  0  0  0  0  0  0  0  0  0  0
  189.3390  172.6090  138.4480 C   0  0  0  0  0  0  0  0  0  0  0  0
  190.3680  172.6360  137.4620 N   0  0  0  0  0  1  0  0  0  0  0  0
  191.9830  174.8690  145.3630 C   0  0  0  0  0  2  0  0  0  0  0  0
  193.4000  174.4330  145.5060 C   0  0  0  0  0  0  0  0  0  0  0  0
  196.0550  173.6050  145.8150 C   0  0  0  0  0  3  0  0  0  0  0  0
  195.6890  174.9150  146.1380 C   0  0  0  0  0  3  0  0  0  0  0  0
  195.0940  172.7070  145.3400 C   0  0  0  0  0  3  0  0  0  0  0  0
  194.3630  175.3290  145.9850 C   0  0  0  0  0  3  0  0  0  0  0  0
  193.7670  173.1200  145.1880 C   0  0  0  0  0  3  0  0  0  0  0  0
  1  7  1  0  0  0  0
  2 14  1  6  0  0  0
  2 15  1  0  0  0  0
  2 10  1  0  0  0  0
  2  9  1  0  0  0  0
  3  7  1  1  0  0  0
  3  6  1  0  0  0  0
  3 12  1  0  0  0  0
  4  1  1  0  0  0  0
  4  8  1  0  0  0  0
  5  1  2  0  0  0  0
  6 10  1  0  0  0  0
  6 26  1  1  0  0  0
  8  6  1  0  0  0  0
 10  9  1  1  0  0  0
 10 11  1  0  0  0  0
 12 11  1  0  0  0  0
 14 13  1  0  0  0  0
 15 16  1  6  0  0  0
 15 17  1  0  0  0  0
 17 19  1  0  0  0  0
 19 18  1  6  0  0  0
 19 20  1  0  0  0  0
 20 21  1  1  0  0  0
 20 22  1  0  0  0  0
 22 24  1  0  0  0  0
 22 25  1  0  0  0  0
 24 23  1  0  0  0  0
 25 23  1  0  0  0  0
 26 27  1  1  0  0  0
 26 37  1  0  0  0  0
 29 28  2  0  0  0  0
 29 27  1  0  0  0  0
 30 29  1  0  0  0  0
 31 30  1  0  0  0  0
 32 33  2  0  0  0  0
 33 31  1  0  0  0  0
 34 35  2  0  0  0  0
 35 32  1  0  0  0  0
 36 35  1  0  0  0  0
 37 38  1  0  0  0  0
 38 42  1  0  0  0  0
 39 40  1  0  0  0  0
 41 39  2  0  0  0  0
 42 40  2  0  0  0  0
 43 41  1  0  0  0  0
 43 38  2  0  0  0  0
M  END
>  <MODEL>
6

>  <REMARK>
 VINA RESULT:      -6.4      2.735      7.566
  Name = 
  15 active torsions:
  status: ('A' for Active; 'I' for Inactive)
    1  A    between atoms: C_1  and  C_34
    2  A    between atoms: C_1  and  C_35
    3  A    between atoms: C_3  and  C_12
    4  A    between atoms: C_4  and  C_15
    5  A    between atoms: C_8  and  C_13
    6  A    between atoms: C_8  and  C_34
    7  A    between atoms: C_9  and  C_19
    8  A    between atoms: C_9  and  C_35
    9  A    between atoms: C_10  and  C_41
   10  A    between atoms: C_10  and  C_42
   11  A    between atoms: C_11  and  C_14
   12  A    between atoms: C_14  and  C_41
   13  A    between atoms: C_15  and  C_22
   14  A    between atoms: C_21  and  C_41
   15  A    between atoms: C_22  and  C_42
                            x       y       z     vdW  Elec       q    Type
                         _______ _______ _______ _____ _____    ______ ____

>  <TORSDO>
F 15

$$$$
=
 OpenBabel11052421233D

 43 47  0  0  1  0  0  0  0  0999 V2000
  195.4410  175.6660  142.1560 C   0  0  0  0  0  0  0  0  0  0  0  0
  190.6070  176.1260  144.4170 C   0  0  1  0  0  0  0  0  0  0  0  0
  194.3370  176.0310  144.3140 C   0  0  2  0  0  3  0  0  0  0  0  0
  194.1610  175.1680  141.5370 C   0  0  0  0  0  2  0  0  0  0  0  0
  196.3500  176.0480  141.4400 O   0  0  0  0  0  0  0  0  0  0  0  0
  193.1200  175.2130  143.8760 C   0  0  2  0  0  0  0  0  0  0  0  0
  195.6370  175.6040  143.6420 C   0  0  0  0  0  2  0  0  0  0  0  0
  192.9350  175.5520  142.3840 C   0  0  0  0  0  2  0  0  0  0  0  0
  190.9460  174.8970  145.0200 O   0  0  0  0  0  0  0  0  0  0  0  0
  192.0220  175.7910  144.8060 C   0  0  2  0  0  0  0  0  0  0  0  0
  192.6940  176.3990  146.3960 S   0  0  0  0  0  0  0  0  0  0  0  0
  194.3990  176.1140  145.8240 C   0  0  0  0  0  2  0  0  0  0  0  0
  189.3020  174.6540  142.8560 C   0  0  0  0  0  1  0  0  0  0  0  0
  190.1230  175.9250  142.9850 C   0  0  0  0  0  2  0  0  0  0  0  0
  189.7420  177.0240  145.3180 C   0  0  1  0  0  3  0  0  0  0  0  0
  189.5170  178.2880  144.7640 O   0  0  0  0  0  1  0  0  0  0  0  0
  188.4220  176.3390  145.6650 C   0  0  0  0  0  2  0  0  0  0  0  0
  187.1120  177.7780  147.2860 C   0  0  0  0  0  1  0  0  0  0  0  0
  187.2600  177.3180  145.8410 C   0  0  2  0  0  3  0  0  0  0  0  0
  185.9530  176.7820  145.2270 C   0  0  1  0  0  3  0  0  0  0  0  0
  184.9010  176.8110  146.1480 O   0  0  0  0  0  1  0  0  0  0  0  0
  185.5240  177.4370  143.9050 C   0  0  0  0  0  3  0  0  0  0  0  0
  186.9020  178.1210  142.4120 C   0  0  0  0  0  2  0  0  0  0  0  0
  186.2050  176.8050  142.7030 C   0  0  0  0  0  2  0  0  0  0  0  0
  186.2300  178.7490  143.6190 C   0  0  0  0  0  2  0  0  0  0  0  0
  193.3900  173.6830  144.0970 C   0  0  2  0  0  3  0  0  0  0  0  0
  192.5530  172.6750  143.2920 C   0  0  0  0  0  2  0  0  0  0  0  0
  194.5030  171.7500  142.3300 O   0  0  0  0  0  0  0  0  0  0  0  0
  193.3070  171.9710  142.2100 C   0  0  0  0  0  0  0  0  0  0  0  0
  192.5870  171.5740  140.9610 C   0  0  0  0  0  2  0  0  0  0  0  0
  191.2130  172.2200  140.8810 C   0  0  0  0  0  2  0  0  0  0  0  0
  192.0230  173.5170  138.9780 C   0  0  0  0  0  3  0  0  0  0  0  0
  191.0210  172.8650  139.5520 C   0  0  0  0  0  3  0  0  0  0  0  0
  192.8530  174.7740  137.1690 O   0  0  0  0  0  0  0  0  0  0  0  0
  191.8730  174.1660  137.6720 C   0  0  0  0  0  0  0  0  0  0  0  0
  190.6350  174.1190  136.9680 N   0  0  0  0  0  1  0  0  0  0  0  0
  193.6710  173.2390  145.5350 C   0  0  0  0  0  2  0  0  0  0  0  0
  194.8110  172.2800  145.5780 C   0  0  0  0  0  0  0  0  0  0  0  0
  196.9460  170.4720  145.6180 C   0  0  0  0  0  3  0  0  0  0  0  0
  195.6360  170.0110  145.7770 C   0  0  0  0  0  3  0  0  0  0  0  0
  197.1900  171.8370  145.4350 C   0  0  0  0  0  3  0  0  0  0  0  0
  194.5690  170.9130  145.7560 C   0  0  0  0  0  3  0  0  0  0  0  0
  196.1220  172.7400  145.4130 C   0  0  0  0  0  3  0  0  0  0  0  0
  1  7  1  0  0  0  0
  2 14  1  6  0  0  0
  2 10  1  0  0  0  0
  2  9  1  0  0  0  0
  2 15  1  0  0  0  0
  3  7  1  1  0  0  0
  3 12  1  0  0  0  0
  4  1  1  0  0  0  0
  4  8  1  0  0  0  0
  5  1  2  0  0  0  0
  6 26  1  1  0  0  0
  6  3  1  0  0  0  0
  6 10  1  0  0  0  0
  8  6  1  0  0  0  0
 10  9  1  1  0  0  0
 10 11  1  0  0  0  0
 12 11  1  0  0  0  0
 13 14  1  0  0  0  0
 15 16  1  6  0  0  0
 15 17  1  0  0  0  0
 17 19  1  0  0  0  0
 19 18  1  1  0  0  0
 20 19  1  0  0  0  0
 20 21  1  1  0  0  0
 22 20  1  0  0  0  0
 23 24  1  0  0  0  0
 23 25  1  0  0  0  0
 24 22  1  0  0  0  0
 25 22  1  0  0  0  0
 26 27  1  1  0  0  0
 26 37  1  0  0  0  0
 29 28  2  0  0  0  0
 29 27  1  0  0  0  0
 30 29  1  0  0  0  0
 31 30  1  0  0  0  0
 32 33  2  0  0  0  0
 33 31  1  0  0  0  0
 34 35  2  0  0  0  0
 35 32  1  0  0  0  0
 36 35  1  0  0  0  0
 37 38  1  0  0  0  0
 38 42  1  0  0  0  0
 39 40  1  0  0  0  0
 41 39  2  0  0  0  0
 42 40  2  0  0  0  0
 43 41  1  0  0  0  0
 43 38  2  0  0  0  0
M  END
>  <MODEL>
7

>  <REMARK>
 VINA RESULT:      -6.3      3.063      7.846
  Name = 
  15 active torsions:
  status: ('A' for Active; 'I' for Inactive)
    1  A    between atoms: C_1  and  C_34
    2  A    between atoms: C_1  and  C_35
    3  A    between atoms: C_3  and  C_12
    4  A    between atoms: C_4  and  C_15
    5  A    between atoms: C_8  and  C_13
    6  A    between atoms: C_8  and  C_34
    7  A    between atoms: C_9  and  C_19
    8  A    between atoms: C_9  and  C_35
    9  A    between atoms: C_10  and  C_41
   10  A    between atoms: C_10  and  C_42
   11  A    between atoms: C_11  and  C_14
   12  A    between atoms: C_14  and  C_41
   13  A    between atoms: C_15  and  C_22
   14  A    between atoms: C_21  and  C_41
   15  A    between atoms: C_22  and  C_42
                            x       y       z     vdW  Elec       q    Type
                         _______ _______ _______ _____ _____    ______ ____

>  <TORSDO>
F 15

$$$$
=
 OpenBabel11052421233D

 43 47  0  0  1  0  0  0  0  0999 V2000
  190.9540  178.4600  143.6470 C   0  0  0  0  0  0  0  0  0  0  0  0
  190.2590  173.2950  142.4120 C   0  0  1  0  0  0  0  0  0  0  0  0
  189.5100  176.9520  142.3630 C   0  0  2  0  0  3  0  0  0  0  0  0
  191.5210  177.3120  144.4400 C   0  0  0  0  0  2  0  0  0  0  0  0
  191.5530  179.5200  143.6040 O   0  0  0  0  0  0  0  0  0  0  0  0
  189.7590  175.8080  143.3490 C   0  0  2  0  0  0  0  0  0  0  0  0
  189.6090  178.3370  142.9920 C   0  0  0  0  0  2  0  0  0  0  0  0
  191.2370  175.9600  143.7630 C   0  0  0  0  0  2  0  0  0  0  0  0
  189.0920  173.4280  143.1930 O   0  0  0  0  0  0  0  0  0  0  0  0
  189.4680  174.5750  142.4560 C   0  0  2  0  0  0  0  0  0  0  0  0
  188.2490  174.9320  141.1370 S   0  0  0  0  0  0  0  0  0  0  0  0
  188.2430  176.7000  141.5750 C   0  0  0  0  0  2  0  0  0  0  0  0
  191.1660  172.3200  144.5410 C   0  0  0  0  0  1  0  0  0  0  0  0
  191.4930  173.1120  143.2880 C   0  0  0  0  0  2  0  0  0  0  0  0
  190.0920  172.3140  141.2390 C   0  0  1  0  0  3  0  0  0  0  0  0
  191.0360  172.5180  140.2270 O   0  0  0  0  0  1  0  0  0  0  0  0
  190.1230  170.8680  141.7280 C   0  0  0  0  0  2  0  0  0  0  0  0
  190.8830  169.0090  140.1850 C   0  0  0  0  0  1  0  0  0  0  0  0
  191.3120  170.0720  141.1880 C   0  0  2  0  0  3  0  0  0  0  0  0
  192.2060  169.5270  142.3190 C   0  0  1  0  0  3  0  0  0  0  0  0
  191.9480  168.1770  142.5750 O   0  0  0  0  0  1  0  0  0  0  0  0
  193.7140  169.7590  142.1410 C   0  0  0  0  0  3  0  0  0  0  0  0
  194.7250  171.5500  142.7460 C   0  0  0  0  0  2  0  0  0  0  0  0
  194.3770  170.2370  143.4210 C   0  0  0  0  0  2  0  0  0  0  0  0
  194.0530  171.0770  141.4700 C   0  0  0  0  0  2  0  0  0  0  0  0
  188.7940  175.9360  144.5790 C   0  0  2  0  0  3  0  0  0  0  0  0
  189.2100  175.2710  145.9010 C   0  0  0  0  0  2  0  0  0  0  0  0
  189.1030  177.3010  147.1050 O   0  0  0  0  0  0  0  0  0  0  0  0
  189.6660  176.2270  146.9570 C   0  0  0  0  0  0  0  0  0  0  0  0
  190.8440  175.8660  147.8050 C   0  0  0  0  0  2  0  0  0  0  0  0
  191.6620  174.7500  147.1760 C   0  0  0  0  0  2  0  0  0  0  0  0
  193.7400  174.6670  145.8960 C   0  0  0  0  0  3  0  0  0  0  0  0
  193.0420  175.2260  146.8760 C   0  0  0  0  0  3  0  0  0  0  0  0
  195.2660  176.1580  144.9020 O   0  0  0  0  0  0  0  0  0  0  0  0
  195.1000  175.1060  145.5710 C   0  0  0  0  0  0  0  0  0  0  0  0
  196.2350  174.3570  146.0000 N   0  0  0  0  0  1  0  0  0  0  0  0
  187.2940  175.8330  144.2850 C   0  0  0  0  0  2  0  0  0  0  0  0
  186.5460  176.9220  144.9730 C   0  0  0  0  0  0  0  0  0  0  0  0
  185.1060  178.9600  146.2400 C   0  0  0  0  0  3  0  0  0  0  0  0
  185.8450  179.2390  145.0870 C   0  0  0  0  0  3  0  0  0  0  0  0
  185.0830  177.6610  146.7600 C   0  0  0  0  0  3  0  0  0  0  0  0
  186.5630  178.2200  144.4520 C   0  0  0  0  0  3  0  0  0  0  0  0
  185.8010  176.6420  146.1250 C   0  0  0  0  0  3  0  0  0  0  0  0
  1  4  1  0  0  0  0
  2 10  1  0  0  0  0
  2  9  1  0  0  0  0
  2 14  1  1  0  0  0
  3 12  1  1  0  0  0
  3  7  1  0  0  0  0
  3  6  1  0  0  0  0
  5  1  2  0  0  0  0
  6  8  1  0  0  0  0
  6 26  1  1  0  0  0
  7  1  1  0  0  0  0
  8  4  1  0  0  0  0
 10 11  1  6  0  0  0
 10  9  1  0  0  0  0
 10  6  1  0  0  0  0
 11 12  1  0  0  0  0
 14 13  1  0  0  0  0
 15 16  1  6  0  0  0
 15 17  1  0  0  0  0
 15  2  1  0  0  0  0
 19 18  1  1  0  0  0
 19 17  1  0  0  0  0
 19 20  1  0  0  0  0
 20 21  1  6  0  0  0
 22 20  1  0  0  0  0
 22 24  1  0  0  0  0
 23 24  1  0  0  0  0
 25 22  1  0  0  0  0
 25 23  1  0  0  0  0
 26 37  1  6  0  0  0
 26 27  1  0  0  0  0
 27 29  1  0  0  0  0
 29 28  2  0  0  0  0
 29 30  1  0  0  0  0
 31 30  1  0  0  0  0
 32 33  2  0  0  0  0
 33 31  1  0  0  0  0
 34 35  2  0  0  0  0
 35 32  1  0  0  0  0
 35 36  1  0  0  0  0
 37 38  1  0  0  0  0
 38 43  1  0  0  0  0
 39 41  1  0  0  0  0
 40 39  2  0  0  0  0
 42 38  2  0  0  0  0
 42 40  1  0  0  0  0
 43 41  2  0  0  0  0
M  END
>  <MODEL>
8

>  <REMARK>
 VINA RESULT:      -6.2      2.856      5.208
  Name = 
  15 active torsions:
  status: ('A' for Active; 'I' for Inactive)
    1  A    between atoms: C_1  and  C_34
    2  A    between atoms: C_1  and  C_35
    3  A    between atoms: C_3  and  C_12
    4  A    between atoms: C_4  and  C_15
    5  A    between atoms: C_8  and  C_13
    6  A    between atoms: C_8  and  C_34
    7  A    between atoms: C_9  and  C_19
    8  A    between atoms: C_9  and  C_35
    9  A    between atoms: C_10  and  C_41
   10  A    between atoms: C_10  and  C_42
   11  A    between atoms: C_11  and  C_14
   12  A    between atoms: C_14  and  C_41
   13  A    between atoms: C_15  and  C_22
   14  A    between atoms: C_21  and  C_41
   15  A    between atoms: C_22  and  C_42
                            x       y       z     vdW  Elec       q    Type
                         _______ _______ _______ _____ _____    ______ ____

>  <TORSDO>
F 15

$$$$
=
 OpenBabel11052421233D

 43 47  0  0  1  0  0  0  0  0999 V2000
  190.7820  178.3010  143.5630 C   0  0  0  0  0  0  0  0  0  0  0  0
  189.1000  173.9460  140.9380 C   0  0  1  0  0  0  0  0  0  0  0  0
  189.0550  177.5220  142.0090 C   0  0  2  0  0  3  0  0  0  0  0  0
  191.1380  176.8870  143.9440 C   0  0  0  0  0  2  0  0  0  0  0  0
  191.5700  179.2030  143.7850 O   0  0  0  0  0  0  0  0  0  0  0  0
  189.1020  176.1100  142.5980 C   0  0  2  0  0  0  0  0  0  0  0  0
  189.4260  178.6150  143.0030 C   0  0  0  0  0  2  0  0  0  0  0  0
  190.5900  175.8710  142.9270 C   0  0  0  0  0  2  0  0  0  0  0  0
  187.9940  174.0410  141.8090 O   0  0  0  0  0  0  0  0  0  0  0  0
  188.5660  175.2720  141.4100 C   0  0  2  0  0  0  0  0  0  0  0  0
  187.4100  176.2140  140.3470 S   0  0  0  0  0  0  0  0  0  0  0  0
  187.7480  177.7420  141.2790 C   0  0  0  0  0  2  0  0  0  0  0  0
  189.8460  172.3180  142.6990 C   0  0  0  0  0  1  0  0  0  0  0  0
  190.2940  173.2970  141.6270 C   0  0  0  0  0  2  0  0  0  0  0  0
  188.7270  173.4050  139.5460 C   0  0  1  0  0  3  0  0  0  0  0  0
  189.2750  174.1660  138.5090 O   0  0  0  0  0  1  0  0  0  0  0  0
  189.1180  171.9360  139.4080 C   0  0  0  0  0  2  0  0  0  0  0  0
  189.6950  170.8640  137.1880 C   0  0  0  0  0  1  0  0  0  0  0  0
  190.2040  171.6940  138.3590 C   0  0  2  0  0  3  0  0  0  0  0  0
  191.5020  171.1490  138.9850 C   0  0  1  0  0  3  0  0  0  0  0  0
  191.6860  169.7940  138.6920 O   0  0  0  0  0  1  0  0  0  0  0  0
  192.7780  171.9430  138.6640 C   0  0  0  0  0  3  0  0  0  0  0  0
  193.0490  174.0120  139.1550 C   0  0  0  0  0  2  0  0  0  0  0  0
  193.3040  172.6990  139.8710 C   0  0  0  0  0  2  0  0  0  0  0  0
  192.5130  173.2580  137.9530 C   0  0  0  0  0  2  0  0  0  0  0  0
  188.2030  176.0310  143.8820 C   0  0  2  0  0  3  0  0  0  0  0  0
  188.6130  175.0560  144.9970 C   0  0  0  0  0  2  0  0  0  0  0  0
  188.8260  176.9030  146.4540 O   0  0  0  0  0  0  0  0  0  0  0  0
  189.0470  175.7170  146.2670 C   0  0  0  0  0  0  0  0  0  0  0  0
  189.7870  174.9140  147.2880 C   0  0  0  0  0  2  0  0  0  0  0  0
  190.9930  175.6700  147.8230 C   0  0  0  0  0  2  0  0  0  0  0  0
  193.1380  176.3710  146.8900 C   0  0  0  0  0  3  0  0  0  0  0  0
  192.1710  175.4640  146.9330 C   0  0  0  0  0  3  0  0  0  0  0  0
  194.8170  177.2150  145.4720 O   0  0  0  0  0  0  0  0  0  0  0  0
  194.3110  176.2050  146.0260 C   0  0  0  0  0  0  0  0  0  0  0  0
  194.8820  174.9190  145.8040 N   0  0  0  0  0  1  0  0  0  0  0  0
  186.6890  176.1100  143.6620 C   0  0  0  0  0  2  0  0  0  0  0  0
  186.0780  177.1270  144.5620 C   0  0  0  0  0  0  0  0  0  0  0  0
  184.9650  179.0400  146.2750 C   0  0  0  0  0  3  0  0  0  0  0  0
  184.9240  177.6850  146.6180 C   0  0  0  0  0  3  0  0  0  0  0  0
  185.5650  179.4400  145.0770 C   0  0  0  0  0  3  0  0  0  0  0  0
  185.4810  176.7290  145.7630 C   0  0  0  0  0  3  0  0  0  0  0  0
  186.1230  178.4850  144.2220 C   0  0  0  0  0  3  0  0  0  0  0  0
  1  5  2  0  0  0  0
  1  4  1  0  0  0  0
  2 10  1  0  0  0  0
  2 14  1  1  0  0  0
  2  9  1  0  0  0  0
  3 12  1  1  0  0  0
  3  6  1  0  0  0  0
  3  7  1  0  0  0  0
  6  8  1  0  0  0  0
  6 26  1  1  0  0  0
  7  1  1  0  0  0  0
  8  4  1  0  0  0  0
 10 11  1  6  0  0  0
 10  9  1  0  0  0  0
 10  6  1  0  0  0  0
 11 12  1  0  0  0  0
 14 13  1  0  0  0  0
 15 16  1  6  0  0  0
 15  2  1  0  0  0  0
 17 15  1  0  0  0  0
 19 18  1  6  0  0  0
 19 20  1  0  0  0  0
 19 17  1  0  0  0  0
 20 21  1  6  0  0  0
 22 20  1  0  0  0  0
 22 24  1  0  0  0  0
 23 24  1  0  0  0  0
 25 22  1  0  0  0  0
 25 23  1  0  0  0  0
 26 37  1  6  0  0  0
 26 27  1  0  0  0  0
 27 29  1  0  0  0  0
 29 28  2  0  0  0  0
 29 30  1  0  0  0  0
 30 31  1  0  0  0  0
 32 33  2  0  0  0  0
 33 31  1  0  0  0  0
 34 35  2  0  0  0  0
 35 32  1  0  0  0  0
 36 35  1  0  0  0  0
 37 38  1  0  0  0  0
 38 42  1  0  0  0  0
 39 40  1  0  0  0  0
 41 39  2  0  0  0  0
 42 40  2  0  0  0  0
 43 38  2  0  0  0  0
 43 41  1  0  0  0  0
M  END
>  <MODEL>
9

>  <REMARK>
 VINA RESULT:      -6.2      2.727      4.924
  Name = 
  15 active torsions:
  status: ('A' for Active; 'I' for Inactive)
    1  A    between atoms: C_1  and  C_34
    2  A    between atoms: C_1  and  C_35
    3  A    between atoms: C_3  and  C_12
    4  A    between atoms: C_4  and  C_15
    5  A    between atoms: C_8  and  C_13
    6  A    between atoms: C_8  and  C_34
    7  A    between atoms: C_9  and  C_19
    8  A    between atoms: C_9  and  C_35
    9  A    between atoms: C_10  and  C_41
   10  A    between atoms: C_10  and  C_42
   11  A    between atoms: C_11  and  C_14
   12  A    between atoms: C_14  and  C_41
   13  A    between atoms: C_15  and  C_22
   14  A    between atoms: C_21  and  C_41
   15  A    between atoms: C_22  and  C_42
                            x       y       z     vdW  Elec       q    Type
                         _______ _______ _______ _____ _____    ______ ____

>  <TORSDO>
F 15

$$$$
