=
 OpenBabel11052417173D

 30 34  0  0  1  0  0  0  0  0999 V2000
  189.5110  177.8040  144.2290 C   0  0  0  0  0  2  0  0  0  0  0  0
  191.3600  176.6760  145.5260 C   0  0  0  0  0  0  0  0  0  0  0  0
  188.1750  177.4660  143.7220 N   0  0  2  0  0  0  0  0  0  0  0  0
  191.7930  175.8150  146.5390 C   0  0  0  0  0  3  0  0  0  0  0  0
  192.3840  177.3540  144.6810 C   0  0  0  0  0  1  0  0  0  0  0  0
  187.5600  176.3680  145.9170 C   0  0  1  0  0  3  0  0  0  0  0  0
  190.8680  175.1530  147.3440 C   0  0  0  0  0  3  0  0  0  0  0  0
  189.9810  176.8760  145.3160 C   0  0  0  0  0  0  0  0  0  0  0  0
  187.1940  177.3810  144.8180 C   0  0  2  0  0  3  0  0  0  0  0  0
  185.7760  177.1740  144.3030 C   0  0  0  0  0  1  0  0  0  0  0  0
  189.5010  175.3550  147.1470 C   0  0  0  0  0  3  0  0  0  0  0  0
  189.0460  176.2310  146.1520 C   0  0  0  0  0  0  0  0  0  0  0  0
  188.2050  176.3280  142.7780 C   0  0  1  0  0  0  0  0  0  0  0  0
  186.9420  175.7330  142.6130 O   0  0  0  0  0  0  0  0  0  0  0  0
  187.4290  176.4790  141.5170 C   0  0  1  0  0  3  0  0  0  0  0  0
  190.4390  175.6990  142.3370 O   0  0  0  0  0  0  0  0  0  0  0  0
  189.3440  175.3430  142.7470 C   0  0  0  0  0  0  0  0  0  0  0  0
  189.1200  173.9160  143.1550 C   0  0  1  0  0  3  0  0  0  0  0  0
  189.0700  173.1020  142.0190 O   0  0  0  0  0  0  0  0  0  0  0  0
  187.7400  172.6860  141.9320 C   0  0  0  0  0  1  0  0  0  0  0  0
  190.2310  173.4420  144.0830 C   0  0  0  0  0  2  0  0  0  0  0  0
  189.7300  172.3240  144.9750 C   0  0  0  0  0  1  0  0  0  0  0  0
  186.7610  177.7050  141.4610 O   0  0  0  0  0  0  0  0  0  0  0  0
  185.6300  177.4560  140.6820 C   0  0  2  0  0  3  0  0  0  0  0  0
  184.9190  178.7630  140.3860 C   0  0  2  0  0  3  0  0  0  0  0  0
  184.3870  177.8500  141.4560 C   0  0  1  0  0  3  0  0  0  0  0  0
  183.4260  178.5310  140.5030 C   0  0  0  0  0  2  0  0  0  0  0  0
  186.7920  176.6570  147.2110 C   0  0  0  0  0  2  0  0  0  0  0  0
  186.8150  178.1340  147.5740 C   0  0  0  0  0  2  0  0  0  0  0  0
  185.5090  178.6180  147.6310 O   0  0  0  0  0  1  0  0  0  0  0  0
  1  8  1  0  0  0  0
  2  4  1  0  0  0  0
  3  1  1  1  0  0  0
  3  9  1  0  0  0  0
  4  7  2  0  0  0  0
  5  2  1  0  0  0  0
  6 12  1  0  0  0  0
  6 28  1  1  0  0  0
  8  2  2  0  0  0  0
  8 12  1  0  0  0  0
  9 10  1  6  0  0  0
  9  6  1  0  0  0  0
 11  7  1  0  0  0  0
 12 11  2  0  0  0  0
 13 17  1  6  0  0  0
 13  3  1  0  0  0  0
 14 13  1  0  0  0  0
 15 23  1  1  0  0  0
 15 14  1  0  0  0  0
 15 13  1  0  0  0  0
 16 17  2  0  0  0  0
 17 18  1  0  0  0  0
 18 21  1  1  0  0  0
 19 18  1  0  0  0  0
 20 19  1  0  0  0  0
 21 22  1  0  0  0  0
 24 26  1  0  0  0  0
 24 23  1  1  0  0  0
 25 27  1  6  0  0  0
 25 24  1  0  0  0  0
 25 26  1  0  0  0  0
 26 27  1  6  0  0  0
 28 29  1  0  0  0  0
 29 30  1  0  0  0  0
M  END
>  <MODEL>
1

>  <REMARK>
 VINA RESULT:      -6.5      0.000      0.000
  Name = 
  9 active torsions:
  status: ('A' for Active; 'I' for Inactive)
    1  A    between atoms: C_3  and  C_11
    2  A    between atoms: C_3  and  C_19
    3  A    between atoms: N_4  and  C_13
    4  A    between atoms: O_5  and  C_12
    5  A    between atoms: C_7  and  O_16
    6  A    between atoms: C_8  and  C_12
    7  A    between atoms: C_8  and  C_13
    8  A    between atoms: C_9  and  C_12
    9  A    between atoms: O_16  and  C_30
                            x       y       z     vdW  Elec       q    Type
                         _______ _______ _______ _____ _____    ______ ____

>  <TORSDO>
F 9

$$$$
=
 OpenBabel11052417173D

 30 34  0  0  1  0  0  0  0  0999 V2000
  188.9670  175.4380  142.7330 C   0  0  0  0  0  2  0  0  0  0  0  0
  189.3300  172.9630  142.3980 C   0  0  0  0  0  0  0  0  0  0  0  0
  189.5180  176.5160  143.5630 N   0  0  2  0  0  0  0  0  0  0  0  0
  190.1730  171.8510  142.3150 C   0  0  0  0  0  3  0  0  0  0  0  0
  187.8620  172.7570  142.2320 C   0  0  0  0  0  1  0  0  0  0  0  0
  191.8800  175.7340  143.1070 C   0  0  1  0  0  3  0  0  0  0  0  0
  191.5510  171.9990  142.4750 C   0  0  0  0  0  3  0  0  0  0  0  0
  189.8710  174.2400  142.6460 C   0  0  0  0  0  0  0  0  0  0  0  0
  190.8700  176.8940  143.1180 C   0  0  2  0  0  3  0  0  0  0  0  0
  191.4040  178.1050  143.8720 C   0  0  0  0  0  1  0  0  0  0  0  0
  192.0930  173.2630  142.7110 C   0  0  0  0  0  3  0  0  0  0  0  0
  191.2680  174.3930  142.7750 C   0  0  0  0  0  0  0  0  0  0  0  0
  189.3530  176.2500  145.0100 C   0  0  1  0  0  0  0  0  0  0  0  0
  189.1020  177.4210  145.7460 O   0  0  0  0  0  0  0  0  0  0  0  0
  188.0150  176.5310  145.5970 C   0  0  1  0  0  3  0  0  0  0  0  0
  189.9250  174.0600  145.6880 O   0  0  0  0  0  0  0  0  0  0  0  0
  190.2060  175.2490  145.7420 C   0  0  0  0  0  0  0  0  0  0  0  0
  191.3590  175.7100  146.5850 C   0  0  1  0  0  3  0  0  0  0  0  0
  190.9800  175.7320  147.9310 O   0  0  0  0  0  0  0  0  0  0  0  0
  191.3270  177.0060  148.3830 C   0  0  0  0  0  1  0  0  0  0  0  0
  192.5620  174.7960  146.4000 C   0  0  0  0  0  2  0  0  0  0  0  0
  193.8420  175.6060  146.3850 C   0  0  0  0  0  1  0  0  0  0  0  0
  187.1270  177.0440  144.6480 O   0  0  0  0  0  0  0  0  0  0  0  0
  186.4980  178.1100  145.2920 C   0  0  2  0  0  3  0  0  0  0  0  0
  185.2740  177.6060  146.0320 C   0  0  2  0  0  3  0  0  0  0  0  0
  185.1110  178.3040  144.7100 C   0  0  1  0  0  3  0  0  0  0  0  0
  184.1550  178.6120  145.8450 C   0  0  0  0  0  2  0  0  0  0  0  0
  193.0840  176.0580  142.2150 C   0  0  0  0  0  2  0  0  0  0  0  0
  194.3940  176.0330  142.9890 C   0  0  0  0  0  2  0  0  0  0  0  0
  195.4440  176.3670  142.1340 O   0  0  0  0  0  1  0  0  0  0  0  0
  2  8  1  0  0  0  0
  3  1  1  6  0  0  0
  3 13  1  0  0  0  0
  4  2  2  0  0  0  0
  4  7  1  0  0  0  0
  5  2  1  0  0  0  0
  6 28  1  6  0  0  0
  6  9  1  0  0  0  0
  7 11  2  0  0  0  0
  8  1  1  0  0  0  0
  8 12  2  0  0  0  0
  9  3  1  0  0  0  0
  9 10  1  1  0  0  0
 11 12  1  0  0  0  0
 12  6  1  0  0  0  0
 13 15  1  0  0  0  0
 13 17  1  1  0  0  0
 13 14  1  0  0  0  0
 15 23  1  6  0  0  0
 15 14  1  0  0  0  0
 16 17  2  0  0  0  0
 17 18  1  0  0  0  0
 18 21  1  1  0  0  0
 18 19  1  0  0  0  0
 19 20  1  0  0  0  0
 22 21  1  0  0  0  0
 24 23  1  6  0  0  0
 24 25  1  0  0  0  0
 25 27  1  1  0  0  0
 26 24  1  0  0  0  0
 26 27  1  1  0  0  0
 26 25  1  0  0  0  0
 28 29  1  0  0  0  0
 30 29  1  0  0  0  0
M  END
>  <MODEL>
2

>  <REMARK>
 VINA RESULT:      -6.1      2.427      5.572
  Name = 
  9 active torsions:
  status: ('A' for Active; 'I' for Inactive)
    1  A    between atoms: C_3  and  C_11
    2  A    between atoms: C_3  and  C_19
    3  A    between atoms: N_4  and  C_13
    4  A    between atoms: O_5  and  C_12
    5  A    between atoms: C_7  and  O_16
    6  A    between atoms: C_8  and  C_12
    7  A    between atoms: C_8  and  C_13
    8  A    between atoms: C_9  and  C_12
    9  A    between atoms: O_16  and  C_30
                            x       y       z     vdW  Elec       q    Type
                         _______ _______ _______ _____ _____    ______ ____

>  <TORSDO>
F 9

$$$$
=
 OpenBabel11052417173D

 30 34  0  0  1  0  0  0  0  0999 V2000
  191.5990  177.2040  144.0010 C   0  0  0  0  0  2  0  0  0  0  0  0
  193.6240  175.7160  143.7550 C   0  0  0  0  0  0  0  0  0  0  0  0
  190.2130  177.0860  144.4680 N   0  0  2  0  0  0  0  0  0  0  0  0
  194.4460  174.6850  144.2170 C   0  0  0  0  0  3  0  0  0  0  0  0
  193.9760  176.3860  142.4700 C   0  0  0  0  0  1  0  0  0  0  0  0
  190.9530  175.7760  146.5020 C   0  0  1  0  0  3  0  0  0  0  0  0
  194.1450  174.0250  145.4080 C   0  0  0  0  0  3  0  0  0  0  0  0
  192.4850  176.0930  144.4940 C   0  0  0  0  0  0  0  0  0  0  0  0
  190.1530  176.9620  145.9350 C   0  0  2  0  0  3  0  0  0  0  0  0
  188.7220  176.9820  146.4540 C   0  0  0  0  0  1  0  0  0  0  0  0
  193.0240  174.4000  146.1490 C   0  0  0  0  0  3  0  0  0  0  0  0
  192.1990  175.4460  145.7150 C   0  0  0  0  0  0  0  0  0  0  0  0
  189.4430  176.0890  143.6920 C   0  0  1  0  0  0  0  0  0  0  0  0
  188.2240  175.7530  144.3090 O   0  0  0  0  0  0  0  0  0  0  0  0
  188.1360  176.5340  143.1350 C   0  0  1  0  0  3  0  0  0  0  0  0
  190.6680  175.1100  141.9260 O   0  0  0  0  0  0  0  0  0  0  0  0
  190.1050  174.9310  142.9960 C   0  0  0  0  0  0  0  0  0  0  0  0
  190.0220  173.5500  143.5790 C   0  0  1  0  0  3  0  0  0  0  0  0
  188.8270  172.9410  143.1830 O   0  0  0  0  0  0  0  0  0  0  0  0
  189.0710  172.4750  141.8900 C   0  0  0  0  0  1  0  0  0  0  0  0
  191.2070  172.7050  143.1310 C   0  0  0  0  0  2  0  0  0  0  0  0
  191.5560  171.6830  144.1950 C   0  0  0  0  0  1  0  0  0  0  0  0
  187.8450  177.8560  143.4820 O   0  0  0  0  0  0  0  0  0  0  0  0
  186.4630  177.8760  143.6720 C   0  0  2  0  0  3  0  0  0  0  0  0
  185.9140  179.2300  143.2670 C   0  0  2  0  0  3  0  0  0  0  0  0
  186.1130  178.9120  144.7230 C   0  0  1  0  0  3  0  0  0  0  0  0
  184.8600  179.6410  144.2770 C   0  0  0  0  0  2  0  0  0  0  0  0
  191.2430  175.9690  147.9940 C   0  0  0  0  0  2  0  0  0  0  0  0
  191.9660  177.2790  148.2720 C   0  0  0  0  0  2  0  0  0  0  0  0
  191.5250  177.8030  149.4860 O   0  0  0  0  0  1  0  0  0  0  0  0
  1  8  1  0  0  0  0
  2  4  2  0  0  0  0
  2  8  1  0  0  0  0
  3  1  1  6  0  0  0
  3  9  1  0  0  0  0
  4  7  1  0  0  0  0
  5  2  1  0  0  0  0
  6 28  1  1  0  0  0
  7 11  2  0  0  0  0
  8 12  2  0  0  0  0
  9 10  1  6  0  0  0
  9  6  1  0  0  0  0
 12 11  1  0  0  0  0
 12  6  1  0  0  0  0
 13 17  1  6  0  0  0
 13 14  1  0  0  0  0
 13  3  1  0  0  0  0
 15 23  1  1  0  0  0
 15 13  1  0  0  0  0
 15 14  1  0  0  0  0
 16 17  2  0  0  0  0
 17 18  1  0  0  0  0
 18 21  1  6  0  0  0
 19 18  1  0  0  0  0
 20 19  1  0  0  0  0
 21 22  1  0  0  0  0
 24 23  1  6  0  0  0
 24 26  1  0  0  0  0
 25 24  1  0  0  0  0
 25 27  1  1  0  0  0
 25 26  1  0  0  0  0
 26 27  1  1  0  0  0
 28 29  1  0  0  0  0
 29 30  1  0  0  0  0
M  END
>  <MODEL>
3

>  <REMARK>
 VINA RESULT:      -6.1      2.129      3.128
  Name = 
  9 active torsions:
  status: ('A' for Active; 'I' for Inactive)
    1  A    between atoms: C_3  and  C_11
    2  A    between atoms: C_3  and  C_19
    3  A    between atoms: N_4  and  C_13
    4  A    between atoms: O_5  and  C_12
    5  A    between atoms: C_7  and  O_16
    6  A    between atoms: C_8  and  C_12
    7  A    between atoms: C_8  and  C_13
    8  A    between atoms: C_9  and  C_12
    9  A    between atoms: O_16  and  C_30
                            x       y       z     vdW  Elec       q    Type
                         _______ _______ _______ _____ _____    ______ ____

>  <TORSDO>
F 9

$$$$
=
 OpenBabel11052417173D

 30 34  0  0  1  0  0  0  0  0999 V2000
  190.9680  174.8300  142.0600 C   0  0  0  0  0  2  0  0  0  0  0  0
  191.6120  172.5230  142.8590 C   0  0  0  0  0  0  0  0  0  0  0  0
  190.6160  176.1260  142.6510 N   0  0  2  0  0  0  0  0  0  0  0  0
  192.2830  171.6810  143.7500 C   0  0  0  0  0  3  0  0  0  0  0  0
  190.8150  171.9070  141.7600 C   0  0  0  0  0  1  0  0  0  0  0  0
  192.5220  175.9530  144.3050 C   0  0  1  0  0  3  0  0  0  0  0  0
  193.0300  172.2180  144.7990 C   0  0  0  0  0  3  0  0  0  0  0  0
  191.6870  173.9210  143.0190 C   0  0  0  0  0  0  0  0  0  0  0  0
  191.7970  176.7860  143.2340 C   0  0  2  0  0  3  0  0  0  0  0  0
  191.4840  178.1930  143.7250 C   0  0  0  0  0  1  0  0  0  0  0  0
  193.1160  173.6010  144.9560 C   0  0  0  0  0  3  0  0  0  0  0  0
  192.4690  174.4630  144.0610 C   0  0  0  0  0  0  0  0  0  0  0  0
  189.4170  176.0420  143.5150 C   0  0  1  0  0  0  0  0  0  0  0  0
  188.7790  177.2850  143.6710 O   0  0  0  0  0  0  0  0  0  0  0  0
  188.1050  176.3310  142.8760 C   0  0  1  0  0  3  0  0  0  0  0  0
  189.2660  173.9740  144.6470 O   0  0  0  0  0  0  0  0  0  0  0  0
  189.3820  175.1870  144.7530 C   0  0  0  0  0  0  0  0  0  0  0  0
  189.4250  175.8220  146.1130 C   0  0  1  0  0  3  0  0  0  0  0  0
  188.1240  175.9690  146.6060 O   0  0  0  0  0  0  0  0  0  0  0  0
  187.9920  177.3340  146.8730 C   0  0  0  0  0  1  0  0  0  0  0  0
  190.2510  174.9790  147.0740 C   0  0  0  0  0  2  0  0  0  0  0  0
  191.2110  175.8570  147.8520 C   0  0  0  0  0  1  0  0  0  0  0  0
  188.2470  176.6730  141.5270 O   0  0  0  0  0  0  0  0  0  0  0  0
  187.4420  177.8010  141.3620 C   0  0  2  0  0  3  0  0  0  0  0  0
  185.9860  177.4170  141.5490 C   0  0  2  0  0  3  0  0  0  0  0  0
  186.5360  177.6020  140.1620 C   0  0  1  0  0  3  0  0  0  0  0  0
  185.1620  178.1430  140.5040 C   0  0  0  0  0  2  0  0  0  0  0  0
  193.9550  176.4560  144.5190 C   0  0  0  0  0  2  0  0  0  0  0  0
  194.1590  177.0300  145.9130 C   0  0  0  0  0  2  0  0  0  0  0  0
  195.0260  178.1190  145.8440 O   0  0  0  0  0  1  0  0  0  0  0  0
  1  8  1  0  0  0  0
  2  8  2  0  0  0  0
  2  4  1  0  0  0  0
  3  1  1  1  0  0  0
  3  9  1  0  0  0  0
  3 13  1  0  0  0  0
  4  7  2  0  0  0  0
  5  2  1  0  0  0  0
  6 28  1  6  0  0  0
  7 11  1  0  0  0  0
  8 12  1  0  0  0  0
  9 10  1  1  0  0  0
  9  6  1  0  0  0  0
 12  6  1  0  0  0  0
 12 11  2  0  0  0  0
 13 14  1  0  0  0  0
 13 17  1  1  0  0  0
 15 23  1  6  0  0  0
 15 13  1  0  0  0  0
 15 14  1  0  0  0  0
 16 17  2  0  0  0  0
 17 18  1  0  0  0  0
 18 19  1  0  0  0  0
 18 21  1  1  0  0  0
 19 20  1  0  0  0  0
 21 22  1  0  0  0  0
 24 23  1  6  0  0  0
 24 25  1  0  0  0  0
 25 27  1  1  0  0  0
 26 27  1  1  0  0  0
 26 24  1  0  0  0  0
 26 25  1  0  0  0  0
 28 29  1  0  0  0  0
 30 29  1  0  0  0  0
M  END
>  <MODEL>
4

>  <REMARK>
 VINA RESULT:      -6.1      2.310      4.678
  Name = 
  9 active torsions:
  status: ('A' for Active; 'I' for Inactive)
    1  A    between atoms: C_3  and  C_11
    2  A    between atoms: C_3  and  C_19
    3  A    between atoms: N_4  and  C_13
    4  A    between atoms: O_5  and  C_12
    5  A    between atoms: C_7  and  O_16
    6  A    between atoms: C_8  and  C_12
    7  A    between atoms: C_8  and  C_13
    8  A    between atoms: C_9  and  C_12
    9  A    between atoms: O_16  and  C_30
                            x       y       z     vdW  Elec       q    Type
                         _______ _______ _______ _____ _____    ______ ____

>  <TORSDO>
F 9

$$$$
=
 OpenBabel11052417173D

 30 34  0  0  1  0  0  0  0  0999 V2000
  191.7850  174.3810  142.4630 C   0  0  0  0  0  2  0  0  0  0  0  0
  192.6440  172.1940  143.3850 C   0  0  0  0  0  0  0  0  0  0  0  0
  191.1980  175.6240  142.9790 N   0  0  2  0  0  0  0  0  0  0  0  0
  193.3230  171.4620  144.3640 C   0  0  0  0  0  3  0  0  0  0  0  0
  192.0620  171.4610  142.2240 C   0  0  0  0  0  1  0  0  0  0  0  0
  192.9200  175.7320  144.8300 C   0  0  1  0  0  3  0  0  0  0  0  0
  193.8720  172.1080  145.4710 C   0  0  0  0  0  3  0  0  0  0  0  0
  192.5120  173.5910  143.5160 C   0  0  0  0  0  0  0  0  0  0  0  0
  192.2090  176.4460  143.6660 C   0  0  2  0  0  3  0  0  0  0  0  0
  191.6570  177.8020  144.0840 C   0  0  0  0  0  1  0  0  0  0  0  0
  193.7520  173.4920  145.6010 C   0  0  0  0  0  3  0  0  0  0  0  0
  193.0960  174.2470  144.6200 C   0  0  0  0  0  0  0  0  0  0  0  0
  189.9360  175.3850  143.7130 C   0  0  1  0  0  0  0  0  0  0  0  0
  189.0080  176.4280  143.5390 O   0  0  0  0  0  0  0  0  0  0  0  0
  188.7050  175.2080  142.8950 C   0  0  1  0  0  3  0  0  0  0  0  0
  190.0410  173.5730  145.2250 O   0  0  0  0  0  0  0  0  0  0  0  0
  189.9130  174.7810  145.0920 C   0  0  0  0  0  0  0  0  0  0  0  0
  189.6710  175.6490  146.2930 C   0  0  1  0  0  3  0  0  0  0  0  0
  188.3390  175.5280  146.7020 O   0  0  0  0  0  0  0  0  0  0  0  0
  187.8480  176.8350  146.7190 C   0  0  0  0  0  1  0  0  0  0  0  0
  190.6000  175.2580  147.4340 C   0  0  0  0  0  2  0  0  0  0  0  0
  191.3160  176.4810  147.9720 C   0  0  0  0  0  1  0  0  0  0  0  0
  188.9670  175.3320  141.5270 O   0  0  0  0  0  0  0  0  0  0  0  0
  188.0880  174.4360  140.9170 C   0  0  2  0  0  3  0  0  0  0  0  0
  188.8000  173.1230  140.6550 C   0  0  2  0  0  3  0  0  0  0  0  0
  188.5960  174.0980  139.5280 C   0  0  1  0  0  3  0  0  0  0  0  0
  188.3820  172.6170  139.2890 C   0  0  0  0  0  2  0  0  0  0  0  0
  194.2400  176.4290  145.1800 C   0  0  0  0  0  2  0  0  0  0  0  0
  195.2190  176.4190  144.0170 C   0  0  0  0  0  2  0  0  0  0  0  0
  196.3000  175.5940  144.3270 O   0  0  0  0  0  1  0  0  0  0  0  0
  1  8  1  0  0  0  0
  2  8  2  0  0  0  0
  2  4  1  0  0  0  0
  3  1  1  1  0  0  0
  3  9  1  0  0  0  0
  3 13  1  0  0  0  0
  4  7  2  0  0  0  0
  5  2  1  0  0  0  0
  6 28  1  6  0  0  0
  7 11  1  0  0  0  0
  8 12  1  0  0  0  0
  9 10  1  1  0  0  0
  9  6  1  0  0  0  0
 12  6  1  0  0  0  0
 12 11  2  0  0  0  0
 13 17  1  1  0  0  0
 14 13  1  0  0  0  0
 15 23  1  6  0  0  0
 15 14  1  0  0  0  0
 15 13  1  0  0  0  0
 17 16  2  0  0  0  0
 17 18  1  0  0  0  0
 18 19  1  0  0  0  0
 18 21  1  1  0  0  0
 19 20  1  0  0  0  0
 21 22  1  0  0  0  0
 24 23  1  1  0  0  0
 25 27  1  6  0  0  0
 25 24  1  0  0  0  0
 26 27  1  6  0  0  0
 26 25  1  0  0  0  0
 26 24  1  0  0  0  0
 29 30  1  0  0  0  0
 29 28  1  0  0  0  0
M  END
>  <MODEL>
5

>  <REMARK>
 VINA RESULT:      -5.9      2.716      5.535
  Name = 
  9 active torsions:
  status: ('A' for Active; 'I' for Inactive)
    1  A    between atoms: C_3  and  C_11
    2  A    between atoms: C_3  and  C_19
    3  A    between atoms: N_4  and  C_13
    4  A    between atoms: O_5  and  C_12
    5  A    between atoms: C_7  and  O_16
    6  A    between atoms: C_8  and  C_12
    7  A    between atoms: C_8  and  C_13
    8  A    between atoms: C_9  and  C_12
    9  A    between atoms: O_16  and  C_30
                            x       y       z     vdW  Elec       q    Type
                         _______ _______ _______ _____ _____    ______ ____

>  <TORSDO>
F 9

$$$$
=
 OpenBabel11052417173D

 30 34  0  0  1  0  0  0  0  0999 V2000
  189.8670  174.0950  144.4200 C   0  0  0  0  0  2  0  0  0  0  0  0
  192.1230  173.3090  143.6050 C   0  0  0  0  0  0  0  0  0  0  0  0
  188.9560  175.2210  144.1820 N   0  0  2  0  0  0  0  0  0  0  0  0
  193.0650  173.1420  142.5860 C   0  0  0  0  0  3  0  0  0  0  0  0
  192.4710  172.8440  144.9790 C   0  0  0  0  0  1  0  0  0  0  0  0
  189.2960  175.0380  141.6810 C   0  0  1  0  0  3  0  0  0  0  0  0
  192.7830  173.5740  141.2900 C   0  0  0  0  0  3  0  0  0  0  0  0
  190.8830  173.9170  143.3260 C   0  0  0  0  0  0  0  0  0  0  0  0
  188.3120  175.1160  142.8610 C   0  0  2  0  0  3  0  0  0  0  0  0
  187.2570  176.1940  142.6510 C   0  0  0  0  0  1  0  0  0  0  0  0
  191.5530  174.1670  141.0050 C   0  0  0  0  0  3  0  0  0  0  0  0
  190.5860  174.3230  142.0080 C   0  0  0  0  0  0  0  0  0  0  0  0
  189.5780  176.5240  144.5070 C   0  0  1  0  0  0  0  0  0  0  0  0
  188.7660  177.6130  144.1420 O   0  0  0  0  0  0  0  0  0  0  0  0
  188.8910  177.3610  145.5270 C   0  0  1  0  0  3  0  0  0  0  0  0
  191.4460  177.2720  143.2700 O   0  0  0  0  0  0  0  0  0  0  0  0
  191.0490  176.7790  144.3150 C   0  0  0  0  0  0  0  0  0  0  0  0
  192.0320  176.3720  145.3750 C   0  0  1  0  0  3  0  0  0  0  0  0
  193.2130  177.1070  145.2310 O   0  0  0  0  0  0  0  0  0  0  0  0
  194.2270  176.1500  145.1620 C   0  0  0  0  0  1  0  0  0  0  0  0
  191.4490  176.5960  146.7630 C   0  0  0  0  0  2  0  0  0  0  0  0
  191.4600  175.3030  147.5540 C   0  0  0  0  0  1  0  0  0  0  0  0
  187.7190  176.7580  145.9930 O   0  0  0  0  0  0  0  0  0  0  0  0
  186.7650  177.7750  145.9700 C   0  0  2  0  0  3  0  0  0  0  0  0
  185.8700  177.6590  147.1900 C   0  0  2  0  0  3  0  0  0  0  0  0
  185.3800  177.1660  145.8560 C   0  0  1  0  0  3  0  0  0  0  0  0
  184.4420  177.9370  146.7630 C   0  0  0  0  0  2  0  0  0  0  0  0
  188.6160  174.4650  140.4320 C   0  0  0  0  0  2  0  0  0  0  0  0
  188.1910  173.0170  140.6250 C   0  0  0  0  0  2  0  0  0  0  0  0
  188.1710  172.3710  139.3890 O   0  0  0  0  0  1  0  0  0  0  0  0
  2  5  1  0  0  0  0
  3  1  1  6  0  0  0
  3 13  1  0  0  0  0
  4  2  2  0  0  0  0
  6 28  1  6  0  0  0
  6 12  1  0  0  0  0
  6  9  1  0  0  0  0
  7  4  1  0  0  0  0
  8  2  1  0  0  0  0
  8  1  1  0  0  0  0
  9 10  1  6  0  0  0
  9  3  1  0  0  0  0
 11  7  2  0  0  0  0
 11 12  1  0  0  0  0
 12  8  2  0  0  0  0
 13 17  1  6  0  0  0
 13 15  1  0  0  0  0
 14 13  1  0  0  0  0
 14 15  1  0  0  0  0
 15 23  1  6  0  0  0
 16 17  2  0  0  0  0
 17 18  1  0  0  0  0
 18 21  1  1  0  0  0
 19 18  1  0  0  0  0
 20 19  1  0  0  0  0
 21 22  1  0  0  0  0
 24 23  1  1  0  0  0
 24 25  1  0  0  0  0
 25 27  1  6  0  0  0
 26 24  1  0  0  0  0
 26 27  1  6  0  0  0
 26 25  1  0  0  0  0
 28 29  1  0  0  0  0
 30 29  1  0  0  0  0
M  END
>  <MODEL>
6

>  <REMARK>
 VINA RESULT:      -5.7      2.205      5.346
  Name = 
  9 active torsions:
  status: ('A' for Active; 'I' for Inactive)
    1  A    between atoms: C_3  and  C_11
    2  A    between atoms: C_3  and  C_19
    3  A    between atoms: N_4  and  C_13
    4  A    between atoms: O_5  and  C_12
    5  A    between atoms: C_7  and  O_16
    6  A    between atoms: C_8  and  C_12
    7  A    between atoms: C_8  and  C_13
    8  A    between atoms: C_9  and  C_12
    9  A    between atoms: O_16  and  C_30
                            x       y       z     vdW  Elec       q    Type
                         _______ _______ _______ _____ _____    ______ ____

>  <TORSDO>
F 9

$$$$
=
 OpenBabel11052417173D

 30 34  0  0  1  0  0  0  0  0999 V2000
  191.7590  176.5230  144.0770 C   0  0  0  0  0  2  0  0  0  0  0  0
  191.8860  175.8290  146.5010 C   0  0  0  0  0  0  0  0  0  0  0  0
  191.1190  176.0520  142.8430 N   0  0  2  0  0  0  0  0  0  0  0  0
  191.2960  175.3080  147.6560 C   0  0  0  0  0  3  0  0  0  0  0  0
  193.3230  176.2240  146.5510 C   0  0  0  0  0  1  0  0  0  0  0  0
  188.9360  175.6570  144.0610 C   0  0  1  0  0  3  0  0  0  0  0  0
  189.9570  174.9170  147.6470 C   0  0  0  0  0  3  0  0  0  0  0  0
  191.1270  175.9600  145.3210 C   0  0  0  0  0  0  0  0  0  0  0  0
  189.6660  176.2980  142.8680 C   0  0  2  0  0  3  0  0  0  0  0  0
  189.0040  175.9490  141.5420 C   0  0  0  0  0  1  0  0  0  0  0  0
  189.1990  175.0530  146.4840 C   0  0  0  0  0  3  0  0  0  0  0  0
  189.7650  175.5940  145.3220 C   0  0  0  0  0  0  0  0  0  0  0  0
  191.5470  174.6830  142.4760 C   0  0  1  0  0  0  0  0  0  0  0  0
  191.9320  174.5850  141.1270 O   0  0  0  0  0  0  0  0  0  0  0  0
  192.9710  174.5070  142.0820 C   0  0  1  0  0  3  0  0  0  0  0  0
  191.0530  173.0750  144.1340 O   0  0  0  0  0  0  0  0  0  0  0  0
  190.8410  173.4580  142.9930 C   0  0  0  0  0  0  0  0  0  0  0  0
  189.9310  172.6730  142.0930 C   0  0  1  0  0  3  0  0  0  0  0  0
  190.5890  171.5240  141.6430 O   0  0  0  0  0  0  0  0  0  0  0  0
  190.4450  171.5460  140.2540 C   0  0  0  0  0  1  0  0  0  0  0  0
  188.6540  172.2860  142.8250 C   0  0  0  0  0  2  0  0  0  0  0  0
  187.4390  172.6850  142.0110 C   0  0  0  0  0  1  0  0  0  0  0  0
  193.6700  175.7180  142.1000 O   0  0  0  0  0  0  0  0  0  0  0  0
  194.9780  175.3650  142.4340 C   0  0  2  0  0  3  0  0  0  0  0  0
  195.5130  176.3260  143.4790 C   0  0  2  0  0  3  0  0  0  0  0  0
  195.9190  176.4870  142.0400 C   0  0  1  0  0  3  0  0  0  0  0  0
  196.9530  176.6510  143.1370 C   0  0  0  0  0  2  0  0  0  0  0  0
  187.5740  176.3190  144.2940 C   0  0  0  0  0  2  0  0  0  0  0  0
  187.6750  177.8360  144.3420 C   0  0  0  0  0  2  0  0  0  0  0  0
  186.7160  178.3920  143.4950 O   0  0  0  0  0  1  0  0  0  0  0  0
  1  8  1  0  0  0  0
  2  5  1  0  0  0  0
  2  4  1  0  0  0  0
  3  9  1  0  0  0  0
  3  1  1  1  0  0  0
  6 28  1  1  0  0  0
  6 12  1  0  0  0  0
  7  4  2  0  0  0  0
  8 12  1  0  0  0  0
  8  2  2  0  0  0  0
  9 10  1  6  0  0  0
  9  6  1  0  0  0  0
 11  7  1  0  0  0  0
 12 11  2  0  0  0  0
 13  3  1  0  0  0  0
 13 17  1  1  0  0  0
 14 15  1  0  0  0  0
 14 13  1  0  0  0  0
 15 23  1  6  0  0  0
 15 13  1  0  0  0  0
 17 16  2  0  0  0  0
 18 21  1  1  0  0  0
 18 17  1  0  0  0  0
 19 18  1  0  0  0  0
 20 19  1  0  0  0  0
 22 21  1  0  0  0  0
 24 23  1  6  0  0  0
 24 25  1  0  0  0  0
 25 27  1  1  0  0  0
 26 24  1  0  0  0  0
 26 27  1  1  0  0  0
 26 25  1  0  0  0  0
 28 29  1  0  0  0  0
 30 29  1  0  0  0  0
M  END
>  <MODEL>
7

>  <REMARK>
 VINA RESULT:      -5.7      2.561      5.306
  Name = 
  9 active torsions:
  status: ('A' for Active; 'I' for Inactive)
    1  A    between atoms: C_3  and  C_11
    2  A    between atoms: C_3  and  C_19
    3  A    between atoms: N_4  and  C_13
    4  A    between atoms: O_5  and  C_12
    5  A    between atoms: C_7  and  O_16
    6  A    between atoms: C_8  and  C_12
    7  A    between atoms: C_8  and  C_13
    8  A    between atoms: C_9  and  C_12
    9  A    between atoms: O_16  and  C_30
                            x       y       z     vdW  Elec       q    Type
                         _______ _______ _______ _____ _____    ______ ____

>  <TORSDO>
F 9

$$$$
=
 OpenBabel11052417173D

 30 34  0  0  1  0  0  0  0  0999 V2000
  191.3360  175.4890  142.8790 C   0  0  0  0  0  2  0  0  0  0  0  0
  189.7200  177.3860  143.2870 C   0  0  0  0  0  0  0  0  0  0  0  0
  191.4320  174.0570  143.1850 N   0  0  2  0  0  0  0  0  0  0  0  0
  188.4170  177.8810  143.3900 C   0  0  0  0  0  3  0  0  0  0  0  0
  190.8580  178.3240  143.5070 C   0  0  0  0  0  1  0  0  0  0  0  0
  189.0170  173.6970  142.5210 C   0  0  1  0  0  3  0  0  0  0  0  0
  187.3260  177.0330  143.2030 C   0  0  0  0  0  3  0  0  0  0  0  0
  189.9350  176.0240  142.9940 C   0  0  0  0  0  0  0  0  0  0  0  0
  190.4880  173.2730  142.3700 C   0  0  2  0  0  3  0  0  0  0  0  0
  190.6690  171.7730  142.5670 C   0  0  0  0  0  1  0  0  0  0  0  0
  187.5320  175.6870  142.9020 C   0  0  0  0  0  3  0  0  0  0  0  0
  188.8300  175.1750  142.7720 C   0  0  0  0  0  0  0  0  0  0  0  0
  191.4180  173.7930  144.6420 C   0  0  1  0  0  0  0  0  0  0  0  0
  192.2340  172.7030  144.9970 O   0  0  0  0  0  0  0  0  0  0  0  0
  192.7010  173.9830  145.3710 C   0  0  1  0  0  3  0  0  0  0  0  0
  189.3700  172.9660  145.4790 O   0  0  0  0  0  0  0  0  0  0  0  0
  190.1610  173.8980  145.4630 C   0  0  0  0  0  0  0  0  0  0  0  0
  189.8480  175.1630  146.2080 C   0  0  1  0  0  3  0  0  0  0  0  0
  188.4670  175.3850  146.2020 O   0  0  0  0  0  0  0  0  0  0  0  0
  188.3070  176.6740  146.7150 C   0  0  0  0  0  1  0  0  0  0  0  0
  190.3530  175.0820  147.6410 C   0  0  0  0  0  2  0  0  0  0  0  0
  191.3140  176.2200  147.9260 C   0  0  0  0  0  1  0  0  0  0  0  0
  193.7370  174.3640  144.5130 O   0  0  0  0  0  0  0  0  0  0  0  0
  194.5690  175.1630  145.2980 C   0  0  2  0  0  3  0  0  0  0  0  0
  193.8970  176.4980  145.5550 C   0  0  2  0  0  3  0  0  0  0  0  0
  194.9740  176.3950  144.5110 C   0  0  1  0  0  3  0  0  0  0  0  0
  194.9430  177.5900  145.4440 C   0  0  0  0  0  2  0  0  0  0  0  0
  188.1750  173.1990  141.3410 C   0  0  0  0  0  2  0  0  0  0  0  0
  188.7190  173.6820  140.0050 C   0  0  0  0  0  2  0  0  0  0  0  0
  188.3080  172.8120  138.9950 O   0  0  0  0  0  1  0  0  0  0  0  0
  1  8  1  0  0  0  0
  2  4  1  0  0  0  0
  2  5  1  0  0  0  0
  3  1  1  1  0  0  0
  3 13  1  0  0  0  0
  6 28  1  6  0  0  0
  6 12  1  0  0  0  0
  7  4  2  0  0  0  0
  8  2  2  0  0  0  0
  9  6  1  0  0  0  0
  9 10  1  1  0  0  0
  9  3  1  0  0  0  0
 11  7  1  0  0  0  0
 12 11  2  0  0  0  0
 12  8  1  0  0  0  0
 13 14  1  0  0  0  0
 13 15  1  0  0  0  0
 13 17  1  1  0  0  0
 14 15  1  0  0  0  0
 15 23  1  6  0  0  0
 17 16  2  0  0  0  0
 17 18  1  0  0  0  0
 18 21  1  1  0  0  0
 19 18  1  0  0  0  0
 19 20  1  0  0  0  0
 21 22  1  0  0  0  0
 24 23  1  6  0  0  0
 24 25  1  0  0  0  0
 25 27  1  1  0  0  0
 26 24  1  0  0  0  0
 26 27  1  1  0  0  0
 26 25  1  0  0  0  0
 29 28  1  0  0  0  0
 30 29  1  0  0  0  0
M  END
>  <MODEL>
8

>  <REMARK>
 VINA RESULT:      -5.7      2.731      6.650
  Name = 
  9 active torsions:
  status: ('A' for Active; 'I' for Inactive)
    1  A    between atoms: C_3  and  C_11
    2  A    between atoms: C_3  and  C_19
    3  A    between atoms: N_4  and  C_13
    4  A    between atoms: O_5  and  C_12
    5  A    between atoms: C_7  and  O_16
    6  A    between atoms: C_8  and  C_12
    7  A    between atoms: C_8  and  C_13
    8  A    between atoms: C_9  and  C_12
    9  A    between atoms: O_16  and  C_30
                            x       y       z     vdW  Elec       q    Type
                         _______ _______ _______ _____ _____    ______ ____

>  <TORSDO>
F 9

$$$$
=
 OpenBabel11052417173D

 30 34  0  0  1  0  0  0  0  0999 V2000
  189.0750  174.1950  143.0210 C   0  0  0  0  0  2  0  0  0  0  0  0
  187.7530  176.3460  143.0500 C   0  0  0  0  0  0  0  0  0  0  0  0
  190.4260  173.7450  143.3730 N   0  0  2  0  0  0  0  0  0  0  0  0
  187.4080  177.5610  143.6490 C   0  0  0  0  0  3  0  0  0  0  0  0
  187.1030  175.9790  141.7590 C   0  0  0  0  0  1  0  0  0  0  0  0
  190.3510  175.0390  145.5460 C   0  0  1  0  0  3  0  0  0  0  0  0
  188.0010  177.9460  144.8510 C   0  0  0  0  0  3  0  0  0  0  0  0
  188.7040  175.5050  143.6610 C   0  0  0  0  0  0  0  0  0  0  0  0
  190.6100  173.7000  144.8340 C   0  0  2  0  0  3  0  0  0  0  0  0
  191.9540  173.0990  145.2250 C   0  0  0  0  0  1  0  0  0  0  0  0
  188.9370  177.1130  145.4650 C   0  0  0  0  0  3  0  0  0  0  0  0
  189.2790  175.8810  144.8930 C   0  0  0  0  0  0  0  0  0  0  0  0
  191.4720  174.4520  142.6010 C   0  0  1  0  0  0  0  0  0  0  0  0
  192.4740  173.5820  142.1320 O   0  0  0  0  0  0  0  0  0  0  0  0
  191.5930  174.1060  141.1590 C   0  0  1  0  0  3  0  0  0  0  0  0
  191.3590  176.8080  142.7140 O   0  0  0  0  0  0  0  0  0  0  0  0
  191.9920  175.8050  143.0090 C   0  0  0  0  0  0  0  0  0  0  0  0
  193.3090  175.9270  143.7180 C   0  0  1  0  0  3  0  0  0  0  0  0
  194.3010  176.3080  142.8080 O   0  0  0  0  0  0  0  0  0  0  0  0
  195.2590  175.2950  142.8730 C   0  0  0  0  0  1  0  0  0  0  0  0
  193.2210  176.9460  144.8450 C   0  0  0  0  0  2  0  0  0  0  0  0
  194.0690  176.5050  146.0210 C   0  0  0  0  0  1  0  0  0  0  0  0
  190.6810  173.1160  140.7830 O   0  0  0  0  0  0  0  0  0  0  0  0
  190.4100  173.3780  139.4390 C   0  0  2  0  0  3  0  0  0  0  0  0
  188.9900  173.8920  139.2980 C   0  0  2  0  0  3  0  0  0  0  0  0
  189.3010  172.4600  138.9600 C   0  0  1  0  0  3  0  0  0  0  0  0
  188.3720  173.2580  138.0680 C   0  0  0  0  0  2  0  0  0  0  0  0
  190.0910  174.8280  147.0420 C   0  0  0  0  0  2  0  0  0  0  0  0
  191.2240  175.3710  147.9010 C   0  0  0  0  0  2  0  0  0  0  0  0
  191.0850  176.7520  148.0330 O   0  0  0  0  0  1  0  0  0  0  0  0
  1  8  1  0  0  0  0
  2  4  2  0  0  0  0
  2  8  1  0  0  0  0
  3  1  1  1  0  0  0
  3  9  1  0  0  0  0
  4  7  1  0  0  0  0
  5  2  1  0  0  0  0
  6 28  1  1  0  0  0
  7 11  2  0  0  0  0
  8 12  2  0  0  0  0
  9 10  1  6  0  0  0
  9  6  1  0  0  0  0
 12 11  1  0  0  0  0
 12  6  1  0  0  0  0
 13 17  1  1  0  0  0
 13  3  1  0  0  0  0
 14 13  1  0  0  0  0
 15 23  1  1  0  0  0
 15 14  1  0  0  0  0
 15 13  1  0  0  0  0
 16 17  2  0  0  0  0
 17 18  1  0  0  0  0
 18 21  1  1  0  0  0
 19 20  1  0  0  0  0
 19 18  1  0  0  0  0
 21 22  1  0  0  0  0
 24 23  1  1  0  0  0
 25 27  1  6  0  0  0
 25 24  1  0  0  0  0
 26 27  1  6  0  0  0
 26 25  1  0  0  0  0
 26 24  1  0  0  0  0
 28 29  1  0  0  0  0
 29 30  1  0  0  0  0
M  END
>  <MODEL>
9

>  <REMARK>
 VINA RESULT:      -5.6      2.608      5.254
  Name = 
  9 active torsions:
  status: ('A' for Active; 'I' for Inactive)
    1  A    between atoms: C_3  and  C_11
    2  A    between atoms: C_3  and  C_19
    3  A    between atoms: N_4  and  C_13
    4  A    between atoms: O_5  and  C_12
    5  A    between atoms: C_7  and  O_16
    6  A    between atoms: C_8  and  C_12
    7  A    between atoms: C_8  and  C_13
    8  A    between atoms: C_9  and  C_12
    9  A    between atoms: O_16  and  C_30
                            x       y       z     vdW  Elec       q    Type
                         _______ _______ _______ _____ _____    ______ ____

>  <TORSDO>
F 9

$$$$
