=
 OpenBabel11052418493D

 34 39  0  0  1  0  0  0  0  0999 V2000
  189.2520  174.4520  141.3930 C   0  0  0  0  0  0  0  0  0  0  0  0
  191.3870  174.6220  142.5940 C   0  0  0  0  0  0  0  0  0  0  0  0
  189.3560  175.5970  143.5070 N   0  0  0  0  0  0  0  0  0  0  0  0
  189.5810  176.6310  145.6540 C   0  0  0  0  0  0  0  0  0  0  0  0
  191.2670  173.4740  140.4580 C   0  0  0  0  0  3  0  0  0  0  0  0
  192.0180  173.9090  141.5690 C   0  0  0  0  0  3  0  0  0  0  0  0
  191.3800  175.7630  144.6610 C   0  0  0  0  0  0  0  0  0  0  0  0
  190.0070  174.8840  142.4720 C   0  0  0  0  0  0  0  0  0  0  0  0
  190.7030  176.8080  146.6430 C   0  0  0  0  0  3  0  0  0  0  0  0
  189.8860  173.7420  140.3680 C   0  0  0  0  0  2  0  0  0  0  0  0
  187.3160  175.3920  142.3860 N   0  0  0  0  0  0  0  0  0  0  0  0
  187.9150  174.7300  141.3800 N   0  0  0  0  0  0  0  0  0  0  0  0
  192.0660  175.0590  143.7090 N   0  0  0  0  0  0  0  0  0  0  0  0
  188.2700  176.8820  145.7170 C   0  0  0  0  0  3  0  0  0  0  0  0
  187.4310  176.4740  144.5250 C   0  0  0  0  0  0  0  0  0  0  0  0
  191.8690  176.2490  145.9100 N   0  0  0  0  0  0  0  0  0  0  0  0
  190.0880  176.0090  144.5200 N   0  0  0  0  0  0  0  0  0  0  0  0
  188.0190  175.8290  143.4740 C   0  0  0  0  0  0  0  0  0  0  0  0
  185.5010  179.8960  144.5370 C   0  0  0  0  0  3  0  0  0  0  0  0
  184.6700  179.4710  145.5860 O   0  0  0  0  0  0  0  0  0  0  0  0
  185.9600  176.7710  144.5120 C   0  0  2  0  0  3  0  0  0  0  0  0
  184.2450  178.1260  145.7980 C   0  0  0  0  0  2  0  0  0  0  0  0
  185.5590  177.6850  143.3450 C   0  0  0  0  0  2  0  0  0  0  0  0
  185.4530  177.2040  145.8920 C   0  0  0  0  0  2  0  0  0  0  0  0
  185.9350  179.1240  143.5360 C   0  0  0  0  0  3  0  0  0  0  0  0
  193.0920  175.7740  146.5400 C   0  0  0  0  0  2  0  0  0  0  0  0
  194.1100  176.8970  146.6270 C   0  0  0  0  0  2  0  0  0  0  0  0
  194.8710  177.0160  145.3210 C   0  0  0  0  0  2  0  0  0  0  0  0
  195.3250  175.7030  144.8920 N   0  0  0  0  0  2  0  0  0  0  0  0
  196.7520  174.6130  142.9190 O   0  0  0  0  0  0  0  0  0  0  0  0
  197.1670  177.1570  143.3380 O   0  0  0  0  0  1  0  0  0  0  0  0
  196.0430  175.8920  143.3030 P   0  0  2  0  0  0  0  0  0  0  0  0
  195.4750  176.8440  141.1740 O   0  0  0  0  0  1  0  0  0  0  0  0
  194.8420  176.2400  142.1580 O   0  0  0  0  0  0  0  0  0  0  0  0
  1  8  1  0  0  0  0
  2 13  1  0  0  0  0
  3 17  1  0  0  0  0
  4 14  1  0  0  0  0
  4  9  2  0  0  0  0
  5  6  2  0  0  0  0
  6  2  1  0  0  0  0
  7 16  1  0  0  0  0
  8  2  2  0  0  0  0
  8  3  1  0  0  0  0
 10  5  1  0  0  0  0
 10  1  1  0  0  0  0
 11 18  2  0  0  0  0
 12  1  2  0  0  0  0
 12 11  1  0  0  0  0
 13  7  2  0  0  0  0
 15 14  2  0  0  0  0
 16 26  1  0  0  0  0
 16  9  1  0  0  0  0
 17  7  1  0  0  0  0
 17  4  1  0  0  0  0
 18  3  1  0  0  0  0
 18 15  1  0  0  0  0
 19 20  1  0  0  0  0
 20 22  1  0  0  0  0
 21 15  1  1  0  0  0
 21 24  1  0  0  0  0
 22 24  1  0  0  0  0
 23 25  1  0  0  0  0
 23 21  1  0  0  0  0
 25 19  2  0  0  0  0
 26 27  1  0  0  0  0
 28 27  1  0  0  0  0
 29 28  1  0  0  0  0
 32 30  2  6  0  0  0
 32 31  1  0  0  0  0
 32 29  1  0  0  0  0
 33 34  1  0  0  0  0
 34 32  1  0  0  0  0
M  END
>  <MODEL>
1

>  <REMARK>
 VINA RESULT:      -7.8      0.000      0.000
  Name = 
  7 active torsions:
  status: ('A' for Active; 'I' for Inactive)
    1  A    between atoms: C_3  and  C_13
    2  A    between atoms: C_3  and  C_17
    3  A    between atoms: C_12  and  C_28
    4  A    between atoms: C_13  and  N_33
    5  A    between atoms: O_14  and  P_34
    6  A    between atoms: C_17  and  N_29
    7  A    between atoms: N_33  and  P_34
                            x       y       z     vdW  Elec       q    Type
                         _______ _______ _______ _____ _____    ______ ____

>  <TORSDO>
F 7

$$$$
=
 OpenBabel11052418493D

 34 39  0  0  1  0  0  0  0  0999 V2000
  187.2550  177.2990  146.3420 C   0  0  0  0  0  0  0  0  0  0  0  0
  185.9960  178.6330  144.7090 C   0  0  0  0  0  0  0  0  0  0  0  0
  187.5180  176.8810  143.9870 N   0  0  0  0  0  0  0  0  0  0  0  0
  187.6200  176.5130  141.6230 C   0  0  0  0  0  0  0  0  0  0  0  0
  185.7440  179.0460  147.0900 C   0  0  0  0  0  3  0  0  0  0  0  0
  185.4050  179.3510  145.7550 C   0  0  0  0  0  3  0  0  0  0  0  0
  186.3230  178.1420  142.4240 C   0  0  0  0  0  0  0  0  0  0  0  0
  186.9210  177.6200  145.0360 C   0  0  2  0  0  3  0  0  0  0  0  0
  186.9250  177.0930  140.4200 C   0  0  0  0  0  3  0  0  0  0  0  0
  186.6650  178.0200  147.3850 C   0  0  0  0  0  3  0  0  0  0  0  0
  188.6780  175.5800  145.5420 N   0  0  0  0  0  0  0  0  0  0  0  0
  188.1400  176.2800  146.5560 N   0  0  0  0  0  0  0  0  0  0  0  0
  185.6930  178.8780  143.3890 N   0  0  0  0  0  0  0  0  0  0  0  0
  188.4480  175.4750  141.7800 C   0  0  0  0  0  3  0  0  0  0  0  0
  188.8760  175.1390  143.1910 C   0  0  0  0  0  0  0  0  0  0  0  0
  186.1130  178.1880  141.0140 N   0  0  0  0  0  0  0  0  0  0  0  0
  187.1980  177.2050  142.7520 N   0  0  0  0  0  0  0  0  0  0  0  0
  188.3710  175.8560  144.2390 C   0  0  0  0  0  0  0  0  0  0  0  0
  191.8440  173.7930  140.9980 C   0  0  0  0  0  3  0  0  0  0  0  0
  191.3930  172.4690  141.1270 O   0  0  0  0  0  0  0  0  0  0  0  0
  189.8420  174.0160  143.4310 C   0  0  2  0  0  3  0  0  0  0  0  0
  190.7260  171.9410  142.2710 C   0  0  0  0  0  2  0  0  0  0  0  0
  191.3050  174.4770  143.3540 C   0  0  0  0  0  2  0  0  0  0  0  0
  189.4960  172.7790  142.5940 C   0  0  0  0  0  2  0  0  0  0  0  0
  191.7990  174.7200  141.9600 C   0  0  0  0  0  3  0  0  0  0  0  0
  184.9400  178.7790  140.3890 C   0  0  0  0  0  2  0  0  0  0  0  0
  183.8100  177.7660  140.3270 C   0  0  0  0  0  2  0  0  0  0  0  0
  182.6550  178.2160  141.2000 C   0  0  0  0  0  2  0  0  0  0  0  0
  181.3960  177.9820  140.5120 N   0  0  0  0  0  2  0  0  0  0  0  0
  180.7490  179.4110  142.6720 O   0  0  0  0  0  1  0  0  0  0  0  0
  179.0510  177.5420  142.0060 O   0  0  0  0  0  0  0  0  0  0  0  0
  180.1310  178.7300  141.4710 P   0  0  2  0  0  0  0  0  0  0  0  0
  180.1600  180.8400  140.3280 O   0  0  0  0  0  1  0  0  0  0  0  0
  179.2930  179.8730  140.5420 O   0  0  0  0  0  0  0  0  0  0  0  0
  1 12  2  0  0  0  0
  1 10  1  0  0  0  0
  2  6  2  0  0  0  0
  3 18  1  0  0  0  0
  3  8  1  0  0  0  0
  4 14  1  0  0  0  0
  4 17  1  0  0  0  0
  5 10  2  0  0  0  0
  6  5  1  0  0  0  0
  7 17  1  0  0  0  0
  7 13  2  0  0  0  0
  8  2  1  1  0  0  0
  8  1  1  0  0  0  0
  9 16  1  0  0  0  0
  9  4  2  0  0  0  0
 11 12  1  0  0  0  0
 13  2  1  0  0  0  0
 14 15  2  0  0  0  0
 15 18  1  0  0  0  0
 16  7  1  0  0  0  0
 17  3  1  0  0  0  0
 18 11  2  0  0  0  0
 19 20  1  0  0  0  0
 19 25  2  0  0  0  0
 20 22  1  0  0  0  0
 21 15  1  6  0  0  0
 22 24  1  0  0  0  0
 23 21  1  0  0  0  0
 24 21  1  0  0  0  0
 25 23  1  0  0  0  0
 26 16  1  0  0  0  0
 27 26  1  0  0  0  0
 27 28  1  0  0  0  0
 29 28  1  0  0  0  0
 29 32  1  0  0  0  0
 32 31  2  1  0  0  0
 32 30  1  0  0  0  0
 33 34  1  0  0  0  0
 34 32  1  0  0  0  0
M  END
>  <MODEL>
2

>  <REMARK>
 VINA RESULT:      -7.7      4.360      9.684
  Name = 
  7 active torsions:
  status: ('A' for Active; 'I' for Inactive)
    1  A    between atoms: C_3  and  C_13
    2  A    between atoms: C_3  and  C_17
    3  A    between atoms: C_12  and  C_28
    4  A    between atoms: C_13  and  N_33
    5  A    between atoms: O_14  and  P_34
    6  A    between atoms: C_17  and  N_29
    7  A    between atoms: N_33  and  P_34
                            x       y       z     vdW  Elec       q    Type
                         _______ _______ _______ _____ _____    ______ ____

>  <TORSDO>
F 7

$$$$
=
 OpenBabel11052418493D

 34 39  0  0  1  0  0  0  0  0999 V2000
  186.4140  177.1980  146.3700 C   0  0  0  0  0  0  0  0  0  0  0  0
  184.9230  178.3170  144.7720 C   0  0  0  0  0  0  0  0  0  0  0  0
  186.8710  177.0790  144.0100 N   0  0  0  0  0  0  0  0  0  0  0  0
  187.1600  176.9700  141.6360 C   0  0  0  0  0  0  0  0  0  0  0  0
  184.4780  178.4310  147.1570 C   0  0  0  0  0  3  0  0  0  0  0  0
  184.1260  178.7630  145.8330 C   0  0  0  0  0  3  0  0  0  0  0  0
  185.4570  178.1380  142.4800 C   0  0  0  0  0  0  0  0  0  0  0  0
  186.0630  177.5440  145.0750 C   0  0  2  0  0  3  0  0  0  0  0  0
  186.3890  177.4640  140.4410 C   0  0  0  0  0  3  0  0  0  0  0  0
  185.6180  177.6470  147.4280 C   0  0  0  0  0  3  0  0  0  0  0  0
  188.2620  175.9740  145.5270 N   0  0  0  0  0  0  0  0  0  0  0  0
  187.5220  176.4200  146.5580 N   0  0  0  0  0  0  0  0  0  0  0  0
  184.6210  178.5990  143.4590 N   0  0  0  0  0  0  0  0  0  0  0  0
  188.2190  176.1630  141.7610 C   0  0  0  0  0  3  0  0  0  0  0  0
  188.6610  175.8170  143.1660 C   0  0  0  0  0  0  0  0  0  0  0  0
  185.3000  178.2600  141.0680 N   0  0  0  0  0  0  0  0  0  0  0  0
  186.5290  177.4250  142.7870 N   0  0  0  0  0  0  0  0  0  0  0  0
  187.9470  176.2840  144.2330 C   0  0  0  0  0  0  0  0  0  0  0  0
  192.4750  176.5630  142.5880 C   0  0  0  0  0  3  0  0  0  0  0  0
  192.6420  175.3670  141.8710 O   0  0  0  0  0  0  0  0  0  0  0  0
  189.8730  174.9560  143.3760 C   0  0  2  0  0  3  0  0  0  0  0  0
  191.9250  174.1600  142.1170 C   0  0  0  0  0  2  0  0  0  0  0  0
  190.9040  175.6150  144.3040 C   0  0  0  0  0  2  0  0  0  0  0  0
  190.4260  174.4180  142.0510 C   0  0  0  0  0  2  0  0  0  0  0  0
  191.6920  176.7160  143.6600 C   0  0  0  0  0  3  0  0  0  0  0  0
  184.0400  178.5920  140.4200 C   0  0  0  0  0  2  0  0  0  0  0  0
  182.8820  177.9430  141.1570 C   0  0  0  0  0  2  0  0  0  0  0  0
  181.5710  178.5740  140.7330 C   0  0  0  0  0  2  0  0  0  0  0  0
  180.8560  179.0600  141.9010 N   0  0  0  0  0  2  0  0  0  0  0  0
  179.0300  177.6300  140.5820 O   0  0  0  0  0  0  0  0  0  0  0  0
  178.3090  180.0540  141.2330 O   0  0  0  0  0  1  0  0  0  0  0  0
  179.1620  178.6620  141.6790 P   0  0  2  0  0  0  0  0  0  0  0  0
  178.7190  178.9860  144.0160 O   0  0  0  0  0  1  0  0  0  0  0  0
  178.5140  178.0450  143.1190 O   0  0  0  0  0  0  0  0  0  0  0  0
  1 12  2  0  0  0  0
  1 10  1  0  0  0  0
  2  6  2  0  0  0  0
  3 18  1  0  0  0  0
  3  8  1  0  0  0  0
  4 14  1  0  0  0  0
  4 17  1  0  0  0  0
  5 10  2  0  0  0  0
  6  5  1  0  0  0  0
  7 17  1  0  0  0  0
  7 13  2  0  0  0  0
  8  2  1  6  0  0  0
  8  1  1  0  0  0  0
  9 16  1  0  0  0  0
  9  4  2  0  0  0  0
 11 12  1  0  0  0  0
 13  2  1  0  0  0  0
 14 15  2  0  0  0  0
 15 18  1  0  0  0  0
 16  7  1  0  0  0  0
 17  3  1  0  0  0  0
 18 11  2  0  0  0  0
 19 25  2  0  0  0  0
 20 22  1  0  0  0  0
 20 19  1  0  0  0  0
 21 15  1  6  0  0  0
 21 23  1  0  0  0  0
 24 22  1  0  0  0  0
 24 21  1  0  0  0  0
 25 23  1  0  0  0  0
 26 16  1  0  0  0  0
 26 27  1  0  0  0  0
 28 27  1  0  0  0  0
 28 29  1  0  0  0  0
 31 32  1  0  0  0  0
 32 30  2  6  0  0  0
 32 29  1  0  0  0  0
 32 34  1  0  0  0  0
 34 33  1  0  0  0  0
M  END
>  <MODEL>
3

>  <REMARK>
 VINA RESULT:      -7.6      4.549     10.061
  Name = 
  7 active torsions:
  status: ('A' for Active; 'I' for Inactive)
    1  A    between atoms: C_3  and  C_13
    2  A    between atoms: C_3  and  C_17
    3  A    between atoms: C_12  and  C_28
    4  A    between atoms: C_13  and  N_33
    5  A    between atoms: O_14  and  P_34
    6  A    between atoms: C_17  and  N_29
    7  A    between atoms: N_33  and  P_34
                            x       y       z     vdW  Elec       q    Type
                         _______ _______ _______ _____ _____    ______ ____

>  <TORSDO>
F 7

$$$$
=
 OpenBabel11052418493D

 34 39  0  0  1  0  0  0  0  0999 V2000
  190.7810  175.0750  145.4570 C   0  0  0  0  0  0  0  0  0  0  0  0
  189.3710  177.0750  145.2500 C   0  0  0  0  0  0  0  0  0  0  0  0
  189.5580  175.4800  143.4250 N   0  0  0  0  0  0  0  0  0  0  0  0
  188.2250  175.9600  141.4950 C   0  0  0  0  0  0  0  0  0  0  0  0
  190.6150  176.6530  147.2930 C   0  0  0  0  0  3  0  0  0  0  0  0
  189.7290  177.4580  146.5470 C   0  0  0  0  0  3  0  0  0  0  0  0
  188.2120  177.3780  143.2170 C   0  0  0  0  0  0  0  0  0  0  0  0
  189.9200  175.8830  144.7330 C   0  0  2  0  0  3  0  0  0  0  0  0
  187.2290  177.0250  141.1220 C   0  0  0  0  0  3  0  0  0  0  0  0
  191.1390  175.4620  146.7520 C   0  0  0  0  0  3  0  0  0  0  0  0
  190.8610  173.5530  143.6410 N   0  0  0  0  0  0  0  0  0  0  0  0
  191.2370  173.9240  144.8780 N   0  0  0  0  0  0  0  0  0  0  0  0
  188.5010  177.8130  144.4810 N   0  0  0  0  0  0  0  0  0  0  0  0
  188.5980  174.8200  140.9040 C   0  0  0  0  0  3  0  0  0  0  0  0
  189.5840  173.9460  141.6480 C   0  0  0  0  0  0  0  0  0  0  0  0
  187.2960  177.9500  142.2840 N   0  0  0  0  0  0  0  0  0  0  0  0
  188.7480  176.2630  142.7460 N   0  0  0  0  0  0  0  0  0  0  0  0
  190.0080  174.3150  142.8930 C   0  0  0  0  0  0  0  0  0  0  0  0
  191.2990  173.3040  138.1720 C   0  0  0  0  0  3  0  0  0  0  0  0
  190.4170  172.2480  137.8860 O   0  0  0  0  0  0  0  0  0  0  0  0
  190.0790  172.6770  141.0180 C   0  0  2  0  0  3  0  0  0  0  0  0
  189.8520  171.3700  138.8560 C   0  0  0  0  0  2  0  0  0  0  0  0
  191.5580  172.7660  140.6130 C   0  0  0  0  0  2  0  0  0  0  0  0
  189.1270  172.1710  139.9290 C   0  0  0  0  0  2  0  0  0  0  0  0
  191.8080  173.5780  139.3770 C   0  0  0  0  0  3  0  0  0  0  0  0
  186.2530  178.8950  142.6500 C   0  0  0  0  0  2  0  0  0  0  0  0
  184.9730  178.1560  143.0010 C   0  0  0  0  0  2  0  0  0  0  0  0
  184.3350  178.7690  144.2310 C   0  0  0  0  0  2  0  0  0  0  0  0
  185.3630  179.3220  145.0970 N   0  0  0  0  0  2  0  0  0  0  0  0
  183.9420  178.3420  147.1320 O   0  0  0  0  0  0  0  0  0  0  0  0
  186.3610  179.1290  147.7220 O   0  0  0  0  0  1  0  0  0  0  0  0
  185.3500  178.3900  146.5830 P   0  0  2  0  0  0  0  0  0  0  0  0
  186.5510  176.4700  147.3770 O   0  0  0  0  0  1  0  0  0  0  0  0
  185.8970  176.8130  146.2880 O   0  0  0  0  0  0  0  0  0  0  0  0
  1 10  1  0  0  0  0
  2  6  2  0  0  0  0
  3  8  1  0  0  0  0
  4 17  1  0  0  0  0
  6  5  1  0  0  0  0
  7 13  2  0  0  0  0
  8  2  1  1  0  0  0
  8  1  1  0  0  0  0
  9  4  2  0  0  0  0
  9 16  1  0  0  0  0
 10  5  2  0  0  0  0
 11 12  1  0  0  0  0
 12  1  2  0  0  0  0
 13  2  1  0  0  0  0
 14  4  1  0  0  0  0
 14 15  2  0  0  0  0
 15 18  1  0  0  0  0
 16 26  1  0  0  0  0
 16  7  1  0  0  0  0
 17  7  1  0  0  0  0
 17  3  1  0  0  0  0
 18  3  1  0  0  0  0
 18 11  2  0  0  0  0
 19 25  2  0  0  0  0
 20 19  1  0  0  0  0
 20 22  1  0  0  0  0
 21 15  1  6  0  0  0
 22 24  1  0  0  0  0
 23 21  1  0  0  0  0
 24 21  1  0  0  0  0
 25 23  1  0  0  0  0
 26 27  1  0  0  0  0
 27 28  1  0  0  0  0
 28 29  1  0  0  0  0
 29 32  1  0  0  0  0
 32 30  2  1  0  0  0
 32 31  1  0  0  0  0
 34 32  1  0  0  0  0
 34 33  1  0  0  0  0
M  END
>  <MODEL>
4

>  <REMARK>
 VINA RESULT:      -7.4      3.934      7.971
  Name = 
  7 active torsions:
  status: ('A' for Active; 'I' for Inactive)
    1  A    between atoms: C_3  and  C_13
    2  A    between atoms: C_3  and  C_17
    3  A    between atoms: C_12  and  C_28
    4  A    between atoms: C_13  and  N_33
    5  A    between atoms: O_14  and  P_34
    6  A    between atoms: C_17  and  N_29
    7  A    between atoms: N_33  and  P_34
                            x       y       z     vdW  Elec       q    Type
                         _______ _______ _______ _____ _____    ______ ____

>  <TORSDO>
F 7

$$$$
=
 OpenBabel11052418493D

 34 39  0  0  1  0  0  0  0  0999 V2000
  188.9600  173.9200  141.2570 C   0  0  0  0  0  0  0  0  0  0  0  0
  191.2410  174.5820  141.8800 C   0  0  0  0  0  0  0  0  0  0  0  0
  189.3070  175.5980  142.9460 N   0  0  0  0  0  0  0  0  0  0  0  0
  189.7960  177.1900  144.6670 C   0  0  0  0  0  0  0  0  0  0  0  0
  190.8740  172.8920  140.1740 C   0  0  0  0  0  3  0  0  0  0  0  0
  191.7560  173.6710  140.9500 C   0  0  0  0  0  3  0  0  0  0  0  0
  191.4730  176.2340  143.5490 C   0  0  0  0  0  0  0  0  0  0  0  0
  189.8400  174.6870  142.0030 C   0  0  0  0  0  0  0  0  0  0  0  0
  191.0500  177.7180  145.3090 C   0  0  0  0  0  3  0  0  0  0  0  0
  189.4770  173.0130  140.3270 C   0  0  0  0  0  2  0  0  0  0  0  0
  187.1390  174.9330  142.3870 N   0  0  0  0  0  0  0  0  0  0  0  0
  187.6190  174.0750  141.4700 N   0  0  0  0  0  0  0  0  0  0  0  0
  192.0540  175.3580  142.6740 N   0  0  0  0  0  0  0  0  0  0  0  0
  188.4980  177.3400  144.9520 C   0  0  0  0  0  3  0  0  0  0  0  0
  187.5110  176.5590  144.1130 C   0  0  0  0  0  0  0  0  0  0  0  0
  192.1210  177.0780  144.5000 N   0  0  0  0  0  0  0  0  0  0  0  0
  190.1560  176.3270  143.6390 N   0  0  0  0  0  0  0  0  0  0  0  0
  187.9700  175.7040  143.1510 C   0  0  0  0  0  0  0  0  0  0  0  0
  185.3140  179.7900  144.5220 C   0  0  0  0  0  3  0  0  0  0  0  0
  184.7110  179.2830  145.6850 O   0  0  0  0  0  0  0  0  0  0  0  0
  186.0380  176.7200  144.3500 C   0  0  2  0  0  3  0  0  0  0  0  0
  184.4490  177.9030  145.9340 C   0  0  0  0  0  2  0  0  0  0  0  0
  185.3690  177.6030  143.2870 C   0  0  0  0  0  2  0  0  0  0  0  0
  185.7330  177.0940  145.8050 C   0  0  0  0  0  2  0  0  0  0  0  0
  185.6420  179.0680  143.4460 C   0  0  0  0  0  3  0  0  0  0  0  0
  193.4940  176.8920  144.9430 C   0  0  0  0  0  2  0  0  0  0  0  0
  193.5320  176.0160  146.1830 C   0  0  0  0  0  2  0  0  0  0  0  0
  194.0280  174.6280  145.8290 C   0  0  0  0  0  2  0  0  0  0  0  0
  192.8990  173.7220  145.6900 N   0  0  0  0  0  2  0  0  0  0  0  0
  194.3820  171.5070  145.5830 O   0  0  0  0  0  1  0  0  0  0  0  0
  194.2740  172.8980  143.3760 O   0  0  0  0  0  0  0  0  0  0  0  0
  193.4460  172.3490  144.7460 P   0  0  2  0  0  0  0  0  0  0  0  0
  191.0800  172.2070  144.3700 O   0  0  0  0  0  1  0  0  0  0  0  0
  192.1210  171.4090  144.2610 O   0  0  0  0  0  0  0  0  0  0  0  0
  1 12  2  0  0  0  0
  1  8  1  0  0  0  0
  2  8  2  0  0  0  0
  2 13  1  0  0  0  0
  3 18  1  0  0  0  0
  3 17  1  0  0  0  0
  4 14  1  0  0  0  0
  4  9  2  0  0  0  0
  5 10  1  0  0  0  0
  5  6  2  0  0  0  0
  6  2  1  0  0  0  0
  7 17  1  0  0  0  0
  7 16  1  0  0  0  0
  8  3  1  0  0  0  0
 10  1  1  0  0  0  0
 11 18  2  0  0  0  0
 12 11  1  0  0  0  0
 13  7  2  0  0  0  0
 15 14  2  0  0  0  0
 16 26  1  0  0  0  0
 16  9  1  0  0  0  0
 17  4  1  0  0  0  0
 18 15  1  0  0  0  0
 19 20  1  0  0  0  0
 20 22  1  0  0  0  0
 21 15  1  1  0  0  0
 21 24  1  0  0  0  0
 23 25  1  0  0  0  0
 23 21  1  0  0  0  0
 24 22  1  0  0  0  0
 25 19  2  0  0  0  0
 26 27  1  0  0  0  0
 28 27  1  0  0  0  0
 29 28  1  0  0  0  0
 32 31  2  6  0  0  0
 32 30  1  0  0  0  0
 32 29  1  0  0  0  0
 34 33  1  0  0  0  0
 34 32  1  0  0  0  0
M  END
>  <MODEL>
5

>  <REMARK>
 VINA RESULT:      -7.2      2.096      2.394
  Name = 
  7 active torsions:
  status: ('A' for Active; 'I' for Inactive)
    1  A    between atoms: C_3  and  C_13
    2  A    between atoms: C_3  and  C_17
    3  A    between atoms: C_12  and  C_28
    4  A    between atoms: C_13  and  N_33
    5  A    between atoms: O_14  and  P_34
    6  A    between atoms: C_17  and  N_29
    7  A    between atoms: N_33  and  P_34
                            x       y       z     vdW  Elec       q    Type
                         _______ _______ _______ _____ _____    ______ ____

>  <TORSDO>
F 7

$$$$
=
 OpenBabel11052418493D

 34 39  0  0  1  0  0  0  0  0999 V2000
  190.6620  172.7690  140.5550 C   0  0  0  0  0  0  0  0  0  0  0  0
  188.6020  174.0890  140.3450 C   0  0  0  0  0  0  0  0  0  0  0  0
  190.2660  174.6260  142.0330 N   0  0  0  0  0  0  0  0  0  0  0  0
  189.7880  176.5470  143.3800 C   0  0  0  0  0  0  0  0  0  0  0  0
  189.0140  172.2100  138.8630 C   0  0  0  0  0  3  0  0  0  0  0  0
  188.1930  173.2760  139.2820 C   0  0  0  0  0  3  0  0  0  0  0  0
  188.3120  175.8910  141.8410 C   0  0  0  0  0  0  0  0  0  0  0  0
  189.8370  173.8050  140.9630 C   0  0  0  0  0  0  0  0  0  0  0  0
  188.6870  177.5730  143.4260 C   0  0  0  0  0  3  0  0  0  0  0  0
  190.2490  171.9560  139.4950 C   0  0  0  0  0  2  0  0  0  0  0  0
  192.2480  173.4000  142.2000 N   0  0  0  0  0  0  0  0  0  0  0  0
  191.8540  172.5920  141.2000 N   0  0  0  0  0  0  0  0  0  0  0  0
  187.8480  175.1520  140.7880 N   0  0  0  0  0  0  0  0  0  0  0  0
  190.9650  176.4510  144.0070 C   0  0  0  0  0  3  0  0  0  0  0  0
  191.8600  175.2940  143.6220 C   0  0  0  0  0  0  0  0  0  0  0  0
  187.7270  177.0600  142.4130 N   0  0  0  0  0  0  0  0  0  0  0  0
  189.4670  175.5990  142.4160 N   0  0  0  0  0  0  0  0  0  0  0  0
  191.4700  174.4380  142.6310 C   0  0  0  0  0  0  0  0  0  0  0  0
  193.0470  176.3980  147.2010 C   0  0  0  0  0  3  0  0  0  0  0  0
  194.2290  176.9520  146.6830 O   0  0  0  0  0  0  0  0  0  0  0  0
  193.1730  175.1020  144.3230 C   0  0  2  0  0  3  0  0  0  0  0  0
  194.9330  176.4580  145.5460 C   0  0  0  0  0  2  0  0  0  0  0  0
  193.0140  174.3990  145.6790 C   0  0  0  0  0  2  0  0  0  0  0  0
  194.0030  176.3910  144.3420 C   0  0  0  0  0  2  0  0  0  0  0  0
  192.4650  175.2760  146.7640 C   0  0  0  0  0  3  0  0  0  0  0  0
  186.7180  177.8690  141.7450 C   0  0  0  0  0  2  0  0  0  0  0  0
  186.2780  179.0110  142.6460 C   0  0  0  0  0  2  0  0  0  0  0  0
  185.4560  178.4780  143.8020 C   0  0  0  0  0  2  0  0  0  0  0  0
  185.7750  179.2130  145.0150 N   0  0  0  0  0  2  0  0  0  0  0  0
  185.1930  176.7500  145.8590 O   0  0  0  0  0  0  0  0  0  0  0  0
  184.8140  178.6580  147.6020 O   0  0  0  0  0  1  0  0  0  0  0  0
  185.7710  178.0620  146.3390 P   0  0  2  0  0  0  0  0  0  0  0  0
  187.5880  176.5350  146.6930 O   0  0  0  0  0  1  0  0  0  0  0  0
  187.3500  177.8130  146.9010 O   0  0  0  0  0  0  0  0  0  0  0  0
  1  8  1  0  0  0  0
  1 12  2  0  0  0  0
  2 13  1  0  0  0  0
  2  8  2  0  0  0  0
  3 17  1  0  0  0  0
  3 18  1  0  0  0  0
  4  9  2  0  0  0  0
  4 14  1  0  0  0  0
  5  6  2  0  0  0  0
  5 10  1  0  0  0  0
  6  2  1  0  0  0  0
  7 16  1  0  0  0  0
  7 17  1  0  0  0  0
  8  3  1  0  0  0  0
 10  1  1  0  0  0  0
 11 18  2  0  0  0  0
 12 11  1  0  0  0  0
 13  7  2  0  0  0  0
 15 14  2  0  0  0  0
 16  9  1  0  0  0  0
 17  4  1  0  0  0  0
 18 15  1  0  0  0  0
 20 19  1  0  0  0  0
 21 15  1  1  0  0  0
 21 24  1  0  0  0  0
 21 23  1  0  0  0  0
 22 20  1  0  0  0  0
 23 25  1  0  0  0  0
 24 22  1  0  0  0  0
 25 19  2  0  0  0  0
 26 16  1  0  0  0  0
 26 27  1  0  0  0  0
 27 28  1  0  0  0  0
 28 29  1  0  0  0  0
 29 32  1  0  0  0  0
 32 30  2  6  0  0  0
 32 34  1  0  0  0  0
 32 31  1  0  0  0  0
 33 34  1  0  0  0  0
M  END
>  <MODEL>
6

>  <REMARK>
 VINA RESULT:      -7.0      3.119      7.228
  Name = 
  7 active torsions:
  status: ('A' for Active; 'I' for Inactive)
    1  A    between atoms: C_3  and  C_13
    2  A    between atoms: C_3  and  C_17
    3  A    between atoms: C_12  and  C_28
    4  A    between atoms: C_13  and  N_33
    5  A    between atoms: O_14  and  P_34
    6  A    between atoms: C_17  and  N_29
    7  A    between atoms: N_33  and  P_34
                            x       y       z     vdW  Elec       q    Type
                         _______ _______ _______ _____ _____    ______ ____

>  <TORSDO>
F 7

$$$$
=
 OpenBabel11052418493D

 34 39  0  0  1  0  0  0  0  0999 V2000
  193.3020  175.5490  145.7790 C   0  0  0  0  0  0  0  0  0  0  0  0
  193.2300  173.4000  144.5940 C   0  0  0  0  0  0  0  0  0  0  0  0
  191.2670  174.8290  144.7160 N   0  0  0  0  0  0  0  0  0  0  0  0
  189.3360  174.0330  143.5450 C   0  0  0  0  0  0  0  0  0  0  0  0
  195.2750  174.1390  145.6750 C   0  0  0  0  0  3  0  0  0  0  0  0
  194.5730  173.1790  144.9180 C   0  0  0  0  0  3  0  0  0  0  0  0
  191.1870  172.7870  143.5830 C   0  0  0  0  0  0  0  0  0  0  0  0
  192.6230  174.5900  145.0460 C   0  0  2  0  0  3  0  0  0  0  0  0
  189.0260  172.8370  142.6850 C   0  0  0  0  0  3  0  0  0  0  0  0
  194.6430  175.3240  146.1040 C   0  0  0  0  0  3  0  0  0  0  0  0
  191.3510  176.8960  145.8020 N   0  0  0  0  0  0  0  0  0  0  0  0
  192.6340  176.6830  146.1460 N   0  0  0  0  0  0  0  0  0  0  0  0
  192.4990  172.5050  143.8460 N   0  0  0  0  0  0  0  0  0  0  0  0
  188.6540  175.1470  143.8310 C   0  0  0  0  0  3  0  0  0  0  0  0
  189.3510  176.1850  144.6810 C   0  0  0  0  0  0  0  0  0  0  0  0
  190.2740  172.0370  142.7830 N   0  0  0  0  0  0  0  0  0  0  0  0
  190.6330  173.9040  144.0280 N   0  0  0  0  0  0  0  0  0  0  0  0
  190.6440  175.9810  145.0730 C   0  0  0  0  0  0  0  0  0  0  0  0
  185.7200  176.7060  146.0870 C   0  0  0  0  0  3  0  0  0  0  0  0
  185.4570  177.7160  145.1480 O   0  0  0  0  0  0  0  0  0  0  0  0
  188.6230  177.4360  145.0790 C   0  0  2  0  0  3  0  0  0  0  0  0
  186.4270  178.6240  144.6310 C   0  0  0  0  0  2  0  0  0  0  0  0
  188.1020  177.3750  146.5220 C   0  0  0  0  0  2  0  0  0  0  0  0
  187.5930  177.8550  144.0240 C   0  0  0  0  0  2  0  0  0  0  0  0
  186.8910  176.5090  146.7010 C   0  0  0  0  0  3  0  0  0  0  0  0
  190.6850  171.0240  141.8230 C   0  0  0  0  0  2  0  0  0  0  0  0
  191.4320  171.6660  140.6670 C   0  0  0  0  0  2  0  0  0  0  0  0
  190.5070  171.8440  139.4790 C   0  0  0  0  0  2  0  0  0  0  0  0
  190.4460  173.2480  139.1070 N   0  0  0  0  0  2  0  0  0  0  0  0
  188.4540  174.8090  139.9500 O   0  0  0  0  0  1  0  0  0  0  0  0
  187.7950  172.3460  139.3860 O   0  0  0  0  0  0  0  0  0  0  0  0
  188.7520  173.6830  138.9860 P   0  0  2  0  0  0  0  0  0  0  0  0
  189.5500  174.2390  136.7920 O   0  0  0  0  0  1  0  0  0  0  0  0
  188.3880  174.1800  137.4060 O   0  0  0  0  0  0  0  0  0  0  0  0
  1 10  1  0  0  0  0
  1 12  2  0  0  0  0
  2  6  2  0  0  0  0
  3  8  1  0  0  0  0
  3 18  1  0  0  0  0
  4 14  1  0  0  0  0
  4 17  1  0  0  0  0
  5 10  2  0  0  0  0
  6  5  1  0  0  0  0
  7 13  2  0  0  0  0
  7 17  1  0  0  0  0
  8  2  1  6  0  0  0
  8  1  1  0  0  0  0
  9 16  1  0  0  0  0
  9  4  2  0  0  0  0
 11 12  1  0  0  0  0
 13  2  1  0  0  0  0
 14 15  2  0  0  0  0
 15 18  1  0  0  0  0
 16  7  1  0  0  0  0
 17  3  1  0  0  0  0
 18 11  2  0  0  0  0
 19 25  2  0  0  0  0
 20 19  1  0  0  0  0
 21 15  1  6  0  0  0
 21 23  1  0  0  0  0
 22 20  1  0  0  0  0
 23 25  1  0  0  0  0
 24 22  1  0  0  0  0
 24 21  1  0  0  0  0
 26 16  1  0  0  0  0
 27 26  1  0  0  0  0
 28 27  1  0  0  0  0
 29 28  1  0  0  0  0
 32 29  1  0  0  0  0
 32 31  2  1  0  0  0
 32 30  1  0  0  0  0
 33 34  1  0  0  0  0
 34 32  1  0  0  0  0
M  END
>  <MODEL>
7

>  <REMARK>
 VINA RESULT:      -6.9      3.676      5.764
  Name = 
  7 active torsions:
  status: ('A' for Active; 'I' for Inactive)
    1  A    between atoms: C_3  and  C_13
    2  A    between atoms: C_3  and  C_17
    3  A    between atoms: C_12  and  C_28
    4  A    between atoms: C_13  and  N_33
    5  A    between atoms: O_14  and  P_34
    6  A    between atoms: C_17  and  N_29
    7  A    between atoms: N_33  and  P_34
                            x       y       z     vdW  Elec       q    Type
                         _______ _______ _______ _____ _____    ______ ____

>  <TORSDO>
F 7

$$$$
=
 OpenBabel11052418493D

 34 39  0  0  1  0  0  0  0  0999 V2000
  191.9390  175.4110  145.9700 C   0  0  0  0  0  0  0  0  0  0  0  0
  191.8560  173.6360  144.2760 C   0  0  0  0  0  0  0  0  0  0  0  0
  190.0340  175.2270  144.5130 N   0  0  0  0  0  0  0  0  0  0  0  0
  188.2410  174.9830  142.9440 C   0  0  0  0  0  0  0  0  0  0  0  0
  193.7710  173.8330  145.7580 C   0  0  0  0  0  3  0  0  0  0  0  0
  193.1090  173.1780  144.6980 C   0  0  0  0  0  3  0  0  0  0  0  0
  189.9450  173.5440  142.8950 C   0  0  0  0  0  0  0  0  0  0  0  0
  191.2970  174.7490  144.9370 C   0  0  2  0  0  3  0  0  0  0  0  0
  187.9590  174.0770  141.7750 C   0  0  0  0  0  3  0  0  0  0  0  0
  193.1900  174.9490  146.3920 C   0  0  0  0  0  3  0  0  0  0  0  0
  190.1360  176.9450  146.0920 N   0  0  0  0  0  0  0  0  0  0  0  0
  191.3270  176.4980  146.5280 N   0  0  0  0  0  0  0  0  0  0  0  0
  191.1710  173.0450  143.2390 N   0  0  0  0  0  0  0  0  0  0  0  0
  187.6250  176.0710  143.4180 C   0  0  0  0  0  3  0  0  0  0  0  0
  188.2750  176.7790  144.5850 C   0  0  0  0  0  0  0  0  0  0  0  0
  189.1020  173.1270  141.8220 N   0  0  0  0  0  0  0  0  0  0  0  0
  189.4320  174.5810  143.5370 N   0  0  0  0  0  0  0  0  0  0  0  0
  189.4690  176.3280  145.0700 C   0  0  0  0  0  0  0  0  0  0  0  0
  184.7630  177.1720  146.3020 C   0  0  0  0  0  3  0  0  0  0  0  0
  184.4640  178.3030  145.5250 O   0  0  0  0  0  0  0  0  0  0  0  0
  187.6090  177.9790  145.1950 C   0  0  2  0  0  3  0  0  0  0  0  0
  185.4210  179.2550  145.0650 C   0  0  0  0  0  2  0  0  0  0  0  0
  187.1860  177.7350  146.6510 C   0  0  0  0  0  2  0  0  0  0  0  0
  186.5210  178.5530  144.2800 C   0  0  0  0  0  2  0  0  0  0  0  0
  185.9670  176.8750  146.8000 C   0  0  0  0  0  3  0  0  0  0  0  0
  189.5620  172.3310  140.6940 C   0  0  0  0  0  2  0  0  0  0  0  0
  190.2840  173.2110  139.6880 C   0  0  0  0  0  2  0  0  0  0  0  0
  191.7520  172.8390  139.6250 C   0  0  0  0  0  2  0  0  0  0  0  0
  192.5380  173.9960  139.2290 N   0  0  0  0  0  2  0  0  0  0  0  0
  193.9890  173.0230  141.2450 O   0  0  0  0  0  0  0  0  0  0  0  0
  193.0200  175.4200  141.6080 O   0  0  0  0  0  1  0  0  0  0  0  0
  193.6860  174.3120  140.5160 P   0  0  2  0  0  0  0  0  0  0  0  0
  195.3150  176.0760  140.5290 O   0  0  0  0  0  1  0  0  0  0  0  0
  195.1200  174.9500  139.8750 O   0  0  0  0  0  0  0  0  0  0  0  0
  1 10  1  0  0  0  0
  1 12  2  0  0  0  0
  2  6  2  0  0  0  0
  3  8  1  0  0  0  0
  3 18  1  0  0  0  0
  4 14  1  0  0  0  0
  4 17  1  0  0  0  0
  5 10  2  0  0  0  0
  6  5  1  0  0  0  0
  7 13  2  0  0  0  0
  7 17  1  0  0  0  0
  8  2  1  6  0  0  0
  8  1  1  0  0  0  0
  9 16  1  0  0  0  0
  9  4  2  0  0  0  0
 11 12  1  0  0  0  0
 13  2  1  0  0  0  0
 14 15  2  0  0  0  0
 15 18  1  0  0  0  0
 16  7  1  0  0  0  0
 17  3  1  0  0  0  0
 18 11  2  0  0  0  0
 19 25  2  0  0  0  0
 20 19  1  0  0  0  0
 21 15  1  6  0  0  0
 21 23  1  0  0  0  0
 22 20  1  0  0  0  0
 23 25  1  0  0  0  0
 24 22  1  0  0  0  0
 24 21  1  0  0  0  0
 26 16  1  0  0  0  0
 27 26  1  0  0  0  0
 28 27  1  0  0  0  0
 29 28  1  0  0  0  0
 29 32  1  0  0  0  0
 32 30  2  1  0  0  0
 32 31  1  0  0  0  0
 34 32  1  0  0  0  0
 34 33  1  0  0  0  0
M  END
>  <MODEL>
8

>  <REMARK>
 VINA RESULT:      -6.9      1.931      4.440
  Name = 
  7 active torsions:
  status: ('A' for Active; 'I' for Inactive)
    1  A    between atoms: C_3  and  C_13
    2  A    between atoms: C_3  and  C_17
    3  A    between atoms: C_12  and  C_28
    4  A    between atoms: C_13  and  N_33
    5  A    between atoms: O_14  and  P_34
    6  A    between atoms: C_17  and  N_29
    7  A    between atoms: N_33  and  P_34
                            x       y       z     vdW  Elec       q    Type
                         _______ _______ _______ _____ _____    ______ ____

>  <TORSDO>
F 7

$$$$
=
 OpenBabel11052418493D

 34 39  0  0  1  0  0  0  0  0999 V2000
  191.8100  175.6770  146.1280 C   0  0  0  0  0  0  0  0  0  0  0  0
  191.7330  173.9460  144.3880 C   0  0  0  0  0  0  0  0  0  0  0  0
  189.8680  175.4690  144.7220 N   0  0  0  0  0  0  0  0  0  0  0  0
  188.0380  175.2080  143.2000 C   0  0  0  0  0  0  0  0  0  0  0  0
  193.6830  174.1660  145.8190 C   0  0  0  0  0  3  0  0  0  0  0  0
  193.0120  173.5180  144.7620 C   0  0  0  0  0  3  0  0  0  0  0  0
  189.7850  173.8280  143.0610 C   0  0  0  0  0  0  0  0  0  0  0  0
  191.1580  175.0220  145.0960 C   0  0  2  0  0  3  0  0  0  0  0  0
  187.7500  174.3250  142.0150 C   0  0  0  0  0  3  0  0  0  0  0  0
  193.0860  175.2460  146.5010 C   0  0  0  0  0  3  0  0  0  0  0  0
  189.9620  177.1470  146.3440 N   0  0  0  0  0  0  0  0  0  0  0  0
  191.1800  176.7280  146.7330 N   0  0  0  0  0  0  0  0  0  0  0  0
  191.0360  173.3600  143.3560 N   0  0  0  0  0  0  0  0  0  0  0  0
  187.4020  176.2630  143.7210 C   0  0  0  0  0  3  0  0  0  0  0  0
  188.0630  176.9610  144.8880 C   0  0  0  0  0  0  0  0  0  0  0  0
  188.9240  173.4120  142.0020 N   0  0  0  0  0  0  0  0  0  0  0  0
  189.2580  174.8300  143.7460 N   0  0  0  0  0  0  0  0  0  0  0  0
  189.2860  176.5360  145.3260 C   0  0  0  0  0  0  0  0  0  0  0  0
  184.4980  177.2520  146.5130 C   0  0  0  0  0  3  0  0  0  0  0  0
  184.2240  178.4300  145.7980 O   0  0  0  0  0  0  0  0  0  0  0  0
  187.3780  178.1210  145.5490 C   0  0  2  0  0  3  0  0  0  0  0  0
  185.1950  179.4070  145.4290 C   0  0  0  0  0  2  0  0  0  0  0  0
  186.9090  177.7890  146.9730 C   0  0  0  0  0  2  0  0  0  0  0  0
  186.3200  178.7530  144.6380 C   0  0  0  0  0  2  0  0  0  0  0  0
  185.6860  176.9230  147.0290 C   0  0  0  0  0  3  0  0  0  0  0  0
  189.3750  172.6620  140.8400 C   0  0  0  0  0  2  0  0  0  0  0  0
  189.5120  173.5830  139.6400 C   0  0  0  0  0  2  0  0  0  0  0  0
  188.5000  173.2090  138.5750 C   0  0  0  0  0  2  0  0  0  0  0  0
  188.5080  174.2050  137.5160 N   0  0  0  0  0  2  0  0  0  0  0  0
  191.0110  174.4200  136.6170 O   0  0  0  0  0  1  0  0  0  0  0  0
  189.1780  174.1120  134.7830 O   0  0  0  0  0  0  0  0  0  0  0  0
  189.7080  173.7050  136.3380 P   0  0  2  0  0  0  0  0  0  0  0  0
  189.3250  171.5390  135.3800 O   0  0  0  0  0  1  0  0  0  0  0  0
  189.9520  172.0300  136.4280 O   0  0  0  0  0  0  0  0  0  0  0  0
  1 10  1  0  0  0  0
  1 12  2  0  0  0  0
  2  6  2  0  0  0  0
  3  8  1  0  0  0  0
  3 18  1  0  0  0  0
  4 14  1  0  0  0  0
  4 17  1  0  0  0  0
  5 10  2  0  0  0  0
  6  5  1  0  0  0  0
  7 13  2  0  0  0  0
  7 17  1  0  0  0  0
  8  2  1  6  0  0  0
  8  1  1  0  0  0  0
  9  4  2  0  0  0  0
 11 12  1  0  0  0  0
 13  2  1  0  0  0  0
 14 15  2  0  0  0  0
 15 18  1  0  0  0  0
 16  9  1  0  0  0  0
 16  7  1  0  0  0  0
 17  3  1  0  0  0  0
 18 11  2  0  0  0  0
 19 25  2  0  0  0  0
 20 19  1  0  0  0  0
 21 15  1  6  0  0  0
 21 23  1  0  0  0  0
 22 20  1  0  0  0  0
 23 25  1  0  0  0  0
 24 22  1  0  0  0  0
 24 21  1  0  0  0  0
 26 16  1  0  0  0  0
 27 26  1  0  0  0  0
 28 27  1  0  0  0  0
 29 28  1  0  0  0  0
 32 31  2  6  0  0  0
 32 34  1  0  0  0  0
 32 30  1  0  0  0  0
 32 29  1  0  0  0  0
 33 34  1  0  0  0  0
M  END
>  <MODEL>
9

>  <REMARK>
 VINA RESULT:      -6.8      3.738      5.942
  Name = 
  7 active torsions:
  status: ('A' for Active; 'I' for Inactive)
    1  A    between atoms: C_3  and  C_13
    2  A    between atoms: C_3  and  C_17
    3  A    between atoms: C_12  and  C_28
    4  A    between atoms: C_13  and  N_33
    5  A    between atoms: O_14  and  P_34
    6  A    between atoms: C_17  and  N_29
    7  A    between atoms: N_33  and  P_34
                            x       y       z     vdW  Elec       q    Type
                         _______ _______ _______ _____ _____    ______ ____

>  <TORSDO>
F 7

$$$$
