=
 OpenBabel11052419573D

 37 42  0  0  1  0  0  0  0  0999 V2000
  191.9280  176.5970  145.0180 C   0  0  1  0  0  0  0  0  0  0  0  0
  193.5090  173.5170  142.8540 C   0  0  0  0  0  0  0  0  0  0  0  0
  190.1330  174.6230  141.9440 C   0  0  0  0  0  0  0  0  0  0  0  0
  191.8290  176.5780  146.5500 C   0  0  1  0  0  3  0  0  0  0  0  0
  191.3790  172.1560  142.3130 C   0  0  0  0  0  3  0  0  0  0  0  0
  189.5730  175.8790  142.2200 C   0  0  0  0  0  0  0  0  0  0  0  0
  189.4440  176.1990  146.8080 C   0  0  0  0  0  0  0  0  0  0  0  0
  191.5030  174.5090  141.8430 C   0  0  0  0  0  3  0  0  0  0  0  0
  188.1580  175.9980  142.2340 C   0  0  0  0  0  0  0  0  0  0  0  0
  189.2450  171.0840  142.2880 F   0  0  0  0  0  0  0  0  0  0  0  0
  190.7520  175.7460  146.9570 O   0  0  0  0  0  0  0  0  0  0  0  0
  192.7680  175.5690  144.3730 C   0  0  0  0  0  0  0  0  0  0  0  0
  194.5700  173.8940  141.8360 C   0  0  0  0  0  1  0  0  0  0  0  0
  188.0000  173.5870  142.1240 N   0  0  0  0  0  0  0  0  0  0  0  0
  189.9820  172.2150  142.1500 C   0  0  0  0  0  0  0  0  0  0  0  0
  193.2920  174.6450  143.7920 C   0  0  0  0  0  0  0  0  0  0  0  0
  189.2010  177.6030  146.3670 C   0  0  0  0  0  2  0  0  0  0  0  0
  190.5170  176.9930  142.6710 C   0  0  0  0  0  2  0  0  0  0  0  0
  189.3480  173.4650  142.0310 C   0  0  0  0  0  0  0  0  0  0  0  0
  190.6840  177.1120  144.2080 C   0  0  1  0  0  0  0  0  0  0  0  0
  192.1610  173.3200  142.1620 C   0  0  0  0  0  0  0  0  0  0  0  0
  193.9680  172.2910  143.6270 C   0  0  0  0  0  1  0  0  0  0  0  0
  189.4780  177.8140  144.8770 C   0  0  0  0  0  2  0  0  0  0  0  0
  188.4740  175.4350  147.0560 O   0  0  0  0  0  0  0  0  0  0  0  0
  191.9380  177.9740  144.4150 C   0  0  0  0  0  2  0  0  0  0  0  0
  187.4020  174.8080  142.1860 C   0  0  0  0  0  3  0  0  0  0  0  0
  187.6270  178.1480  141.3480 O   0  0  0  0  0  0  0  0  0  0  0  0
  187.4640  177.3230  142.2900 C   0  0  0  0  0  0  0  0  0  0  0  0
  185.9630  179.0710  143.4690 C   0  0  0  0  0  3  0  0  0  0  0  0
  186.5510  177.7140  143.3950 C   0  0  0  0  0  0  0  0  0  0  0  0
  186.3100  176.8350  144.3760 C   0  0  0  0  0  3  0  0  0  0  0  0
  185.2310  176.3270  146.4140 O   0  0  0  0  0  0  0  0  0  0  0  0
  184.8230  178.5460  145.6260 C   0  0  0  0  0  2  0  0  0  0  0  0
  185.4460  177.1820  145.5150 C   0  0  0  0  0  0  0  0  0  0  0  0
  185.1770  179.4530  144.4790 C   0  0  0  0  0  3  0  0  0  0  0  0
  194.0590  177.2020  147.1630 F   0  0  0  0  0  0  0  0  0  0  0  0
  193.1220  176.1880  147.2590 C   0  0  0  0  0  2  0  0  0  0  0  0
  1 12  1  6  0  0  0
  1  4  1  0  0  0  0
  2 22  1  0  0  0  0
  2 16  1  0  0  0  0
  3 19  2  0  0  0  0
  3  6  1  0  0  0  0
  4 11  1  0  0  0  0
  4 37  1  1  0  0  0
  6  9  2  0  0  0  0
  6 18  1  0  0  0  0
  7 11  1  0  0  0  0
  7 24  2  0  0  0  0
  8  3  1  0  0  0  0
  8 21  2  0  0  0  0
  9 28  1  0  0  0  0
 13  2  1  0  0  0  0
 14 26  2  0  0  0  0
 15 10  1  0  0  0  0
 15  5  2  0  0  0  0
 16 12  3  0  0  0  0
 17  7  1  0  0  0  0
 19 14  1  0  0  0  0
 19 15  1  0  0  0  0
 20 18  1  6  0  0  0
 20 25  1  0  0  0  0
 20 23  1  0  0  0  0
 20  1  1  0  0  0  0
 21  5  1  0  0  0  0
 21  2  1  0  0  0  0
 23 17  1  0  0  0  0
 25  1  1  0  0  0  0
 26  9  1  0  0  0  0
 27 28  2  0  0  0  0
 28 30  1  0  0  0  0
 29 35  2  0  0  0  0
 30 29  1  0  0  0  0
 30 31  2  0  0  0  0
 31 34  1  0  0  0  0
 34 33  1  0  0  0  0
 34 32  2  0  0  0  0
 35 33  1  0  0  0  0
 36 37  1  0  0  0  0
M  END
>  <MODEL>
1

>  <REMARK>
 VINA RESULT:      -8.9      0.000      0.000
  Name = 
  3 active torsions:
  status: ('A' for Active; 'I' for Inactive)
    1  A    between atoms: C_5  and  C_23
    2  A    between atoms: C_6  and  C_31
    3  A    between atoms: C_14  and  C_31
                            x       y       z     vdW  Elec       q    Type
                         _______ _______ _______ _____ _____    ______ ____

>  <TORSDO>
F 3

$$$$
=
 OpenBabel11052419573D

 37 42  0  0  1  0  0  0  0  0999 V2000
  188.0780  177.4140  141.9940 C   0  0  1  0  0  0  0  0  0  0  0  0
  185.2880  179.1620  144.4090 C   0  0  0  0  0  0  0  0  0  0  0  0
  188.0710  177.4410  146.0650 C   0  0  0  0  0  0  0  0  0  0  0  0
  187.7170  176.4030  140.8970 C   0  0  1  0  0  3  0  0  0  0  0  0
  185.3080  177.5480  146.4270 C   0  0  0  0  0  3  0  0  0  0  0  0
  189.3220  177.1610  145.4980 C   0  0  0  0  0  0  0  0  0  0  0  0
  188.4790  174.3520  141.9520 C   0  0  0  0  0  0  0  0  0  0  0  0
  187.3430  178.5090  145.5830 C   0  0  0  0  0  3  0  0  0  0  0  0
  190.0990  176.1140  146.0620 C   0  0  0  0  0  0  0  0  0  0  0  0
  185.4410  175.6880  147.9200 F   0  0  0  0  0  0  0  0  0  0  0  0
  187.4330  175.1370  141.4760 O   0  0  0  0  0  0  0  0  0  0  0  0
  186.9770  178.1870  142.6020 C   0  0  0  0  0  0  0  0  0  0  0  0
  185.3540  180.6750  144.5170 C   0  0  0  0  0  1  0  0  0  0  0  0
  188.1800  175.4660  147.3850 N   0  0  0  0  0  0  0  0  0  0  0  0
  186.0700  176.6070  147.1460 C   0  0  0  0  0  0  0  0  0  0  0  0
  186.0980  178.7060  143.2530 C   0  0  0  0  0  0  0  0  0  0  0  0
  189.8870  174.7840  141.7110 C   0  0  0  0  0  2  0  0  0  0  0  0
  189.6880  177.8740  144.1970 C   0  0  0  0  0  2  0  0  0  0  0  0
  187.4540  176.5100  146.9110 C   0  0  0  0  0  0  0  0  0  0  0  0
  189.3150  177.0940  142.9090 C   0  0  1  0  0  0  0  0  0  0  0  0
  185.9480  178.5170  145.6270 C   0  0  0  0  0  0  0  0  0  0  0  0
  183.8410  178.7360  144.2170 C   0  0  0  0  0  1  0  0  0  0  0  0
  190.3120  175.9510  142.6050 C   0  0  0  0  0  2  0  0  0  0  0  0
  188.2410  173.2820  142.5700 O   0  0  0  0  0  0  0  0  0  0  0  0
  189.3820  178.1280  141.7750 C   0  0  0  0  0  2  0  0  0  0  0  0
  189.4770  175.2790  147.0130 C   0  0  0  0  0  3  0  0  0  0  0  0
  192.3350  176.8560  145.6890 O   0  0  0  0  0  0  0  0  0  0  0  0
  191.5300  175.8830  145.6870 C   0  0  0  0  0  0  0  0  0  0  0  0
  191.2200  173.5010  144.7240 C   0  0  0  0  0  3  0  0  0  0  0  0
  192.0710  174.5430  145.3410 C   0  0  0  0  0  0  0  0  0  0  0  0
  193.3410  174.2590  145.6550 C   0  0  0  0  0  3  0  0  0  0  0  0
  195.1190  172.7060  145.6680 O   0  0  0  0  0  0  0  0  0  0  0  0
  193.0900  171.8500  144.7390 C   0  0  0  0  0  2  0  0  0  0  0  0
  193.9180  172.9360  145.3700 C   0  0  0  0  0  0  0  0  0  0  0  0
  191.6780  172.2770  144.4480 C   0  0  0  0  0  3  0  0  0  0  0  0
  186.9750  177.9440  139.2190 F   0  0  0  0  0  0  0  0  0  0  0  0
  186.5870  176.8510  139.9750 C   0  0  0  0  0  2  0  0  0  0  0  0
  1 25  1  6  0  0  0
  1 12  1  0  0  0  0
  1 20  1  0  0  0  0
  2 13  1  0  0  0  0
  2 21  1  0  0  0  0
  3 19  1  0  0  0  0
  4 37  1  1  0  0  0
  4 11  1  0  0  0  0
  4  1  1  0  0  0  0
  5 15  1  0  0  0  0
  6  9  2  0  0  0  0
  6  3  1  0  0  0  0
  7 24  2  0  0  0  0
  8 21  1  0  0  0  0
  8  3  2  0  0  0  0
  9 26  1  0  0  0  0
 11  7  1  0  0  0  0
 12 16  3  0  0  0  0
 15 10  1  0  0  0  0
 16  2  1  0  0  0  0
 17  7  1  0  0  0  0
 17 23  1  0  0  0  0
 18  6  1  0  0  0  0
 19 15  2  0  0  0  0
 19 14  1  0  0  0  0
 20 25  1  6  0  0  0
 20 18  1  0  0  0  0
 21  5  2  0  0  0  0
 22  2  1  0  0  0  0
 23 20  1  0  0  0  0
 26 14  2  0  0  0  0
 28 27  2  0  0  0  0
 28  9  1  0  0  0  0
 29 30  1  0  0  0  0
 30 31  2  0  0  0  0
 30 28  1  0  0  0  0
 33 34  1  0  0  0  0
 34 31  1  0  0  0  0
 34 32  2  0  0  0  0
 35 29  2  0  0  0  0
 35 33  1  0  0  0  0
 36 37  1  0  0  0  0
M  END
>  <MODEL>
2

>  <REMARK>
 VINA RESULT:      -8.4      2.920      7.478
  Name = 
  3 active torsions:
  status: ('A' for Active; 'I' for Inactive)
    1  A    between atoms: C_5  and  C_23
    2  A    between atoms: C_6  and  C_31
    3  A    between atoms: C_14  and  C_31
                            x       y       z     vdW  Elec       q    Type
                         _______ _______ _______ _____ _____    ______ ____

>  <TORSDO>
F 3

$$$$
=
 OpenBabel11052419573D

 37 42  0  0  1  0  0  0  0  0999 V2000
  190.8790  173.3850  142.9980 C   0  0  1  0  0  0  0  0  0  0  0  0
  194.6350  173.0740  144.5680 C   0  0  0  0  0  0  0  0  0  0  0  0
  192.1570  174.9150  146.5480 C   0  0  0  0  0  0  0  0  0  0  0  0
  190.6030  173.9380  141.5930 C   0  0  1  0  0  3  0  0  0  0  0  0
  194.8220  175.3200  145.8350 C   0  0  0  0  0  3  0  0  0  0  0  0
  190.7640  174.7900  146.4490 C   0  0  0  0  0  0  0  0  0  0  0  0
  189.6990  176.1170  142.1730 C   0  0  0  0  0  0  0  0  0  0  0  0
  192.9510  173.8510  146.1780 C   0  0  0  0  0  3  0  0  0  0  0  0
  189.9560  175.8610  146.9150 C   0  0  0  0  0  0  0  0  0  0  0  0
  194.6790  177.5730  146.6120 F   0  0  0  0  0  0  0  0  0  0  0  0
  190.7130  175.3540  141.5980 O   0  0  0  0  0  0  0  0  0  0  0  0
  192.2760  173.0550  143.3440 C   0  0  0  0  0  0  0  0  0  0  0  0
  195.0030  171.7230  145.1540 C   0  0  0  0  0  1  0  0  0  0  0  0
  191.9510  177.2120  147.1310 N   0  0  0  0  0  0  0  0  0  0  0  0
  194.1030  176.3540  146.4640 C   0  0  0  0  0  0  0  0  0  0  0  0
  193.4160  172.9430  143.7330 C   0  0  0  0  0  0  0  0  0  0  0  0
  188.4510  175.4440  142.6360 C   0  0  0  0  0  2  0  0  0  0  0  0
  190.2120  173.5930  145.6760 C   0  0  0  0  0  2  0  0  0  0  0  0
  192.7400  176.1710  146.7610 C   0  0  0  0  0  0  0  0  0  0  0  0
  189.9490  173.8630  144.1710 C   0  0  1  0  0  0  0  0  0  0  0  0
  194.2420  174.0430  145.6830 C   0  0  0  0  0  0  0  0  0  0  0  0
  195.7870  173.5820  143.7150 C   0  0  0  0  0  1  0  0  0  0  0  0
  188.6440  174.6620  143.9370 C   0  0  0  0  0  2  0  0  0  0  0  0
  189.8290  177.3630  142.2890 O   0  0  0  0  0  0  0  0  0  0  0  0
  189.8050  172.4760  143.5290 C   0  0  0  0  0  2  0  0  0  0  0  0
  190.6020  177.0700  147.2460 C   0  0  0  0  0  3  0  0  0  0  0  0
  187.9960  174.8500  147.8250 O   0  0  0  0  0  0  0  0  0  0  0  0
  188.4710  175.7410  147.0670 C   0  0  0  0  0  0  0  0  0  0  0  0
  187.9220  177.4970  145.2470 C   0  0  0  0  0  3  0  0  0  0  0  0
  187.5100  176.6500  146.3890 C   0  0  0  0  0  0  0  0  0  0  0  0
  186.2640  176.7460  146.8690 C   0  0  0  0  0  3  0  0  0  0  0  0
  184.1160  177.7170  146.7300 O   0  0  0  0  0  0  0  0  0  0  0  0
  185.6570  178.5330  145.0960 C   0  0  0  0  0  2  0  0  0  0  0  0
  185.2830  177.6590  146.2610 C   0  0  0  0  0  0  0  0  0  0  0  0
  187.0840  178.3530  144.6550 C   0  0  0  0  0  3  0  0  0  0  0  0
  191.1820  171.9790  140.3410 F   0  0  0  0  0  0  0  0  0  0  0  0
  191.4670  173.3250  140.4950 C   0  0  0  0  0  2  0  0  0  0  0  0
  1 12  1  1  0  0  0
  1 25  1  0  0  0  0
  1 20  1  0  0  0  0
  2 13  1  0  0  0  0
  2 21  1  0  0  0  0
  3 19  1  0  0  0  0
  4 37  1  6  0  0  0
  4 11  1  0  0  0  0
  4  1  1  0  0  0  0
  5 15  1  0  0  0  0
  6  3  1  0  0  0  0
  6  9  2  0  0  0  0
  7 24  2  0  0  0  0
  7 17  1  0  0  0  0
  8  3  2  0  0  0  0
  9 28  1  0  0  0  0
  9 26  1  0  0  0  0
 11  7  1  0  0  0  0
 12 16  3  0  0  0  0
 14 26  2  0  0  0  0
 15 10  1  0  0  0  0
 15 19  2  0  0  0  0
 16  2  1  0  0  0  0
 17 23  1  0  0  0  0
 18  6  1  0  0  0  0
 19 14  1  0  0  0  0
 20 25  1  6  0  0  0
 20 18  1  0  0  0  0
 21  5  2  0  0  0  0
 21  8  1  0  0  0  0
 22  2  1  0  0  0  0
 23 20  1  0  0  0  0
 28 27  2  0  0  0  0
 29 30  1  0  0  0  0
 30 31  2  0  0  0  0
 30 28  1  0  0  0  0
 33 34  1  0  0  0  0
 34 32  2  0  0  0  0
 34 31  1  0  0  0  0
 35 33  1  0  0  0  0
 35 29  2  0  0  0  0
 36 37  1  0  0  0  0
M  END
>  <MODEL>
3

>  <REMARK>
 VINA RESULT:      -8.2      2.168      5.037
  Name = 
  3 active torsions:
  status: ('A' for Active; 'I' for Inactive)
    1  A    between atoms: C_5  and  C_23
    2  A    between atoms: C_6  and  C_31
    3  A    between atoms: C_14  and  C_31
                            x       y       z     vdW  Elec       q    Type
                         _______ _______ _______ _____ _____    ______ ____

>  <TORSDO>
F 3

$$$$
=
 OpenBabel11052419573D

 37 42  0  0  1  0  0  0  0  0999 V2000
  189.5830  174.2350  142.1380 C   0  0  1  0  0  0  0  0  0  0  0  0
  187.1640  177.4760  142.7030 C   0  0  0  0  0  0  0  0  0  0  0  0
  189.8350  176.9500  145.1610 C   0  0  0  0  0  0  0  0  0  0  0  0
  189.0420  172.8060  141.9800 C   0  0  1  0  0  3  0  0  0  0  0  0
  187.1300  177.6160  145.2840 C   0  0  0  0  0  3  0  0  0  0  0  0
  191.0090  176.2110  144.9590 C   0  0  0  0  0  0  0  0  0  0  0  0
  189.6340  171.8940  144.1520 C   0  0  0  0  0  0  0  0  0  0  0  0
  189.2020  177.5120  144.0720 C   0  0  0  0  0  3  0  0  0  0  0  0
  191.6970  175.7120  146.0970 C   0  0  0  0  0  0  0  0  0  0  0  0
  187.1460  177.2130  147.6370 F   0  0  0  0  0  0  0  0  0  0  0  0
  188.6540  172.2900  143.2450 O   0  0  0  0  0  0  0  0  0  0  0  0
  188.6160  175.3470  142.0490 C   0  0  0  0  0  0  0  0  0  0  0  0
  187.4070  178.6570  141.7810 C   0  0  0  0  0  1  0  0  0  0  0  0
  189.8040  176.3510  147.4620 N   0  0  0  0  0  0  0  0  0  0  0  0
  187.8250  177.3000  146.4670 C   0  0  0  0  0  0  0  0  0  0  0  0
  187.8440  176.2720  142.1650 C   0  0  0  0  0  0  0  0  0  0  0  0
  191.0630  171.8760  143.7240 C   0  0  0  0  0  2  0  0  0  0  0  0
  191.3700  175.8300  143.5240 C   0  0  0  0  0  2  0  0  0  0  0  0
  189.1720  176.9000  146.3950 C   0  0  0  0  0  0  0  0  0  0  0  0
  190.8310  174.4480  143.0680 C   0  0  1  0  0  0  0  0  0  0  0  0
  187.8230  177.7220  144.0600 C   0  0  0  0  0  0  0  0  0  0  0  0
  185.6690  177.2160  142.8030 C   0  0  0  0  0  1  0  0  0  0  0  0
  191.6720  173.2770  143.6290 C   0  0  0  0  0  2  0  0  0  0  0  0
  189.3160  171.5420  145.3180 O   0  0  0  0  0  0  0  0  0  0  0  0
  190.9420  174.4530  141.5370 C   0  0  0  0  0  2  0  0  0  0  0  0
  191.0450  175.8030  147.3450 C   0  0  0  0  0  3  0  0  0  0  0  0
  193.2760  173.9740  146.5130 O   0  0  0  0  0  0  0  0  0  0  0  0
  193.0660  175.1140  146.0100 C   0  0  0  0  0  0  0  0  0  0  0  0
  194.5920  177.1730  145.6510 C   0  0  0  0  0  3  0  0  0  0  0  0
  194.2020  175.7830  145.3240 C   0  0  0  0  0  0  0  0  0  0  0  0
  194.8400  175.1290  144.3450 C   0  0  0  0  0  3  0  0  0  0  0  0
  196.5310  175.1110  142.6980 O   0  0  0  0  0  0  0  0  0  0  0  0
  196.3790  177.1660  143.9090 C   0  0  0  0  0  2  0  0  0  0  0  0
  195.9450  175.7580  143.6050 C   0  0  0  0  0  0  0  0  0  0  0  0
  195.5800  177.8050  145.0120 C   0  0  0  0  0  3  0  0  0  0  0  0
  188.3640  172.9690  139.6880 F   0  0  0  0  0  0  0  0  0  0  0  0
  187.9140  172.6700  140.9620 C   0  0  0  0  0  2  0  0  0  0  0  0
  1 25  1  6  0  0  0
  1 20  1  0  0  0  0
  2 22  1  0  0  0  0
  2 21  1  0  0  0  0
  3 19  1  0  0  0  0
  4 37  1  6  0  0  0
  4  1  1  0  0  0  0
  4 11  1  0  0  0  0
  5 15  1  0  0  0  0
  6  3  1  0  0  0  0
  6  9  2  0  0  0  0
  7 24  2  0  0  0  0
  8  3  2  0  0  0  0
  9 26  1  0  0  0  0
 11  7  1  0  0  0  0
 12  1  1  0  0  0  0
 12 16  3  0  0  0  0
 13  2  1  0  0  0  0
 15 10  1  0  0  0  0
 16  2  1  0  0  0  0
 17  7  1  0  0  0  0
 18  6  1  0  0  0  0
 19 15  2  0  0  0  0
 19 14  1  0  0  0  0
 20 25  1  6  0  0  0
 20 18  1  0  0  0  0
 20 23  1  0  0  0  0
 21  8  1  0  0  0  0
 21  5  2  0  0  0  0
 23 17  1  0  0  0  0
 26 14  2  0  0  0  0
 28  9  1  0  0  0  0
 28 27  2  0  0  0  0
 30 29  1  0  0  0  0
 30 28  1  0  0  0  0
 31 30  2  0  0  0  0
 32 34  2  0  0  0  0
 33 35  1  0  0  0  0
 34 33  1  0  0  0  0
 34 31  1  0  0  0  0
 35 29  2  0  0  0  0
 36 37  1  0  0  0  0
M  END
>  <MODEL>
4

>  <REMARK>
 VINA RESULT:      -8.1      2.802      7.292
  Name = 
  3 active torsions:
  status: ('A' for Active; 'I' for Inactive)
    1  A    between atoms: C_5  and  C_23
    2  A    between atoms: C_6  and  C_31
    3  A    between atoms: C_14  and  C_31
                            x       y       z     vdW  Elec       q    Type
                         _______ _______ _______ _____ _____    ______ ____

>  <TORSDO>
F 3

$$$$
=
 OpenBabel11052419573D

 37 42  0  0  1  0  0  0  0  0999 V2000
  190.7430  171.9490  143.8280 C   0  0  1  0  0  0  0  0  0  0  0  0
  194.6220  171.3130  144.9320 C   0  0  0  0  0  0  0  0  0  0  0  0
  193.2970  174.7000  145.4040 C   0  0  0  0  0  0  0  0  0  0  0  0
  190.2060  171.6160  142.4290 C   0  0  1  0  0  3  0  0  0  0  0  0
  195.6650  173.6180  144.4040 C   0  0  0  0  0  3  0  0  0  0  0  0
  191.9440  175.0480  145.5150 C   0  0  0  0  0  0  0  0  0  0  0  0
  190.0210  173.8560  141.5080 C   0  0  0  0  0  0  0  0  0  0  0  0
  193.6920  173.4280  145.7620 C   0  0  0  0  0  3  0  0  0  0  0  0
  191.5660  176.3870  145.2260 C   0  0  0  0  0  0  0  0  0  0  0  0
  196.2610  175.7580  143.5260 F   0  0  0  0  0  0  0  0  0  0  0  0
  190.6280  172.6020  141.4980 O   0  0  0  0  0  0  0  0  0  0  0  0
  192.0690  171.4160  144.1990 C   0  0  0  0  0  0  0  0  0  0  0  0
  194.8290  170.5520  146.2280 C   0  0  0  0  0  1  0  0  0  0  0  0
  193.7890  176.7770  144.3570 N   0  0  0  0  0  0  0  0  0  0  0  0
  195.4080  174.9940  144.2540 C   0  0  0  0  0  0  0  0  0  0  0  0
  193.2180  171.1590  144.4800 C   0  0  0  0  0  0  0  0  0  0  0  0
  188.8410  174.0900  142.3900 C   0  0  0  0  0  2  0  0  0  0  0  0
  190.9380  173.9230  145.7570 C   0  0  0  0  0  2  0  0  0  0  0  0
  194.1840  175.5250  144.7000 C   0  0  0  0  0  0  0  0  0  0  0  0
  190.3220  173.3210  144.4670 C   0  0  1  0  0  0  0  0  0  0  0  0
  194.7940  172.8130  145.1670 C   0  0  0  0  0  0  0  0  0  0  0  0
  195.5630  170.7630  143.8710 C   0  0  0  0  0  1  0  0  0  0  0  0
  189.2190  174.2260  143.8670 C   0  0  0  0  0  2  0  0  0  0  0  0
  190.4550  174.7790  140.7710 O   0  0  0  0  0  0  0  0  0  0  0  0
  189.6920  171.9900  144.9010 C   0  0  0  0  0  2  0  0  0  0  0  0
  192.5340  177.2260  144.6370 C   0  0  0  0  0  3  0  0  0  0  0  0
  189.8390  177.0470  146.7340 O   0  0  0  0  0  0  0  0  0  0  0  0
  190.2000  176.9200  145.5300 C   0  0  0  0  0  0  0  0  0  0  0  0
  189.6910  177.6260  143.0930 C   0  0  0  0  0  3  0  0  0  0  0  0
  189.2430  177.3460  144.4760 C   0  0  0  0  0  0  0  0  0  0  0  0
  187.9610  177.5410  144.8090 C   0  0  0  0  0  3  0  0  0  0  0  0
  185.7780  178.1630  144.1590 O   0  0  0  0  0  0  0  0  0  0  0  0
  187.3880  178.2910  142.3980 C   0  0  0  0  0  2  0  0  0  0  0  0
  186.9780  178.0010  143.8150 C   0  0  0  0  0  0  0  0  0  0  0  0
  188.8520  178.0550  142.1450 C   0  0  0  0  0  3  0  0  0  0  0  0
  191.6110  170.2570  141.0420 F   0  0  0  0  0  0  0  0  0  0  0  0
  190.5570  170.2140  141.9380 C   0  0  0  0  0  2  0  0  0  0  0  0
  1 12  1  1  0  0  0
  1 20  1  0  0  0  0
  1 25  1  0  0  0  0
  2 21  1  0  0  0  0
  2 13  1  0  0  0  0
  3  6  1  0  0  0  0
  3  8  1  0  0  0  0
  4 37  1  6  0  0  0
  4  1  1  0  0  0  0
  5 21  1  0  0  0  0
  6 18  1  0  0  0  0
  7 17  1  0  0  0  0
  9  6  2  0  0  0  0
  9 28  1  0  0  0  0
 10 15  1  0  0  0  0
 11  7  1  0  0  0  0
 11  4  1  0  0  0  0
 12 16  3  0  0  0  0
 14 26  2  0  0  0  0
 14 19  1  0  0  0  0
 15  5  2  0  0  0  0
 15 19  1  0  0  0  0
 16  2  1  0  0  0  0
 17 23  1  0  0  0  0
 19  3  2  0  0  0  0
 20 23  1  6  0  0  0
 20 25  1  0  0  0  0
 20 18  1  0  0  0  0
 21  8  2  0  0  0  0
 22  2  1  0  0  0  0
 24  7  2  0  0  0  0
 26  9  1  0  0  0  0
 28 27  2  0  0  0  0
 29 30  1  0  0  0  0
 30 31  2  0  0  0  0
 30 28  1  0  0  0  0
 33 34  1  0  0  0  0
 34 32  2  0  0  0  0
 34 31  1  0  0  0  0
 35 33  1  0  0  0  0
 35 29  2  0  0  0  0
 36 37  1  0  0  0  0
M  END
>  <MODEL>
5

>  <REMARK>
 VINA RESULT:      -8.1      2.572      5.286
  Name = 
  3 active torsions:
  status: ('A' for Active; 'I' for Inactive)
    1  A    between atoms: C_5  and  C_23
    2  A    between atoms: C_6  and  C_31
    3  A    between atoms: C_14  and  C_31
                            x       y       z     vdW  Elec       q    Type
                         _______ _______ _______ _____ _____    ______ ____

>  <TORSDO>
F 3

$$$$
=
 OpenBabel11052419573D

 37 42  0  0  1  0  0  0  0  0999 V2000
  189.7300  174.1960  141.6650 C   0  0  1  0  0  0  0  0  0  0  0  0
  187.3900  177.2820  142.9580 C   0  0  0  0  0  0  0  0  0  0  0  0
  190.7370  177.0070  144.4320 C   0  0  0  0  0  0  0  0  0  0  0  0
  189.2730  172.7310  141.6960 C   0  0  1  0  0  3  0  0  0  0  0  0
  188.1720  177.4930  145.4130 C   0  0  0  0  0  3  0  0  0  0  0  0
  191.8350  176.3430  143.8680 C   0  0  0  0  0  0  0  0  0  0  0  0
  190.5920  171.9220  143.5680 C   0  0  0  0  0  0  0  0  0  0  0  0
  189.7500  177.4940  143.6010 C   0  0  0  0  0  3  0  0  0  0  0  0
  192.8850  175.9240  144.7280 C   0  0  0  0  0  0  0  0  0  0  0  0
  188.9690  177.1580  147.6390 F   0  0  0  0  0  0  0  0  0  0  0  0
  189.3480  172.2260  143.0210 O   0  0  0  0  0  0  0  0  0  0  0  0
  188.7070  175.2380  141.8840 C   0  0  0  0  0  0  0  0  0  0  0  0
  187.2390  178.4500  142.0010 C   0  0  0  0  0  1  0  0  0  0  0  0
  191.4870  176.4720  146.6250 N   0  0  0  0  0  0  0  0  0  0  0  0
  189.2300  177.2580  146.3120 C   0  0  0  0  0  0  0  0  0  0  0  0
  187.9480  176.1120  142.2370 C   0  0  0  0  0  0  0  0  0  0  0  0
  191.8070  171.9890  142.7040 C   0  0  0  0  0  2  0  0  0  0  0  0
  191.7450  175.9470  142.3950 C   0  0  0  0  0  2  0  0  0  0  0  0
  190.5080  176.9470  145.8140 C   0  0  0  0  0  0  0  0  0  0  0  0
  191.1900  174.5190  142.1440 C   0  0  1  0  0  0  0  0  0  0  0  0
  188.4280  177.6110  144.0310 C   0  0  0  0  0  0  0  0  0  0  0  0
  186.0280  176.9250  143.5340 C   0  0  0  0  0  1  0  0  0  0  0  0
  192.2500  173.4240  142.4110 C   0  0  0  0  0  2  0  0  0  0  0  0
  190.6900  171.5830  144.7750 O   0  0  0  0  0  0  0  0  0  0  0  0
  190.8060  174.4880  140.6580 C   0  0  0  0  0  2  0  0  0  0  0  0
  192.6620  176.0060  146.1180 C   0  0  0  0  0  3  0  0  0  0  0  0
  194.7000  175.9460  143.1810 O   0  0  0  0  0  0  0  0  0  0  0  0
  194.1940  175.4160  144.2100 C   0  0  0  0  0  0  0  0  0  0  0  0
  196.3630  174.5220  145.3030 C   0  0  0  0  0  3  0  0  0  0  0  0
  194.9610  174.3280  144.8700 C   0  0  0  0  0  0  0  0  0  0  0  0
  194.3840  173.1280  145.0150 C   0  0  0  0  0  3  0  0  0  0  0  0
  194.5330  170.8920  145.7570 O   0  0  0  0  0  0  0  0  0  0  0  0
  196.5330  172.1590  146.0860 C   0  0  0  0  0  2  0  0  0  0  0  0
  195.1090  172.0040  145.6260 C   0  0  0  0  0  0  0  0  0  0  0  0
  197.0810  173.5410  145.8560 C   0  0  0  0  0  3  0  0  0  0  0  0
  186.9330  172.3910  142.0890 F   0  0  0  0  0  0  0  0  0  0  0  0
  187.8910  172.4900  141.0940 C   0  0  0  0  0  2  0  0  0  0  0  0
  1 25  1  6  0  0  0
  1  4  1  0  0  0  0
  1 12  1  0  0  0  0
  1 20  1  0  0  0  0
  2 22  1  0  0  0  0
  2 21  1  0  0  0  0
  3 19  1  0  0  0  0
  4 37  1  1  0  0  0
  4 11  1  0  0  0  0
  5 15  1  0  0  0  0
  6  3  1  0  0  0  0
  6  9  2  0  0  0  0
  7 24  2  0  0  0  0
  8 21  1  0  0  0  0
  8  3  2  0  0  0  0
  9 26  1  0  0  0  0
 11  7  1  0  0  0  0
 12 16  3  0  0  0  0
 13  2  1  0  0  0  0
 15 10  1  0  0  0  0
 16  2  1  0  0  0  0
 17  7  1  0  0  0  0
 18  6  1  0  0  0  0
 19 15  2  0  0  0  0
 19 14  1  0  0  0  0
 20 25  1  6  0  0  0
 20 18  1  0  0  0  0
 20 23  1  0  0  0  0
 21  5  2  0  0  0  0
 23 17  1  0  0  0  0
 26 14  2  0  0  0  0
 27 28  2  0  0  0  0
 28  9  1  0  0  0  0
 28 30  1  0  0  0  0
 29 35  2  0  0  0  0
 30 31  2  0  0  0  0
 30 29  1  0  0  0  0
 31 34  1  0  0  0  0
 34 32  2  0  0  0  0
 34 33  1  0  0  0  0
 35 33  1  0  0  0  0
 37 36  1  0  0  0  0
M  END
>  <MODEL>
6

>  <REMARK>
 VINA RESULT:      -8.0      2.720      7.522
  Name = 
  3 active torsions:
  status: ('A' for Active; 'I' for Inactive)
    1  A    between atoms: C_5  and  C_23
    2  A    between atoms: C_6  and  C_31
    3  A    between atoms: C_14  and  C_31
                            x       y       z     vdW  Elec       q    Type
                         _______ _______ _______ _____ _____    ______ ____

>  <TORSDO>
F 3

$$$$
=
 OpenBabel11052419573D

 37 42  0  0  1  0  0  0  0  0999 V2000
  188.8600  177.0780  142.6710 C   0  0  1  0  0  0  0  0  0  0  0  0
  186.2760  177.8050  145.7470 C   0  0  0  0  0  0  0  0  0  0  0  0
  189.6630  176.7230  146.6460 C   0  0  0  0  0  0  0  0  0  0  0  0
  188.5400  176.1150  141.5200 C   0  0  1  0  0  3  0  0  0  0  0  0
  187.0850  176.0710  147.4850 C   0  0  0  0  0  3  0  0  0  0  0  0
  190.8050  176.8340  145.8410 C   0  0  0  0  0  0  0  0  0  0  0  0
  189.9640  174.2450  142.1310 C   0  0  0  0  0  0  0  0  0  0  0  0
  188.6200  177.6040  146.4510 C   0  0  0  0  0  3  0  0  0  0  0  0
  191.9060  175.9770  146.1110 C   0  0  0  0  0  0  0  0  0  0  0  0
  187.9530  174.1790  148.6560 F   0  0  0  0  0  0  0  0  0  0  0  0
  188.6870  174.7710  141.9540 O   0  0  0  0  0  0  0  0  0  0  0  0
  187.7520  177.4770  143.5610 C   0  0  0  0  0  0  0  0  0  0  0  0
  186.0000  179.2650  146.0540 C   0  0  0  0  0  1  0  0  0  0  0  0
  190.5020  174.7310  147.6370 N   0  0  0  0  0  0  0  0  0  0  0  0
  188.1770  175.2990  147.9230 C   0  0  0  0  0  0  0  0  0  0  0  0
  186.9230  177.6860  144.4180 C   0  0  0  0  0  0  0  0  0  0  0  0
  191.1500  175.0500  141.7170 C   0  0  0  0  0  2  0  0  0  0  0  0
  190.7220  177.7350  144.6100 C   0  0  0  0  0  2  0  0  0  0  0  0
  189.4690  175.5890  147.4460 C   0  0  0  0  0  0  0  0  0  0  0  0
  190.2950  177.0090  143.3070 C   0  0  1  0  0  0  0  0  0  0  0  0
  187.3010  177.2440  146.7320 C   0  0  0  0  0  0  0  0  0  0  0  0
  184.9640  177.0350  145.7470 C   0  0  0  0  0  1  0  0  0  0  0  0
  191.4550  176.1990  142.6800 C   0  0  0  0  0  2  0  0  0  0  0  0
  190.1170  173.0970  142.6230 O   0  0  0  0  0  0  0  0  0  0  0  0
  189.8860  178.1250  142.3360 C   0  0  0  0  0  2  0  0  0  0  0  0
  191.7040  174.9240  147.0270 C   0  0  0  0  0  3  0  0  0  0  0  0
  193.6360  177.3290  145.1780 O   0  0  0  0  0  0  0  0  0  0  0  0
  193.2460  176.1640  145.4700 C   0  0  0  0  0  0  0  0  0  0  0  0
  193.8870  174.0560  144.1120 C   0  0  0  0  0  3  0  0  0  0  0  0
  194.1710  175.0370  145.1830 C   0  0  0  0  0  0  0  0  0  0  0  0
  195.2520  174.8770  145.9570 C   0  0  0  0  0  3  0  0  0  0  0  0
  197.1950  173.6410  146.4830 O   0  0  0  0  0  0  0  0  0  0  0  0
  195.9340  172.7400  144.6630 C   0  0  0  0  0  2  0  0  0  0  0  0
  196.1820  173.7570  145.7440 C   0  0  0  0  0  0  0  0  0  0  0  0
  194.6850  173.0120  143.8710 C   0  0  0  0  0  3  0  0  0  0  0  0
  187.1030  177.5920  140.2960 F   0  0  0  0  0  0  0  0  0  0  0  0
  187.1740  176.3370  140.8760 C   0  0  0  0  0  2  0  0  0  0  0  0
  1 25  1  6  0  0  0
  1 20  1  0  0  0  0
  1 12  1  0  0  0  0
  2 22  1  0  0  0  0
  2 13  1  0  0  0  0
  2 21  1  0  0  0  0
  3 19  1  0  0  0  0
  4 37  1  1  0  0  0
  4 11  1  0  0  0  0
  4  1  1  0  0  0  0
  5 15  1  0  0  0  0
  6  9  2  0  0  0  0
  6  3  1  0  0  0  0
  7 24  2  0  0  0  0
  8  3  2  0  0  0  0
  8 21  1  0  0  0  0
  9 26  1  0  0  0  0
 11  7  1  0  0  0  0
 12 16  3  0  0  0  0
 15 10  1  0  0  0  0
 16  2  1  0  0  0  0
 17  7  1  0  0  0  0
 17 23  1  0  0  0  0
 18  6  1  0  0  0  0
 19 14  1  0  0  0  0
 19 15  2  0  0  0  0
 20 25  1  6  0  0  0
 20 18  1  0  0  0  0
 21  5  2  0  0  0  0
 23 20  1  0  0  0  0
 26 14  2  0  0  0  0
 27 28  2  0  0  0  0
 28  9  1  0  0  0  0
 29 30  1  0  0  0  0
 30 28  1  0  0  0  0
 30 31  2  0  0  0  0
 33 34  1  0  0  0  0
 34 31  1  0  0  0  0
 34 32  2  0  0  0  0
 35 29  2  0  0  0  0
 35 33  1  0  0  0  0
 36 37  1  0  0  0  0
M  END
>  <MODEL>
7

>  <REMARK>
 VINA RESULT:      -7.9      2.870      7.536
  Name = 
  3 active torsions:
  status: ('A' for Active; 'I' for Inactive)
    1  A    between atoms: C_5  and  C_23
    2  A    between atoms: C_6  and  C_31
    3  A    between atoms: C_14  and  C_31
                            x       y       z     vdW  Elec       q    Type
                         _______ _______ _______ _____ _____    ______ ____

>  <TORSDO>
F 3

$$$$
=
 OpenBabel11052419573D

 37 42  0  0  1  0  0  0  0  0999 V2000
  191.1370  174.0190  142.3640 C   0  0  1  0  0  0  0  0  0  0  0  0
  188.7500  176.6630  144.3590 C   0  0  0  0  0  0  0  0  0  0  0  0
  192.3470  176.8210  145.0580 C   0  0  0  0  0  0  0  0  0  0  0  0
  190.9000  172.5030  142.3800 C   0  0  1  0  0  3  0  0  0  0  0  0
  190.0230  176.8770  146.5980 C   0  0  0  0  0  3  0  0  0  0  0  0
  193.3710  176.3530  144.2230 C   0  0  0  0  0  0  0  0  0  0  0  0
  192.7000  171.8150  143.8590 C   0  0  0  0  0  0  0  0  0  0  0  0
  191.1430  177.1930  144.4960 C   0  0  0  0  0  3  0  0  0  0  0  0
  194.6330  176.0570  144.8040 C   0  0  0  0  0  0  0  0  0  0  0  0
  191.3330  176.5650  148.5700 F   0  0  0  0  0  0  0  0  0  0  0  0
  191.3360  171.9550  143.6160 O   0  0  0  0  0  0  0  0  0  0  0  0
  190.0580  174.8870  142.8760 C   0  0  0  0  0  0  0  0  0  0  0  0
  188.2330  177.8370  143.5480 C   0  0  0  0  0  1  0  0  0  0  0  0
  193.6310  176.3060  146.9920 N   0  0  0  0  0  0  0  0  0  0  0  0
  191.2760  176.7620  147.2300 C   0  0  0  0  0  0  0  0  0  0  0  0
  189.2860  175.6220  143.4480 C   0  0  0  0  0  0  0  0  0  0  0  0
  193.6720  172.1000  142.7630 C   0  0  0  0  0  2  0  0  0  0  0  0
  193.0090  176.0150  142.7770 C   0  0  0  0  0  2  0  0  0  0  0  0
  192.4420  176.6660  146.4470 C   0  0  0  0  0  0  0  0  0  0  0  0
  192.6110  174.5340  142.5420 C   0  0  1  0  0  0  0  0  0  0  0  0
  189.9460  177.0930  145.2070 C   0  0  0  0  0  0  0  0  0  0  0  0
  187.6120  176.0830  145.1840 C   0  0  0  0  0  1  0  0  0  0  0  0
  193.8410  173.5960  142.4920 C   0  0  0  0  0  2  0  0  0  0  0  0
  193.1090  171.4400  144.9880 O   0  0  0  0  0  0  0  0  0  0  0  0
  191.9130  174.5130  141.1750 C   0  0  0  0  0  2  0  0  0  0  0  0
  194.7160  176.0420  146.2120 C   0  0  0  0  0  3  0  0  0  0  0  0
  196.3410  176.6900  143.2640 O   0  0  0  0  0  0  0  0  0  0  0  0
  195.8500  175.7720  143.9810 C   0  0  0  0  0  0  0  0  0  0  0  0
  197.3480  174.0040  142.8290 C   0  0  0  0  0  3  0  0  0  0  0  0
  196.5440  174.4580  143.9860 C   0  0  0  0  0  0  0  0  0  0  0  0
  196.3820  173.6460  145.0380 C   0  0  0  0  0  3  0  0  0  0  0  0
  196.8490  171.5850  146.0890 O   0  0  0  0  0  0  0  0  0  0  0  0
  197.8430  171.8200  143.9280 C   0  0  0  0  0  2  0  0  0  0  0  0
  197.0130  172.3190  145.0790 C   0  0  0  0  0  0  0  0  0  0  0  0
  197.9400  172.8070  142.7980 C   0  0  0  0  0  3  0  0  0  0  0  0
  188.7370  171.9350  143.2380 F   0  0  0  0  0  0  0  0  0  0  0  0
  189.4650  172.0870  142.0710 C   0  0  0  0  0  2  0  0  0  0  0  0
  1 25  1  6  0  0  0
  1  4  1  0  0  0  0
  1 20  1  0  0  0  0
  1 12  1  0  0  0  0
  2 22  1  0  0  0  0
  2 21  1  0  0  0  0
  3 19  1  0  0  0  0
  4 37  1  1  0  0  0
  4 11  1  0  0  0  0
  5 15  1  0  0  0  0
  6  9  2  0  0  0  0
  6  3  1  0  0  0  0
  7 24  2  0  0  0  0
  8  3  2  0  0  0  0
  8 21  1  0  0  0  0
  9 26  1  0  0  0  0
 11  7  1  0  0  0  0
 12 16  3  0  0  0  0
 13  2  1  0  0  0  0
 15 10  1  0  0  0  0
 16  2  1  0  0  0  0
 17  7  1  0  0  0  0
 18  6  1  0  0  0  0
 19 14  1  0  0  0  0
 19 15  2  0  0  0  0
 20 25  1  6  0  0  0
 20 18  1  0  0  0  0
 21  5  2  0  0  0  0
 23 20  1  0  0  0  0
 23 17  1  0  0  0  0
 26 14  2  0  0  0  0
 27 28  2  0  0  0  0
 28 30  1  0  0  0  0
 28  9  1  0  0  0  0
 29 30  1  0  0  0  0
 30 31  2  0  0  0  0
 31 34  1  0  0  0  0
 33 34  1  0  0  0  0
 34 32  2  0  0  0  0
 35 29  2  0  0  0  0
 35 33  1  0  0  0  0
 37 36  1  0  0  0  0
M  END
>  <MODEL>
8

>  <REMARK>
 VINA RESULT:      -7.9      3.014      7.980
  Name = 
  3 active torsions:
  status: ('A' for Active; 'I' for Inactive)
    1  A    between atoms: C_5  and  C_23
    2  A    between atoms: C_6  and  C_31
    3  A    between atoms: C_14  and  C_31
                            x       y       z     vdW  Elec       q    Type
                         _______ _______ _______ _____ _____    ______ ____

>  <TORSDO>
F 3

$$$$
=
 OpenBabel11052419573D

 37 42  0  0  1  0  0  0  0  0999 V2000
  190.4530  171.7050  142.6850 C   0  0  1  0  0  0  0  0  0  0  0  0
  194.1510  172.1660  144.3540 C   0  0  0  0  0  0  0  0  0  0  0  0
  192.0610  175.1680  144.0970 C   0  0  0  0  0  0  0  0  0  0  0  0
  190.2320  171.0740  141.3030 C   0  0  1  0  0  3  0  0  0  0  0  0
  194.7360  174.5650  143.5900 C   0  0  0  0  0  3  0  0  0  0  0  0
  190.6640  175.1940  143.9800 C   0  0  0  0  0  0  0  0  0  0  0  0
  189.7110  173.0650  140.0140 C   0  0  0  0  0  0  0  0  0  0  0  0
  192.6610  174.0860  144.7050 C   0  0  0  0  0  3  0  0  0  0  0  0
  190.0540  176.3540  143.4320 C   0  0  0  0  0  0  0  0  0  0  0  0
  194.9830  176.6530  142.4570 F   0  0  0  0  0  0  0  0  0  0  0  0
  190.5710  172.0030  140.2840 O   0  0  0  0  0  0  0  0  0  0  0  0
  191.7870  171.5590  143.3010 C   0  0  0  0  0  0  0  0  0  0  0  0
  194.3100  171.6520  145.7730 C   0  0  0  0  0  1  0  0  0  0  0  0
  192.2480  177.1490  142.7940 N   0  0  0  0  0  0  0  0  0  0  0  0
  194.2120  175.8080  143.1870 C   0  0  0  0  0  0  0  0  0  0  0  0
  192.9040  171.6230  143.7610 C   0  0  0  0  0  0  0  0  0  0  0  0
  188.3830  173.1220  140.6910 C   0  0  0  0  0  2  0  0  0  0  0  0
  189.9030  173.9020  144.2760 C   0  0  0  0  0  2  0  0  0  0  0  0
  192.8460  176.0840  143.3840 C   0  0  0  0  0  0  0  0  0  0  0  0
  189.6460  173.0070  143.0340 C   0  0  1  0  0  0  0  0  0  0  0  0
  193.9520  173.6810  144.3600 C   0  0  0  0  0  0  0  0  0  0  0  0
  195.3460  171.7250  143.5230 C   0  0  0  0  0  1  0  0  0  0  0  0
  188.4830  173.5360  142.1610 C   0  0  0  0  0  2  0  0  0  0  0  0
  190.0450  173.9610  139.1960 O   0  0  0  0  0  0  0  0  0  0  0  0
  189.2610  171.6320  143.5970 C   0  0  0  0  0  2  0  0  0  0  0  0
  190.8970  177.3160  142.8390 C   0  0  0  0  0  3  0  0  0  0  0  0
  187.8930  176.4020  142.4230 O   0  0  0  0  0  0  0  0  0  0  0  0
  188.5750  176.5790  143.4720 C   0  0  0  0  0  0  0  0  0  0  0  0
  188.0070  176.2200  145.9710 C   0  0  0  0  0  3  0  0  0  0  0  0
  187.8470  176.9730  144.7060 C   0  0  0  0  0  0  0  0  0  0  0  0
  186.9810  177.9920  144.6480 C   0  0  0  0  0  3  0  0  0  0  0  0
  185.4080  179.3710  145.7430 O   0  0  0  0  0  0  0  0  0  0  0  0
  186.3420  177.6680  147.1360 C   0  0  0  0  0  2  0  0  0  0  0  0
  186.2050  178.4000  145.8300 C   0  0  0  0  0  0  0  0  0  0  0  0
  187.3270  176.5330  147.0780 C   0  0  0  0  0  3  0  0  0  0  0  0
  190.4360  168.7700  141.9310 F   0  0  0  0  0  0  0  0  0  0  0  0
  190.9540  169.7450  141.0960 C   0  0  0  0  0  2  0  0  0  0  0  0
  1 20  1  0  0  0  0
  1 12  1  1  0  0  0
  1 25  1  0  0  0  0
  2 21  1  0  0  0  0
  2 13  1  0  0  0  0
  3  8  1  0  0  0  0
  4 37  1  1  0  0  0
  4  1  1  0  0  0  0
  5 21  1  0  0  0  0
  6  3  1  0  0  0  0
  6 18  1  0  0  0  0
  7 11  1  0  0  0  0
  7 17  1  0  0  0  0
  9 28  1  0  0  0  0
  9  6  2  0  0  0  0
 10 15  1  0  0  0  0
 11  4  1  0  0  0  0
 12 16  3  0  0  0  0
 14 26  2  0  0  0  0
 14 19  1  0  0  0  0
 15 19  1  0  0  0  0
 15  5  2  0  0  0  0
 16  2  1  0  0  0  0
 17 23  1  0  0  0  0
 19  3  2  0  0  0  0
 20 23  1  6  0  0  0
 20 25  1  0  0  0  0
 20 18  1  0  0  0  0
 21  8  2  0  0  0  0
 22  2  1  0  0  0  0
 24  7  2  0  0  0  0
 26  9  1  0  0  0  0
 27 28  2  0  0  0  0
 28 30  1  0  0  0  0
 29 35  2  0  0  0  0
 30 29  1  0  0  0  0
 31 30  2  0  0  0  0
 31 34  1  0  0  0  0
 32 34  2  0  0  0  0
 34 33  1  0  0  0  0
 35 33  1  0  0  0  0
 37 36  1  0  0  0  0
M  END
>  <MODEL>
9

>  <REMARK>
 VINA RESULT:      -7.9      2.464      5.131
  Name = 
  3 active torsions:
  status: ('A' for Active; 'I' for Inactive)
    1  A    between atoms: C_5  and  C_23
    2  A    between atoms: C_6  and  C_31
    3  A    between atoms: C_14  and  C_31
                            x       y       z     vdW  Elec       q    Type
                         _______ _______ _______ _____ _____    ______ ____

>  <TORSDO>
F 3

$$$$
