=
 OpenBabel11052418073D

 28 33  0  0  1  0  0  0  0  0999 V2000
  191.1270  175.3570  143.9140 C   0  0  1  0  0  3  0  0  0  0  0  0
  191.3170  176.2090  145.1910 C   0  0  1  0  0  3  0  0  0  0  0  0
  188.9900  177.0290  144.4670 C   0  0  2  0  0  3  0  0  0  0  0  0
  186.5690  177.6320  141.5290 C   0  0  0  0  0  3  0  0  0  0  0  0
  190.5690  171.2080  142.8220 N   0  0  0  0  0  1  0  0  0  0  0  0
  190.7470  175.8800  147.5620 C   0  0  1  0  0  3  0  0  0  0  0  0
  190.0750  177.0500  145.5530 C   0  0  1  0  0  3  0  0  0  0  0  0
  192.9580  175.3210  146.7150 O   0  0  0  0  0  1  0  0  0  0  0  0
  185.4600  178.5910  144.1050 C   0  0  0  0  0  2  0  0  0  0  0  0
  187.9260  175.8540  142.6270 C   0  0  1  0  0  3  0  0  0  0  0  0
  191.5930  175.3370  146.4140 C   0  0  2  0  0  3  0  0  0  0  0  0
  184.1990  178.1760  141.9960 C   0  0  0  0  0  0  0  0  0  0  0  0
  186.6670  176.7310  142.7250 C   0  0  1  0  0  3  0  0  0  0  0  0
  187.7940  177.9460  144.7430 C   0  0  0  0  0  2  0  0  0  0  0  0
  184.2130  178.2900  143.3280 C   0  0  0  0  0  3  0  0  0  0  0  0
  189.5750  173.4280  143.0250 C   0  0  1  0  0  3  0  0  0  0  0  0
  188.5730  175.6320  143.9960 C   0  0  1  0  0  3  0  0  0  0  0  0
  186.4880  177.4560  144.0930 C   0  0  1  0  0  3  0  0  0  0  0  0
  191.9660  172.9590  143.7690 C   0  0  0  0  0  2  0  0  0  0  0  0
  188.9330  173.7990  141.6930 C   0  0  0  0  0  2  0  0  0  0  0  0
  190.8610  172.6290  142.7730 C   0  0  1  0  0  3  0  0  0  0  0  0
  191.4820  176.9310  148.3870 C   0  0  0  0  0  1  0  0  0  0  0  0
  182.9820  178.0150  141.3480 O   0  0  0  0  0  1  0  0  0  0  0  0
  185.4320  178.2430  141.1850 C   0  0  0  0  0  3  0  0  0  0  0  0
  187.6240  174.5370  141.9300 C   0  0  0  0  0  2  0  0  0  0  0  0
  192.3260  174.4340  143.6460 C   0  0  0  0  0  2  0  0  0  0  0  0
  189.7610  174.6470  143.9610 C   0  0  2  0  0  3  0  0  0  0  0  0
  189.5590  176.5290  146.8870 C   0  0  0  0  0  2  0  0  0  0  0  0
  1 26  1  1  0  0  0
  1 27  1  0  0  0  0
  1  2  1  0  0  0  0
  2  7  1  0  0  0  0
  2 11  1  0  0  0  0
  3 14  1  0  0  0  0
  3  7  1  0  0  0  0
  4 13  1  0  0  0  0
  6 22  1  0  0  0  0
  7 28  1  0  0  0  0
 10 13  1  0  0  0  0
 10 17  1  0  0  0  0
 11  8  1  0  0  0  0
 11  6  1  0  0  0  0
 12 15  2  0  0  0  0
 13 18  1  0  0  0  0
 15  9  1  0  0  0  0
 16 27  1  0  0  0  0
 17  3  1  0  0  0  0
 18  9  1  0  0  0  0
 18 14  1  0  0  0  0
 20 25  1  0  0  0  0
 20 16  1  0  0  0  0
 21  5  1  0  0  0  0
 21 16  1  0  0  0  0
 21 19  1  0  0  0  0
 23 12  1  0  0  0  0
 24  4  2  0  0  0  0
 24 12  1  0  0  0  0
 25 10  1  0  0  0  0
 26 19  1  0  0  0  0
 27 17  1  0  0  0  0
 28  6  1  0  0  0  0
M  END
>  <MODEL>
1

>  <REMARK>
 VINA RESULT:      -9.2      0.000      0.000
  Name = 
  0 active torsions:
  status: ('A' for Active; 'I' for Inactive)
                            x       y       z     vdW  Elec       q    Type
                         _______ _______ _______ _____ _____    ______ ____

>  <TORSDO>
F 0

$$$$
=
 OpenBabel11052418073D

 28 33  0  0  1  0  0  0  0  0999 V2000
  191.4250  175.6090  142.7490 C   0  0  1  0  0  3  0  0  0  0  0  0
  192.3930  175.8950  143.9210 C   0  0  1  0  0  3  0  0  0  0  0  0
  190.2050  176.7820  144.9410 C   0  0  2  0  0  3  0  0  0  0  0  0
  186.7470  178.3420  144.2620 C   0  0  0  0  0  3  0  0  0  0  0  0
  189.6960  172.2070  140.7110 N   0  0  0  0  0  1  0  0  0  0  0  0
  193.1000  174.6160  145.9020 C   0  0  1  0  0  3  0  0  0  0  0  0
  191.6840  176.4400  145.1790 C   0  0  1  0  0  3  0  0  0  0  0  0
  194.4140  174.5840  143.8540 O   0  0  0  0  0  1  0  0  0  0  0  0
  187.3250  178.1250  147.1610 C   0  0  0  0  0  2  0  0  0  0  0  0
  188.1590  176.3660  143.7020 C   0  0  1  0  0  3  0  0  0  0  0  0
  193.1180  174.6290  144.3750 C   0  0  2  0  0  3  0  0  0  0  0  0
  185.1000  178.5000  146.1030 C   0  0  0  0  0  0  0  0  0  0  0  0
  187.3040  177.0480  144.7820 C   0  0  1  0  0  3  0  0  0  0  0  0
  189.5020  177.4340  146.1360 C   0  0  0  0  0  2  0  0  0  0  0  0
  185.8250  178.0770  147.1430 C   0  0  0  0  0  3  0  0  0  0  0  0
  189.3420  174.0940  142.2170 C   0  0  1  0  0  3  0  0  0  0  0  0
  189.3780  175.6630  144.3010 C   0  0  1  0  0  3  0  0  0  0  0  0
  187.9890  177.1580  146.1770 C   0  0  1  0  0  3  0  0  0  0  0  0
  191.6510  173.5250  141.3050 C   0  0  0  0  0  2  0  0  0  0  0  0
  188.1710  174.9210  141.6970 C   0  0  0  0  0  2  0  0  0  0  0  0
  190.1520  173.5470  141.0350 C   0  0  1  0  0  3  0  0  0  0  0  0
  194.3210  175.2980  146.5080 C   0  0  0  0  0  1  0  0  0  0  0  0
  183.7160  178.5310  146.2170 O   0  0  0  0  0  1  0  0  0  0  0  0
  185.7180  178.9640  144.8450 C   0  0  0  0  0  3  0  0  0  0  0  0
  187.3230  175.4170  142.8580 C   0  0  0  0  0  2  0  0  0  0  0  0
  192.1340  174.9490  141.5570 C   0  0  0  0  0  2  0  0  0  0  0  0
  190.1890  174.8510  143.2680 C   0  0  2  0  0  3  0  0  0  0  0  0
  191.8620  175.4000  146.2750 C   0  0  0  0  0  2  0  0  0  0  0  0
  1 26  1  6  0  0  0
  1 27  1  0  0  0  0
  1  2  1  0  0  0  0
  2 11  1  0  0  0  0
  2  7  1  0  0  0  0
  3  7  1  0  0  0  0
  3 14  1  0  0  0  0
  4 13  1  0  0  0  0
  4 24  2  0  0  0  0
  5 21  1  0  0  0  0
  6 28  1  0  0  0  0
  6 22  1  0  0  0  0
  7 28  1  0  0  0  0
  8 11  1  0  0  0  0
 10 17  1  0  0  0  0
 10 13  1  0  0  0  0
 11  6  1  0  0  0  0
 12 23  1  0  0  0  0
 12 15  2  0  0  0  0
 13 18  1  0  0  0  0
 14 18  1  0  0  0  0
 15  9  1  0  0  0  0
 16 27  1  0  0  0  0
 17  3  1  0  0  0  0
 18  9  1  0  0  0  0
 19 26  1  0  0  0  0
 20 16  1  0  0  0  0
 20 25  1  0  0  0  0
 21 19  1  0  0  0  0
 21 16  1  0  0  0  0
 24 12  1  0  0  0  0
 25 10  1  0  0  0  0
 27 17  1  0  0  0  0
M  END
>  <MODEL>
2

>  <REMARK>
 VINA RESULT:      -9.0      1.981      2.663
  Name = 
  0 active torsions:
  status: ('A' for Active; 'I' for Inactive)
                            x       y       z     vdW  Elec       q    Type
                         _______ _______ _______ _____ _____    ______ ____

>  <TORSDO>
F 0

$$$$
=
 OpenBabel11052418073D

 28 33  0  0  1  0  0  0  0  0999 V2000
  191.6140  174.1930  145.0250 C   0  0  1  0  0  3  0  0  0  0  0  0
  191.4000  173.5460  143.6370 C   0  0  1  0  0  3  0  0  0  0  0  0
  189.2190  174.8940  143.8260 C   0  0  2  0  0  3  0  0  0  0  0  0
  186.5790  176.4160  146.1870 C   0  0  0  0  0  3  0  0  0  0  0  0
  194.1910  177.1270  146.8880 N   0  0  0  0  0  1  0  0  0  0  0  0
  191.9290  174.2340  141.3340 C   0  0  1  0  0  3  0  0  0  0  0  0
  190.1190  174.0330  142.9280 C   0  0  1  0  0  3  0  0  0  0  0  0
  193.4370  172.7970  142.5910 O   0  0  0  0  0  1  0  0  0  0  0  0
  185.8560  176.7590  143.3330 C   0  0  0  0  0  2  0  0  0  0  0  0
  189.0240  176.4250  145.7010 C   0  0  1  0  0  3  0  0  0  0  0  0
  192.5470  173.8700  142.6810 C   0  0  2  0  0  3  0  0  0  0  0  0
  184.8920  177.9830  145.2780 C   0  0  0  0  0  0  0  0  0  0  0  0
  187.6370  176.9000  145.2370 C   0  0  1  0  0  3  0  0  0  0  0  0
  187.8840  175.2980  143.1910 C   0  0  0  0  0  2  0  0  0  0  0  0
  185.1550  177.9230  143.9690 C   0  0  0  0  0  3  0  0  0  0  0  0
  191.9560  176.5810  146.0730 C   0  0  1  0  0  3  0  0  0  0  0  0
  189.9250  176.0630  144.5200 C   0  0  1  0  0  3  0  0  0  0  0  0
  187.3270  176.6250  143.7350 C   0  0  1  0  0  3  0  0  0  0  0  0
  193.9100  174.9700  145.8000 C   0  0  0  0  0  2  0  0  0  0  0  0
  190.9510  176.8490  147.1880 C   0  0  0  0  0  2  0  0  0  0  0  0
  193.2590  176.0350  146.6730 C   0  0  1  0  0  3  0  0  0  0  0  0
  191.7660  173.0260  140.4190 C   0  0  0  0  0  1  0  0  0  0  0  0
  184.1340  179.0410  145.7630 O   0  0  0  0  0  1  0  0  0  0  0  0
  185.3540  176.9480  146.2240 C   0  0  0  0  0  3  0  0  0  0  0  0
  189.6780  177.4500  146.6130 C   0  0  0  0  0  2  0  0  0  0  0  0
  192.9570  173.7910  145.6550 C   0  0  0  0  0  2  0  0  0  0  0  0
  191.3710  175.7110  144.9360 C   0  0  2  0  0  3  0  0  0  0  0  0
  190.5600  174.7790  141.6770 C   0  0  0  0  0  2  0  0  0  0  0  0
  1 26  1  6  0  0  0
  2  1  1  0  0  0  0
  3 17  1  0  0  0  0
  4 24  2  0  0  0  0
  6 28  1  0  0  0  0
  6 11  1  0  0  0  0
  7  2  1  0  0  0  0
  7  3  1  0  0  0  0
  8 11  1  0  0  0  0
  9 18  1  0  0  0  0
  9 15  1  0  0  0  0
 10 25  1  0  0  0  0
 11  2  1  0  0  0  0
 12 23  1  0  0  0  0
 12 24  1  0  0  0  0
 13 10  1  0  0  0  0
 13  4  1  0  0  0  0
 14 18  1  0  0  0  0
 14  3  1  0  0  0  0
 15 12  2  0  0  0  0
 16 21  1  0  0  0  0
 16 20  1  0  0  0  0
 17 27  1  0  0  0  0
 17 10  1  0  0  0  0
 18 13  1  0  0  0  0
 19 21  1  0  0  0  0
 21  5  1  0  0  0  0
 22  6  1  0  0  0  0
 25 20  1  0  0  0  0
 26 19  1  0  0  0  0
 27  1  1  0  0  0  0
 27 16  1  0  0  0  0
 28  7  1  0  0  0  0
M  END
>  <MODEL>
3

>  <REMARK>
 VINA RESULT:      -8.9      2.472      4.509
  Name = 
  0 active torsions:
  status: ('A' for Active; 'I' for Inactive)
                            x       y       z     vdW  Elec       q    Type
                         _______ _______ _______ _____ _____    ______ ____

>  <TORSDO>
F 0

$$$$
=
 OpenBabel11052418073D

 28 33  0  0  1  0  0  0  0  0999 V2000
  188.6150  175.4930  145.7240 C   0  0  1  0  0  3  0  0  0  0  0  0
  190.0730  175.1620  146.1200 C   0  0  1  0  0  3  0  0  0  0  0  0
  190.1150  174.4200  143.6590 C   0  0  2  0  0  3  0  0  0  0  0  0
  188.0800  173.0660  140.6780 C   0  0  0  0  0  3  0  0  0  0  0  0
  186.1040  178.9730  145.1670 N   0  0  0  0  0  1  0  0  0  0  0  0
  192.1890  176.4160  146.0470 C   0  0  1  0  0  3  0  0  0  0  0  0
  190.9310  174.6730  144.9340 C   0  0  1  0  0  3  0  0  0  0  0  0
  190.8420  176.3470  148.0730 O   0  0  0  0  0  1  0  0  0  0  0  0
  190.9700  173.2770  140.0550 C   0  0  0  0  0  2  0  0  0  0  0  0
  188.1640  174.9460  142.3120 C   0  0  1  0  0  3  0  0  0  0  0  0
  190.7980  176.3850  146.6760 C   0  0  2  0  0  3  0  0  0  0  0  0
  189.1020  173.0270  138.4240 C   0  0  0  0  0  0  0  0  0  0  0  0
  188.7990  174.3280  141.0560 C   0  0  1  0  0  3  0  0  0  0  0  0
  190.9170  173.8240  142.4970 C   0  0  0  0  0  2  0  0  0  0  0  0
  190.3520  173.4160  138.6940 C   0  0  0  0  0  3  0  0  0  0  0  0
  187.3130  177.1260  144.1250 C   0  0  1  0  0  3  0  0  0  0  0  0
  189.2130  175.5800  143.2260 C   0  0  1  0  0  3  0  0  0  0  0  0
  190.3510  174.1920  141.1140 C   0  0  1  0  0  3  0  0  0  0  0  0
  187.4150  177.5440  146.6350 C   0  0  0  0  0  2  0  0  0  0  0  0
  186.3540  176.3670  143.2140 C   0  0  0  0  0  2  0  0  0  0  0  0
  186.5640  177.6110  145.3730 C   0  0  1  0  0  3  0  0  0  0  0  0
  193.2240  175.6670  146.8780 C   0  0  0  0  0  1  0  0  0  0  0  0
  188.6510  173.0810  137.1120 O   0  0  0  0  0  1  0  0  0  0  0  0
  188.1920  172.5130  139.4670 C   0  0  0  0  0  3  0  0  0  0  0  0
  187.0700  175.9350  141.9440 C   0  0  0  0  0  2  0  0  0  0  0  0
  187.8170  176.0970  146.8900 C   0  0  0  0  0  2  0  0  0  0  0  0
  188.6050  176.3300  144.4320 C   0  0  2  0  0  3  0  0  0  0  0  0
  192.0220  175.7120  144.7190 C   0  0  0  0  0  2  0  0  0  0  0  0
  1  2  1  0  0  0  0
  1 26  1  1  0  0  0
  2 11  1  0  0  0  0
  3  7  1  0  0  0  0
  4 13  1  0  0  0  0
  5 21  1  0  0  0  0
  6 11  1  0  0  0  0
  6 22  1  0  0  0  0
  7  2  1  0  0  0  0
  9 18  1  0  0  0  0
 10 17  1  0  0  0  0
 11  8  1  0  0  0  0
 12 15  2  0  0  0  0
 12 24  1  0  0  0  0
 13 18  1  0  0  0  0
 13 10  1  0  0  0  0
 14  3  1  0  0  0  0
 15  9  1  0  0  0  0
 16 27  1  0  0  0  0
 16 21  1  0  0  0  0
 17  3  1  0  0  0  0
 17 27  1  0  0  0  0
 18 14  1  0  0  0  0
 19 26  1  0  0  0  0
 20 16  1  0  0  0  0
 21 19  1  0  0  0  0
 23 12  1  0  0  0  0
 24  4  2  0  0  0  0
 25 10  1  0  0  0  0
 25 20  1  0  0  0  0
 27  1  1  0  0  0  0
 28  7  1  0  0  0  0
 28  6  1  0  0  0  0
M  END
>  <MODEL>
4

>  <REMARK>
 VINA RESULT:      -8.4      2.919      5.232
  Name = 
  0 active torsions:
  status: ('A' for Active; 'I' for Inactive)
                            x       y       z     vdW  Elec       q    Type
                         _______ _______ _______ _____ _____    ______ ____

>  <TORSDO>
F 0

$$$$
=
 OpenBabel11052418073D

 28 33  0  0  1  0  0  0  0  0999 V2000
  186.7570  178.8000  143.6280 C   0  0  1  0  0  3  0  0  0  0  0  0
  186.9120  178.6390  142.0980 C   0  0  1  0  0  3  0  0  0  0  0  0
  188.9510  177.2820  142.8840 C   0  0  2  0  0  3  0  0  0  0  0  0
  191.6190  176.7910  145.6220 C   0  0  0  0  0  3  0  0  0  0  0  0
  184.0670  177.5500  146.7770 N   0  0  0  0  0  1  0  0  0  0  0  0
  186.1120  176.9790  140.4670 C   0  0  1  0  0  3  0  0  0  0  0  0
  188.0680  177.6970  141.6980 C   0  0  1  0  0  3  0  0  0  0  0  0
  184.8780  179.0370  140.8690 O   0  0  0  0  0  1  0  0  0  0  0  0
  192.0450  174.9860  143.3100 C   0  0  0  0  0  2  0  0  0  0  0  0
  189.1530  176.8710  145.2690 C   0  0  1  0  0  3  0  0  0  0  0  0
  185.6580  178.0410  141.4640 C   0  0  2  0  0  3  0  0  0  0  0  0
  193.0470  174.7700  145.5810 C   0  0  0  0  0  0  0  0  0  0  0  0
  190.4360  176.0480  145.0710 C   0  0  1  0  0  3  0  0  0  0  0  0
  190.1740  176.4420  142.5040 C   0  0  0  0  0  2  0  0  0  0  0  0
  192.6760  174.2080  144.4270 C   0  0  0  0  0  3  0  0  0  0  0  0
  186.2650  177.3150  145.7430 C   0  0  1  0  0  3  0  0  0  0  0  0
  188.1920  176.7180  144.0890 C   0  0  1  0  0  3  0  0  0  0  0  0
  190.6370  175.4980  143.6270 C   0  0  1  0  0  3  0  0  0  0  0  0
  184.4710  178.8240  144.7460 C   0  0  0  0  0  2  0  0  0  0  0  0
  187.3320  177.5030  146.8160 C   0  0  0  0  0  2  0  0  0  0  0  0
  185.0840  178.2550  146.0200 C   0  0  1  0  0  3  0  0  0  0  0  0
  186.3170  177.5410  139.0650 C   0  0  0  0  0  1  0  0  0  0  0  0
  193.7310  174.0010  146.5130 O   0  0  0  0  0  1  0  0  0  0  0  0
  192.7800  176.1890  145.8910 C   0  0  0  0  0  3  0  0  0  0  0  0
  188.4800  176.5310  146.5880 C   0  0  0  0  0  2  0  0  0  0  0  0
  185.5250  179.6370  144.0040 C   0  0  0  0  0  2  0  0  0  0  0  0
  186.8330  177.4200  144.3070 C   0  0  2  0  0  3  0  0  0  0  0  0
  187.4420  176.4970  141.0030 C   0  0  0  0  0  2  0  0  0  0  0  0
  1 26  1  6  0  0  0
  1 27  1  0  0  0  0
  2  1  1  0  0  0  0
  3 17  1  0  0  0  0
  4 24  2  0  0  0  0
  6 28  1  0  0  0  0
  6 11  1  0  0  0  0
  7  2  1  0  0  0  0
  7  3  1  0  0  0  0
  8 11  1  0  0  0  0
  9 18  1  0  0  0  0
  9 15  1  0  0  0  0
 10 25  1  0  0  0  0
 11  2  1  0  0  0  0
 12 24  1  0  0  0  0
 12 23  1  0  0  0  0
 13 10  1  0  0  0  0
 13  4  1  0  0  0  0
 14  3  1  0  0  0  0
 14 18  1  0  0  0  0
 15 12  2  0  0  0  0
 16 21  1  0  0  0  0
 16 20  1  0  0  0  0
 17 27  1  0  0  0  0
 17 10  1  0  0  0  0
 18 13  1  0  0  0  0
 19 21  1  0  0  0  0
 21  5  1  0  0  0  0
 22  6  1  0  0  0  0
 25 20  1  0  0  0  0
 26 19  1  0  0  0  0
 27 16  1  0  0  0  0
 28  7  1  0  0  0  0
M  END
>  <MODEL>
5

>  <REMARK>
 VINA RESULT:      -8.4      2.480      7.435
  Name = 
  0 active torsions:
  status: ('A' for Active; 'I' for Inactive)
                            x       y       z     vdW  Elec       q    Type
                         _______ _______ _______ _____ _____    ______ ____

>  <TORSDO>
F 0

$$$$
=
 OpenBabel11052418073D

 28 33  0  0  1  0  0  0  0  0999 V2000
  186.8460  176.2650  144.3870 C   0  0  1  0  0  3  0  0  0  0  0  0
  186.4330  176.7080  145.8090 C   0  0  1  0  0  3  0  0  0  0  0  0
  188.9550  176.3690  146.1780 C   0  0  2  0  0  3  0  0  0  0  0  0
  192.1340  174.4790  145.0920 C   0  0  0  0  0  3  0  0  0  0  0  0
  187.1320  177.9430  140.4090 N   0  0  0  0  0  1  0  0  0  0  0  0
  186.2970  178.8860  146.9470 C   0  0  1  0  0  3  0  0  0  0  0  0
  187.6300  176.8740  146.7690 C   0  0  1  0  0  3  0  0  0  0  0  0
  184.3410  177.9020  145.8860 O   0  0  0  0  0  1  0  0  0  0  0  0
  192.6240  176.2430  147.4220 C   0  0  0  0  0  2  0  0  0  0  0  0
  190.3110  175.9340  144.2110 C   0  0  1  0  0  3  0  0  0  0  0  0
  185.7260  178.0620  145.7950 C   0  0  2  0  0  3  0  0  0  0  0  0
  194.3400  175.2260  145.9280 C   0  0  0  0  0  0  0  0  0  0  0  0
  191.6000  175.8820  145.0470 C   0  0  1  0  0  3  0  0  0  0  0  0
  190.1420  176.4130  147.1460 C   0  0  0  0  0  2  0  0  0  0  0  0
  193.9840  176.1820  146.7920 C   0  0  0  0  0  3  0  0  0  0  0  0
  188.3140  177.1320  142.3840 C   0  0  1  0  0  3  0  0  0  0  0  0
  189.2970  176.9220  144.7910 C   0  0  1  0  0  3  0  0  0  0  0  0
  191.4990  176.5750  146.4390 C   0  0  1  0  0  3  0  0  0  0  0  0
  185.7720  177.2670  142.3080 C   0  0  0  0  0  2  0  0  0  0  0  0
  189.3330  176.0850  141.9470 C   0  0  0  0  0  2  0  0  0  0  0  0
  187.0510  177.0130  141.5210 C   0  0  1  0  0  3  0  0  0  0  0  0
  185.5100  178.7080  148.2410 C   0  0  0  0  0  1  0  0  0  0  0  0
  195.6550  175.1770  145.4850 O   0  0  0  0  0  1  0  0  0  0  0  0
  193.3900  174.2020  145.4490 C   0  0  0  0  0  3  0  0  0  0  0  0
  190.6150  176.2340  142.7520 C   0  0  0  0  0  2  0  0  0  0  0  0
  185.6540  176.2290  143.4180 C   0  0  0  0  0  2  0  0  0  0  0  0
  188.0440  177.1050  143.9070 C   0  0  2  0  0  3  0  0  0  0  0  0
  187.6960  178.3480  147.1440 C   0  0  0  0  0  2  0  0  0  0  0  0
  1 26  1  6  0  0  0
  1  2  1  0  0  0  0
  2  7  1  0  0  0  0
  3  7  1  0  0  0  0
  3 14  1  0  0  0  0
  4 24  2  0  0  0  0
  5 21  1  0  0  0  0
  6 28  1  0  0  0  0
  6 22  1  0  0  0  0
  7 28  1  0  0  0  0
 10 17  1  0  0  0  0
 10 13  1  0  0  0  0
 11  2  1  0  0  0  0
 11  8  1  0  0  0  0
 11  6  1  0  0  0  0
 12 15  2  0  0  0  0
 13  4  1  0  0  0  0
 13 18  1  0  0  0  0
 15  9  1  0  0  0  0
 16 27  1  0  0  0  0
 17  3  1  0  0  0  0
 18 14  1  0  0  0  0
 18  9  1  0  0  0  0
 19 26  1  0  0  0  0
 20 16  1  0  0  0  0
 20 25  1  0  0  0  0
 21 19  1  0  0  0  0
 21 16  1  0  0  0  0
 23 12  1  0  0  0  0
 24 12  1  0  0  0  0
 25 10  1  0  0  0  0
 27  1  1  0  0  0  0
 27 17  1  0  0  0  0
M  END
>  <MODEL>
6

>  <REMARK>
 VINA RESULT:      -8.4      2.515      6.633
  Name = 
  0 active torsions:
  status: ('A' for Active; 'I' for Inactive)
                            x       y       z     vdW  Elec       q    Type
                         _______ _______ _______ _____ _____    ______ ____

>  <TORSDO>
F 0

$$$$
=
 OpenBabel11052418073D

 28 33  0  0  1  0  0  0  0  0999 V2000
  189.7360  172.9610  143.4240 C   0  0  1  0  0  3  0  0  0  0  0  0
  188.9400  172.9510  142.0990 C   0  0  1  0  0  3  0  0  0  0  0  0
  187.7810  174.9170  143.2840 C   0  0  2  0  0  3  0  0  0  0  0  0
  186.7920  176.5020  146.6560 C   0  0  0  0  0  3  0  0  0  0  0  0
  193.7450  173.8230  144.8050 N   0  0  0  0  0  1  0  0  0  0  0  0
  189.2160  174.0850  139.9320 C   0  0  1  0  0  3  0  0  0  0  0  0
  187.9330  174.1150  141.9830 C   0  0  1  0  0  3  0  0  0  0  0  0
  190.0770  171.8370  140.2900 O   0  0  0  0  0  1  0  0  0  0  0  0
  185.7210  178.0240  144.3490 C   0  0  0  0  0  2  0  0  0  0  0  0
  188.7640  175.6870  145.3670 C   0  0  1  0  0  3  0  0  0  0  0  0
  189.8590  173.0820  140.8870 C   0  0  2  0  0  3  0  0  0  0  0  0
  185.9180  178.8170  146.7030 C   0  0  0  0  0  0  0  0  0  0  0  0
  187.7150  176.8020  145.5100 C   0  0  1  0  0  3  0  0  0  0  0  0
  186.7050  176.0070  143.2380 C   0  0  0  0  0  2  0  0  0  0  0  0
  185.8270  179.0910  145.3980 C   0  0  0  0  0  3  0  0  0  0  0  0
  191.4080  174.5210  144.7250 C   0  0  1  0  0  3  0  0  0  0  0  0
  189.0960  175.4050  143.9010 C   0  0  1  0  0  3  0  0  0  0  0  0
  186.9920  177.1860  144.1850 C   0  0  1  0  0  3  0  0  0  0  0  0
  192.2290  172.4500  143.4910 C   0  0  0  0  0  2  0  0  0  0  0  0
  190.9290  174.7870  146.1480 C   0  0  0  0  0  2  0  0  0  0  0  0
  192.3810  173.3350  144.7210 C   0  0  1  0  0  3  0  0  0  0  0  0
  188.2950  173.4180  138.9160 C   0  0  0  0  0  1  0  0  0  0  0  0
  185.8920  179.8660  147.6130 O   0  0  0  0  0  1  0  0  0  0  0  0
  186.0180  177.4360  147.2150 C   0  0  0  0  0  3  0  0  0  0  0  0
  190.0130  176.0010  146.1740 C   0  0  0  0  0  2  0  0  0  0  0  0
  190.8190  171.8720  143.4620 C   0  0  0  0  0  2  0  0  0  0  0  0
  190.2430  174.3870  143.7160 C   0  0  2  0  0  3  0  0  0  0  0  0
  188.3930  174.9870  140.8240 C   0  0  0  0  0  2  0  0  0  0  0  0
  1 26  1  6  0  0  0
  1 27  1  0  0  0  0
  2  1  1  0  0  0  0
  3 17  1  0  0  0  0
  4 24  2  0  0  0  0
  6 28  1  0  0  0  0
  6 11  1  0  0  0  0
  7  2  1  0  0  0  0
  7  3  1  0  0  0  0
  8 11  1  0  0  0  0
  9 15  1  0  0  0  0
 10 13  1  0  0  0  0
 10 25  1  0  0  0  0
 11  2  1  0  0  0  0
 12 24  1  0  0  0  0
 12 23  1  0  0  0  0
 13  4  1  0  0  0  0
 14  3  1  0  0  0  0
 14 18  1  0  0  0  0
 15 12  2  0  0  0  0
 16 20  1  0  0  0  0
 17 10  1  0  0  0  0
 18  9  1  0  0  0  0
 18 13  1  0  0  0  0
 19 21  1  0  0  0  0
 20 25  1  0  0  0  0
 21 16  1  0  0  0  0
 21  5  1  0  0  0  0
 22  6  1  0  0  0  0
 26 19  1  0  0  0  0
 27 17  1  0  0  0  0
 27 16  1  0  0  0  0
 28  7  1  0  0  0  0
M  END
>  <MODEL>
7

>  <REMARK>
 VINA RESULT:      -8.4      2.614      4.832
  Name = 
  0 active torsions:
  status: ('A' for Active; 'I' for Inactive)
                            x       y       z     vdW  Elec       q    Type
                         _______ _______ _______ _____ _____    ______ ____

>  <TORSDO>
F 0

$$$$
=
 OpenBabel11052418073D

 28 33  0  0  1  0  0  0  0  0999 V2000
  191.0070  173.6500  144.0600 C   0  0  1  0  0  3  0  0  0  0  0  0
  190.4190  172.8060  142.9050 C   0  0  1  0  0  3  0  0  0  0  0  0
  188.7040  174.7220  142.9560 C   0  0  2  0  0  3  0  0  0  0  0  0
  186.9420  177.3980  145.0980 C   0  0  0  0  0  3  0  0  0  0  0  0
  194.5010  176.0700  144.8710 N   0  0  0  0  0  1  0  0  0  0  0  0
  190.7280  172.8020  140.4640 C   0  0  1  0  0  3  0  0  0  0  0  0
  189.2040  173.4690  142.2220 C   0  0  1  0  0  3  0  0  0  0  0  0
  192.0090  171.3050  141.8920 O   0  0  0  0  0  1  0  0  0  0  0  0
  185.8820  177.3050  142.3320 C   0  0  0  0  0  2  0  0  0  0  0  0
  189.2010  176.6130  144.3960 C   0  0  1  0  0  3  0  0  0  0  0  0
  191.4420  172.5790  141.7950 C   0  0  2  0  0  3  0  0  0  0  0  0
  185.5790  179.1420  143.9900 C   0  0  0  0  0  0  0  0  0  0  0  0
  187.9220  177.3470  143.9620 C   0  0  1  0  0  3  0  0  0  0  0  0
  187.4300  175.3380  142.3700 C   0  0  0  0  0  2  0  0  0  0  0  0
  185.6060  178.7290  142.7180 C   0  0  0  0  0  3  0  0  0  0  0  0
  192.1000  176.0130  144.4360 C   0  0  1  0  0  3  0  0  0  0  0  0
  189.7830  175.7650  143.2640 C   0  0  1  0  0  3  0  0  0  0  0  0
  187.3170  176.8530  142.6130 C   0  0  1  0  0  3  0  0  0  0  0  0
  193.5180  173.8980  144.3920 C   0  0  0  0  0  2  0  0  0  0  0  0
  191.3850  176.7870  145.5390 C   0  0  0  0  0  2  0  0  0  0  0  0
  193.3020  175.2650  145.0270 C   0  0  1  0  0  3  0  0  0  0  0  0
  190.1240  171.5210  139.9010 C   0  0  0  0  0  1  0  0  0  0  0  0
  185.1980  180.4480  144.2630 O   0  0  0  0  0  1  0  0  0  0  0  0
  185.9120  178.2480  145.1170 C   0  0  0  0  0  3  0  0  0  0  0  0
  190.2290  177.5830  144.9540 C   0  0  0  0  0  2  0  0  0  0  0  0
  192.2880  173.0320  144.6400 C   0  0  0  0  0  2  0  0  0  0  0  0
  191.1410  175.1180  143.6150 C   0  0  2  0  0  3  0  0  0  0  0  0
  189.6130  173.7710  140.7870 C   0  0  0  0  0  2  0  0  0  0  0  0
  1 26  1  6  0  0  0
  2  1  1  0  0  0  0
  3 17  1  0  0  0  0
  4 24  2  0  0  0  0
  5 21  1  0  0  0  0
  6 28  1  0  0  0  0
  6 11  1  0  0  0  0
  7  2  1  0  0  0  0
  7  3  1  0  0  0  0
  9 18  1  0  0  0  0
  9 15  1  0  0  0  0
 10 25  1  0  0  0  0
 11  8  1  0  0  0  0
 11  2  1  0  0  0  0
 12 23  1  0  0  0  0
 12 24  1  0  0  0  0
 13 10  1  0  0  0  0
 13  4  1  0  0  0  0
 14 18  1  0  0  0  0
 14  3  1  0  0  0  0
 15 12  2  0  0  0  0
 16 21  1  0  0  0  0
 16 20  1  0  0  0  0
 17 27  1  0  0  0  0
 17 10  1  0  0  0  0
 18 13  1  0  0  0  0
 19 26  1  0  0  0  0
 19 21  1  0  0  0  0
 22  6  1  0  0  0  0
 25 20  1  0  0  0  0
 27  1  1  0  0  0  0
 27 16  1  0  0  0  0
 28  7  1  0  0  0  0
M  END
>  <MODEL>
8

>  <REMARK>
 VINA RESULT:      -8.3      2.290      4.468
  Name = 
  0 active torsions:
  status: ('A' for Active; 'I' for Inactive)
                            x       y       z     vdW  Elec       q    Type
                         _______ _______ _______ _____ _____    ______ ____

>  <TORSDO>
F 0

$$$$
=
 OpenBabel11052418073D

 28 33  0  0  1  0  0  0  0  0999 V2000
  187.4390  178.4220  144.1630 C   0  0  1  0  0  3  0  0  0  0  0  0
  187.4270  178.3500  142.6180 C   0  0  1  0  0  3  0  0  0  0  0  0
  189.6880  177.2180  143.0860 C   0  0  2  0  0  3  0  0  0  0  0  0
  192.7030  176.9320  145.4700 C   0  0  0  0  0  3  0  0  0  0  0  0
  185.3060  176.7120  147.5170 N   0  0  0  0  0  1  0  0  0  0  0  0
  186.6360  176.6810  140.9920 C   0  0  1  0  0  3  0  0  0  0  0  0
  188.6280  177.5760  142.0340 C   0  0  1  0  0  3  0  0  0  0  0  0
  185.2290  178.5540  141.6530 O   0  0  0  0  0  1  0  0  0  0  0  0
  193.0560  175.2990  143.0220 C   0  0  0  0  0  2  0  0  0  0  0  0
  190.2200  176.7270  145.4040 C   0  0  1  0  0  3  0  0  0  0  0  0
  186.1840  177.6340  142.0960 C   0  0  2  0  0  3  0  0  0  0  0  0
  194.3400  175.1040  145.1490 C   0  0  0  0  0  0  0  0  0  0  0  0
  191.5570  176.0760  145.0140 C   0  0  1  0  0  3  0  0  0  0  0  0
  190.9460  176.5520  142.5210 C   0  0  0  0  0  2  0  0  0  0  0  0
  193.9010  174.5540  144.0120 C   0  0  0  0  0  3  0  0  0  0  0  0
  187.3770  176.7940  146.2280 C   0  0  1  0  0  3  0  0  0  0  0  0
  189.1490  176.5110  144.3340 C   0  0  1  0  0  3  0  0  0  0  0  0
  191.6470  175.6210  143.5270 C   0  0  1  0  0  3  0  0  0  0  0  0
  185.3150  178.1170  145.5320 C   0  0  0  0  0  2  0  0  0  0  0  0
  188.5360  177.0610  147.1820 C   0  0  0  0  0  2  0  0  0  0  0  0
  186.1380  177.5700  146.6920 C   0  0  1  0  0  3  0  0  0  0  0  0
  186.6050  177.3270  139.6120 C   0  0  0  0  0  1  0  0  0  0  0  0
  195.2160  174.3820  145.9490 O   0  0  0  0  0  1  0  0  0  0  0  0
  193.9500  176.4640  145.5700 C   0  0  0  0  0  3  0  0  0  0  0  0
  189.7530  176.2480  146.7690 C   0  0  0  0  0  2  0  0  0  0  0  0
  186.1720  179.0850  144.7250 C   0  0  0  0  0  2  0  0  0  0  0  0
  187.7550  177.0320  144.7460 C   0  0  2  0  0  3  0  0  0  0  0  0
  188.0670  176.3410  141.3450 C   0  0  0  0  0  2  0  0  0  0  0  0
  1 26  1  1  0  0  0
  1 27  1  0  0  0  0
  2  1  1  0  0  0  0
  3 17  1  0  0  0  0
  4 24  2  0  0  0  0
  6 28  1  0  0  0  0
  6 11  1  0  0  0  0
  7  2  1  0  0  0  0
  7  3  1  0  0  0  0
  8 11  1  0  0  0  0
  9 18  1  0  0  0  0
  9 15  1  0  0  0  0
 10 25  1  0  0  0  0
 11  2  1  0  0  0  0
 12 24  1  0  0  0  0
 12 23  1  0  0  0  0
 13 10  1  0  0  0  0
 13  4  1  0  0  0  0
 14  3  1  0  0  0  0
 14 18  1  0  0  0  0
 15 12  2  0  0  0  0
 16 21  1  0  0  0  0
 16 20  1  0  0  0  0
 17 27  1  0  0  0  0
 17 10  1  0  0  0  0
 18 13  1  0  0  0  0
 19 21  1  0  0  0  0
 21  5  1  0  0  0  0
 22  6  1  0  0  0  0
 25 20  1  0  0  0  0
 26 19  1  0  0  0  0
 27 16  1  0  0  0  0
 28  7  1  0  0  0  0
M  END
>  <MODEL>
9

>  <REMARK>
 VINA RESULT:      -8.2      2.440      7.368
  Name = 
  0 active torsions:
  status: ('A' for Active; 'I' for Inactive)
                            x       y       z     vdW  Elec       q    Type
                         _______ _______ _______ _____ _____    ______ ____

>  <TORSDO>
F 0

$$$$
