=
 OpenBabel11052419243D

 55 61  0  0  1  0  0  0  0  0999 V2000
  186.2500  177.6940  146.8250 C   0  0  0  0  0  2  0  0  0  0  0  0
  183.9400  178.1710  147.2230 O   0  0  0  0  0  1  0  0  0  0  0  0
  186.2450  178.6530  144.6920 C   0  0  1  0  0  3  0  0  0  0  0  0
  184.9950  179.1880  145.3370 C   0  0  0  0  0  2  0  0  0  0  0  0
  185.1370  178.7430  146.7940 C   0  0  2  0  0  3  0  0  0  0  0  0
  186.4470  177.3380  145.3710 C   0  0  1  0  0  3  0  0  0  0  0  0
  187.4580  177.9930  142.7660 C   0  0  1  0  0  3  0  0  0  0  0  0
  186.1330  178.4120  143.2650 N   0  0  0  0  0  2  0  0  0  0  0  0
  187.7820  176.7790  144.9540 C   0  0  0  0  0  0  0  0  0  0  0  0
  188.2330  177.0570  143.7070 C   0  0  0  0  0  0  0  0  0  0  0  0
  186.6200  178.0580  140.4340 N   0  0  0  0  0  0  0  0  0  0  0  0
  187.0130  176.2870  138.8720 C   0  0  0  0  0  0  0  0  0  0  0  0
  187.8750  176.1500  141.1300 C   0  0  0  0  0  3  0  0  0  0  0  0
  187.7250  175.5970  139.8590 C   0  0  0  0  0  3  0  0  0  0  0  0
  186.4620  177.5350  139.1880 C   0  0  0  0  0  3  0  0  0  0  0  0
  187.3110  177.3980  141.4030 C   0  0  0  0  0  0  0  0  0  0  0  0
  186.8490  175.7070  137.5290 C   0  0  0  0  0  0  0  0  0  0  0  0
  185.6740  175.9160  136.8160 O   0  0  0  0  0  0  0  0  0  0  0  0
  187.7690  175.0180  137.0140 O   0  0  0  0  0  1  0  0  0  0  0  0
  189.8670  177.4570  146.8830 O   0  0  0  0  0  0  0  0  0  0  0  0
  188.5160  175.8810  145.8020 N   0  0  0  0  0  2  0  0  0  0  0  0
  189.6390  176.2490  146.6110 C   0  0  0  0  0  0  0  0  0  0  0  0
  190.5260  175.1930  147.1770 C   0  0  0  0  0  2  0  0  0  0  0  0
  191.0510  174.2800  146.0850 C   0  0  0  0  0  2  0  0  0  0  0  0
  189.9060  173.5020  145.4710 C   0  0  0  0  0  2  0  0  0  0  0  0
  190.4520  172.5100  144.4640 C   0  0  0  0  0  2  0  0  0  0  0  0
  190.0300  172.9080  143.0550 C   0  0  0  0  0  2  0  0  0  0  0  0
  192.7820  174.6680  137.6170 C   0  0  0  0  0  0  0  0  0  0  0  0
  188.7270  172.1510  136.9550 F   0  0  0  0  0  0  0  0  0  0  0  0
  189.7980  172.3020  139.0570 C   0  0  0  0  0  0  0  0  0  0  0  0
  190.8580  173.8110  140.8100 C   0  0  0  0  0  2  0  0  0  0  0  0
  191.1540  172.9200  142.0090 C   0  0  2  0  0  3  0  0  0  0  0  0
  190.4460  170.7710  137.4060 F   0  0  0  0  0  0  0  0  0  0  0  0
  189.9600  172.0550  137.5790 C   0  0  0  0  0  0  0  0  0  0  0  0
  191.0180  172.6050  139.8970 C   0  0  1  0  0  0  0  0  0  0  0  0
  193.7200  174.9970  138.3920 O   0  0  0  0  0  1  0  0  0  0  0  0
  191.2000  171.6960  141.1010 C   0  0  0  0  0  2  0  0  0  0  0  0
  192.4730  175.4910  136.5420 O   0  0  0  0  0  0  0  0  0  0  0  0
  190.9250  173.0990  136.9550 C   0  0  1  0  0  3  0  0  0  0  0  0
  192.2920  172.6870  139.0600 C   0  0  0  0  0  2  0  0  0  0  0  0
  188.6930  172.2220  139.5710 O   0  0  0  0  0  0  0  0  0  0  0  0
  192.0370  173.4650  137.8490 N   0  0  0  0  0  0  0  0  0  0  0  0
  191.4480  172.7410  135.5550 C   0  0  1  0  0  3  0  0  0  0  0  0
  192.1340  171.5240  135.5640 O   0  0  0  0  0  1  0  0  0  0  0  0
  190.3350  172.7190  134.5210 C   0  0  0  0  0  2  0  0  0  0  0  0
  189.6700  173.9470  134.5140 O   0  0  0  0  0  1  0  0  0  0  0  0
  189.5440  176.5100  143.2280 C   0  0  0  0  0  2  0  0  0  0  0  0
  190.6050  177.5980  143.2040 C   0  0  0  0  0  2  0  0  0  0  0  0
  192.5780  177.3570  144.8350 C   0  0  0  0  0  3  0  0  0  0  0  0
  193.9160  175.6090  142.8050 C   0  0  2  0  0  3  0  0  0  0  0  0
  192.5300  176.1940  142.6090 C   0  0  0  0  0  3  0  0  0  0  0  0
  193.7210  176.7660  145.1990 C   0  0  0  0  0  3  0  0  0  0  0  0
  191.9350  177.0110  143.5210 C   0  0  0  0  0  0  0  0  0  0  0  0
  193.9390  174.5070  143.6170 C   0  0  0  0  0  2  0  0  0  0  0  0
  194.1890  175.8410  144.2430 N   0  0  0  0  0  0  0  0  0  0  0  0
  3  4  1  1  0  0  0
  3  6  1  0  0  0  0
  4  5  1  0  0  0  0
  5  1  1  0  0  0  0
  5  2  1  6  0  0  0
  6  1  1  1  0  0  0
  7 16  1  6  0  0  0
  7  8  1  0  0  0  0
  7 10  1  0  0  0  0
  8  3  1  0  0  0  0
  9  6  1  0  0  0  0
  9 21  1  0  0  0  0
 10  9  2  0  0  0  0
 11 16  1  0  0  0  0
 12 15  1  0  0  0  0
 12 14  2  0  0  0  0
 13 16  2  0  0  0  0
 14 13  1  0  0  0  0
 15 11  2  0  0  0  0
 17 12  1  0  0  0  0
 18 17  2  0  0  0  0
 19 17  1  0  0  0  0
 21 22  1  0  0  0  0
 22 20  2  0  0  0  0
 22 23  1  0  0  0  0
 24 23  1  0  0  0  0
 25 24  1  0  0  0  0
 26 25  1  0  0  0  0
 27 26  1  0  0  0  0
 28 42  1  0  0  0  0
 28 36  1  0  0  0  0
 29 34  1  0  0  0  0
 30 41  2  0  0  0  0
 30 35  1  0  0  0  0
 31 32  1  0  0  0  0
 32 27  1  1  0  0  0
 33 34  1  0  0  0  0
 34 30  1  0  0  0  0
 35 40  1  6  0  0  0
 35 31  1  0  0  0  0
 35 37  1  0  0  0  0
 37 32  1  0  0  0  0
 38 28  2  0  0  0  0
 39 43  1  6  0  0  0
 39 34  1  0  0  0  0
 39 42  1  0  0  0  0
 42 40  1  0  0  0  0
 43 44  1  1  0  0  0
 45 43  1  0  0  0  0
 46 45  1  0  0  0  0
 47 10  1  0  0  0  0
 48 47  1  0  0  0  0
 48 53  1  0  0  0  0
 49 52  2  0  0  0  0
 50 51  1  1  0  0  0
 50 54  1  0  0  0  0
 50 55  1  0  0  0  0
 51 53  2  0  0  0  0
 53 49  1  0  0  0  0
 54 55  1  0  0  0  0
 55 52  1  0  0  0  0
M  END
>  <MODEL>
1

>  <REMARK>
 VINA RESULT:      -7.3      0.000      0.000
  Name = 
  14 active torsions:
  status: ('A' for Active; 'I' for Inactive)
    1  A    between atoms: C_2  and  C_28
    2  A    between atoms: C_2  and  C_44
    3  A    between atoms: C_4  and  C_35
    4  A    between atoms: C_4  and  C_37
    5  A    between atoms: C_8  and  C_51
    6  A    between atoms: C_10  and  C_32
    7  A    between atoms: C_11  and  C_29
    8  A    between atoms: N_19  and  C_45
    9  A    between atoms: C_28  and  C_49
   10  A    between atoms: C_29  and  C_38
   11  A    between atoms: C_33  and  C_52
   12  A    between atoms: C_35  and  C_43
   13  A    between atoms: C_37  and  C_40
   14  A    between atoms: C_43  and  C_51
                            x       y       z     vdW  Elec       q    Type
                         _______ _______ _______ _____ _____    ______ ____

>  <TORSDO>
F 14

$$$$
=
 OpenBabel11052419243D

 55 61  0  0  1  0  0  0  0  0999 V2000
  185.8590  177.5460  143.2810 C   0  0  0  0  0  2  0  0  0  0  0  0
  183.7750  178.0330  142.2150 O   0  0  0  0  0  1  0  0  0  0  0  0
  186.9610  177.0790  141.2710 C   0  0  1  0  0  3  0  0  0  0  0  0
  185.7210  177.8180  140.8460 C   0  0  0  0  0  2  0  0  0  0  0  0
  185.1400  178.3150  142.1720 C   0  0  2  0  0  3  0  0  0  0  0  0
  186.5500  176.4210  142.5480 C   0  0  1  0  0  3  0  0  0  0  0  0
  188.6680  175.4910  140.8500 C   0  0  1  0  0  3  0  0  0  0  0  0
  187.3950  176.0450  140.3490 N   0  0  0  0  0  2  0  0  0  0  0  0
  187.7640  175.8010  143.1850 C   0  0  0  0  0  0  0  0  0  0  0  0
  188.7410  175.3250  142.3760 C   0  0  0  0  0  0  0  0  0  0  0  0
  190.1290  174.0450  139.4630 N   0  0  0  0  0  0  0  0  0  0  0  0
  189.5070  171.8270  138.8150 C   0  0  0  0  0  0  0  0  0  0  0  0
  188.0260  173.1700  140.1800 C   0  0  0  0  0  3  0  0  0  0  0  0
  188.3030  171.9780  139.5110 C   0  0  0  0  0  3  0  0  0  0  0  0
  190.4170  172.8900  138.8050 C   0  0  0  0  0  3  0  0  0  0  0  0
  188.9620  174.2050  140.1460 C   0  0  0  0  0  0  0  0  0  0  0  0
  189.8030  170.5710  138.1060 C   0  0  0  0  0  0  0  0  0  0  0  0
  189.7940  170.5340  136.7150 O   0  0  0  0  0  0  0  0  0  0  0  0
  190.0680  169.5210  138.7490 O   0  0  0  0  0  1  0  0  0  0  0  0
  188.7740  177.6810  145.1780 O   0  0  0  0  0  0  0  0  0  0  0  0
  187.8490  175.6090  144.6060 N   0  0  0  0  0  2  0  0  0  0  0  0
  188.5020  176.4990  145.5180 C   0  0  0  0  0  0  0  0  0  0  0  0
  188.8250  176.0450  146.9000 C   0  0  0  0  0  2  0  0  0  0  0  0
  189.7590  174.8500  146.8750 C   0  0  0  0  0  2  0  0  0  0  0  0
  190.9940  175.1460  147.7010 C   0  0  0  0  0  2  0  0  0  0  0  0
  191.5320  176.5150  147.3340 C   0  0  0  0  0  2  0  0  0  0  0  0
  192.9990  176.4130  146.9400 C   0  0  0  0  0  2  0  0  0  0  0  0
  194.2810  174.1770  141.1420 C   0  0  0  0  0  0  0  0  0  0  0  0
  197.7800  173.2780  144.3310 F   0  0  0  0  0  0  0  0  0  0  0  0
  196.0120  174.7830  144.7780 C   0  0  0  0  0  0  0  0  0  0  0  0
  193.5020  175.1970  144.7460 C   0  0  0  0  0  2  0  0  0  0  0  0
  193.2880  176.5380  145.4360 C   0  0  2  0  0  3  0  0  0  0  0  0
  197.9280  175.3920  143.5750 F   0  0  0  0  0  0  0  0  0  0  0  0
  197.0630  174.3340  143.7950 C   0  0  0  0  0  0  0  0  0  0  0  0
  194.8800  175.6650  144.3040 C   0  0  1  0  0  0  0  0  0  0  0  0
  193.2620  174.8530  140.8390 O   0  0  0  0  0  1  0  0  0  0  0  0
  194.7120  176.9560  145.0880 C   0  0  0  0  0  2  0  0  0  0  0  0
  194.4700  172.9350  140.5520 O   0  0  0  0  0  0  0  0  0  0  0  0
  196.4040  173.8750  142.4660 C   0  0  1  0  0  3  0  0  0  0  0  0
  194.9400  175.9280  142.8020 C   0  0  0  0  0  2  0  0  0  0  0  0
  196.0990  174.4600  145.9530 O   0  0  0  0  0  0  0  0  0  0  0  0
  195.2290  174.6810  142.0940 N   0  0  0  0  0  0  0  0  0  0  0  0
  197.3700  173.7420  141.2770 C   0  0  1  0  0  3  0  0  0  0  0  0
  197.3210  172.4610  140.7230 O   0  0  0  0  0  1  0  0  0  0  0  0
  197.1100  174.7950  140.2140 C   0  0  0  0  0  2  0  0  0  0  0  0
  197.8910  175.9250  140.4640 O   0  0  0  0  0  1  0  0  0  0  0  0
  189.9650  174.6760  142.9530 C   0  0  0  0  0  2  0  0  0  0  0  0
  189.6190  173.3330  143.5750 C   0  0  0  0  0  2  0  0  0  0  0  0
  190.9460  171.7100  142.0870 C   0  0  0  0  0  3  0  0  0  0  0  0
  192.7370  171.1820  144.4270 C   0  0  2  0  0  3  0  0  0  0  0  0
  191.5920  172.1760  144.4690 C   0  0  0  0  0  3  0  0  0  0  0  0
  192.0200  170.9440  141.8700 C   0  0  0  0  0  3  0  0  0  0  0  0
  190.7620  172.3940  143.4120 C   0  0  0  0  0  0  0  0  0  0  0  0
  193.8610  171.6610  143.8070 C   0  0  0  0  0  2  0  0  0  0  0  0
  192.8850  170.8840  142.9830 N   0  0  0  0  0  0  0  0  0  0  0  0
  3  4  1  6  0  0  0
  3  6  1  0  0  0  0
  4  5  1  0  0  0  0
  5  2  1  6  0  0  0
  5  1  1  0  0  0  0
  6  9  1  0  0  0  0
  6  1  1  1  0  0  0
  7 16  1  6  0  0  0
  7 10  1  0  0  0  0
  8  7  1  0  0  0  0
  8  3  1  0  0  0  0
  9 21  1  0  0  0  0
 10 47  1  0  0  0  0
 10  9  2  0  0  0  0
 11 16  1  0  0  0  0
 12 14  2  0  0  0  0
 14 13  1  0  0  0  0
 15 12  1  0  0  0  0
 15 11  2  0  0  0  0
 16 13  2  0  0  0  0
 17 19  1  0  0  0  0
 17 12  1  0  0  0  0
 18 17  2  0  0  0  0
 20 22  2  0  0  0  0
 21 22  1  0  0  0  0
 22 23  1  0  0  0  0
 24 23  1  0  0  0  0
 24 25  1  0  0  0  0
 26 25  1  0  0  0  0
 27 26  1  0  0  0  0
 28 42  1  0  0  0  0
 30 41  2  0  0  0  0
 31 32  1  0  0  0  0
 32 27  1  1  0  0  0
 33 34  1  0  0  0  0
 34 29  1  0  0  0  0
 34 30  1  0  0  0  0
 35 40  1  6  0  0  0
 35 31  1  0  0  0  0
 35 30  1  0  0  0  0
 35 37  1  0  0  0  0
 36 28  1  0  0  0  0
 37 32  1  0  0  0  0
 38 28  2  0  0  0  0
 39 43  1  6  0  0  0
 39 34  1  0  0  0  0
 42 39  1  0  0  0  0
 42 40  1  0  0  0  0
 43 44  1  6  0  0  0
 45 46  1  0  0  0  0
 45 43  1  0  0  0  0
 47 48  1  0  0  0  0
 49 53  1  0  0  0  0
 50 54  1  6  0  0  0
 50 51  1  0  0  0  0
 52 49  2  0  0  0  0
 52 55  1  0  0  0  0
 53 48  1  0  0  0  0
 53 51  2  0  0  0  0
 55 54  1  0  0  0  0
 55 50  1  0  0  0  0
M  END
>  <MODEL>
2

>  <REMARK>
 VINA RESULT:      -7.1      3.290      5.807
  Name = 
  14 active torsions:
  status: ('A' for Active; 'I' for Inactive)
    1  A    between atoms: C_2  and  C_28
    2  A    between atoms: C_2  and  C_44
    3  A    between atoms: C_4  and  C_35
    4  A    between atoms: C_4  and  C_37
    5  A    between atoms: C_8  and  C_51
    6  A    between atoms: C_10  and  C_32
    7  A    between atoms: C_11  and  C_29
    8  A    between atoms: N_19  and  C_45
    9  A    between atoms: C_28  and  C_49
   10  A    between atoms: C_29  and  C_38
   11  A    between atoms: C_33  and  C_52
   12  A    between atoms: C_35  and  C_43
   13  A    between atoms: C_37  and  C_40
   14  A    between atoms: C_43  and  C_51
                            x       y       z     vdW  Elec       q    Type
                         _______ _______ _______ _____ _____    ______ ____

>  <TORSDO>
F 14

$$$$
=
 OpenBabel11052419243D

 55 61  0  0  1  0  0  0  0  0999 V2000
  193.3100  171.7060  143.4770 C   0  0  0  0  0  2  0  0  0  0  0  0
  194.0090  170.2790  145.2650 O   0  0  0  0  0  1  0  0  0  0  0  0
  192.9990  173.5620  144.8680 C   0  0  1  0  0  3  0  0  0  0  0  0
  193.8390  172.6240  145.6910 C   0  0  0  0  0  2  0  0  0  0  0  0
  194.2260  171.5320  144.6910 C   0  0  2  0  0  3  0  0  0  0  0  0
  192.2340  172.6430  143.9720 C   0  0  1  0  0  3  0  0  0  0  0  0
  191.3790  175.2820  144.7030 C   0  0  1  0  0  3  0  0  0  0  0  0
  192.0450  174.3470  145.6300 N   0  0  0  0  0  2  0  0  0  0  0  0
  191.4910  173.4670  142.9550 C   0  0  0  0  0  0  0  0  0  0  0  0
  191.0530  174.6960  143.3210 C   0  0  0  0  0  0  0  0  0  0  0  0
  189.8450  177.1630  145.2090 N   0  0  0  0  0  0  0  0  0  0  0  0
  187.9060  176.9110  146.5910 C   0  0  0  0  0  0  0  0  0  0  0  0
  189.3480  175.0200  146.1370 C   0  0  0  0  0  3  0  0  0  0  0  0
  188.2180  175.5570  146.7530 C   0  0  0  0  0  3  0  0  0  0  0  0
  188.7470  177.7060  145.8030 C   0  0  0  0  0  3  0  0  0  0  0  0
  190.1590  175.8470  145.3580 C   0  0  0  0  0  0  0  0  0  0  0  0
  186.7160  177.4840  147.2410 C   0  0  0  0  0  0  0  0  0  0  0  0
  185.4600  176.9360  147.0080 O   0  0  0  0  0  0  0  0  0  0  0  0
  186.8240  178.4740  148.0120 O   0  0  0  0  0  1  0  0  0  0  0  0
  189.7350  171.2090  142.3670 O   0  0  0  0  0  0  0  0  0  0  0  0
  191.1500  172.9350  141.6650 N   0  0  0  0  0  2  0  0  0  0  0  0
  190.4140  171.7270  141.4430 C   0  0  0  0  0  0  0  0  0  0  0  0
  190.4110  171.0950  140.0930 C   0  0  0  0  0  2  0  0  0  0  0  0
  190.1010  172.1150  139.0140 C   0  0  0  0  0  2  0  0  0  0  0  0
  190.9440  171.8390  137.7870 C   0  0  0  0  0  2  0  0  0  0  0  0
  192.2740  171.2470  138.2100 C   0  0  0  0  0  2  0  0  0  0  0  0
  193.3770  171.7100  137.2670 C   0  0  0  0  0  2  0  0  0  0  0  0
  197.2450  172.6490  142.2070 C   0  0  0  0  0  0  0  0  0  0  0  0
  193.6510  175.8510  141.9860 F   0  0  0  0  0  0  0  0  0  0  0  0
  194.1660  174.3950  140.1950 C   0  0  0  0  0  0  0  0  0  0  0  0
  194.6630  172.0120  139.4570 C   0  0  0  0  0  2  0  0  0  0  0  0
  194.7180  172.0450  137.9360 C   0  0  2  0  0  3  0  0  0  0  0  0
  195.2970  176.4140  140.5580 F   0  0  0  0  0  0  0  0  0  0  0  0
  194.6980  175.3590  141.2250 C   0  0  0  0  0  0  0  0  0  0  0  0
  195.1210  173.4620  139.4870 C   0  0  1  0  0  0  0  0  0  0  0  0
  197.9410  171.7840  141.6120 O   0  0  0  0  0  0  0  0  0  0  0  0
  195.0660  173.5290  137.9700 C   0  0  0  0  0  2  0  0  0  0  0  0
  197.1520  172.6070  143.5920 O   0  0  0  0  0  1  0  0  0  0  0  0
  195.7140  174.6490  142.1600 C   0  0  1  0  0  3  0  0  0  0  0  0
  196.5520  173.5990  140.0000 C   0  0  0  0  0  2  0  0  0  0  0  0
  192.9770  174.3970  139.9160 O   0  0  0  0  0  0  0  0  0  0  0  0
  196.5480  173.6570  141.4620 N   0  0  0  0  0  0  0  0  0  0  0  0
  196.5850  175.5940  143.0040 C   0  0  1  0  0  3  0  0  0  0  0  0
  196.8310  176.7940  142.3330 O   0  0  0  0  0  1  0  0  0  0  0  0
  195.9740  175.8610  144.3700 C   0  0  0  0  0  2  0  0  0  0  0  0
  195.6770  177.2200  144.4990 O   0  0  0  0  0  1  0  0  0  0  0  0
  190.2870  175.5540  142.3580 C   0  0  0  0  0  2  0  0  0  0  0  0
  188.8440  175.0890  142.2530 C   0  0  0  0  0  2  0  0  0  0  0  0
  188.3620  177.6030  142.0090 C   0  0  0  0  0  3  0  0  0  0  0  0
  185.7690  177.1440  143.4350 C   0  0  2  0  0  3  0  0  0  0  0  0
  186.7370  176.0260  143.0970 C   0  0  0  0  0  3  0  0  0  0  0  0
  187.5220  178.6400  142.0940 C   0  0  0  0  0  3  0  0  0  0  0  0
  187.9270  176.2410  142.4730 C   0  0  0  0  0  0  0  0  0  0  0  0
  184.9970  177.5450  142.3770 C   0  0  0  0  0  2  0  0  0  0  0  0
  186.2680  178.2880  142.6360 N   0  0  0  0  0  0  0  0  0  0  0  0
  1  5  1  0  0  0  0
  3  8  1  0  0  0  0
  3  4  1  1  0  0  0
  5  2  1  1  0  0  0
  5  4  1  0  0  0  0
  6  1  1  6  0  0  0
  6  3  1  0  0  0  0
  7 16  1  1  0  0  0
  7  8  1  0  0  0  0
  9 10  2  0  0  0  0
  9  6  1  0  0  0  0
 10  7  1  0  0  0  0
 11 16  2  0  0  0  0
 11 15  1  0  0  0  0
 12 14  1  0  0  0  0
 12 17  1  0  0  0  0
 13 14  2  0  0  0  0
 15 12  2  0  0  0  0
 16 13  1  0  0  0  0
 17 19  1  0  0  0  0
 18 17  2  0  0  0  0
 21  9  1  0  0  0  0
 22 21  1  0  0  0  0
 22 20  2  0  0  0  0
 23 22  1  0  0  0  0
 24 23  1  0  0  0  0
 25 26  1  0  0  0  0
 25 24  1  0  0  0  0
 27 26  1  0  0  0  0
 28 38  1  0  0  0  0
 30 34  1  0  0  0  0
 31 35  1  0  0  0  0
 32 27  1  6  0  0  0
 32 37  1  0  0  0  0
 32 31  1  0  0  0  0
 33 34  1  0  0  0  0
 34 29  1  0  0  0  0
 34 39  1  0  0  0  0
 35 37  1  6  0  0  0
 35 40  1  0  0  0  0
 35 30  1  0  0  0  0
 36 28  2  0  0  0  0
 39 43  1  6  0  0  0
 40 42  1  0  0  0  0
 41 30  2  0  0  0  0
 42 39  1  0  0  0  0
 42 28  1  0  0  0  0
 43 44  1  6  0  0  0
 43 45  1  0  0  0  0
 45 46  1  0  0  0  0
 47 10  1  0  0  0  0
 48 47  1  0  0  0  0
 48 53  1  0  0  0  0
 49 52  2  0  0  0  0
 49 53  1  0  0  0  0
 50 54  1  6  0  0  0
 51 50  1  0  0  0  0
 52 55  1  0  0  0  0
 53 51  2  0  0  0  0
 54 55  1  0  0  0  0
 55 50  1  0  0  0  0
M  END
>  <MODEL>
3

>  <REMARK>
 VINA RESULT:      -7.1      3.285      7.639
  Name = 
  14 active torsions:
  status: ('A' for Active; 'I' for Inactive)
    1  A    between atoms: C_2  and  C_28
    2  A    between atoms: C_2  and  C_44
    3  A    between atoms: C_4  and  C_35
    4  A    between atoms: C_4  and  C_37
    5  A    between atoms: C_8  and  C_51
    6  A    between atoms: C_10  and  C_32
    7  A    between atoms: C_11  and  C_29
    8  A    between atoms: N_19  and  C_45
    9  A    between atoms: C_28  and  C_49
   10  A    between atoms: C_29  and  C_38
   11  A    between atoms: C_33  and  C_52
   12  A    between atoms: C_35  and  C_43
   13  A    between atoms: C_37  and  C_40
   14  A    between atoms: C_43  and  C_51
                            x       y       z     vdW  Elec       q    Type
                         _______ _______ _______ _____ _____    ______ ____

>  <TORSDO>
F 14

$$$$
=
 OpenBabel11052419243D

 55 61  0  0  1  0  0  0  0  0999 V2000
  188.8520  173.0570  143.3560 C   0  0  0  0  0  2  0  0  0  0  0  0
  189.9530  172.7880  145.4620 O   0  0  0  0  0  1  0  0  0  0  0  0
  190.6080  172.1060  142.1360 C   0  0  1  0  0  3  0  0  0  0  0  0
  190.8770  171.6840  143.5560 C   0  0  0  0  0  2  0  0  0  0  0  0
  189.6060  172.1110  144.2940 C   0  0  2  0  0  3  0  0  0  0  0  0
  189.8720  173.3970  142.2940 C   0  0  1  0  0  3  0  0  0  0  0  0
  191.3740  172.6580  139.9640 C   0  0  1  0  0  3  0  0  0  0  0  0
  191.7980  172.3590  141.3450 N   0  0  0  0  0  2  0  0  0  0  0  0
  189.3690  173.8340  140.9450 C   0  0  0  0  0  0  0  0  0  0  0  0
  190.1060  173.5190  139.8520 C   0  0  0  0  0  0  0  0  0  0  0  0
  193.0670  174.4390  139.6330 N   0  0  0  0  0  0  0  0  0  0  0  0
  194.6210  174.4190  137.8120 C   0  0  0  0  0  0  0  0  0  0  0  0
  193.0040  172.6350  138.0690 C   0  0  0  0  0  3  0  0  0  0  0  0
  194.0620  173.2160  137.3690 C   0  0  0  0  0  3  0  0  0  0  0  0
  194.0990  175.0200  138.9640 C   0  0  0  0  0  3  0  0  0  0  0  0
  192.5150  173.2670  139.2140 C   0  0  0  0  0  0  0  0  0  0  0  0
  195.7360  175.0370  137.0760 C   0  0  0  0  0  0  0  0  0  0  0  0
  197.0490  174.8120  137.4760 O   0  0  0  0  0  1  0  0  0  0  0  0
  195.5130  175.7750  136.0790 O   0  0  0  0  0  0  0  0  0  0  0  0
  189.0950  176.6550  141.6510 O   0  0  0  0  0  0  0  0  0  0  0  0
  188.2020  174.6610  140.8130 N   0  0  0  0  0  2  0  0  0  0  0  0
  188.0750  175.9920  141.3240 C   0  0  0  0  0  0  0  0  0  0  0  0
  186.7300  176.6240  141.4330 C   0  0  0  0  0  2  0  0  0  0  0  0
  186.0810  176.2980  142.7650 C   0  0  0  0  0  2  0  0  0  0  0  0
  185.9430  177.5580  143.5930 C   0  0  0  0  0  2  0  0  0  0  0  0
  185.5570  177.1920  145.0120 C   0  0  0  0  0  2  0  0  0  0  0  0
  186.7950  176.7950  145.8050 C   0  0  0  0  0  2  0  0  0  0  0  0
  192.5810  175.7210  143.4370 C   0  0  0  0  0  0  0  0  0  0  0  0
  192.2000  174.5540  148.0960 F   0  0  0  0  0  0  0  0  0  0  0  0
  190.5500  175.8130  146.9640 C   0  0  0  0  0  0  0  0  0  0  0  0
  189.0650  176.0270  144.9100 C   0  0  0  0  0  2  0  0  0  0  0  0
  188.1380  177.2040  145.1820 C   0  0  2  0  0  3  0  0  0  0  0  0
  192.4890  176.7730  147.8610 F   0  0  0  0  0  0  0  0  0  0  0  0
  192.0200  175.6280  147.2410 C   0  0  0  0  0  0  0  0  0  0  0  0
  190.1160  176.6720  145.7990 C   0  0  1  0  0  0  0  0  0  0  0  0
  192.1140  176.3570  142.4540 O   0  0  0  0  0  0  0  0  0  0  0  0
  189.1500  177.7890  146.1610 C   0  0  0  0  0  2  0  0  0  0  0  0
  193.3950  174.6200  143.2050 O   0  0  0  0  0  1  0  0  0  0  0  0
  192.7920  175.3590  145.9210 C   0  0  1  0  0  3  0  0  0  0  0  0
  191.3000  177.1990  144.9940 C   0  0  0  0  0  2  0  0  0  0  0  0
  189.7210  175.2970  147.6980 O   0  0  0  0  0  0  0  0  0  0  0  0
  192.2660  176.1220  144.7770 N   0  0  0  0  0  0  0  0  0  0  0  0
  194.3190  175.5140  146.0220 C   0  0  1  0  0  3  0  0  0  0  0  0
  194.9750  174.3490  145.6180 O   0  0  0  0  0  1  0  0  0  0  0  0
  194.8220  176.7120  145.2350 C   0  0  0  0  0  2  0  0  0  0  0  0
  194.8760  177.8350  146.0630 O   0  0  0  0  0  1  0  0  0  0  0  0
  189.6670  173.9480  138.4840 C   0  0  0  0  0  2  0  0  0  0  0  0
  188.9760  172.8060  137.7580 C   0  0  0  0  0  2  0  0  0  0  0  0
  190.2630  173.5170  135.6490 C   0  0  0  0  0  3  0  0  0  0  0  0
  190.7110  170.6150  135.0630 C   0  0  2  0  0  3  0  0  0  0  0  0
  189.9880  171.1070  136.3020 C   0  0  0  0  0  3  0  0  0  0  0  0
  191.0610  173.2200  134.6180 C   0  0  0  0  0  3  0  0  0  0  0  0
  189.7620  172.4250  136.5530 C   0  0  0  0  0  0  0  0  0  0  0  0
  192.0750  170.7020  135.1490 C   0  0  0  0  0  2  0  0  0  0  0  0
  191.3400  171.8420  134.5190 N   0  0  0  0  0  0  0  0  0  0  0  0
  1  5  1  0  0  0  0
  3  6  1  0  0  0  0
  3  4  1  1  0  0  0
  4  5  1  0  0  0  0
  5  2  1  1  0  0  0
  6  1  1  1  0  0  0
  7 16  1  1  0  0  0
  7  8  1  0  0  0  0
  8  3  1  0  0  0  0
  9  6  1  0  0  0  0
 10  7  1  0  0  0  0
 10  9  2  0  0  0  0
 12 15  1  0  0  0  0
 13 16  2  0  0  0  0
 14 12  2  0  0  0  0
 14 13  1  0  0  0  0
 15 11  2  0  0  0  0
 16 11  1  0  0  0  0
 17 18  1  0  0  0  0
 17 12  1  0  0  0  0
 19 17  2  0  0  0  0
 21  9  1  0  0  0  0
 21 22  1  0  0  0  0
 22 23  1  0  0  0  0
 22 20  2  0  0  0  0
 23 24  1  0  0  0  0
 24 25  1  0  0  0  0
 25 26  1  0  0  0  0
 26 27  1  0  0  0  0
 28 42  1  0  0  0  0
 30 34  1  0  0  0  0
 30 41  2  0  0  0  0
 31 32  1  0  0  0  0
 32 27  1  1  0  0  0
 32 37  1  0  0  0  0
 34 33  1  0  0  0  0
 34 29  1  0  0  0  0
 35 31  1  6  0  0  0
 35 37  1  0  0  0  0
 35 30  1  0  0  0  0
 36 28  2  0  0  0  0
 38 28  1  0  0  0  0
 39 43  1  1  0  0  0
 39 34  1  0  0  0  0
 40 35  1  0  0  0  0
 42 40  1  0  0  0  0
 42 39  1  0  0  0  0
 43 44  1  6  0  0  0
 45 43  1  0  0  0  0
 45 46  1  0  0  0  0
 47 10  1  0  0  0  0
 48 47  1  0  0  0  0
 49 53  1  0  0  0  0
 50 54  1  1  0  0  0
 50 51  1  0  0  0  0
 51 53  2  0  0  0  0
 52 49  2  0  0  0  0
 53 48  1  0  0  0  0
 55 52  1  0  0  0  0
 55 50  1  0  0  0  0
 55 54  1  0  0  0  0
M  END
>  <MODEL>
4

>  <REMARK>
 VINA RESULT:      -6.9      3.442      8.346
  Name = 
  14 active torsions:
  status: ('A' for Active; 'I' for Inactive)
    1  A    between atoms: C_2  and  C_28
    2  A    between atoms: C_2  and  C_44
    3  A    between atoms: C_4  and  C_35
    4  A    between atoms: C_4  and  C_37
    5  A    between atoms: C_8  and  C_51
    6  A    between atoms: C_10  and  C_32
    7  A    between atoms: C_11  and  C_29
    8  A    between atoms: N_19  and  C_45
    9  A    between atoms: C_28  and  C_49
   10  A    between atoms: C_29  and  C_38
   11  A    between atoms: C_33  and  C_52
   12  A    between atoms: C_35  and  C_43
   13  A    between atoms: C_37  and  C_40
   14  A    between atoms: C_43  and  C_51
                            x       y       z     vdW  Elec       q    Type
                         _______ _______ _______ _____ _____    ______ ____

>  <TORSDO>
F 14

$$$$
=
 OpenBabel11052419243D

 55 61  0  0  1  0  0  0  0  0999 V2000
  189.8310  171.3470  138.6600 C   0  0  0  0  0  2  0  0  0  0  0  0
  189.7270  169.2630  137.4910 O   0  0  0  0  0  1  0  0  0  0  0  0
  192.0180  170.9990  139.4120 C   0  0  1  0  0  3  0  0  0  0  0  0
  191.8510  170.0020  138.2970 C   0  0  0  0  0  2  0  0  0  0  0  0
  190.5130  170.4010  137.6700 C   0  0  2  0  0  3  0  0  0  0  0  0
  190.6280  171.1730  139.9300 C   0  0  1  0  0  3  0  0  0  0  0  0
  193.0060  171.6640  141.4600 C   0  0  1  0  0  3  0  0  0  0  0  0
  192.8560  170.5470  140.5070 N   0  0  0  0  0  2  0  0  0  0  0  0
  190.6230  172.2990  140.9290 C   0  0  0  0  0  0  0  0  0  0  0  0
  191.7330  172.4980  141.6780 C   0  0  0  0  0  0  0  0  0  0  0  0
  192.8710  170.1930  143.4510 N   0  0  0  0  0  0  0  0  0  0  0  0
  194.5360  170.1930  145.1700 C   0  0  0  0  0  0  0  0  0  0  0  0
  194.7490  171.6550  143.2520 C   0  0  0  0  0  3  0  0  0  0  0  0
  195.2420  171.1730  144.4640 C   0  0  0  0  0  3  0  0  0  0  0  0
  193.3350  169.7120  144.6360 C   0  0  0  0  0  3  0  0  0  0  0  0
  193.5480  171.1460  142.7530 C   0  0  0  0  0  0  0  0  0  0  0  0
  195.0510  169.6830  146.4520 C   0  0  0  0  0  0  0  0  0  0  0  0
  196.3200  170.0460  146.8900 O   0  0  0  0  0  0  0  0  0  0  0  0
  194.3490  168.9150  147.1620 O   0  0  0  0  0  1  0  0  0  0  0  0
  189.3910  174.2680  139.1580 O   0  0  0  0  0  0  0  0  0  0  0  0
  189.4400  173.0780  141.1730 N   0  0  0  0  0  2  0  0  0  0  0  0
  188.9730  174.1440  140.3400 C   0  0  0  0  0  0  0  0  0  0  0  0
  187.9480  175.0960  140.8540 C   0  0  0  0  0  2  0  0  0  0  0  0
  187.3020  175.8670  139.7180 C   0  0  0  0  0  2  0  0  0  0  0  0
  187.0680  177.3030  140.1380 C   0  0  0  0  0  2  0  0  0  0  0  0
  185.5790  177.5580  140.2590 C   0  0  0  0  0  2  0  0  0  0  0  0
  185.3090  178.5670  141.3680 C   0  0  0  0  0  2  0  0  0  0  0  0
  186.7080  178.1500  147.5420 C   0  0  0  0  0  0  0  0  0  0  0  0
  190.4560  177.1510  144.6830 F   0  0  0  0  0  0  0  0  0  0  0  0
  188.2450  177.3180  143.8640 C   0  0  0  0  0  0  0  0  0  0  0  0
  186.0880  178.6650  143.8030 C   0  0  0  0  0  2  0  0  0  0  0  0
  185.1910  177.9780  142.7820 C   0  0  2  0  0  3  0  0  0  0  0  0
  189.0930  175.3680  144.8460 F   0  0  0  0  0  0  0  0  0  0  0  0
  189.1530  176.7490  144.9240 C   0  0  0  0  0  0  0  0  0  0  0  0
  186.7510  177.3280  144.0940 C   0  0  1  0  0  0  0  0  0  0  0  0
  185.4600  178.2700  147.6620 O   0  0  0  0  0  0  0  0  0  0  0  0
  185.9370  176.6650  142.9950 C   0  0  0  0  0  2  0  0  0  0  0  0
  187.5400  178.8040  148.4410 O   0  0  0  0  0  1  0  0  0  0  0  0
  188.7230  177.2420  146.3310 C   0  0  1  0  0  3  0  0  0  0  0  0
  186.3730  176.7900  145.4710 C   0  0  0  0  0  2  0  0  0  0  0  0
  188.7160  177.7360  142.8170 O   0  0  0  0  0  0  0  0  0  0  0  0
  187.2630  177.3570  146.4830 N   0  0  0  0  0  0  0  0  0  0  0  0
  189.3320  176.4580  147.5050 C   0  0  1  0  0  3  0  0  0  0  0  0
  188.8430  175.1500  147.5500 O   0  0  0  0  0  1  0  0  0  0  0  0
  190.8510  176.4600  147.4630 C   0  0  0  0  0  2  0  0  0  0  0  0
  191.3500  175.4580  148.2980 O   0  0  0  0  0  1  0  0  0  0  0  0
  191.7780  173.5900  142.7060 C   0  0  0  0  0  2  0  0  0  0  0  0
  192.6240  174.7550  142.2160 C   0  0  0  0  0  2  0  0  0  0  0  0
  194.9290  175.7050  142.8410 C   0  0  0  0  0  3  0  0  0  0  0  0
  194.2260  175.2580  145.7170 C   0  0  2  0  0  3  0  0  0  0  0  0
  193.2710  174.9650  144.5760 C   0  0  0  0  0  3  0  0  0  0  0  0
  195.7900  176.1630  143.7560 C   0  0  0  0  0  3  0  0  0  0  0  0
  193.6020  175.1430  143.2680 C   0  0  0  0  0  0  0  0  0  0  0  0
  194.3000  176.5850  146.0480 C   0  0  0  0  0  2  0  0  0  0  0  0
  195.3000  176.0520  145.0740 N   0  0  0  0  0  0  0  0  0  0  0  0
  3  4  1  6  0  0  0
  3  6  1  0  0  0  0
  3  8  1  0  0  0  0
  5  2  1  1  0  0  0
  5  4  1  0  0  0  0
  5  1  1  0  0  0  0
  6  1  1  6  0  0  0
  6  9  1  0  0  0  0
  7 10  1  0  0  0  0
  7 16  1  1  0  0  0
  8  7  1  0  0  0  0
  9 21  1  0  0  0  0
  9 10  2  0  0  0  0
 10 47  1  0  0  0  0
 11 15  1  0  0  0  0
 12 17  1  0  0  0  0
 13 14  2  0  0  0  0
 14 12  1  0  0  0  0
 15 12  2  0  0  0  0
 16 13  1  0  0  0  0
 16 11  2  0  0  0  0
 17 18  2  0  0  0  0
 17 19  1  0  0  0  0
 20 22  2  0  0  0  0
 22 23  1  0  0  0  0
 22 21  1  0  0  0  0
 24 25  1  0  0  0  0
 24 23  1  0  0  0  0
 25 26  1  0  0  0  0
 26 27  1  0  0  0  0
 28 36  2  0  0  0  0
 28 38  1  0  0  0  0
 29 34  1  0  0  0  0
 30 35  1  0  0  0  0
 30 34  1  0  0  0  0
 31 35  1  0  0  0  0
 32 27  1  6  0  0  0
 32 37  1  0  0  0  0
 32 31  1  0  0  0  0
 33 34  1  0  0  0  0
 34 39  1  0  0  0  0
 35 37  1  6  0  0  0
 35 40  1  0  0  0  0
 39 42  1  0  0  0  0
 39 43  1  1  0  0  0
 40 42  1  0  0  0  0
 41 30  2  0  0  0  0
 42 28  1  0  0  0  0
 43 44  1  6  0  0  0
 45 43  1  0  0  0  0
 45 46  1  0  0  0  0
 48 47  1  0  0  0  0
 48 53  1  0  0  0  0
 49 53  1  0  0  0  0
 49 52  2  0  0  0  0
 50 51  1  6  0  0  0
 50 54  1  0  0  0  0
 52 55  1  0  0  0  0
 53 51  2  0  0  0  0
 55 50  1  0  0  0  0
 55 54  1  0  0  0  0
M  END
>  <MODEL>
5

>  <REMARK>
 VINA RESULT:      -6.8      3.466      9.523
  Name = 
  14 active torsions:
  status: ('A' for Active; 'I' for Inactive)
    1  A    between atoms: C_2  and  C_28
    2  A    between atoms: C_2  and  C_44
    3  A    between atoms: C_4  and  C_35
    4  A    between atoms: C_4  and  C_37
    5  A    between atoms: C_8  and  C_51
    6  A    between atoms: C_10  and  C_32
    7  A    between atoms: C_11  and  C_29
    8  A    between atoms: N_19  and  C_45
    9  A    between atoms: C_28  and  C_49
   10  A    between atoms: C_29  and  C_38
   11  A    between atoms: C_33  and  C_52
   12  A    between atoms: C_35  and  C_43
   13  A    between atoms: C_37  and  C_40
   14  A    between atoms: C_43  and  C_51
                            x       y       z     vdW  Elec       q    Type
                         _______ _______ _______ _____ _____    ______ ____

>  <TORSDO>
F 14

$$$$
=
 OpenBabel11052419243D

 55 61  0  0  1  0  0  0  0  0999 V2000
  189.8780  173.8550  141.7470 C   0  0  0  0  0  2  0  0  0  0  0  0
  188.0110  172.3670  141.6050 O   0  0  0  0  0  1  0  0  0  0  0  0
  190.3830  173.6950  139.4680 C   0  0  1  0  0  3  0  0  0  0  0  0
  188.9790  173.1630  139.5710 C   0  0  0  0  0  2  0  0  0  0  0  0
  188.5860  173.4910  141.0130 C   0  0  2  0  0  3  0  0  0  0  0  0
  190.9660  173.3890  140.8090 C   0  0  1  0  0  3  0  0  0  0  0  0
  192.5030  173.7450  138.4120 C   0  0  1  0  0  3  0  0  0  0  0  0
  191.2020  173.0480  138.4610 N   0  0  0  0  0  2  0  0  0  0  0  0
  192.3170  174.0460  140.9100 C   0  0  0  0  0  0  0  0  0  0  0  0
  193.0550  174.1720  139.7810 C   0  0  0  0  0  0  0  0  0  0  0  0
  194.2270  173.4490  136.6560 N   0  0  0  0  0  0  0  0  0  0  0  0
  195.3070  171.3520  136.2480 C   0  0  0  0  0  0  0  0  0  0  0  0
  193.6390  171.5590  137.9910 C   0  0  0  0  0  3  0  0  0  0  0  0
  194.5530  170.7820  137.2800 C   0  0  0  0  0  3  0  0  0  0  0  0
  195.1230  172.7070  135.9500 C   0  0  0  0  0  3  0  0  0  0  0  0
  193.4880  172.9070  137.6630 C   0  0  0  0  0  0  0  0  0  0  0  0
  196.2710  170.5360  135.4930 C   0  0  0  0  0  0  0  0  0  0  0  0
  197.6370  170.7660  135.6250 O   0  0  0  0  0  1  0  0  0  0  0  0
  195.8710  169.6240  134.7220 O   0  0  0  0  0  0  0  0  0  0  0  0
  193.3970  172.3000  142.9870 O   0  0  0  0  0  0  0  0  0  0  0  0
  192.8690  174.4320  142.1790 N   0  0  0  0  0  2  0  0  0  0  0  0
  193.2340  173.5250  143.2250 C   0  0  0  0  0  0  0  0  0  0  0  0
  193.4710  174.0370  144.6050 C   0  0  0  0  0  2  0  0  0  0  0  0
  192.7510  175.3540  144.8280 C   0  0  0  0  0  2  0  0  0  0  0  0
  193.0870  175.8970  146.2020 C   0  0  0  0  0  2  0  0  0  0  0  0
  192.1630  175.2760  147.2300 C   0  0  0  0  0  2  0  0  0  0  0  0
  190.7620  175.1260  146.6530 C   0  0  0  0  0  2  0  0  0  0  0  0
  185.1450  178.0670  146.8820 C   0  0  0  0  0  0  0  0  0  0  0  0
  186.2110  176.3690  142.5010 F   0  0  0  0  0  0  0  0  0  0  0  0
  187.8100  176.4920  144.2380 C   0  0  0  0  0  0  0  0  0  0  0  0
  188.3590  176.0030  146.6730 C   0  0  0  0  0  2  0  0  0  0  0  0
  189.8340  176.3350  146.8480 C   0  0  2  0  0  3  0  0  0  0  0  0
  187.2740  178.3170  142.8700 F   0  0  0  0  0  0  0  0  0  0  0  0
  186.7190  177.2050  143.4800 C   0  0  0  0  0  0  0  0  0  0  0  0
  188.2730  177.0430  145.5670 C   0  0  1  0  0  0  0  0  0  0  0  0
  185.5550  178.4000  148.0260 O   0  0  0  0  0  1  0  0  0  0  0  0
  189.7690  177.2930  145.6630 C   0  0  0  0  0  2  0  0  0  0  0  0
  183.8100  177.7220  146.7150 O   0  0  0  0  0  0  0  0  0  0  0  0
  185.5710  177.6170  144.4400 C   0  0  1  0  0  3  0  0  0  0  0  0
  187.4740  178.2700  145.9960 C   0  0  0  0  0  2  0  0  0  0  0  0
  188.3340  175.4970  143.7600 O   0  0  0  0  0  0  0  0  0  0  0  0
  186.0490  178.0340  145.7690 N   0  0  0  0  0  0  0  0  0  0  0  0
  184.5890  178.6520  143.8660 C   0  0  1  0  0  3  0  0  0  0  0  0
  185.1290  179.9400  143.9020 O   0  0  0  0  0  1  0  0  0  0  0  0
  184.1480  178.2960  142.4570 C   0  0  0  0  0  2  0  0  0  0  0  0
  182.7680  178.4690  142.3340 O   0  0  0  0  0  1  0  0  0  0  0  0
  194.4170  174.7980  139.8230 C   0  0  0  0  0  2  0  0  0  0  0  0
  195.4470  173.8100  140.3460 C   0  0  0  0  0  2  0  0  0  0  0  0
  196.1730  175.9260  141.6130 C   0  0  0  0  0  3  0  0  0  0  0  0
  197.8560  174.1790  143.3690 C   0  0  2  0  0  3  0  0  0  0  0  0
  196.9690  173.6340  142.2650 C   0  0  0  0  0  3  0  0  0  0  0  0
  196.7730  176.5090  142.6560 C   0  0  0  0  0  3  0  0  0  0  0  0
  196.2270  174.4330  141.4500 C   0  0  0  0  0  0  0  0  0  0  0  0
  197.1770  174.5000  144.5140 C   0  0  0  0  0  2  0  0  0  0  0  0
  197.4070  175.5840  143.5120 N   0  0  0  0  0  0  0  0  0  0  0  0
  3  4  1  1  0  0  0
  3  6  1  0  0  0  0
  4  5  1  0  0  0  0
  5  2  1  1  0  0  0
  5  1  1  0  0  0  0
  6  9  1  0  0  0  0
  6  1  1  1  0  0  0
  7 16  1  1  0  0  0
  7  8  1  0  0  0  0
  7 10  1  0  0  0  0
  8  3  1  0  0  0  0
  9 21  1  0  0  0  0
 10 47  1  0  0  0  0
 10  9  2  0  0  0  0
 11 16  1  0  0  0  0
 12 14  2  0  0  0  0
 14 13  1  0  0  0  0
 15 12  1  0  0  0  0
 15 11  2  0  0  0  0
 16 13  2  0  0  0  0
 17 18  1  0  0  0  0
 17 12  1  0  0  0  0
 19 17  2  0  0  0  0
 20 22  2  0  0  0  0
 21 22  1  0  0  0  0
 22 23  1  0  0  0  0
 23 24  1  0  0  0  0
 24 25  1  0  0  0  0
 25 26  1  0  0  0  0
 27 26  1  0  0  0  0
 28 36  1  0  0  0  0
 29 34  1  0  0  0  0
 30 35  1  0  0  0  0
 31 32  1  0  0  0  0
 32 27  1  6  0  0  0
 33 34  1  0  0  0  0
 34 30  1  0  0  0  0
 34 39  1  0  0  0  0
 35 37  1  6  0  0  0
 35 40  1  0  0  0  0
 35 31  1  0  0  0  0
 37 32  1  0  0  0  0
 38 28  2  0  0  0  0
 39 43  1  6  0  0  0
 39 42  1  0  0  0  0
 41 30  2  0  0  0  0
 42 40  1  0  0  0  0
 42 28  1  0  0  0  0
 43 44  1  6  0  0  0
 45 43  1  0  0  0  0
 46 45  1  0  0  0  0
 47 48  1  0  0  0  0
 48 53  1  0  0  0  0
 49 52  2  0  0  0  0
 50 51  1  6  0  0  0
 50 55  1  0  0  0  0
 50 54  1  0  0  0  0
 52 55  1  0  0  0  0
 53 49  1  0  0  0  0
 53 51  2  0  0  0  0
 55 54  1  0  0  0  0
M  END
>  <MODEL>
6

>  <REMARK>
 VINA RESULT:      -6.5      3.320      8.431
  Name = 
  14 active torsions:
  status: ('A' for Active; 'I' for Inactive)
    1  A    between atoms: C_2  and  C_28
    2  A    between atoms: C_2  and  C_44
    3  A    between atoms: C_4  and  C_35
    4  A    between atoms: C_4  and  C_37
    5  A    between atoms: C_8  and  C_51
    6  A    between atoms: C_10  and  C_32
    7  A    between atoms: C_11  and  C_29
    8  A    between atoms: N_19  and  C_45
    9  A    between atoms: C_28  and  C_49
   10  A    between atoms: C_29  and  C_38
   11  A    between atoms: C_33  and  C_52
   12  A    between atoms: C_35  and  C_43
   13  A    between atoms: C_37  and  C_40
   14  A    between atoms: C_43  and  C_51
                            x       y       z     vdW  Elec       q    Type
                         _______ _______ _______ _____ _____    ______ ____

>  <TORSDO>
F 14

$$$$
=
 OpenBabel11052419243D

 55 61  0  0  1  0  0  0  0  0999 V2000
  186.8400  177.6780  147.0470 C   0  0  0  0  0  2  0  0  0  0  0  0
  184.5120  178.1580  147.3100 O   0  0  0  0  0  1  0  0  0  0  0  0
  186.8770  178.2990  144.7920 C   0  0  1  0  0  3  0  0  0  0  0  0
  185.6000  178.8980  145.3160 C   0  0  0  0  0  2  0  0  0  0  0  0
  185.7100  178.6850  146.8280 C   0  0  2  0  0  3  0  0  0  0  0  0
  187.0850  177.1080  145.6700 C   0  0  1  0  0  3  0  0  0  0  0  0
  188.1550  177.3790  143.0220 C   0  0  1  0  0  3  0  0  0  0  0  0
  186.8090  177.8390  143.4170 N   0  0  0  0  0  2  0  0  0  0  0  0
  188.4400  176.5220  145.3770 C   0  0  0  0  0  0  0  0  0  0  0  0
  188.9200  176.6160  144.1140 C   0  0  0  0  0  0  0  0  0  0  0  0
  188.6910  175.3790  141.6590 N   0  0  0  0  0  0  0  0  0  0  0  0
  187.9000  175.0950  139.4180 C   0  0  0  0  0  0  0  0  0  0  0  0
  187.3220  177.0750  140.6840 C   0  0  0  0  0  3  0  0  0  0  0  0
  187.2450  176.3270  139.5100 C   0  0  0  0  0  3  0  0  0  0  0  0
  188.6270  174.6350  140.5220 C   0  0  0  0  0  3  0  0  0  0  0  0
  188.0570  176.5790  141.7630 C   0  0  0  0  0  0  0  0  0  0  0  0
  187.8240  174.3020  138.1800 C   0  0  0  0  0  0  0  0  0  0  0  0
  187.7590  174.9380  136.9450 O   0  0  0  0  0  0  0  0  0  0  0  0
  187.8160  173.0430  138.2260 O   0  0  0  0  0  1  0  0  0  0  0  0
  190.4310  177.5410  147.2550 O   0  0  0  0  0  0  0  0  0  0  0  0
  189.1670  175.7820  146.3710 N   0  0  0  0  0  2  0  0  0  0  0  0
  190.2470  176.2990  147.1540 C   0  0  0  0  0  0  0  0  0  0  0  0
  191.1420  175.3670  147.8970 C   0  0  0  0  0  2  0  0  0  0  0  0
  192.4000  175.0710  147.1030 C   0  0  0  0  0  2  0  0  0  0  0  0
  192.1510  173.9160  146.1560 C   0  0  0  0  0  2  0  0  0  0  0  0
  193.4220  173.6050  145.3920 C   0  0  0  0  0  2  0  0  0  0  0  0
  193.9300  172.2170  145.7630 C   0  0  0  0  0  2  0  0  0  0  0  0
  194.3220  170.7050  139.6140 C   0  0  0  0  0  0  0  0  0  0  0  0
  189.8070  171.5560  141.0670 F   0  0  0  0  0  0  0  0  0  0  0  0
  191.5980  171.2820  142.5860 C   0  0  0  0  0  0  0  0  0  0  0  0
  193.9750  171.9290  143.2220 C   0  0  0  0  0  2  0  0  0  0  0  0
  194.2370  171.2890  144.5790 C   0  0  2  0  0  3  0  0  0  0  0  0
  190.4410  169.4760  141.6450 F   0  0  0  0  0  0  0  0  0  0  0  0
  190.8960  170.7520  141.3620 C   0  0  0  0  0  0  0  0  0  0  0  0
  192.9980  170.8080  142.9010 C   0  0  1  0  0  0  0  0  0  0  0  0
  195.5100  170.4310  139.9300 O   0  0  0  0  0  1  0  0  0  0  0  0
  193.1730  170.2330  144.2970 C   0  0  0  0  0  2  0  0  0  0  0  0
  194.0710  171.3270  138.3980 O   0  0  0  0  0  0  0  0  0  0  0  0
  191.8590  170.7390  140.1450 C   0  0  1  0  0  3  0  0  0  0  0  0
  193.5440  169.8620  141.8360 C   0  0  0  0  0  2  0  0  0  0  0  0
  191.0230  172.0620  143.3290 O   0  0  0  0  0  0  0  0  0  0  0  0
  193.2430  170.3910  140.5060 N   0  0  0  0  0  0  0  0  0  0  0  0
  191.3810  169.8960  138.9510 C   0  0  1  0  0  3  0  0  0  0  0  0
  190.8150  168.6910  139.3730 O   0  0  0  0  0  1  0  0  0  0  0  0
  190.4100  170.6610  138.0670 C   0  0  0  0  0  2  0  0  0  0  0  0
  190.8790  171.9600  137.8610 O   0  0  0  0  0  1  0  0  0  0  0  0
  190.2550  176.0310  143.7570 C   0  0  0  0  0  2  0  0  0  0  0  0
  191.3410  177.0920  143.8180 C   0  0  0  0  0  2  0  0  0  0  0  0
  192.6930  175.5860  142.2330 C   0  0  0  0  0  3  0  0  0  0  0  0
  195.1130  176.1750  143.8950 C   0  0  2  0  0  3  0  0  0  0  0  0
  193.7530  176.7890  144.1660 C   0  0  0  0  0  3  0  0  0  0  0  0
  193.8640  175.1190  141.7880 C   0  0  0  0  0  3  0  0  0  0  0  0
  192.6480  176.4980  143.4260 C   0  0  0  0  0  0  0  0  0  0  0  0
  195.7960  176.7770  142.8720 C   0  0  0  0  0  2  0  0  0  0  0  0
  194.9610  175.5800  142.5460 N   0  0  0  0  0  0  0  0  0  0  0  0
  3  4  1  1  0  0  0
  3  6  1  0  0  0  0
  4  5  1  0  0  0  0
  5  1  1  0  0  0  0
  5  2  1  6  0  0  0
  6  1  1  1  0  0  0
  7 16  1  6  0  0  0
  7  8  1  0  0  0  0
  7 10  1  0  0  0  0
  8  3  1  0  0  0  0
  9  6  1  0  0  0  0
  9 21  1  0  0  0  0
 10  9  2  0  0  0  0
 11 16  1  0  0  0  0
 12 14  2  0  0  0  0
 12 15  1  0  0  0  0
 13 16  2  0  0  0  0
 14 13  1  0  0  0  0
 15 11  2  0  0  0  0
 17 19  1  0  0  0  0
 17 12  1  0  0  0  0
 18 17  2  0  0  0  0
 21 22  1  0  0  0  0
 22 20  2  0  0  0  0
 22 23  1  0  0  0  0
 24 23  1  0  0  0  0
 25 24  1  0  0  0  0
 26 27  1  0  0  0  0
 26 25  1  0  0  0  0
 28 36  1  0  0  0  0
 28 42  1  0  0  0  0
 29 34  1  0  0  0  0
 30 35  1  0  0  0  0
 30 41  2  0  0  0  0
 31 32  1  0  0  0  0
 32 27  1  1  0  0  0
 34 33  1  0  0  0  0
 34 30  1  0  0  0  0
 35 40  1  6  0  0  0
 35 31  1  0  0  0  0
 35 37  1  0  0  0  0
 37 32  1  0  0  0  0
 38 28  2  0  0  0  0
 39 43  1  6  0  0  0
 39 42  1  0  0  0  0
 39 34  1  0  0  0  0
 42 40  1  0  0  0  0
 43 44  1  1  0  0  0
 45 43  1  0  0  0  0
 46 45  1  0  0  0  0
 47 48  1  0  0  0  0
 47 10  1  0  0  0  0
 49 53  1  0  0  0  0
 50 54  1  6  0  0  0
 50 51  1  0  0  0  0
 52 49  2  0  0  0  0
 52 55  1  0  0  0  0
 53 48  1  0  0  0  0
 53 51  2  0  0  0  0
 55 54  1  0  0  0  0
 55 50  1  0  0  0  0
M  END
>  <MODEL>
7

>  <REMARK>
 VINA RESULT:      -6.5      2.230      3.043
  Name = 
  14 active torsions:
  status: ('A' for Active; 'I' for Inactive)
    1  A    between atoms: C_2  and  C_28
    2  A    between atoms: C_2  and  C_44
    3  A    between atoms: C_4  and  C_35
    4  A    between atoms: C_4  and  C_37
    5  A    between atoms: C_8  and  C_51
    6  A    between atoms: C_10  and  C_32
    7  A    between atoms: C_11  and  C_29
    8  A    between atoms: N_19  and  C_45
    9  A    between atoms: C_28  and  C_49
   10  A    between atoms: C_29  and  C_38
   11  A    between atoms: C_33  and  C_52
   12  A    between atoms: C_35  and  C_43
   13  A    between atoms: C_37  and  C_40
   14  A    between atoms: C_43  and  C_51
                            x       y       z     vdW  Elec       q    Type
                         _______ _______ _______ _____ _____    ______ ____

>  <TORSDO>
F 14

$$$$
=
 OpenBabel11052419243D

 55 61  0  0  1  0  0  0  0  0999 V2000
  195.1630  170.4980  145.5300 C   0  0  0  0  0  2  0  0  0  0  0  0
  196.0340  168.3070  145.9330 O   0  0  0  0  0  1  0  0  0  0  0  0
  193.6260  169.7660  143.9250 C   0  0  1  0  0  3  0  0  0  0  0  0
  194.0320  168.5080  144.6450 C   0  0  0  0  0  2  0  0  0  0  0  0
  194.8470  169.0320  145.8300 C   0  0  2  0  0  3  0  0  0  0  0  0
  194.8260  170.6450  144.0650 C   0  0  1  0  0  3  0  0  0  0  0  0
  192.8750  170.8810  141.9750 C   0  0  1  0  0  3  0  0  0  0  0  0
  193.3560  169.5920  142.5100 N   0  0  0  0  0  2  0  0  0  0  0  0
  194.4820  172.0170  143.5520 C   0  0  0  0  0  0  0  0  0  0  0  0
  193.5920  172.1180  142.5360 C   0  0  0  0  0  0  0  0  0  0  0  0
  191.7930  170.6490  139.7560 N   0  0  0  0  0  0  0  0  0  0  0  0
  193.0190  170.7670  137.7040 C   0  0  0  0  0  0  0  0  0  0  0  0
  194.1520  171.0130  139.8300 C   0  0  0  0  0  3  0  0  0  0  0  0
  194.1930  170.9720  138.4360 C   0  0  0  0  0  3  0  0  0  0  0  0
  191.8130  170.6060  138.3960 C   0  0  0  0  0  3  0  0  0  0  0  0
  192.9270  170.8500  140.4810 C   0  0  0  0  0  0  0  0  0  0  0  0
  193.0580  170.7200  136.2330 C   0  0  0  0  0  0  0  0  0  0  0  0
  194.2110  170.3030  135.5760 O   0  0  0  0  0  1  0  0  0  0  0  0
  192.0500  171.0570  135.5560 O   0  0  0  0  0  0  0  0  0  0  0  0
  193.8460  173.5710  145.9420 O   0  0  0  0  0  0  0  0  0  0  0  0
  195.1550  173.1890  144.0400 N   0  0  0  0  0  2  0  0  0  0  0  0
  194.7020  174.0050  145.1260 C   0  0  0  0  0  0  0  0  0  0  0  0
  195.2770  175.3650  145.3260 C   0  0  0  0  0  2  0  0  0  0  0  0
  194.6400  176.0550  146.5170 C   0  0  0  0  0  2  0  0  0  0  0  0
  193.1550  176.2310  146.2770 C   0  0  0  0  0  2  0  0  0  0  0  0
  192.4530  176.4670  147.6000 C   0  0  0  0  0  2  0  0  0  0  0  0
  191.2140  175.5870  147.6990 C   0  0  0  0  0  2  0  0  0  0  0  0
  188.4310  177.4630  142.3150 C   0  0  0  0  0  0  0  0  0  0  0  0
  186.2610  179.1770  146.2610 F   0  0  0  0  0  0  0  0  0  0  0  0
  187.8870  177.4630  146.3500 C   0  0  0  0  0  0  0  0  0  0  0  0
  190.1880  176.6630  145.6180 C   0  0  0  0  0  2  0  0  0  0  0  0
  190.4500  175.3730  146.3840 C   0  0  2  0  0  3  0  0  0  0  0  0
  185.6300  177.0510  145.8760 F   0  0  0  0  0  0  0  0  0  0  0  0
  186.6390  177.9780  145.6800 C   0  0  0  0  0  0  0  0  0  0  0  0
  188.6960  176.3770  145.6790 C   0  0  1  0  0  0  0  0  0  0  0  0
  189.2130  176.6130  141.8120 O   0  0  0  0  0  1  0  0  0  0  0  0
  188.9490  175.1510  146.5410 C   0  0  0  0  0  2  0  0  0  0  0  0
  188.2140  178.6610  141.6490 O   0  0  0  0  0  0  0  0  0  0  0  0
  186.8910  178.2080  144.1650 C   0  0  1  0  0  3  0  0  0  0  0  0
  188.1310  175.9920  144.3150 C   0  0  0  0  0  2  0  0  0  0  0  0
  188.2170  177.8990  147.4420 O   0  0  0  0  0  0  0  0  0  0  0  0
  187.7830  177.2000  143.5680 N   0  0  0  0  0  0  0  0  0  0  0  0
  185.6210  178.3810  143.3170 C   0  0  1  0  0  3  0  0  0  0  0  0
  184.9890  177.1560  143.0920 O   0  0  0  0  0  1  0  0  0  0  0  0
  184.6540  179.3750  143.9390 C   0  0  0  0  0  2  0  0  0  0  0  0
  183.3430  179.0460  143.5870 O   0  0  0  0  0  1  0  0  0  0  0  0
  193.2270  173.4580  141.9680 C   0  0  0  0  0  2  0  0  0  0  0  0
  192.2030  174.1540  142.8480 C   0  0  0  0  0  2  0  0  0  0  0  0
  190.4490  172.7150  144.0570 C   0  0  0  0  0  3  0  0  0  0  0  0
  188.9290  172.5770  141.4800 C   0  0  2  0  0  3  0  0  0  0  0  0
  190.2120  173.3710  141.6440 C   0  0  0  0  0  3  0  0  0  0  0  0
  189.2480  172.1270  144.0890 C   0  0  0  0  0  3  0  0  0  0  0  0
  190.9150  173.4100  142.8080 C   0  0  0  0  0  0  0  0  0  0  0  0
  187.8220  173.2090  141.9800 C   0  0  0  0  0  2  0  0  0  0  0  0
  188.5430  172.2530  142.8740 N   0  0  0  0  0  0  0  0  0  0  0  0
  1  5  1  0  0  0  0
  3  6  1  0  0  0  0
  3  4  1  6  0  0  0
  4  5  1  0  0  0  0
  5  2  1  6  0  0  0
  6  1  1  1  0  0  0
  7 16  1  6  0  0  0
  7  8  1  0  0  0  0
  7 10  1  0  0  0  0
  8  3  1  0  0  0  0
  9 21  1  0  0  0  0
  9  6  1  0  0  0  0
 10  9  2  0  0  0  0
 11 16  1  0  0  0  0
 12 15  1  0  0  0  0
 12 14  2  0  0  0  0
 13 16  2  0  0  0  0
 14 13  1  0  0  0  0
 15 11  2  0  0  0  0
 17 12  1  0  0  0  0
 18 17  1  0  0  0  0
 19 17  2  0  0  0  0
 21 22  1  0  0  0  0
 22 23  1  0  0  0  0
 22 20  2  0  0  0  0
 23 24  1  0  0  0  0
 25 24  1  0  0  0  0
 25 26  1  0  0  0  0
 26 27  1  0  0  0  0
 28 42  1  0  0  0  0
 30 41  2  0  0  0  0
 31 35  1  0  0  0  0
 31 32  1  0  0  0  0
 32 37  1  0  0  0  0
 32 27  1  1  0  0  0
 34 33  1  0  0  0  0
 34 29  1  0  0  0  0
 34 30  1  0  0  0  0
 35 40  1  6  0  0  0
 35 30  1  0  0  0  0
 35 37  1  0  0  0  0
 36 28  1  0  0  0  0
 38 28  2  0  0  0  0
 39 43  1  6  0  0  0
 39 34  1  0  0  0  0
 42 39  1  0  0  0  0
 42 40  1  0  0  0  0
 43 44  1  1  0  0  0
 43 45  1  0  0  0  0
 46 45  1  0  0  0  0
 47 10  1  0  0  0  0
 47 48  1  0  0  0  0
 49 52  2  0  0  0  0
 50 51  1  1  0  0  0
 50 54  1  0  0  0  0
 50 55  1  0  0  0  0
 51 53  2  0  0  0  0
 53 48  1  0  0  0  0
 53 49  1  0  0  0  0
 54 55  1  0  0  0  0
 55 52  1  0  0  0  0
M  END
>  <MODEL>
8

>  <REMARK>
 VINA RESULT:      -6.5      3.824      8.685
  Name = 
  14 active torsions:
  status: ('A' for Active; 'I' for Inactive)
    1  A    between atoms: C_2  and  C_28
    2  A    between atoms: C_2  and  C_44
    3  A    between atoms: C_4  and  C_35
    4  A    between atoms: C_4  and  C_37
    5  A    between atoms: C_8  and  C_51
    6  A    between atoms: C_10  and  C_32
    7  A    between atoms: C_11  and  C_29
    8  A    between atoms: N_19  and  C_45
    9  A    between atoms: C_28  and  C_49
   10  A    between atoms: C_29  and  C_38
   11  A    between atoms: C_33  and  C_52
   12  A    between atoms: C_35  and  C_43
   13  A    between atoms: C_37  and  C_40
   14  A    between atoms: C_43  and  C_51
                            x       y       z     vdW  Elec       q    Type
                         _______ _______ _______ _____ _____    ______ ____

>  <TORSDO>
F 14

$$$$
=
 OpenBabel11052419243D

 55 61  0  0  1  0  0  0  0  0999 V2000
  185.8630  178.6020  145.7710 C   0  0  0  0  0  2  0  0  0  0  0  0
  185.6450  179.7910  147.8360 O   0  0  0  0  0  1  0  0  0  0  0  0
  187.1270  176.8740  146.7150 C   0  0  1  0  0  3  0  0  0  0  0  0
  186.5030  177.5620  147.9000 C   0  0  0  0  0  2  0  0  0  0  0  0
  185.5060  178.5290  147.2570 C   0  0  2  0  0  3  0  0  0  0  0  0
  187.2300  177.9650  145.6990 C   0  0  1  0  0  3  0  0  0  0  0  0
  188.8860  175.6210  145.7410 C   0  0  1  0  0  3  0  0  0  0  0  0
  188.4590  176.3500  146.9520 N   0  0  0  0  0  2  0  0  0  0  0  0
  187.6630  177.3640  144.3880 C   0  0  0  0  0  0  0  0  0  0  0  0
  188.4790  176.2840  144.4160 C   0  0  0  0  0  0  0  0  0  0  0  0
  191.2220  176.4160  145.9810 N   0  0  0  0  0  0  0  0  0  0  0  0
  193.1030  174.9380  145.8900 C   0  0  0  0  0  0  0  0  0  0  0  0
  190.8510  174.0790  145.6560 C   0  0  0  0  0  3  0  0  0  0  0  0
  192.2280  173.8620  145.7020 C   0  0  0  0  0  3  0  0  0  0  0  0
  192.5680  176.2240  146.0290 C   0  0  0  0  0  3  0  0  0  0  0  0
  190.3590  175.3780  145.8010 C   0  0  0  0  0  0  0  0  0  0  0  0
  194.5570  174.7160  145.9370 C   0  0  0  0  0  0  0  0  0  0  0  0
  195.1050  173.5580  145.3950 O   0  0  0  0  0  0  0  0  0  0  0  0
  195.3170  175.5680  146.4680 O   0  0  0  0  0  1  0  0  0  0  0  0
  185.1910  177.0420  142.8670 O   0  0  0  0  0  0  0  0  0  0  0  0
  187.3190  177.9760  143.1350 N   0  0  0  0  0  2  0  0  0  0  0  0
  186.1620  177.6570  142.3540 C   0  0  0  0  0  0  0  0  0  0  0  0
  186.0800  178.0930  140.9310 C   0  0  0  0  0  2  0  0  0  0  0  0
  187.2400  177.5410  140.1250 C   0  0  0  0  0  2  0  0  0  0  0  0
  186.8350  176.2390  139.4650 C   0  0  0  0  0  2  0  0  0  0  0  0
  187.9560  175.2300  139.6060 C   0  0  0  0  0  2  0  0  0  0  0  0
  187.9480  174.2700  138.4240 C   0  0  0  0  0  2  0  0  0  0  0  0
  191.5610  169.9680  141.3720 C   0  0  0  0  0  0  0  0  0  0  0  0
  194.1050  173.0350  138.6620 F   0  0  0  0  0  0  0  0  0  0  0  0
  191.7500  172.8750  138.5280 C   0  0  0  0  0  0  0  0  0  0  0  0
  189.5400  172.8020  139.7860 C   0  0  0  0  0  2  0  0  0  0  0  0
  188.4500  172.8490  138.7250 C   0  0  2  0  0  3  0  0  0  0  0  0
  193.1900  171.4260  137.3820 F   0  0  0  0  0  0  0  0  0  0  0  0
  193.0600  172.1310  138.5670 C   0  0  0  0  0  0  0  0  0  0  0  0
  190.4620  172.1270  138.7830 C   0  0  1  0  0  0  0  0  0  0  0  0
  190.4410  169.4560  141.6380 O   0  0  0  0  0  0  0  0  0  0  0  0
  189.4150  172.2770  137.6930 C   0  0  0  0  0  2  0  0  0  0  0  0
  192.5530  169.9690  142.3430 O   0  0  0  0  0  1  0  0  0  0  0  0
  193.1060  171.1730  139.7870 C   0  0  1  0  0  3  0  0  0  0  0  0
  190.7040  170.6590  139.1270 C   0  0  0  0  0  2  0  0  0  0  0  0
  191.7330  174.0670  138.2590 O   0  0  0  0  0  0  0  0  0  0  0  0
  191.8040  170.5520  140.0840 N   0  0  0  0  0  0  0  0  0  0  0  0
  194.2160  170.1110  139.7350 C   0  0  1  0  0  3  0  0  0  0  0  0
  194.3120  169.5390  138.4650 O   0  0  0  0  0  1  0  0  0  0  0  0
  195.5590  170.6710  140.1720 C   0  0  0  0  0  2  0  0  0  0  0  0
  195.3950  171.4640  141.3100 O   0  0  0  0  0  1  0  0  0  0  0  0
  188.9610  175.6560  143.1420 C   0  0  0  0  0  2  0  0  0  0  0  0
  189.9950  176.5390  142.4630 C   0  0  0  0  0  2  0  0  0  0  0  0
  191.2910  174.3310  142.2350 C   0  0  0  0  0  3  0  0  0  0  0  0
  193.8250  175.9040  142.5000 C   0  0  2  0  0  3  0  0  0  0  0  0
  192.4500  176.5450  142.4850 C   0  0  0  0  0  3  0  0  0  0  0  0
  192.4390  173.6680  142.0600 C   0  0  0  0  0  3  0  0  0  0  0  0
  191.2990  175.8250  142.3920 C   0  0  0  0  0  0  0  0  0  0  0  0
  194.2880  175.5630  141.2560 C   0  0  0  0  0  2  0  0  0  0  0  0
  193.5650  174.5180  142.0430 N   0  0  0  0  0  0  0  0  0  0  0  0
  1  5  1  0  0  0  0
  3  8  1  0  0  0  0
  3  4  1  1  0  0  0
  5  2  1  1  0  0  0
  5  4  1  0  0  0  0
  6  1  1  6  0  0  0
  6  3  1  0  0  0  0
  7 16  1  6  0  0  0
  7  8  1  0  0  0  0
  9 10  2  0  0  0  0
  9  6  1  0  0  0  0
 10  7  1  0  0  0  0
 11 15  1  0  0  0  0
 12 17  1  0  0  0  0
 12 15  2  0  0  0  0
 13 14  2  0  0  0  0
 13 16  1  0  0  0  0
 14 12  1  0  0  0  0
 16 11  2  0  0  0  0
 17 19  1  0  0  0  0
 18 17  2  0  0  0  0
 21  9  1  0  0  0  0
 22 20  2  0  0  0  0
 22 21  1  0  0  0  0
 23 22  1  0  0  0  0
 24 23  1  0  0  0  0
 25 26  1  0  0  0  0
 25 24  1  0  0  0  0
 27 26  1  0  0  0  0
 28 36  2  0  0  0  0
 28 38  1  0  0  0  0
 30 34  1  0  0  0  0
 30 35  1  0  0  0  0
 32 27  1  6  0  0  0
 32 31  1  0  0  0  0
 33 34  1  0  0  0  0
 34 29  1  0  0  0  0
 34 39  1  0  0  0  0
 35 37  1  6  0  0  0
 35 40  1  0  0  0  0
 35 31  1  0  0  0  0
 37 32  1  0  0  0  0
 39 43  1  6  0  0  0
 39 42  1  0  0  0  0
 40 42  1  0  0  0  0
 41 30  2  0  0  0  0
 42 28  1  0  0  0  0
 43 44  1  6  0  0  0
 43 45  1  0  0  0  0
 45 46  1  0  0  0  0
 47 10  1  0  0  0  0
 48 47  1  0  0  0  0
 49 53  1  0  0  0  0
 50 54  1  6  0  0  0
 51 50  1  0  0  0  0
 52 49  2  0  0  0  0
 53 48  1  0  0  0  0
 53 51  2  0  0  0  0
 54 55  1  0  0  0  0
 55 52  1  0  0  0  0
 55 50  1  0  0  0  0
M  END
>  <MODEL>
9

>  <REMARK>
 VINA RESULT:      -6.5      2.493      5.647
  Name = 
  14 active torsions:
  status: ('A' for Active; 'I' for Inactive)
    1  A    between atoms: C_2  and  C_28
    2  A    between atoms: C_2  and  C_44
    3  A    between atoms: C_4  and  C_35
    4  A    between atoms: C_4  and  C_37
    5  A    between atoms: C_8  and  C_51
    6  A    between atoms: C_10  and  C_32
    7  A    between atoms: C_11  and  C_29
    8  A    between atoms: N_19  and  C_45
    9  A    between atoms: C_28  and  C_49
   10  A    between atoms: C_29  and  C_38
   11  A    between atoms: C_33  and  C_52
   12  A    between atoms: C_35  and  C_43
   13  A    between atoms: C_37  and  C_40
   14  A    between atoms: C_43  and  C_51
                            x       y       z     vdW  Elec       q    Type
                         _______ _______ _______ _____ _____    ______ ____

>  <TORSDO>
F 14

$$$$
