=
 OpenBabel11052418473D

 34 39  0  0  1  0  0  0  0  0999 V2000
  185.3680  177.9910  145.9140 C   0  0  0  0  0  0  0  0  0  0  0  0
  187.3250  176.6880  145.2670 C   0  0  0  0  0  0  0  0  0  0  0  0
  185.7480  177.6820  143.4490 C   0  0  0  0  0  0  0  0  0  0  0  0
  186.0290  177.6140  140.9980 C   0  0  0  0  0  0  0  0  0  0  0  0
  186.8420  177.1040  147.6120 C   0  0  0  0  0  3  0  0  0  0  0  0
  187.6290  176.5290  146.6230 C   0  0  0  0  0  3  0  0  0  0  0  0
  187.9850  177.4280  142.5260 N   0  0  0  0  0  0  0  0  0  0  0  0
  186.1900  177.4650  144.8760 C   0  0  0  0  0  0  0  0  0  0  0  0
  188.4950  176.2390  143.1190 C   0  0  0  0  0  0  0  0  0  0  0  0
  186.8010  177.1550  139.9370 O   0  0  0  0  0  1  0  0  0  0  0  0
  185.7070  177.8170  147.2570 C   0  0  0  0  0  3  0  0  0  0  0  0
  184.2850  178.0640  143.2370 C   0  0  2  0  0  3  0  0  0  0  0  0
  184.0280  178.6090  145.6500 C   0  0  0  0  0  2  0  0  0  0  0  0
  188.2040  175.9260  144.3700 C   0  0  0  0  0  3  0  0  0  0  0  0
  184.7970  178.0400  140.7530 C   0  0  0  0  0  3  0  0  0  0  0  0
  183.9590  178.6200  141.8430 C   0  0  1  0  0  3  0  0  0  0  0  0
  188.8400  178.2280  141.7550 N   0  0  0  0  0  1  0  0  0  0  0  0
  186.5730  177.5800  142.3770 C   0  0  0  0  0  0  0  0  0  0  0  0
  183.9120  179.1450  144.2390 C   0  0  0  0  0  2  0  0  0  0  0  0
  180.1650  178.8290  142.0880 C   0  0  0  0  0  0  0  0  0  0  0  0
  179.7870  178.2500  140.8730 C   0  0  0  0  0  3  0  0  0  0  0  0
  182.5020  178.4980  141.5180 C   0  0  0  0  0  0  0  0  0  0  0  0
  180.7630  177.7950  139.9810 C   0  0  0  0  0  3  0  0  0  0  0  0
  181.5200  178.9530  142.4110 C   0  0  0  0  0  3  0  0  0  0  0  0
  182.1180  177.9180  140.3030 C   0  0  0  0  0  3  0  0  0  0  0  0
  179.2200  179.2690  142.9520 F   0  0  0  0  0  0  0  0  0  0  0  0
  189.4720  175.3840  142.3750 C   0  0  0  0  0  2  0  0  0  0  0  0
  189.6640  172.7430  143.7410 C   0  0  0  0  0  1  0  0  0  0  0  0
  188.8230  174.1640  141.8870 N   0  0  0  0  0  0  0  0  0  0  0  0
  189.6130  172.9700  142.2400 C   0  0  1  0  0  3  0  0  0  0  0  0
  191.0590  173.6400  140.2550 C   0  0  0  0  0  2  0  0  0  0  0  0
  189.6970  173.5670  139.5790 C   0  0  0  0  0  2  0  0  0  0  0  0
  188.6360  174.2890  140.4270 C   0  0  0  0  0  2  0  0  0  0  0  0
  191.0250  172.9730  141.6310 C   0  0  0  0  0  2  0  0  0  0  0  0
  1 11  1  0  0  0  0
  2  6  2  0  0  0  0
  3  8  1  0  0  0  0
  4 18  1  0  0  0  0
  6  5  1  0  0  0  0
  7  9  1  0  0  0  0
  8  2  1  0  0  0  0
  8  1  2  0  0  0  0
  9 14  2  0  0  0  0
 10  4  1  0  0  0  0
 11  5  2  0  0  0  0
 12  3  1  0  0  0  0
 12 19  1  1  0  0  0
 13  1  1  0  0  0  0
 14  2  1  0  0  0  0
 15  4  2  0  0  0  0
 15 16  1  0  0  0  0
 16 22  1  6  0  0  0
 16 12  1  0  0  0  0
 17  7  1  0  0  0  0
 18  7  1  0  0  0  0
 18  3  2  0  0  0  0
 19 13  1  0  0  0  0
 20 24  1  0  0  0  0
 20 26  1  0  0  0  0
 21 20  2  0  0  0  0
 22 24  2  0  0  0  0
 23 25  2  0  0  0  0
 23 21  1  0  0  0  0
 25 22  1  0  0  0  0
 27  9  1  0  0  0  0
 29 30  1  0  0  0  0
 29 27  1  0  0  0  0
 30 28  1  1  0  0  0
 31 34  1  0  0  0  0
 32 31  1  0  0  0  0
 32 33  1  0  0  0  0
 33 29  1  0  0  0  0
 34 30  1  0  0  0  0
M  END
>  <MODEL>
1

>  <REMARK>
 VINA RESULT:      -9.4      0.000      0.000
  Name = 
  3 active torsions:
  status: ('A' for Active; 'I' for Inactive)
    1  A    between atoms: C_3  and  N_13
    2  A    between atoms: C_3  and  C_17
    3  A    between atoms: C_12  and  C_28
                            x       y       z     vdW  Elec       q    Type
                         _______ _______ _______ _____ _____    ______ ____

>  <TORSDO>
F 3

$$$$
=
 OpenBabel11052418473D

 34 39  0  0  1  0  0  0  0  0999 V2000
  190.9140  173.8310  141.1590 C   0  0  0  0  0  0  0  0  0  0  0  0
  189.0360  175.0640  142.1070 C   0  0  0  0  0  0  0  0  0  0  0  0
  191.3000  174.9300  143.3860 C   0  0  0  0  0  0  0  0  0  0  0  0
  191.9180  176.0530  145.4950 C   0  0  0  0  0  0  0  0  0  0  0  0
  188.8290  173.9760  139.9450 C   0  0  0  0  0  3  0  0  0  0  0  0
  188.2830  174.7250  140.9780 C   0  0  0  0  0  3  0  0  0  0  0  0
  190.1340  176.9690  144.0210 N   0  0  0  0  0  0  0  0  0  0  0  0
  190.4000  174.6480  142.2070 C   0  0  0  0  0  0  0  0  0  0  0  0
  188.7550  176.6180  144.0290 C   0  0  0  0  0  0  0  0  0  0  0  0
  191.4910  176.8690  146.5360 O   0  0  0  0  0  1  0  0  0  0  0  0
  190.1340  173.5170  140.0450 C   0  0  0  0  0  3  0  0  0  0  0  0
  192.4990  174.0020  143.5680 C   0  0  2  0  0  3  0  0  0  0  0  0
  192.2350  173.1290  141.2550 C   0  0  0  0  0  2  0  0  0  0  0  0
  188.2660  175.7680  143.1420 C   0  0  0  0  0  3  0  0  0  0  0  0
  193.0270  175.3450  145.6540 C   0  0  0  0  0  3  0  0  0  0  0  0
  193.5730  174.5190  144.5380 C   0  0  1  0  0  3  0  0  0  0  0  0
  190.4970  178.3140  144.1820 N   0  0  0  0  0  1  0  0  0  0  0  0
  191.1120  175.9550  144.2550 C   0  0  0  0  0  0  0  0  0  0  0  0
  193.1790  173.8120  142.2210 C   0  0  0  0  0  2  0  0  0  0  0  0
  194.7340  171.0970  145.7370 C   0  0  0  0  0  0  0  0  0  0  0  0
  196.0700  171.3630  146.0510 C   0  0  0  0  0  3  0  0  0  0  0  0
  194.4320  173.4100  145.0640 C   0  0  0  0  0  0  0  0  0  0  0  0
  196.5880  172.6500  145.8720 C   0  0  0  0  0  3  0  0  0  0  0  0
  193.9150  172.1180  145.2450 C   0  0  0  0  0  3  0  0  0  0  0  0
  195.7690  173.6720  145.3800 C   0  0  0  0  0  3  0  0  0  0  0  0
  194.2330  169.8510  145.9110 F   0  0  0  0  0  0  0  0  0  0  0  0
  187.8090  177.3000  144.9660 C   0  0  0  0  0  2  0  0  0  0  0  0
  186.4790  178.7610  142.7350 C   0  0  0  0  0  1  0  0  0  0  0  0
  186.4210  177.0720  144.5540 N   0  0  0  0  0  0  0  0  0  0  0  0
  185.8180  178.3100  144.0260 C   0  0  1  0  0  3  0  0  0  0  0  0
  185.5540  178.9390  146.4790 C   0  0  0  0  0  2  0  0  0  0  0  0
  184.8390  177.5950  146.4700 C   0  0  0  0  0  2  0  0  0  0  0  0
  185.6730  176.5460  145.7130 C   0  0  0  0  0  2  0  0  0  0  0  0
  185.7730  179.4520  145.0550 C   0  0  0  0  0  2  0  0  0  0  0  0
  1 13  1  0  0  0  0
  1  8  1  0  0  0  0
  2  8  2  0  0  0  0
  2 14  1  0  0  0  0
  3 12  1  0  0  0  0
  3 18  2  0  0  0  0
  4 15  2  0  0  0  0
  4 10  1  0  0  0  0
  5 11  1  0  0  0  0
  5  6  2  0  0  0  0
  6  2  1  0  0  0  0
  7  9  1  0  0  0  0
  7 17  1  0  0  0  0
  7 18  1  0  0  0  0
  8  3  1  0  0  0  0
  9 27  1  0  0  0  0
 11  1  2  0  0  0  0
 12 19  1  6  0  0  0
 12 16  1  0  0  0  0
 13 19  1  0  0  0  0
 14  9  2  0  0  0  0
 16 22  1  1  0  0  0
 16 15  1  0  0  0  0
 18  4  1  0  0  0  0
 20 26  1  0  0  0  0
 20 21  1  0  0  0  0
 22 24  1  0  0  0  0
 22 25  2  0  0  0  0
 23 21  2  0  0  0  0
 24 20  2  0  0  0  0
 25 23  1  0  0  0  0
 29 27  1  0  0  0  0
 29 33  1  0  0  0  0
 30 28  1  6  0  0  0
 30 29  1  0  0  0  0
 30 34  1  0  0  0  0
 32 31  1  0  0  0  0
 33 32  1  0  0  0  0
 34 31  1  0  0  0  0
M  END
>  <MODEL>
2

>  <REMARK>
 VINA RESULT:      -8.9      4.589      9.959
  Name = 
  3 active torsions:
  status: ('A' for Active; 'I' for Inactive)
    1  A    between atoms: C_3  and  N_13
    2  A    between atoms: C_3  and  C_17
    3  A    between atoms: C_12  and  C_28
                            x       y       z     vdW  Elec       q    Type
                         _______ _______ _______ _____ _____    ______ ____

>  <TORSDO>
F 3

$$$$
=
 OpenBabel11052418473D

 34 39  0  0  1  0  0  0  0  0999 V2000
  191.5190  176.0430  145.8020 C   0  0  0  0  0  0  0  0  0  0  0  0
  191.8940  173.8520  144.7980 C   0  0  0  0  0  0  0  0  0  0  0  0
  189.8170  175.2700  144.1210 C   0  0  0  0  0  0  0  0  0  0  0  0
  188.1260  174.7530  142.3990 C   0  0  0  0  0  0  0  0  0  0  0  0
  193.4700  174.7530  146.4130 C   0  0  0  0  0  3  0  0  0  0  0  0
  193.0600  173.7360  145.5620 C   0  0  0  0  0  3  0  0  0  0  0  0
  190.4190  173.7920  142.2840 N   0  0  0  0  0  0  0  0  0  0  0  0
  191.1050  175.0420  144.8750 C   0  0  0  0  0  0  0  0  0  0  0  0
  190.8760  172.5970  142.9070 C   0  0  0  0  0  0  0  0  0  0  0  0
  187.6820  173.8330  141.4580 O   0  0  0  0  0  1  0  0  0  0  0  0
  192.6910  175.8940  146.5430 C   0  0  0  0  0  3  0  0  0  0  0  0
  188.8630  176.3140  144.6970 C   0  0  2  0  0  3  0  0  0  0  0  0
  190.6600  177.2190  146.1590 C   0  0  0  0  0  2  0  0  0  0  0  0
  191.5620  172.6400  144.0370 C   0  0  0  0  0  3  0  0  0  0  0  0
  187.3000  175.7130  142.7920 C   0  0  0  0  0  3  0  0  0  0  0  0
  187.7560  176.7750  143.7360 C   0  0  1  0  0  3  0  0  0  0  0  0
  190.5610  173.9370  140.8970 N   0  0  0  0  0  1  0  0  0  0  0  0
  189.4860  174.6230  142.9750 C   0  0  0  0  0  0  0  0  0  0  0  0
  189.6630  177.5530  145.0700 C   0  0  0  0  0  2  0  0  0  0  0  0
  184.9320  179.1210  144.7440 C   0  0  0  0  0  0  0  0  0  0  0  0
  184.4210  178.4590  145.8650 C   0  0  0  0  0  3  0  0  0  0  0  0
  186.5940  177.3730  144.4680 C   0  0  0  0  0  0  0  0  0  0  0  0
  184.9950  177.2560  146.2870 C   0  0  0  0  0  3  0  0  0  0  0  0
  186.0170  178.5810  144.0470 C   0  0  0  0  0  3  0  0  0  0  0  0
  186.0800  176.7140  145.5910 C   0  0  0  0  0  3  0  0  0  0  0  0
  184.3770  180.2870  144.3350 F   0  0  0  0  0  0  0  0  0  0  0  0
  190.6950  171.2760  142.2290 C   0  0  0  0  0  2  0  0  0  0  0  0
  191.5360  171.2230  139.3710 C   0  0  0  0  0  1  0  0  0  0  0  0
  191.9830  170.7520  141.7670 N   0  0  0  0  0  0  0  0  0  0  0  0
  191.8620  170.1710  140.4170 C   0  0  1  0  0  3  0  0  0  0  0  0
  190.8710  168.1660  141.6330 C   0  0  0  0  0  2  0  0  0  0  0  0
  192.1980  168.2950  142.3680 C   0  0  0  0  0  2  0  0  0  0  0  0
  192.4620  169.7610  142.7520 C   0  0  0  0  0  2  0  0  0  0  0  0
  190.8750  168.9940  140.3470 C   0  0  0  0  0  2  0  0  0  0  0  0
  1 13  1  0  0  0  0
  1 11  1  0  0  0  0
  2  8  1  0  0  0  0
  2  6  2  0  0  0  0
  3 12  1  0  0  0  0
  3  8  1  0  0  0  0
  4 15  2  0  0  0  0
  4 18  1  0  0  0  0
  5 11  2  0  0  0  0
  6  5  1  0  0  0  0
  7  9  1  0  0  0  0
  7 18  1  0  0  0  0
  8  1  2  0  0  0  0
  9 14  2  0  0  0  0
 10  4  1  0  0  0  0
 12 19  1  6  0  0  0
 14  2  1  0  0  0  0
 15 16  1  0  0  0  0
 16 22  1  1  0  0  0
 16 12  1  0  0  0  0
 17  7  1  0  0  0  0
 18  3  2  0  0  0  0
 19 13  1  0  0  0  0
 20 21  1  0  0  0  0
 21 23  2  0  0  0  0
 22 25  2  0  0  0  0
 24 22  1  0  0  0  0
 24 20  2  0  0  0  0
 25 23  1  0  0  0  0
 26 20  1  0  0  0  0
 27  9  1  0  0  0  0
 29 27  1  0  0  0  0
 29 33  1  0  0  0  0
 30 28  1  6  0  0  0
 30 29  1  0  0  0  0
 31 32  1  0  0  0  0
 32 33  1  0  0  0  0
 34 30  1  0  0  0  0
 34 31  1  0  0  0  0
M  END
>  <MODEL>
3

>  <REMARK>
 VINA RESULT:      -8.7      3.196      5.456
  Name = 
  3 active torsions:
  status: ('A' for Active; 'I' for Inactive)
    1  A    between atoms: C_3  and  N_13
    2  A    between atoms: C_3  and  C_17
    3  A    between atoms: C_12  and  C_28
                            x       y       z     vdW  Elec       q    Type
                         _______ _______ _______ _____ _____    ______ ____

>  <TORSDO>
F 3

$$$$
=
 OpenBabel11052418473D

 34 39  0  0  1  0  0  0  0  0999 V2000
  188.7800  174.4480  140.5330 C   0  0  0  0  0  0  0  0  0  0  0  0
  191.1210  173.9550  141.0070 C   0  0  0  0  0  0  0  0  0  0  0  0
  189.5880  174.9590  142.8580 C   0  0  0  0  0  0  0  0  0  0  0  0
  190.1510  175.3910  145.2210 C   0  0  0  0  0  0  0  0  0  0  0  0
  190.1830  173.4840  138.8160 C   0  0  0  0  0  3  0  0  0  0  0  0
  191.2590  173.4950  139.6930 C   0  0  0  0  0  3  0  0  0  0  0  0
  191.3740  173.6740  143.8970 N   0  0  0  0  0  0  0  0  0  0  0  0
  189.8500  174.4150  141.4730 C   0  0  0  0  0  0  0  0  0  0  0  0
  192.5120  173.8860  143.0690 C   0  0  0  0  0  0  0  0  0  0  0  0
  191.1410  175.3590  146.1960 O   0  0  0  0  0  1  0  0  0  0  0  0
  188.9530  173.9750  139.2310 C   0  0  0  0  0  3  0  0  0  0  0  0
  188.3700  175.8650  143.0170 C   0  0  2  0  0  3  0  0  0  0  0  0
  187.4750  175.1290  140.8170 C   0  0  0  0  0  2  0  0  0  0  0  0
  192.3840  173.9910  141.7560 C   0  0  0  0  0  3  0  0  0  0  0  0
  189.0560  176.1040  145.4470 C   0  0  0  0  0  3  0  0  0  0  0  0
  187.9290  176.1030  144.4690 C   0  0  1  0  0  3  0  0  0  0  0  0
  191.4480  172.7290  144.9300 N   0  0  0  0  0  1  0  0  0  0  0  0
  190.3510  174.6690  143.9420 C   0  0  0  0  0  0  0  0  0  0  0  0
  187.1900  175.2280  142.3000 C   0  0  0  0  0  2  0  0  0  0  0  0
  185.7890  178.8830  145.9500 C   0  0  0  0  0  0  0  0  0  0  0  0
  185.5630  179.6760  144.8210 C   0  0  0  0  0  3  0  0  0  0  0  0
  187.1020  177.3450  144.6060 C   0  0  0  0  0  0  0  0  0  0  0  0
  186.1050  179.3060  143.5860 C   0  0  0  0  0  3  0  0  0  0  0  0
  186.5570  177.7190  145.8440 C   0  0  0  0  0  3  0  0  0  0  0  0
  186.8730  178.1420  143.4790 C   0  0  0  0  0  3  0  0  0  0  0  0
  185.2640  179.2410  147.1450 F   0  0  0  0  0  0  0  0  0  0  0  0
  193.8870  173.8700  143.6570 C   0  0  0  0  0  2  0  0  0  0  0  0
  196.7840  174.1120  143.0060 C   0  0  0  0  0  1  0  0  0  0  0  0
  194.5650  175.1470  143.4180 N   0  0  0  0  0  0  0  0  0  0  0  0
  195.9750  175.0830  143.8480 C   0  0  1  0  0  3  0  0  0  0  0  0
  195.0210  175.4100  146.1870 C   0  0  0  0  0  2  0  0  0  0  0  0
  194.4200  176.6180  145.4820 C   0  0  0  0  0  2  0  0  0  0  0  0
  193.8210  176.2080  144.1260 C   0  0  0  0  0  2  0  0  0  0  0  0
  196.1400  174.7880  145.3490 C   0  0  0  0  0  2  0  0  0  0  0  0
  1 13  1  0  0  0  0
  1  8  1  0  0  0  0
  2  8  2  0  0  0  0
  2 14  1  0  0  0  0
  3 12  1  0  0  0  0
  3 18  2  0  0  0  0
  4 15  2  0  0  0  0
  4 10  1  0  0  0  0
  5 11  1  0  0  0  0
  5  6  2  0  0  0  0
  6  2  1  0  0  0  0
  7 18  1  0  0  0  0
  7 17  1  0  0  0  0
  8  3  1  0  0  0  0
  9 27  1  0  0  0  0
  9  7  1  0  0  0  0
 11  1  2  0  0  0  0
 12 19  1  6  0  0  0
 12 16  1  0  0  0  0
 13 19  1  0  0  0  0
 14  9  2  0  0  0  0
 16 22  1  6  0  0  0
 16 15  1  0  0  0  0
 18  4  1  0  0  0  0
 20 26  1  0  0  0  0
 21 20  2  0  0  0  0
 22 24  2  0  0  0  0
 23 21  1  0  0  0  0
 24 20  1  0  0  0  0
 25 23  2  0  0  0  0
 25 22  1  0  0  0  0
 29 27  1  0  0  0  0
 29 30  1  0  0  0  0
 29 33  1  0  0  0  0
 30 28  1  6  0  0  0
 30 34  1  0  0  0  0
 32 31  1  0  0  0  0
 33 32  1  0  0  0  0
 34 31  1  0  0  0  0
M  END
>  <MODEL>
4

>  <REMARK>
 VINA RESULT:      -8.3      3.629      6.645
  Name = 
  3 active torsions:
  status: ('A' for Active; 'I' for Inactive)
    1  A    between atoms: C_3  and  N_13
    2  A    between atoms: C_3  and  C_17
    3  A    between atoms: C_12  and  C_28
                            x       y       z     vdW  Elec       q    Type
                         _______ _______ _______ _____ _____    ______ ____

>  <TORSDO>
F 3

$$$$
=
 OpenBabel11052418473D

 34 39  0  0  1  0  0  0  0  0999 V2000
  192.5090  176.4120  146.8660 C   0  0  0  0  0  0  0  0  0  0  0  0
  190.2090  176.9910  146.2960 C   0  0  0  0  0  0  0  0  0  0  0  0
  191.7340  175.7980  144.5550 C   0  0  0  0  0  0  0  0  0  0  0  0
  191.1190  174.9880  142.3060 C   0  0  0  0  0  0  0  0  0  0  0  0
  191.0940  177.4880  148.5040 C   0  0  0  0  0  3  0  0  0  0  0  0
  190.0580  177.5260  147.5800 C   0  0  0  0  0  3  0  0  0  0  0  0
  189.4060  175.2630  144.0910 N   0  0  0  0  0  0  0  0  0  0  0  0
  191.4460  176.3810  145.9170 C   0  0  0  0  0  0  0  0  0  0  0  0
  188.6850  176.4480  144.4070 C   0  0  0  0  0  0  0  0  0  0  0  0
  190.1190  174.8980  141.3460 O   0  0  0  0  0  1  0  0  0  0  0  0
  192.3190  176.9480  148.1400 C   0  0  0  0  0  3  0  0  0  0  0  0
  193.2040  175.6790  144.1590 C   0  0  2  0  0  3  0  0  0  0  0  0
  193.9160  176.0320  146.5150 C   0  0  0  0  0  2  0  0  0  0  0  0
  189.0490  177.2130  145.4230 C   0  0  0  0  0  3  0  0  0  0  0  0
  192.3750  174.7690  141.9420 C   0  0  0  0  0  3  0  0  0  0  0  0
  193.4750  174.7700  142.9500 C   0  0  1  0  0  3  0  0  0  0  0  0
  188.6970  174.0930  143.7840 N   0  0  0  0  0  1  0  0  0  0  0  0
  190.7750  175.3650  143.6980 C   0  0  0  0  0  0  0  0  0  0  0  0
  193.9790  175.0940  145.3300 C   0  0  0  0  0  2  0  0  0  0  0  0
  196.9810  174.3830  141.5160 C   0  0  0  0  0  0  0  0  0  0  0  0
  197.2410  175.6890  141.0910 C   0  0  0  0  0  3  0  0  0  0  0  0
  194.7910  175.0760  142.3040 C   0  0  0  0  0  0  0  0  0  0  0  0
  196.2790  176.6880  141.2720 C   0  0  0  0  0  3  0  0  0  0  0  0
  195.7590  174.0760  142.1220 C   0  0  0  0  0  3  0  0  0  0  0  0
  195.0560  176.3820  141.8780 C   0  0  0  0  0  3  0  0  0  0  0  0
  197.9120  173.4160  141.3420 F   0  0  0  0  0  0  0  0  0  0  0  0
  187.4280  176.7850  143.6700 C   0  0  0  0  0  2  0  0  0  0  0  0
  185.9120  179.2040  144.5250 C   0  0  0  0  0  1  0  0  0  0  0  0
  187.5450  178.0930  143.0200 N   0  0  0  0  0  0  0  0  0  0  0  0
  186.2730  178.8350  143.0960 C   0  0  1  0  0  3  0  0  0  0  0  0
  185.5650  177.3370  141.1630 C   0  0  0  0  0  2  0  0  0  0  0  0
  186.8420  177.9310  140.5860 C   0  0  0  0  0  2  0  0  0  0  0  0
  187.9770  177.8820  141.6240 C   0  0  0  0  0  2  0  0  0  0  0  0
  185.1070  178.1170  142.3960 C   0  0  0  0  0  2  0  0  0  0  0  0
  1 11  1  0  0  0  0
  2  6  2  0  0  0  0
  3  8  1  0  0  0  0
  4 18  1  0  0  0  0
  6  5  1  0  0  0  0
  7  9  1  0  0  0  0
  8  2  1  0  0  0  0
  8  1  2  0  0  0  0
  9 14  2  0  0  0  0
 10  4  1  0  0  0  0
 11  5  2  0  0  0  0
 12  3  1  0  0  0  0
 12 19  1  1  0  0  0
 13  1  1  0  0  0  0
 14  2  1  0  0  0  0
 15  4  2  0  0  0  0
 15 16  1  0  0  0  0
 16 22  1  6  0  0  0
 16 12  1  0  0  0  0
 17  7  1  0  0  0  0
 18  7  1  0  0  0  0
 18  3  2  0  0  0  0
 19 13  1  0  0  0  0
 20 24  1  0  0  0  0
 21 23  1  0  0  0  0
 21 20  2  0  0  0  0
 23 25  2  0  0  0  0
 24 22  2  0  0  0  0
 25 22  1  0  0  0  0
 26 20  1  0  0  0  0
 27  9  1  0  0  0  0
 29 30  1  0  0  0  0
 29 27  1  0  0  0  0
 30 28  1  1  0  0  0
 31 34  1  0  0  0  0
 32 31  1  0  0  0  0
 32 33  1  0  0  0  0
 33 29  1  0  0  0  0
 34 30  1  0  0  0  0
M  END
>  <MODEL>
5

>  <REMARK>
 VINA RESULT:      -8.1      4.922      9.220
  Name = 
  3 active torsions:
  status: ('A' for Active; 'I' for Inactive)
    1  A    between atoms: C_3  and  N_13
    2  A    between atoms: C_3  and  C_17
    3  A    between atoms: C_12  and  C_28
                            x       y       z     vdW  Elec       q    Type
                         _______ _______ _______ _____ _____    ______ ____

>  <TORSDO>
F 3

$$$$
=
 OpenBabel11052418473D

 34 39  0  0  1  0  0  0  0  0999 V2000
  192.5620  176.4070  145.7830 C   0  0  0  0  0  0  0  0  0  0  0  0
  193.3670  174.3400  144.7690 C   0  0  0  0  0  0  0  0  0  0  0  0
  191.0170  175.2790  144.1520 C   0  0  0  0  0  0  0  0  0  0  0  0
  189.4270  174.4040  142.4800 C   0  0  0  0  0  0  0  0  0  0  0  0
  194.7590  175.5660  146.3380 C   0  0  0  0  0  3  0  0  0  0  0  0
  194.5510  174.4790  145.4990 C   0  0  0  0  0  3  0  0  0  0  0  0
  191.8690  173.9510  142.2990 N   0  0  0  0  0  0  0  0  0  0  0  0
  192.3450  175.3350  144.8690 C   0  0  0  0  0  0  0  0  0  0  0  0
  192.5870  172.8850  142.9080 C   0  0  0  0  0  0  0  0  0  0  0  0
  189.1630  173.4030  141.5510 O   0  0  0  0  0  1  0  0  0  0  0  0
  193.7600  176.5160  146.4900 C   0  0  0  0  0  3  0  0  0  0  0  0
  189.8800  176.1000  144.7540 C   0  0  2  0  0  3  0  0  0  0  0  0
  191.4830  177.3750  146.1640 C   0  0  0  0  0  2  0  0  0  0  0  0
  193.2790  173.0800  144.0180 C   0  0  0  0  0  3  0  0  0  0  0  0
  188.4270  175.1680  142.8960 C   0  0  0  0  0  3  0  0  0  0  0  0
  188.6730  176.3080  143.8260 C   0  0  1  0  0  3  0  0  0  0  0  0
  191.9370  174.1140  140.9080 N   0  0  0  0  0  1  0  0  0  0  0  0
  190.7990  174.5700  143.0160 C   0  0  0  0  0  0  0  0  0  0  0  0
  190.4080  177.4830  145.1050 C   0  0  0  0  0  2  0  0  0  0  0  0
  186.1860  176.7700  146.6720 C   0  0  0  0  0  0  0  0  0  0  0  0
  185.0910  177.3030  145.9860 C   0  0  0  0  0  3  0  0  0  0  0  0
  187.4320  176.6500  144.5910 C   0  0  0  0  0  0  0  0  0  0  0  0
  185.1650  177.5110  144.6050 C   0  0  0  0  0  3  0  0  0  0  0  0
  187.3550  176.4430  145.9770 C   0  0  0  0  0  3  0  0  0  0  0  0
  186.3330  177.1840  143.9090 C   0  0  0  0  0  3  0  0  0  0  0  0
  186.1150  176.5690  148.0090 F   0  0  0  0  0  0  0  0  0  0  0  0
  192.6720  171.5510  142.2360 C   0  0  0  0  0  2  0  0  0  0  0  0
  193.5900  169.6210  144.3110 C   0  0  0  0  0  1  0  0  0  0  0  0
  191.7910  170.5830  142.8960 N   0  0  0  0  0  0  0  0  0  0  0  0
  192.5300  169.3580  143.2540 C   0  0  1  0  0  3  0  0  0  0  0  0
  192.2430  168.7570  140.7970 C   0  0  0  0  0  2  0  0  0  0  0  0
  190.7910  168.9970  141.1840 C   0  0  0  0  0  2  0  0  0  0  0  0
  190.6560  170.2970  141.9950 C   0  0  0  0  0  2  0  0  0  0  0  0
  193.1270  168.6300  142.0390 C   0  0  0  0  0  2  0  0  0  0  0  0
  1 13  1  0  0  0  0
  1 11  1  0  0  0  0
  2  8  1  0  0  0  0
  2  6  2  0  0  0  0
  3 12  1  0  0  0  0
  3  8  1  0  0  0  0
  4 15  2  0  0  0  0
  4 18  1  0  0  0  0
  5 11  2  0  0  0  0
  6  5  1  0  0  0  0
  7  9  1  0  0  0  0
  7 18  1  0  0  0  0
  8  1  2  0  0  0  0
  9 14  2  0  0  0  0
 10  4  1  0  0  0  0
 12 19  1  6  0  0  0
 14  2  1  0  0  0  0
 15 16  1  0  0  0  0
 16 22  1  1  0  0  0
 16 12  1  0  0  0  0
 17  7  1  0  0  0  0
 18  3  2  0  0  0  0
 19 13  1  0  0  0  0
 20 26  1  0  0  0  0
 21 20  1  0  0  0  0
 22 24  1  0  0  0  0
 23 21  2  0  0  0  0
 24 20  2  0  0  0  0
 25 22  2  0  0  0  0
 25 23  1  0  0  0  0
 27 29  1  0  0  0  0
 27  9  1  0  0  0  0
 29 30  1  0  0  0  0
 30 28  1  1  0  0  0
 31 32  1  0  0  0  0
 31 34  1  0  0  0  0
 32 33  1  0  0  0  0
 33 29  1  0  0  0  0
 34 30  1  0  0  0  0
M  END
>  <MODEL>
6

>  <REMARK>
 VINA RESULT:      -7.9      3.745      6.182
  Name = 
  3 active torsions:
  status: ('A' for Active; 'I' for Inactive)
    1  A    between atoms: C_3  and  N_13
    2  A    between atoms: C_3  and  C_17
    3  A    between atoms: C_12  and  C_28
                            x       y       z     vdW  Elec       q    Type
                         _______ _______ _______ _____ _____    ______ ____

>  <TORSDO>
F 3

$$$$
=
 OpenBabel11052418473D

 34 39  0  0  1  0  0  0  0  0999 V2000
  188.0940  177.4430  142.6880 C   0  0  0  0  0  0  0  0  0  0  0  0
  187.8470  175.8680  140.8410 C   0  0  0  0  0  0  0  0  0  0  0  0
  189.4960  175.3590  142.7910 C   0  0  0  0  0  0  0  0  0  0  0  0
  190.8400  173.3190  143.1460 C   0  0  0  0  0  0  0  0  0  0  0  0
  186.5340  177.9120  140.9020 C   0  0  0  0  0  3  0  0  0  0  0  0
  186.9020  176.7290  140.2740 C   0  0  0  0  0  3  0  0  0  0  0  0
  188.7450  173.2670  141.8010 N   0  0  0  0  0  0  0  0  0  0  0  0
  188.4470  176.1940  142.0980 C   0  0  0  0  0  0  0  0  0  0  0  0
  188.6160  173.5420  140.4110 C   0  0  0  0  0  0  0  0  0  0  0  0
  191.2070  172.0770  142.6410 O   0  0  0  0  0  1  0  0  0  0  0  0
  187.1420  178.2730  142.0950 C   0  0  0  0  0  3  0  0  0  0  0  0
  190.3820  176.0780  143.8050 C   0  0  2  0  0  3  0  0  0  0  0  0
  188.8230  178.0140  143.8660 C   0  0  0  0  0  2  0  0  0  0  0  0
  188.1880  174.7210  139.9900 C   0  0  0  0  0  3  0  0  0  0  0  0
  191.5770  173.8610  144.1050 C   0  0  0  0  0  3  0  0  0  0  0  0
  191.1780  175.1520  144.7380 C   0  0  1  0  0  3  0  0  0  0  0  0
  188.2920  172.0370  142.2990 N   0  0  0  0  0  1  0  0  0  0  0  0
  189.6690  174.0300  142.5790 C   0  0  0  0  0  0  0  0  0  0  0  0
  189.5040  176.9460  144.6940 C   0  0  0  0  0  2  0  0  0  0  0  0
  194.5920  176.7910  145.1300 C   0  0  0  0  0  0  0  0  0  0  0  0
  194.5670  177.1400  146.4840 C   0  0  0  0  0  3  0  0  0  0  0  0
  192.3660  175.8440  145.3330 C   0  0  0  0  0  0  0  0  0  0  0  0
  193.4440  176.8430  147.2620 C   0  0  0  0  0  3  0  0  0  0  0  0
  193.4950  176.1430  144.5550 C   0  0  0  0  0  3  0  0  0  0  0  0
  192.3450  176.1950  146.6880 C   0  0  0  0  0  3  0  0  0  0  0  0
  195.6800  177.0780  144.3770 F   0  0  0  0  0  0  0  0  0  0  0  0
  188.8450  172.4610  139.4030 C   0  0  0  0  0  2  0  0  0  0  0  0
  190.6030  173.7900  137.3980 C   0  0  0  0  0  1  0  0  0  0  0  0
  190.2770  172.1820  139.2620 N   0  0  0  0  0  0  0  0  0  0  0  0
  190.7100  172.3470  137.8610 C   0  0  1  0  0  3  0  0  0  0  0  0
  189.6790  170.0440  137.5270 C   0  0  0  0  0  2  0  0  0  0  0  0
  190.6420  169.7420  138.6660 C   0  0  0  0  0  2  0  0  0  0  0  0
  190.5370  170.8170  139.7610 C   0  0  0  0  0  2  0  0  0  0  0  0
  189.9940  171.3970  136.8870 C   0  0  0  0  0  2  0  0  0  0  0  0
  1 13  1  0  0  0  0
  2  8  2  0  0  0  0
  3 12  1  0  0  0  0
  4 15  2  0  0  0  0
  5 11  1  0  0  0  0
  6  2  1  0  0  0  0
  6  5  2  0  0  0  0
  7 17  1  0  0  0  0
  7 18  1  0  0  0  0
  8  1  1  0  0  0  0
  8  3  1  0  0  0  0
  9  7  1  0  0  0  0
 10  4  1  0  0  0  0
 11  1  2  0  0  0  0
 12 19  1  1  0  0  0
 12 16  1  0  0  0  0
 13 19  1  0  0  0  0
 14  9  2  0  0  0  0
 14  2  1  0  0  0  0
 15 16  1  0  0  0  0
 16 22  1  6  0  0  0
 18  3  2  0  0  0  0
 18  4  1  0  0  0  0
 20 21  1  0  0  0  0
 21 23  2  0  0  0  0
 22 25  2  0  0  0  0
 24 20  2  0  0  0  0
 24 22  1  0  0  0  0
 25 23  1  0  0  0  0
 26 20  1  0  0  0  0
 27  9  1  0  0  0  0
 29 27  1  0  0  0  0
 29 33  1  0  0  0  0
 30 28  1  6  0  0  0
 30 29  1  0  0  0  0
 31 32  1  0  0  0  0
 32 33  1  0  0  0  0
 34 31  1  0  0  0  0
 34 30  1  0  0  0  0
M  END
>  <MODEL>
7

>  <REMARK>
 VINA RESULT:      -7.9      4.597      8.074
  Name = 
  3 active torsions:
  status: ('A' for Active; 'I' for Inactive)
    1  A    between atoms: C_3  and  N_13
    2  A    between atoms: C_3  and  C_17
    3  A    between atoms: C_12  and  C_28
                            x       y       z     vdW  Elec       q    Type
                         _______ _______ _______ _____ _____    ______ ____

>  <TORSDO>
F 3

$$$$
=
 OpenBabel11052418473D

 34 39  0  0  1  0  0  0  0  0999 V2000
  189.4080  173.5760  140.1980 C   0  0  0  0  0  0  0  0  0  0  0  0
  191.8230  173.6210  139.8560 C   0  0  0  0  0  0  0  0  0  0  0  0
  190.8120  174.2320  142.1770 C   0  0  0  0  0  0  0  0  0  0  0  0
  192.0190  174.7560  144.2650 C   0  0  0  0  0  0  0  0  0  0  0  0
  190.3340  172.9720  138.0480 C   0  0  0  0  0  3  0  0  0  0  0  0
  191.6120  173.2180  138.5340 C   0  0  0  0  0  3  0  0  0  0  0  0
  193.0690  173.3740  142.4790 N   0  0  0  0  0  0  0  0  0  0  0  0
  190.7100  173.7760  140.7410 C   0  0  0  0  0  0  0  0  0  0  0  0
  193.7970  173.8470  141.3520 C   0  0  0  0  0  0  0  0  0  0  0  0
  193.2590  174.9390  144.8660 O   0  0  0  0  0  1  0  0  0  0  0  0
  189.2370  173.1680  138.8750 C   0  0  0  0  0  3  0  0  0  0  0  0
  189.5530  174.8370  142.7930 C   0  0  2  0  0  3  0  0  0  0  0  0
  188.1580  173.9400  140.9400 C   0  0  0  0  0  2  0  0  0  0  0  0
  193.2240  173.9340  140.1630 C   0  0  0  0  0  3  0  0  0  0  0  0
  190.9370  175.2010  144.8870 C   0  0  0  0  0  3  0  0  0  0  0  0
  189.5770  174.9540  144.3250 C   0  0  1  0  0  3  0  0  0  0  0  0
  193.6770  172.4600  143.3510 N   0  0  0  0  0  1  0  0  0  0  0  0
  191.9330  174.1120  142.9330 C   0  0  0  0  0  0  0  0  0  0  0  0
  188.3640  173.9560  142.4400 C   0  0  0  0  0  2  0  0  0  0  0  0
  187.0840  176.8080  146.5270 C   0  0  0  0  0  0  0  0  0  0  0  0
  186.7790  177.9070  145.7180 C   0  0  0  0  0  3  0  0  0  0  0  0
  188.6000  175.9750  144.8230 C   0  0  0  0  0  0  0  0  0  0  0  0
  187.3840  178.0420  144.4640 C   0  0  0  0  0  3  0  0  0  0  0  0
  187.9920  175.8430  146.0810 C   0  0  0  0  0  3  0  0  0  0  0  0
  188.2920  177.0770  144.0170 C   0  0  0  0  0  3  0  0  0  0  0  0
  186.4990  176.6770  147.7410 F   0  0  0  0  0  0  0  0  0  0  0  0
  195.2600  174.1360  141.4660 C   0  0  0  0  0  2  0  0  0  0  0  0
  197.2630  175.1330  139.4980 C   0  0  0  0  0  1  0  0  0  0  0  0
  195.5260  175.5570  141.2210 N   0  0  0  0  0  0  0  0  0  0  0  0
  196.9340  175.7700  140.8380 C   0  0  1  0  0  3  0  0  0  0  0  0
  197.3910  175.5610  143.3340 C   0  0  0  0  0  2  0  0  0  0  0  0
  196.3540  176.6740  143.3450 C   0  0  0  0  0  2  0  0  0  0  0  0
  195.1660  176.3130  142.4370 C   0  0  0  0  0  2  0  0  0  0  0  0
  197.9330  175.3320  141.9220 C   0  0  0  0  0  2  0  0  0  0  0  0
  1  8  1  0  0  0  0
  1 13  1  0  0  0  0
  2 14  1  0  0  0  0
  2  8  2  0  0  0  0
  3 12  1  0  0  0  0
  3 18  2  0  0  0  0
  4 10  1  0  0  0  0
  4 15  2  0  0  0  0
  5  6  2  0  0  0  0
  5 11  1  0  0  0  0
  6  2  1  0  0  0  0
  7 18  1  0  0  0  0
  7 17  1  0  0  0  0
  8  3  1  0  0  0  0
  9 27  1  0  0  0  0
  9  7  1  0  0  0  0
 11  1  2  0  0  0  0
 12 19  1  1  0  0  0
 12 16  1  0  0  0  0
 13 19  1  0  0  0  0
 14  9  2  0  0  0  0
 16 22  1  6  0  0  0
 16 15  1  0  0  0  0
 18  4  1  0  0  0  0
 20 26  1  0  0  0  0
 21 20  2  0  0  0  0
 22 24  2  0  0  0  0
 23 21  1  0  0  0  0
 24 20  1  0  0  0  0
 25 23  2  0  0  0  0
 25 22  1  0  0  0  0
 29 27  1  0  0  0  0
 29 33  1  0  0  0  0
 30 28  1  6  0  0  0
 30 29  1  0  0  0  0
 30 34  1  0  0  0  0
 31 32  1  0  0  0  0
 33 32  1  0  0  0  0
 34 31  1  0  0  0  0
M  END
>  <MODEL>
8

>  <REMARK>
 VINA RESULT:      -7.6      4.482      7.797
  Name = 
  3 active torsions:
  status: ('A' for Active; 'I' for Inactive)
    1  A    between atoms: C_3  and  N_13
    2  A    between atoms: C_3  and  C_17
    3  A    between atoms: C_12  and  C_28
                            x       y       z     vdW  Elec       q    Type
                         _______ _______ _______ _____ _____    ______ ____

>  <TORSDO>
F 3

$$$$
=
 OpenBabel11052418473D

 34 39  0  0  1  0  0  0  0  0999 V2000
  194.1110  175.2460  145.5070 C   0  0  0  0  0  0  0  0  0  0  0  0
  194.5280  173.3930  143.9760 C   0  0  0  0  0  0  0  0  0  0  0  0
  192.3500  174.8060  143.7680 C   0  0  0  0  0  0  0  0  0  0  0  0
  190.5860  174.6260  142.0510 C   0  0  0  0  0  0  0  0  0  0  0  0
  196.1530  173.9650  145.6900 C   0  0  0  0  0  3  0  0  0  0  0  0
  195.7410  173.1630  144.6340 C   0  0  0  0  0  3  0  0  0  0  0  0
  192.9110  173.8610  141.5970 N   0  0  0  0  0  0  0  0  0  0  0  0
  193.6900  174.4790  144.3820 C   0  0  0  0  0  0  0  0  0  0  0  0
  193.4590  172.5790  141.8830 C   0  0  0  0  0  0  0  0  0  0  0  0
  190.1300  173.9390  140.9320 O   0  0  0  0  0  1  0  0  0  0  0  0
  195.3310  174.9910  146.1340 C   0  0  0  0  0  3  0  0  0  0  0  0
  191.3850  175.6190  144.6260 C   0  0  2  0  0  3  0  0  0  0  0  0
  193.2210  176.2450  146.1830 C   0  0  0  0  0  2  0  0  0  0  0  0
  194.2080  172.3860  142.9560 C   0  0  0  0  0  3  0  0  0  0  0  0
  189.7410  175.4100  142.7060 C   0  0  0  0  0  3  0  0  0  0  0  0
  190.2020  176.2340  143.8620 C   0  0  1  0  0  3  0  0  0  0  0  0
  192.9630  174.3490  140.2830 N   0  0  0  0  0  1  0  0  0  0  0  0
  191.9820  174.4410  142.5140 C   0  0  0  0  0  0  0  0  0  0  0  0
  192.1460  176.7750  145.2580 C   0  0  0  0  0  2  0  0  0  0  0  0
  187.1430  177.9350  145.3610 C   0  0  0  0  0  0  0  0  0  0  0  0
  186.9320  177.1500  146.4980 C   0  0  0  0  0  3  0  0  0  0  0  0
  189.0590  176.5640  144.7720 C   0  0  0  0  0  0  0  0  0  0  0  0
  187.7810  176.0730  146.7730 C   0  0  0  0  0  3  0  0  0  0  0  0
  188.2050  177.6440  144.4990 C   0  0  0  0  0  3  0  0  0  0  0  0
  188.8440  175.7820  145.9110 C   0  0  0  0  0  3  0  0  0  0  0  0
  186.3210  178.9770  145.0950 F   0  0  0  0  0  0  0  0  0  0  0  0
  193.3000  171.4560  140.9080 C   0  0  0  0  0  2  0  0  0  0  0  0
  194.2850  168.8280  141.9060 C   0  0  0  0  0  1  0  0  0  0  0  0
  192.4290  170.4150  141.4590 N   0  0  0  0  0  0  0  0  0  0  0  0
  192.9730  169.0720  141.1810 C   0  0  1  0  0  3  0  0  0  0  0  0
  191.9910  169.4210  138.8580 C   0  0  0  0  0  2  0  0  0  0  0  0
  190.7520  169.6570  139.7100 C   0  0  0  0  0  2  0  0  0  0  0  0
  191.0770  170.5890  140.8890 C   0  0  0  0  0  2  0  0  0  0  0  0
  193.1030  168.7670  139.6800 C   0  0  0  0  0  2  0  0  0  0  0  0
  1 11  1  0  0  0  0
  1 13  1  0  0  0  0
  2  8  1  0  0  0  0
  2  6  2  0  0  0  0
  3  8  1  0  0  0  0
  3 12  1  0  0  0  0
  4 18  1  0  0  0  0
  4 15  2  0  0  0  0
  5 11  2  0  0  0  0
  6  5  1  0  0  0  0
  7  9  1  0  0  0  0
  7 18  1  0  0  0  0
  8  1  2  0  0  0  0
  9 14  2  0  0  0  0
 10  4  1  0  0  0  0
 12 19  1  6  0  0  0
 14  2  1  0  0  0  0
 15 16  1  0  0  0  0
 16 12  1  0  0  0  0
 16 22  1  1  0  0  0
 17  7  1  0  0  0  0
 18  3  2  0  0  0  0
 19 13  1  0  0  0  0
 20 21  1  0  0  0  0
 21 23  2  0  0  0  0
 22 25  2  0  0  0  0
 24 22  1  0  0  0  0
 24 20  2  0  0  0  0
 25 23  1  0  0  0  0
 26 20  1  0  0  0  0
 27 29  1  0  0  0  0
 27  9  1  0  0  0  0
 30 29  1  0  0  0  0
 30 28  1  1  0  0  0
 31 34  1  0  0  0  0
 31 32  1  0  0  0  0
 32 33  1  0  0  0  0
 33 29  1  0  0  0  0
 34 30  1  0  0  0  0
M  END
>  <MODEL>
9

>  <REMARK>
 VINA RESULT:      -7.6      4.412      7.291
  Name = 
  3 active torsions:
  status: ('A' for Active; 'I' for Inactive)
    1  A    between atoms: C_3  and  N_13
    2  A    between atoms: C_3  and  C_17
    3  A    between atoms: C_12  and  C_28
                            x       y       z     vdW  Elec       q    Type
                         _______ _______ _______ _____ _____    ______ ____

>  <TORSDO>
F 3

$$$$
