=
 OpenBabel11052419013D

 34 36  0  0  1  0  0  0  0  0999 V2000
  189.9380  174.5090  144.0670 C   0  0  1  0  0  3  0  0  0  0  0  0
  189.1930  173.4460  143.2720 C   0  0  2  0  0  3  0  0  0  0  0  0
  189.0730  173.6650  141.0800 N   0  0  0  0  0  0  0  0  0  0  0  0
  188.2260  174.5370  139.1120 O   0  0  0  0  0  0  0  0  0  0  0  0
  189.3330  172.5430  138.8950 O   0  0  0  0  0  0  0  0  0  0  0  0
  190.0060  170.3730  138.6250 O   0  0  0  0  0  0  0  0  0  0  0  0
  189.9860  173.0820  142.0630 C   0  0  2  0  0  3  0  0  0  0  0  0
  188.8830  173.6210  139.6700 C   0  0  0  0  0  0  0  0  0  0  0  0
  190.8870  171.3810  140.5720 C   0  0  0  0  0  2  0  0  0  0  0  0
  190.0320  171.4080  139.3410 C   0  0  0  0  0  0  0  0  0  0  0  0
  190.0820  171.5900  141.8390 C   0  0  0  0  0  2  0  0  0  0  0  0
  188.3080  174.0980  142.2590 C   0  0  0  0  0  2  0  0  0  0  0  0
  189.3260  174.6780  145.3770 N   0  0  0  0  0  2  0  0  0  0  0  0
  188.5760  175.8450  145.7220 C   0  0  0  0  0  0  0  0  0  0  0  0
  188.1250  175.9670  146.8900 O   0  0  0  0  0  0  0  0  0  0  0  0
  188.2760  176.8940  144.7050 C   0  0  0  0  0  2  0  0  0  0  0  0
  186.7800  177.1530  144.6750 C   0  0  0  0  0  2  0  0  0  0  0  0
  185.9790  178.7920  147.0060 C   0  0  0  0  0  1  0  0  0  0  0  0
  186.4900  178.6450  144.5170 C   0  0  2  0  0  3  0  0  0  0  0  0
  185.5320  179.1670  145.6030 C   0  0  1  0  0  3  0  0  0  0  0  0
  183.6750  179.1430  144.0790 O   0  0  0  0  0  0  0  0  0  0  0  0
  184.4230  178.4620  143.1020 C   0  0  0  0  0  2  0  0  0  0  0  0
  185.8850  178.9250  143.1370 C   0  0  0  0  0  2  0  0  0  0  0  0
  184.1090  178.6720  145.3320 C   0  0  0  0  0  2  0  0  0  0  0  0
  191.6850  174.0420  144.2730 S   0  0  0  0  0  0  0  0  0  0  0  0
  192.2830  175.5150  143.3890 C   0  0  0  0  0  2  0  0  0  0  0  0
  192.3750  176.7090  144.3360 C   0  0  0  0  0  2  0  0  0  0  0  0
  192.5500  176.3120  145.8100 C   0  0  1  0  0  3  0  0  0  0  0  0
  194.5410  177.6900  145.7700 O   0  0  0  0  0  1  0  0  0  0  0  0
  194.8490  175.3530  146.1450 C   0  0  0  0  0  1  0  0  0  0  0  0
  193.9590  176.5630  146.3560 C   0  0  2  0  0  3  0  0  0  0  0  0
  191.5900  176.9170  146.6270 O   0  0  0  0  0  0  0  0  0  0  0  0
  191.8570  176.4420  147.9120 C   0  0  0  0  0  2  0  0  0  0  0  0
  191.2140  175.2170  148.0950 O   0  0  0  0  0  1  0  0  0  0  0  0
  1 25  1  1  0  0  0
  1 13  1  0  0  0  0
  2  1  1  1  0  0  0
  3  7  1  0  0  0  0
  3 12  1  0  0  0  0
  4  8  2  0  0  0  0
  5 10  1  0  0  0  0
  5  8  1  0  0  0  0
  6 10  2  0  0  0  0
  7 11  1  6  0  0  0
  7  2  1  0  0  0  0
  8  3  1  0  0  0  0
  9 11  1  0  0  0  0
 10  9  1  0  0  0  0
 12  2  1  0  0  0  0
 13 14  1  0  0  0  0
 14 15  2  0  0  0  0
 16 14  1  0  0  0  0
 17 16  1  0  0  0  0
 19 17  1  1  0  0  0
 19 20  1  0  0  0  0
 20 18  1  1  0  0  0
 21 24  1  0  0  0  0
 22 23  1  0  0  0  0
 22 21  1  0  0  0  0
 23 19  1  0  0  0  0
 24 20  1  0  0  0  0
 26 25  1  0  0  0  0
 26 27  1  0  0  0  0
 28 27  1  6  0  0  0
 28 31  1  0  0  0  0
 28 32  1  0  0  0  0
 29 31  1  0  0  0  0
 31 30  1  6  0  0  0
 32 33  1  0  0  0  0
 33 34  1  0  0  0  0
M  END
>  <MODEL>
1

>  <REMARK>
 VINA RESULT:      -6.6      0.000      0.000
  Name = 
  12 active torsions:
  status: ('A' for Active; 'I' for Inactive)
    1  A    between atoms: O_1  and  C_15
    2  A    between atoms: O_1  and  C_24
    3  A    between atoms: C_2  and  C_15
    4  A    between atoms: C_2  and  C_25
    5  A    between atoms: C_3  and  C_13
    6  A    between atoms: C_3  and  C_17
    7  A    between atoms: C_4  and  C_31
    8  A    between atoms: N_5  and  C_31
    9  A    between atoms: S_10  and  C_25
   10  A    between atoms: S_10  and  C_31
   11  A    between atoms: C_15  and  C_19
   12  A    between atoms: C_17  and  C_18
                            x       y       z     vdW  Elec       q    Type
                         _______ _______ _______ _____ _____    ______ ____

>  <TORSDO>
F 12

$$$$
=
 OpenBabel11052419013D

 34 36  0  0  1  0  0  0  0  0999 V2000
  188.2460  174.2890  142.2410 C   0  0  1  0  0  3  0  0  0  0  0  0
  189.5090  174.1100  143.0710 C   0  0  2  0  0  3  0  0  0  0  0  0
  190.2800  175.8430  144.1960 N   0  0  0  0  0  0  0  0  0  0  0  0
  191.4170  177.8450  144.4270 O   0  0  0  0  0  0  0  0  0  0  0  0
  191.1360  176.6570  146.3660 O   0  0  0  0  0  0  0  0  0  0  0  0
  191.3150  175.3720  148.2510 O   0  0  0  0  0  0  0  0  0  0  0  0
  189.3250  174.7540  144.4020 C   0  0  2  0  0  3  0  0  0  0  0  0
  190.9360  176.8270  144.9890 C   0  0  0  0  0  0  0  0  0  0  0  0
  189.5620  174.6840  146.8240 C   0  0  0  0  0  2  0  0  0  0  0  0
  190.7250  175.5690  147.1570 C   0  0  0  0  0  0  0  0  0  0  0  0
  189.7870  173.8900  145.5530 C   0  0  0  0  0  2  0  0  0  0  0  0
  190.4280  175.2680  142.8510 C   0  0  0  0  0  2  0  0  0  0  0  0
  188.2680  175.5770  141.5630 N   0  0  0  0  0  2  0  0  0  0  0  0
  187.2830  176.5830  141.8080 C   0  0  0  0  0  0  0  0  0  0  0  0
  187.3120  177.6530  141.1460 O   0  0  0  0  0  0  0  0  0  0  0  0
  186.2530  176.4070  142.8730 C   0  0  0  0  0  2  0  0  0  0  0  0
  186.5850  177.3080  144.0490 C   0  0  0  0  0  2  0  0  0  0  0  0
  184.0620  178.7840  144.5180 C   0  0  0  0  0  1  0  0  0  0  0  0
  185.7000  176.9800  145.2520 C   0  0  2  0  0  3  0  0  0  0  0  0
  184.8350  178.1790  145.6780 C   0  0  1  0  0  3  0  0  0  0  0  0
  186.3020  178.6800  147.5120 O   0  0  0  0  0  0  0  0  0  0  0  0
  187.2580  177.7500  147.0640 C   0  0  0  0  0  2  0  0  0  0  0  0
  186.5630  176.5350  146.4390 C   0  0  0  0  0  2  0  0  0  0  0  0
  185.7010  179.2350  146.3680 C   0  0  0  0  0  2  0  0  0  0  0  0
  188.1040  172.9600  141.0050 S   0  0  0  0  0  0  0  0  0  0  0  0
  188.7640  174.0020  139.6680 C   0  0  0  0  0  2  0  0  0  0  0  0
  190.0800  173.4330  139.1430 C   0  0  0  0  0  2  0  0  0  0  0  0
  190.6770  172.3380  140.0400 C   0  0  1  0  0  3  0  0  0  0  0  0
  189.7560  170.7300  138.4810 O   0  0  0  0  0  1  0  0  0  0  0  0
  190.9450  169.8590  140.3590 C   0  0  0  0  0  1  0  0  0  0  0  0
  190.8250  170.9820  139.3450 C   0  0  2  0  0  3  0  0  0  0  0  0
  191.8910  172.7370  140.6060 O   0  0  0  0  0  0  0  0  0  0  0  0
  192.3880  173.7180  139.7460 C   0  0  0  0  0  2  0  0  0  0  0  0
  193.1680  174.6180  140.4720 O   0  0  0  0  0  1  0  0  0  0  0  0
  1 25  1  6  0  0  0
  2  1  1  6  0  0  0
  2  7  1  0  0  0  0
  3  7  1  0  0  0  0
  3  8  1  0  0  0  0
  4  8  2  0  0  0  0
  5 10  1  0  0  0  0
  7 11  1  1  0  0  0
  8  5  1  0  0  0  0
  9 10  1  0  0  0  0
 10  6  2  0  0  0  0
 11  9  1  0  0  0  0
 12  2  1  0  0  0  0
 12  3  1  0  0  0  0
 13 14  1  0  0  0  0
 13  1  1  0  0  0  0
 14 16  1  0  0  0  0
 15 14  2  0  0  0  0
 16 17  1  0  0  0  0
 19 17  1  6  0  0  0
 19 20  1  0  0  0  0
 19 23  1  0  0  0  0
 20 18  1  6  0  0  0
 20 24  1  0  0  0  0
 22 21  1  0  0  0  0
 23 22  1  0  0  0  0
 24 21  1  0  0  0  0
 26 25  1  0  0  0  0
 27 26  1  0  0  0  0
 28 27  1  6  0  0  0
 28 32  1  0  0  0  0
 29 31  1  0  0  0  0
 31 28  1  0  0  0  0
 31 30  1  1  0  0  0
 33 34  1  0  0  0  0
 33 32  1  0  0  0  0
M  END
>  <MODEL>
2

>  <REMARK>
 VINA RESULT:      -6.5      2.177      6.101
  Name = 
  12 active torsions:
  status: ('A' for Active; 'I' for Inactive)
    1  A    between atoms: O_1  and  C_15
    2  A    between atoms: O_1  and  C_24
    3  A    between atoms: C_2  and  C_15
    4  A    between atoms: C_2  and  C_25
    5  A    between atoms: C_3  and  C_13
    6  A    between atoms: C_3  and  C_17
    7  A    between atoms: C_4  and  C_31
    8  A    between atoms: N_5  and  C_31
    9  A    between atoms: S_10  and  C_25
   10  A    between atoms: S_10  and  C_31
   11  A    between atoms: C_15  and  C_19
   12  A    between atoms: C_17  and  C_18
                            x       y       z     vdW  Elec       q    Type
                         _______ _______ _______ _____ _____    ______ ____

>  <TORSDO>
F 12

$$$$
=
 OpenBabel11052419013D

 34 36  0  0  1  0  0  0  0  0999 V2000
  190.5290  175.5720  144.3180 C   0  0  1  0  0  3  0  0  0  0  0  0
  191.7010  174.6270  144.0970 C   0  0  2  0  0  3  0  0  0  0  0  0
  193.6280  175.4790  143.4430 N   0  0  0  0  0  0  0  0  0  0  0  0
  195.1110  176.3400  141.8900 O   0  0  0  0  0  0  0  0  0  0  0  0
  196.0710  175.5290  143.8070 O   0  0  0  0  0  0  0  0  0  0  0  0
  197.1600  174.3600  145.4440 O   0  0  0  0  0  0  0  0  0  0  0  0
  192.9320  175.2110  144.7020 C   0  0  2  0  0  3  0  0  0  0  0  0
  194.9450  175.8250  143.0260 C   0  0  0  0  0  0  0  0  0  0  0  0
  194.9500  174.9440  146.0380 C   0  0  0  0  0  2  0  0  0  0  0  0
  196.0920  174.9090  145.0680 C   0  0  0  0  0  0  0  0  0  0  0  0
  193.7280  174.2160  145.5150 C   0  0  0  0  0  2  0  0  0  0  0  0
  192.3970  174.9730  142.8190 C   0  0  0  0  0  2  0  0  0  0  0  0
  190.7570  176.3890  145.5010 N   0  0  0  0  0  2  0  0  0  0  0  0
  189.6850  176.8520  146.3240 C   0  0  0  0  0  0  0  0  0  0  0  0
  189.9340  177.6100  147.2970 O   0  0  0  0  0  0  0  0  0  0  0  0
  188.2810  176.4090  146.0800 C   0  0  0  0  0  2  0  0  0  0  0  0
  187.4900  177.5540  145.4740 C   0  0  0  0  0  2  0  0  0  0  0  0
  186.3150  178.5270  142.9370 C   0  0  0  0  0  1  0  0  0  0  0  0
  186.1090  177.0800  145.0200 C   0  0  2  0  0  3  0  0  0  0  0  0
  185.4250  178.0970  144.0900 C   0  0  1  0  0  3  0  0  0  0  0  0
  184.0250  178.8930  145.8720 O   0  0  0  0  0  0  0  0  0  0  0  0
  184.7440  178.1570  146.8310 C   0  0  0  0  0  2  0  0  0  0  0  0
  185.2100  176.8240  146.2350 C   0  0  0  0  0  2  0  0  0  0  0  0
  184.9480  179.3080  144.8950 C   0  0  0  0  0  2  0  0  0  0  0  0
  190.3030  176.6550  142.8720 S   0  0  0  0  0  0  0  0  0  0  0  0
  188.7770  175.8090  142.3570 C   0  0  0  0  0  2  0  0  0  0  0  0
  188.7030  174.4140  142.9700 C   0  0  0  0  0  2  0  0  0  0  0  0
  188.9360  173.2830  141.9560 C   0  0  1  0  0  3  0  0  0  0  0  0
  189.2720  172.0060  143.9860 O   0  0  0  0  0  1  0  0  0  0  0  0
  190.7950  171.6080  142.1910 C   0  0  0  0  0  1  0  0  0  0  0  0
  189.3760  171.9620  142.5930 C   0  0  2  0  0  3  0  0  0  0  0  0
  187.8230  173.0880  141.1330 O   0  0  0  0  0  0  0  0  0  0  0  0
  188.3430  172.9610  139.8440 C   0  0  0  0  0  2  0  0  0  0  0  0
  188.3600  174.2120  139.2270 O   0  0  0  0  0  1  0  0  0  0  0  0
  1 25  1  6  0  0  0
  1 13  1  0  0  0  0
  2  1  1  1  0  0  0
  2  7  1  0  0  0  0
  3  7  1  0  0  0  0
  4  8  2  0  0  0  0
  5 10  1  0  0  0  0
  7 11  1  1  0  0  0
  8  3  1  0  0  0  0
  8  5  1  0  0  0  0
 10  6  2  0  0  0  0
 10  9  1  0  0  0  0
 11  9  1  0  0  0  0
 12  3  1  0  0  0  0
 12  2  1  0  0  0  0
 13 14  1  0  0  0  0
 14 15  2  0  0  0  0
 16 14  1  0  0  0  0
 17 16  1  0  0  0  0
 19 17  1  1  0  0  0
 19 23  1  0  0  0  0
 20 18  1  6  0  0  0
 20 24  1  0  0  0  0
 20 19  1  0  0  0  0
 21 22  1  0  0  0  0
 23 22  1  0  0  0  0
 24 21  1  0  0  0  0
 26 25  1  0  0  0  0
 26 27  1  0  0  0  0
 28 31  1  0  0  0  0
 28 27  1  1  0  0  0
 31 30  1  1  0  0  0
 31 29  1  0  0  0  0
 32 28  1  0  0  0  0
 33 32  1  0  0  0  0
 34 33  1  0  0  0  0
M  END
>  <MODEL>
3

>  <REMARK>
 VINA RESULT:      -6.5      2.207      5.721
  Name = 
  12 active torsions:
  status: ('A' for Active; 'I' for Inactive)
    1  A    between atoms: O_1  and  C_15
    2  A    between atoms: O_1  and  C_24
    3  A    between atoms: C_2  and  C_15
    4  A    between atoms: C_2  and  C_25
    5  A    between atoms: C_3  and  C_13
    6  A    between atoms: C_3  and  C_17
    7  A    between atoms: C_4  and  C_31
    8  A    between atoms: N_5  and  C_31
    9  A    between atoms: S_10  and  C_25
   10  A    between atoms: S_10  and  C_31
   11  A    between atoms: C_15  and  C_19
   12  A    between atoms: C_17  and  C_18
                            x       y       z     vdW  Elec       q    Type
                         _______ _______ _______ _____ _____    ______ ____

>  <TORSDO>
F 12

$$$$
=
 OpenBabel11052419013D

 34 36  0  0  1  0  0  0  0  0999 V2000
  188.3060  174.2280  142.1850 C   0  0  1  0  0  3  0  0  0  0  0  0
  189.5590  174.0560  143.0320 C   0  0  2  0  0  3  0  0  0  0  0  0
  190.3150  175.7960  144.1560 N   0  0  0  0  0  0  0  0  0  0  0  0
  191.4490  177.8000  144.3870 O   0  0  0  0  0  0  0  0  0  0  0  0
  191.1430  176.6250  146.3310 O   0  0  0  0  0  0  0  0  0  0  0  0
  191.2980  175.3540  148.2260 O   0  0  0  0  0  0  0  0  0  0  0  0
  189.3580  174.7090  144.3560 C   0  0  2  0  0  3  0  0  0  0  0  0
  190.9600  176.7870  144.9500 C   0  0  0  0  0  0  0  0  0  0  0  0
  189.5640  174.6550  146.7820 C   0  0  0  0  0  2  0  0  0  0  0  0
  190.7220  175.5430  147.1230 C   0  0  0  0  0  0  0  0  0  0  0  0
  189.8050  173.8530  145.5200 C   0  0  0  0  0  2  0  0  0  0  0  0
  190.4800  175.2130  142.8160 C   0  0  0  0  0  2  0  0  0  0  0  0
  188.3150  175.5310  141.5350 N   0  0  0  0  0  2  0  0  0  0  0  0
  187.3300  176.5280  141.8150 C   0  0  0  0  0  0  0  0  0  0  0  0
  187.3470  177.6110  141.1750 O   0  0  0  0  0  0  0  0  0  0  0  0
  186.3150  176.3250  142.8890 C   0  0  0  0  0  2  0  0  0  0  0  0
  186.6200  177.2520  144.0520 C   0  0  0  0  0  2  0  0  0  0  0  0
  184.0950  178.7620  144.3790 C   0  0  0  0  0  1  0  0  0  0  0  0
  185.6890  176.9710  145.2310 C   0  0  2  0  0  3  0  0  0  0  0  0
  184.8190  178.1890  145.5850 C   0  0  1  0  0  3  0  0  0  0  0  0
  186.2220  178.7380  147.4560 O   0  0  0  0  0  0  0  0  0  0  0  0
  187.1860  177.7880  147.0740 C   0  0  0  0  0  2  0  0  0  0  0  0
  186.5030  176.5580  146.4620 C   0  0  0  0  0  2  0  0  0  0  0  0
  185.6680  179.2610  146.2730 C   0  0  0  0  0  2  0  0  0  0  0  0
  188.2100  172.9240  140.9190 S   0  0  0  0  0  0  0  0  0  0  0  0
  188.7850  174.0320  139.5960 C   0  0  0  0  0  2  0  0  0  0  0  0
  188.3630  173.5000  138.2290 C   0  0  0  0  0  2  0  0  0  0  0  0
  189.5290  172.9340  137.4030 C   0  0  1  0  0  3  0  0  0  0  0  0
  190.8200  171.1950  138.4850 O   0  0  0  0  0  1  0  0  0  0  0  0
  190.0190  170.7380  136.2830 C   0  0  0  0  0  1  0  0  0  0  0  0
  189.7600  171.4350  137.6060 C   0  0  2  0  0  3  0  0  0  0  0  0
  189.3940  173.2330  136.0440 O   0  0  0  0  0  0  0  0  0  0  0  0
  189.9600  174.5000  135.8930 C   0  0  0  0  0  2  0  0  0  0  0  0
  189.0300  175.3540  135.3000 O   0  0  0  0  0  1  0  0  0  0  0  0
  1 25  1  6  0  0  0
  2  1  1  6  0  0  0
  2  7  1  0  0  0  0
  3  7  1  0  0  0  0
  3  8  1  0  0  0  0
  4  8  2  0  0  0  0
  5 10  1  0  0  0  0
  7 11  1  1  0  0  0
  8  5  1  0  0  0  0
  9 10  1  0  0  0  0
 10  6  2  0  0  0  0
 11  9  1  0  0  0  0
 12  2  1  0  0  0  0
 12  3  1  0  0  0  0
 13 14  1  0  0  0  0
 13  1  1  0  0  0  0
 14 16  1  0  0  0  0
 15 14  2  0  0  0  0
 16 17  1  0  0  0  0
 19 17  1  6  0  0  0
 19 20  1  0  0  0  0
 19 23  1  0  0  0  0
 20 18  1  6  0  0  0
 20 24  1  0  0  0  0
 22 21  1  0  0  0  0
 23 22  1  0  0  0  0
 24 21  1  0  0  0  0
 26 25  1  0  0  0  0
 27 26  1  0  0  0  0
 28 31  1  0  0  0  0
 28 27  1  1  0  0  0
 31 30  1  6  0  0  0
 31 29  1  0  0  0  0
 32 28  1  0  0  0  0
 33 32  1  0  0  0  0
 34 33  1  0  0  0  0
M  END
>  <MODEL>
4

>  <REMARK>
 VINA RESULT:      -6.4      2.259      6.980
  Name = 
  12 active torsions:
  status: ('A' for Active; 'I' for Inactive)
    1  A    between atoms: O_1  and  C_15
    2  A    between atoms: O_1  and  C_24
    3  A    between atoms: C_2  and  C_15
    4  A    between atoms: C_2  and  C_25
    5  A    between atoms: C_3  and  C_13
    6  A    between atoms: C_3  and  C_17
    7  A    between atoms: C_4  and  C_31
    8  A    between atoms: N_5  and  C_31
    9  A    between atoms: S_10  and  C_25
   10  A    between atoms: S_10  and  C_31
   11  A    between atoms: C_15  and  C_19
   12  A    between atoms: C_17  and  C_18
                            x       y       z     vdW  Elec       q    Type
                         _______ _______ _______ _____ _____    ______ ____

>  <TORSDO>
F 12

$$$$
=
 OpenBabel11052419013D

 34 36  0  0  1  0  0  0  0  0999 V2000
  190.8600  176.6630  145.1230 C   0  0  1  0  0  3  0  0  0  0  0  0
  190.3850  176.6230  143.6780 C   0  0  2  0  0  3  0  0  0  0  0  0
  191.1820  175.0490  142.3530 N   0  0  0  0  0  0  0  0  0  0  0  0
  192.7730  174.0850  140.9790 O   0  0  0  0  0  0  0  0  0  0  0  0
  190.6370  173.3090  140.6870 O   0  0  0  0  0  0  0  0  0  0  0  0
  188.5170  172.7920  140.0010 O   0  0  0  0  0  0  0  0  0  0  0  0
  190.0750  175.2160  143.2950 C   0  0  2  0  0  3  0  0  0  0  0  0
  191.5700  174.1220  141.3450 C   0  0  0  0  0  0  0  0  0  0  0  0
  188.6000  173.6060  142.2170 C   0  0  0  0  0  2  0  0  0  0  0  0
  189.2510  173.2490  140.9150 C   0  0  0  0  0  0  0  0  0  0  0  0
  188.7620  175.0740  142.5590 C   0  0  0  0  0  2  0  0  0  0  0  0
  191.5510  176.4110  142.7670 C   0  0  0  0  0  2  0  0  0  0  0  0
  190.3520  175.5100  145.8520 N   0  0  0  0  0  2  0  0  0  0  0  0
  189.2450  175.6050  146.7500 C   0  0  0  0  0  0  0  0  0  0  0  0
  188.8890  174.5900  147.4040 O   0  0  0  0  0  0  0  0  0  0  0  0
  188.4710  176.8730  146.8850 C   0  0  0  0  0  2  0  0  0  0  0  0
  187.2330  176.8040  146.0090 C   0  0  0  0  0  2  0  0  0  0  0  0
  185.7330  179.0170  147.2810 C   0  0  0  0  0  1  0  0  0  0  0  0
  187.0140  178.1250  145.2720 C   0  0  2  0  0  3  0  0  0  0  0  0
  185.7610  178.8660  145.7700 C   0  0  1  0  0  3  0  0  0  0  0  0
  184.4920  178.1530  143.8600 O   0  0  0  0  0  0  0  0  0  0  0  0
  185.5110  177.2750  143.4490 C   0  0  0  0  0  2  0  0  0  0  0  0
  186.8860  177.8760  143.7650 C   0  0  0  0  0  2  0  0  0  0  0  0
  184.4990  178.1620  145.2670 C   0  0  0  0  0  2  0  0  0  0  0  0
  192.6790  176.6670  145.1950 S   0  0  0  0  0  0  0  0  0  0  0  0
  192.7550  174.9500  145.7910 C   0  0  0  0  0  2  0  0  0  0  0  0
  193.6160  174.0960  144.8640 C   0  0  0  0  0  2  0  0  0  0  0  0
  195.0550  174.6110  144.7130 C   0  0  1  0  0  3  0  0  0  0  0  0
  197.3710  174.2670  145.3290 O   0  0  0  0  0  1  0  0  0  0  0  0
  195.8750  172.4400  145.6760 C   0  0  0  0  0  1  0  0  0  0  0  0
  196.0530  173.9460  145.6640 C   0  0  2  0  0  3  0  0  0  0  0  0
  195.5010  174.5240  143.3910 O   0  0  0  0  0  0  0  0  0  0  0  0
  195.2730  175.7900  142.8470 C   0  0  0  0  0  2  0  0  0  0  0  0
  196.2640  176.6670  143.2860 O   0  0  0  0  0  1  0  0  0  0  0  0
  1 25  1  6  0  0  0
  1 13  1  0  0  0  0
  2  1  1  1  0  0  0
  3 12  1  0  0  0  0
  3  7  1  0  0  0  0
  4  8  2  0  0  0  0
  5 10  1  0  0  0  0
  5  8  1  0  0  0  0
  6 10  2  0  0  0  0
  7 11  1  6  0  0  0
  7  2  1  0  0  0  0
  8  3  1  0  0  0  0
  9 11  1  0  0  0  0
 10  9  1  0  0  0  0
 12  2  1  0  0  0  0
 13 14  1  0  0  0  0
 14 16  1  0  0  0  0
 14 15  2  0  0  0  0
 17 16  1  0  0  0  0
 19 20  1  0  0  0  0
 19 17  1  1  0  0  0
 20 18  1  1  0  0  0
 21 24  1  0  0  0  0
 22 23  1  0  0  0  0
 22 21  1  0  0  0  0
 23 19  1  0  0  0  0
 24 20  1  0  0  0  0
 25 26  1  0  0  0  0
 27 26  1  0  0  0  0
 28 27  1  6  0  0  0
 28 31  1  0  0  0  0
 29 31  1  0  0  0  0
 31 30  1  6  0  0  0
 32 28  1  0  0  0  0
 33 34  1  0  0  0  0
 33 32  1  0  0  0  0
M  END
>  <MODEL>
5

>  <REMARK>
 VINA RESULT:      -6.4      2.153      3.207
  Name = 
  12 active torsions:
  status: ('A' for Active; 'I' for Inactive)
    1  A    between atoms: O_1  and  C_15
    2  A    between atoms: O_1  and  C_24
    3  A    between atoms: C_2  and  C_15
    4  A    between atoms: C_2  and  C_25
    5  A    between atoms: C_3  and  C_13
    6  A    between atoms: C_3  and  C_17
    7  A    between atoms: C_4  and  C_31
    8  A    between atoms: N_5  and  C_31
    9  A    between atoms: S_10  and  C_25
   10  A    between atoms: S_10  and  C_31
   11  A    between atoms: C_15  and  C_19
   12  A    between atoms: C_17  and  C_18
                            x       y       z     vdW  Elec       q    Type
                         _______ _______ _______ _____ _____    ______ ____

>  <TORSDO>
F 12

$$$$
=
 OpenBabel11052419013D

 34 36  0  0  1  0  0  0  0  0999 V2000
  191.0850  176.4110  145.4140 C   0  0  1  0  0  3  0  0  0  0  0  0
  192.3800  175.7760  145.9010 C   0  0  2  0  0  3  0  0  0  0  0  0
  193.4970  174.4720  144.5170 N   0  0  0  0  0  0  0  0  0  0  0  0
  193.9250  172.4910  143.4010 O   0  0  0  0  0  0  0  0  0  0  0  0
  195.7050  173.9260  143.5540 O   0  0  0  0  0  0  0  0  0  0  0  0
  197.6390  175.0510  144.0300 O   0  0  0  0  0  0  0  0  0  0  0  0
  193.4220  175.8960  144.8440 C   0  0  2  0  0  3  0  0  0  0  0  0
  194.3600  173.6080  143.7850 C   0  0  0  0  0  0  0  0  0  0  0  0
  195.7130  176.4090  144.1960 C   0  0  0  0  0  2  0  0  0  0  0  0
  196.3840  175.0910  143.9510 C   0  0  0  0  0  0  0  0  0  0  0  0
  194.7600  176.3620  145.3730 C   0  0  0  0  0  2  0  0  0  0  0  0
  192.4170  174.3350  145.5050 C   0  0  0  0  0  2  0  0  0  0  0  0
  190.4470  177.1460  146.4960 N   0  0  0  0  0  2  0  0  0  0  0  0
  189.0260  177.2280  146.6250 C   0  0  0  0  0  0  0  0  0  0  0  0
  188.5270  177.9310  147.5420 O   0  0  0  0  0  0  0  0  0  0  0  0
  188.1260  176.4530  145.7220 C   0  0  0  0  0  2  0  0  0  0  0  0
  187.1960  177.4080  144.9960 C   0  0  0  0  0  2  0  0  0  0  0  0
  185.3510  178.0180  142.7630 C   0  0  0  0  0  1  0  0  0  0  0  0
  185.7610  176.8800  145.0010 C   0  0  2  0  0  3  0  0  0  0  0  0
  184.8180  177.7590  144.1620 C   0  0  1  0  0  3  0  0  0  0  0  0
  183.9220  178.8050  146.1300 O   0  0  0  0  0  0  0  0  0  0  0  0
  184.8970  178.2090  146.9500 C   0  0  0  0  0  2  0  0  0  0  0  0
  185.2310  176.8020  146.4380 C   0  0  0  0  0  2  0  0  0  0  0  0
  184.5340  179.0740  144.8920 C   0  0  0  0  0  2  0  0  0  0  0  0
  191.4160  177.5450  144.0290 S   0  0  0  0  0  0  0  0  0  0  0  0
  190.1770  176.7520  142.9580 C   0  0  0  0  0  2  0  0  0  0  0  0
  190.7200  175.4470  142.3840 C   0  0  0  0  0  2  0  0  0  0  0  0
  189.8300  174.2290  142.6740 C   0  0  1  0  0  3  0  0  0  0  0  0
  188.8620  174.6490  140.4940 O   0  0  0  0  0  1  0  0  0  0  0  0
  187.4090  174.8390  142.3790 C   0  0  0  0  0  1  0  0  0  0  0  0
  188.6020  174.1290  141.7650 C   0  0  2  0  0  3  0  0  0  0  0  0
  190.5590  173.0360  142.6500 O   0  0  0  0  0  0  0  0  0  0  0  0
  189.9760  172.2350  143.6340 C   0  0  0  0  0  2  0  0  0  0  0  0
  190.9680  171.4860  144.2670 O   0  0  0  0  0  1  0  0  0  0  0  0
  1 25  1  6  0  0  0
  1 13  1  0  0  0  0
  2  1  1  6  0  0  0
  3  7  1  0  0  0  0
  3 12  1  0  0  0  0
  4  8  2  0  0  0  0
  5  8  1  0  0  0  0
  5 10  1  0  0  0  0
  7 11  1  1  0  0  0
  7  2  1  0  0  0  0
  8  3  1  0  0  0  0
  9 11  1  0  0  0  0
 10  6  2  0  0  0  0
 10  9  1  0  0  0  0
 12  2  1  0  0  0  0
 13 14  1  0  0  0  0
 14 15  2  0  0  0  0
 16 14  1  0  0  0  0
 17 16  1  0  0  0  0
 19 17  1  1  0  0  0
 19 23  1  0  0  0  0
 20 18  1  6  0  0  0
 20 24  1  0  0  0  0
 20 19  1  0  0  0  0
 21 22  1  0  0  0  0
 23 22  1  0  0  0  0
 24 21  1  0  0  0  0
 26 25  1  0  0  0  0
 27 26  1  0  0  0  0
 28 27  1  6  0  0  0
 29 31  1  0  0  0  0
 31 30  1  1  0  0  0
 31 28  1  0  0  0  0
 32 28  1  0  0  0  0
 32 33  1  0  0  0  0
 33 34  1  0  0  0  0
M  END
>  <MODEL>
6

>  <REMARK>
 VINA RESULT:      -6.3      2.594      5.450
  Name = 
  12 active torsions:
  status: ('A' for Active; 'I' for Inactive)
    1  A    between atoms: O_1  and  C_15
    2  A    between atoms: O_1  and  C_24
    3  A    between atoms: C_2  and  C_15
    4  A    between atoms: C_2  and  C_25
    5  A    between atoms: C_3  and  C_13
    6  A    between atoms: C_3  and  C_17
    7  A    between atoms: C_4  and  C_31
    8  A    between atoms: N_5  and  C_31
    9  A    between atoms: S_10  and  C_25
   10  A    between atoms: S_10  and  C_31
   11  A    between atoms: C_15  and  C_19
   12  A    between atoms: C_17  and  C_18
                            x       y       z     vdW  Elec       q    Type
                         _______ _______ _______ _____ _____    ______ ____

>  <TORSDO>
F 12

$$$$
=
 OpenBabel11052419013D

 34 36  0  0  1  0  0  0  0  0999 V2000
  191.3180  175.9710  145.5480 C   0  0  1  0  0  3  0  0  0  0  0  0
  191.4090  175.5590  144.0860 C   0  0  2  0  0  3  0  0  0  0  0  0
  190.8030  173.5130  143.5300 N   0  0  0  0  0  0  0  0  0  0  0  0
  191.1060  171.2280  143.3240 O   0  0  0  0  0  0  0  0  0  0  0  0
  189.4890  172.1210  141.9680 O   0  0  0  0  0  0  0  0  0  0  0  0
  188.1960  172.9480  140.2720 O   0  0  0  0  0  0  0  0  0  0  0  0
  190.1740  174.8230  143.6970 C   0  0  2  0  0  3  0  0  0  0  0  0
  190.4620  172.2490  142.9690 C   0  0  0  0  0  0  0  0  0  0  0  0
  188.3730  174.4260  142.1070 C   0  0  0  0  0  2  0  0  0  0  0  0
  188.7100  173.1460  141.4040 C   0  0  0  0  0  0  0  0  0  0  0  0
  189.5980  175.2770  142.3750 C   0  0  0  0  0  2  0  0  0  0  0  0
  192.0230  174.2000  143.9800 C   0  0  0  0  0  2  0  0  0  0  0  0
  190.4420  175.0620  146.2720 N   0  0  0  0  0  2  0  0  0  0  0  0
  189.2810  175.5180  146.9710 C   0  0  0  0  0  0  0  0  0  0  0  0
  188.5960  174.6980  147.6350 O   0  0  0  0  0  0  0  0  0  0  0  0
  188.8400  176.9400  146.8810 C   0  0  0  0  0  2  0  0  0  0  0  0
  187.9500  177.1170  145.6640 C   0  0  0  0  0  2  0  0  0  0  0  0
  185.9460  176.7680  143.5140 C   0  0  0  0  0  1  0  0  0  0  0  0
  186.4980  176.7750  145.9980 C   0  0  2  0  0  3  0  0  0  0  0  0
  185.5270  177.2360  144.8970 C   0  0  1  0  0  3  0  0  0  0  0  0
  184.8600  179.1490  146.1860 O   0  0  0  0  0  0  0  0  0  0  0  0
  185.8740  178.9250  147.1340 C   0  0  0  0  0  2  0  0  0  0  0  0
  186.0940  177.4200  147.3280 C   0  0  0  0  0  2  0  0  0  0  0  0
  185.3720  178.7580  144.9360 C   0  0  0  0  0  2  0  0  0  0  0  0
  192.9680  175.9580  146.3170 S   0  0  0  0  0  0  0  0  0  0  0  0
  193.6780  177.0350  145.0340 C   0  0  0  0  0  2  0  0  0  0  0  0
  195.1490  176.6980  144.8040 C   0  0  0  0  0  2  0  0  0  0  0  0
  195.3870  175.7810  143.5960 C   0  0  1  0  0  3  0  0  0  0  0  0
  197.2540  177.2840  143.2540 O   0  0  0  0  0  1  0  0  0  0  0  0
  195.9610  176.7110  141.3320 C   0  0  0  0  0  1  0  0  0  0  0  0
  196.5110  176.2550  142.6700 C   0  0  2  0  0  3  0  0  0  0  0  0
  195.5960  174.4540  143.9850 O   0  0  0  0  0  0  0  0  0  0  0  0
  196.2660  174.5360  145.2070 C   0  0  0  0  0  2  0  0  0  0  0  0
  197.5580  174.0320  145.0600 O   0  0  0  0  0  1  0  0  0  0  0  0
  1 13  1  1  0  0  0
  1 25  1  0  0  0  0
  2  1  1  1  0  0  0
  3  7  1  0  0  0  0
  3 12  1  0  0  0  0
  5  8  1  0  0  0  0
  6 10  2  0  0  0  0
  7 11  1  6  0  0  0
  7  2  1  0  0  0  0
  8  4  2  0  0  0  0
  8  3  1  0  0  0  0
  9 11  1  0  0  0  0
 10  5  1  0  0  0  0
 10  9  1  0  0  0  0
 12  2  1  0  0  0  0
 13 14  1  0  0  0  0
 14 15  2  0  0  0  0
 16 14  1  0  0  0  0
 17 16  1  0  0  0  0
 19 17  1  6  0  0  0
 19 23  1  0  0  0  0
 20 18  1  6  0  0  0
 20 24  1  0  0  0  0
 20 19  1  0  0  0  0
 21 22  1  0  0  0  0
 22 23  1  0  0  0  0
 24 21  1  0  0  0  0
 26 25  1  0  0  0  0
 27 26  1  0  0  0  0
 28 32  1  0  0  0  0
 28 27  1  1  0  0  0
 31 30  1  6  0  0  0
 31 29  1  0  0  0  0
 31 28  1  0  0  0  0
 32 33  1  0  0  0  0
 34 33  1  0  0  0  0
M  END
>  <MODEL>
7

>  <REMARK>
 VINA RESULT:      -6.3      2.383      3.670
  Name = 
  12 active torsions:
  status: ('A' for Active; 'I' for Inactive)
    1  A    between atoms: O_1  and  C_15
    2  A    between atoms: O_1  and  C_24
    3  A    between atoms: C_2  and  C_15
    4  A    between atoms: C_2  and  C_25
    5  A    between atoms: C_3  and  C_13
    6  A    between atoms: C_3  and  C_17
    7  A    between atoms: C_4  and  C_31
    8  A    between atoms: N_5  and  C_31
    9  A    between atoms: S_10  and  C_25
   10  A    between atoms: S_10  and  C_31
   11  A    between atoms: C_15  and  C_19
   12  A    between atoms: C_17  and  C_18
                            x       y       z     vdW  Elec       q    Type
                         _______ _______ _______ _____ _____    ______ ____

>  <TORSDO>
F 12

$$$$
=
 OpenBabel11052419013D

 34 36  0  0  1  0  0  0  0  0999 V2000
  190.0290  174.5460  143.8160 C   0  0  1  0  0  3  0  0  0  0  0  0
  189.2390  173.4850  143.0640 C   0  0  2  0  0  3  0  0  0  0  0  0
  189.0500  173.6710  140.8740 N   0  0  0  0  0  0  0  0  0  0  0  0
  188.1530  174.5280  138.9210 O   0  0  0  0  0  0  0  0  0  0  0  0
  189.2150  172.5100  138.7000 O   0  0  0  0  0  0  0  0  0  0  0  0
  189.8370  170.3230  138.4450 O   0  0  0  0  0  0  0  0  0  0  0  0
  189.9840  173.0860  141.8360 C   0  0  2  0  0  3  0  0  0  0  0  0
  188.8120  173.6080  139.4720 C   0  0  0  0  0  0  0  0  0  0  0  0
  190.8020  171.3440  140.3450 C   0  0  0  0  0  2  0  0  0  0  0  0
  189.9070  171.3680  139.1430 C   0  0  0  0  0  0  0  0  0  0  0  0
  190.0430  171.5890  141.6340 C   0  0  0  0  0  2  0  0  0  0  0  0
  188.3330  174.1380  142.0700 C   0  0  0  0  0  2  0  0  0  0  0  0
  189.5910  174.6110  145.2030 N   0  0  0  0  0  2  0  0  0  0  0  0
  188.8230  175.7050  145.7080 C   0  0  0  0  0  0  0  0  0  0  0  0
  188.5270  175.7420  146.9300 O   0  0  0  0  0  0  0  0  0  0  0  0
  188.3230  176.7780  144.7990 C   0  0  0  0  0  2  0  0  0  0  0  0
  186.8490  177.0190  145.0680 C   0  0  0  0  0  2  0  0  0  0  0  0
  186.1280  178.3060  147.6350 C   0  0  0  0  0  1  0  0  0  0  0  0
  186.5460  178.5160  145.1340 C   0  0  2  0  0  3  0  0  0  0  0  0
  185.6270  178.8700  146.3160 C   0  0  1  0  0  3  0  0  0  0  0  0
  183.7150  179.0440  144.8730 O   0  0  0  0  0  0  0  0  0  0  0  0
  184.4300  178.5150  143.7820 C   0  0  0  0  0  2  0  0  0  0  0  0
  185.8890  178.9820  143.8290 C   0  0  0  0  0  2  0  0  0  0  0  0
  184.1970  178.4050  146.0290 C   0  0  0  0  0  2  0  0  0  0  0  0
  191.8090  174.1690  143.7640 S   0  0  0  0  0  0  0  0  0  0  0  0
  192.2340  175.8080  143.0990 C   0  0  0  0  0  2  0  0  0  0  0  0
  192.4490  176.8080  144.2320 C   0  0  0  0  0  2  0  0  0  0  0  0
  193.8320  176.7010  144.8920 C   0  0  1  0  0  3  0  0  0  0  0  0
  194.2670  174.8790  146.4270 O   0  0  0  0  0  1  0  0  0  0  0  0
  192.3870  176.2700  146.9030 C   0  0  0  0  0  1  0  0  0  0  0  0
  193.7910  176.1890  146.3350 C   0  0  2  0  0  3  0  0  0  0  0  0
  194.7160  175.9380  144.1240 O   0  0  0  0  0  0  0  0  0  0  0  0
  195.7930  176.7870  143.8590 C   0  0  0  0  0  2  0  0  0  0  0  0
  196.9100  176.0240  143.5210 O   0  0  0  0  0  1  0  0  0  0  0  0
  1 25  1  1  0  0  0
  1 13  1  0  0  0  0
  2  1  1  1  0  0  0
  3  7  1  0  0  0  0
  3 12  1  0  0  0  0
  4  8  2  0  0  0  0
  5 10  1  0  0  0  0
  5  8  1  0  0  0  0
  6 10  2  0  0  0  0
  7 11  1  6  0  0  0
  7  2  1  0  0  0  0
  8  3  1  0  0  0  0
  9 11  1  0  0  0  0
 10  9  1  0  0  0  0
 12  2  1  0  0  0  0
 13 14  1  0  0  0  0
 14 15  2  0  0  0  0
 16 17  1  0  0  0  0
 16 14  1  0  0  0  0
 19 17  1  6  0  0  0
 19 20  1  0  0  0  0
 20 18  1  1  0  0  0
 21 24  1  0  0  0  0
 22 23  1  0  0  0  0
 22 21  1  0  0  0  0
 23 19  1  0  0  0  0
 24 20  1  0  0  0  0
 26 25  1  0  0  0  0
 26 27  1  0  0  0  0
 28 27  1  6  0  0  0
 28 31  1  0  0  0  0
 31 29  1  0  0  0  0
 31 30  1  6  0  0  0
 32 28  1  0  0  0  0
 33 32  1  0  0  0  0
 34 33  1  0  0  0  0
M  END
>  <MODEL>
8

>  <REMARK>
 VINA RESULT:      -6.3      1.149      1.935
  Name = 
  12 active torsions:
  status: ('A' for Active; 'I' for Inactive)
    1  A    between atoms: O_1  and  C_15
    2  A    between atoms: O_1  and  C_24
    3  A    between atoms: C_2  and  C_15
    4  A    between atoms: C_2  and  C_25
    5  A    between atoms: C_3  and  C_13
    6  A    between atoms: C_3  and  C_17
    7  A    between atoms: C_4  and  C_31
    8  A    between atoms: N_5  and  C_31
    9  A    between atoms: S_10  and  C_25
   10  A    between atoms: S_10  and  C_31
   11  A    between atoms: C_15  and  C_19
   12  A    between atoms: C_17  and  C_18
                            x       y       z     vdW  Elec       q    Type
                         _______ _______ _______ _____ _____    ______ ____

>  <TORSDO>
F 12

$$$$
=
 OpenBabel11052419013D

 34 36  0  0  1  0  0  0  0  0999 V2000
  188.3350  174.4070  142.4960 C   0  0  1  0  0  3  0  0  0  0  0  0
  189.4540  173.9930  143.4410 C   0  0  2  0  0  3  0  0  0  0  0  0
  190.6230  175.5740  144.4390 N   0  0  0  0  0  0  0  0  0  0  0  0
  192.2620  177.2040  144.5540 O   0  0  0  0  0  0  0  0  0  0  0  0
  191.5640  176.3830  146.5760 O   0  0  0  0  0  0  0  0  0  0  0  0
  191.2820  175.3390  148.5920 O   0  0  0  0  0  0  0  0  0  0  0  0
  189.3920  174.8210  144.6780 C   0  0  2  0  0  3  0  0  0  0  0  0
  191.4880  176.4330  145.1770 C   0  0  0  0  0  0  0  0  0  0  0  0
  189.4790  174.9860  147.1060 C   0  0  0  0  0  2  0  0  0  0  0  0
  190.8260  175.5540  147.4390 C   0  0  0  0  0  0  0  0  0  0  0  0
  189.5350  174.0110  145.9470 C   0  0  0  0  0  2  0  0  0  0  0  0
  190.6710  174.8220  143.1770 C   0  0  0  0  0  2  0  0  0  0  0  0
  188.6240  175.7090  141.9130 N   0  0  0  0  0  2  0  0  0  0  0  0
  187.6690  176.7720  141.9140 C   0  0  0  0  0  0  0  0  0  0  0  0
  187.9480  177.8560  141.3380 O   0  0  0  0  0  0  0  0  0  0  0  0
  186.3680  176.6360  142.6320 C   0  0  0  0  0  2  0  0  0  0  0  0
  186.5910  176.8290  144.1210 C   0  0  0  0  0  2  0  0  0  0  0  0
  187.0050  177.7050  146.9180 C   0  0  0  0  0  1  0  0  0  0  0  0
  186.5130  178.3090  144.4960 C   0  0  2  0  0  3  0  0  0  0  0  0
  186.1330  178.5130  145.9720 C   0  0  1  0  0  3  0  0  0  0  0  0
  183.8640  179.0440  145.3900 O   0  0  0  0  0  0  0  0  0  0  0  0
  184.0670  178.6640  144.0510 C   0  0  0  0  0  2  0  0  0  0  0  0
  185.4900  179.0270  143.6080 C   0  0  0  0  0  2  0  0  0  0  0  0
  184.6520  178.1910  146.1840 C   0  0  0  0  0  2  0  0  0  0  0  0
  188.1410  173.1810  141.1650 S   0  0  0  0  0  0  0  0  0  0  0  0
  189.2230  174.1020  140.0280 C   0  0  0  0  0  2  0  0  0  0  0  0
  190.3660  173.2160  139.5390 C   0  0  0  0  0  2  0  0  0  0  0  0
  190.4610  171.8720  140.2750 C   0  0  1  0  0  3  0  0  0  0  0  0
  192.0080  170.6920  138.8340 O   0  0  0  0  0  1  0  0  0  0  0  0
  189.7030  170.6410  138.2190 C   0  0  0  0  0  1  0  0  0  0  0  0
  190.7110  170.6760  139.3520 C   0  0  2  0  0  3  0  0  0  0  0  0
  191.4100  171.9090  141.3010 O   0  0  0  0  0  0  0  0  0  0  0  0
  191.0300  170.8970  142.1840 C   0  0  0  0  0  2  0  0  0  0  0  0
  191.5680  171.1560  143.4450 O   0  0  0  0  0  1  0  0  0  0  0  0
  1 25  1  6  0  0  0
  2  1  1  6  0  0  0
  2  7  1  0  0  0  0
  3  7  1  0  0  0  0
  3  8  1  0  0  0  0
  4  8  2  0  0  0  0
  5 10  1  0  0  0  0
  7 11  1  1  0  0  0
  8  5  1  0  0  0  0
  9 10  1  0  0  0  0
 10  6  2  0  0  0  0
 11  9  1  0  0  0  0
 12  2  1  0  0  0  0
 12  3  1  0  0  0  0
 13 14  1  0  0  0  0
 13  1  1  0  0  0  0
 14 16  1  0  0  0  0
 15 14  2  0  0  0  0
 16 17  1  0  0  0  0
 19 17  1  6  0  0  0
 19 20  1  0  0  0  0
 20 24  1  0  0  0  0
 20 18  1  1  0  0  0
 21 24  1  0  0  0  0
 22 21  1  0  0  0  0
 23 22  1  0  0  0  0
 23 19  1  0  0  0  0
 26 25  1  0  0  0  0
 27 26  1  0  0  0  0
 28 27  1  6  0  0  0
 28 32  1  0  0  0  0
 29 31  1  0  0  0  0
 31 30  1  6  0  0  0
 31 28  1  0  0  0  0
 32 33  1  0  0  0  0
 33 34  1  0  0  0  0
M  END
>  <MODEL>
9

>  <REMARK>
 VINA RESULT:      -6.2      1.999      5.920
  Name = 
  12 active torsions:
  status: ('A' for Active; 'I' for Inactive)
    1  A    between atoms: O_1  and  C_15
    2  A    between atoms: O_1  and  C_24
    3  A    between atoms: C_2  and  C_15
    4  A    between atoms: C_2  and  C_25
    5  A    between atoms: C_3  and  C_13
    6  A    between atoms: C_3  and  C_17
    7  A    between atoms: C_4  and  C_31
    8  A    between atoms: N_5  and  C_31
    9  A    between atoms: S_10  and  C_25
   10  A    between atoms: S_10  and  C_31
   11  A    between atoms: C_15  and  C_19
   12  A    between atoms: C_17  and  C_18
                            x       y       z     vdW  Elec       q    Type
                         _______ _______ _______ _____ _____    ______ ____

>  <TORSDO>
F 12

$$$$
