=
 OpenBabel11052418343D

 27 31  0  0  1  0  0  0  0  0999 V2000
  187.6950  176.6660  142.7800 C   0  0  0  0  0  2  0  0  0  0  0  0
  188.8200  176.4560  144.9470 N   0  0  0  0  0  0  0  0  0  0  0  0
  190.2920  175.1230  143.4300 N   0  0  0  0  0  0  0  0  0  0  0  0
  188.9790  177.0100  146.1420 N   0  0  0  0  0  0  0  0  0  0  0  0
  189.0220  174.2680  140.4060 C   0  0  0  0  0  0  0  0  0  0  0  0
  187.5340  176.3530  144.2530 C   0  0  1  0  0  3  0  0  0  0  0  0
  190.8920  176.1700  145.6250 C   0  0  0  0  0  0  0  0  0  0  0  0
  188.2960  175.5270  142.1160 N   0  0  0  0  0  0  0  0  0  0  0  0
  190.0050  175.9100  144.5990 C   0  0  0  0  0  0  0  0  0  0  0  0
  189.9780  174.1390  141.2760 N   0  0  0  0  0  0  0  0  0  0  0  0
  190.2250  176.8610  146.5720 N   0  0  0  0  0  0  0  0  0  0  0  0
  187.9600  175.1310  140.8220 N   0  0  0  0  0  2  0  0  0  0  0  0
  189.5560  174.9350  142.3750 C   0  0  0  0  0  0  0  0  0  0  0  0
  193.3040  176.7690  145.7970 C   0  0  0  0  0  3  0  0  0  0  0  0
  195.0210  175.0700  145.9400 C   0  0  0  0  0  3  0  0  0  0  0  0
  194.0420  174.0760  145.8780 C   0  0  0  0  0  3  0  0  0  0  0  0
  192.6930  174.4300  145.7750 C   0  0  0  0  0  3  0  0  0  0  0  0
  192.3120  175.7790  145.7340 C   0  0  0  0  0  0  0  0  0  0  0  0
  194.6530  176.4170  145.9000 C   0  0  0  0  0  3  0  0  0  0  0  0
  184.5330  178.9240  145.9570 C   0  0  0  0  0  3  0  0  0  0  0  0
  186.4860  177.2390  144.8630 C   0  0  0  0  0  0  0  0  0  0  0  0
  186.3520  178.5530  144.4020 C   0  0  0  0  0  3  0  0  0  0  0  0
  185.3780  179.3940  144.9470 C   0  0  0  0  0  3  0  0  0  0  0  0
  184.6620  177.6120  146.4210 C   0  0  0  0  0  3  0  0  0  0  0  0
  185.6350  176.7700  145.8760 C   0  0  0  0  0  3  0  0  0  0  0  0
  188.1240  174.3470  138.1200 C   0  0  0  0  0  1  0  0  0  0  0  0
  189.0690  173.6310  139.0630 C   0  0  0  0  0  2  0  0  0  0  0  0
  1  6  1  0  0  0  0
  2  4  1  0  0  0  0
  3  9  1  0  0  0  0
  4 11  2  0  0  0  0
  5 12  1  0  0  0  0
  5 10  2  0  0  0  0
  6 21  1  1  0  0  0
  6  2  1  0  0  0  0
  7 18  1  0  0  0  0
  7 11  1  0  0  0  0
  8 13  1  0  0  0  0
  8  1  1  0  0  0  0
  9  2  1  0  0  0  0
  9  7  2  0  0  0  0
 10 13  1  0  0  0  0
 12  8  1  0  0  0  0
 13  3  2  0  0  0  0
 14 19  1  0  0  0  0
 16 15  1  0  0  0  0
 17 16  2  0  0  0  0
 18 17  1  0  0  0  0
 18 14  2  0  0  0  0
 19 15  2  0  0  0  0
 20 24  1  0  0  0  0
 21 25  1  0  0  0  0
 22 21  2  0  0  0  0
 22 23  1  0  0  0  0
 23 20  2  0  0  0  0
 25 24  2  0  0  0  0
 26 27  1  0  0  0  0
 27  5  1  0  0  0  0
M  END
>  <MODEL>
1

>  <REMARK>
 VINA RESULT:      -8.2      0.000      0.000
  Name = 
  3 active torsions:
  status: ('A' for Active; 'I' for Inactive)
    1  A    between atoms: C_9  and  C_15
    2  A    between atoms: C_13  and  C_22
    3  A    between atoms: C_14  and  C_17
                            x       y       z     vdW  Elec       q    Type
                         _______ _______ _______ _____ _____    ______ ____

>  <TORSDO>
F 3

$$$$
=
 OpenBabel11052418343D

 27 31  0  0  1  0  0  0  0  0999 V2000
  190.8110  174.6730  143.2780 C   0  0  0  0  0  2  0  0  0  0  0  0
  190.1200  176.5180  144.7370 N   0  0  0  0  0  0  0  0  0  0  0  0
  188.1960  176.3150  143.1560 N   0  0  0  0  0  0  0  0  0  0  0  0
  190.2860  177.0750  145.9290 N   0  0  0  0  0  0  0  0  0  0  0  0
  188.6980  174.5020  140.3370 C   0  0  0  0  0  0  0  0  0  0  0  0
  191.2140  175.9850  143.9200 C   0  0  1  0  0  3  0  0  0  0  0  0
  188.2050  177.3360  145.4430 C   0  0  0  0  0  0  0  0  0  0  0  0
  189.9280  174.9410  142.1620 N   0  0  0  0  0  0  0  0  0  0  0  0
  188.8230  176.6760  144.3980 C   0  0  0  0  0  0  0  0  0  0  0  0
  187.9260  175.3000  141.0100 N   0  0  0  0  0  0  0  0  0  0  0  0
  189.1430  177.5690  146.3850 N   0  0  0  0  0  0  0  0  0  0  0  0
  189.9380  174.1970  140.9830 N   0  0  0  0  0  2  0  0  0  0  0  0
  188.6710  175.5940  142.1840 C   0  0  0  0  0  0  0  0  0  0  0  0
  186.3150  178.8180  144.7830 C   0  0  0  0  0  3  0  0  0  0  0  0
  184.1170  178.5750  145.7650 C   0  0  0  0  0  3  0  0  0  0  0  0
  184.5830  177.5140  146.5450 C   0  0  0  0  0  3  0  0  0  0  0  0
  185.9160  177.1060  146.4430 C   0  0  0  0  0  3  0  0  0  0  0  0
  186.7940  177.7540  145.5610 C   0  0  0  0  0  0  0  0  0  0  0  0
  184.9830  179.2270  144.8840 C   0  0  0  0  0  3  0  0  0  0  0  0
  194.8420  175.4400  146.1680 C   0  0  0  0  0  3  0  0  0  0  0  0
  192.4810  175.8140  144.7060 C   0  0  0  0  0  0  0  0  0  0  0  0
  192.7550  174.5750  145.2960 C   0  0  0  0  0  3  0  0  0  0  0  0
  193.9320  174.3880  146.0260 C   0  0  0  0  0  3  0  0  0  0  0  0
  194.5740  176.6800  145.5810 C   0  0  0  0  0  3  0  0  0  0  0  0
  193.3970  176.8680  144.8500 C   0  0  0  0  0  3  0  0  0  0  0  0
  188.6630  172.4290  139.0170 C   0  0  0  0  0  1  0  0  0  0  0  0
  188.2910  173.8980  139.0400 C   0  0  0  0  0  2  0  0  0  0  0  0
  1  6  1  0  0  0  0
  2  4  1  0  0  0  0
  3  9  1  0  0  0  0
  4 11  2  0  0  0  0
  5 12  1  0  0  0  0
  5 10  2  0  0  0  0
  6 21  1  1  0  0  0
  6  2  1  0  0  0  0
  7 18  1  0  0  0  0
  7 11  1  0  0  0  0
  8 13  1  0  0  0  0
  8  1  1  0  0  0  0
  9  2  1  0  0  0  0
  9  7  2  0  0  0  0
 10 13  1  0  0  0  0
 12  8  1  0  0  0  0
 13  3  2  0  0  0  0
 14 19  2  0  0  0  0
 14 18  1  0  0  0  0
 15 16  2  0  0  0  0
 17 16  1  0  0  0  0
 18 17  2  0  0  0  0
 19 15  1  0  0  0  0
 21 25  2  0  0  0  0
 21 22  1  0  0  0  0
 22 23  2  0  0  0  0
 23 20  1  0  0  0  0
 24 20  2  0  0  0  0
 25 24  1  0  0  0  0
 26 27  1  0  0  0  0
 27  5  1  0  0  0  0
M  END
>  <MODEL>
2

>  <REMARK>
 VINA RESULT:      -8.2      0.933      6.152
  Name = 
  3 active torsions:
  status: ('A' for Active; 'I' for Inactive)
    1  A    between atoms: C_9  and  C_15
    2  A    between atoms: C_13  and  C_22
    3  A    between atoms: C_14  and  C_17
                            x       y       z     vdW  Elec       q    Type
                         _______ _______ _______ _____ _____    ______ ____

>  <TORSDO>
F 3

$$$$
=
 OpenBabel11052418343D

 27 31  0  0  1  0  0  0  0  0999 V2000
  188.7620  176.6300  146.0220 C   0  0  0  0  0  2  0  0  0  0  0  0
  187.9430  176.1190  143.7700 N   0  0  0  0  0  0  0  0  0  0  0  0
  190.3110  175.3270  143.6880 N   0  0  0  0  0  0  0  0  0  0  0  0
  186.8610  175.8840  143.0390 N   0  0  0  0  0  0  0  0  0  0  0  0
  192.3760  176.3740  146.1620 C   0  0  0  0  0  0  0  0  0  0  0  0
  188.0270  177.1520  144.8050 C   0  0  1  0  0  3  0  0  0  0  0  0
  188.4020  174.6190  142.2290 C   0  0  0  0  0  0  0  0  0  0  0  0
  190.1830  176.6040  145.7440 N   0  0  0  0  0  0  0  0  0  0  0  0
  188.9330  175.3450  143.2770 C   0  0  0  0  0  0  0  0  0  0  0  0
  192.2430  175.7660  145.0230 N   0  0  0  0  0  0  0  0  0  0  0  0
  187.1070  174.9740  142.1060 N   0  0  0  0  0  0  0  0  0  0  0  0
  191.1560  176.8930  146.7000 N   0  0  0  0  0  2  0  0  0  0  0  0
  190.8570  175.8830  144.7270 C   0  0  0  0  0  0  0  0  0  0  0  0
  189.2100  173.9010  139.9840 C   0  0  0  0  0  3  0  0  0  0  0  0
  190.3470  171.7890  139.6660 C   0  0  0  0  0  3  0  0  0  0  0  0
  190.2190  171.5160  141.0300 C   0  0  0  0  0  3  0  0  0  0  0  0
  189.5850  172.4360  141.8700 C   0  0  0  0  0  3  0  0  0  0  0  0
  189.0760  173.6370  141.3550 C   0  0  0  0  0  0  0  0  0  0  0  0
  189.8430  172.9820  139.1430 C   0  0  0  0  0  3  0  0  0  0  0  0
  184.1570  178.6270  145.9740 C   0  0  0  0  0  3  0  0  0  0  0  0
  186.6760  177.6760  145.1960 C   0  0  0  0  0  0  0  0  0  0  0  0
  185.9310  176.9880  146.1600 C   0  0  0  0  0  3  0  0  0  0  0  0
  184.6740  177.4610  146.5480 C   0  0  0  0  0  3  0  0  0  0  0  0
  184.8970  179.3190  145.0120 C   0  0  0  0  0  3  0  0  0  0  0  0
  186.1550  178.8470  144.6240 C   0  0  0  0  0  3  0  0  0  0  0  0
  194.7230  175.6450  146.1430 C   0  0  0  0  0  1  0  0  0  0  0  0
  193.6760  176.4550  146.8810 C   0  0  0  0  0  2  0  0  0  0  0  0
  2  6  1  0  0  0  0
  3 13  2  0  0  0  0
  4  2  1  0  0  0  0
  5 12  1  0  0  0  0
  5 27  1  0  0  0  0
  6 21  1  1  0  0  0
  6  1  1  0  0  0  0
  7  9  2  0  0  0  0
  8  1  1  0  0  0  0
  8 12  1  0  0  0  0
  9  3  1  0  0  0  0
  9  2  1  0  0  0  0
 10  5  2  0  0  0  0
 11  7  1  0  0  0  0
 11  4  2  0  0  0  0
 13 10  1  0  0  0  0
 13  8  1  0  0  0  0
 14 18  1  0  0  0  0
 15 16  2  0  0  0  0
 16 17  1  0  0  0  0
 18 17  2  0  0  0  0
 18  7  1  0  0  0  0
 19 15  1  0  0  0  0
 19 14  2  0  0  0  0
 20 23  1  0  0  0  0
 21 22  1  0  0  0  0
 22 23  2  0  0  0  0
 24 20  2  0  0  0  0
 25 24  1  0  0  0  0
 25 21  2  0  0  0  0
 26 27  1  0  0  0  0
M  END
>  <MODEL>
3

>  <REMARK>
 VINA RESULT:      -7.9      1.378      5.357
  Name = 
  3 active torsions:
  status: ('A' for Active; 'I' for Inactive)
    1  A    between atoms: C_9  and  C_15
    2  A    between atoms: C_13  and  C_22
    3  A    between atoms: C_14  and  C_17
                            x       y       z     vdW  Elec       q    Type
                         _______ _______ _______ _____ _____    ______ ____

>  <TORSDO>
F 3

$$$$
=
 OpenBabel11052418343D

 27 31  0  0  1  0  0  0  0  0999 V2000
  189.3840  176.5900  145.5250 C   0  0  0  0  0  2  0  0  0  0  0  0
  188.0130  176.2740  143.5190 N   0  0  0  0  0  0  0  0  0  0  0  0
  190.3070  175.6970  142.7160 N   0  0  0  0  0  0  0  0  0  0  0  0
  186.7870  176.0360  143.0720 N   0  0  0  0  0  0  0  0  0  0  0  0
  192.9090  176.6220  144.6800 C   0  0  0  0  0  0  0  0  0  0  0  0
  188.3220  177.1860  144.6240 C   0  0  1  0  0  3  0  0  0  0  0  0
  188.1130  175.0050  141.7270 C   0  0  0  0  0  0  0  0  0  0  0  0
  190.6770  176.7150  144.8840 N   0  0  0  0  0  0  0  0  0  0  0  0
  188.8710  175.6480  142.6860 C   0  0  0  0  0  0  0  0  0  0  0  0
  192.5040  176.1400  143.5440 N   0  0  0  0  0  0  0  0  0  0  0  0
  186.8160  175.2630  141.9960 N   0  0  0  0  0  0  0  0  0  0  0  0
  191.8560  176.9720  145.5820 N   0  0  0  0  0  2  0  0  0  0  0  0
  191.0860  176.1730  143.6400 C   0  0  0  0  0  0  0  0  0  0  0  0
  188.1930  174.5400  139.2810 C   0  0  0  0  0  3  0  0  0  0  0  0
  189.4270  172.6580  138.3920 C   0  0  0  0  0  3  0  0  0  0  0  0
  189.8100  172.2990  139.6870 C   0  0  0  0  0  3  0  0  0  0  0  0
  189.3840  173.0620  140.7780 C   0  0  0  0  0  3  0  0  0  0  0  0
  188.5730  174.1890  140.5850 C   0  0  0  0  0  0  0  0  0  0  0  0
  188.6180  173.7780  138.1890 C   0  0  0  0  0  3  0  0  0  0  0  0
  184.8070  178.2490  146.8670 C   0  0  0  0  0  3  0  0  0  0  0  0
  187.1030  177.5470  145.4220 C   0  0  0  0  0  0  0  0  0  0  0  0
  186.3320  178.6460  145.0270 C   0  0  0  0  0  3  0  0  0  0  0  0
  185.1860  178.9970  145.7480 C   0  0  0  0  0  3  0  0  0  0  0  0
  185.5730  177.1500  147.2650 C   0  0  0  0  0  3  0  0  0  0  0  0
  186.7180  176.7980  146.5440 C   0  0  0  0  0  3  0  0  0  0  0  0
  194.4930  177.0440  146.5120 C   0  0  0  0  0  1  0  0  0  0  0  0
  194.3490  176.7270  145.0370 C   0  0  0  0  0  2  0  0  0  0  0  0
  2  6  1  0  0  0  0
  3 13  2  0  0  0  0
  4  2  1  0  0  0  0
  5 27  1  0  0  0  0
  5 12  1  0  0  0  0
  6 21  1  1  0  0  0
  6  1  1  0  0  0  0
  7 11  1  0  0  0  0
  7  9  2  0  0  0  0
  8  1  1  0  0  0  0
  8 12  1  0  0  0  0
  9  3  1  0  0  0  0
  9  2  1  0  0  0  0
 10 13  1  0  0  0  0
 10  5  2  0  0  0  0
 11  4  2  0  0  0  0
 13  8  1  0  0  0  0
 14 18  1  0  0  0  0
 15 16  2  0  0  0  0
 16 17  1  0  0  0  0
 18 17  2  0  0  0  0
 18  7  1  0  0  0  0
 19 15  1  0  0  0  0
 19 14  2  0  0  0  0
 20 24  1  0  0  0  0
 21 25  1  0  0  0  0
 22 21  2  0  0  0  0
 22 23  1  0  0  0  0
 23 20  2  0  0  0  0
 25 24  2  0  0  0  0
 27 26  1  0  0  0  0
M  END
>  <MODEL>
4

>  <REMARK>
 VINA RESULT:      -7.3      1.475      5.510
  Name = 
  3 active torsions:
  status: ('A' for Active; 'I' for Inactive)
    1  A    between atoms: C_9  and  C_15
    2  A    between atoms: C_13  and  C_22
    3  A    between atoms: C_14  and  C_17
                            x       y       z     vdW  Elec       q    Type
                         _______ _______ _______ _____ _____    ______ ____

>  <TORSDO>
F 3

$$$$
=
 OpenBabel11052418343D

 27 31  0  0  1  0  0  0  0  0999 V2000
  191.0260  175.1850  142.5580 C   0  0  0  0  0  2  0  0  0  0  0  0
  188.5950  175.0710  142.8450 N   0  0  0  0  0  0  0  0  0  0  0  0
  189.3280  176.3650  144.8530 N   0  0  0  0  0  0  0  0  0  0  0  0
  187.4370  174.9100  142.2180 N   0  0  0  0  0  0  0  0  0  0  0  0
  192.6300  176.2970  145.6130 C   0  0  0  0  0  0  0  0  0  0  0  0
  189.8020  174.2930  142.5560 C   0  0  1  0  0  3  0  0  0  0  0  0
  187.0600  176.3290  143.7920 C   0  0  0  0  0  0  0  0  0  0  0  0
  191.3890  175.4900  143.9270 N   0  0  0  0  0  0  0  0  0  0  0  0
  188.3870  175.9510  143.8480 C   0  0  0  0  0  0  0  0  0  0  0  0
  191.4260  176.6390  145.9620 N   0  0  0  0  0  0  0  0  0  0  0  0
  186.4940  175.6660  142.7620 N   0  0  0  0  0  0  0  0  0  0  0  0
  192.7090  175.6150  144.3580 N   0  0  0  0  0  2  0  0  0  0  0  0
  190.6080  176.1510  144.9070 C   0  0  0  0  0  0  0  0  0  0  0  0
  185.8460  176.8200  145.9110 C   0  0  0  0  0  3  0  0  0  0  0  0
  184.9390  179.0170  146.3680 C   0  0  0  0  0  3  0  0  0  0  0  0
  185.4170  179.4690  145.1360 C   0  0  0  0  0  3  0  0  0  0  0  0
  186.1100  178.5970  144.2920 C   0  0  0  0  0  3  0  0  0  0  0  0
  186.3310  177.2650  144.6720 C   0  0  0  0  0  0  0  0  0  0  0  0
  185.1530  177.6920  146.7550 C   0  0  0  0  0  3  0  0  0  0  0  0
  189.5120  172.1120  138.8570 C   0  0  0  0  0  3  0  0  0  0  0  0
  189.7000  173.5490  141.2560 C   0  0  0  0  0  0  0  0  0  0  0  0
  190.1070  172.2110  141.2030 C   0  0  0  0  0  3  0  0  0  0  0  0
  190.0130  171.4940  140.0060 C   0  0  0  0  0  3  0  0  0  0  0  0
  189.1030  173.4480  138.9050 C   0  0  0  0  0  3  0  0  0  0  0  0
  189.1960  174.1660  140.1010 C   0  0  0  0  0  3  0  0  0  0  0  0
  194.9450  175.6650  146.1460 C   0  0  0  0  0  1  0  0  0  0  0  0
  193.8280  176.6540  146.4180 C   0  0  0  0  0  2  0  0  0  0  0  0
  1  8  1  0  0  0  0
  2  9  1  0  0  0  0
  3 13  2  0  0  0  0
  4 11  2  0  0  0  0
  4  2  1  0  0  0  0
  5 10  2  0  0  0  0
  5 27  1  0  0  0  0
  6 21  1  6  0  0  0
  6  1  1  0  0  0  0
  6  2  1  0  0  0  0
  7  9  2  0  0  0  0
  7 18  1  0  0  0  0
  8 12  1  0  0  0  0
  8 13  1  0  0  0  0
  9  3  1  0  0  0  0
 11  7  1  0  0  0  0
 12  5  1  0  0  0  0
 13 10  1  0  0  0  0
 14 19  1  0  0  0  0
 15 19  2  0  0  0  0
 16 15  1  0  0  0  0
 17 18  1  0  0  0  0
 17 16  2  0  0  0  0
 18 14  2  0  0  0  0
 20 24  2  0  0  0  0
 20 23  1  0  0  0  0
 22 21  1  0  0  0  0
 23 22  2  0  0  0  0
 24 25  1  0  0  0  0
 25 21  2  0  0  0  0
 26 27  1  0  0  0  0
M  END
>  <MODEL>
5

>  <REMARK>
 VINA RESULT:      -7.3      1.222      7.174
  Name = 
  3 active torsions:
  status: ('A' for Active; 'I' for Inactive)
    1  A    between atoms: C_9  and  C_15
    2  A    between atoms: C_13  and  C_22
    3  A    between atoms: C_14  and  C_17
                            x       y       z     vdW  Elec       q    Type
                         _______ _______ _______ _____ _____    ______ ____

>  <TORSDO>
F 3

$$$$
=
 OpenBabel11052418343D

 27 31  0  0  1  0  0  0  0  0999 V2000
  189.4880  176.3330  145.2280 C   0  0  0  0  0  2  0  0  0  0  0  0
  188.7360  175.2830  143.1450 N   0  0  0  0  0  0  0  0  0  0  0  0
  191.0520  174.3840  143.4110 N   0  0  0  0  0  0  0  0  0  0  0  0
  187.6740  174.9160  142.4390 N   0  0  0  0  0  0  0  0  0  0  0  0
  193.0690  175.9490  145.6400 C   0  0  0  0  0  0  0  0  0  0  0  0
  188.8400  176.5490  143.8760 C   0  0  1  0  0  3  0  0  0  0  0  0
  189.1680  173.4090  142.0800 C   0  0  0  0  0  0  0  0  0  0  0  0
  190.9160  176.1650  145.0490 N   0  0  0  0  0  0  0  0  0  0  0  0
  189.6980  174.3600  142.9300 C   0  0  0  0  0  0  0  0  0  0  0  0
  192.9480  175.0680  144.6930 N   0  0  0  0  0  0  0  0  0  0  0  0
  187.9040  173.7810  141.7940 N   0  0  0  0  0  0  0  0  0  0  0  0
  191.8620  176.6500  145.9510 N   0  0  0  0  0  2  0  0  0  0  0  0
  191.5870  175.1690  144.2980 C   0  0  0  0  0  0  0  0  0  0  0  0
  190.0650  172.1030  140.1570 C   0  0  0  0  0  3  0  0  0  0  0  0
  191.0440  169.9120  140.4650 C   0  0  0  0  0  3  0  0  0  0  0  0
  190.8000  169.9970  141.8380 C   0  0  0  0  0  3  0  0  0  0  0  0
  190.1890  171.1360  142.3700 C   0  0  0  0  0  3  0  0  0  0  0  0
  189.8160  172.1990  141.5350 C   0  0  0  0  0  0  0  0  0  0  0  0
  190.6760  170.9650  139.6240 C   0  0  0  0  0  3  0  0  0  0  0  0
  185.0220  178.4660  144.3920 C   0  0  0  0  0  3  0  0  0  0  0  0
  187.5080  177.2230  144.0380 C   0  0  0  0  0  0  0  0  0  0  0  0
  186.6780  176.8470  145.1000 C   0  0  0  0  0  3  0  0  0  0  0  0
  185.4380  177.4660  145.2770 C   0  0  0  0  0  3  0  0  0  0  0  0
  185.8470  178.8460  143.3300 C   0  0  0  0  0  3  0  0  0  0  0  0
  187.0880  178.2280  143.1520 C   0  0  0  0  0  3  0  0  0  0  0  0
  195.3270  175.0600  146.0320 C   0  0  0  0  0  1  0  0  0  0  0  0
  194.3390  176.1540  146.3860 C   0  0  0  0  0  2  0  0  0  0  0  0
  2  6  1  0  0  0  0
  3 13  2  0  0  0  0
  4  2  1  0  0  0  0
  5 12  1  0  0  0  0
  5 27  1  0  0  0  0
  6 21  1  1  0  0  0
  6  1  1  0  0  0  0
  7  9  2  0  0  0  0
  8  1  1  0  0  0  0
  8 12  1  0  0  0  0
  9  2  1  0  0  0  0
  9  3  1  0  0  0  0
 10  5  2  0  0  0  0
 11  7  1  0  0  0  0
 11  4  2  0  0  0  0
 13 10  1  0  0  0  0
 13  8  1  0  0  0  0
 14 18  1  0  0  0  0
 15 16  2  0  0  0  0
 16 17  1  0  0  0  0
 18  7  1  0  0  0  0
 18 17  2  0  0  0  0
 19 14  2  0  0  0  0
 19 15  1  0  0  0  0
 20 23  1  0  0  0  0
 21 22  1  0  0  0  0
 22 23  2  0  0  0  0
 24 20  2  0  0  0  0
 25 24  1  0  0  0  0
 25 21  2  0  0  0  0
 26 27  1  0  0  0  0
M  END
>  <MODEL>
6

>  <REMARK>
 VINA RESULT:      -7.1      2.080      5.469
  Name = 
  3 active torsions:
  status: ('A' for Active; 'I' for Inactive)
    1  A    between atoms: C_9  and  C_15
    2  A    between atoms: C_13  and  C_22
    3  A    between atoms: C_14  and  C_17
                            x       y       z     vdW  Elec       q    Type
                         _______ _______ _______ _____ _____    ______ ____

>  <TORSDO>
F 3

$$$$
=
 OpenBabel11052418343D

 27 31  0  0  1  0  0  0  0  0999 V2000
  188.2260  175.3010  141.1210 C   0  0  0  0  0  2  0  0  0  0  0  0
  188.6500  176.4350  143.2520 N   0  0  0  0  0  0  0  0  0  0  0  0
  190.4150  174.6680  143.2070 N   0  0  0  0  0  0  0  0  0  0  0  0
  188.4840  177.5640  143.9290 N   0  0  0  0  0  0  0  0  0  0  0  0
  190.0400  172.1670  140.9520 C   0  0  0  0  0  0  0  0  0  0  0  0
  187.6200  175.8260  142.4070 C   0  0  1  0  0  3  0  0  0  0  0  0
  190.4080  176.8010  144.5200 C   0  0  0  0  0  0  0  0  0  0  0  0
  188.9230  174.0620  141.3960 N   0  0  0  0  0  0  0  0  0  0  0  0
  189.8470  175.9260  143.6110 C   0  0  0  0  0  0  0  0  0  0  0  0
  190.6880  172.6410  141.9730 N   0  0  0  0  0  0  0  0  0  0  0  0
  189.5370  177.8150  144.6960 N   0  0  0  0  0  0  0  0  0  0  0  0
  188.9580  172.9900  140.5060 N   0  0  0  0  0  2  0  0  0  0  0  0
  190.0120  173.8540  142.2780 C   0  0  0  0  0  0  0  0  0  0  0  0
  192.8980  176.8870  144.5020 C   0  0  0  0  0  3  0  0  0  0  0  0
  194.1900  176.5030  146.5120 C   0  0  0  0  0  3  0  0  0  0  0  0
  193.0090  176.3120  147.2340 C   0  0  0  0  0  3  0  0  0  0  0  0
  191.7720  176.4090  146.5880 C   0  0  0  0  0  3  0  0  0  0  0  0
  191.7060  176.6970  145.2170 C   0  0  0  0  0  0  0  0  0  0  0  0
  194.1340  176.7910  145.1470 C   0  0  0  0  0  3  0  0  0  0  0  0
  184.4100  178.5400  141.4860 C   0  0  0  0  0  3  0  0  0  0  0  0
  186.4970  176.7750  142.1040 C   0  0  0  0  0  0  0  0  0  0  0  0
  186.4510  177.4010  140.8530 C   0  0  0  0  0  3  0  0  0  0  0  0
  185.4110  178.2820  140.5450 C   0  0  0  0  0  3  0  0  0  0  0  0
  184.4500  177.9180  142.7370 C   0  0  0  0  0  3  0  0  0  0  0  0
  185.4900  177.0360  143.0470 C   0  0  0  0  0  3  0  0  0  0  0  0
  190.2820  171.0730  138.7640 C   0  0  0  0  0  1  0  0  0  0  0  0
  190.4400  170.9110  140.2630 C   0  0  0  0  0  2  0  0  0  0  0  0
  1  8  1  0  0  0  0
  1  6  1  0  0  0  0
  2  9  1  0  0  0  0
  2  4  1  0  0  0  0
  3  9  1  0  0  0  0
  4 11  2  0  0  0  0
  5 10  2  0  0  0  0
  6 21  1  6  0  0  0
  6  2  1  0  0  0  0
  7 11  1  0  0  0  0
  7 18  1  0  0  0  0
  8 13  1  0  0  0  0
  9  7  2  0  0  0  0
 10 13  1  0  0  0  0
 12  5  1  0  0  0  0
 12  8  1  0  0  0  0
 13  3  2  0  0  0  0
 14 19  2  0  0  0  0
 14 18  1  0  0  0  0
 15 16  2  0  0  0  0
 17 16  1  0  0  0  0
 18 17  2  0  0  0  0
 19 15  1  0  0  0  0
 20 24  1  0  0  0  0
 21 25  1  0  0  0  0
 22 21  2  0  0  0  0
 23 22  1  0  0  0  0
 23 20  2  0  0  0  0
 24 25  2  0  0  0  0
 26 27  1  0  0  0  0
 27  5  1  0  0  0  0
M  END
>  <MODEL>
7

>  <REMARK>
 VINA RESULT:      -7.1      2.020      2.550
  Name = 
  3 active torsions:
  status: ('A' for Active; 'I' for Inactive)
    1  A    between atoms: C_9  and  C_15
    2  A    between atoms: C_13  and  C_22
    3  A    between atoms: C_14  and  C_17
                            x       y       z     vdW  Elec       q    Type
                         _______ _______ _______ _____ _____    ______ ____

>  <TORSDO>
F 3

$$$$
=
 OpenBabel11052418343D

 27 31  0  0  1  0  0  0  0  0999 V2000
  189.7990  175.9420  145.3570 C   0  0  0  0  0  2  0  0  0  0  0  0
  188.3460  175.9440  143.3840 N   0  0  0  0  0  0  0  0  0  0  0  0
  190.5290  175.1540  142.4600 N   0  0  0  0  0  0  0  0  0  0  0  0
  187.0880  175.8890  142.9650 N   0  0  0  0  0  0  0  0  0  0  0  0
  193.2770  175.6090  144.3910 C   0  0  0  0  0  0  0  0  0  0  0  0
  188.7950  176.7270  144.5380 C   0  0  1  0  0  3  0  0  0  0  0  0
  188.2410  174.8080  141.5040 C   0  0  0  0  0  0  0  0  0  0  0  0
  191.0790  175.9560  144.6800 N   0  0  0  0  0  0  0  0  0  0  0  0
  189.0970  175.2810  142.4780 C   0  0  0  0  0  0  0  0  0  0  0  0
  192.7850  175.2650  143.2390 N   0  0  0  0  0  0  0  0  0  0  0  0
  186.9930  175.2000  141.8360 N   0  0  0  0  0  0  0  0  0  0  0  0
  192.2990  176.0160  145.3520 N   0  0  0  0  0  2  0  0  0  0  0  0
  191.3850  175.4630  143.3880 C   0  0  0  0  0  0  0  0  0  0  0  0
  189.2820  172.8280  140.4080 C   0  0  0  0  0  3  0  0  0  0  0  0
  189.2030  172.5250  138.0080 C   0  0  0  0  0  3  0  0  0  0  0  0
  188.4900  173.7200  137.8820 C   0  0  0  0  0  3  0  0  0  0  0  0
  188.1730  174.4680  139.0190 C   0  0  0  0  0  3  0  0  0  0  0  0
  188.5660  174.0290  140.2920 C   0  0  0  0  0  0  0  0  0  0  0  0
  189.5990  172.0790  139.2710 C   0  0  0  0  0  3  0  0  0  0  0  0
  185.5400  177.9810  147.0570 C   0  0  0  0  0  3  0  0  0  0  0  0
  187.6510  177.1730  145.4020 C   0  0  0  0  0  0  0  0  0  0  0  0
  187.3720  176.4710  146.5790 C   0  0  0  0  0  3  0  0  0  0  0  0
  186.3180  176.8730  147.4050 C   0  0  0  0  0  3  0  0  0  0  0  0
  185.8140  178.6870  145.8830 C   0  0  0  0  0  3  0  0  0  0  0  0
  186.8680  178.2860  145.0560 C   0  0  0  0  0  3  0  0  0  0  0  0
  194.9490  175.6980  146.1910 C   0  0  0  0  0  1  0  0  0  0  0  0
  194.7280  175.5130  144.7030 C   0  0  0  0  0  2  0  0  0  0  0  0
  2  6  1  0  0  0  0
  3  9  1  0  0  0  0
  3 13  2  0  0  0  0
  4  2  1  0  0  0  0
  5 27  1  0  0  0  0
  5 12  1  0  0  0  0
  6  1  1  0  0  0  0
  6 21  1  1  0  0  0
  7 11  1  0  0  0  0
  7  9  2  0  0  0  0
  8 12  1  0  0  0  0
  8  1  1  0  0  0  0
  9  2  1  0  0  0  0
 10 13  1  0  0  0  0
 10  5  2  0  0  0  0
 11  4  2  0  0  0  0
 13  8  1  0  0  0  0
 15 19  1  0  0  0  0
 16 15  2  0  0  0  0
 16 17  1  0  0  0  0
 17 18  2  0  0  0  0
 18 14  1  0  0  0  0
 18  7  1  0  0  0  0
 19 14  2  0  0  0  0
 20 23  1  0  0  0  0
 21 22  1  0  0  0  0
 22 23  2  0  0  0  0
 24 20  2  0  0  0  0
 25 21  2  0  0  0  0
 25 24  1  0  0  0  0
 27 26  1  0  0  0  0
M  END
>  <MODEL>
8

>  <REMARK>
 VINA RESULT:      -6.9      1.459      5.721
  Name = 
  3 active torsions:
  status: ('A' for Active; 'I' for Inactive)
    1  A    between atoms: C_9  and  C_15
    2  A    between atoms: C_13  and  C_22
    3  A    between atoms: C_14  and  C_17
                            x       y       z     vdW  Elec       q    Type
                         _______ _______ _______ _____ _____    ______ ____

>  <TORSDO>
F 3

$$$$
=
 OpenBabel11052418343D

 27 31  0  0  1  0  0  0  0  0999 V2000
  188.8360  175.6130  142.8360 C   0  0  0  0  0  2  0  0  0  0  0  0
  190.3840  175.8670  144.7190 N   0  0  0  0  0  0  0  0  0  0  0  0
  191.6230  174.3280  143.1910 N   0  0  0  0  0  0  0  0  0  0  0  0
  190.7330  176.6440  145.7360 N   0  0  0  0  0  0  0  0  0  0  0  0
  189.8480  172.8600  140.7050 C   0  0  0  0  0  0  0  0  0  0  0  0
  188.9970  175.5820  144.3420 C   0  0  1  0  0  3  0  0  0  0  0  0
  192.5650  175.7980  144.9860 C   0  0  0  0  0  0  0  0  0  0  0  0
  189.3800  174.3940  142.2750 N   0  0  0  0  0  0  0  0  0  0  0  0
  191.5140  175.3110  144.2340 C   0  0  0  0  0  0  0  0  0  0  0  0
  190.9650  172.9380  141.3630 N   0  0  0  0  0  0  0  0  0  0  0  0
  192.0470  176.6300  145.9130 N   0  0  0  0  0  0  0  0  0  0  0  0
  188.8260  173.7440  141.1730 N   0  0  0  0  0  2  0  0  0  0  0  0
  190.7100  173.9120  142.3650 C   0  0  0  0  0  0  0  0  0  0  0  0
  194.6050  174.5970  145.7620 C   0  0  0  0  0  3  0  0  0  0  0  0
  196.7390  174.8900  144.6600 C   0  0  0  0  0  3  0  0  0  0  0  0
  196.1510  175.7830  143.7600 C   0  0  0  0  0  3  0  0  0  0  0  0
  194.7900  176.0820  143.8620 C   0  0  0  0  0  3  0  0  0  0  0  0
  194.0040  175.4920  144.8630 C   0  0  0  0  0  0  0  0  0  0  0  0
  195.9660  174.2970  145.6600 C   0  0  0  0  0  3  0  0  0  0  0  0
  186.1970  178.3050  146.1490 C   0  0  0  0  0  3  0  0  0  0  0  0
  188.0260  176.5260  144.9900 C   0  0  0  0  0  0  0  0  0  0  0  0
  187.5710  177.6360  144.2690 C   0  0  0  0  0  3  0  0  0  0  0  0
  186.6590  178.5240  144.8480 C   0  0  0  0  0  3  0  0  0  0  0  0
  186.6480  177.1970  146.8730 C   0  0  0  0  0  3  0  0  0  0  0  0
  187.5590  176.3080  146.2950 C   0  0  0  0  0  3  0  0  0  0  0  0
  190.5210  170.7320  139.6760 C   0  0  0  0  0  1  0  0  0  0  0  0
  189.6770  171.9810  139.5180 C   0  0  0  0  0  2  0  0  0  0  0  0
  1  6  1  0  0  0  0
  2  4  1  0  0  0  0
  3  9  1  0  0  0  0
  4 11  2  0  0  0  0
  5 12  1  0  0  0  0
  5 10  2  0  0  0  0
  6  2  1  0  0  0  0
  6 21  1  1  0  0  0
  7 11  1  0  0  0  0
  8 13  1  0  0  0  0
  8  1  1  0  0  0  0
  9  2  1  0  0  0  0
  9  7  2  0  0  0  0
 10 13  1  0  0  0  0
 12  8  1  0  0  0  0
 13  3  2  0  0  0  0
 15 19  2  0  0  0  0
 16 17  2  0  0  0  0
 16 15  1  0  0  0  0
 17 18  1  0  0  0  0
 18  7  1  0  0  0  0
 18 14  2  0  0  0  0
 19 14  1  0  0  0  0
 20 24  1  0  0  0  0
 21 25  1  0  0  0  0
 22 23  1  0  0  0  0
 22 21  2  0  0  0  0
 23 20  2  0  0  0  0
 25 24  2  0  0  0  0
 27 26  1  0  0  0  0
 27  5  1  0  0  0  0
M  END
>  <MODEL>
9

>  <REMARK>
 VINA RESULT:      -6.9      1.627      2.143
  Name = 
  3 active torsions:
  status: ('A' for Active; 'I' for Inactive)
    1  A    between atoms: C_9  and  C_15
    2  A    between atoms: C_13  and  C_22
    3  A    between atoms: C_14  and  C_17
                            x       y       z     vdW  Elec       q    Type
                         _______ _______ _______ _____ _____    ______ ____

>  <TORSDO>
F 3

$$$$
