=
 OpenBabel11052417353D

 25 28  0  0  1  0  0  0  0  0999 V2000
  186.8990  176.7600  143.4910 C   0  0  0  0  0  0  0  0  0  0  0  0
  187.9970  176.1140  143.1140 C   0  0  0  0  0  0  0  0  0  0  0  0
  186.2860  177.3290  141.1360 C   0  0  0  0  0  3  0  0  0  0  0  0
  186.3330  177.0630  144.7880 C   0  0  2  0  0  3  0  0  0  0  0  0
  189.9230  174.7950  143.7310 N   0  0  0  0  0  0  0  0  0  0  0  0
  185.0560  178.3140  146.9850 C   0  0  0  0  0  2  0  0  0  0  0  0
  187.3460  176.6830  140.7350 N   0  0  0  0  0  0  0  0  0  0  0  0
  185.2540  177.8060  144.5450 C   0  0  0  0  0  0  0  0  0  0  0  0
  184.3420  178.3060  145.6260 C   0  0  0  0  0  2  0  0  0  0  0  0
  188.4930  174.5260  141.1330 C   0  0  0  0  0  0  0  0  0  0  0  0
  188.3030  174.2380  139.6790 C   0  0  0  0  0  1  0  0  0  0  0  0
  188.8760  175.6220  144.0780 O   0  0  0  0  0  0  0  0  0  0  0  0
  185.7950  176.9900  147.2190 C   0  0  0  0  0  2  0  0  0  0  0  0
  186.0020  177.3760  142.5610 C   0  0  0  0  0  0  0  0  0  0  0  0
  185.0280  177.9980  143.1410 N   0  0  0  0  0  0  0  0  0  0  0  0
  189.0150  173.5200  141.8600 C   0  0  0  0  0  3  0  0  0  0  0  0
  186.8780  176.7770  146.1550 C   0  0  0  0  0  2  0  0  0  0  0  0
  189.3420  173.5250  143.3240 C   0  0  0  0  0  2  0  0  0  0  0  0
  188.2970  175.9580  141.6200 C   0  0  0  0  0  0  0  0  0  0  0  0
  190.7690  174.5750  144.9110 C   0  0  0  0  0  2  0  0  0  0  0  0
  192.0190  176.4410  145.9930 C   0  0  0  0  0  1  0  0  0  0  0  0
  190.6950  175.7020  145.9490 C   0  0  2  0  0  3  0  0  0  0  0  0
  190.3510  175.1840  147.3080 C   0  0  0  0  0  0  0  0  0  0  0  0
  189.1680  174.4830  147.4950 O   0  0  0  0  0  0  0  0  0  0  0  0
  191.1230  175.3820  148.2850 O   0  0  0  0  0  1  0  0  0  0  0  0
  1  4  1  0  0  0  0
  2  1  1  0  0  0  0
  2 12  1  0  0  0  0
  3 14  1  0  0  0  0
  4 17  1  1  0  0  0
  5 12  1  0  0  0  0
  5 20  1  0  0  0  0
  6 13  1  0  0  0  0
  7  3  2  0  0  0  0
  7 19  1  0  0  0  0
  8  4  1  0  0  0  0
  8  9  1  0  0  0  0
  9  6  1  0  0  0  0
 10 19  1  0  0  0  0
 10 16  2  0  0  0  0
 11 10  1  0  0  0  0
 14 15  1  0  0  0  0
 14  1  2  0  0  0  0
 15  8  2  0  0  0  0
 16 18  1  0  0  0  0
 17 13  1  0  0  0  0
 18  5  1  0  0  0  0
 19  2  2  0  0  0  0
 20 22  1  0  0  0  0
 22 21  1  1  0  0  0
 22 23  1  0  0  0  0
 23 24  2  0  0  0  0
 23 25  1  0  0  0  0
M  END
>  <MODEL>
1

>  <REMARK>
 VINA RESULT:      -7.7      0.000      0.000
  Name = 
  3 active torsions:
  status: ('A' for Active; 'I' for Inactive)
    1  A    between atoms: C_2  and  C_25
    2  A    between atoms: N_6  and  C_15
    3  A    between atoms: C_15  and  C_25
                            x       y       z     vdW  Elec       q    Type
                         _______ _______ _______ _____ _____    ______ ____

>  <TORSDO>
F 3

$$$$
=
 OpenBabel11052417353D

 25 28  0  0  1  0  0  0  0  0999 V2000
  186.9490  176.8810  143.9510 C   0  0  0  0  0  0  0  0  0  0  0  0
  188.1090  176.3410  143.5940 C   0  0  0  0  0  0  0  0  0  0  0  0
  186.2330  177.1960  141.5780 C   0  0  0  0  0  3  0  0  0  0  0  0
  186.3740  177.2130  145.2370 C   0  0  2  0  0  3  0  0  0  0  0  0
  190.1890  175.3070  144.2550 N   0  0  0  0  0  0  0  0  0  0  0  0
  184.9960  178.4670  147.3700 C   0  0  0  0  0  2  0  0  0  0  0  0
  187.3550  176.6500  141.1980 N   0  0  0  0  0  0  0  0  0  0  0  0
  185.2100  177.8040  144.9690 C   0  0  0  0  0  0  0  0  0  0  0  0
  184.2640  178.2730  146.0350 C   0  0  0  0  0  2  0  0  0  0  0  0
  188.7560  174.6780  141.7210 C   0  0  0  0  0  0  0  0  0  0  0  0
  188.5770  174.2610  140.2980 C   0  0  0  0  0  1  0  0  0  0  0  0
  189.0570  176.0300  144.5680 O   0  0  0  0  0  0  0  0  0  0  0  0
  185.8900  177.2600  147.6800 C   0  0  0  0  0  2  0  0  0  0  0  0
  185.9700  177.3160  143.0040 C   0  0  0  0  0  0  0  0  0  0  0  0
  184.9390  177.8620  143.5620 N   0  0  0  0  0  0  0  0  0  0  0  0
  189.4060  173.7980  142.5050 C   0  0  0  0  0  3  0  0  0  0  0  0
  186.9720  177.0960  146.6070 C   0  0  0  0  0  2  0  0  0  0  0  0
  189.7560  173.9510  143.9560 C   0  0  0  0  0  2  0  0  0  0  0  0
  188.4000  176.1100  142.1080 C   0  0  0  0  0  0  0  0  0  0  0  0
  191.0760  175.2770  145.4250 C   0  0  0  0  0  2  0  0  0  0  0  0
  192.4330  176.8490  144.0450 C   0  0  0  0  0  1  0  0  0  0  0  0
  192.0970  176.4220  145.4610 C   0  0  2  0  0  3  0  0  0  0  0  0
  193.3430  176.0320  146.1890 C   0  0  0  0  0  0  0  0  0  0  0  0
  194.1000  177.0070  146.8230 O   0  0  0  0  0  1  0  0  0  0  0  0
  193.7140  174.8280  146.2280 O   0  0  0  0  0  0  0  0  0  0  0  0
  1  4  1  0  0  0  0
  2  1  1  0  0  0  0
  2 12  1  0  0  0  0
  3 14  1  0  0  0  0
  4 17  1  6  0  0  0
  5 12  1  0  0  0  0
  5 20  1  0  0  0  0
  6 13  1  0  0  0  0
  7  3  2  0  0  0  0
  7 19  1  0  0  0  0
  8  4  1  0  0  0  0
  8  9  1  0  0  0  0
  9  6  1  0  0  0  0
 10 19  1  0  0  0  0
 10 16  2  0  0  0  0
 11 10  1  0  0  0  0
 14 15  1  0  0  0  0
 14  1  2  0  0  0  0
 15  8  2  0  0  0  0
 16 18  1  0  0  0  0
 17 13  1  0  0  0  0
 18  5  1  0  0  0  0
 19  2  2  0  0  0  0
 20 22  1  0  0  0  0
 22 21  1  6  0  0  0
 22 23  1  0  0  0  0
 23 25  2  0  0  0  0
 23 24  1  0  0  0  0
M  END
>  <MODEL>
2

>  <REMARK>
 VINA RESULT:      -7.4      1.236      1.642
  Name = 
  3 active torsions:
  status: ('A' for Active; 'I' for Inactive)
    1  A    between atoms: C_2  and  C_25
    2  A    between atoms: N_6  and  C_15
    3  A    between atoms: C_15  and  C_25
                            x       y       z     vdW  Elec       q    Type
                         _______ _______ _______ _____ _____    ______ ____

>  <TORSDO>
F 3

$$$$
=
 OpenBabel11052417353D

 25 28  0  0  1  0  0  0  0  0999 V2000
  189.6950  174.8340  144.2050 C   0  0  0  0  0  0  0  0  0  0  0  0
  188.6220  174.9900  143.4370 C   0  0  0  0  0  0  0  0  0  0  0  0
  190.5770  172.9700  142.7940 C   0  0  0  0  0  3  0  0  0  0  0  0
  190.1270  175.4710  145.4310 C   0  0  2  0  0  3  0  0  0  0  0  0
  186.5970  176.2130  142.9540 N   0  0  0  0  0  0  0  0  0  0  0  0
  191.2010  176.0120  147.9950 C   0  0  0  0  0  2  0  0  0  0  0  0
  189.5450  173.1150  142.0100 N   0  0  0  0  0  0  0  0  0  0  0  0
  191.2510  174.8470  145.7840 C   0  0  0  0  0  0  0  0  0  0  0  0
  192.0570  175.2310  146.9890 C   0  0  0  0  0  2  0  0  0  0  0  0
  188.2890  174.9190  140.8730 C   0  0  0  0  0  0  0  0  0  0  0  0
  188.6250  174.2430  139.5830 C   0  0  0  0  0  1  0  0  0  0  0  0
  187.6280  175.8930  143.8120 O   0  0  0  0  0  0  0  0  0  0  0  0
  190.3970  177.1100  147.2870 C   0  0  0  0  0  2  0  0  0  0  0  0
  190.7070  173.8590  143.9380 C   0  0  0  0  0  0  0  0  0  0  0  0
  191.6340  173.8370  144.8400 N   0  0  0  0  0  0  0  0  0  0  0  0
  187.6580  176.1020  140.7600 C   0  0  0  0  0  3  0  0  0  0  0  0
  189.4280  176.5010  146.2670 C   0  0  0  0  0  2  0  0  0  0  0  0
  187.1740  176.9900  141.8690 C   0  0  0  0  0  2  0  0  0  0  0  0
  188.4800  174.1410  142.1700 C   0  0  0  0  0  0  0  0  0  0  0  0
  185.6210  177.0450  143.6690 C   0  0  0  0  0  2  0  0  0  0  0  0
  185.4610  176.7060  146.1340 C   0  0  0  0  0  1  0  0  0  0  0  0
  186.1060  177.5340  145.0400 C   0  0  2  0  0  3  0  0  0  0  0  0
  185.8070  178.9840  145.2500 C   0  0  0  0  0  0  0  0  0  0  0  0
  185.7430  179.8360  144.1560 O   0  0  0  0  0  0  0  0  0  0  0  0
  185.6170  179.4390  146.4100 O   0  0  0  0  0  1  0  0  0  0  0  0
  1  4  1  0  0  0  0
  2 12  1  0  0  0  0
  2  1  1  0  0  0  0
  3 14  1  0  0  0  0
  4  8  1  0  0  0  0
  4 17  1  1  0  0  0
  5 20  1  0  0  0  0
  5 12  1  0  0  0  0
  7 19  1  0  0  0  0
  7  3  2  0  0  0  0
  8  9  1  0  0  0  0
  9  6  1  0  0  0  0
 10 19  1  0  0  0  0
 11 10  1  0  0  0  0
 13  6  1  0  0  0  0
 14  1  2  0  0  0  0
 14 15  1  0  0  0  0
 15  8  2  0  0  0  0
 16 10  2  0  0  0  0
 16 18  1  0  0  0  0
 17 13  1  0  0  0  0
 18  5  1  0  0  0  0
 19  2  2  0  0  0  0
 20 22  1  0  0  0  0
 22 23  1  0  0  0  0
 22 21  1  1  0  0  0
 23 25  1  0  0  0  0
 24 23  2  0  0  0  0
M  END
>  <MODEL>
3

>  <REMARK>
 VINA RESULT:      -7.1      2.048      5.182
  Name = 
  3 active torsions:
  status: ('A' for Active; 'I' for Inactive)
    1  A    between atoms: C_2  and  C_25
    2  A    between atoms: N_6  and  C_15
    3  A    between atoms: C_15  and  C_25
                            x       y       z     vdW  Elec       q    Type
                         _______ _______ _______ _____ _____    ______ ____

>  <TORSDO>
F 3

$$$$
=
 OpenBabel11052417353D

 25 28  0  0  1  0  0  0  0  0999 V2000
  186.7360  177.0330  144.6650 C   0  0  0  0  0  0  0  0  0  0  0  0
  187.8760  176.3510  144.6530 C   0  0  0  0  0  0  0  0  0  0  0  0
  186.6260  177.0280  147.1610 C   0  0  0  0  0  3  0  0  0  0  0  0
  185.8700  177.5200  143.6130 C   0  0  0  0  0  0  0  0  0  0  0  0
  189.6840  175.3860  143.3750 N   0  0  0  0  0  0  0  0  0  0  0  0
  183.6350  178.2650  142.0410 C   0  0  0  0  0  2  0  0  0  0  0  0
  187.7560  176.3770  147.1810 N   0  0  0  0  0  0  0  0  0  0  0  0
  184.8260  178.0700  144.2310 C   0  0  0  0  0  0  0  0  0  0  0  0
  183.7000  178.7390  143.5000 C   0  0  0  0  0  2  0  0  0  0  0  0
  189.9960  176.4700  146.1310 C   0  0  0  0  0  0  0  0  0  0  0  0
  190.5570  176.6130  147.5080 C   0  0  0  0  0  1  0  0  0  0  0  0
  188.4190  175.9330  143.4390 O   0  0  0  0  0  0  0  0  0  0  0  0
  185.0280  178.2920  141.3990 C   0  0  0  0  0  2  0  0  0  0  0  0
  186.0690  177.4100  145.8730 C   0  0  0  0  0  0  0  0  0  0  0  0
  184.9480  178.0180  145.6590 N   0  0  0  0  0  0  0  0  0  0  0  0
  190.8850  176.5840  145.1280 C   0  0  0  0  0  3  0  0  0  0  0  0
  185.9800  177.3370  142.1280 C   0  0  0  0  0  2  0  0  0  0  0  0
  190.6240  176.4600  143.6550 C   0  0  0  0  0  2  0  0  0  0  0  0
  188.5520  176.0010  145.9820 C   0  0  2  0  0  3  0  0  0  0  0  0
  189.9210  174.8880  142.0140 C   0  0  0  0  0  2  0  0  0  0  0  0
  190.2320  172.9500  140.4780 C   0  0  0  0  0  1  0  0  0  0  0  0
  190.0850  173.3650  141.9290 C   0  0  2  0  0  3  0  0  0  0  0  0
  188.9330  172.6460  142.5540 C   0  0  0  0  0  0  0  0  0  0  0  0
  187.6640  172.7820  142.0090 O   0  0  0  0  0  0  0  0  0  0  0  0
  189.1030  171.9230  143.5720 O   0  0  0  0  0  1  0  0  0  0  0  0
  1 14  1  0  0  0  0
  2  1  2  0  0  0  0
  3  7  2  0  0  0  0
  4  8  2  0  0  0  0
  4  1  1  0  0  0  0
  5 12  1  0  0  0  0
  5 18  1  0  0  0  0
  6  9  1  0  0  0  0
  8 15  1  0  0  0  0
  9  8  1  0  0  0  0
 10 11  1  0  0  0  0
 12  2  1  0  0  0  0
 13  6  1  0  0  0  0
 13 17  1  0  0  0  0
 14  3  1  0  0  0  0
 15 14  2  0  0  0  0
 16 10  2  0  0  0  0
 17  4  1  0  0  0  0
 18 16  1  0  0  0  0
 19  2  1  6  0  0  0
 19 10  1  0  0  0  0
 19  7  1  0  0  0  0
 20  5  1  0  0  0  0
 22 21  1  6  0  0  0
 22 20  1  0  0  0  0
 22 23  1  0  0  0  0
 23 25  1  0  0  0  0
 24 23  2  0  0  0  0
M  END
>  <MODEL>
4

>  <REMARK>
 VINA RESULT:      -6.9      2.096      4.585
  Name = 
  3 active torsions:
  status: ('A' for Active; 'I' for Inactive)
    1  A    between atoms: C_2  and  C_25
    2  A    between atoms: N_6  and  C_15
    3  A    between atoms: C_15  and  C_25
                            x       y       z     vdW  Elec       q    Type
                         _______ _______ _______ _____ _____    ______ ____

>  <TORSDO>
F 3

$$$$
=
 OpenBabel11052417353D

 25 28  0  0  1  0  0  0  0  0999 V2000
  186.7270  177.1250  144.6900 C   0  0  0  0  0  0  0  0  0  0  0  0
  187.8530  176.4210  144.6780 C   0  0  0  0  0  0  0  0  0  0  0  0
  186.6910  177.2450  147.1850 C   0  0  0  0  0  3  0  0  0  0  0  0
  185.8400  177.5780  143.6400 C   0  0  0  0  0  0  0  0  0  0  0  0
  189.6040  175.3590  143.3990 N   0  0  0  0  0  0  0  0  0  0  0  0
  183.5730  178.2910  142.0980 C   0  0  0  0  0  2  0  0  0  0  0  0
  187.8080  176.5720  147.2040 N   0  0  0  0  0  0  0  0  0  0  0  0
  184.8240  178.1790  144.2600 C   0  0  0  0  0  0  0  0  0  0  0  0
  183.6900  178.8340  143.5290 C   0  0  0  0  0  2  0  0  0  0  0  0
  190.0170  176.5690  146.0880 C   0  0  0  0  0  0  0  0  0  0  0  0
  190.6220  176.7680  147.4400 C   0  0  0  0  0  1  0  0  0  0  0  0
  188.3520  175.9330  143.4710 O   0  0  0  0  0  0  0  0  0  0  0  0
  184.9460  178.2580  141.4160 C   0  0  0  0  0  2  0  0  0  0  0  0
  186.1030  177.5740  145.8970 C   0  0  0  0  0  0  0  0  0  0  0  0
  184.9870  178.1940  145.6850 N   0  0  0  0  0  0  0  0  0  0  0  0
  190.8790  176.6170  145.0550 C   0  0  0  0  0  3  0  0  0  0  0  0
  185.9010  177.3210  142.1640 C   0  0  0  0  0  2  0  0  0  0  0  0
  190.5720  176.4260  143.5990 C   0  0  0  0  0  2  0  0  0  0  0  0
  188.5610  176.1220  146.0030 C   0  0  2  0  0  3  0  0  0  0  0  0
  189.7920  174.7910  142.0580 C   0  0  0  0  0  2  0  0  0  0  0  0
  188.5490  172.6440  142.3110 C   0  0  0  0  0  1  0  0  0  0  0  0
  188.6000  173.9610  141.5610 C   0  0  2  0  0  3  0  0  0  0  0  0
  188.6730  173.7110  140.0890 C   0  0  0  0  0  0  0  0  0  0  0  0
  189.2810  172.5550  139.6200 O   0  0  0  0  0  1  0  0  0  0  0  0
  188.1920  174.5400  139.2720 O   0  0  0  0  0  0  0  0  0  0  0  0
  1 14  1  0  0  0  0
  2  1  2  0  0  0  0
  3  7  2  0  0  0  0
  4  8  2  0  0  0  0
  4  1  1  0  0  0  0
  5 12  1  0  0  0  0
  5 18  1  0  0  0  0
  6  9  1  0  0  0  0
  8 15  1  0  0  0  0
  9  8  1  0  0  0  0
 10 11  1  0  0  0  0
 12  2  1  0  0  0  0
 13  6  1  0  0  0  0
 13 17  1  0  0  0  0
 14  3  1  0  0  0  0
 15 14  2  0  0  0  0
 16 10  2  0  0  0  0
 17  4  1  0  0  0  0
 18 16  1  0  0  0  0
 19  2  1  6  0  0  0
 19 10  1  0  0  0  0
 19  7  1  0  0  0  0
 20  5  1  0  0  0  0
 22 20  1  0  0  0  0
 22 21  1  1  0  0  0
 23 22  1  0  0  0  0
 24 23  1  0  0  0  0
 25 23  2  0  0  0  0
M  END
>  <MODEL>
5

>  <REMARK>
 VINA RESULT:      -6.9      2.199      5.033
  Name = 
  3 active torsions:
  status: ('A' for Active; 'I' for Inactive)
    1  A    between atoms: C_2  and  C_25
    2  A    between atoms: N_6  and  C_15
    3  A    between atoms: C_15  and  C_25
                            x       y       z     vdW  Elec       q    Type
                         _______ _______ _______ _____ _____    ______ ____

>  <TORSDO>
F 3

$$$$
=
 OpenBabel11052417353D

 25 28  0  0  1  0  0  0  0  0999 V2000
  188.0200  177.0230  145.6840 C   0  0  0  0  0  0  0  0  0  0  0  0
  188.7070  176.2170  144.8820 C   0  0  0  0  0  0  0  0  0  0  0  0
  189.8920  177.1660  147.3330 C   0  0  0  0  0  3  0  0  0  0  0  0
  186.6720  177.5460  145.6320 C   0  0  0  0  0  0  0  0  0  0  0  0
  188.8210  174.9870  142.8070 N   0  0  0  0  0  0  0  0  0  0  0  0
  184.0680  178.4520  146.2790 C   0  0  0  0  0  2  0  0  0  0  0  0
  190.5980  176.3940  146.5540 N   0  0  0  0  0  0  0  0  0  0  0  0
  186.5130  178.2430  146.7570 C   0  0  0  0  0  0  0  0  0  0  0  0
  185.2560  178.9940  147.0850 C   0  0  0  0  0  2  0  0  0  0  0  0
  191.1910  176.1770  144.1610 C   0  0  0  0  0  0  0  0  0  0  0  0
  192.6190  176.3310  144.5730 C   0  0  0  0  0  1  0  0  0  0  0  0
  188.0920  175.6750  143.7540 O   0  0  0  0  0  0  0  0  0  0  0  0
  184.4440  178.2870  144.8010 C   0  0  0  0  0  2  0  0  0  0  0  0
  188.5520  177.5370  146.9090 C   0  0  2  0  0  3  0  0  0  0  0  0
  187.6980  178.2550  147.5640 N   0  0  0  0  0  0  0  0  0  0  0  0
  190.9730  176.1360  142.8340 C   0  0  0  0  0  3  0  0  0  0  0  0
  185.5810  177.2720  144.6410 C   0  0  0  0  0  2  0  0  0  0  0  0
  189.6600  175.9620  142.1280 C   0  0  0  0  0  2  0  0  0  0  0  0
  190.1550  175.8660  145.2360 C   0  0  0  0  0  0  0  0  0  0  0  0
  187.8980  174.3930  141.8320 C   0  0  0  0  0  2  0  0  0  0  0  0
  188.9680  172.3170  142.7030 C   0  0  0  0  0  1  0  0  0  0  0  0
  188.1410  172.9000  141.5740 C   0  0  2  0  0  3  0  0  0  0  0  0
  188.8240  172.6660  140.2650 C   0  0  0  0  0  0  0  0  0  0  0  0
  190.1640  172.3060  140.2450 O   0  0  0  0  0  1  0  0  0  0  0  0
  188.1950  172.7970  139.1800 O   0  0  0  0  0  0  0  0  0  0  0  0
  1 14  1  0  0  0  0
  2 19  2  0  0  0  0
  2  1  1  0  0  0  0
  4  1  2  0  0  0  0
  4  8  1  0  0  0  0
  5 12  1  0  0  0  0
  6  9  1  0  0  0  0
  7  3  2  0  0  0  0
  8  9  1  0  0  0  0
  8 15  2  0  0  0  0
 10 11  1  0  0  0  0
 10 19  1  0  0  0  0
 12  2  1  0  0  0  0
 13  6  1  0  0  0  0
 14  3  1  1  0  0  0
 14 15  1  0  0  0  0
 16 10  2  0  0  0  0
 17 13  1  0  0  0  0
 17  4  1  0  0  0  0
 18  5  1  0  0  0  0
 18 16  1  0  0  0  0
 19  7  1  0  0  0  0
 20  5  1  0  0  0  0
 22 20  1  0  0  0  0
 22 21  1  1  0  0  0
 23 22  1  0  0  0  0
 24 23  1  0  0  0  0
 25 23  2  0  0  0  0
M  END
>  <MODEL>
6

>  <REMARK>
 VINA RESULT:      -6.7      2.379      4.866
  Name = 
  3 active torsions:
  status: ('A' for Active; 'I' for Inactive)
    1  A    between atoms: C_2  and  C_25
    2  A    between atoms: N_6  and  C_15
    3  A    between atoms: C_15  and  C_25
                            x       y       z     vdW  Elec       q    Type
                         _______ _______ _______ _____ _____    ______ ____

>  <TORSDO>
F 3

$$$$
=
 OpenBabel11052417353D

 25 28  0  0  1  0  0  0  0  0999 V2000
  188.0120  176.1810  143.1650 C   0  0  0  0  0  0  0  0  0  0  0  0
  189.0150  175.4000  143.5520 C   0  0  0  0  0  0  0  0  0  0  0  0
  188.1010  175.3280  140.8190 C   0  0  0  0  0  3  0  0  0  0  0  0
  187.2300  177.1880  143.8500 C   0  0  2  0  0  3  0  0  0  0  0  0
  190.4340  174.6040  145.3370 N   0  0  0  0  0  0  0  0  0  0  0  0
  185.7500  179.5080  144.5190 C   0  0  0  0  0  2  0  0  0  0  0  0
  189.0720  174.5350  141.1750 N   0  0  0  0  0  0  0  0  0  0  0  0
  186.4110  177.6960  142.9290 C   0  0  0  0  0  0  0  0  0  0  0  0
  185.3900  178.7520  143.2330 C   0  0  0  0  0  2  0  0  0  0  0  0
  189.6340  172.9510  142.9930 C   0  0  0  0  0  0  0  0  0  0  0  0
  189.7380  171.8930  141.9430 C   0  0  0  0  0  1  0  0  0  0  0  0
  189.5230  175.5160  144.8450 O   0  0  0  0  0  0  0  0  0  0  0  0
  186.1290  178.5300  145.6370 C   0  0  0  0  0  2  0  0  0  0  0  0
  187.5040  176.1880  141.8280 C   0  0  0  0  0  0  0  0  0  0  0  0
  186.5660  177.0610  141.6520 N   0  0  0  0  0  0  0  0  0  0  0  0
  189.7550  172.5220  144.2620 C   0  0  0  0  0  3  0  0  0  0  0  0
  187.3670  177.7140  145.2470 C   0  0  0  0  0  2  0  0  0  0  0  0
  189.7220  173.3490  145.5140 C   0  0  0  0  0  2  0  0  0  0  0  0
  189.6210  174.4110  142.5520 C   0  0  0  0  0  0  0  0  0  0  0  0
  190.9160  175.0670  146.6440 C   0  0  0  0  0  2  0  0  0  0  0  0
  192.8880  176.5740  146.8860 C   0  0  0  0  0  1  0  0  0  0  0  0
  192.4450  175.1290  146.7580 C   0  0  2  0  0  3  0  0  0  0  0  0
  193.1150  174.4890  145.5850 C   0  0  0  0  0  0  0  0  0  0  0  0
  193.4670  175.2650  144.4890 O   0  0  0  0  0  0  0  0  0  0  0  0
  193.3600  173.2530  145.5800 O   0  0  0  0  0  1  0  0  0  0  0  0
  1  2  1  0  0  0  0
  1  4  1  0  0  0  0
  2 12  1  0  0  0  0
  3  7  2  0  0  0  0
  3 14  1  0  0  0  0
  4 17  1  6  0  0  0
  5 18  1  0  0  0  0
  5 20  1  0  0  0  0
  6 13  1  0  0  0  0
  7 19  1  0  0  0  0
  8  9  1  0  0  0  0
  8  4  1  0  0  0  0
  9  6  1  0  0  0  0
 10 16  2  0  0  0  0
 11 10  1  0  0  0  0
 12  5  1  0  0  0  0
 14  1  2  0  0  0  0
 15 14  1  0  0  0  0
 15  8  2  0  0  0  0
 16 18  1  0  0  0  0
 17 13  1  0  0  0  0
 19 10  1  0  0  0  0
 19  2  2  0  0  0  0
 20 22  1  0  0  0  0
 22 21  1  6  0  0  0
 23 22  1  0  0  0  0
 24 23  2  0  0  0  0
 25 23  1  0  0  0  0
M  END
>  <MODEL>
7

>  <REMARK>
 VINA RESULT:      -6.7      1.832      2.545
  Name = 
  3 active torsions:
  status: ('A' for Active; 'I' for Inactive)
    1  A    between atoms: C_2  and  C_25
    2  A    between atoms: N_6  and  C_15
    3  A    between atoms: C_15  and  C_25
                            x       y       z     vdW  Elec       q    Type
                         _______ _______ _______ _____ _____    ______ ____

>  <TORSDO>
F 3

$$$$
=
 OpenBabel11052417353D

 25 28  0  0  1  0  0  0  0  0999 V2000
  189.5050  176.6250  145.8520 C   0  0  0  0  0  0  0  0  0  0  0  0
  190.4640  175.9820  145.1960 C   0  0  0  0  0  0  0  0  0  0  0  0
  190.9700  177.0240  147.8360 C   0  0  0  0  0  3  0  0  0  0  0  0
  188.1210  176.9110  145.5390 C   0  0  0  0  0  0  0  0  0  0  0  0
  191.1900  174.8720  143.1780 N   0  0  0  0  0  0  0  0  0  0  0  0
  185.3230  177.3290  145.6660 C   0  0  0  0  0  2  0  0  0  0  0  0
  191.9370  176.4160  147.2080 N   0  0  0  0  0  0  0  0  0  0  0  0
  187.6280  177.5250  146.6140 C   0  0  0  0  0  0  0  0  0  0  0  0
  186.2190  178.0350  146.6920 C   0  0  0  0  0  2  0  0  0  0  0  0
  193.0080  176.3980  144.9760 C   0  0  0  0  0  0  0  0  0  0  0  0
  194.2800  176.7790  145.6620 C   0  0  0  0  0  1  0  0  0  0  0  0
  190.1830  175.3870  143.9670 O   0  0  0  0  0  0  0  0  0  0  0  0
  185.9990  177.2880  144.2900 C   0  0  0  0  0  2  0  0  0  0  0  0
  189.6910  177.1750  147.1590 C   0  0  2  0  0  3  0  0  0  0  0  0
  188.6150  177.7100  147.6380 N   0  0  0  0  0  0  0  0  0  0  0  0
  193.0600  176.3720  143.6320 C   0  0  0  0  0  3  0  0  0  0  0  0
  187.3070  176.4910  144.3510 C   0  0  0  0  0  2  0  0  0  0  0  0
  191.9590  176.0030  142.6810 C   0  0  0  0  0  2  0  0  0  0  0  0
  191.8560  175.8720  145.8260 C   0  0  0  0  0  0  0  0  0  0  0  0
  190.5910  174.1660  142.0380 C   0  0  0  0  0  2  0  0  0  0  0  0
  188.5670  172.7220  142.2140 C   0  0  0  0  0  1  0  0  0  0  0  0
  189.0570  174.1480  142.0540 C   0  0  2  0  0  3  0  0  0  0  0  0
  188.4820  174.7520  140.8140 C   0  0  0  0  0  0  0  0  0  0  0  0
  187.8160  175.9680  140.8880 O   0  0  0  0  0  1  0  0  0  0  0  0
  188.5910  174.1660  139.7030 O   0  0  0  0  0  0  0  0  0  0  0  0
  1 14  1  0  0  0  0
  2 19  2  0  0  0  0
  2  1  1  0  0  0  0
  4  1  2  0  0  0  0
  4  8  1  0  0  0  0
  5 12  1  0  0  0  0
  6  9  1  0  0  0  0
  7  3  2  0  0  0  0
  8  9  1  0  0  0  0
  8 15  2  0  0  0  0
 10 11  1  0  0  0  0
 10 19  1  0  0  0  0
 12  2  1  0  0  0  0
 13 17  1  0  0  0  0
 13  6  1  0  0  0  0
 14 15  1  0  0  0  0
 14  3  1  1  0  0  0
 16 10  2  0  0  0  0
 17  4  1  0  0  0  0
 18  5  1  0  0  0  0
 18 16  1  0  0  0  0
 19  7  1  0  0  0  0
 20 22  1  0  0  0  0
 20  5  1  0  0  0  0
 22 21  1  6  0  0  0
 23 24  1  0  0  0  0
 23 22  1  0  0  0  0
 25 23  2  0  0  0  0
M  END
>  <MODEL>
8

>  <REMARK>
 VINA RESULT:      -6.7      2.299      5.253
  Name = 
  3 active torsions:
  status: ('A' for Active; 'I' for Inactive)
    1  A    between atoms: C_2  and  C_25
    2  A    between atoms: N_6  and  C_15
    3  A    between atoms: C_15  and  C_25
                            x       y       z     vdW  Elec       q    Type
                         _______ _______ _______ _____ _____    ______ ____

>  <TORSDO>
F 3

$$$$
=
 OpenBabel11052417353D

 25 28  0  0  1  0  0  0  0  0999 V2000
  187.8600  176.4580  145.2890 C   0  0  0  0  0  0  0  0  0  0  0  0
  188.5330  175.6480  144.4800 C   0  0  0  0  0  0  0  0  0  0  0  0
  188.8110  175.3930  147.3390 C   0  0  0  0  0  3  0  0  0  0  0  0
  186.8930  177.5070  145.0460 C   0  0  0  0  0  0  0  0  0  0  0  0
  189.1210  175.0100  142.2260 N   0  0  0  0  0  0  0  0  0  0  0  0
  184.6790  179.2670  145.1930 C   0  0  0  0  0  2  0  0  0  0  0  0
  189.5010  174.5970  146.5700 N   0  0  0  0  0  0  0  0  0  0  0  0
  186.5000  177.9210  146.2510 C   0  0  0  0  0  0  0  0  0  0  0  0
  185.5230  179.0400  146.4550 C   0  0  0  0  0  2  0  0  0  0  0  0
  190.9440  174.7110  144.5620 C   0  0  0  0  0  0  0  0  0  0  0  0
  192.0370  174.1350  145.4010 C   0  0  0  0  0  1  0  0  0  0  0  0
  188.3140  175.7030  143.1050 O   0  0  0  0  0  0  0  0  0  0  0  0
  185.5680  179.3060  143.9440 C   0  0  0  0  0  2  0  0  0  0  0  0
  187.9590  176.3920  146.7150 C   0  0  2  0  0  3  0  0  0  0  0  0
  187.1780  177.2330  147.3120 N   0  0  0  0  0  0  0  0  0  0  0  0
  191.3010  175.0790  143.3180 C   0  0  0  0  0  3  0  0  0  0  0  0
  186.2920  177.9690  143.7520 C   0  0  0  0  0  2  0  0  0  0  0  0
  190.4230  175.6570  142.2470 C   0  0  0  0  0  2  0  0  0  0  0  0
  189.5120  174.6350  145.0830 C   0  0  0  0  0  0  0  0  0  0  0  0
  188.5580  175.1170  140.8750 C   0  0  0  0  0  2  0  0  0  0  0  0
  188.9710  172.6630  141.0250 C   0  0  0  0  0  1  0  0  0  0  0  0
  188.4190  173.7710  140.1500 C   0  0  2  0  0  3  0  0  0  0  0  0
  189.1170  173.7770  138.8290 C   0  0  0  0  0  0  0  0  0  0  0  0
  188.3760  173.9090  137.6620 O   0  0  0  0  0  0  0  0  0  0  0  0
  190.3700  173.6600  138.7640 O   0  0  0  0  0  1  0  0  0  0  0  0
  1 14  1  0  0  0  0
  2 19  2  0  0  0  0
  2  1  1  0  0  0  0
  4  1  2  0  0  0  0
  4  8  1  0  0  0  0
  5 18  1  0  0  0  0
  5 12  1  0  0  0  0
  6  9  1  0  0  0  0
  7  3  2  0  0  0  0
  8  9  1  0  0  0  0
  8 15  2  0  0  0  0
 10 19  1  0  0  0  0
 10 11  1  0  0  0  0
 12  2  1  0  0  0  0
 13  6  1  0  0  0  0
 14 15  1  0  0  0  0
 14  3  1  1  0  0  0
 16 10  2  0  0  0  0
 17 13  1  0  0  0  0
 17  4  1  0  0  0  0
 18 16  1  0  0  0  0
 19  7  1  0  0  0  0
 20  5  1  0  0  0  0
 22 20  1  0  0  0  0
 22 21  1  1  0  0  0
 23 22  1  0  0  0  0
 24 23  2  0  0  0  0
 25 23  1  0  0  0  0
M  END
>  <MODEL>
9

>  <REMARK>
 VINA RESULT:      -6.6      2.421      5.133
  Name = 
  3 active torsions:
  status: ('A' for Active; 'I' for Inactive)
    1  A    between atoms: C_2  and  C_25
    2  A    between atoms: N_6  and  C_15
    3  A    between atoms: C_15  and  C_25
                            x       y       z     vdW  Elec       q    Type
                         _______ _______ _______ _____ _____    ______ ____

>  <TORSDO>
F 3

$$$$
