=
 OpenBabel11052421383D

 32 37  0  0  1  0  0  0  0  0999 V2000
  190.8760  174.4850  143.7740 C   0  0  2  0  0  3  0  0  0  0  0  0
  190.1360  174.9990  147.5120 C   0  0  0  0  0  3  0  0  0  0  0  0
  191.3580  175.5960  147.8770 C   0  0  0  0  0  3  0  0  0  0  0  0
  192.8110  174.8410  142.1080 N   0  0  0  0  0  0  0  0  0  0  0  0
  194.0770  175.3180  141.9630 C   0  0  0  0  0  0  0  0  0  0  0  0
  196.0130  176.2220  142.4870 C   0  0  0  0  0  0  0  0  0  0  0  0
  189.9040  174.6060  146.1840 C   0  0  0  0  0  3  0  0  0  0  0  0
  190.9090  174.8230  145.2390 C   0  0  0  0  0  0  0  0  0  0  0  0
  192.9560  175.4890  144.4430 C   0  0  0  0  0  0  0  0  0  0  0  0
  196.0010  175.8800  141.1720 N   0  0  0  0  0  0  0  0  0  0  0  0
  194.8290  175.3300  140.8500 N   0  0  0  0  0  0  0  0  0  0  0  0
  192.3620  175.8060  146.9210 C   0  0  0  0  0  3  0  0  0  0  0  0
  192.1070  175.4080  145.6080 C   0  0  0  0  0  0  0  0  0  0  0  0
  194.2660  175.9850  144.3330 C   0  0  0  0  0  3  0  0  0  0  0  0
  192.0940  174.2460  140.9900 C   0  0  0  0  0  1  0  0  0  0  0  0
  197.1710  176.8530  143.1750 C   0  0  0  0  0  1  0  0  0  0  0  0
  192.2530  174.9410  143.3580 C   0  0  0  0  0  0  0  0  0  0  0  0
  194.8100  175.8890  143.0550 C   0  0  0  0  0  0  0  0  0  0  0  0
  186.3090  176.5350  143.9440 O   0  0  0  0  0  0  0  0  0  0  0  0
  188.6630  177.1390  142.3570 C   0  0  1  0  0  3  0  0  0  0  0  0
  188.6360  174.8160  142.8710 N   0  0  0  0  0  0  0  0  0  0  0  0
  186.4120  175.8990  142.6910 C   0  0  0  0  0  2  0  0  0  0  0  0
  189.8160  175.2860  143.0830 C   0  0  0  0  0  0  0  0  0  0  0  0
  186.6820  177.8910  143.8010 C   0  0  1  0  0  3  0  0  0  0  0  0
  187.8560  175.8360  142.1940 C   0  0  1  0  0  3  0  0  0  0  0  0
  188.1710  178.0300  143.5060 C   0  0  0  0  0  2  0  0  0  0  0  0
  189.9810  176.6500  142.7230 N   0  0  0  0  0  2  0  0  0  0  0  0
  185.8100  178.6780  142.8210 C   0  0  0  0  0  2  0  0  0  0  0  0
  184.5410  179.0100  143.4440 N   0  0  0  0  0  2  0  0  0  0  0  0
  184.8430  179.4640  144.7900 C   0  0  0  0  0  2  0  0  0  0  0  0
  183.9490  178.7550  145.7910 C   0  0  0  0  0  2  0  0  0  0  0  0
  184.7300  178.4130  147.0440 C   0  0  0  0  0  1  0  0  0  0  0  0
  1 23  1  6  0  0  0
  1  8  1  0  0  0  0
  2  3  1  0  0  0  0
  4 17  1  0  0  0  0
  5  4  1  0  0  0  0
  5 18  1  0  0  0  0
  6 18  1  0  0  0  0
  6 16  1  0  0  0  0
  7  2  2  0  0  0  0
  8 13  2  0  0  0  0
  8  7  1  0  0  0  0
  9 13  1  0  0  0  0
 10  6  2  0  0  0  0
 11 10  1  0  0  0  0
 11  5  2  0  0  0  0
 12  3  2  0  0  0  0
 13 12  1  0  0  0  0
 14  9  1  0  0  0  0
 15  4  1  0  0  0  0
 17  1  1  0  0  0  0
 17  9  2  0  0  0  0
 18 14  2  0  0  0  0
 20 27  1  0  0  0  0
 20 26  1  1  0  0  0
 21 23  2  0  0  0  0
 22 19  1  0  0  0  0
 24 28  1  6  0  0  0
 24 19  1  0  0  0  0
 25 20  1  0  0  0  0
 25 22  1  1  0  0  0
 25 21  1  0  0  0  0
 26 24  1  0  0  0  0
 27 23  1  0  0  0  0
 28 29  1  0  0  0  0
 29 30  1  0  0  0  0
 30 31  1  0  0  0  0
 31 32  1  0  0  0  0
M  END
>  <MODEL>
1

>  <REMARK>
 VINA RESULT:      -8.0      0.000      0.000
  Name = 
  5 active torsions:
  status: ('A' for Active; 'I' for Inactive)
    1  A    between atoms: C_1  and  C_20
    2  A    between atoms: C_3  and  C_14
    3  A    between atoms: N_10  and  C_20
    4  A    between atoms: N_10  and  C_24
    5  A    between atoms: C_19  and  C_24
                            x       y       z     vdW  Elec       q    Type
                         _______ _______ _______ _____ _____    ______ ____

>  <TORSDO>
F 5

$$$$
=
 OpenBabel11052421383D

 32 37  0  0  1  0  0  0  0  0999 V2000
  190.2290  176.8110  143.8120 C   0  0  2  0  0  3  0  0  0  0  0  0
  192.3300  176.4220  147.0090 C   0  0  0  0  0  3  0  0  0  0  0  0
  191.3160  176.6920  147.9480 C   0  0  0  0  0  3  0  0  0  0  0  0
  187.8240  177.4420  143.1310 N   0  0  0  0  0  0  0  0  0  0  0  0
  186.5890  177.7720  143.5960 C   0  0  0  0  0  0  0  0  0  0  0  0
  184.9760  178.2280  145.0220 C   0  0  0  0  0  0  0  0  0  0  0  0
  192.0510  176.4440  145.6330 C   0  0  0  0  0  3  0  0  0  0  0  0
  190.7490  176.7350  145.2220 C   0  0  0  0  0  0  0  0  0  0  0  0
  188.5320  177.2870  145.4480 C   0  0  0  0  0  0  0  0  0  0  0  0
  184.5150  178.3370  143.7480 N   0  0  0  0  0  0  0  0  0  0  0  0
  185.4900  178.0630  142.8800 N   0  0  0  0  0  0  0  0  0  0  0  0
  190.0130  176.9890  147.5240 C   0  0  0  0  0  3  0  0  0  0  0  0
  189.7590  177.0020  146.1520 C   0  0  0  0  0  0  0  0  0  0  0  0
  187.2720  177.6320  145.9660 C   0  0  0  0  0  3  0  0  0  0  0  0
  188.1000  177.3710  141.7040 C   0  0  0  0  0  1  0  0  0  0  0  0
  184.1490  178.4730  146.2330 C   0  0  0  0  0  1  0  0  0  0  0  0
  188.7910  177.1900  144.0710 C   0  0  0  0  0  0  0  0  0  0  0  0
  186.3000  177.8680  144.9980 C   0  0  0  0  0  0  0  0  0  0  0  0
  187.9040  173.1200  141.3500 O   0  0  0  0  0  0  0  0  0  0  0  0
  190.6930  173.9090  141.5070 C   0  0  1  0  0  3  0  0  0  0  0  0
  189.6010  174.4710  143.5450 N   0  0  0  0  0  0  0  0  0  0  0  0
  188.6850  172.5020  142.3460 C   0  0  0  0  0  2  0  0  0  0  0  0
  190.3180  175.4670  143.1560 C   0  0  0  0  0  0  0  0  0  0  0  0
  188.6480  173.1670  140.1480 C   0  0  1  0  0  3  0  0  0  0  0  0
  189.9190  173.3290  142.7060 C   0  0  1  0  0  3  0  0  0  0  0  0
  189.8240  174.1310  140.2610 C   0  0  0  0  0  2  0  0  0  0  0  0
  191.0930  175.2180  141.9920 N   0  0  0  0  0  2  0  0  0  0  0  0
  189.0590  171.7940  139.6140 C   0  0  0  0  0  2  0  0  0  0  0  0
  189.9320  171.9520  138.4650 N   0  0  0  0  0  2  0  0  0  0  0  0
  190.5840  170.6710  138.2570 C   0  0  0  0  0  2  0  0  0  0  0  0
  190.0890  170.0390  136.9690 C   0  0  0  0  0  2  0  0  0  0  0  0
  189.6640  171.1110  135.9860 C   0  0  0  0  0  1  0  0  0  0  0  0
  1 23  1  1  0  0  0
  1 17  1  0  0  0  0
  1  8  1  0  0  0  0
  2  3  1  0  0  0  0
  4  5  1  0  0  0  0
  4 17  1  0  0  0  0
  5 18  1  0  0  0  0
  6 16  1  0  0  0  0
  7  2  2  0  0  0  0
  8  7  1  0  0  0  0
  8 13  2  0  0  0  0
  9 14  1  0  0  0  0
  9 13  1  0  0  0  0
 10  6  2  0  0  0  0
 11  5  2  0  0  0  0
 11 10  1  0  0  0  0
 12  3  2  0  0  0  0
 13 12  1  0  0  0  0
 15  4  1  0  0  0  0
 17  9  2  0  0  0  0
 18  6  1  0  0  0  0
 18 14  2  0  0  0  0
 19 22  1  0  0  0  0
 20 26  1  6  0  0  0
 20 27  1  0  0  0  0
 20 25  1  0  0  0  0
 23 21  2  0  0  0  0
 24 28  1  1  0  0  0
 24 26  1  0  0  0  0
 24 19  1  0  0  0  0
 25 22  1  6  0  0  0
 25 21  1  0  0  0  0
 27 23  1  0  0  0  0
 29 28  1  0  0  0  0
 30 29  1  0  0  0  0
 31 30  1  0  0  0  0
 32 31  1  0  0  0  0
M  END
>  <MODEL>
2

>  <REMARK>
 VINA RESULT:      -7.7      2.788      7.400
  Name = 
  5 active torsions:
  status: ('A' for Active; 'I' for Inactive)
    1  A    between atoms: C_1  and  C_20
    2  A    between atoms: C_3  and  C_14
    3  A    between atoms: N_10  and  C_20
    4  A    between atoms: N_10  and  C_24
    5  A    between atoms: C_19  and  C_24
                            x       y       z     vdW  Elec       q    Type
                         _______ _______ _______ _____ _____    ______ ____

>  <TORSDO>
F 5

$$$$
=
 OpenBabel11052421383D

 32 37  0  0  1  0  0  0  0  0999 V2000
  190.1760  176.8420  143.7220 C   0  0  2  0  0  3  0  0  0  0  0  0
  192.2220  176.4670  146.9560 C   0  0  0  0  0  3  0  0  0  0  0  0
  191.2000  176.7720  147.8760 C   0  0  0  0  0  3  0  0  0  0  0  0
  187.7940  177.5070  142.9950 N   0  0  0  0  0  0  0  0  0  0  0  0
  186.5590  177.8690  143.4370 C   0  0  0  0  0  0  0  0  0  0  0  0
  184.9340  178.3790  144.8300 C   0  0  0  0  0  0  0  0  0  0  0  0
  191.9640  176.4710  145.5770 C   0  0  0  0  0  3  0  0  0  0  0  0
  190.6730  176.7800  145.1410 C   0  0  0  0  0  0  0  0  0  0  0  0
  188.4650  177.3780  145.3250 C   0  0  0  0  0  0  0  0  0  0  0  0
  184.4940  178.4760  143.5490 N   0  0  0  0  0  0  0  0  0  0  0  0
  185.4760  178.1680  142.7000 N   0  0  0  0  0  0  0  0  0  0  0  0
  189.9090  177.0860  147.4270 C   0  0  0  0  0  3  0  0  0  0  0  0
  189.6760  177.0820  146.0520 C   0  0  0  0  0  0  0  0  0  0  0  0
  187.2050  177.7550  145.8180 C   0  0  0  0  0  3  0  0  0  0  0  0
  188.0890  177.4070  141.5740 C   0  0  0  0  0  1  0  0  0  0  0  0
  184.0940  178.6600  146.0250 C   0  0  0  0  0  1  0  0  0  0  0  0
  188.7420  177.2530  143.9540 C   0  0  0  0  0  0  0  0  0  0  0  0
  186.2510  177.9940  144.8320 C   0  0  0  0  0  0  0  0  0  0  0  0
  192.8450  172.6930  142.8570 O   0  0  0  0  0  0  0  0  0  0  0  0
  189.9890  173.2120  142.8630 C   0  0  1  0  0  3  0  0  0  0  0  0
  191.1470  175.1890  142.2180 N   0  0  0  0  0  0  0  0  0  0  0  0
  192.2620  173.0540  141.6270 C   0  0  0  0  0  2  0  0  0  0  0  0
  190.2480  175.4860  143.0910 C   0  0  0  0  0  0  0  0  0  0  0  0
  192.0040  171.7620  143.5080 C   0  0  1  0  0  3  0  0  0  0  0  0
  190.9470  173.8090  141.8120 C   0  0  1  0  0  3  0  0  0  0  0  0
  190.7020  172.4130  143.9620 C   0  0  0  0  0  2  0  0  0  0  0  0
  189.4270  174.3970  143.4860 N   0  0  0  0  0  2  0  0  0  0  0  0
  191.7750  170.4710  142.7200 C   0  0  0  0  0  2  0  0  0  0  0  0
  192.8890  169.5630  142.9250 N   0  0  0  0  0  2  0  0  0  0  0  0
  192.9200  169.2520  144.3430 C   0  0  0  0  0  2  0  0  0  0  0  0
  194.3560  169.1900  144.8310 C   0  0  0  0  0  2  0  0  0  0  0  0
  194.6730  170.3980  145.6900 C   0  0  0  0  0  1  0  0  0  0  0  0
  1 23  1  1  0  0  0
  1 17  1  0  0  0  0
  1  8  1  0  0  0  0
  2  3  1  0  0  0  0
  4  5  1  0  0  0  0
  4 17  1  0  0  0  0
  5 18  1  0  0  0  0
  6 18  1  0  0  0  0
  6 16  1  0  0  0  0
  7  2  2  0  0  0  0
  8  7  1  0  0  0  0
  8 13  2  0  0  0  0
  9 14  1  0  0  0  0
  9 13  1  0  0  0  0
 10  6  2  0  0  0  0
 11  5  2  0  0  0  0
 11 10  1  0  0  0  0
 12  3  2  0  0  0  0
 13 12  1  0  0  0  0
 15  4  1  0  0  0  0
 17  9  2  0  0  0  0
 18 14  2  0  0  0  0
 19 24  1  0  0  0  0
 20 27  1  0  0  0  0
 20 26  1  1  0  0  0
 21 23  2  0  0  0  0
 22 19  1  0  0  0  0
 23 27  1  0  0  0  0
 24 28  1  6  0  0  0
 24 26  1  0  0  0  0
 25 22  1  1  0  0  0
 25 21  1  0  0  0  0
 25 20  1  0  0  0  0
 28 29  1  0  0  0  0
 29 30  1  0  0  0  0
 30 31  1  0  0  0  0
 31 32  1  0  0  0  0
M  END
>  <MODEL>
3

>  <REMARK>
 VINA RESULT:      -7.5      2.919      7.813
  Name = 
  5 active torsions:
  status: ('A' for Active; 'I' for Inactive)
    1  A    between atoms: C_1  and  C_20
    2  A    between atoms: C_3  and  C_14
    3  A    between atoms: N_10  and  C_20
    4  A    between atoms: N_10  and  C_24
    5  A    between atoms: C_19  and  C_24
                            x       y       z     vdW  Elec       q    Type
                         _______ _______ _______ _____ _____    ______ ____

>  <TORSDO>
F 5

$$$$
=
 OpenBabel11052421383D

 32 37  0  0  1  0  0  0  0  0999 V2000
  189.4460  175.0950  144.8860 C   0  0  2  0  0  3  0  0  0  0  0  0
  190.2400  172.1440  142.5520 C   0  0  0  0  0  3  0  0  0  0  0  0
  189.3200  172.4450  141.5290 C   0  0  0  0  0  3  0  0  0  0  0  0
  187.8200  177.0910  145.0110 N   0  0  0  0  0  0  0  0  0  0  0  0
  186.8250  177.7550  144.3620 C   0  0  0  0  0  0  0  0  0  0  0  0
  185.3530  178.2550  142.8050 C   0  0  0  0  0  0  0  0  0  0  0  0
  190.3390  172.9650  143.6860 C   0  0  0  0  0  3  0  0  0  0  0  0
  189.5080  174.0850  143.7720 C   0  0  0  0  0  0  0  0  0  0  0  0
  187.8740  175.5610  143.1270 C   0  0  0  0  0  0  0  0  0  0  0  0
  185.2670  179.1440  143.8280 N   0  0  0  0  0  0  0  0  0  0  0  0
  186.1570  178.8450  144.7750 N   0  0  0  0  0  0  0  0  0  0  0  0
  188.4870  173.5690  141.6280 C   0  0  0  0  0  3  0  0  0  0  0  0
  188.6060  174.3710  142.7640 C   0  0  0  0  0  0  0  0  0  0  0  0
  186.8450  176.2170  142.4300 C   0  0  0  0  0  3  0  0  0  0  0  0
  188.2880  177.5230  146.3190 C   0  0  0  0  0  1  0  0  0  0  0  0
  184.4980  178.2950  141.5880 C   0  0  0  0  0  1  0  0  0  0  0  0
  188.3470  175.9950  144.3760 C   0  0  0  0  0  0  0  0  0  0  0  0
  186.3340  177.3360  143.0820 C   0  0  0  0  0  0  0  0  0  0  0  0
  194.4280  174.9020  145.3660 O   0  0  0  0  0  0  0  0  0  0  0  0
  192.6460  176.9240  144.2860 C   0  0  1  0  0  3  0  0  0  0  0  0
  191.5210  175.7190  146.0020 N   0  0  0  0  0  0  0  0  0  0  0  0
  193.9810  175.8980  146.2570 C   0  0  0  0  0  2  0  0  0  0  0  0
  190.7430  175.8370  144.9830 C   0  0  0  0  0  0  0  0  0  0  0  0
  194.7810  175.5100  144.1390 C   0  0  1  0  0  3  0  0  0  0  0  0
  192.6860  176.5560  145.7820 C   0  0  1  0  0  3  0  0  0  0  0  0
  193.5530  176.0470  143.4120 C   0  0  0  0  0  2  0  0  0  0  0  0
  191.2730  176.6200  143.9230 N   0  0  0  0  0  2  0  0  0  0  0  0
  195.8990  176.5470  144.2560 C   0  0  0  0  0  2  0  0  0  0  0  0
  196.4860  176.7890  142.9500 N   0  0  0  0  0  2  0  0  0  0  0  0
  197.5760  175.8420  142.8000 C   0  0  0  0  0  2  0  0  0  0  0  0
  197.6910  175.4060  141.3500 C   0  0  0  0  0  2  0  0  0  0  0  0
  196.3940  175.6790  140.6150 C   0  0  0  0  0  1  0  0  0  0  0  0
  1 23  1  6  0  0  0
  2  7  1  0  0  0  0
  3 12  1  0  0  0  0
  3  2  2  0  0  0  0
  4 15  1  0  0  0  0
  5 11  2  0  0  0  0
  5  4  1  0  0  0  0
  6 18  1  0  0  0  0
  6 10  2  0  0  0  0
  7  8  2  0  0  0  0
  8  1  1  0  0  0  0
  9 17  2  0  0  0  0
 10 11  1  0  0  0  0
 12 13  2  0  0  0  0
 13  9  1  0  0  0  0
 13  8  1  0  0  0  0
 14 18  2  0  0  0  0
 14  9  1  0  0  0  0
 16  6  1  0  0  0  0
 17  1  1  0  0  0  0
 17  4  1  0  0  0  0
 18  5  1  0  0  0  0
 19 22  1  0  0  0  0
 20 26  1  6  0  0  0
 20 25  1  0  0  0  0
 23 21  2  0  0  0  0
 24 28  1  1  0  0  0
 24 19  1  0  0  0  0
 25 21  1  0  0  0  0
 25 22  1  6  0  0  0
 26 24  1  0  0  0  0
 27 20  1  0  0  0  0
 27 23  1  0  0  0  0
 29 28  1  0  0  0  0
 30 29  1  0  0  0  0
 31 30  1  0  0  0  0
 32 31  1  0  0  0  0
M  END
>  <MODEL>
4

>  <REMARK>
 VINA RESULT:      -7.5      2.459      8.282
  Name = 
  5 active torsions:
  status: ('A' for Active; 'I' for Inactive)
    1  A    between atoms: C_1  and  C_20
    2  A    between atoms: C_3  and  C_14
    3  A    between atoms: N_10  and  C_20
    4  A    between atoms: N_10  and  C_24
    5  A    between atoms: C_19  and  C_24
                            x       y       z     vdW  Elec       q    Type
                         _______ _______ _______ _____ _____    ______ ____

>  <TORSDO>
F 5

$$$$
=
 OpenBabel11052421383D

 32 37  0  0  1  0  0  0  0  0999 V2000
  190.1510  176.7620  143.7610 C   0  0  2  0  0  3  0  0  0  0  0  0
  192.2200  175.5170  146.7530 C   0  0  0  0  0  3  0  0  0  0  0  0
  191.2680  175.7480  147.7650 C   0  0  0  0  0  3  0  0  0  0  0  0
  187.8500  177.8280  143.2980 N   0  0  0  0  0  0  0  0  0  0  0  0
  186.6810  178.2340  143.8630 C   0  0  0  0  0  0  0  0  0  0  0  0
  185.1680  178.6400  145.4090 C   0  0  0  0  0  0  0  0  0  0  0  0
  191.9280  175.8250  145.4160 C   0  0  0  0  0  3  0  0  0  0  0  0
  190.6740  176.3610  145.1140 C   0  0  0  0  0  0  0  0  0  0  0  0
  188.5610  177.1610  145.5210 C   0  0  0  0  0  0  0  0  0  0  0  0
  184.7100  179.0400  144.1940 N   0  0  0  0  0  0  0  0  0  0  0  0
  185.6240  178.7970  143.2540 N   0  0  0  0  0  0  0  0  0  0  0  0
  190.0140  176.2910  147.4510 C   0  0  0  0  0  3  0  0  0  0  0  0
  189.7460  176.5880  146.1150 C   0  0  0  0  0  0  0  0  0  0  0  0
  187.3700  177.5740  146.1410 C   0  0  0  0  0  3  0  0  0  0  0  0
  188.0930  177.9800  141.8710 C   0  0  0  0  0  1  0  0  0  0  0  0
  184.4010  178.7720  146.6760 C   0  0  0  0  0  1  0  0  0  0  0  0
  188.7850  177.2800  144.1400 C   0  0  0  0  0  0  0  0  0  0  0  0
  186.4280  178.1130  145.2690 C   0  0  0  0  0  0  0  0  0  0  0  0
  191.9310  172.2670  142.4510 O   0  0  0  0  0  0  0  0  0  0  0  0
  189.3240  173.5030  142.1330 C   0  0  1  0  0  3  0  0  0  0  0  0
  191.0030  175.1890  142.1050 N   0  0  0  0  0  0  0  0  0  0  0  0
  191.7020  172.9680  141.2510 C   0  0  0  0  0  2  0  0  0  0  0  0
  190.0400  175.5600  142.8750 C   0  0  0  0  0  0  0  0  0  0  0  0
  190.7890  171.4910  142.7540 C   0  0  1  0  0  3  0  0  0  0  0  0
  190.5810  173.9980  141.3910 C   0  0  1  0  0  3  0  0  0  0  0  0
  189.6040  172.3730  143.1330 C   0  0  0  0  0  2  0  0  0  0  0  0
  188.9310  174.6720  142.9010 N   0  0  0  0  0  2  0  0  0  0  0  0
  190.4360  170.4560  141.6850 C   0  0  0  0  0  2  0  0  0  0  0  0
  191.3930  169.3650  141.7190 N   0  0  0  0  0  2  0  0  0  0  0  0
  191.0810  168.5000  140.5950 C   0  0  0  0  0  2  0  0  0  0  0  0
  191.0540  169.3070  139.3090 C   0  0  0  0  0  2  0  0  0  0  0  0
  190.6100  168.4360  138.1510 C   0  0  0  0  0  1  0  0  0  0  0  0
  1 23  1  6  0  0  0
  1 17  1  0  0  0  0
  1  8  1  0  0  0  0
  2  3  1  0  0  0  0
  4  5  1  0  0  0  0
  4 17  1  0  0  0  0
  5 18  1  0  0  0  0
  6 16  1  0  0  0  0
  7  2  2  0  0  0  0
  8  7  1  0  0  0  0
  8 13  2  0  0  0  0
  9 13  1  0  0  0  0
  9 14  1  0  0  0  0
 10  6  2  0  0  0  0
 11  5  2  0  0  0  0
 11 10  1  0  0  0  0
 12  3  2  0  0  0  0
 13 12  1  0  0  0  0
 15  4  1  0  0  0  0
 17  9  2  0  0  0  0
 18  6  1  0  0  0  0
 18 14  2  0  0  0  0
 19 24  1  0  0  0  0
 20 27  1  0  0  0  0
 20 26  1  1  0  0  0
 21 23  2  0  0  0  0
 22 19  1  0  0  0  0
 23 27  1  0  0  0  0
 24 28  1  6  0  0  0
 24 26  1  0  0  0  0
 25 22  1  1  0  0  0
 25 21  1  0  0  0  0
 25 20  1  0  0  0  0
 28 29  1  0  0  0  0
 30 29  1  0  0  0  0
 31 30  1  0  0  0  0
 32 31  1  0  0  0  0
M  END
>  <MODEL>
5

>  <REMARK>
 VINA RESULT:      -7.4      2.927      7.757
  Name = 
  5 active torsions:
  status: ('A' for Active; 'I' for Inactive)
    1  A    between atoms: C_1  and  C_20
    2  A    between atoms: C_3  and  C_14
    3  A    between atoms: N_10  and  C_20
    4  A    between atoms: N_10  and  C_24
    5  A    between atoms: C_19  and  C_24
                            x       y       z     vdW  Elec       q    Type
                         _______ _______ _______ _____ _____    ______ ____

>  <TORSDO>
F 5

$$$$
=
 OpenBabel11052421383D

 32 37  0  0  1  0  0  0  0  0999 V2000
  189.4500  174.7890  144.5530 C   0  0  2  0  0  3  0  0  0  0  0  0
  189.6650  173.6040  140.9020 C   0  0  0  0  0  3  0  0  0  0  0  0
  188.7160  174.4870  140.3490 C   0  0  0  0  0  3  0  0  0  0  0  0
  188.1160  176.4760  145.9750 N   0  0  0  0  0  0  0  0  0  0  0  0
  187.1710  177.4550  145.9400 C   0  0  0  0  0  0  0  0  0  0  0  0
  185.6620  178.8370  145.1310 C   0  0  0  0  0  0  0  0  0  0  0  0
  189.9580  173.6420  142.2740 C   0  0  0  0  0  3  0  0  0  0  0  0
  189.2920  174.5740  143.0730 C   0  0  0  0  0  0  0  0  0  0  0  0
  187.8220  176.2640  143.5740 C   0  0  0  0  0  0  0  0  0  0  0  0
  185.7730  179.0040  146.4750 N   0  0  0  0  0  0  0  0  0  0  0  0
  186.6860  178.1680  146.9700 N   0  0  0  0  0  0  0  0  0  0  0  0
  188.0490  175.4150  141.1620 C   0  0  0  0  0  3  0  0  0  0  0  0
  188.3600  175.4350  142.5220 C   0  0  0  0  0  0  0  0  0  0  0  0
  186.8380  177.2640  143.5000 C   0  0  0  0  0  3  0  0  0  0  0  0
  188.7380  176.0700  147.2260 C   0  0  0  0  0  1  0  0  0  0  0  0
  184.7280  179.6080  144.2680 C   0  0  0  0  0  1  0  0  0  0  0  0
  188.4430  175.8910  144.7770 C   0  0  0  0  0  0  0  0  0  0  0  0
  186.5310  177.8570  144.7220 C   0  0  0  0  0  0  0  0  0  0  0  0
  194.3850  174.0260  144.1640 O   0  0  0  0  0  0  0  0  0  0  0  0
  192.8090  176.4210  144.6180 C   0  0  1  0  0  3  0  0  0  0  0  0
  191.6680  174.5430  145.5330 N   0  0  0  0  0  0  0  0  0  0  0  0
  194.1430  174.3830  145.5050 C   0  0  0  0  0  2  0  0  0  0  0  0
  190.8370  175.2620  144.8610 C   0  0  0  0  0  0  0  0  0  0  0  0
  194.7210  175.1880  143.4330 C   0  0  1  0  0  3  0  0  0  0  0  0
  192.9140  175.2800  145.6490 C   0  0  1  0  0  3  0  0  0  0  0  0
  193.5230  176.1210  143.2930 C   0  0  0  0  0  2  0  0  0  0  0  0
  191.3840  176.4650  144.3410 N   0  0  0  0  0  2  0  0  0  0  0  0
  195.9720  175.9060  143.9430 C   0  0  0  0  0  2  0  0  0  0  0  0
  197.0590  175.7350  142.9970 N   0  0  0  0  0  2  0  0  0  0  0  0
  196.7100  176.5020  141.8150 C   0  0  0  0  0  2  0  0  0  0  0  0
  197.0540  175.7160  140.5620 C   0  0  0  0  0  2  0  0  0  0  0  0
  195.7910  175.3360  139.8160 C   0  0  0  0  0  1  0  0  0  0  0  0
  1 17  1  0  0  0  0
  1 23  1  6  0  0  0
  2  7  1  0  0  0  0
  3  2  2  0  0  0  0
  3 12  1  0  0  0  0
  4 15  1  0  0  0  0
  5  4  1  0  0  0  0
  5 11  2  0  0  0  0
  6 10  2  0  0  0  0
  7  8  2  0  0  0  0
  8  1  1  0  0  0  0
  9 17  2  0  0  0  0
 10 11  1  0  0  0  0
 12 13  2  0  0  0  0
 13  8  1  0  0  0  0
 13  9  1  0  0  0  0
 14  9  1  0  0  0  0
 14 18  2  0  0  0  0
 16  6  1  0  0  0  0
 17  4  1  0  0  0  0
 18  6  1  0  0  0  0
 18  5  1  0  0  0  0
 19 22  1  0  0  0  0
 20 26  1  6  0  0  0
 20 25  1  0  0  0  0
 21 25  1  0  0  0  0
 23 21  2  0  0  0  0
 24 28  1  1  0  0  0
 24 19  1  0  0  0  0
 25 22  1  6  0  0  0
 26 24  1  0  0  0  0
 27 20  1  0  0  0  0
 27 23  1  0  0  0  0
 29 28  1  0  0  0  0
 30 29  1  0  0  0  0
 31 30  1  0  0  0  0
 32 31  1  0  0  0  0
M  END
>  <MODEL>
6

>  <REMARK>
 VINA RESULT:      -7.3      2.485      8.391
  Name = 
  5 active torsions:
  status: ('A' for Active; 'I' for Inactive)
    1  A    between atoms: C_1  and  C_20
    2  A    between atoms: C_3  and  C_14
    3  A    between atoms: N_10  and  C_20
    4  A    between atoms: N_10  and  C_24
    5  A    between atoms: C_19  and  C_24
                            x       y       z     vdW  Elec       q    Type
                         _______ _______ _______ _____ _____    ______ ____

>  <TORSDO>
F 5

$$$$
=
 OpenBabel11052421383D

 32 37  0  0  1  0  0  0  0  0999 V2000
  189.2110  174.5270  144.3900 C   0  0  2  0  0  3  0  0  0  0  0  0
  189.4230  173.5300  140.6830 C   0  0  0  0  0  3  0  0  0  0  0  0
  188.5850  174.5330  140.1580 C   0  0  0  0  0  3  0  0  0  0  0  0
  188.0080  176.2600  145.8720 N   0  0  0  0  0  0  0  0  0  0  0  0
  187.1660  177.3290  145.8690 C   0  0  0  0  0  0  0  0  0  0  0  0
  185.8280  178.8990  145.1040 C   0  0  0  0  0  0  0  0  0  0  0  0
  189.6760  173.4620  142.0620 C   0  0  0  0  0  3  0  0  0  0  0  0
  189.0800  174.4110  142.8960 C   0  0  0  0  0  0  0  0  0  0  0  0
  187.7700  176.2100  143.4560 C   0  0  0  0  0  0  0  0  0  0  0  0
  185.9130  178.9800  146.4570 N   0  0  0  0  0  0  0  0  0  0  0  0
  186.7220  178.0290  146.9260 N   0  0  0  0  0  0  0  0  0  0  0  0
  187.9880  175.4780  141.0060 C   0  0  0  0  0  3  0  0  0  0  0  0
  188.2560  175.3910  142.3720 C   0  0  0  0  0  0  0  0  0  0  0  0
  186.8940  177.3070  143.4150 C   0  0  0  0  0  3  0  0  0  0  0  0
  188.5450  175.7240  147.1130 C   0  0  0  0  0  1  0  0  0  0  0  0
  185.0030  179.8060  144.2620 C   0  0  0  0  0  1  0  0  0  0  0  0
  188.3120  175.7110  144.6520 C   0  0  0  0  0  0  0  0  0  0  0  0
  186.6080  177.8610  144.6600 C   0  0  0  0  0  0  0  0  0  0  0  0
  194.0590  173.3140  144.0530 O   0  0  0  0  0  0  0  0  0  0  0  0
  192.7080  175.8140  144.6450 C   0  0  1  0  0  3  0  0  0  0  0  0
  191.3670  173.9980  145.3970 N   0  0  0  0  0  0  0  0  0  0  0  0
  193.8150  173.6000  145.4110 C   0  0  0  0  0  2  0  0  0  0  0  0
  190.6280  174.8390  144.7610 C   0  0  0  0  0  0  0  0  0  0  0  0
  194.5260  174.4860  143.4150 C   0  0  1  0  0  3  0  0  0  0  0  0
  192.6740  174.6000  145.5930 C   0  0  1  0  0  3  0  0  0  0  0  0
  193.4270  175.5400  143.3170 C   0  0  0  0  0  2  0  0  0  0  0  0
  191.3030  176.0170  144.3400 N   0  0  0  0  0  2  0  0  0  0  0  0
  195.8250  175.0410  144.0020 C   0  0  0  0  0  2  0  0  0  0  0  0
  196.9490  174.2340  143.5640 N   0  0  0  0  0  2  0  0  0  0  0  0
  197.8740  174.1650  144.6820 C   0  0  0  0  0  2  0  0  0  0  0  0
  197.1880  173.5480  145.8870 C   0  0  0  0  0  2  0  0  0  0  0  0
  197.1560  172.0380  145.7590 C   0  0  0  0  0  1  0  0  0  0  0  0
  1 17  1  0  0  0  0
  1 23  1  6  0  0  0
  2  7  1  0  0  0  0
  3  2  2  0  0  0  0
  3 12  1  0  0  0  0
  4 15  1  0  0  0  0
  5  4  1  0  0  0  0
  5 11  2  0  0  0  0
  6 10  2  0  0  0  0
  7  8  2  0  0  0  0
  8  1  1  0  0  0  0
  9 17  2  0  0  0  0
 10 11  1  0  0  0  0
 12 13  2  0  0  0  0
 13  8  1  0  0  0  0
 13  9  1  0  0  0  0
 14  9  1  0  0  0  0
 14 18  2  0  0  0  0
 16  6  1  0  0  0  0
 17  4  1  0  0  0  0
 18  6  1  0  0  0  0
 18  5  1  0  0  0  0
 19 22  1  0  0  0  0
 20 26  1  6  0  0  0
 20 25  1  0  0  0  0
 21 25  1  0  0  0  0
 23 21  2  0  0  0  0
 24 28  1  1  0  0  0
 24 19  1  0  0  0  0
 25 22  1  6  0  0  0
 26 24  1  0  0  0  0
 27 20  1  0  0  0  0
 27 23  1  0  0  0  0
 29 28  1  0  0  0  0
 29 30  1  0  0  0  0
 30 31  1  0  0  0  0
 32 31  1  0  0  0  0
M  END
>  <MODEL>
7

>  <REMARK>
 VINA RESULT:      -7.3      2.776      8.486
  Name = 
  5 active torsions:
  status: ('A' for Active; 'I' for Inactive)
    1  A    between atoms: C_1  and  C_20
    2  A    between atoms: C_3  and  C_14
    3  A    between atoms: N_10  and  C_20
    4  A    between atoms: N_10  and  C_24
    5  A    between atoms: C_19  and  C_24
                            x       y       z     vdW  Elec       q    Type
                         _______ _______ _______ _____ _____    ______ ____

>  <TORSDO>
F 5

$$$$
=
 OpenBabel11052421383D

 32 37  0  0  1  0  0  0  0  0999 V2000
  192.0750  174.9020  143.2790 C   0  0  2  0  0  3  0  0  0  0  0  0
  189.4430  172.4300  141.9580 C   0  0  0  0  0  3  0  0  0  0  0  0
  190.0400  171.2390  142.4150 C   0  0  0  0  0  3  0  0  0  0  0  0
  194.3390  174.8570  144.5110 N   0  0  0  0  0  0  0  0  0  0  0  0
  195.2670  174.0550  145.0990 C   0  0  0  0  0  0  0  0  0  0  0  0
  196.2550  172.2220  145.8110 C   0  0  0  0  0  0  0  0  0  0  0  0
  190.0510  173.6710  142.2010 C   0  0  0  0  0  3  0  0  0  0  0  0
  191.2570  173.6960  142.9070 C   0  0  0  0  0  0  0  0  0  0  0  0
  193.0730  172.8440  144.0230 C   0  0  0  0  0  0  0  0  0  0  0  0
  197.0160  173.3070  146.1110 N   0  0  0  0  0  0  0  0  0  0  0  0
  196.4220  174.4200  145.6800 N   0  0  0  0  0  0  0  0  0  0  0  0
  191.2530  171.2750  143.1180 C   0  0  0  0  0  3  0  0  0  0  0  0
  191.8370  172.5210  143.3500 C   0  0  0  0  0  0  0  0  0  0  0  0
  194.0120  171.9830  144.6150 C   0  0  0  0  0  3  0  0  0  0  0  0
  194.5220  176.2990  144.4410 C   0  0  0  0  0  1  0  0  0  0  0  0
  196.6280  170.8210  146.1440 C   0  0  0  0  0  1  0  0  0  0  0  0
  193.2340  174.2390  143.9810 C   0  0  0  0  0  0  0  0  0  0  0  0
  195.1180  172.6300  145.1610 C   0  0  0  0  0  0  0  0  0  0  0  0
  187.6570  176.8140  144.6590 O   0  0  0  0  0  0  0  0  0  0  0  0
  190.1370  176.3870  146.1050 C   0  0  1  0  0  3  0  0  0  0  0  0
  190.6230  176.7860  143.8090 N   0  0  0  0  0  0  0  0  0  0  0  0
  188.5750  177.8830  144.6770 C   0  0  0  0  0  2  0  0  0  0  0  0
  191.3080  175.7760  144.2210 C   0  0  0  0  0  0  0  0  0  0  0  0
  187.5800  176.2540  145.9550 C   0  0  1  0  0  3  0  0  0  0  0  0
  190.0000  177.4120  144.9620 C   0  0  1  0  0  3  0  0  0  0  0  0
  188.8760  175.5420  146.3290 C   0  0  0  0  0  2  0  0  0  0  0  0
  191.1710  175.4960  145.6070 N   0  0  0  0  0  2  0  0  0  0  0  0
  187.1130  177.2340  147.0320 C   0  0  0  0  0  2  0  0  0  0  0  0
  185.6750  177.4150  146.9450 N   0  0  0  0  0  2  0  0  0  0  0  0
  185.4490  178.8160  146.6370 C   0  0  0  0  0  2  0  0  0  0  0  0
  184.6310  178.9430  145.3640 C   0  0  0  0  0  2  0  0  0  0  0  0
  185.3830  179.7650  144.3360 C   0  0  0  0  0  1  0  0  0  0  0  0
  1 17  1  0  0  0  0
  1 23  1  1  0  0  0
  2  7  2  0  0  0  0
  2  3  1  0  0  0  0
  3 12  2  0  0  0  0
  4  5  1  0  0  0  0
  5 18  1  0  0  0  0
  5 11  2  0  0  0  0
  6 10  2  0  0  0  0
  6 16  1  0  0  0  0
  7  8  1  0  0  0  0
  8  1  1  0  0  0  0
  8 13  2  0  0  0  0
  9 14  1  0  0  0  0
 11 10  1  0  0  0  0
 12 13  1  0  0  0  0
 13  9  1  0  0  0  0
 14 18  2  0  0  0  0
 15  4  1  0  0  0  0
 17  9  2  0  0  0  0
 17  4  1  0  0  0  0
 18  6  1  0  0  0  0
 19 22  1  0  0  0  0
 19 24  1  0  0  0  0
 20 26  1  6  0  0  0
 21 23  2  0  0  0  0
 21 25  1  0  0  0  0
 23 27  1  0  0  0  0
 24 26  1  0  0  0  0
 24 28  1  1  0  0  0
 25 22  1  6  0  0  0
 25 20  1  0  0  0  0
 27 20  1  0  0  0  0
 29 28  1  0  0  0  0
 30 29  1  0  0  0  0
 31 30  1  0  0  0  0
 32 31  1  0  0  0  0
M  END
>  <MODEL>
8

>  <REMARK>
 VINA RESULT:      -7.3      2.873      4.043
  Name = 
  5 active torsions:
  status: ('A' for Active; 'I' for Inactive)
    1  A    between atoms: C_1  and  C_20
    2  A    between atoms: C_3  and  C_14
    3  A    between atoms: N_10  and  C_20
    4  A    between atoms: N_10  and  C_24
    5  A    between atoms: C_19  and  C_24
                            x       y       z     vdW  Elec       q    Type
                         _______ _______ _______ _____ _____    ______ ____

>  <TORSDO>
F 5

$$$$
=
 OpenBabel11052421383D

 32 37  0  0  1  0  0  0  0  0999 V2000
  190.8160  174.9980  144.2020 C   0  0  2  0  0  3  0  0  0  0  0  0
  193.4900  176.4960  146.5240 C   0  0  0  0  0  3  0  0  0  0  0  0
  194.5740  176.4690  145.6240 C   0  0  0  0  0  3  0  0  0  0  0  0
  190.6290  174.0370  141.8180 N   0  0  0  0  0  0  0  0  0  0  0  0
  191.3080  173.7910  140.6640 C   0  0  0  0  0  0  0  0  0  0  0  0
  192.9730  173.7020  139.2290 C   0  0  0  0  0  0  0  0  0  0  0  0
  192.2260  176.0290  146.1310 C   0  0  0  0  0  3  0  0  0  0  0  0
  192.0700  175.5420  144.8310 C   0  0  0  0  0  0  0  0  0  0  0  0
  192.6970  174.9510  142.7040 C   0  0  0  0  0  0  0  0  0  0  0  0
  191.8530  173.1730  138.6730 N   0  0  0  0  0  0  0  0  0  0  0  0
  190.8400  173.2230  139.5390 N   0  0  0  0  0  0  0  0  0  0  0  0
  194.4060  175.9740  144.3230 C   0  0  0  0  0  3  0  0  0  0  0  0
  193.1400  175.5170  143.9550 C   0  0  0  0  0  0  0  0  0  0  0  0
  193.4310  174.7060  141.5320 C   0  0  0  0  0  3  0  0  0  0  0  0
  189.2270  173.6760  141.9620 C   0  0  0  0  0  1  0  0  0  0  0  0
  194.2860  173.7960  138.5350 C   0  0  0  0  0  1  0  0  0  0  0  0
  191.3360  174.6290  142.8340 C   0  0  0  0  0  0  0  0  0  0  0  0
  192.6950  174.1190  140.5060 C   0  0  0  0  0  0  0  0  0  0  0  0
  187.2820  177.2660  141.4720 O   0  0  0  0  0  0  0  0  0  0  0  0
  187.7330  177.1030  144.3350 C   0  0  1  0  0  3  0  0  0  0  0  0
  189.8220  176.9860  143.2000 N   0  0  0  0  0  0  0  0  0  0  0  0
  188.0530  178.2920  142.0540 C   0  0  0  0  0  2  0  0  0  0  0  0
  189.7780  176.0730  144.1080 C   0  0  0  0  0  0  0  0  0  0  0  0
  186.1700  177.0000  142.3040 C   0  0  1  0  0  3  0  0  0  0  0  0
  188.6770  177.8600  143.3800 C   0  0  1  0  0  3  0  0  0  0  0  0
  186.6010  176.3560  143.6170 C   0  0  0  0  0  2  0  0  0  0  0  0
  188.6100  176.1020  144.9160 N   0  0  0  0  0  2  0  0  0  0  0  0
  185.2450  178.2000  142.5110 C   0  0  0  0  0  2  0  0  0  0  0  0
  184.4360  178.0010  143.7010 N   0  0  0  0  0  2  0  0  0  0  0  0
  184.4440  179.2590  144.4260 C   0  0  0  0  0  2  0  0  0  0  0  0
  184.9640  179.0430  145.8360 C   0  0  0  0  0  2  0  0  0  0  0  0
  184.4500  177.7290  146.3910 C   0  0  0  0  0  1  0  0  0  0  0  0
  1 23  1  6  0  0  0
  1  8  1  0  0  0  0
  3  2  2  0  0  0  0
  4 15  1  0  0  0  0
  4 17  1  0  0  0  0
  5  4  1  0  0  0  0
  6 18  1  0  0  0  0
  7  2  1  0  0  0  0
  8  7  2  0  0  0  0
  9 17  2  0  0  0  0
  9 13  1  0  0  0  0
 10  6  2  0  0  0  0
 10 11  1  0  0  0  0
 11  5  2  0  0  0  0
 12  3  1  0  0  0  0
 13 12  2  0  0  0  0
 13  8  1  0  0  0  0
 14  9  1  0  0  0  0
 16  6  1  0  0  0  0
 17  1  1  0  0  0  0
 18  5  1  0  0  0  0
 18 14  2  0  0  0  0
 19 22  1  0  0  0  0
 19 24  1  0  0  0  0
 20 26  1  6  0  0  0
 20 27  1  0  0  0  0
 21 25  1  0  0  0  0
 21 23  2  0  0  0  0
 23 27  1  0  0  0  0
 24 28  1  1  0  0  0
 24 26  1  0  0  0  0
 25 22  1  6  0  0  0
 25 20  1  0  0  0  0
 28 29  1  0  0  0  0
 29 30  1  0  0  0  0
 30 31  1  0  0  0  0
 31 32  1  0  0  0  0
M  END
>  <MODEL>
9

>  <REMARK>
 VINA RESULT:      -7.2      1.953      2.980
  Name = 
  5 active torsions:
  status: ('A' for Active; 'I' for Inactive)
    1  A    between atoms: C_1  and  C_20
    2  A    between atoms: C_3  and  C_14
    3  A    between atoms: N_10  and  C_20
    4  A    between atoms: N_10  and  C_24
    5  A    between atoms: C_19  and  C_24
                            x       y       z     vdW  Elec       q    Type
                         _______ _______ _______ _____ _____    ______ ____

>  <TORSDO>
F 5

$$$$
