=
 OpenBabel11052418433D

 34 37  0  0  1  0  0  0  0  0999 V2000
  191.1250  176.2050  146.8170 C   0  0  0  0  0  0  0  0  0  0  0  0
  188.9010  176.6120  145.5550 C   0  0  1  0  0  3  0  0  0  0  0  0
  190.6510  175.1570  144.5300 C   0  0  2  0  0  3  0  0  0  0  0  0
  191.5940  177.0780  148.9800 O   0  0  0  0  0  1  0  0  0  0  0  0
  188.2350  175.7380  146.6130 C   0  0  0  0  0  1  0  0  0  0  0  0
  189.1220  176.5890  143.1080 C   0  0  0  0  0  2  0  0  0  0  0  0
  190.4260  176.3420  145.4800 C   0  0  2  0  0  3  0  0  0  0  0  0
  191.3580  176.2010  142.4080 O   0  0  0  0  0  0  0  0  0  0  0  0
  190.9430  177.1390  147.7520 C   0  0  0  0  0  3  0  0  0  0  0  0
  192.0400  174.5110  144.6390 C   0  0  1  0  0  3  0  0  0  0  0  0
  192.0740  175.1000  147.0510 C   0  0  0  0  0  3  0  0  0  0  0  0
  188.2210  176.3920  144.2510 N   0  0  2  0  0  0  0  0  0  0  0  0
  192.5140  175.3910  142.4030 C   0  0  0  0  0  2  0  0  0  0  0  0
  193.0820  175.2520  143.8080 C   0  0  1  0  0  3  0  0  0  0  0  0
  190.2750  175.5610  143.0750 C   0  0  1  0  0  0  0  0  0  0  0  0
  192.4760  174.3010  146.0620 C   0  0  0  0  0  3  0  0  0  0  0  0
  186.2470  175.4730  142.7270 F   0  0  0  0  0  0  0  0  0  0  0  0
  186.6980  178.0720  145.3370 C   0  0  0  0  0  2  0  0  0  0  0  0
  185.8600  176.5850  143.4570 C   0  0  1  0  0  3  0  0  0  0  0  0
  187.0790  177.3060  144.0570 C   0  0  2  0  0  3  0  0  0  0  0  0
  184.6330  179.0230  144.4210 N   0  0  0  0  0  2  0  0  0  0  0  0
  184.8720  178.9330  142.9890 C   0  0  0  0  0  2  0  0  0  0  0  0
  185.0150  177.4790  142.5410 C   0  0  0  0  0  2  0  0  0  0  0  0
  185.9130  179.3420  145.0350 C   0  0  0  0  0  2  0  0  0  0  0  0
  193.3480  176.5220  144.3380 O   0  0  0  0  0  0  0  0  0  0  0  0
  194.6510  176.4500  144.8460 C   0  0  2  0  0  3  0  0  0  0  0  0
  194.8840  177.5310  145.8540 C   0  0  0  0  0  0  0  0  0  0  0  0
  195.6190  178.6540  145.4990 O   0  0  0  0  0  0  0  0  0  0  0  0
  194.3940  177.4460  147.0110 O   0  0  0  0  0  1  0  0  0  0  0  0
  196.7260  175.7070  143.7030 C   0  0  0  0  0  2  0  0  0  0  0  0
  195.6620  176.5080  143.7340 C   0  0  0  0  0  3  0  0  0  0  0  0
  189.8000  174.3040  142.3190 C   0  0  0  0  0  2  0  0  0  0  0  0
  189.6180  171.8850  142.9380 C   0  0  0  0  0  1  0  0  0  0  0  0
  189.0940  173.2830  143.2080 C   0  0  0  0  0  2  0  0  0  0  0  0
  1 11  1  0  0  0  0
  1  9  2  0  0  0  0
  2  5  1  1  0  0  0
  3 10  1  0  0  0  0
  3  7  1  0  0  0  0
  6 12  1  0  0  0  0
  7  2  1  0  0  0  0
  7  1  1  0  0  0  0
  8 15  1  0  0  0  0
  9  4  1  0  0  0  0
 10 16  1  0  0  0  0
 12  2  1  0  0  0  0
 13  8  1  0  0  0  0
 13 14  1  0  0  0  0
 14 25  1  0  0  0  0
 14 10  1  0  0  0  0
 15  6  1  0  0  0  0
 15  3  1  0  0  0  0
 16 11  2  0  0  0  0
 17 19  1  0  0  0  0
 19 20  1  0  0  0  0
 20 12  1  0  0  0  0
 20 18  1  0  0  0  0
 21 24  1  0  0  0  0
 22 21  1  0  0  0  0
 23 22  1  0  0  0  0
 23 19  1  0  0  0  0
 24 18  1  0  0  0  0
 25 26  1  0  0  0  0
 26 27  1  0  0  0  0
 27 29  1  0  0  0  0
 28 27  2  0  0  0  0
 30 31  2  0  0  0  0
 31 26  1  0  0  0  0
 32 15  1  0  0  0  0
 32 34  1  0  0  0  0
 33 34  1  0  0  0  0
M  END
>  <MODEL>
1

>  <REMARK>
 VINA RESULT:      -7.4      0.000      0.000
  Name = 
  7 active torsions:
  status: ('A' for Active; 'I' for Inactive)
    1  A    between atoms: C_7  and  C_23
    2  A    between atoms: O_12  and  C_23
    3  A    between atoms: O_12  and  C_28
    4  A    between atoms: C_14  and  N_25
    5  A    between atoms: C_17  and  C_29
    6  A    between atoms: C_23  and  C_27
    7  A    between atoms: C_29  and  C_31
                            x       y       z     vdW  Elec       q    Type
                         _______ _______ _______ _____ _____    ______ ____

>  <TORSDO>
F 7

$$$$
=
 OpenBabel11052418433D

 34 37  0  0  1  0  0  0  0  0999 V2000
  190.4640  173.2570  143.4920 C   0  0  0  0  0  0  0  0  0  0  0  0
  192.7920  174.0110  142.6460 C   0  0  1  0  0  3  0  0  0  0  0  0
  191.7110  175.2370  144.5320 C   0  0  2  0  0  3  0  0  0  0  0  0
  189.2900  171.3770  142.6280 O   0  0  0  0  0  1  0  0  0  0  0  0
  193.3420  172.7340  143.2730 C   0  0  0  0  0  1  0  0  0  0  0  0
  193.2030  176.4230  142.8650 C   0  0  0  0  0  2  0  0  0  0  0  0
  191.4290  174.4040  143.2730 C   0  0  2  0  0  3  0  0  0  0  0  0
  191.3510  177.5710  143.8110 O   0  0  0  0  0  0  0  0  0  0  0  0
  190.2000  172.4200  142.4880 C   0  0  0  0  0  3  0  0  0  0  0  0
  190.5100  175.3780  145.4800 C   0  0  1  0  0  3  0  0  0  0  0  0
  189.7470  173.1230  144.7750 C   0  0  0  0  0  3  0  0  0  0  0  0
  193.8080  175.0880  142.7750 N   0  0  2  0  0  0  0  0  0  0  0  0
  190.4360  177.7490  144.8720 C   0  0  0  0  0  2  0  0  0  0  0  0
  189.5770  176.5070  145.0580 C   0  0  1  0  0  3  0  0  0  0  0  0
  192.3430  176.6030  144.1370 C   0  0  1  0  0  0  0  0  0  0  0  0
  189.7870  174.0790  145.7030 C   0  0  0  0  0  3  0  0  0  0  0  0
  196.3120  174.3680  143.2970 F   0  0  0  0  0  0  0  0  0  0  0  0
  194.1020  174.6020  140.3260 C   0  0  0  0  0  2  0  0  0  0  0  0
  196.0530  174.3800  141.9370 C   0  0  1  0  0  3  0  0  0  0  0  0
  194.7380  175.1180  141.6310 C   0  0  2  0  0  3  0  0  0  0  0  0
  196.1960  174.5760  139.0530 N   0  0  0  0  0  2  0  0  0  0  0  0
  197.0210  175.5030  139.8130 C   0  0  0  0  0  2  0  0  0  0  0  0
  197.2710  174.9880  141.2300 C   0  0  0  0  0  2  0  0  0  0  0  0
  194.8400  175.1020  139.0900 C   0  0  0  0  0  2  0  0  0  0  0  0
  188.9200  176.2020  143.8580 O   0  0  0  0  0  0  0  0  0  0  0  0
  187.5540  176.3530  144.1300 C   0  0  2  0  0  3  0  0  0  0  0  0
  186.9100  177.2410  143.1130 C   0  0  0  0  0  0  0  0  0  0  0  0
  185.6070  176.9870  142.7060 O   0  0  0  0  0  1  0  0  0  0  0  0
  187.5270  178.2350  142.6450 O   0  0  0  0  0  0  0  0  0  0  0  0
  186.1680  176.7640  146.1480 C   0  0  0  0  0  2  0  0  0  0  0  0
  187.3420  176.8700  145.5260 C   0  0  0  0  0  3  0  0  0  0  0  0
  193.2510  177.0780  145.2880 C   0  0  0  0  0  2  0  0  0  0  0  0
  195.0160  175.4990  146.1020 C   0  0  0  0  0  1  0  0  0  0  0  0
  193.5910  175.9830  146.2950 C   0  0  0  0  0  2  0  0  0  0  0  0
  1 11  1  0  0  0  0
  2 12  1  0  0  0  0
  2  7  1  0  0  0  0
  2  5  1  1  0  0  0
  3 10  1  0  0  0  0
  6 15  1  0  0  0  0
  7  1  1  0  0  0  0
  7  3  1  0  0  0  0
  8 15  1  0  0  0  0
  8 13  1  0  0  0  0
  9  4  1  0  0  0  0
  9  1  2  0  0  0  0
 10 16  1  0  0  0  0
 11 16  2  0  0  0  0
 12  6  1  0  0  0  0
 13 14  1  0  0  0  0
 14 10  1  0  0  0  0
 15  3  1  0  0  0  0
 15 32  1  0  0  0  0
 18 20  1  0  0  0  0
 19 17  1  0  0  0  0
 20 19  1  0  0  0  0
 20 12  1  0  0  0  0
 21 24  1  0  0  0  0
 21 22  1  0  0  0  0
 22 23  1  0  0  0  0
 23 19  1  0  0  0  0
 24 18  1  0  0  0  0
 25 26  1  0  0  0  0
 25 14  1  0  0  0  0
 26 31  1  0  0  0  0
 27 26  1  0  0  0  0
 28 27  1  0  0  0  0
 29 27  2  0  0  0  0
 31 30  2  0  0  0  0
 32 34  1  0  0  0  0
 33 34  1  0  0  0  0
M  END
>  <MODEL>
2

>  <REMARK>
 VINA RESULT:      -6.6      3.536      7.674
  Name = 
  7 active torsions:
  status: ('A' for Active; 'I' for Inactive)
    1  A    between atoms: C_7  and  C_23
    2  A    between atoms: O_12  and  C_23
    3  A    between atoms: O_12  and  C_28
    4  A    between atoms: C_14  and  N_25
    5  A    between atoms: C_17  and  C_29
    6  A    between atoms: C_23  and  C_27
    7  A    between atoms: C_29  and  C_31
                            x       y       z     vdW  Elec       q    Type
                         _______ _______ _______ _____ _____    ______ ____

>  <TORSDO>
F 7

$$$$
=
 OpenBabel11052418433D

 34 37  0  0  1  0  0  0  0  0999 V2000
  189.8820  174.2820  141.6980 C   0  0  0  0  0  0  0  0  0  0  0  0
  192.2940  174.8240  142.4670 C   0  0  1  0  0  3  0  0  0  0  0  0
  190.3670  175.4570  143.9200 C   0  0  2  0  0  3  0  0  0  0  0  0
  189.3670  173.1190  139.6870 O   0  0  0  0  0  1  0  0  0  0  0  0
  192.4740  173.3250  142.6840 C   0  0  0  0  0  1  0  0  0  0  0  0
  192.4750  176.8560  143.8340 C   0  0  0  0  0  2  0  0  0  0  0  0
  190.7940  175.2170  142.4650 C   0  0  2  0  0  3  0  0  0  0  0  0
  190.3730  177.9130  144.1610 O   0  0  0  0  0  0  0  0  0  0  0  0
  190.1930  173.9410  140.4460 C   0  0  0  0  0  3  0  0  0  0  0  0
  188.8460  175.4700  144.1400 C   0  0  1  0  0  3  0  0  0  0  0  0
  188.6100  173.8290  142.2930 C   0  0  0  0  0  3  0  0  0  0  0  0
  193.0720  175.5580  143.5000 N   0  0  2  0  0  0  0  0  0  0  0  0
  189.0380  177.8650  144.6190 C   0  0  0  0  0  2  0  0  0  0  0  0
  188.2370  176.8350  143.8370 C   0  0  1  0  0  3  0  0  0  0  0  0
  191.0790  176.7200  144.4840 C   0  0  1  0  0  0  0  0  0  0  0  0
  188.1440  174.3490  143.4280 C   0  0  0  0  0  3  0  0  0  0  0  0
  194.9600  174.1570  144.7390 F   0  0  0  0  0  0  0  0  0  0  0  0
  194.5890  176.0110  141.5460 C   0  0  0  0  0  2  0  0  0  0  0  0
  195.4370  174.7550  143.5840 C   0  0  1  0  0  3  0  0  0  0  0  0
  194.4580  175.8240  143.0690 C   0  0  2  0  0  3  0  0  0  0  0  0
  197.0400  176.0190  141.5330 N   0  0  0  0  0  2  0  0  0  0  0  0
  197.3450  176.3710  142.9120 C   0  0  0  0  0  2  0  0  0  0  0  0
  196.8380  175.3040  143.8800 C   0  0  0  0  0  2  0  0  0  0  0  0
  195.8510  176.7750  141.1670 C   0  0  0  0  0  2  0  0  0  0  0  0
  188.2990  177.1270  142.4670 O   0  0  0  0  0  0  0  0  0  0  0  0
  186.9770  177.3720  142.0770 C   0  0  2  0  0  3  0  0  0  0  0  0
  186.7980  177.0870  140.6190 C   0  0  0  0  0  0  0  0  0  0  0  0
  185.8390  177.7830  139.8950 O   0  0  0  0  0  0  0  0  0  0  0  0
  187.5280  176.2420  140.0350 O   0  0  0  0  0  1  0  0  0  0  0  0
  185.5300  179.0450  143.2030 C   0  0  0  0  0  2  0  0  0  0  0  0
  186.5710  178.7790  142.4150 C   0  0  0  0  0  3  0  0  0  0  0  0
  191.2530  176.5520  146.0060 C   0  0  0  0  0  2  0  0  0  0  0  0
  192.6610  174.6770  146.8830 C   0  0  0  0  0  1  0  0  0  0  0  0
  191.2640  175.0960  146.4660 C   0  0  0  0  0  2  0  0  0  0  0  0
  1 11  1  0  0  0  0
  1  7  1  0  0  0  0
  2  5  1  1  0  0  0
  2 12  1  0  0  0  0
  3 10  1  0  0  0  0
  3 15  1  0  0  0  0
  4  9  1  0  0  0  0
  6 15  1  0  0  0  0
  7  2  1  0  0  0  0
  7  3  1  0  0  0  0
  8 15  1  0  0  0  0
  8 13  1  0  0  0  0
  9  1  2  0  0  0  0
 11 16  2  0  0  0  0
 12  6  1  0  0  0  0
 14 10  1  0  0  0  0
 14 13  1  0  0  0  0
 15 32  1  0  0  0  0
 16 10  1  0  0  0  0
 18 20  1  0  0  0  0
 19 23  1  0  0  0  0
 19 17  1  0  0  0  0
 20 12  1  0  0  0  0
 20 19  1  0  0  0  0
 21 22  1  0  0  0  0
 22 23  1  0  0  0  0
 24 21  1  0  0  0  0
 24 18  1  0  0  0  0
 25 14  1  0  0  0  0
 26 31  1  0  0  0  0
 26 25  1  0  0  0  0
 27 26  1  0  0  0  0
 28 27  2  0  0  0  0
 29 27  1  0  0  0  0
 31 30  2  0  0  0  0
 32 34  1  0  0  0  0
 34 33  1  0  0  0  0
M  END
>  <MODEL>
3

>  <REMARK>
 VINA RESULT:      -6.5      3.235      7.813
  Name = 
  7 active torsions:
  status: ('A' for Active; 'I' for Inactive)
    1  A    between atoms: C_7  and  C_23
    2  A    between atoms: O_12  and  C_23
    3  A    between atoms: O_12  and  C_28
    4  A    between atoms: C_14  and  N_25
    5  A    between atoms: C_17  and  C_29
    6  A    between atoms: C_23  and  C_27
    7  A    between atoms: C_29  and  C_31
                            x       y       z     vdW  Elec       q    Type
                         _______ _______ _______ _____ _____    ______ ____

>  <TORSDO>
F 7

$$$$
=
 OpenBabel11052418433D

 34 37  0  0  1  0  0  0  0  0999 V2000
  193.9140  176.2420  145.6600 C   0  0  0  0  0  0  0  0  0  0  0  0
  191.3270  176.1600  145.7340 C   0  0  1  0  0  3  0  0  0  0  0  0
  192.6020  174.1550  144.9710 C   0  0  2  0  0  3  0  0  0  0  0  0
  195.1970  178.1180  146.3650 O   0  0  0  0  0  1  0  0  0  0  0  0
  191.4530  176.1500  147.2540 C   0  0  0  0  0  1  0  0  0  0  0  0
  190.3240  174.7160  144.0200 C   0  0  0  0  0  2  0  0  0  0  0  0
  192.6400  175.6870  145.0570 C   0  0  2  0  0  3  0  0  0  0  0  0
  191.9570  173.6920  142.6340 O   0  0  0  0  0  0  0  0  0  0  0  0
  194.0310  177.5570  145.8530 C   0  0  0  0  0  3  0  0  0  0  0  0
  193.9640  173.5020  144.6920 C   0  0  1  0  0  3  0  0  0  0  0  0
  195.0550  175.3500  145.9410 C   0  0  0  0  0  3  0  0  0  0  0  0
  190.1560  175.3330  145.3410 N   0  0  2  0  0  0  0  0  0  0  0  0
  193.0980  172.8720  142.4890 C   0  0  0  0  0  2  0  0  0  0  0  0
  194.2950  173.4820  143.2040 C   0  0  1  0  0  3  0  0  0  0  0  0
  191.4910  173.7040  143.9790 C   0  0  1  0  0  0  0  0  0  0  0  0
  195.0710  174.0830  145.5250 C   0  0  0  0  0  3  0  0  0  0  0  0
  188.5980  175.1780  147.4880 F   0  0  0  0  0  0  0  0  0  0  0  0
  189.0990  177.5040  144.6410 C   0  0  0  0  0  2  0  0  0  0  0  0
  188.2460  176.2410  146.6720 C   0  0  1  0  0  3  0  0  0  0  0  0
  188.9100  176.1210  145.2900 C   0  0  2  0  0  3  0  0  0  0  0  0
  186.8660  178.3300  145.2210 N   0  0  0  0  0  2  0  0  0  0  0  0
  186.1350  177.0900  145.4360 C   0  0  0  0  0  2  0  0  0  0  0  0
  186.7150  176.3020  146.6090 C   0  0  0  0  0  2  0  0  0  0  0  0
  187.7880  178.0810  144.1230 C   0  0  0  0  0  2  0  0  0  0  0  0
  194.5280  174.7750  142.7170 O   0  0  0  0  0  0  0  0  0  0  0  0
  195.8900  174.8140  142.3940 C   0  0  2  0  0  3  0  0  0  0  0  0
  196.3660  176.2290  142.2880 C   0  0  0  0  0  0  0  0  0  0  0  0
  196.8320  176.8830  143.4200 O   0  0  0  0  0  1  0  0  0  0  0  0
  196.3740  176.8220  141.1760 O   0  0  0  0  0  0  0  0  0  0  0  0
  197.2740  173.3330  140.9610 C   0  0  0  0  0  2  0  0  0  0  0  0
  196.1610  174.0470  141.1300 C   0  0  0  0  0  3  0  0  0  0  0  0
  190.9680  172.3220  144.4170 C   0  0  0  0  0  2  0  0  0  0  0  0
  189.6880  171.3990  142.4740 C   0  0  0  0  0  1  0  0  0  0  0  0
  189.5840  171.9870  143.8680 C   0  0  0  0  0  2  0  0  0  0  0  0
  1  9  2  0  0  0  0
  1 11  1  0  0  0  0
  2  5  1  1  0  0  0
  3  7  1  0  0  0  0
  6 12  1  0  0  0  0
  7  1  1  0  0  0  0
  7  2  1  0  0  0  0
  8 15  1  0  0  0  0
  9  4  1  0  0  0  0
 10  3  1  0  0  0  0
 10 16  1  0  0  0  0
 12  2  1  0  0  0  0
 13  8  1  0  0  0  0
 13 14  1  0  0  0  0
 14 10  1  0  0  0  0
 15  6  1  0  0  0  0
 15 32  1  0  0  0  0
 15  3  1  0  0  0  0
 16 11  2  0  0  0  0
 18 20  1  0  0  0  0
 19 17  1  0  0  0  0
 20 12  1  0  0  0  0
 20 19  1  0  0  0  0
 21 22  1  0  0  0  0
 22 23  1  0  0  0  0
 23 19  1  0  0  0  0
 24 18  1  0  0  0  0
 24 21  1  0  0  0  0
 25 14  1  0  0  0  0
 26 25  1  0  0  0  0
 27 26  1  0  0  0  0
 27 28  1  0  0  0  0
 29 27  2  0  0  0  0
 30 31  2  0  0  0  0
 31 26  1  0  0  0  0
 33 34  1  0  0  0  0
 34 32  1  0  0  0  0
M  END
>  <MODEL>
4

>  <REMARK>
 VINA RESULT:      -6.5      2.155      3.210
  Name = 
  7 active torsions:
  status: ('A' for Active; 'I' for Inactive)
    1  A    between atoms: C_7  and  C_23
    2  A    between atoms: O_12  and  C_23
    3  A    between atoms: O_12  and  C_28
    4  A    between atoms: C_14  and  N_25
    5  A    between atoms: C_17  and  C_29
    6  A    between atoms: C_23  and  C_27
    7  A    between atoms: C_29  and  C_31
                            x       y       z     vdW  Elec       q    Type
                         _______ _______ _______ _____ _____    ______ ____

>  <TORSDO>
F 7

$$$$
=
 OpenBabel11052418433D

 34 37  0  0  1  0  0  0  0  0999 V2000
  191.0410  176.0200  144.3600 C   0  0  0  0  0  0  0  0  0  0  0  0
  191.2590  173.9070  142.8800 C   0  0  1  0  0  3  0  0  0  0  0  0
  189.5530  175.6380  142.3120 C   0  0  2  0  0  3  0  0  0  0  0  0
  192.4460  176.4770  146.2240 O   0  0  0  0  0  1  0  0  0  0  0  0
  192.5830  174.4860  142.3910 C   0  0  0  0  0  1  0  0  0  0  0  0
  189.1460  173.1800  141.8580 C   0  0  0  0  0  2  0  0  0  0  0  0
  190.3440  175.0120  143.4700 C   0  0  2  0  0  3  0  0  0  0  0  0
  187.3260  174.5830  142.4560 O   0  0  0  0  0  0  0  0  0  0  0  0
  191.8190  175.5910  145.3550 C   0  0  0  0  0  3  0  0  0  0  0  0
  188.9010  176.9880  142.6470 C   0  0  1  0  0  3  0  0  0  0  0  0
  190.7860  177.4630  144.1910 C   0  0  0  0  0  3  0  0  0  0  0  0
  190.6120  173.1710  141.7610 N   0  0  2  0  0  0  0  0  0  0  0  0
  186.7300  175.8630  142.4960 C   0  0  0  0  0  2  0  0  0  0  0  0
  187.5570  176.8160  143.3470 C   0  0  1  0  0  3  0  0  0  0  0  0
  188.5500  174.6000  141.7300 C   0  0  1  0  0  0  0  0  0  0  0  0
  189.8250  177.9150  143.3850 C   0  0  0  0  0  3  0  0  0  0  0  0
  191.1510  172.2090  139.3440 F   0  0  0  0  0  0  0  0  0  0  0  0
  191.9700  171.3650  142.8640 C   0  0  0  0  0  2  0  0  0  0  0  0
  191.6330  171.3830  140.3470 C   0  0  1  0  0  3  0  0  0  0  0  0
  191.0270  171.7570  141.7100 C   0  0  2  0  0  3  0  0  0  0  0  0
  192.5130  169.1510  141.9640 N   0  0  0  0  0  2  0  0  0  0  0  0
  191.3920  168.9080  141.0690 C   0  0  0  0  0  2  0  0  0  0  0  0
  191.3570  169.9320  139.9350 C   0  0  0  0  0  2  0  0  0  0  0  0
  191.9770  169.8630  143.1150 C   0  0  0  0  0  2  0  0  0  0  0  0
  187.7170  176.2840  144.6340 O   0  0  0  0  0  0  0  0  0  0  0  0
  187.0980  177.1970  145.4960 C   0  0  2  0  0  3  0  0  0  0  0  0
  187.8740  177.3270  146.7690 C   0  0  0  0  0  0  0  0  0  0  0  0
  187.5070  178.2880  147.7020 O   0  0  0  0  0  1  0  0  0  0  0  0
  188.8380  176.5540  147.0160 O   0  0  0  0  0  0  0  0  0  0  0  0
  184.7210  177.7020  145.9980 C   0  0  0  0  0  2  0  0  0  0  0  0
  185.6720  176.8010  145.7600 C   0  0  0  0  0  3  0  0  0  0  0  0
  188.3260  174.9130  140.2370 C   0  0  0  0  0  2  0  0  0  0  0  0
  188.6110  173.9630  137.9380 C   0  0  0  0  0  1  0  0  0  0  0  0
  188.1810  173.6700  139.3630 C   0  0  0  0  0  2  0  0  0  0  0  0
  1  9  2  0  0  0  0
  2  5  1  6  0  0  0
  2  7  1  0  0  0  0
  3 10  1  0  0  0  0
  3  7  1  0  0  0  0
  7  1  1  0  0  0  0
  8 13  1  0  0  0  0
  9  4  1  0  0  0  0
 10 14  1  0  0  0  0
 10 16  1  0  0  0  0
 11  1  1  0  0  0  0
 12  6  1  0  0  0  0
 12  2  1  0  0  0  0
 13 14  1  0  0  0  0
 14 25  1  0  0  0  0
 15  6  1  0  0  0  0
 15  3  1  0  0  0  0
 15  8  1  0  0  0  0
 16 11  2  0  0  0  0
 17 19  1  0  0  0  0
 18 24  1  0  0  0  0
 19 20  1  0  0  0  0
 20 12  1  0  0  0  0
 20 18  1  0  0  0  0
 21 24  1  0  0  0  0
 22 21  1  0  0  0  0
 23 19  1  0  0  0  0
 23 22  1  0  0  0  0
 25 26  1  0  0  0  0
 26 31  1  0  0  0  0
 26 27  1  0  0  0  0
 27 29  2  0  0  0  0
 27 28  1  0  0  0  0
 31 30  2  0  0  0  0
 32 15  1  0  0  0  0
 33 34  1  0  0  0  0
 34 32  1  0  0  0  0
M  END
>  <MODEL>
5

>  <REMARK>
 VINA RESULT:      -6.3      3.207      6.924
  Name = 
  7 active torsions:
  status: ('A' for Active; 'I' for Inactive)
    1  A    between atoms: C_7  and  C_23
    2  A    between atoms: O_12  and  C_23
    3  A    between atoms: O_12  and  C_28
    4  A    between atoms: C_14  and  N_25
    5  A    between atoms: C_17  and  C_29
    6  A    between atoms: C_23  and  C_27
    7  A    between atoms: C_29  and  C_31
                            x       y       z     vdW  Elec       q    Type
                         _______ _______ _______ _____ _____    ______ ____

>  <TORSDO>
F 7

$$$$
=
 OpenBabel11052418433D

 34 37  0  0  1  0  0  0  0  0999 V2000
  190.5470  173.1260  142.3940 C   0  0  0  0  0  0  0  0  0  0  0  0
  193.0560  173.4690  141.8530 C   0  0  1  0  0  3  0  0  0  0  0  0
  192.2770  173.6010  144.2200 C   0  0  2  0  0  3  0  0  0  0  0  0
  188.9030  172.5990  140.7570 O   0  0  0  0  0  1  0  0  0  0  0  0
  193.1080  171.9770  141.5390 C   0  0  0  0  0  1  0  0  0  0  0  0
  194.2070  175.0090  143.3820 C   0  0  0  0  0  2  0  0  0  0  0  0
  191.8470  173.8120  142.7620 C   0  0  2  0  0  3  0  0  0  0  0  0
  192.7560  175.8760  145.0500 O   0  0  0  0  0  0  0  0  0  0  0  0
  190.1100  173.1780  141.1350 C   0  0  0  0  0  3  0  0  0  0  0  0
  191.1130  173.5150  145.2190 C   0  0  1  0  0  3  0  0  0  0  0  0
  189.7210  172.4890  143.4370 C   0  0  0  0  0  3  0  0  0  0  0  0
  194.3520  173.8820  142.4530 N   0  0  2  0  0  0  0  0  0  0  0  0
  191.8620  175.6640  146.1240 C   0  0  0  0  0  2  0  0  0  0  0  0
  190.6350  174.8940  145.6600 C   0  0  1  0  0  3  0  0  0  0  0  0
  193.3490  174.6560  144.6180 C   0  0  1  0  0  0  0  0  0  0  0  0
  189.9920  172.6390  144.7340 C   0  0  0  0  0  3  0  0  0  0  0  0
  196.8160  172.9350  142.7630 F   0  0  0  0  0  0  0  0  0  0  0  0
  194.7470  174.3100  140.0070 C   0  0  0  0  0  2  0  0  0  0  0  0
  196.6190  173.4510  141.4930 C   0  0  1  0  0  3  0  0  0  0  0  0
  195.3330  174.2930  141.4310 C   0  0  2  0  0  3  0  0  0  0  0  0
  196.8960  174.6770  138.8860 N   0  0  0  0  0  2  0  0  0  0  0  0
  197.7030  175.2350  139.9610 C   0  0  0  0  0  2  0  0  0  0  0  0
  197.8780  174.2320  141.1000 C   0  0  0  0  0  2  0  0  0  0  0  0
  195.5490  175.2000  139.0660 C   0  0  0  0  0  2  0  0  0  0  0  0
  190.0170  175.5800  144.6050 O   0  0  0  0  0  0  0  0  0  0  0  0
  189.4380  176.7150  145.1850 C   0  0  2  0  0  3  0  0  0  0  0  0
  188.0060  176.4550  145.5340 C   0  0  0  0  0  0  0  0  0  0  0  0
  187.6790  176.0100  146.8080 O   0  0  0  0  0  1  0  0  0  0  0  0
  187.0920  176.6640  144.6920 O   0  0  0  0  0  0  0  0  0  0  0  0
  190.5190  177.9780  143.3420 C   0  0  0  0  0  2  0  0  0  0  0  0
  189.5750  177.9070  144.2800 C   0  0  0  0  0  3  0  0  0  0  0  0
  194.2630  174.0490  145.7010 C   0  0  0  0  0  2  0  0  0  0  0  0
  196.7060  173.6540  146.0810 C   0  0  0  0  0  1  0  0  0  0  0  0
  195.6460  174.6930  145.7700 C   0  0  0  0  0  2  0  0  0  0  0  0
  1  7  1  0  0  0  0
  1 11  1  0  0  0  0
  2  5  1  1  0  0  0
  2 12  1  0  0  0  0
  2  7  1  0  0  0  0
  3 15  1  0  0  0  0
  3 10  1  0  0  0  0
  4  9  1  0  0  0  0
  6 15  1  0  0  0  0
  7  3  1  0  0  0  0
  8 13  1  0  0  0  0
  9  1  2  0  0  0  0
 10 14  1  0  0  0  0
 11 16  2  0  0  0  0
 12  6  1  0  0  0  0
 14 13  1  0  0  0  0
 15  8  1  0  0  0  0
 15 32  1  0  0  0  0
 16 10  1  0  0  0  0
 18 20  1  0  0  0  0
 19 17  1  0  0  0  0
 20 19  1  0  0  0  0
 20 12  1  0  0  0  0
 21 24  1  0  0  0  0
 21 22  1  0  0  0  0
 22 23  1  0  0  0  0
 23 19  1  0  0  0  0
 24 18  1  0  0  0  0
 25 26  1  0  0  0  0
 25 14  1  0  0  0  0
 26 27  1  0  0  0  0
 27 28  1  0  0  0  0
 29 27  2  0  0  0  0
 30 31  2  0  0  0  0
 31 26  1  0  0  0  0
 32 34  1  0  0  0  0
 34 33  1  0  0  0  0
M  END
>  <MODEL>
6

>  <REMARK>
 VINA RESULT:      -6.2      3.789      7.799
  Name = 
  7 active torsions:
  status: ('A' for Active; 'I' for Inactive)
    1  A    between atoms: C_7  and  C_23
    2  A    between atoms: O_12  and  C_23
    3  A    between atoms: O_12  and  C_28
    4  A    between atoms: C_14  and  N_25
    5  A    between atoms: C_17  and  C_29
    6  A    between atoms: C_23  and  C_27
    7  A    between atoms: C_29  and  C_31
                            x       y       z     vdW  Elec       q    Type
                         _______ _______ _______ _____ _____    ______ ____

>  <TORSDO>
F 7

$$$$
=
 OpenBabel11052418433D

 34 37  0  0  1  0  0  0  0  0999 V2000
  191.3800  175.8790  146.3650 C   0  0  0  0  0  0  0  0  0  0  0  0
  189.0070  176.4400  145.4960 C   0  0  1  0  0  3  0  0  0  0  0  0
  190.4100  174.7840  144.2640 C   0  0  2  0  0  3  0  0  0  0  0  0
  192.3090  176.7950  148.3540 O   0  0  0  0  0  1  0  0  0  0  0  0
  188.4730  175.6790  146.7060 C   0  0  0  0  0  1  0  0  0  0  0  0
  188.7750  176.2920  143.0550 C   0  0  0  0  0  2  0  0  0  0  0  0
  190.4650  176.0240  145.1670 C   0  0  2  0  0  3  0  0  0  0  0  0
  190.8050  175.6650  141.9930 O   0  0  0  0  0  0  0  0  0  0  0  0
  191.4520  176.8640  147.2610 C   0  0  0  0  0  3  0  0  0  0  0  0
  191.7360  174.0150  144.1630 C   0  0  1  0  0  3  0  0  0  0  0  0
  192.2590  174.7000  146.4910 C   0  0  0  0  0  3  0  0  0  0  0  0
  188.0840  176.2300  144.3490 N   0  0  2  0  0  0  0  0  0  0  0  0
  191.8680  174.7500  141.8300 C   0  0  0  0  0  2  0  0  0  0  0  0
  192.6680  174.6170  143.1170 C   0  0  1  0  0  3  0  0  0  0  0  0
  189.8120  175.1590  142.8780 C   0  0  1  0  0  0  0  0  0  0  0  0
  192.4040  173.8250  145.4950 C   0  0  0  0  0  3  0  0  0  0  0  0
  186.0310  175.6700  142.7570 F   0  0  0  0  0  0  0  0  0  0  0  0
  186.6990  177.8440  145.6890 C   0  0  0  0  0  2  0  0  0  0  0  0
  185.7330  176.6940  143.6410 C   0  0  1  0  0  3  0  0  0  0  0  0
  187.0080  177.2380  144.3070 C   0  0  2  0  0  3  0  0  0  0  0  0
  184.6960  179.0530  144.9580 N   0  0  0  0  0  2  0  0  0  0  0  0
  184.9100  179.1470  143.5220 C   0  0  0  0  0  2  0  0  0  0  0  0
  184.9430  177.7630  142.8750 C   0  0  0  0  0  2  0  0  0  0  0  0
  186.0030  179.1950  145.5810 C   0  0  0  0  0  2  0  0  0  0  0  0
  193.1330  175.8780  143.5160 O   0  0  0  0  0  0  0  0  0  0  0  0
  194.5230  175.8330  143.3510 C   0  0  2  0  0  3  0  0  0  0  0  0
  195.2160  176.1560  144.6380 C   0  0  0  0  0  0  0  0  0  0  0  0
  194.7240  177.1710  145.4470 O   0  0  0  0  0  1  0  0  0  0  0  0
  196.2250  175.4970  145.0080 O   0  0  0  0  0  0  0  0  0  0  0  0
  195.9550  176.4370  141.4150 C   0  0  0  0  0  2  0  0  0  0  0  0
  194.9610  176.7520  142.2460 C   0  0  0  0  0  3  0  0  0  0  0  0
  189.1010  173.9220  142.2940 C   0  0  0  0  0  2  0  0  0  0  0  0
  189.6900  171.5290  142.7350 C   0  0  0  0  0  1  0  0  0  0  0  0
  188.9870  172.7590  143.2760 C   0  0  0  0  0  2  0  0  0  0  0  0
  1 11  1  0  0  0  0
  1  9  2  0  0  0  0
  2  5  1  1  0  0  0
  3  7  1  0  0  0  0
  6 12  1  0  0  0  0
  7  2  1  0  0  0  0
  7  1  1  0  0  0  0
  8 15  1  0  0  0  0
  9  4  1  0  0  0  0
 10  3  1  0  0  0  0
 10 16  1  0  0  0  0
 12  2  1  0  0  0  0
 13  8  1  0  0  0  0
 13 14  1  0  0  0  0
 14 25  1  0  0  0  0
 14 10  1  0  0  0  0
 15  6  1  0  0  0  0
 15  3  1  0  0  0  0
 16 11  2  0  0  0  0
 17 19  1  0  0  0  0
 19 20  1  0  0  0  0
 20 12  1  0  0  0  0
 20 18  1  0  0  0  0
 21 24  1  0  0  0  0
 22 21  1  0  0  0  0
 23 22  1  0  0  0  0
 23 19  1  0  0  0  0
 24 18  1  0  0  0  0
 26 25  1  0  0  0  0
 26 27  1  0  0  0  0
 27 29  2  0  0  0  0
 27 28  1  0  0  0  0
 30 31  2  0  0  0  0
 31 26  1  0  0  0  0
 32 15  1  0  0  0  0
 32 34  1  0  0  0  0
 33 34  1  0  0  0  0
M  END
>  <MODEL>
7

>  <REMARK>
 VINA RESULT:      -6.2      1.007      1.098
  Name = 
  7 active torsions:
  status: ('A' for Active; 'I' for Inactive)
    1  A    between atoms: C_7  and  C_23
    2  A    between atoms: O_12  and  C_23
    3  A    between atoms: O_12  and  C_28
    4  A    between atoms: C_14  and  N_25
    5  A    between atoms: C_17  and  C_29
    6  A    between atoms: C_23  and  C_27
    7  A    between atoms: C_29  and  C_31
                            x       y       z     vdW  Elec       q    Type
                         _______ _______ _______ _____ _____    ______ ____

>  <TORSDO>
F 7

$$$$
=
 OpenBabel11052418433D

 34 37  0  0  1  0  0  0  0  0999 V2000
  193.4470  175.6350  145.1160 C   0  0  0  0  0  0  0  0  0  0  0  0
  194.2910  173.2290  144.6650 C   0  0  1  0  0  3  0  0  0  0  0  0
  192.4680  174.1790  143.2500 C   0  0  2  0  0  3  0  0  0  0  0  0
  194.3690  177.0690  146.7740 O   0  0  0  0  0  1  0  0  0  0  0  0
  195.5720  173.8650  144.1360 C   0  0  0  0  0  1  0  0  0  0  0  0
  192.5650  171.7100  143.8000 C   0  0  0  0  0  2  0  0  0  0  0  0
  193.1110  174.2350  144.6440 C   0  0  2  0  0  3  0  0  0  0  0  0
  190.4580  172.7810  143.5610 O   0  0  0  0  0  0  0  0  0  0  0  0
  194.0760  175.8020  146.2800 C   0  0  0  0  0  3  0  0  0  0  0  0
  191.5520  175.3700  142.9270 C   0  0  1  0  0  3  0  0  0  0  0  0
  192.9970  176.8090  144.3430 C   0  0  0  0  0  3  0  0  0  0  0  0
  194.0020  171.9990  143.8810 N   0  0  2  0  0  0  0  0  0  0  0  0
  189.6650  173.8090  143.0070 C   0  0  0  0  0  2  0  0  0  0  0  0
  190.1440  175.1740  143.4790 C   0  0  1  0  0  3  0  0  0  0  0  0
  191.7810  172.8000  143.0350 C   0  0  1  0  0  0  0  0  0  0  0  0
  192.1510  176.6910  143.3200 C   0  0  0  0  0  3  0  0  0  0  0  0
  195.9590  170.9220  142.4420 F   0  0  0  0  0  0  0  0  0  0  0  0
  194.8520  170.9120  145.9830 C   0  0  0  0  0  2  0  0  0  0  0  0
  195.9600  170.4530  143.7450 C   0  0  1  0  0  3  0  0  0  0  0  0
  194.6450  170.8040  144.4610 C   0  0  2  0  0  3  0  0  0  0  0  0
  196.2220  168.8880  146.1660 N   0  0  0  0  0  2  0  0  0  0  0  0
  195.8520  168.1670  144.9570 C   0  0  0  0  0  2  0  0  0  0  0  0
  196.2470  168.9470  143.7040 C   0  0  0  0  0  2  0  0  0  0  0  0
  195.0140  169.5470  146.6400 C   0  0  0  0  0  2  0  0  0  0  0  0
  190.1360  175.2190  144.8810 O   0  0  0  0  0  0  0  0  0  0  0  0
  188.9070  175.7920  145.2300 C   0  0  2  0  0  3  0  0  0  0  0  0
  188.9220  177.2660  144.9700 C   0  0  0  0  0  0  0  0  0  0  0  0
  187.9460  177.8310  144.1610 O   0  0  0  0  0  0  0  0  0  0  0  0
  189.7940  178.0030  145.5030 O   0  0  0  0  0  1  0  0  0  0  0  0
  189.1920  174.5410  147.3540 C   0  0  0  0  0  2  0  0  0  0  0  0
  188.5640  175.4900  146.6620 C   0  0  0  0  0  3  0  0  0  0  0  0
  191.8030  172.4670  141.5300 C   0  0  0  0  0  2  0  0  0  0  0  0
  192.4430  173.7840  139.4990 C   0  0  0  0  0  1  0  0  0  0  0  0
  192.9490  173.1300  140.7710 C   0  0  0  0  0  2  0  0  0  0  0  0
  1  9  2  0  0  0  0
  2  5  1  6  0  0  0
  3  7  1  0  0  0  0
  6 12  1  0  0  0  0
  7  2  1  0  0  0  0
  7  1  1  0  0  0  0
  9  4  1  0  0  0  0
 10  3  1  0  0  0  0
 10 16  1  0  0  0  0
 10 14  1  0  0  0  0
 11  1  1  0  0  0  0
 12 20  1  0  0  0  0
 12  2  1  0  0  0  0
 13 14  1  0  0  0  0
 13  8  1  0  0  0  0
 14 25  1  0  0  0  0
 15  3  1  0  0  0  0
 15  8  1  0  0  0  0
 15  6  1  0  0  0  0
 16 11  2  0  0  0  0
 17 19  1  0  0  0  0
 18 24  1  0  0  0  0
 19 20  1  0  0  0  0
 20 18  1  0  0  0  0
 21 24  1  0  0  0  0
 22 21  1  0  0  0  0
 23 19  1  0  0  0  0
 23 22  1  0  0  0  0
 25 26  1  0  0  0  0
 26 31  1  0  0  0  0
 27 26  1  0  0  0  0
 27 29  1  0  0  0  0
 28 27  2  0  0  0  0
 31 30  2  0  0  0  0
 32 15  1  0  0  0  0
 33 34  1  0  0  0  0
 34 32  1  0  0  0  0
M  END
>  <MODEL>
8

>  <REMARK>
 VINA RESULT:      -6.1      4.233      7.678
  Name = 
  7 active torsions:
  status: ('A' for Active; 'I' for Inactive)
    1  A    between atoms: C_7  and  C_23
    2  A    between atoms: O_12  and  C_23
    3  A    between atoms: O_12  and  C_28
    4  A    between atoms: C_14  and  N_25
    5  A    between atoms: C_17  and  C_29
    6  A    between atoms: C_23  and  C_27
    7  A    between atoms: C_29  and  C_31
                            x       y       z     vdW  Elec       q    Type
                         _______ _______ _______ _____ _____    ______ ____

>  <TORSDO>
F 7

$$$$
=
 OpenBabel11052418433D

 34 37  0  0  1  0  0  0  0  0999 V2000
  194.2680  176.0970  142.6360 C   0  0  0  0  0  0  0  0  0  0  0  0
  191.7460  176.3560  143.1620 C   0  0  1  0  0  3  0  0  0  0  0  0
  193.2740  175.4080  144.8920 C   0  0  2  0  0  3  0  0  0  0  0  0
  195.2700  176.7960  140.5950 O   0  0  0  0  0  1  0  0  0  0  0  0
  191.9930  177.8610  143.2030 C   0  0  0  0  0  1  0  0  0  0  0  0
  190.8650  174.6530  144.6970 C   0  0  0  0  0  2  0  0  0  0  0  0
  193.0610  175.5640  143.3800 C   0  0  2  0  0  3  0  0  0  0  0  0
  192.5320  173.1040  145.3780 O   0  0  0  0  0  0  0  0  0  0  0  0
  194.1780  176.3440  141.3290 C   0  0  0  0  0  3  0  0  0  0  0  0
  194.7000  174.9990  145.2930 C   0  0  1  0  0  3  0  0  0  0  0  0
  195.5610  176.2520  143.3300 C   0  0  0  0  0  3  0  0  0  0  0  0
  190.7030  176.0110  144.1630 N   0  0  2  0  0  0  0  0  0  0  0  0
  193.7790  172.8380  145.9860 C   0  0  0  0  0  2  0  0  0  0  0  0
  194.9090  173.4920  145.2050 C   0  0  1  0  0  3  0  0  0  0  0  0
  192.1790  174.4780  145.4920 C   0  0  1  0  0  0  0  0  0  0  0  0
  195.7570  175.7760  144.5600 C   0  0  0  0  0  3  0  0  0  0  0  0
  189.1240  177.8820  145.1960 F   0  0  0  0  0  0  0  0  0  0  0  0
  189.3120  175.8890  142.0730 C   0  0  0  0  0  2  0  0  0  0  0  0
  188.6220  177.3860  144.0050 C   0  0  1  0  0  3  0  0  0  0  0  0
  189.3420  176.0880  143.5990 C   0  0  2  0  0  3  0  0  0  0  0  0
  186.9510  176.4970  141.8150 N   0  0  0  0  0  2  0  0  0  0  0  0
  186.4380  176.2800  143.1600 C   0  0  0  0  0  2  0  0  0  0  0  0
  187.1060  177.2160  144.1650 C   0  0  0  0  0  2  0  0  0  0  0  0
  187.9380  175.4550  141.5760 C   0  0  0  0  0  2  0  0  0  0  0  0
  194.8820  173.0510  143.8740 O   0  0  0  0  0  0  0  0  0  0  0  0
  195.5330  171.8110  143.8770 C   0  0  2  0  0  3  0  0  0  0  0  0
  196.9840  171.9780  143.5510 C   0  0  0  0  0  0  0  0  0  0  0  0
  197.9410  171.6990  144.5170 O   0  0  0  0  0  1  0  0  0  0  0  0
  197.3460  172.3410  142.4000 O   0  0  0  0  0  0  0  0  0  0  0  0
  193.6750  171.1120  142.3870 C   0  0  0  0  0  2  0  0  0  0  0  0
  194.8630  170.8540  142.9310 C   0  0  0  0  0  3  0  0  0  0  0  0
  191.9320  174.8870  146.9580 C   0  0  0  0  0  2  0  0  0  0  0  0
  191.1930  176.8910  148.2650 C   0  0  0  0  0  1  0  0  0  0  0  0
  192.1740  176.3690  147.2310 C   0  0  0  0  0  2  0  0  0  0  0  0
  1 11  1  0  0  0  0
  1  7  1  0  0  0  0
  2  5  1  1  0  0  0
  2  7  1  0  0  0  0
  2 12  1  0  0  0  0
  3 10  1  0  0  0  0
  3 15  1  0  0  0  0
  4  9  1  0  0  0  0
  6 15  1  0  0  0  0
  7  3  1  0  0  0  0
  8 15  1  0  0  0  0
  8 13  1  0  0  0  0
  9  1  2  0  0  0  0
 11 16  2  0  0  0  0
 12  6  1  0  0  0  0
 14 10  1  0  0  0  0
 14 13  1  0  0  0  0
 15 32  1  0  0  0  0
 16 10  1  0  0  0  0
 18 20  1  0  0  0  0
 19 23  1  0  0  0  0
 19 17  1  0  0  0  0
 20 19  1  0  0  0  0
 20 12  1  0  0  0  0
 21 22  1  0  0  0  0
 22 23  1  0  0  0  0
 24 21  1  0  0  0  0
 24 18  1  0  0  0  0
 25 26  1  0  0  0  0
 25 14  1  0  0  0  0
 27 26  1  0  0  0  0
 27 28  1  0  0  0  0
 29 27  2  0  0  0  0
 30 31  2  0  0  0  0
 31 26  1  0  0  0  0
 32 34  1  0  0  0  0
 34 33  1  0  0  0  0
M  END
>  <MODEL>
9

>  <REMARK>
 VINA RESULT:      -6.0      2.861      4.996
  Name = 
  7 active torsions:
  status: ('A' for Active; 'I' for Inactive)
    1  A    between atoms: C_7  and  C_23
    2  A    between atoms: O_12  and  C_23
    3  A    between atoms: O_12  and  C_28
    4  A    between atoms: C_14  and  N_25
    5  A    between atoms: C_17  and  C_29
    6  A    between atoms: C_23  and  C_27
    7  A    between atoms: C_29  and  C_31
                            x       y       z     vdW  Elec       q    Type
                         _______ _______ _______ _____ _____    ______ ____

>  <TORSDO>
F 7

$$$$
