=
 OpenBabel11052418203D

 27 31  0  0  1  0  0  0  0  0999 V2000
  188.4600  178.2820  143.2640 C   0  0  0  0  0  2  0  0  0  0  0  0
  189.2450  177.0370  145.2410 C   0  0  0  0  0  0  0  0  0  0  0  0
  189.7810  175.6050  143.2890 N   0  0  0  0  0  2  0  0  0  0  0  0
  192.5310  175.4620  147.2380 N   0  0  0  0  0  0  0  0  0  0  0  0
  194.6950  175.1690  146.1460 C   0  0  0  0  0  1  0  0  0  0  0  0
  189.5940  177.4830  146.6220 C   0  0  0  0  0  3  0  0  0  0  0  0
  192.3700  175.3260  144.9680 C   0  0  2  0  0  3  0  0  0  0  0  0
  187.7860  175.4230  140.1540 C   0  0  0  0  0  3  0  0  0  0  0  0
  192.8550  175.4580  143.5630 C   0  0  0  0  0  1  0  0  0  0  0  0
  187.1470  176.6630  140.1320 C   0  0  0  0  0  0  0  0  0  0  0  0
  191.1330  175.5400  145.3930 C   0  0  1  0  0  3  0  0  0  0  0  0
  188.1710  177.7040  144.5650 N   0  0  0  0  0  0  0  0  0  0  0  0
  193.2110  175.2830  146.1530 C   0  0  0  0  0  0  0  0  0  0  0  0
  191.1190  175.5590  146.8850 C   0  0  2  0  0  3  0  0  0  0  0  0
  188.2300  177.2600  142.2160 C   0  0  0  0  0  0  0  0  0  0  0  0
  190.0190  176.1140  144.6160 C   0  0  0  0  0  0  0  0  0  0  0  0
  188.6440  175.0990  141.2070 C   0  0  0  0  0  3  0  0  0  0  0  0
  190.4960  176.8370  147.3730 C   0  0  0  0  0  3  0  0  0  0  0  0
  186.2330  177.0090  139.0130 C   0  0  0  0  0  1  0  0  0  0  0  0
  187.3740  177.5800  141.1580 C   0  0  0  0  0  3  0  0  0  0  0  0
  188.8670  176.0030  142.2530 C   0  0  0  0  0  0  0  0  0  0  0  0
  184.4260  178.2590  146.6050 C   0  0  0  0  0  2  0  0  0  0  0  0
  186.8460  177.8120  145.1280 C   0  0  0  0  0  0  0  0  0  0  0  0
  186.3610  176.8290  145.9090 C   0  0  0  0  0  3  0  0  0  0  0  0
  184.9760  176.8430  146.4920 C   0  0  0  0  0  2  0  0  0  0  0  0
  184.5690  178.9430  145.2550 C   0  0  0  0  0  2  0  0  0  0  0  0
  186.0490  179.0820  144.9050 C   0  0  0  0  0  2  0  0  0  0  0  0
  1 12  1  0  0  0  0
  2  6  1  0  0  0  0
  3 16  1  0  0  0  0
  5 13  1  0  0  0  0
  6 18  2  0  0  0  0
  7  9  1  6  0  0  0
  7 11  1  0  0  0  0
  7 13  1  0  0  0  0
  8 17  1  0  0  0  0
 10  8  2  0  0  0  0
 10 20  1  0  0  0  0
 11 16  1  6  0  0  0
 11 14  1  0  0  0  0
 12 23  1  0  0  0  0
 12  2  1  0  0  0  0
 13  4  2  0  0  0  0
 14  4  1  0  0  0  0
 14 18  1  6  0  0  0
 15 21  1  0  0  0  0
 15  1  1  0  0  0  0
 16  2  2  0  0  0  0
 17 21  2  0  0  0  0
 19 10  1  0  0  0  0
 20 15  2  0  0  0  0
 21  3  1  0  0  0  0
 23 24  2  0  0  0  0
 24 25  1  0  0  0  0
 25 22  1  0  0  0  0
 26 22  1  0  0  0  0
 27 23  1  0  0  0  0
 27 26  1  0  0  0  0
M  END
>  <MODEL>
1

>  <REMARK>
 VINA RESULT:      -8.4      0.000      0.000
  Name = 
  1 active torsions:
  status: ('A' for Active; 'I' for Inactive)
    1  A    between atoms: C_9  and  N_15
                            x       y       z     vdW  Elec       q    Type
                         _______ _______ _______ _____ _____    ______ ____

>  <TORSDO>
F 1

$$$$
=
 OpenBabel11052418203D

 27 31  0  0  1  0  0  0  0  0999 V2000
  189.5920  177.0930  143.2460 C   0  0  0  0  0  2  0  0  0  0  0  0
  190.0570  174.6880  142.9800 C   0  0  0  0  0  0  0  0  0  0  0  0
  187.7870  175.0400  142.0470 N   0  0  0  0  0  2  0  0  0  0  0  0
  190.6230  171.5660  140.2970 N   0  0  0  0  0  0  0  0  0  0  0  0
  189.9810  171.7410  137.9480 C   0  0  0  0  0  1  0  0  0  0  0  0
  191.3380  173.9210  142.9490 C   0  0  0  0  0  3  0  0  0  0  0  0
  189.0200  173.1440  139.9300 C   0  0  2  0  0  3  0  0  0  0  0  0
  185.3400  177.5650  143.2630 C   0  0  0  0  0  3  0  0  0  0  0  0
  188.2660  174.1510  139.1280 C   0  0  0  0  0  1  0  0  0  0  0  0
  186.1660  178.5290  143.8430 C   0  0  0  0  0  0  0  0  0  0  0  0
  189.2920  173.2180  141.2240 C   0  0  1  0  0  3  0  0  0  0  0  0
  189.9710  175.8260  143.8470 N   0  0  0  0  0  0  0  0  0  0  0  0
  189.8720  172.0980  139.3890 C   0  0  0  0  0  0  0  0  0  0  0  0
  190.2780  172.1570  141.5850 C   0  0  2  0  0  3  0  0  0  0  0  0
  188.1160  177.2140  143.2560 C   0  0  0  0  0  0  0  0  0  0  0  0
  189.0650  174.3750  142.1100 C   0  0  0  0  0  0  0  0  0  0  0  0
  185.9000  176.4240  142.6840 C   0  0  0  0  0  3  0  0  0  0  0  0
  191.4660  172.7750  142.2660 C   0  0  0  0  0  3  0  0  0  0  0  0
  185.5720  179.7430  144.4610 C   0  0  0  0  0  1  0  0  0  0  0  0
  187.5500  178.3550  143.8330 C   0  0  0  0  0  3  0  0  0  0  0  0
  187.2860  176.2270  142.6830 C   0  0  0  0  0  0  0  0  0  0  0  0
  191.0840  175.2420  147.9600 C   0  0  0  0  0  2  0  0  0  0  0  0
  190.2420  175.7480  145.2630 C   0  0  0  0  0  0  0  0  0  0  0  0
  189.4800  174.9720  146.0550 C   0  0  0  0  0  3  0  0  0  0  0  0
  189.6660  174.8750  147.5440 C   0  0  0  0  0  2  0  0  0  0  0  0
  191.4350  176.5890  147.3490 C   0  0  0  0  0  2  0  0  0  0  0  0
  191.4480  176.4730  145.8260 C   0  0  0  0  0  2  0  0  0  0  0  0
  1 15  1  0  0  0  0
  1 12  1  0  0  0  0
  2 12  1  0  0  0  0
  3 16  1  0  0  0  0
  3 21  1  0  0  0  0
  4 14  1  0  0  0  0
  5 13  1  0  0  0  0
  6  2  1  0  0  0  0
  7  9  1  6  0  0  0
  7 11  1  0  0  0  0
  8 10  1  0  0  0  0
 10 19  1  0  0  0  0
 11 14  1  0  0  0  0
 11 16  1  6  0  0  0
 12 23  1  0  0  0  0
 13  7  1  0  0  0  0
 13  4  2  0  0  0  0
 14 18  1  6  0  0  0
 15 20  1  0  0  0  0
 16  2  2  0  0  0  0
 17  8  2  0  0  0  0
 18  6  2  0  0  0  0
 20 10  2  0  0  0  0
 21 17  1  0  0  0  0
 21 15  2  0  0  0  0
 23 27  1  0  0  0  0
 23 24  2  0  0  0  0
 24 25  1  0  0  0  0
 25 22  1  0  0  0  0
 26 22  1  0  0  0  0
 27 26  1  0  0  0  0
M  END
>  <MODEL>
2

>  <REMARK>
 VINA RESULT:      -7.9      2.321      5.443
  Name = 
  1 active torsions:
  status: ('A' for Active; 'I' for Inactive)
    1  A    between atoms: C_9  and  N_15
                            x       y       z     vdW  Elec       q    Type
                         _______ _______ _______ _____ _____    ______ ____

>  <TORSDO>
F 1

$$$$
=
 OpenBabel11052418203D

 27 31  0  0  1  0  0  0  0  0999 V2000
  194.4210  174.9650  145.6340 C   0  0  0  0  0  2  0  0  0  0  0  0
  192.5830  176.0950  144.4430 C   0  0  0  0  0  0  0  0  0  0  0  0
  191.7810  173.7910  144.8840 N   0  0  0  0  0  2  0  0  0  0  0  0
  188.6610  177.4500  144.6550 N   0  0  0  0  0  0  0  0  0  0  0  0
  187.1250  176.7100  146.4020 C   0  0  0  0  0  1  0  0  0  0  0  0
  192.2570  177.5410  144.2630 C   0  0  0  0  0  3  0  0  0  0  0  0
  189.2560  175.4490  145.5700 C   0  0  2  0  0  3  0  0  0  0  0  0
  193.9350  170.7600  145.0120 C   0  0  0  0  0  3  0  0  0  0  0  0
  189.3160  174.4110  146.6410 C   0  0  0  0  0  1  0  0  0  0  0  0
  195.1810  171.2910  145.3460 C   0  0  0  0  0  0  0  0  0  0  0  0
  190.2100  175.7300  144.6960 C   0  0  1  0  0  3  0  0  0  0  0  0
  193.9640  175.7120  144.4750 N   0  0  0  0  0  0  0  0  0  0  0  0
  188.3070  176.5490  145.5120 C   0  0  0  0  0  0  0  0  0  0  0  0
  189.8670  176.9910  143.9750 C   0  0  2  0  0  3  0  0  0  0  0  0
  194.2230  173.5180  145.3880 C   0  0  0  0  0  0  0  0  0  0  0  0
  191.5890  175.2070  144.6960 C   0  0  0  0  0  0  0  0  0  0  0  0
  192.8340  171.6070  144.8610 C   0  0  0  0  0  3  0  0  0  0  0  0
  190.9980  177.9720  144.0960 C   0  0  0  0  0  3  0  0  0  0  0  0
  196.3540  170.3930  145.5060 C   0  0  0  0  0  1  0  0  0  0  0  0
  195.3220  172.6660  145.5390 C   0  0  0  0  0  3  0  0  0  0  0  0
  192.9640  172.9900  145.0340 C   0  0  0  0  0  0  0  0  0  0  0  0
  196.8110  176.2240  141.2920 C   0  0  0  0  0  2  0  0  0  0  0  0
  194.8870  176.0400  143.4140 C   0  0  0  0  0  0  0  0  0  0  0  0
  196.1540  176.3870  143.7040 C   0  0  0  0  0  3  0  0  0  0  0  0
  197.1600  176.7910  142.6630 C   0  0  0  0  0  2  0  0  0  0  0  0
  195.3680  176.5830  140.9740 C   0  0  0  0  0  2  0  0  0  0  0  0
  194.4380  175.8980  141.9730 C   0  0  0  0  0  2  0  0  0  0  0  0
  2 12  1  0  0  0  0
  2 16  2  0  0  0  0
  3 21  1  0  0  0  0
  4 13  2  0  0  0  0
  6  2  1  0  0  0  0
  7  9  1  1  0  0  0
  8 10  1  0  0  0  0
 10 19  1  0  0  0  0
 10 20  2  0  0  0  0
 11 16  1  1  0  0  0
 11  7  1  0  0  0  0
 12  1  1  0  0  0  0
 13  7  1  0  0  0  0
 13  5  1  0  0  0  0
 14 18  1  1  0  0  0
 14  4  1  0  0  0  0
 14 11  1  0  0  0  0
 15 20  1  0  0  0  0
 15  1  1  0  0  0  0
 16  3  1  0  0  0  0
 17  8  2  0  0  0  0
 17 21  1  0  0  0  0
 18  6  2  0  0  0  0
 21 15  2  0  0  0  0
 22 25  1  0  0  0  0
 23 24  2  0  0  0  0
 23 12  1  0  0  0  0
 25 24  1  0  0  0  0
 26 22  1  0  0  0  0
 26 27  1  0  0  0  0
 27 23  1  0  0  0  0
M  END
>  <MODEL>
3

>  <REMARK>
 VINA RESULT:      -7.4      2.790      7.897
  Name = 
  1 active torsions:
  status: ('A' for Active; 'I' for Inactive)
    1  A    between atoms: C_9  and  N_15
                            x       y       z     vdW  Elec       q    Type
                         _______ _______ _______ _____ _____    ______ ____

>  <TORSDO>
F 1

$$$$
=
 OpenBabel11052418203D

 27 31  0  0  1  0  0  0  0  0999 V2000
  189.3160  172.9370  143.6900 C   0  0  0  0  0  2  0  0  0  0  0  0
  189.5830  174.9840  145.0370 C   0  0  0  0  0  0  0  0  0  0  0  0
  188.2510  175.6530  143.0560 N   0  0  0  0  0  2  0  0  0  0  0  0
  187.6580  177.9170  147.2620 N   0  0  0  0  0  0  0  0  0  0  0  0
  185.2460  178.2730  147.1310 C   0  0  0  0  0  1  0  0  0  0  0  0
  189.9010  175.1880  146.4810 C   0  0  0  0  0  3  0  0  0  0  0  0
  186.7510  177.1430  145.3200 C   0  0  2  0  0  3  0  0  0  0  0  0
  188.5660  174.1640  139.6610 C   0  0  0  0  0  3  0  0  0  0  0  0
  185.6640  176.6070  144.4490 C   0  0  0  0  0  1  0  0  0  0  0  0
  189.0780  172.8960  139.9350 C   0  0  0  0  0  0  0  0  0  0  0  0
  188.0340  176.8230  145.2570 C   0  0  1  0  0  3  0  0  0  0  0  0
  190.1950  173.8800  144.3580 N   0  0  0  0  0  0  0  0  0  0  0  0
  186.5580  177.8270  146.5880 C   0  0  0  0  0  0  0  0  0  0  0  0
  188.7400  177.3670  146.4540 C   0  0  2  0  0  3  0  0  0  0  0  0
  189.0670  173.4020  142.3060 C   0  0  0  0  0  0  0  0  0  0  0  0
  188.6390  175.7540  144.4400 C   0  0  0  0  0  0  0  0  0  0  0  0
  188.3070  175.0530  140.7070 C   0  0  0  0  0  3  0  0  0  0  0  0
  189.4740  176.2620  147.1600 C   0  0  0  0  0  3  0  0  0  0  0  0
  189.3550  171.9480  138.8240 C   0  0  0  0  0  1  0  0  0  0  0  0
  189.3220  172.5160  141.2550 C   0  0  0  0  0  3  0  0  0  0  0  0
  188.5650  174.6920  142.0340 C   0  0  0  0  0  0  0  0  0  0  0  0
  194.4040  173.1950  143.7940 C   0  0  0  0  0  2  0  0  0  0  0  0
  191.6260  173.6860  144.3230 C   0  0  0  0  0  0  0  0  0  0  0  0
  192.1540  172.4890  144.6380 C   0  0  0  0  0  3  0  0  0  0  0  0
  193.6320  172.2200  144.6740 C   0  0  0  0  0  2  0  0  0  0  0  0
  193.9930  174.6110  144.1630 C   0  0  0  0  0  2  0  0  0  0  0  0
  192.5140  174.8150  143.8400 C   0  0  0  0  0  2  0  0  0  0  0  0
  1 12  1  0  0  0  0
  2  6  1  0  0  0  0
  3 16  1  0  0  0  0
  6 18  2  0  0  0  0
  7  9  1  1  0  0  0
  7 13  1  0  0  0  0
  8 10  2  0  0  0  0
  8 17  1  0  0  0  0
 10 20  1  0  0  0  0
 11 16  1  1  0  0  0
 11  7  1  0  0  0  0
 11 14  1  0  0  0  0
 12  2  1  0  0  0  0
 13  5  1  0  0  0  0
 13  4  2  0  0  0  0
 14 18  1  1  0  0  0
 14  4  1  0  0  0  0
 15  1  1  0  0  0  0
 16  2  2  0  0  0  0
 17 21  2  0  0  0  0
 19 10  1  0  0  0  0
 20 15  2  0  0  0  0
 21 15  1  0  0  0  0
 21  3  1  0  0  0  0
 22 26  1  0  0  0  0
 22 25  1  0  0  0  0
 23 12  1  0  0  0  0
 23 24  2  0  0  0  0
 24 25  1  0  0  0  0
 27 26  1  0  0  0  0
 27 23  1  0  0  0  0
M  END
>  <MODEL>
4

>  <REMARK>
 VINA RESULT:      -7.3      2.036      5.944
  Name = 
  1 active torsions:
  status: ('A' for Active; 'I' for Inactive)
    1  A    between atoms: C_9  and  N_15
                            x       y       z     vdW  Elec       q    Type
                         _______ _______ _______ _____ _____    ______ ____

>  <TORSDO>
F 1

$$$$
=
 OpenBabel11052418203D

 27 31  0  0  1  0  0  0  0  0999 V2000
  189.3160  172.3960  143.6270 C   0  0  0  0  0  2  0  0  0  0  0  0
  189.5740  174.4340  144.9900 C   0  0  0  0  0  0  0  0  0  0  0  0
  188.6290  175.1880  142.8250 N   0  0  0  0  0  2  0  0  0  0  0  0
  187.6280  177.5790  146.8810 N   0  0  0  0  0  0  0  0  0  0  0  0
  185.3090  178.1610  146.3810 C   0  0  0  0  0  1  0  0  0  0  0  0
  189.6870  174.6340  146.4650 C   0  0  0  0  0  3  0  0  0  0  0  0
  186.9550  176.8580  144.8270 C   0  0  2  0  0  3  0  0  0  0  0  0
  189.3080  173.6110  139.5250 C   0  0  0  0  0  3  0  0  0  0  0  0
  185.9660  176.4110  143.8020 C   0  0  0  0  0  1  0  0  0  0  0  0
  189.6480  172.3060  139.8800 C   0  0  0  0  0  0  0  0  0  0  0  0
  188.1960  176.4160  144.9620 C   0  0  1  0  0  3  0  0  0  0  0  0
  190.1720  173.2630  144.4170 N   0  0  0  0  0  0  0  0  0  0  0  0
  186.6390  177.5810  146.0480 C   0  0  0  0  0  0  0  0  0  0  0  0
  188.7610  176.9130  146.2500 C   0  0  2  0  0  3  0  0  0  0  0  0
  189.3270  172.8560  142.2190 C   0  0  0  0  0  0  0  0  0  0  0  0
  188.8110  175.2790  144.2520 C   0  0  0  0  0  0  0  0  0  0  0  0
  188.9820  174.5410  140.5150 C   0  0  0  0  0  3  0  0  0  0  0  0
  189.2680  175.7570  147.0650 C   0  0  0  0  0  3  0  0  0  0  0  0
  189.9960  171.3150  138.8280 C   0  0  0  0  0  1  0  0  0  0  0  0
  189.6510  171.9290  141.2230 C   0  0  0  0  0  3  0  0  0  0  0  0
  188.9990  174.1820  141.8680 C   0  0  0  0  0  0  0  0  0  0  0  0
  194.1970  172.0980  145.3870 C   0  0  0  0  0  2  0  0  0  0  0  0
  191.5650  172.9340  144.6020 C   0  0  0  0  0  0  0  0  0  0  0  0
  192.4060  173.8320  145.1460 C   0  0  0  0  0  3  0  0  0  0  0  0
  193.8780  173.5860  145.3260 C   0  0  0  0  0  2  0  0  0  0  0  0
  193.5670  171.4180  144.1820 C   0  0  0  0  0  2  0  0  0  0  0  0
  192.0470  171.5370  144.2630 C   0  0  0  0  0  2  0  0  0  0  0  0
  1 12  1  0  0  0  0
  2  6  1  0  0  0  0
  3 16  1  0  0  0  0
  6 18  2  0  0  0  0
  7  9  1  1  0  0  0
  7 11  1  0  0  0  0
  7 13  1  0  0  0  0
  8 10  2  0  0  0  0
  8 17  1  0  0  0  0
 10 20  1  0  0  0  0
 11 16  1  1  0  0  0
 11 14  1  0  0  0  0
 12 23  1  0  0  0  0
 12  2  1  0  0  0  0
 13  5  1  0  0  0  0
 13  4  2  0  0  0  0
 14  4  1  0  0  0  0
 14 18  1  1  0  0  0
 15  1  1  0  0  0  0
 16  2  2  0  0  0  0
 17 21  2  0  0  0  0
 19 10  1  0  0  0  0
 20 15  2  0  0  0  0
 21 15  1  0  0  0  0
 21  3  1  0  0  0  0
 23 24  2  0  0  0  0
 24 25  1  0  0  0  0
 25 22  1  0  0  0  0
 26 27  1  0  0  0  0
 26 22  1  0  0  0  0
 27 23  1  0  0  0  0
M  END
>  <MODEL>
5

>  <REMARK>
 VINA RESULT:      -7.2      2.448      6.217
  Name = 
  1 active torsions:
  status: ('A' for Active; 'I' for Inactive)
    1  A    between atoms: C_9  and  N_15
                            x       y       z     vdW  Elec       q    Type
                         _______ _______ _______ _____ _____    ______ ____

>  <TORSDO>
F 1

$$$$
=
 OpenBabel11052418203D

 27 31  0  0  1  0  0  0  0  0999 V2000
  188.9360  175.0460  145.8190 C   0  0  0  0  0  2  0  0  0  0  0  0
  188.8840  175.0220  143.3550 C   0  0  0  0  0  0  0  0  0  0  0  0
  191.2750  175.2360  143.9740 N   0  0  0  0  0  2  0  0  0  0  0  0
  190.0070  172.9970  139.9060 N   0  0  0  0  0  0  0  0  0  0  0  0
  191.7100  171.2470  139.9250 C   0  0  0  0  0  1  0  0  0  0  0  0
  187.8620  174.5230  142.3880 C   0  0  0  0  0  3  0  0  0  0  0  0
  191.4310  173.1630  141.6780 C   0  0  2  0  0  3  0  0  0  0  0  0
  192.5580  176.9980  146.9890 C   0  0  0  0  0  3  0  0  0  0  0  0
  192.3890  172.6510  142.7010 C   0  0  0  0  0  1  0  0  0  0  0  0
  191.4700  176.9340  147.8610 C   0  0  0  0  0  0  0  0  0  0  0  0
  190.5480  174.1350  141.8480 C   0  0  1  0  0  3  0  0  0  0  0  0
  188.4260  175.6080  144.5810 N   0  0  0  0  0  0  0  0  0  0  0  0
  191.0580  172.4770  140.4520 C   0  0  0  0  0  0  0  0  0  0  0  0
  189.6140  174.1650  140.6850 C   0  0  2  0  0  3  0  0  0  0  0  0
  190.1950  175.7350  146.1830 C   0  0  0  0  0  0  0  0  0  0  0  0
  190.2010  174.8000  143.1180 C   0  0  0  0  0  0  0  0  0  0  0  0
  192.4640  176.4350  145.7140 C   0  0  0  0  0  3  0  0  0  0  0  0
  188.1940  174.0770  141.1680 C   0  0  0  0  0  3  0  0  0  0  0  0
  191.5660  177.5320  149.2180 C   0  0  0  0  0  1  0  0  0  0  0  0
  190.2950  176.2980  147.4590 C   0  0  0  0  0  3  0  0  0  0  0  0
  191.2850  175.8110  145.2910 C   0  0  0  0  0  0  0  0  0  0  0  0
  185.9880  179.1340  144.9310 C   0  0  0  0  0  2  0  0  0  0  0  0
  187.4970  176.7130  144.6150 C   0  0  0  0  0  0  0  0  0  0  0  0
  186.5750  176.7910  145.5920 C   0  0  0  0  0  3  0  0  0  0  0  0
  185.5420  177.8790  145.6700 C   0  0  0  0  0  2  0  0  0  0  0  0
  186.4130  178.7420  143.5250 C   0  0  0  0  0  2  0  0  0  0  0  0
  187.6330  177.8260  143.5950 C   0  0  0  0  0  2  0  0  0  0  0  0
  1 15  1  0  0  0  0
  2 12  1  0  0  0  0
  3 21  1  0  0  0  0
  4 13  2  0  0  0  0
  4 14  1  0  0  0  0
  5 13  1  0  0  0  0
  6  2  1  0  0  0  0
  7 11  1  0  0  0  0
  7  9  1  1  0  0  0
  8 10  1  0  0  0  0
 10 19  1  0  0  0  0
 11 16  1  1  0  0  0
 12 23  1  0  0  0  0
 12  1  1  0  0  0  0
 13  7  1  0  0  0  0
 14 18  1  1  0  0  0
 14 11  1  0  0  0  0
 15 20  1  0  0  0  0
 16  2  2  0  0  0  0
 16  3  1  0  0  0  0
 17  8  2  0  0  0  0
 18  6  2  0  0  0  0
 20 10  2  0  0  0  0
 21 17  1  0  0  0  0
 21 15  2  0  0  0  0
 22 25  1  0  0  0  0
 23 24  2  0  0  0  0
 24 25  1  0  0  0  0
 26 27  1  0  0  0  0
 26 22  1  0  0  0  0
 27 23  1  0  0  0  0
M  END
>  <MODEL>
6

>  <REMARK>
 VINA RESULT:      -7.2      2.151      5.456
  Name = 
  1 active torsions:
  status: ('A' for Active; 'I' for Inactive)
    1  A    between atoms: C_9  and  N_15
                            x       y       z     vdW  Elec       q    Type
                         _______ _______ _______ _____ _____    ______ ____

>  <TORSDO>
F 1

$$$$
=
 OpenBabel11052418203D

 27 31  0  0  1  0  0  0  0  0999 V2000
  191.1450  176.9480  143.4460 C   0  0  0  0  0  2  0  0  0  0  0  0
  188.7850  176.3360  143.0850 C   0  0  0  0  0  0  0  0  0  0  0  0
  189.1360  176.2410  145.5380 N   0  0  0  0  0  2  0  0  0  0  0  0
  184.8180  177.3800  143.7420 N   0  0  0  0  0  0  0  0  0  0  0  0
  184.1720  179.0410  145.4120 C   0  0  0  0  0  1  0  0  0  0  0  0
  187.8560  176.5890  141.9440 C   0  0  0  0  0  3  0  0  0  0  0  0
  186.3810  177.6480  145.3790 C   0  0  2  0  0  3  0  0  0  0  0  0
  192.3200  175.2910  147.2100 C   0  0  0  0  0  3  0  0  0  0  0  0
  187.1100  178.3870  146.4500 C   0  0  0  0  0  1  0  0  0  0  0  0
  193.2740  175.6000  146.2400 C   0  0  0  0  0  0  0  0  0  0  0  0
  186.9050  176.7710  144.5360 C   0  0  1  0  0  3  0  0  0  0  0  0
  190.1670  176.0950  142.7920 N   0  0  0  0  0  0  0  0  0  0  0  0
  185.0750  178.0020  144.8460 C   0  0  0  0  0  0  0  0  0  0  0  0
  185.9140  176.4600  143.4640 C   0  0  2  0  0  3  0  0  0  0  0  0
  191.5160  176.3510  144.7490 C   0  0  0  0  0  0  0  0  0  0  0  0
  188.3370  176.4630  144.3590 C   0  0  0  0  0  0  0  0  0  0  0  0
  190.9650  175.5070  146.9510 C   0  0  0  0  0  3  0  0  0  0  0  0
  186.5310  176.6980  142.1150 C   0  0  0  0  0  3  0  0  0  0  0  0
  194.7160  175.3690  146.5130 C   0  0  0  0  0  1  0  0  0  0  0  0
  192.8710  176.1340  145.0150 C   0  0  0  0  0  3  0  0  0  0  0  0
  190.5450  176.0250  145.7200 C   0  0  0  0  0  0  0  0  0  0  0  0
  191.4640  172.7090  140.4790 C   0  0  0  0  0  2  0  0  0  0  0  0
  190.6010  175.0560  141.8890 C   0  0  0  0  0  0  0  0  0  0  0  0
  191.9110  174.8880  141.6300 C   0  0  0  0  0  3  0  0  0  0  0  0
  192.4390  173.8640  140.6650 C   0  0  0  0  0  2  0  0  0  0  0  0
  190.0980  173.2810  140.1340 C   0  0  0  0  0  2  0  0  0  0  0  0
  189.5750  174.1020  141.3120 C   0  0  0  0  0  2  0  0  0  0  0  0
  1 15  1  0  0  0  0
  2 16  2  0  0  0  0
  3 21  1  0  0  0  0
  4 13  2  0  0  0  0
  6 18  2  0  0  0  0
  6  2  1  0  0  0  0
  7  9  1  6  0  0  0
 10 19  1  0  0  0  0
 10  8  2  0  0  0  0
 11 16  1  6  0  0  0
 11  7  1  0  0  0  0
 12  2  1  0  0  0  0
 12  1  1  0  0  0  0
 13  7  1  0  0  0  0
 13  5  1  0  0  0  0
 14 18  1  6  0  0  0
 14  4  1  0  0  0  0
 14 11  1  0  0  0  0
 15 20  2  0  0  0  0
 15 21  1  0  0  0  0
 16  3  1  0  0  0  0
 17  8  1  0  0  0  0
 20 10  1  0  0  0  0
 21 17  2  0  0  0  0
 22 25  1  0  0  0  0
 23 12  1  0  0  0  0
 24 23  2  0  0  0  0
 25 24  1  0  0  0  0
 26 22  1  0  0  0  0
 26 27  1  0  0  0  0
 27 23  1  0  0  0  0
M  END
>  <MODEL>
7

>  <REMARK>
 VINA RESULT:      -7.1      1.766      7.114
  Name = 
  1 active torsions:
  status: ('A' for Active; 'I' for Inactive)
    1  A    between atoms: C_9  and  N_15
                            x       y       z     vdW  Elec       q    Type
                         _______ _______ _______ _____ _____    ______ ____

>  <TORSDO>
F 1

$$$$
=
 OpenBabel11052418203D

 27 31  0  0  1  0  0  0  0  0999 V2000
  190.8650  176.2830  143.2160 C   0  0  0  0  0  2  0  0  0  0  0  0
  188.5520  176.0280  144.0270 C   0  0  0  0  0  0  0  0  0  0  0  0
  189.9880  175.9040  146.0440 N   0  0  0  0  0  2  0  0  0  0  0  0
  185.5160  177.6600  146.3470 N   0  0  0  0  0  0  0  0  0  0  0  0
  185.9400  179.4130  147.9930 C   0  0  0  0  0  1  0  0  0  0  0  0
  187.2400  176.4080  143.4230 C   0  0  0  0  0  3  0  0  0  0  0  0
  187.6810  177.7060  147.0580 C   0  0  2  0  0  3  0  0  0  0  0  0
  193.4330  174.5020  146.1380 C   0  0  0  0  0  3  0  0  0  0  0  0
  188.9130  178.3370  147.6150 C   0  0  0  0  0  1  0  0  0  0  0  0
  193.8560  174.6560  144.8170 C   0  0  0  0  0  0  0  0  0  0  0  0
  187.6360  176.7520  146.1400 C   0  0  1  0  0  3  0  0  0  0  0  0
  189.5960  175.5810  143.1520 N   0  0  0  0  0  0  0  0  0  0  0  0
  186.3350  178.2460  147.1580 C   0  0  0  0  0  0  0  0  0  0  0  0
  186.2300  176.5840  145.6690 C   0  0  2  0  0  3  0  0  0  0  0  0
  191.7190  175.6490  144.2460 C   0  0  0  0  0  0  0  0  0  0  0  0
  188.7680  176.2320  145.3500 C   0  0  0  0  0  0  0  0  0  0  0  0
  192.1530  174.9170  146.5130 C   0  0  0  0  0  3  0  0  0  0  0  0
  186.1730  176.7160  144.1740 C   0  0  0  0  0  3  0  0  0  0  0  0
  195.2170  174.2150  144.4150 C   0  0  0  0  0  1  0  0  0  0  0  0
  193.0020  175.2340  143.8770 C   0  0  0  0  0  3  0  0  0  0  0  0
  191.2790  175.4810  145.5760 C   0  0  0  0  0  0  0  0  0  0  0  0
  189.5330  172.3660  140.2950 C   0  0  0  0  0  2  0  0  0  0  0  0
  189.4220  174.4800  142.2330 C   0  0  0  0  0  0  0  0  0  0  0  0
  188.9650  174.7050  140.9880 C   0  0  0  0  0  3  0  0  0  0  0  0
  188.7090  173.6100  139.9900 C   0  0  0  0  0  2  0  0  0  0  0  0
  189.3110  171.9830  141.7500 C   0  0  0  0  0  2  0  0  0  0  0  0
  189.8460  173.0890  142.6580 C   0  0  0  0  0  2  0  0  0  0  0  0
  1 15  1  0  0  0  0
  2 16  2  0  0  0  0
  4 13  2  0  0  0  0
  6  2  1  0  0  0  0
  6 18  2  0  0  0  0
  7 13  1  0  0  0  0
  7  9  1  6  0  0  0
  8 17  1  0  0  0  0
 10  8  2  0  0  0  0
 11 16  1  6  0  0  0
 11  7  1  0  0  0  0
 12  1  1  0  0  0  0
 12  2  1  0  0  0  0
 13  5  1  0  0  0  0
 14 18  1  6  0  0  0
 14 11  1  0  0  0  0
 14  4  1  0  0  0  0
 15 21  1  0  0  0  0
 16  3  1  0  0  0  0
 19 10  1  0  0  0  0
 20 15  2  0  0  0  0
 20 10  1  0  0  0  0
 21  3  1  0  0  0  0
 21 17  2  0  0  0  0
 22 26  1  0  0  0  0
 23 27  1  0  0  0  0
 23 12  1  0  0  0  0
 24 23  2  0  0  0  0
 25 22  1  0  0  0  0
 25 24  1  0  0  0  0
 26 27  1  0  0  0  0
M  END
>  <MODEL>
8

>  <REMARK>
 VINA RESULT:      -7.0      1.912      6.514
  Name = 
  1 active torsions:
  status: ('A' for Active; 'I' for Inactive)
    1  A    between atoms: C_9  and  N_15
                            x       y       z     vdW  Elec       q    Type
                         _______ _______ _______ _____ _____    ______ ____

>  <TORSDO>
F 1

$$$$
=
 OpenBabel11052418203D

 27 31  0  0  1  0  0  0  0  0999 V2000
  188.9420  174.9880  145.6110 C   0  0  0  0  0  2  0  0  0  0  0  0
  189.0950  174.6910  143.1690 C   0  0  0  0  0  0  0  0  0  0  0  0
  191.4330  174.6970  143.9930 N   0  0  0  0  0  2  0  0  0  0  0  0
  190.2430  172.1710  140.0720 N   0  0  0  0  0  0  0  0  0  0  0  0
  191.7070  170.2500  140.4360 C   0  0  0  0  0  1  0  0  0  0  0  0
  188.1040  174.2050  142.1640 C   0  0  0  0  0  3  0  0  0  0  0  0
  191.5220  172.3720  141.9480 C   0  0  2  0  0  3  0  0  0  0  0  0
  192.6680  176.6310  146.9220 C   0  0  0  0  0  3  0  0  0  0  0  0
  192.3190  171.8730  143.1070 C   0  0  0  0  0  1  0  0  0  0  0  0
  191.5110  176.7920  147.6850 C   0  0  0  0  0  0  0  0  0  0  0  0
  190.7560  173.4520  141.9310 C   0  0  1  0  0  3  0  0  0  0  0  0
  188.6120  175.4610  144.2780 N   0  0  0  0  0  0  0  0  0  0  0  0
  191.1710  171.5990  140.7680 C   0  0  0  0  0  0  0  0  0  0  0  0
  189.9350  173.4580  140.6850 C   0  0  2  0  0  3  0  0  0  0  0  0
  190.2420  175.5640  146.0240 C   0  0  0  0  0  0  0  0  0  0  0  0
  190.3890  174.2930  143.0860 C   0  0  0  0  0  0  0  0  0  0  0  0
  192.6120  175.9420  145.7080 C   0  0  0  0  0  3  0  0  0  0  0  0
  188.4790  173.5890  141.0340 C   0  0  0  0  0  3  0  0  0  0  0  0
  191.5670  177.5260  148.9760 C   0  0  0  0  0  1  0  0  0  0  0  0
  190.3040  176.2540  147.2390 C   0  0  0  0  0  3  0  0  0  0  0  0
  191.4040  175.4130  145.2390 C   0  0  0  0  0  0  0  0  0  0  0  0
  185.9340  178.7570  143.6010 C   0  0  0  0  0  2  0  0  0  0  0  0
  187.8290  176.6620  144.1080 C   0  0  0  0  0  0  0  0  0  0  0  0
  187.9300  177.3800  142.9750 C   0  0  0  0  0  3  0  0  0  0  0  0
  187.1880  178.6660  142.7410 C   0  0  0  0  0  2  0  0  0  0  0  0
  186.3180  178.4830  145.0470 C   0  0  0  0  0  2  0  0  0  0  0  0
  186.8270  177.0490  145.1780 C   0  0  0  0  0  2  0  0  0  0  0  0
  1 15  1  0  0  0  0
  2 12  1  0  0  0  0
  3 21  1  0  0  0  0
  4 14  1  0  0  0  0
  4 13  2  0  0  0  0
  5 13  1  0  0  0  0
  6  2  1  0  0  0  0
  7  9  1  1  0  0  0
  8 10  1  0  0  0  0
 10 19  1  0  0  0  0
 11  7  1  0  0  0  0
 11 16  1  1  0  0  0
 12  1  1  0  0  0  0
 13  7  1  0  0  0  0
 14 18  1  1  0  0  0
 14 11  1  0  0  0  0
 15 20  1  0  0  0  0
 16  2  2  0  0  0  0
 16  3  1  0  0  0  0
 17  8  2  0  0  0  0
 18  6  2  0  0  0  0
 20 10  2  0  0  0  0
 21 17  1  0  0  0  0
 21 15  2  0  0  0  0
 22 26  1  0  0  0  0
 23 12  1  0  0  0  0
 23 27  1  0  0  0  0
 24 23  2  0  0  0  0
 25 24  1  0  0  0  0
 25 22  1  0  0  0  0
 26 27  1  0  0  0  0
M  END
>  <MODEL>
9

>  <REMARK>
 VINA RESULT:      -7.0      2.407      5.626
  Name = 
  1 active torsions:
  status: ('A' for Active; 'I' for Inactive)
    1  A    between atoms: C_9  and  N_15
                            x       y       z     vdW  Elec       q    Type
                         _______ _______ _______ _____ _____    ______ ____

>  <TORSDO>
F 1

$$$$
