=
 OpenBabel11052418293D

 27 31  0  0  0  0  0  0  0  0999 V2000
  190.2660  175.1230  143.1210 C   0  0  0  0  0  0  0  0  0  0  0  0
  189.5660  176.3330  145.1810 C   0  0  0  0  0  0  0  0  0  0  0  0
  187.9430  175.7400  143.4710 O   0  0  0  0  0  0  0  0  0  0  0  0
  186.5480  178.0690  147.5060 C   0  0  0  0  0  3  0  0  0  0  0  0
  184.2580  178.6510  147.8120 F   0  0  0  0  0  0  0  0  0  0  0  0
  189.8320  176.9090  146.4330 C   0  0  0  0  0  3  0  0  0  0  0  0
  185.8950  176.9300  145.0290 C   0  0  0  0  0  3  0  0  0  0  0  0
  184.9000  177.5170  145.8170 C   0  0  0  0  0  3  0  0  0  0  0  0
  187.2230  176.9110  145.4750 C   0  0  0  0  0  0  0  0  0  0  0  0
  190.6130  175.7240  144.3910 N   0  0  0  0  0  0  0  0  0  0  0  0
  185.2260  178.0850  147.0530 C   0  0  0  0  0  0  0  0  0  0  0  0
  187.5490  177.4850  146.7240 C   0  0  0  0  0  0  0  0  0  0  0  0
  191.2320  174.5320  142.2930 C   0  0  0  0  0  3  0  0  0  0  0  0
  188.2400  176.3300  144.7060 C   0  0  0  0  0  0  0  0  0  0  0  0
  188.5880  174.5780  141.4560 C   0  0  0  0  0  3  0  0  0  0  0  0
  188.8330  177.4670  147.1660 N   0  0  0  0  0  0  0  0  0  0  0  0
  189.5850  174.0000  140.6670 C   0  0  0  0  0  0  0  0  0  0  0  0
  190.8740  173.9860  141.0990 N   0  0  0  0  0  0  0  0  0  0  0  0
  188.9310  175.1450  142.6830 C   0  0  0  0  0  0  0  0  0  0  0  0
  194.6300  175.6980  145.7610 C   0  0  0  0  0  3  0  0  0  0  0  0
  191.9760  175.7160  144.8560 C   0  0  0  0  0  0  0  0  0  0  0  0
  192.4670  174.6250  145.5880 C   0  0  0  0  0  3  0  0  0  0  0  0
  193.7900  174.6160  146.0390 C   0  0  0  0  0  3  0  0  0  0  0  0
  194.1480  176.7880  145.0310 C   0  0  0  0  0  3  0  0  0  0  0  0
  192.8240  176.7980  144.5790 C   0  0  0  0  0  3  0  0  0  0  0  0
  189.2300  173.3690  139.3680 C   0  0  0  0  0  2  0  0  0  0  0  0
  188.0460  172.6450  139.5050 O   0  0  0  0  0  1  0  0  0  0  0  0
  1 10  1  0  0  0  0
  2  6  1  0  0  0  0
  3 14  1  0  0  0  0
  6 16  2  0  0  0  0
  7  9  2  0  0  0  0
  7  8  1  0  0  0  0
  8 11  2  0  0  0  0
  9 12  1  0  0  0  0
 10 21  1  0  0  0  0
 10  2  1  0  0  0  0
 11  4  1  0  0  0  0
 11  5  1  0  0  0  0
 12 16  1  0  0  0  0
 12  4  2  0  0  0  0
 13  1  2  0  0  0  0
 14  2  2  0  0  0  0
 14  9  1  0  0  0  0
 15 19  2  0  0  0  0
 17 18  2  0  0  0  0
 17 15  1  0  0  0  0
 18 13  1  0  0  0  0
 19  1  1  0  0  0  0
 19  3  1  0  0  0  0
 20 23  1  0  0  0  0
 21 22  1  0  0  0  0
 22 23  2  0  0  0  0
 24 20  2  0  0  0  0
 25 21  2  0  0  0  0
 25 24  1  0  0  0  0
 26 27  1  0  0  0  0
 26 17  1  0  0  0  0
M  END
>  <MODEL>
1

>  <REMARK>
 VINA RESULT:      -8.2      0.000      0.000
  Name = 
  2 active torsions:
  status: ('A' for Active; 'I' for Inactive)
    1  A    between atoms: C_9  and  N_15
    2  A    between atoms: C_10  and  CA_22
                            x       y       z     vdW  Elec       q    Type
                         _______ _______ _______ _____ _____    ______ ____

>  <TORSDO>
F 2

$$$$
=
 OpenBabel11052418293D

 27 31  0  0  0  0  0  0  0  0999 V2000
  190.0230  176.1780  145.5150 C   0  0  0  0  0  0  0  0  0  0  0  0
  188.1310  176.2890  143.9020 C   0  0  0  0  0  0  0  0  0  0  0  0
  188.1350  177.6510  145.9150 O   0  0  0  0  0  0  0  0  0  0  0  0
  184.4460  177.9120  142.7560 C   0  0  0  0  0  3  0  0  0  0  0  0
  182.6140  179.3740  143.1830 F   0  0  0  0  0  0  0  0  0  0  0  0
  187.4960  175.9180  142.7060 C   0  0  0  0  0  3  0  0  0  0  0  0
  185.6300  178.7420  145.1570 C   0  0  0  0  0  3  0  0  0  0  0  0
  184.3980  179.2730  144.7610 C   0  0  0  0  0  3  0  0  0  0  0  0
  186.2760  177.7930  144.3540 C   0  0  0  0  0  0  0  0  0  0  0  0
  189.4100  175.7320  144.2830 N   0  0  0  0  0  0  0  0  0  0  0  0
  183.8070  178.8580  143.5620 C   0  0  0  0  0  0  0  0  0  0  0  0
  185.6780  177.3770  143.1450 C   0  0  0  0  0  0  0  0  0  0  0  0
  191.2530  175.6670  145.9580 C   0  0  0  0  0  3  0  0  0  0  0  0
  187.5110  177.2460  144.7280 C   0  0  0  0  0  0  0  0  0  0  0  0
  189.9460  177.5620  147.5070 C   0  0  0  0  0  3  0  0  0  0  0  0
  186.2990  176.4600  142.3590 N   0  0  0  0  0  0  0  0  0  0  0  0
  191.1730  177.0250  147.9050 C   0  0  0  0  0  0  0  0  0  0  0  0
  191.7970  176.0990  147.1270 N   0  0  0  0  0  0  0  0  0  0  0  0
  189.3690  177.1320  146.3120 C   0  0  0  0  0  0  0  0  0  0  0  0
  191.3300  172.8410  141.8390 C   0  0  0  0  0  3  0  0  0  0  0  0
  190.0620  174.7510  143.4540 C   0  0  0  0  0  0  0  0  0  0  0  0
  189.7950  173.3860  143.6300 C   0  0  0  0  0  3  0  0  0  0  0  0
  190.4270  172.4340  142.8250 C   0  0  0  0  0  3  0  0  0  0  0  0
  191.6010  174.2010  141.6570 C   0  0  0  0  0  3  0  0  0  0  0  0
  190.9690  175.1540  142.4620 C   0  0  0  0  0  3  0  0  0  0  0  0
  191.8130  177.4910  149.1640 C   0  0  0  0  0  2  0  0  0  0  0  0
  191.1920  178.6600  149.6020 O   0  0  0  0  0  1  0  0  0  0  0  0
  1 13  2  0  0  0  0
  1 19  1  0  0  0  0
  2 10  1  0  0  0  0
  2 14  1  0  0  0  0
  3 19  1  0  0  0  0
  4 12  1  0  0  0  0
  4 11  2  0  0  0  0
  5 11  1  0  0  0  0
  6  2  2  0  0  0  0
  8  7  2  0  0  0  0
  9 14  2  0  0  0  0
  9  7  1  0  0  0  0
 10  1  1  0  0  0  0
 11  8  1  0  0  0  0
 12  9  1  0  0  0  0
 13 18  1  0  0  0  0
 14  3  1  0  0  0  0
 15 17  1  0  0  0  0
 16  6  1  0  0  0  0
 16 12  2  0  0  0  0
 17 26  1  0  0  0  0
 18 17  2  0  0  0  0
 19 15  2  0  0  0  0
 20 23  1  0  0  0  0
 21 22  1  0  0  0  0
 21 10  1  0  0  0  0
 23 22  2  0  0  0  0
 24 20  2  0  0  0  0
 24 25  1  0  0  0  0
 25 21  2  0  0  0  0
 26 27  1  0  0  0  0
M  END
>  <MODEL>
2

>  <REMARK>
 VINA RESULT:      -7.4      2.797      5.219
  Name = 
  2 active torsions:
  status: ('A' for Active; 'I' for Inactive)
    1  A    between atoms: C_9  and  N_15
    2  A    between atoms: C_10  and  CA_22
                            x       y       z     vdW  Elec       q    Type
                         _______ _______ _______ _____ _____    ______ ____

>  <TORSDO>
F 2

$$$$
=
 OpenBabel11052418293D

 27 31  0  0  0  0  0  0  0  0999 V2000
  190.2460  174.8840  142.4590 C   0  0  0  0  0  0  0  0  0  0  0  0
  189.1990  176.3110  144.2100 C   0  0  0  0  0  0  0  0  0  0  0  0
  187.9500  175.6440  142.2340 O   0  0  0  0  0  0  0  0  0  0  0  0
  185.8730  178.3990  145.6620 C   0  0  0  0  0  3  0  0  0  0  0  0
  183.6170  179.1190  145.4040 F   0  0  0  0  0  0  0  0  0  0  0  0
  189.2250  176.9860  145.4400 C   0  0  0  0  0  3  0  0  0  0  0  0
  185.6980  177.0710  143.1990 C   0  0  0  0  0  3  0  0  0  0  0  0
  184.5980  177.7760  143.6970 C   0  0  0  0  0  3  0  0  0  0  0  0
  186.8930  177.0280  143.9300 C   0  0  0  0  0  0  0  0  0  0  0  0
  190.3490  175.5810  143.7230 N   0  0  0  0  0  0  0  0  0  0  0  0
  184.6850  178.4390  144.9260 C   0  0  0  0  0  0  0  0  0  0  0  0
  186.9790  177.6970  145.1700 C   0  0  0  0  0  0  0  0  0  0  0  0
  191.3260  174.1730  141.9150 C   0  0  0  0  0  3  0  0  0  0  0  0
  188.0110  176.3290  143.4540 C   0  0  0  0  0  0  0  0  0  0  0  0
  188.9360  174.2710  140.5110 C   0  0  0  0  0  3  0  0  0  0  0  0
  188.1310  177.6570  145.8870 N   0  0  0  0  0  0  0  0  0  0  0  0
  190.0390  173.5750  140.0110 C   0  0  0  0  0  0  0  0  0  0  0  0
  191.2000  173.5380  140.7190 N   0  0  0  0  0  0  0  0  0  0  0  0
  189.0430  174.9320  141.7350 C   0  0  0  0  0  0  0  0  0  0  0  0
  193.9600  175.4890  145.9520 C   0  0  0  0  0  3  0  0  0  0  0  0
  191.5740  175.5490  144.4790 C   0  0  0  0  0  0  0  0  0  0  0  0
  192.5470  176.5420  144.2910 C   0  0  0  0  0  3  0  0  0  0  0  0
  193.7360  176.5110  145.0250 C   0  0  0  0  0  3  0  0  0  0  0  0
  192.9940  174.4970  146.1450 C   0  0  0  0  0  3  0  0  0  0  0  0
  191.8040  174.5260  145.4110 C   0  0  0  0  0  3  0  0  0  0  0  0
  189.9330  172.8450  138.7190 C   0  0  0  0  0  2  0  0  0  0  0  0
  189.8570  171.4740  138.9600 O   0  0  0  0  0  1  0  0  0  0  0  0
  1 10  1  0  0  0  0
  2  6  1  0  0  0  0
  3 14  1  0  0  0  0
  6 16  2  0  0  0  0
  7  8  2  0  0  0  0
  7  9  1  0  0  0  0
  8 11  1  0  0  0  0
  9 12  2  0  0  0  0
 10  2  1  0  0  0  0
 10 21  1  0  0  0  0
 11  5  1  0  0  0  0
 11  4  2  0  0  0  0
 12  4  1  0  0  0  0
 12 16  1  0  0  0  0
 13  1  1  0  0  0  0
 14  9  1  0  0  0  0
 14  2  2  0  0  0  0
 15 19  1  0  0  0  0
 17 15  2  0  0  0  0
 17 18  1  0  0  0  0
 18 13  2  0  0  0  0
 19  3  1  0  0  0  0
 19  1  2  0  0  0  0
 20 24  1  0  0  0  0
 21 25  1  0  0  0  0
 22 21  2  0  0  0  0
 22 23  1  0  0  0  0
 23 20  2  0  0  0  0
 25 24  2  0  0  0  0
 26 27  1  0  0  0  0
 26 17  1  0  0  0  0
M  END
>  <MODEL>
3

>  <REMARK>
 VINA RESULT:      -7.4      1.210      1.642
  Name = 
  2 active torsions:
  status: ('A' for Active; 'I' for Inactive)
    1  A    between atoms: C_9  and  N_15
    2  A    between atoms: C_10  and  CA_22
                            x       y       z     vdW  Elec       q    Type
                         _______ _______ _______ _____ _____    ______ ____

>  <TORSDO>
F 2

$$$$
=
 OpenBabel11052418293D

 27 31  0  0  0  0  0  0  0  0999 V2000
  187.5950  176.4480  143.9000 C   0  0  0  0  0  0  0  0  0  0  0  0
  189.3200  174.9480  142.9140 C   0  0  0  0  0  0  0  0  0  0  0  0
  187.4110  175.6850  141.6020 O   0  0  0  0  0  0  0  0  0  0  0  0
  190.7900  172.7880  139.6430 C   0  0  0  0  0  3  0  0  0  0  0  0
  190.5740  172.0660  137.3830 F   0  0  0  0  0  0  0  0  0  0  0  0
  190.5220  174.2260  142.9800 C   0  0  0  0  0  3  0  0  0  0  0  0
  188.3880  174.2090  139.3870 C   0  0  0  0  0  3  0  0  0  0  0  0
  188.8920  173.4800  138.3050 C   0  0  0  0  0  3  0  0  0  0  0  0
  189.0830  174.2300  140.6040 C   0  0  0  0  0  0  0  0  0  0  0  0
  188.8270  175.7030  144.0450 N   0  0  0  0  0  0  0  0  0  0  0  0
  190.0910  172.7700  138.4330 C   0  0  0  0  0  0  0  0  0  0  0  0
  190.2930  173.5140  140.7300 C   0  0  0  0  0  0  0  0  0  0  0  0
  187.0470  177.1850  144.9600 C   0  0  0  0  0  3  0  0  0  0  0  0
  188.6010  174.9530  141.7030 C   0  0  0  0  0  0  0  0  0  0  0  0
  185.7130  177.1290  142.5290 C   0  0  0  0  0  3  0  0  0  0  0  0
  190.9760  173.5320  141.9030 N   0  0  0  0  0  0  0  0  0  0  0  0
  185.2070  177.8500  143.6130 C   0  0  0  0  0  0  0  0  0  0  0  0
  185.8800  177.8650  144.7950 N   0  0  0  0  0  0  0  0  0  0  0  0
  186.9070  176.4220  142.6760 C   0  0  0  0  0  0  0  0  0  0  0  0
  190.9460  175.7280  147.7230 C   0  0  0  0  0  3  0  0  0  0  0  0
  189.5460  175.7120  145.2930 C   0  0  0  0  0  0  0  0  0  0  0  0
  189.1820  174.8350  146.3250 C   0  0  0  0  0  3  0  0  0  0  0  0
  189.8800  174.8430  147.5360 C   0  0  0  0  0  3  0  0  0  0  0  0
  191.3150  176.6040  146.6980 C   0  0  0  0  0  3  0  0  0  0  0  0
  190.6170  176.5960  145.4850 C   0  0  0  0  0  3  0  0  0  0  0  0
  183.9490  178.6280  143.4640 C   0  0  0  0  0  2  0  0  0  0  0  0
  183.3000  178.2520  142.2890 O   0  0  0  0  0  1  0  0  0  0  0  0
  1 10  1  0  0  0  0
  1 13  1  0  0  0  0
  2  6  1  0  0  0  0
  2 10  1  0  0  0  0
  3 14  1  0  0  0  0
  3 19  1  0  0  0  0
  4 12  1  0  0  0  0
  5 11  1  0  0  0  0
  7  9  1  0  0  0  0
  8 11  1  0  0  0  0
  8  7  2  0  0  0  0
  9 12  2  0  0  0  0
  9 14  1  0  0  0  0
 10 21  1  0  0  0  0
 11  4  2  0  0  0  0
 12 16  1  0  0  0  0
 14  2  2  0  0  0  0
 15 19  1  0  0  0  0
 15 17  2  0  0  0  0
 16  6  2  0  0  0  0
 17 18  1  0  0  0  0
 18 13  2  0  0  0  0
 19  1  2  0  0  0  0
 21 25  2  0  0  0  0
 21 22  1  0  0  0  0
 22 23  2  0  0  0  0
 23 20  1  0  0  0  0
 24 20  2  0  0  0  0
 25 24  1  0  0  0  0
 26 17  1  0  0  0  0
 27 26  1  0  0  0  0
M  END
>  <MODEL>
4

>  <REMARK>
 VINA RESULT:      -7.3      3.386      6.407
  Name = 
  2 active torsions:
  status: ('A' for Active; 'I' for Inactive)
    1  A    between atoms: C_9  and  N_15
    2  A    between atoms: C_10  and  CA_22
                            x       y       z     vdW  Elec       q    Type
                         _______ _______ _______ _____ _____    ______ ____

>  <TORSDO>
F 2

$$$$
=
 OpenBabel11052418293D

 27 31  0  0  0  0  0  0  0  0999 V2000
  187.3490  177.3200  143.3110 C   0  0  0  0  0  0  0  0  0  0  0  0
  188.8880  177.0300  145.2470 C   0  0  0  0  0  0  0  0  0  0  0  0
  189.6550  176.6370  142.9740 O   0  0  0  0  0  0  0  0  0  0  0  0
  192.6890  176.1050  146.7370 C   0  0  0  0  0  3  0  0  0  0  0  0
  194.9450  175.4380  146.3620 F   0  0  0  0  0  0  0  0  0  0  0  0
  189.1800  177.0800  146.6190 C   0  0  0  0  0  3  0  0  0  0  0  0
  192.2270  175.9900  143.9750 C   0  0  0  0  0  3  0  0  0  0  0  0
  193.4900  175.6810  144.4900 C   0  0  0  0  0  3  0  0  0  0  0  0
  191.1870  176.3570  144.8400 C   0  0  0  0  0  0  0  0  0  0  0  0
  187.5750  177.3650  144.7390 N   0  0  0  0  0  0  0  0  0  0  0  0
  193.7200  175.7380  145.8690 C   0  0  0  0  0  0  0  0  0  0  0  0
  191.4230  176.4140  146.2300 C   0  0  0  0  0  0  0  0  0  0  0  0
  186.0960  177.6120  142.7500 C   0  0  0  0  0  3  0  0  0  0  0  0
  189.9120  176.6720  144.3500 C   0  0  0  0  0  0  0  0  0  0  0  0
  188.1880  176.8960  141.0750 C   0  0  0  0  0  3  0  0  0  0  0  0
  190.4220  176.7740  147.0750 N   0  0  0  0  0  0  0  0  0  0  0  0
  186.9240  177.1970  140.5630 C   0  0  0  0  0  0  0  0  0  0  0  0
  185.9140  177.5480  141.4040 N   0  0  0  0  0  0  0  0  0  0  0  0
  188.3980  176.9520  142.4520 C   0  0  0  0  0  0  0  0  0  0  0  0
  184.4420  178.4520  147.3880 C   0  0  0  0  0  3  0  0  0  0  0  0
  186.5120  177.7340  145.6380 C   0  0  0  0  0  0  0  0  0  0  0  0
  185.5450  176.7910  146.0160 C   0  0  0  0  0  3  0  0  0  0  0  0
  184.5140  177.1490  146.8880 C   0  0  0  0  0  3  0  0  0  0  0  0
  185.4020  179.3980  147.0160 C   0  0  0  0  0  3  0  0  0  0  0  0
  186.4350  179.0400  146.1440 C   0  0  0  0  0  3  0  0  0  0  0  0
  186.6910  177.1660  139.0940 C   0  0  0  0  0  2  0  0  0  0  0  0
  187.0730  175.9260  138.5850 O   0  0  0  0  0  1  0  0  0  0  0  0
  1 10  1  0  0  0  0
  2  6  1  0  0  0  0
  3 14  1  0  0  0  0
  6 16  2  0  0  0  0
  7  8  2  0  0  0  0
  7  9  1  0  0  0  0
  8 11  1  0  0  0  0
  9 12  2  0  0  0  0
 10  2  1  0  0  0  0
 10 21  1  0  0  0  0
 11  5  1  0  0  0  0
 11  4  2  0  0  0  0
 12  4  1  0  0  0  0
 12 16  1  0  0  0  0
 13  1  1  0  0  0  0
 14  9  1  0  0  0  0
 14  2  2  0  0  0  0
 15 19  1  0  0  0  0
 17 15  2  0  0  0  0
 17 18  1  0  0  0  0
 18 13  2  0  0  0  0
 19  3  1  0  0  0  0
 19  1  2  0  0  0  0
 21 22  2  0  0  0  0
 21 25  1  0  0  0  0
 22 23  1  0  0  0  0
 23 20  2  0  0  0  0
 24 20  1  0  0  0  0
 25 24  2  0  0  0  0
 26 17  1  0  0  0  0
 27 26  1  0  0  0  0
M  END
>  <MODEL>
5

>  <REMARK>
 VINA RESULT:      -7.3      3.088      6.093
  Name = 
  2 active torsions:
  status: ('A' for Active; 'I' for Inactive)
    1  A    between atoms: C_9  and  N_15
    2  A    between atoms: C_10  and  CA_22
                            x       y       z     vdW  Elec       q    Type
                         _______ _______ _______ _____ _____    ______ ____

>  <TORSDO>
F 2

$$$$
=
 OpenBabel11052418293D

 27 31  0  0  0  0  0  0  0  0999 V2000
  190.9830  175.3510  144.0200 C   0  0  0  0  0  0  0  0  0  0  0  0
  188.6050  175.6000  143.3270 C   0  0  0  0  0  0  0  0  0  0  0  0
  189.5520  177.0090  145.0670 O   0  0  0  0  0  0  0  0  0  0  0  0
  184.9140  177.5400  143.7010 C   0  0  0  0  0  3  0  0  0  0  0  0
  183.5450  179.1820  144.7510 F   0  0  0  0  0  0  0  0  0  0  0  0
  187.5030  175.2610  142.5270 C   0  0  0  0  0  3  0  0  0  0  0  0
  187.0500  178.3160  145.3420 C   0  0  0  0  0  3  0  0  0  0  0  0
  185.8100  178.9520  145.4560 C   0  0  0  0  0  3  0  0  0  0  0  0
  187.2290  177.2870  144.4070 C   0  0  0  0  0  0  0  0  0  0  0  0
  189.8800  174.9330  143.1820 N   0  0  0  0  0  0  0  0  0  0  0  0
  184.7440  178.5640  144.6370 C   0  0  0  0  0  0  0  0  0  0  0  0
  186.1510  176.8990  143.5820 C   0  0  0  0  0  0  0  0  0  0  0  0
  192.2430  174.7360  143.9480 C   0  0  0  0  0  3  0  0  0  0  0  0
  188.4610  176.6340  144.2720 C   0  0  0  0  0  0  0  0  0  0  0  0
  191.8490  176.7880  145.7720 C   0  0  0  0  0  3  0  0  0  0  0  0
  186.3160  175.9060  142.6700 N   0  0  0  0  0  0  0  0  0  0  0  0
  193.0850  176.1470  145.6630 C   0  0  0  0  0  0  0  0  0  0  0  0
  193.2550  175.1450  144.7590 N   0  0  0  0  0  0  0  0  0  0  0  0
  190.7950  176.3840  144.9530 C   0  0  0  0  0  0  0  0  0  0  0  0
  190.3800  171.8070  140.3550 C   0  0  0  0  0  3  0  0  0  0  0  0
  190.0510  173.8730  142.2230 C   0  0  0  0  0  0  0  0  0  0  0  0
  189.8490  172.5370  142.6010 C   0  0  0  0  0  3  0  0  0  0  0  0
  190.0130  171.5080  141.6700 C   0  0  0  0  0  3  0  0  0  0  0  0
  190.5830  173.1360  139.9700 C   0  0  0  0  0  3  0  0  0  0  0  0
  190.4180  174.1670  140.9010 C   0  0  0  0  0  3  0  0  0  0  0  0
  194.2250  176.5820  146.5130 C   0  0  0  0  0  2  0  0  0  0  0  0
  194.9410  177.5840  145.8600 O   0  0  0  0  0  1  0  0  0  0  0  0
  1 19  1  0  0  0  0
  2 14  1  0  0  0  0
  4 11  2  0  0  0  0
  6 16  1  0  0  0  0
  6  2  2  0  0  0  0
  7  8  2  0  0  0  0
  9  7  1  0  0  0  0
 10  2  1  0  0  0  0
 10  1  1  0  0  0  0
 11  5  1  0  0  0  0
 11  8  1  0  0  0  0
 12  4  1  0  0  0  0
 12  9  1  0  0  0  0
 13  1  2  0  0  0  0
 13 18  1  0  0  0  0
 14  9  2  0  0  0  0
 14  3  1  0  0  0  0
 16 12  2  0  0  0  0
 17 15  1  0  0  0  0
 17 26  1  0  0  0  0
 18 17  2  0  0  0  0
 19  3  1  0  0  0  0
 19 15  2  0  0  0  0
 20 23  1  0  0  0  0
 21 22  1  0  0  0  0
 21 10  1  0  0  0  0
 23 22  2  0  0  0  0
 24 20  2  0  0  0  0
 24 25  1  0  0  0  0
 25 21  2  0  0  0  0
 27 26  1  0  0  0  0
M  END
>  <MODEL>
6

>  <REMARK>
 VINA RESULT:      -7.1      2.409      4.901
  Name = 
  2 active torsions:
  status: ('A' for Active; 'I' for Inactive)
    1  A    between atoms: C_9  and  N_15
    2  A    between atoms: C_10  and  CA_22
                            x       y       z     vdW  Elec       q    Type
                         _______ _______ _______ _____ _____    ______ ____

>  <TORSDO>
F 2

$$$$
=
 OpenBabel11052418293D

 27 31  0  0  0  0  0  0  0  0999 V2000
  189.7430  174.7650  142.6220 C   0  0  0  0  0  0  0  0  0  0  0  0
  191.6660  175.7670  143.8460 C   0  0  0  0  0  0  0  0  0  0  0  0
  191.9890  174.6630  141.7050 O   0  0  0  0  0  0  0  0  0  0  0  0
  195.7520  176.6500  144.0600 C   0  0  0  0  0  3  0  0  0  0  0  0
  197.9390  176.5330  143.1220 F   0  0  0  0  0  0  0  0  0  0  0  0
  192.2160  176.4790  144.9240 C   0  0  0  0  0  3  0  0  0  0  0  0
  194.7620  175.2390  141.8500 C   0  0  0  0  0  3  0  0  0  0  0  0
  196.1250  175.5400  141.9380 C   0  0  0  0  0  3  0  0  0  0  0  0
  193.8870  175.6420  142.8670 C   0  0  0  0  0  0  0  0  0  0  0  0
  190.2500  175.4780  143.7750 N   0  0  0  0  0  0  0  0  0  0  0  0
  196.6190  176.2440  143.0410 C   0  0  0  0  0  0  0  0  0  0  0  0
  194.3880  176.3530  143.9790 C   0  0  0  0  0  0  0  0  0  0  0  0
  188.3860  174.4320  142.4950 C   0  0  0  0  0  3  0  0  0  0  0  0
  192.5170  175.3540  142.8030 C   0  0  0  0  0  0  0  0  0  0  0  0
  190.1510  173.6700  140.4960 C   0  0  0  0  0  3  0  0  0  0  0  0
  193.5470  176.7510  144.9680 N   0  0  0  0  0  0  0  0  0  0  0  0
  188.7910  173.3640  140.4130 C   0  0  0  0  0  0  0  0  0  0  0  0
  187.9440  173.7500  141.4050 N   0  0  0  0  0  0  0  0  0  0  0  0
  190.6280  174.3670  141.6060 C   0  0  0  0  0  0  0  0  0  0  0  0
  187.6270  176.6940  146.8820 C   0  0  0  0  0  3  0  0  0  0  0  0
  189.3610  175.8910  144.8300 C   0  0  0  0  0  0  0  0  0  0  0  0
  188.6170  177.0730  144.7060 C   0  0  0  0  0  3  0  0  0  0  0  0
  187.7530  177.4730  145.7290 C   0  0  0  0  0  3  0  0  0  0  0  0
  188.3640  175.5130  147.0120 C   0  0  0  0  0  3  0  0  0  0  0  0
  189.2290  175.1120  145.9890 C   0  0  0  0  0  3  0  0  0  0  0  0
  188.2640  172.6430  139.2240 C   0  0  0  0  0  2  0  0  0  0  0  0
  188.4030  173.4420  138.0910 O   0  0  0  0  0  1  0  0  0  0  0  0
  1 10  1  0  0  0  0
  2  6  1  0  0  0  0
  3 14  1  0  0  0  0
  6 16  2  0  0  0  0
  7  8  2  0  0  0  0
  7  9  1  0  0  0  0
  8 11  1  0  0  0  0
  9 12  2  0  0  0  0
 10  2  1  0  0  0  0
 10 21  1  0  0  0  0
 11  5  1  0  0  0  0
 11  4  2  0  0  0  0
 12  4  1  0  0  0  0
 12 16  1  0  0  0  0
 13  1  1  0  0  0  0
 14  9  1  0  0  0  0
 14  2  2  0  0  0  0
 15 19  1  0  0  0  0
 17 15  2  0  0  0  0
 17 18  1  0  0  0  0
 18 13  2  0  0  0  0
 19  3  1  0  0  0  0
 19  1  2  0  0  0  0
 20 24  1  0  0  0  0
 21 25  1  0  0  0  0
 22 21  2  0  0  0  0
 22 23  1  0  0  0  0
 23 20  2  0  0  0  0
 25 24  2  0  0  0  0
 26 17  1  0  0  0  0
 27 26  1  0  0  0  0
M  END
>  <MODEL>
7

>  <REMARK>
 VINA RESULT:      -7.0      3.462      6.399
  Name = 
  2 active torsions:
  status: ('A' for Active; 'I' for Inactive)
    1  A    between atoms: C_9  and  N_15
    2  A    between atoms: C_10  and  CA_22
                            x       y       z     vdW  Elec       q    Type
                         _______ _______ _______ _____ _____    ______ ____

>  <TORSDO>
F 2

$$$$
=
 OpenBabel11052418293D

 27 31  0  0  0  0  0  0  0  0999 V2000
  189.0900  176.3760  144.2240 C   0  0  0  0  0  0  0  0  0  0  0  0
  190.3710  174.7430  142.8500 C   0  0  0  0  0  0  0  0  0  0  0  0
  188.0730  175.3080  142.2950 O   0  0  0  0  0  0  0  0  0  0  0  0
  190.5700  172.1440  139.5740 C   0  0  0  0  0  3  0  0  0  0  0  0
  189.5370  171.1210  137.6870 F   0  0  0  0  0  0  0  0  0  0  0  0
  191.5380  174.0270  142.5400 C   0  0  0  0  0  3  0  0  0  0  0  0
  188.1920  173.5350  140.0850 C   0  0  0  0  0  3  0  0  0  0  0  0
  188.2740  172.6610  138.9970 C   0  0  0  0  0  3  0  0  0  0  0  0
  189.2980  173.7170  140.9250 C   0  0  0  0  0  0  0  0  0  0  0  0
  190.3160  175.6480  143.9760 N   0  0  0  0  0  0  0  0  0  0  0  0
  189.4610  171.9660  138.7420 C   0  0  0  0  0  0  0  0  0  0  0  0
  190.4960  173.0150  140.6650 C   0  0  0  0  0  0  0  0  0  0  0  0
  188.9570  177.2560  145.3090 C   0  0  0  0  0  3  0  0  0  0  0  0
  189.2430  174.5880  142.0220 C   0  0  0  0  0  0  0  0  0  0  0  0
  186.7970  176.8780  143.6110 C   0  0  0  0  0  3  0  0  0  0  0  0
  191.5750  173.1890  141.4710 N   0  0  0  0  0  0  0  0  0  0  0  0
  186.7130  177.7450  144.7030 C   0  0  0  0  0  0  0  0  0  0  0  0
  187.7870  177.9160  145.5200 N   0  0  0  0  0  0  0  0  0  0  0  0
  187.9860  176.1890  143.3750 C   0  0  0  0  0  0  0  0  0  0  0  0
  193.6800  176.1600  146.5130 C   0  0  0  0  0  3  0  0  0  0  0  0
  191.4570  175.8230  144.8370 C   0  0  0  0  0  0  0  0  0  0  0  0
  191.5700  175.0800  146.0210 C   0  0  0  0  0  3  0  0  0  0  0  0
  192.6780  175.2480  146.8560 C   0  0  0  0  0  3  0  0  0  0  0  0
  193.5750  176.9030  145.3330 C   0  0  0  0  0  3  0  0  0  0  0  0
  192.4670  176.7350  144.4970 C   0  0  0  0  0  3  0  0  0  0  0  0
  185.4600  178.5050  144.9530 C   0  0  0  0  0  2  0  0  0  0  0  0
  185.5640  179.7780  144.3940 O   0  0  0  0  0  1  0  0  0  0  0  0
  1 13  1  0  0  0  0
  2 10  1  0  0  0  0
  3 19  1  0  0  0  0
  4 12  1  0  0  0  0
  5 11  1  0  0  0  0
  6  2  1  0  0  0  0
  7  9  1  0  0  0  0
  8  7  2  0  0  0  0
  9 14  1  0  0  0  0
 10  1  1  0  0  0  0
 10 21  1  0  0  0  0
 11  8  1  0  0  0  0
 11  4  2  0  0  0  0
 12  9  2  0  0  0  0
 12 16  1  0  0  0  0
 13 18  2  0  0  0  0
 14  3  1  0  0  0  0
 14  2  2  0  0  0  0
 15 17  2  0  0  0  0
 16  6  2  0  0  0  0
 17 26  1  0  0  0  0
 17 18  1  0  0  0  0
 19 15  1  0  0  0  0
 19  1  2  0  0  0  0
 20 23  1  0  0  0  0
 21 22  1  0  0  0  0
 22 23  2  0  0  0  0
 24 20  2  0  0  0  0
 25 21  2  0  0  0  0
 25 24  1  0  0  0  0
 27 26  1  0  0  0  0
M  END
>  <MODEL>
8

>  <REMARK>
 VINA RESULT:      -6.7      3.015      6.202
  Name = 
  2 active torsions:
  status: ('A' for Active; 'I' for Inactive)
    1  A    between atoms: C_9  and  N_15
    2  A    between atoms: C_10  and  CA_22
                            x       y       z     vdW  Elec       q    Type
                         _______ _______ _______ _____ _____    ______ ____

>  <TORSDO>
F 2

$$$$
=
 OpenBabel11052418293D

 27 31  0  0  0  0  0  0  0  0999 V2000
  188.0970  175.1420  140.5040 C   0  0  0  0  0  0  0  0  0  0  0  0
  188.2040  175.6360  142.9420 C   0  0  0  0  0  0  0  0  0  0  0  0
  186.8230  176.9770  141.4570 O   0  0  0  0  0  0  0  0  0  0  0  0
  186.9870  177.9350  146.2220 C   0  0  0  0  0  3  0  0  0  0  0  0
  185.7180  179.7420  147.1170 F   0  0  0  0  0  0  0  0  0  0  0  0
  188.6530  175.3680  144.2440 C   0  0  0  0  0  3  0  0  0  0  0  0
  186.0080  178.5520  143.6690 C   0  0  0  0  0  3  0  0  0  0  0  0
  185.6140  179.3120  144.7750 C   0  0  0  0  0  3  0  0  0  0  0  0
  186.8950  177.4800  143.8340 C   0  0  0  0  0  0  0  0  0  0  0  0
  188.6190  174.8280  141.8170 N   0  0  0  0  0  0  0  0  0  0  0  0
  186.1030  179.0040  146.0490 C   0  0  0  0  0  0  0  0  0  0  0  0
  187.3860  177.1710  145.1210 C   0  0  0  0  0  0  0  0  0  0  0  0
  188.4710  174.4140  139.3650 C   0  0  0  0  0  3  0  0  0  0  0  0
  187.3060  176.7020  142.7430 C   0  0  0  0  0  0  0  0  0  0  0  0
  186.7050  176.5340  139.0870 C   0  0  0  0  0  3  0  0  0  0  0  0
  188.2430  176.1310  145.2910 N   0  0  0  0  0  0  0  0  0  0  0  0
  187.1060  175.7790  137.9820 C   0  0  0  0  0  0  0  0  0  0  0  0
  187.9710  174.7420  138.1430 N   0  0  0  0  0  0  0  0  0  0  0  0
  187.2070  176.2170  140.3490 C   0  0  0  0  0  0  0  0  0  0  0  0
  191.3240  171.6000  142.3490 C   0  0  0  0  0  3  0  0  0  0  0  0
  189.5370  173.7320  141.9960 C   0  0  0  0  0  0  0  0  0  0  0  0
  190.9190  173.9400  141.8790 C   0  0  0  0  0  3  0  0  0  0  0  0
  191.8090  172.8780  142.0550 C   0  0  0  0  0  3  0  0  0  0  0  0
  189.9480  171.3860  142.4690 C   0  0  0  0  0  3  0  0  0  0  0  0
  189.0560  172.4480  142.2940 C   0  0  0  0  0  3  0  0  0  0  0  0
  186.5600  176.0900  136.6340 C   0  0  0  0  0  2  0  0  0  0  0  0
  185.1800  175.8920  136.6290 O   0  0  0  0  0  1  0  0  0  0  0  0
  1 10  1  0  0  0  0
  2  6  1  0  0  0  0
  3 14  1  0  0  0  0
  6 16  2  0  0  0  0
  7  9  2  0  0  0  0
  7  8  1  0  0  0  0
  8 11  2  0  0  0  0
  9 12  1  0  0  0  0
 10 21  1  0  0  0  0
 10  2  1  0  0  0  0
 11  4  1  0  0  0  0
 11  5  1  0  0  0  0
 12 16  1  0  0  0  0
 12  4  2  0  0  0  0
 13  1  2  0  0  0  0
 14  2  2  0  0  0  0
 14  9  1  0  0  0  0
 15 19  2  0  0  0  0
 17 18  2  0  0  0  0
 17 15  1  0  0  0  0
 18 13  1  0  0  0  0
 19  1  1  0  0  0  0
 19  3  1  0  0  0  0
 20 24  1  0  0  0  0
 21 25  1  0  0  0  0
 22 21  2  0  0  0  0
 22 23  1  0  0  0  0
 23 20  2  0  0  0  0
 25 24  2  0  0  0  0
 26 17  1  0  0  0  0
 27 26  1  0  0  0  0
M  END
>  <MODEL>
9

>  <REMARK>
 VINA RESULT:      -6.7      2.814      3.802
  Name = 
  2 active torsions:
  status: ('A' for Active; 'I' for Inactive)
    1  A    between atoms: C_9  and  N_15
    2  A    between atoms: C_10  and  CA_22
                            x       y       z     vdW  Elec       q    Type
                         _______ _______ _______ _____ _____    ______ ____

>  <TORSDO>
F 2

$$$$
