=
 OpenBabel11052418553D

 34 40  0  0  1  0  0  0  0  0999 V2000
  193.7820  175.2690  143.6860 C   0  0  0  0  0  0  0  0  0  0  0  0
  193.5400  175.8160  146.0480 C   0  0  0  0  0  0  0  0  0  0  0  0
  191.6120  175.9050  144.5720 C   0  0  0  0  0  0  0  0  0  0  0  0
  189.3050  176.4260  145.4850 C   0  0  1  0  0  3  0  0  0  0  0  0
  195.7180  175.2560  145.1440 C   0  0  0  0  0  3  0  0  0  0  0  0
  194.9130  175.6250  146.2280 C   0  0  0  0  0  3  0  0  0  0  0  0
  191.2980  176.0550  147.0400 C   0  0  0  0  0  2  0  0  0  0  0  0
  192.9780  175.6630  144.7710 C   0  0  0  0  0  0  0  0  0  0  0  0
  195.1530  175.0720  143.8750 C   0  0  0  0  0  3  0  0  0  0  0  0
  191.0530  175.6850  143.2970 C   0  0  0  0  0  0  0  0  0  0  0  0
  193.2240  175.0940  142.4590 N   0  0  0  0  0  0  0  0  0  0  0  0
  192.7210  176.1500  147.1340 O   0  0  0  0  0  0  0  0  0  0  0  0
  188.9450  176.8020  144.0500 C   0  0  0  0  0  2  0  0  0  0  0  0
  189.5670  175.8140  143.0570 C   0  0  2  0  0  3  0  0  0  0  0  0
  190.8190  176.5710  145.6790 C   0  0  1  0  0  3  0  0  0  0  0  0
  191.8930  175.2840  142.2480 C   0  0  0  0  0  3  0  0  0  0  0  0
  189.7400  173.2870  143.2550 C   0  0  0  0  0  0  0  0  0  0  0  0
  190.0370  172.4370  141.7280 S   0  0  0  0  0  0  0  0  0  0  0  0
  187.9150  174.2080  141.9190 C   0  0  1  0  0  3  0  0  0  0  0  0
  188.4270  173.0150  141.1070 C   0  0  1  0  0  3  0  0  0  0  0  0
  188.8310  174.4570  143.1270 C   0  0  2  0  0  3  0  0  0  0  0  0
  188.6010  174.4210  140.5780 C   0  0  0  0  0  2  0  0  0  0  0  0
  189.7480  172.5980  144.3920 C   0  0  0  0  0  2  0  0  0  0  0  0
  188.5310  177.3450  146.4230 C   0  0  0  0  0  2  0  0  0  0  0  0
  187.3370  176.7440  146.8330 O   0  0  0  0  0  0  0  0  0  0  0  0
  186.3970  177.7120  146.7060 N   0  0  0  0  0  2  0  0  0  0  0  0
  185.2380  177.0980  146.0840 C   0  0  0  0  0  2  0  0  0  0  0  0
  184.6810  179.9300  144.4980 O   0  0  0  0  0  1  0  0  0  0  0  0
  185.1170  177.5630  144.6440 C   0  0  1  0  0  3  0  0  0  0  0  0
  185.7030  178.9770  144.5040 C   0  0  1  0  0  3  0  0  0  0  0  0
  185.8410  178.5650  142.2380 C   0  0  0  0  0  2  0  0  0  0  0  0
  185.5050  177.0780  142.4650 C   0  0  0  0  0  2  0  0  0  0  0  0
  185.7950  176.6760  143.7850 O   0  0  0  0  0  0  0  0  0  0  0  0
  186.5160  179.1100  143.3510 O   0  0  0  0  0  0  0  0  0  0  0  0
  1  9  2  0  0  0  0
  1  8  1  0  0  0  0
  2  6  1  0  0  0  0
  2 12  1  0  0  0  0
  3  8  1  0  0  0  0
  3 15  1  0  0  0  0
  4 15  1  0  0  0  0
  4 24  1  1  0  0  0
  5  6  2  0  0  0  0
  7 12  1  0  0  0  0
  8  2  2  0  0  0  0
  9  5  1  0  0  0  0
 10  3  2  0  0  0  0
 11  1  1  0  0  0  0
 13  4  1  0  0  0  0
 14 21  1  0  0  0  0
 14 10  1  0  0  0  0
 14 13  1  1  0  0  0
 15  7  1  1  0  0  0
 16 11  2  0  0  0  0
 16 10  1  0  0  0  0
 17 23  2  0  0  0  0
 18 17  1  0  0  0  0
 19 22  1  6  0  0  0
 19 21  1  0  0  0  0
 20 22  1  6  0  0  0
 20 18  1  0  0  0  0
 20 19  1  0  0  0  0
 21 17  1  6  0  0  0
 24 25  1  0  0  0  0
 26 25  1  0  0  0  0
 27 26  1  0  0  0  0
 29 27  1  1  0  0  0
 30 28  1  6  0  0  0
 30 29  1  0  0  0  0
 31 32  1  0  0  0  0
 31 34  1  0  0  0  0
 32 33  1  0  0  0  0
 33 29  1  0  0  0  0
 34 30  1  0  0  0  0
M  END
>  <MODEL>
1

>  <REMARK>
 VINA RESULT:      -7.8      0.000      0.000
  Name = 
  6 active torsions:
  status: ('A' for Active; 'I' for Inactive)
    1  A    between atoms: C_3  and  C_13
    2  A    between atoms: C_3  and  N_17
    3  A    between atoms: C_5  and  C_18
    4  A    between atoms: N_17  and  O_29
    5  A    between atoms: C_18  and  O_29
    6  A    between atoms: C_23  and  C_28
                            x       y       z     vdW  Elec       q    Type
                         _______ _______ _______ _____ _____    ______ ____

>  <TORSDO>
F 6

$$$$
=
 OpenBabel11052418553D

 34 40  0  0  1  0  0  0  0  0999 V2000
  191.4100  176.3430  146.7670 C   0  0  0  0  0  0  0  0  0  0  0  0
  192.3230  176.9800  144.5990 C   0  0  0  0  0  0  0  0  0  0  0  0
  189.9190  176.8140  144.9080 C   0  0  0  0  0  0  0  0  0  0  0  0
  188.3260  177.4330  143.0340 C   0  0  1  0  0  3  0  0  0  0  0  0
  193.8090  176.4350  146.4350 C   0  0  0  0  0  3  0  0  0  0  0  0
  193.6180  176.8260  145.1040 C   0  0  0  0  0  3  0  0  0  0  0  0
  190.8390  177.8550  142.8380 C   0  0  0  0  0  2  0  0  0  0  0  0
  191.2180  176.7140  145.4220 C   0  0  0  0  0  0  0  0  0  0  0  0
  192.7070  176.1990  147.2670 C   0  0  0  0  0  3  0  0  0  0  0  0
  188.8210  176.6050  145.7660 C   0  0  0  0  0  0  0  0  0  0  0  0
  190.3340  176.1170  147.5650 N   0  0  0  0  0  0  0  0  0  0  0  0
  192.1220  177.4060  143.2800 O   0  0  0  0  0  0  0  0  0  0  0  0
  187.2980  176.5890  143.7820 C   0  0  0  0  0  2  0  0  0  0  0  0
  187.4020  176.8170  145.2940 C   0  0  2  0  0  3  0  0  0  0  0  0
  189.7360  176.9580  143.4100 C   0  0  1  0  0  3  0  0  0  0  0  0
  189.0610  176.2460  147.1000 C   0  0  0  0  0  3  0  0  0  0  0  0
  186.1330  178.2590  146.9570 C   0  0  0  0  0  0  0  0  0  0  0  0
  184.3680  178.2010  146.8020 S   0  0  0  0  0  0  0  0  0  0  0  0
  185.9190  178.7930  144.5840 C   0  0  1  0  0  3  0  0  0  0  0  0
  184.5020  178.9400  145.1440 C   0  0  1  0  0  3  0  0  0  0  0  0
  186.8550  178.2170  145.6580 C   0  0  2  0  0  3  0  0  0  0  0  0
  184.8150  177.8370  144.1580 C   0  0  0  0  0  2  0  0  0  0  0  0
  186.6720  178.9270  147.9730 C   0  0  0  0  0  2  0  0  0  0  0  0
  188.0660  177.2830  141.5400 C   0  0  0  0  0  2  0  0  0  0  0  0
  187.3560  176.1090  141.2750 O   0  0  0  0  0  0  0  0  0  0  0  0
  188.2730  175.2550  140.7580 N   0  0  0  0  0  2  0  0  0  0  0  0
  188.0210  173.9540  141.3510 C   0  0  0  0  0  2  0  0  0  0  0  0
  191.0200  173.0930  140.2970 O   0  0  0  0  0  1  0  0  0  0  0  0
  189.3010  173.4070  141.9580 C   0  0  1  0  0  3  0  0  0  0  0  0
  190.5170  174.0030  141.2300 C   0  0  1  0  0  3  0  0  0  0  0  0
  191.7680  173.3810  143.0670 C   0  0  0  0  0  2  0  0  0  0  0  0
  190.4870  173.0460  143.8540 C   0  0  0  0  0  2  0  0  0  0  0  0
  189.3640  173.7170  143.3300 O   0  0  0  0  0  0  0  0  0  0  0  0
  191.5340  174.4100  142.1280 O   0  0  0  0  0  0  0  0  0  0  0  0
  1  9  1  0  0  0  0
  1 11  1  0  0  0  0
  2  6  2  0  0  0  0
  2  8  1  0  0  0  0
  3  8  1  0  0  0  0
  3 10  2  0  0  0  0
  4 24  1  6  0  0  0
  4 15  1  0  0  0  0
  4 13  1  0  0  0  0
  5  9  2  0  0  0  0
  6  5  1  0  0  0  0
  7 12  1  0  0  0  0
  8  1  2  0  0  0  0
 10 16  1  0  0  0  0
 12  2  1  0  0  0  0
 14 13  1  6  0  0  0
 14 21  1  0  0  0  0
 14 10  1  0  0  0  0
 15  7  1  1  0  0  0
 15  3  1  0  0  0  0
 16 11  2  0  0  0  0
 17 23  2  0  0  0  0
 18 17  1  0  0  0  0
 19 22  1  6  0  0  0
 19 20  1  0  0  0  0
 19 21  1  0  0  0  0
 20 22  1  6  0  0  0
 20 18  1  0  0  0  0
 21 17  1  1  0  0  0
 25 24  1  0  0  0  0
 26 25  1  0  0  0  0
 26 27  1  0  0  0  0
 29 27  1  6  0  0  0
 29 33  1  0  0  0  0
 30 28  1  6  0  0  0
 30 29  1  0  0  0  0
 30 34  1  0  0  0  0
 31 32  1  0  0  0  0
 33 32  1  0  0  0  0
 34 31  1  0  0  0  0
M  END
>  <MODEL>
2

>  <REMARK>
 VINA RESULT:      -7.7      3.091      5.672
  Name = 
  6 active torsions:
  status: ('A' for Active; 'I' for Inactive)
    1  A    between atoms: C_3  and  C_13
    2  A    between atoms: C_3  and  N_17
    3  A    between atoms: C_5  and  C_18
    4  A    between atoms: N_17  and  O_29
    5  A    between atoms: C_18  and  O_29
    6  A    between atoms: C_23  and  C_28
                            x       y       z     vdW  Elec       q    Type
                         _______ _______ _______ _____ _____    ______ ____

>  <TORSDO>
F 6

$$$$
=
 OpenBabel11052418553D

 34 40  0  0  1  0  0  0  0  0999 V2000
  187.0930  177.9520  147.0000 C   0  0  0  0  0  0  0  0  0  0  0  0
  185.2550  177.8930  145.4010 C   0  0  0  0  0  0  0  0  0  0  0  0
  187.5460  177.6290  144.6360 C   0  0  0  0  0  0  0  0  0  0  0  0
  188.0500  177.1510  142.1970 C   0  0  1  0  0  3  0  0  0  0  0  0
  184.8140  178.2910  147.7510 C   0  0  0  0  0  3  0  0  0  0  0  0
  184.3510  178.1410  146.4380 C   0  0  0  0  0  3  0  0  0  0  0  0
  185.6530  177.1600  143.0830 C   0  0  0  0  0  2  0  0  0  0  0  0
  186.6290  177.8240  145.6770 C   0  0  0  0  0  0  0  0  0  0  0  0
  186.1820  178.1910  148.0330 C   0  0  0  0  0  3  0  0  0  0  0  0
  188.9160  177.5000  144.9400 C   0  0  0  0  0  0  0  0  0  0  0  0
  188.4230  177.8540  147.2620 N   0  0  0  0  0  0  0  0  0  0  0  0
  184.7980  177.7050  144.0910 O   0  0  0  0  0  0  0  0  0  0  0  0
  189.4530  177.6680  142.5020 C   0  0  0  0  0  2  0  0  0  0  0  0
  189.9310  177.1700  143.8710 C   0  0  2  0  0  3  0  0  0  0  0  0
  187.0620  177.7520  143.2040 C   0  0  1  0  0  3  0  0  0  0  0  0
  189.3300  177.6260  146.2730 C   0  0  0  0  0  3  0  0  0  0  0  0
  190.5510  175.0480  145.1240 C   0  0  0  0  0  0  0  0  0  0  0  0
  192.2810  174.8580  145.4600 S   0  0  0  0  0  0  0  0  0  0  0  0
  191.4340  175.3420  142.8670 C   0  0  1  0  0  3  0  0  0  0  0  0
  192.6050  174.7720  143.6710 C   0  0  1  0  0  3  0  0  0  0  0  0
  190.2560  175.6600  143.8010 C   0  0  2  0  0  3  0  0  0  0  0  0
  192.6710  176.1850  143.1340 C   0  0  0  0  0  2  0  0  0  0  0  0
  189.6910  174.1720  145.6350 C   0  0  0  0  0  2  0  0  0  0  0  0
  187.7000  177.5460  140.7670 C   0  0  0  0  0  2  0  0  0  0  0  0
  187.4420  176.4130  139.9890 O   0  0  0  0  0  0  0  0  0  0  0  0
  187.8450  175.3670  140.7500 N   0  0  0  0  0  2  0  0  0  0  0  0
  188.2930  174.3290  139.8390 C   0  0  0  0  0  2  0  0  0  0  0  0
  189.9600  171.5440  139.2800 O   0  0  0  0  0  1  0  0  0  0  0  0
  188.6840  173.0890  140.6220 C   0  0  1  0  0  3  0  0  0  0  0  0
  190.0750  172.6100  140.1760 C   0  0  1  0  0  3  0  0  0  0  0  0
  190.1680  171.4240  142.1540 C   0  0  0  0  0  2  0  0  0  0  0  0
  188.9020  172.1370  142.6670 C   0  0  0  0  0  2  0  0  0  0  0  0
  188.6910  173.3630  142.0030 O   0  0  0  0  0  0  0  0  0  0  0  0
  190.8970  172.2530  141.2740 O   0  0  0  0  0  0  0  0  0  0  0  0
  1 11  1  0  0  0  0
  1  9  2  0  0  0  0
  2  8  2  0  0  0  0
  2  6  1  0  0  0  0
  3 10  2  0  0  0  0
  3  8  1  0  0  0  0
  4 24  1  6  0  0  0
  4 13  1  0  0  0  0
  4 15  1  0  0  0  0
  5  9  1  0  0  0  0
  6  5  2  0  0  0  0
  7 12  1  0  0  0  0
  8  1  1  0  0  0  0
 10 16  1  0  0  0  0
 12  2  1  0  0  0  0
 14 13  1  6  0  0  0
 14 10  1  0  0  0  0
 15  7  1  1  0  0  0
 15  3  1  0  0  0  0
 16 11  2  0  0  0  0
 17 18  1  0  0  0  0
 17 23  2  0  0  0  0
 19 22  1  1  0  0  0
 19 20  1  0  0  0  0
 19 21  1  0  0  0  0
 20 22  1  1  0  0  0
 20 18  1  0  0  0  0
 21 14  1  0  0  0  0
 21 17  1  1  0  0  0
 25 26  1  0  0  0  0
 25 24  1  0  0  0  0
 27 26  1  0  0  0  0
 29 27  1  6  0  0  0
 29 33  1  0  0  0  0
 30 28  1  6  0  0  0
 30 29  1  0  0  0  0
 30 34  1  0  0  0  0
 31 32  1  0  0  0  0
 33 32  1  0  0  0  0
 34 31  1  0  0  0  0
M  END
>  <MODEL>
3

>  <REMARK>
 VINA RESULT:      -7.7      2.894      6.766
  Name = 
  6 active torsions:
  status: ('A' for Active; 'I' for Inactive)
    1  A    between atoms: C_3  and  C_13
    2  A    between atoms: C_3  and  N_17
    3  A    between atoms: C_5  and  C_18
    4  A    between atoms: N_17  and  O_29
    5  A    between atoms: C_18  and  O_29
    6  A    between atoms: C_23  and  C_28
                            x       y       z     vdW  Elec       q    Type
                         _______ _______ _______ _____ _____    ______ ____

>  <TORSDO>
F 6

$$$$
=
 OpenBabel11052418553D

 34 40  0  0  1  0  0  0  0  0999 V2000
  191.0970  176.2810  146.7450 C   0  0  0  0  0  0  0  0  0  0  0  0
  192.1040  176.9030  144.6150 C   0  0  0  0  0  0  0  0  0  0  0  0
  189.6860  176.8060  144.8390 C   0  0  0  0  0  0  0  0  0  0  0  0
  188.1790  177.4820  142.9150 C   0  0  1  0  0  3  0  0  0  0  0  0
  193.5080  176.3040  146.4970 C   0  0  0  0  0  3  0  0  0  0  0  0
  193.3750  176.7080  145.1640 C   0  0  0  0  0  3  0  0  0  0  0  0
  190.7080  177.8320  142.8090 C   0  0  0  0  0  2  0  0  0  0  0  0
  190.9640  176.6650  145.3970 C   0  0  0  0  0  0  0  0  0  0  0  0
  192.3710  176.0960  147.2890 C   0  0  0  0  0  3  0  0  0  0  0  0
  188.5540  176.6240  145.6570 C   0  0  0  0  0  0  0  0  0  0  0  0
  189.9870  176.0810  147.5040 N   0  0  0  0  0  0  0  0  0  0  0  0
  191.9620  177.3420  143.2930 O   0  0  0  0  0  0  0  0  0  0  0  0
  187.1010  176.6640  143.6200 C   0  0  0  0  0  2  0  0  0  0  0  0
  187.1590  176.8810  145.1360 C   0  0  2  0  0  3  0  0  0  0  0  0
  189.5600  176.9640  143.3360 C   0  0  1  0  0  3  0  0  0  0  0  0
  188.7360  176.2500  146.9950 C   0  0  0  0  0  3  0  0  0  0  0  0
  185.8890  178.3530  146.7730 C   0  0  0  0  0  0  0  0  0  0  0  0
  184.1280  178.3410  146.5760 S   0  0  0  0  0  0  0  0  0  0  0  0
  185.7450  178.8960  144.3960 C   0  0  1  0  0  3  0  0  0  0  0  0
  184.3200  179.0790  144.9240 C   0  0  1  0  0  3  0  0  0  0  0  0
  186.6400  178.2940  145.4910 C   0  0  2  0  0  3  0  0  0  0  0  0
  184.6260  177.9690  143.9430 C   0  0  0  0  0  2  0  0  0  0  0  0
  186.4220  179.0040  147.8020 C   0  0  0  0  0  2  0  0  0  0  0  0
  187.9670  177.3490  141.4110 C   0  0  0  0  0  2  0  0  0  0  0  0
  187.2880  176.1650  141.1090 O   0  0  0  0  0  0  0  0  0  0  0  0
  188.2240  175.3570  140.5540 N   0  0  0  0  0  2  0  0  0  0  0  0
  188.0980  174.0610  141.1970 C   0  0  0  0  0  2  0  0  0  0  0  0
  189.1100  171.8030  143.3710 O   0  0  0  0  0  1  0  0  0  0  0  0
  189.3770  173.7280  141.9420 C   0  0  1  0  0  3  0  0  0  0  0  0
  189.5100  172.2040  142.0930 C   0  0  1  0  0  3  0  0  0  0  0  0
  191.7530  172.5600  142.4990 C   0  0  0  0  0  2  0  0  0  0  0  0
  191.6180  174.0360  142.0790 C   0  0  0  0  0  2  0  0  0  0  0  0
  190.4930  174.2400  141.2530 O   0  0  0  0  0  0  0  0  0  0  0  0
  190.8220  171.7480  141.8150 O   0  0  0  0  0  0  0  0  0  0  0  0
  1  9  1  0  0  0  0
  1 11  1  0  0  0  0
  2  6  2  0  0  0  0
  2  8  1  0  0  0  0
  3  8  1  0  0  0  0
  3 10  2  0  0  0  0
  4 24  1  6  0  0  0
  4 15  1  0  0  0  0
  4 13  1  0  0  0  0
  5  9  2  0  0  0  0
  6  5  1  0  0  0  0
  7 12  1  0  0  0  0
  8  1  2  0  0  0  0
 10 16  1  0  0  0  0
 12  2  1  0  0  0  0
 14 13  1  6  0  0  0
 14 21  1  0  0  0  0
 14 10  1  0  0  0  0
 15  7  1  1  0  0  0
 15  3  1  0  0  0  0
 16 11  2  0  0  0  0
 17 23  2  0  0  0  0
 18 17  1  0  0  0  0
 19 22  1  6  0  0  0
 19 20  1  0  0  0  0
 19 21  1  0  0  0  0
 20 22  1  6  0  0  0
 20 18  1  0  0  0  0
 21 17  1  1  0  0  0
 25 24  1  0  0  0  0
 26 25  1  0  0  0  0
 26 27  1  0  0  0  0
 29 27  1  6  0  0  0
 29 30  1  0  0  0  0
 30 28  1  1  0  0  0
 32 31  1  0  0  0  0
 33 29  1  0  0  0  0
 33 32  1  0  0  0  0
 34 30  1  0  0  0  0
 34 31  1  0  0  0  0
M  END
>  <MODEL>
4

>  <REMARK>
 VINA RESULT:      -7.7      3.175      5.844
  Name = 
  6 active torsions:
  status: ('A' for Active; 'I' for Inactive)
    1  A    between atoms: C_3  and  C_13
    2  A    between atoms: C_3  and  N_17
    3  A    between atoms: C_5  and  C_18
    4  A    between atoms: N_17  and  O_29
    5  A    between atoms: C_18  and  O_29
    6  A    between atoms: C_23  and  C_28
                            x       y       z     vdW  Elec       q    Type
                         _______ _______ _______ _____ _____    ______ ____

>  <TORSDO>
F 6

$$$$
=
 OpenBabel11052418553D

 34 40  0  0  1  0  0  0  0  0999 V2000
  188.7450  174.7980  141.2610 C   0  0  0  0  0  0  0  0  0  0  0  0
  189.6900  172.9600  142.5530 C   0  0  0  0  0  0  0  0  0  0  0  0
  189.0100  175.0100  143.6660 C   0  0  0  0  0  0  0  0  0  0  0  0
  189.1400  175.2180  146.1900 C   0  0  1  0  0  3  0  0  0  0  0  0
  189.4950  172.7820  140.1440 C   0  0  0  0  0  3  0  0  0  0  0  0
  189.8750  172.2320  141.3740 C   0  0  0  0  0  3  0  0  0  0  0  0
  189.5830  172.9930  145.0140 C   0  0  0  0  0  2  0  0  0  0  0  0
  189.1490  174.2540  142.4950 C   0  0  0  0  0  0  0  0  0  0  0  0
  188.9260  174.0610  140.0870 C   0  0  0  0  0  3  0  0  0  0  0  0
  188.4070  176.2820  143.5960 C   0  0  0  0  0  0  0  0  0  0  0  0
  188.1950  176.0400  141.2180 N   0  0  0  0  0  0  0  0  0  0  0  0
  190.0330  172.4040  143.7910 O   0  0  0  0  0  0  0  0  0  0  0  0
  189.1170  176.7260  145.9540 C   0  0  0  0  0  2  0  0  0  0  0  0
  188.1250  177.0880  144.8430 C   0  0  2  0  0  3  0  0  0  0  0  0
  189.6800  174.5210  144.9350 C   0  0  1  0  0  3  0  0  0  0  0  0
  188.0130  176.7790  142.3460 C   0  0  0  0  0  3  0  0  0  0  0  0
  185.7190  177.9010  144.7810 C   0  0  0  0  0  0  0  0  0  0  0  0
  185.3630  179.2630  145.8600 S   0  0  0  0  0  0  0  0  0  0  0  0
  186.5620  176.9840  146.8810 C   0  0  1  0  0  3  0  0  0  0  0  0
  185.7430  178.2090  147.2940 C   0  0  1  0  0  3  0  0  0  0  0  0
  186.6750  176.9150  145.3500 C   0  0  2  0  0  3  0  0  0  0  0  0
  187.2430  178.2000  147.4900 C   0  0  0  0  0  2  0  0  0  0  0  0
  184.7800  177.4790  143.9400 C   0  0  0  0  0  2  0  0  0  0  0  0
  190.0190  174.9420  147.4040 C   0  0  0  0  0  2  0  0  0  0  0  0
  190.9670  175.9550  147.5710 O   0  0  0  0  0  0  0  0  0  0  0  0
  192.1530  175.3790  147.2560 N   0  0  0  0  0  2  0  0  0  0  0  0
  193.0000  176.4250  146.7120 C   0  0  0  0  0  2  0  0  0  0  0  0
  194.8480  174.3450  144.9500 O   0  0  0  0  0  1  0  0  0  0  0  0
  193.2800  176.1520  145.2450 C   0  0  1  0  0  3  0  0  0  0  0  0
  193.4860  174.6440  145.0270 C   0  0  1  0  0  3  0  0  0  0  0  0
  193.0640  175.0330  142.7910 C   0  0  0  0  0  2  0  0  0  0  0  0
  192.6100  176.4710  143.1040 C   0  0  0  0  0  2  0  0  0  0  0  0
  192.2120  176.6100  144.4500 O   0  0  0  0  0  0  0  0  0  0  0  0
  192.8050  174.1690  143.8790 O   0  0  0  0  0  0  0  0  0  0  0  0
  1  8  1  0  0  0  0
  2 12  1  0  0  0  0
  3 15  1  0  0  0  0
  4 24  1  1  0  0  0
  5  6  1  0  0  0  0
  6  2  2  0  0  0  0
  8  2  1  0  0  0  0
  8  3  2  0  0  0  0
  9  5  2  0  0  0  0
  9  1  1  0  0  0  0
 10  3  1  0  0  0  0
 10 14  1  0  0  0  0
 11  1  2  0  0  0  0
 11 16  1  0  0  0  0
 12  7  1  0  0  0  0
 13  4  1  0  0  0  0
 14 21  1  0  0  0  0
 14 13  1  1  0  0  0
 15  7  1  1  0  0  0
 15  4  1  0  0  0  0
 16 10  2  0  0  0  0
 17 18  1  0  0  0  0
 18 20  1  0  0  0  0
 19 20  1  0  0  0  0
 19 22  1  1  0  0  0
 20 22  1  1  0  0  0
 21 17  1  6  0  0  0
 21 19  1  0  0  0  0
 23 17  2  0  0  0  0
 24 25  1  0  0  0  0
 26 25  1  0  0  0  0
 27 26  1  0  0  0  0
 29 27  1  1  0  0  0
 30 28  1  6  0  0  0
 30 29  1  0  0  0  0
 31 32  1  0  0  0  0
 31 34  1  0  0  0  0
 32 33  1  0  0  0  0
 33 29  1  0  0  0  0
 34 30  1  0  0  0  0
M  END
>  <MODEL>
5

>  <REMARK>
 VINA RESULT:      -7.2      3.237      6.394
  Name = 
  6 active torsions:
  status: ('A' for Active; 'I' for Inactive)
    1  A    between atoms: C_3  and  C_13
    2  A    between atoms: C_3  and  N_17
    3  A    between atoms: C_5  and  C_18
    4  A    between atoms: N_17  and  O_29
    5  A    between atoms: C_18  and  O_29
    6  A    between atoms: C_23  and  C_28
                            x       y       z     vdW  Elec       q    Type
                         _______ _______ _______ _____ _____    ______ ____

>  <TORSDO>
F 6

$$$$
=
 OpenBabel11052418553D

 34 40  0  0  1  0  0  0  0  0999 V2000
  191.0330  172.5320  140.7160 C   0  0  0  0  0  0  0  0  0  0  0  0
  188.7730  173.3930  141.0120 C   0  0  0  0  0  0  0  0  0  0  0  0
  190.4770  173.8410  142.6850 C   0  0  0  0  0  0  0  0  0  0  0  0
  189.9740  175.3190  144.6820 C   0  0  1  0  0  3  0  0  0  0  0  0
  189.3120  172.0220  139.0870 C   0  0  0  0  0  3  0  0  0  0  0  0
  188.3820  172.7620  139.8270 C   0  0  0  0  0  3  0  0  0  0  0  0
  188.3000  175.0520  142.7710 C   0  0  0  0  0  2  0  0  0  0  0  0
  190.0920  173.2560  141.4710 C   0  0  0  0  0  0  0  0  0  0  0  0
  190.6370  171.9110  139.5270 C   0  0  0  0  0  3  0  0  0  0  0  0
  191.8210  173.7470  143.0970 C   0  0  0  0  0  0  0  0  0  0  0  0
  192.3160  172.4300  141.1520 N   0  0  0  0  0  0  0  0  0  0  0  0
  187.8590  174.1650  141.7390 O   0  0  0  0  0  0  0  0  0  0  0  0
  191.1730  174.6440  145.3420 C   0  0  0  0  0  2  0  0  0  0  0  0
  192.3150  174.4590  144.3350 C   0  0  2  0  0  3  0  0  0  0  0  0
  189.4030  174.3900  143.6030 C   0  0  1  0  0  3  0  0  0  0  0  0
  192.7240  173.0220  142.3080 C   0  0  0  0  0  3  0  0  0  0  0  0
  194.1940  175.7220  143.1820 C   0  0  0  0  0  0  0  0  0  0  0  0
  195.7050  175.8180  144.1040 S   0  0  0  0  0  0  0  0  0  0  0  0
  193.3290  176.6240  145.2800 C   0  0  1  0  0  3  0  0  0  0  0  0
  194.8470  176.7880  145.3830 C   0  0  1  0  0  3  0  0  0  0  0  0
  192.9690  175.8230  144.0180 C   0  0  2  0  0  3  0  0  0  0  0  0
  194.1260  175.8270  146.3020 C   0  0  0  0  0  2  0  0  0  0  0  0
  194.1640  176.1850  141.9360 C   0  0  0  0  0  2  0  0  0  0  0  0
  188.9430  175.6170  145.7650 C   0  0  0  0  0  2  0  0  0  0  0  0
  189.0860  176.9250  146.2390 O   0  0  0  0  0  0  0  0  0  0  0  0
  188.0160  177.5930  145.7440 N   0  0  0  0  0  2  0  0  0  0  0  0
  186.8420  176.7930  146.0430 C   0  0  0  0  0  2  0  0  0  0  0  0
  184.0500  178.4120  146.7030 O   0  0  0  0  0  1  0  0  0  0  0  0
  185.6480  177.3180  145.2660 C   0  0  1  0  0  3  0  0  0  0  0  0
  185.1620  178.6380  145.8870 C   0  0  1  0  0  3  0  0  0  0  0  0
  184.0810  179.0400  143.8880 C   0  0  0  0  0  2  0  0  0  0  0  0
  184.8060  177.8500  143.2310 C   0  0  0  0  0  2  0  0  0  0  0  0
  185.9930  177.5210  143.9160 O   0  0  0  0  0  0  0  0  0  0  0  0
  184.8710  179.6180  144.9060 O   0  0  0  0  0  0  0  0  0  0  0  0
  1 11  2  0  0  0  0
  1  8  1  0  0  0  0
  2  8  1  0  0  0  0
  2 12  1  0  0  0  0
  3 10  1  0  0  0  0
  3 15  1  0  0  0  0
  4 13  1  0  0  0  0
  4 24  1  1  0  0  0
  5  9  2  0  0  0  0
  5  6  1  0  0  0  0
  6  2  2  0  0  0  0
  8  3  2  0  0  0  0
  9  1  1  0  0  0  0
 10 14  1  0  0  0  0
 11 16  1  0  0  0  0
 12  7  1  0  0  0  0
 14 13  1  1  0  0  0
 15  7  1  6  0  0  0
 15  4  1  0  0  0  0
 16 10  2  0  0  0  0
 17 18  1  0  0  0  0
 18 20  1  0  0  0  0
 19 20  1  0  0  0  0
 19 22  1  1  0  0  0
 20 22  1  1  0  0  0
 21 17  1  1  0  0  0
 21 14  1  0  0  0  0
 21 19  1  0  0  0  0
 23 17  2  0  0  0  0
 24 25  1  0  0  0  0
 26 27  1  0  0  0  0
 26 25  1  0  0  0  0
 29 30  1  0  0  0  0
 29 27  1  1  0  0  0
 30 28  1  6  0  0  0
 31 34  1  0  0  0  0
 32 31  1  0  0  0  0
 32 33  1  0  0  0  0
 33 29  1  0  0  0  0
 34 30  1  0  0  0  0
M  END
>  <MODEL>
6

>  <REMARK>
 VINA RESULT:      -6.8      2.130      4.965
  Name = 
  6 active torsions:
  status: ('A' for Active; 'I' for Inactive)
    1  A    between atoms: C_3  and  C_13
    2  A    between atoms: C_3  and  N_17
    3  A    between atoms: C_5  and  C_18
    4  A    between atoms: N_17  and  O_29
    5  A    between atoms: C_18  and  O_29
    6  A    between atoms: C_23  and  C_28
                            x       y       z     vdW  Elec       q    Type
                         _______ _______ _______ _____ _____    ______ ____

>  <TORSDO>
F 6

$$$$
=
 OpenBabel11052418553D

 34 40  0  0  1  0  0  0  0  0999 V2000
  194.7960  174.5970  142.7480 C   0  0  0  0  0  0  0  0  0  0  0  0
  195.0260  175.0950  145.1220 C   0  0  0  0  0  0  0  0  0  0  0  0
  192.8700  175.3390  144.0270 C   0  0  0  0  0  0  0  0  0  0  0  0
  190.8070  175.9760  145.3570 C   0  0  1  0  0  3  0  0  0  0  0  0
  196.9610  174.4290  143.8240 C   0  0  0  0  0  3  0  0  0  0  0  0
  196.3940  174.8180  145.0440 C   0  0  0  0  0  3  0  0  0  0  0  0
  193.0230  175.4440  146.5130 C   0  0  0  0  0  2  0  0  0  0  0  0
  194.2310  175.0110  143.9690 C   0  0  0  0  0  0  0  0  0  0  0  0
  196.1630  174.3130  142.6790 C   0  0  0  0  0  3  0  0  0  0  0  0
  192.0750  175.1870  142.8740 C   0  0  0  0  0  0  0  0  0  0  0  0
  194.0130  174.4880  141.6420 N   0  0  0  0  0  0  0  0  0  0  0  0
  194.4430  175.4500  146.3450 O   0  0  0  0  0  0  0  0  0  0  0  0
  190.2160  176.4100  144.0190 C   0  0  0  0  0  2  0  0  0  0  0  0
  190.5810  175.4130  142.9140 C   0  0  2  0  0  3  0  0  0  0  0  0
  192.3380  176.0240  145.2710 C   0  0  1  0  0  3  0  0  0  0  0  0
  192.6810  174.7640  141.6830 C   0  0  0  0  0  3  0  0  0  0  0  0
  190.5850  172.8730  142.8500 C   0  0  0  0  0  0  0  0  0  0  0  0
  190.3380  172.1660  141.2440 S   0  0  0  0  0  0  0  0  0  0  0  0
  188.5310  174.0300  142.2120 C   0  0  1  0  0  3  0  0  0  0  0  0
  188.6720  172.8970  141.1920 C   0  0  1  0  0  3  0  0  0  0  0  0
  189.7840  174.1010  143.0990 C   0  0  2  0  0  3  0  0  0  0  0  0
  188.8020  174.3370  140.7460 C   0  0  0  0  0  2  0  0  0  0  0  0
  190.8730  172.0730  143.8730 C   0  0  0  0  0  2  0  0  0  0  0  0
  190.2790  176.9150  146.4350 C   0  0  0  0  0  2  0  0  0  0  0  0
  189.0790  176.4330  146.9680 O   0  0  0  0  0  0  0  0  0  0  0  0
  188.2260  177.4850  146.9130 N   0  0  0  0  0  2  0  0  0  0  0  0
  186.8950  176.9390  146.7140 C   0  0  0  0  0  2  0  0  0  0  0  0
  184.0720  178.4420  145.9260 O   0  0  0  0  0  1  0  0  0  0  0  0
  186.2670  177.5510  145.4750 C   0  0  1  0  0  3  0  0  0  0  0  0
  185.4270  178.7770  145.8690 C   0  0  1  0  0  3  0  0  0  0  0  0
  185.5570  179.4250  143.6570 C   0  0  0  0  0  2  0  0  0  0  0  0
  186.6070  178.3340  143.3760 C   0  0  0  0  0  2  0  0  0  0  0  0
  187.2650  177.9280  144.5550 O   0  0  0  0  0  0  0  0  0  0  0  0
  185.6340  179.8730  144.9950 O   0  0  0  0  0  0  0  0  0  0  0  0
  1  8  1  0  0  0  0
  2 12  1  0  0  0  0
  3 15  1  0  0  0  0
  4 24  1  1  0  0  0
  5  6  2  0  0  0  0
  6  2  1  0  0  0  0
  8  3  1  0  0  0  0
  8  2  2  0  0  0  0
  9  1  2  0  0  0  0
  9  5  1  0  0  0  0
 10 14  1  0  0  0  0
 10  3  2  0  0  0  0
 11 16  2  0  0  0  0
 11  1  1  0  0  0  0
 12  7  1  0  0  0  0
 13  4  1  0  0  0  0
 14 21  1  0  0  0  0
 14 13  1  1  0  0  0
 15  4  1  0  0  0  0
 15  7  1  1  0  0  0
 16 10  1  0  0  0  0
 17 23  2  0  0  0  0
 18 17  1  0  0  0  0
 19 22  1  6  0  0  0
 19 21  1  0  0  0  0
 20 22  1  6  0  0  0
 20 18  1  0  0  0  0
 20 19  1  0  0  0  0
 21 17  1  6  0  0  0
 24 25  1  0  0  0  0
 26 25  1  0  0  0  0
 27 26  1  0  0  0  0
 29 30  1  0  0  0  0
 29 27  1  1  0  0  0
 30 28  1  6  0  0  0
 31 34  1  0  0  0  0
 32 31  1  0  0  0  0
 32 33  1  0  0  0  0
 33 29  1  0  0  0  0
 34 30  1  0  0  0  0
M  END
>  <MODEL>
7

>  <REMARK>
 VINA RESULT:      -6.8      1.248      1.569
  Name = 
  6 active torsions:
  status: ('A' for Active; 'I' for Inactive)
    1  A    between atoms: C_3  and  C_13
    2  A    between atoms: C_3  and  N_17
    3  A    between atoms: C_5  and  C_18
    4  A    between atoms: N_17  and  O_29
    5  A    between atoms: C_18  and  O_29
    6  A    between atoms: C_23  and  C_28
                            x       y       z     vdW  Elec       q    Type
                         _______ _______ _______ _____ _____    ______ ____

>  <TORSDO>
F 6

$$$$
=
 OpenBabel11052418553D

 34 40  0  0  1  0  0  0  0  0999 V2000
  192.1820  171.7600  143.3270 C   0  0  0  0  0  0  0  0  0  0  0  0
  189.9220  172.2200  142.5380 C   0  0  0  0  0  0  0  0  0  0  0  0
  190.8940  173.5710  144.3090 C   0  0  0  0  0  0  0  0  0  0  0  0
  189.6360  175.5560  145.2610 C   0  0  1  0  0  3  0  0  0  0  0  0
  191.1820  170.3660  141.6150 C   0  0  0  0  0  3  0  0  0  0  0  0
  190.0130  171.1340  141.6620 C   0  0  0  0  0  3  0  0  0  0  0  0
  188.7690  174.2870  143.2200 C   0  0  0  0  0  2  0  0  0  0  0  0
  190.9970  172.5180  143.3900 C   0  0  0  0  0  0  0  0  0  0  0  0
  192.2680  170.6810  142.4430 C   0  0  0  0  0  3  0  0  0  0  0  0
  192.0060  173.8950  145.1110 C   0  0  0  0  0  0  0  0  0  0  0  0
  193.2280  172.0750  144.1350 N   0  0  0  0  0  0  0  0  0  0  0  0
  188.7710  173.0160  142.5650 O   0  0  0  0  0  0  0  0  0  0  0  0
  190.5560  175.4150  146.4710 C   0  0  0  0  0  2  0  0  0  0  0  0
  191.9880  175.0940  146.0310 C   0  0  2  0  0  3  0  0  0  0  0  0
  189.5360  174.2040  144.5440 C   0  0  1  0  0  3  0  0  0  0  0  0
  193.1670  173.1170  145.0080 C   0  0  0  0  0  3  0  0  0  0  0  0
  192.9540  176.1860  143.9500 C   0  0  0  0  0  0  0  0  0  0  0  0
  194.6510  175.7940  143.6200 S   0  0  0  0  0  0  0  0  0  0  0  0
  193.9310  176.7750  146.1090 C   0  0  1  0  0  3  0  0  0  0  0  0
  195.1300  176.6200  145.1700 C   0  0  1  0  0  3  0  0  0  0  0  0
  192.6410  176.3430  145.3950 C   0  0  2  0  0  3  0  0  0  0  0  0
  194.9280  175.6440  146.3080 C   0  0  0  0  0  2  0  0  0  0  0  0
  192.2690  176.8990  143.0610 C   0  0  0  0  0  2  0  0  0  0  0  0
  188.2740  176.0300  145.7540 C   0  0  0  0  0  2  0  0  0  0  0  0
  187.9710  177.2930  145.2380 O   0  0  0  0  0  0  0  0  0  0  0  0
  186.8860  177.0980  144.4510 N   0  0  0  0  0  2  0  0  0  0  0  0
  186.4720  178.4040  143.9700 C   0  0  0  0  0  2  0  0  0  0  0  0
  188.7490  178.3120  141.5920 O   0  0  0  0  0  1  0  0  0  0  0  0
  186.4990  178.4280  142.4520 C   0  0  1  0  0  3  0  0  0  0  0  0
  187.6410  177.5350  141.9390 C   0  0  1  0  0  3  0  0  0  0  0  0
  186.5500  177.5170  139.9050 C   0  0  0  0  0  2  0  0  0  0  0  0
  185.3120  178.1820  140.5380 C   0  0  0  0  0  2  0  0  0  0  0  0
  185.2700  177.9800  141.9330 O   0  0  0  0  0  0  0  0  0  0  0  0
  187.2400  176.7240  140.8490 O   0  0  0  0  0  0  0  0  0  0  0  0
  1  8  2  0  0  0  0
  1 11  1  0  0  0  0
  2 12  1  0  0  0  0
  2  8  1  0  0  0  0
  3 15  1  0  0  0  0
  3 10  2  0  0  0  0
  4 24  1  1  0  0  0
  4 13  1  0  0  0  0
  5  6  1  0  0  0  0
  5  9  2  0  0  0  0
  6  2  2  0  0  0  0
  8  3  1  0  0  0  0
  9  1  1  0  0  0  0
 10 14  1  0  0  0  0
 11 16  2  0  0  0  0
 12  7  1  0  0  0  0
 14 13  1  6  0  0  0
 15  7  1  6  0  0  0
 15  4  1  0  0  0  0
 16 10  1  0  0  0  0
 18 17  1  0  0  0  0
 18 20  1  0  0  0  0
 19 22  1  1  0  0  0
 20 19  1  0  0  0  0
 20 22  1  1  0  0  0
 21 17  1  6  0  0  0
 21 14  1  0  0  0  0
 21 19  1  0  0  0  0
 23 17  2  0  0  0  0
 25 24  1  0  0  0  0
 26 25  1  0  0  0  0
 27 26  1  0  0  0  0
 29 27  1  1  0  0  0
 30 28  1  6  0  0  0
 30 29  1  0  0  0  0
 31 32  1  0  0  0  0
 31 34  1  0  0  0  0
 32 33  1  0  0  0  0
 33 29  1  0  0  0  0
 34 30  1  0  0  0  0
M  END
>  <MODEL>
8

>  <REMARK>
 VINA RESULT:      -6.8      2.403      4.778
  Name = 
  6 active torsions:
  status: ('A' for Active; 'I' for Inactive)
    1  A    between atoms: C_3  and  C_13
    2  A    between atoms: C_3  and  N_17
    3  A    between atoms: C_5  and  C_18
    4  A    between atoms: N_17  and  O_29
    5  A    between atoms: C_18  and  O_29
    6  A    between atoms: C_23  and  C_28
                            x       y       z     vdW  Elec       q    Type
                         _______ _______ _______ _____ _____    ______ ____

>  <TORSDO>
F 6

$$$$
=
 OpenBabel11052418553D

 34 40  0  0  1  0  0  0  0  0999 V2000
  190.7770  171.4360  142.2210 C   0  0  0  0  0  0  0  0  0  0  0  0
  189.6600  172.2150  140.2000 C   0  0  0  0  0  0  0  0  0  0  0  0
  189.5380  173.5250  142.2430 C   0  0  0  0  0  0  0  0  0  0  0  0
  188.3740  175.7770  142.2700 C   0  0  1  0  0  3  0  0  0  0  0  0
  190.8330  170.0940  140.2040 C   0  0  0  0  0  3  0  0  0  0  0  0
  190.0710  171.0580  139.5330 C   0  0  0  0  0  3  0  0  0  0  0  0
  188.7600  174.5060  140.0880 C   0  0  0  0  0  2  0  0  0  0  0  0
  189.9910  172.3930  141.5520 C   0  0  0  0  0  0  0  0  0  0  0  0
  191.1910  170.2850  141.5440 C   0  0  0  0  0  3  0  0  0  0  0  0
  189.9330  173.7170  143.5820 C   0  0  0  0  0  0  0  0  0  0  0  0
  191.1180  171.6310  143.5220 N   0  0  0  0  0  0  0  0  0  0  0  0
  188.9290  173.2010  139.5270 O   0  0  0  0  0  0  0  0  0  0  0  0
  188.2780  175.5840  143.7810 C   0  0  0  0  0  2  0  0  0  0  0  0
  189.5730  174.9770  144.3350 C   0  0  2  0  0  3  0  0  0  0  0  0
  188.4900  174.4060  141.5930 C   0  0  1  0  0  3  0  0  0  0  0  0
  190.7240  172.7410  144.2040 C   0  0  0  0  0  3  0  0  0  0  0  0
  192.0270  175.4810  143.9150 C   0  0  0  0  0  0  0  0  0  0  0  0
  193.1040  175.1390  145.2810 S   0  0  0  0  0  0  0  0  0  0  0  0
  190.8820  176.7490  145.6590 C   0  0  1  0  0  3  0  0  0  0  0  0
  192.2510  176.4160  146.2570 C   0  0  1  0  0  3  0  0  0  0  0  0
  190.7040  176.0300  144.3120 C   0  0  2  0  0  3  0  0  0  0  0  0
  190.9990  175.8040  146.8450 C   0  0  0  0  0  2  0  0  0  0  0  0
  192.5540  175.8480  142.7500 C   0  0  0  0  0  2  0  0  0  0  0  0
  187.1290  176.5250  141.8090 C   0  0  0  0  0  2  0  0  0  0  0  0
  187.3010  177.9060  141.9440 O   0  0  0  0  0  0  0  0  0  0  0  0
  186.0450  178.4130  141.9770 N   0  0  0  0  0  2  0  0  0  0  0  0
  185.2560  177.5320  142.8210 C   0  0  0  0  0  2  0  0  0  0  0  0
  185.0160  180.2680  144.6390 O   0  0  0  0  0  1  0  0  0  0  0  0
  185.4300  177.9200  144.2780 C   0  0  1  0  0  3  0  0  0  0  0  0
  184.4110  179.0080  144.6520 C   0  0  1  0  0  3  0  0  0  0  0  0
  184.7900  178.4370  146.8550 C   0  0  0  0  0  2  0  0  0  0  0  0
  185.5910  177.1950  146.4190 C   0  0  0  0  0  2  0  0  0  0  0  0
  185.2580  176.7960  145.1080 O   0  0  0  0  0  0  0  0  0  0  0  0
  183.7980  178.7620  145.9050 O   0  0  0  0  0  0  0  0  0  0  0  0
  1 11  1  0  0  0  0
  2  8  1  0  0  0  0
  3 10  2  0  0  0  0
  4 24  1  6  0  0  0
  4 13  1  0  0  0  0
  5  9  2  0  0  0  0
  6  2  2  0  0  0  0
  6  5  1  0  0  0  0
  8  1  2  0  0  0  0
  8  3  1  0  0  0  0
  9  1  1  0  0  0  0
 10 16  1  0  0  0  0
 10 14  1  0  0  0  0
 11 16  2  0  0  0  0
 12  7  1  0  0  0  0
 12  2  1  0  0  0  0
 14 13  1  6  0  0  0
 15  7  1  6  0  0  0
 15  3  1  0  0  0  0
 15  4  1  0  0  0  0
 17 18  1  0  0  0  0
 18 20  1  0  0  0  0
 19 20  1  0  0  0  0
 19 22  1  1  0  0  0
 20 22  1  1  0  0  0
 21 17  1  1  0  0  0
 21 14  1  0  0  0  0
 21 19  1  0  0  0  0
 23 17  2  0  0  0  0
 24 25  1  0  0  0  0
 25 26  1  0  0  0  0
 26 27  1  0  0  0  0
 29 27  1  6  0  0  0
 29 30  1  0  0  0  0
 29 33  1  0  0  0  0
 30 28  1  1  0  0  0
 30 34  1  0  0  0  0
 32 31  1  0  0  0  0
 33 32  1  0  0  0  0
 34 31  1  0  0  0  0
M  END
>  <MODEL>
9

>  <REMARK>
 VINA RESULT:      -6.8      2.467      5.127
  Name = 
  6 active torsions:
  status: ('A' for Active; 'I' for Inactive)
    1  A    between atoms: C_3  and  C_13
    2  A    between atoms: C_3  and  N_17
    3  A    between atoms: C_5  and  C_18
    4  A    between atoms: N_17  and  O_29
    5  A    between atoms: C_18  and  O_29
    6  A    between atoms: C_23  and  C_28
                            x       y       z     vdW  Elec       q    Type
                         _______ _______ _______ _____ _____    ______ ____

>  <TORSDO>
F 6

$$$$
