=
 OpenBabel11052418313D

 27 31  0  0  0  0  0  0  0  0999 V2000
  190.6780  175.9770  142.8820 N   0  0  0  0  0  0  0  0  0  0  0  0
  188.3120  176.0490  143.5570 C   0  0  0  0  0  0  0  0  0  0  0  0
  189.6520  176.1740  145.6510 N   0  0  0  0  0  0  0  0  0  0  0  0
  184.9940  177.6070  145.5190 C   0  0  0  0  0  3  0  0  0  0  0  0
  183.9620  178.4230  147.5060 F   0  0  0  0  0  0  0  0  0  0  0  0
  187.1260  176.2760  142.9240 N   0  0  0  0  0  0  0  0  0  0  0  0
  186.2360  177.7170  147.5950 C   0  0  0  0  0  3  0  0  0  0  0  0
  194.0670  176.4750  147.1080 F   0  0  0  0  0  0  0  0  0  0  0  0
  187.3640  177.1990  146.9510 C   0  0  0  0  0  3  0  0  0  0  0  0
  193.1880  176.4260  146.0790 C   0  0  0  0  0  0  0  0  0  0  0  0
  187.3150  176.8790  145.5860 C   0  0  0  0  0  0  0  0  0  0  0  0
  189.3850  175.4340  142.8370 N   0  0  0  0  0  0  0  0  0  0  0  0
  185.0530  177.9200  146.8800 C   0  0  0  0  0  0  0  0  0  0  0  0
  186.1190  177.0880  144.8730 C   0  0  0  0  0  0  0  0  0  0  0  0
  191.3660  176.2830  143.9410 C   0  0  0  0  0  0  0  0  0  0  0  0
  188.4380  176.3690  144.9120 C   0  0  0  0  0  0  0  0  0  0  0  0
  191.8370  176.1920  146.3250 C   0  0  0  0  0  3  0  0  0  0  0  0
  186.0670  176.7830  143.5550 N   0  0  0  0  0  0  0  0  0  0  0  0
  193.6230  176.6610  144.7780 C   0  0  0  0  0  3  0  0  0  0  0  0
  192.7170  176.5800  143.7230 C   0  0  0  0  0  3  0  0  0  0  0  0
  190.9000  176.1570  145.2830 C   0  0  0  0  0  0  0  0  0  0  0  0
  188.6450  172.5150  139.8820 N   0  0  0  0  0  0  0  0  0  0  0  0
  189.1110  174.4300  141.8370 C   0  0  0  0  0  0  0  0  0  0  0  0
  189.3190  173.0680  142.1050 C   0  0  0  0  0  3  0  0  0  0  0  0
  189.0750  172.1200  141.1090 C   0  0  0  0  0  3  0  0  0  0  0  0
  188.4460  173.8280  139.5880 C   0  0  0  0  0  3  0  0  0  0  0  0
  188.6790  174.8060  140.5570 C   0  0  0  0  0  3  0  0  0  0  0  0
  1 15  2  0  0  0  0
  2 16  1  0  0  0  0
  4 13  2  0  0  0  0
  6 18  1  0  0  0  0
  6  2  2  0  0  0  0
  9  7  2  0  0  0  0
 10 17  2  0  0  0  0
 10  8  1  0  0  0  0
 11  9  1  0  0  0  0
 12  1  1  0  0  0  0
 12  2  1  0  0  0  0
 13  5  1  0  0  0  0
 13  7  1  0  0  0  0
 14  4  1  0  0  0  0
 14 11  1  0  0  0  0
 15 21  1  0  0  0  0
 16 11  2  0  0  0  0
 16  3  1  0  0  0  0
 18 14  2  0  0  0  0
 19 10  1  0  0  0  0
 20 15  1  0  0  0  0
 20 19  2  0  0  0  0
 21  3  2  0  0  0  0
 21 17  1  0  0  0  0
 22 25  1  0  0  0  0
 23 24  1  0  0  0  0
 23 12  1  0  0  0  0
 25 24  2  0  0  0  0
 26 22  2  0  0  0  0
 26 27  1  0  0  0  0
 27 23  2  0  0  0  0
M  END
>  <MODEL>
1

>  <REMARK>
 VINA RESULT:      -8.3      0.000      0.000
  Name = 
  1 active torsions:
  status: ('A' for Active; 'I' for Inactive)
    1  A    between atoms: C_9  and  N_15
                            x       y       z     vdW  Elec       q    Type
                         _______ _______ _______ _____ _____    ______ ____

>  <TORSDO>
F 1

$$$$
=
 OpenBabel11052418313D

 27 31  0  0  0  0  0  0  0  0999 V2000
  190.1620  174.0950  143.6310 N   0  0  0  0  0  0  0  0  0  0  0  0
  189.0350  175.8540  144.9330 C   0  0  0  0  0  0  0  0  0  0  0  0
  188.0290  175.9010  142.6570 N   0  0  0  0  0  0  0  0  0  0  0  0
  185.7570  177.8840  146.4860 C   0  0  0  0  0  3  0  0  0  0  0  0
  183.6460  178.9470  146.1760 F   0  0  0  0  0  0  0  0  0  0  0  0
  188.9270  176.1680  146.2550 N   0  0  0  0  0  0  0  0  0  0  0  0
  184.7460  177.9940  144.2880 C   0  0  0  0  0  3  0  0  0  0  0  0
  188.1400  173.6050  138.6040 F   0  0  0  0  0  0  0  0  0  0  0  0
  185.8370  177.3070  143.7480 C   0  0  0  0  0  3  0  0  0  0  0  0
  188.5650  173.7130  139.8860 C   0  0  0  0  0  0  0  0  0  0  0  0
  186.8990  176.9050  144.5730 C   0  0  0  0  0  0  0  0  0  0  0  0
  190.2300  175.2280  144.4560 N   0  0  0  0  0  0  0  0  0  0  0  0
  184.7060  178.2820  145.6560 C   0  0  0  0  0  0  0  0  0  0  0  0
  186.8490  177.1990  145.9500 C   0  0  0  0  0  0  0  0  0  0  0  0
  189.4760  173.9610  142.5350 C   0  0  0  0  0  0  0  0  0  0  0  0
  188.0020  176.2030  144.0590 C   0  0  0  0  0  0  0  0  0  0  0  0
  188.2100  174.8250  140.6470 C   0  0  0  0  0  3  0  0  0  0  0  0
  187.8700  176.8120  146.7500 N   0  0  0  0  0  0  0  0  0  0  0  0
  189.3110  172.6900  140.4630 C   0  0  0  0  0  3  0  0  0  0  0  0
  189.7680  172.8230  141.7720 C   0  0  0  0  0  3  0  0  0  0  0  0
  188.6160  174.9550  141.9830 C   0  0  0  0  0  0  0  0  0  0  0  0
  194.0010  176.1580  146.1040 N   0  0  0  0  0  0  0  0  0  0  0  0
  191.5090  175.5630  145.0340 C   0  0  0  0  0  0  0  0  0  0  0  0
  192.2100  176.7080  144.6230 C   0  0  0  0  0  3  0  0  0  0  0  0
  193.4600  176.9920  145.1770 C   0  0  0  0  0  3  0  0  0  0  0  0
  193.3520  175.0350  146.5140 C   0  0  0  0  0  3  0  0  0  0  0  0
  192.1000  174.7170  145.9840 C   0  0  0  0  0  3  0  0  0  0  0  0
  1 12  1  0  0  0  0
  2  6  1  0  0  0  0
  3 16  1  0  0  0  0
  6 18  2  0  0  0  0
  7 13  1  0  0  0  0
  8 10  1  0  0  0  0
  9  7  2  0  0  0  0
  9 11  1  0  0  0  0
 10 19  1  0  0  0  0
 10 17  2  0  0  0  0
 11 14  2  0  0  0  0
 12  2  1  0  0  0  0
 12 23  1  0  0  0  0
 13  5  1  0  0  0  0
 13  4  2  0  0  0  0
 14  4  1  0  0  0  0
 14 18  1  0  0  0  0
 15  1  2  0  0  0  0
 16 11  1  0  0  0  0
 16  2  2  0  0  0  0
 17 21  1  0  0  0  0
 19 20  2  0  0  0  0
 20 15  1  0  0  0  0
 21 15  1  0  0  0  0
 21  3  2  0  0  0  0
 22 26  1  0  0  0  0
 23 27  1  0  0  0  0
 24 23  2  0  0  0  0
 24 25  1  0  0  0  0
 25 22  2  0  0  0  0
 27 26  2  0  0  0  0
M  END
>  <MODEL>
2

>  <REMARK>
 VINA RESULT:      -8.3      2.475      5.175
  Name = 
  1 active torsions:
  status: ('A' for Active; 'I' for Inactive)
    1  A    between atoms: C_9  and  N_15
                            x       y       z     vdW  Elec       q    Type
                         _______ _______ _______ _____ _____    ______ ____

>  <TORSDO>
F 1

$$$$
=
 OpenBabel11052418313D

 27 31  0  0  0  0  0  0  0  0999 V2000
  190.9860  175.5550  143.8330 N   0  0  0  0  0  0  0  0  0  0  0  0
  188.6670  175.8260  143.0540 C   0  0  0  0  0  0  0  0  0  0  0  0
  188.6570  176.3100  145.4950 N   0  0  0  0  0  0  0  0  0  0  0  0
  185.0550  177.8280  142.5830 C   0  0  0  0  0  3  0  0  0  0  0  0
  183.2260  179.0410  143.5150 F   0  0  0  0  0  0  0  0  0  0  0  0
  188.0580  175.9620  141.8420 N   0  0  0  0  0  0  0  0  0  0  0  0
  184.9720  178.2970  144.9580 C   0  0  0  0  0  3  0  0  0  0  0  0
  191.5660  176.7540  149.1080 F   0  0  0  0  0  0  0  0  0  0  0  0
  186.1880  177.6330  145.1350 C   0  0  0  0  0  3  0  0  0  0  0  0
  191.3900  176.5340  147.7830 C   0  0  0  0  0  0  0  0  0  0  0  0
  186.8480  177.0580  144.0380 C   0  0  0  0  0  0  0  0  0  0  0  0
  189.8670  175.0530  143.1530 N   0  0  0  0  0  0  0  0  0  0  0  0
  184.4050  178.3950  143.6830 C   0  0  0  0  0  0  0  0  0  0  0  0
  186.2700  177.1620  142.7580 C   0  0  0  0  0  0  0  0  0  0  0  0
  191.0220  176.0380  145.0390 C   0  0  0  0  0  0  0  0  0  0  0  0
  188.0780  176.3960  144.1860 C   0  0  0  0  0  0  0  0  0  0  0  0
  190.1050  176.3920  147.2630 C   0  0  0  0  0  3  0  0  0  0  0  0
  186.9030  176.6110  141.6950 N   0  0  0  0  0  0  0  0  0  0  0  0
  192.4880  176.5030  146.9290 C   0  0  0  0  0  3  0  0  0  0  0  0
  192.3000  176.2470  145.5720 C   0  0  0  0  0  3  0  0  0  0  0  0
  189.8900  176.1850  145.8940 C   0  0  0  0  0  0  0  0  0  0  0  0
  190.4710  171.6280  140.7630 N   0  0  0  0  0  0  0  0  0  0  0  0
  190.0510  173.8840  142.3260 C   0  0  0  0  0  0  0  0  0  0  0  0
  189.4710  172.6540  142.6740 C   0  0  0  0  0  3  0  0  0  0  0  0
  189.6910  171.5320  141.8720 C   0  0  0  0  0  3  0  0  0  0  0  0
  191.0560  172.8030  140.4060 C   0  0  0  0  0  3  0  0  0  0  0  0
  190.8600  173.9470  141.1820 C   0  0  0  0  0  3  0  0  0  0  0  0
  1 15  2  0  0  0  0
  2 12  1  0  0  0  0
  2 16  1  0  0  0  0
  3 21  2  0  0  0  0
  4 14  1  0  0  0  0
  4 13  2  0  0  0  0
  5 13  1  0  0  0  0
  6  2  2  0  0  0  0
  7  9  2  0  0  0  0
 10  8  1  0  0  0  0
 11 16  2  0  0  0  0
 11  9  1  0  0  0  0
 12  1  1  0  0  0  0
 13  7  1  0  0  0  0
 14 11  1  0  0  0  0
 15 20  1  0  0  0  0
 15 21  1  0  0  0  0
 16  3  1  0  0  0  0
 17 10  2  0  0  0  0
 18  6  1  0  0  0  0
 18 14  2  0  0  0  0
 19 10  1  0  0  0  0
 20 19  2  0  0  0  0
 21 17  1  0  0  0  0
 22 25  1  0  0  0  0
 23 24  1  0  0  0  0
 23 12  1  0  0  0  0
 25 24  2  0  0  0  0
 26 22  2  0  0  0  0
 26 27  1  0  0  0  0
 27 23  2  0  0  0  0
M  END
>  <MODEL>
3

>  <REMARK>
 VINA RESULT:      -8.0      1.793      2.132
  Name = 
  1 active torsions:
  status: ('A' for Active; 'I' for Inactive)
    1  A    between atoms: C_9  and  N_15
                            x       y       z     vdW  Elec       q    Type
                         _______ _______ _______ _____ _____    ______ ____

>  <TORSDO>
F 1

$$$$
=
 OpenBabel11052418313D

 27 31  0  0  0  0  0  0  0  0999 V2000
  188.8960  176.5430  145.7950 N   0  0  0  0  0  0  0  0  0  0  0  0
  188.4930  175.8560  143.4660 C   0  0  0  0  0  0  0  0  0  0  0  0
  190.9630  175.9290  143.7680 N   0  0  0  0  0  0  0  0  0  0  0  0
  188.9160  173.4200  140.1240 C   0  0  0  0  0  3  0  0  0  0  0  0
  190.3070  172.2540  138.5770 F   0  0  0  0  0  0  0  0  0  0  0  0
  187.4250  175.3890  142.7600 N   0  0  0  0  0  0  0  0  0  0  0  0
  191.3270  173.4850  140.3450 C   0  0  0  0  0  3  0  0  0  0  0  0
  194.1860  176.6180  147.0610 F   0  0  0  0  0  0  0  0  0  0  0  0
  191.2050  174.3000  141.4740 C   0  0  0  0  0  3  0  0  0  0  0  0
  192.8780  176.5170  146.7240 C   0  0  0  0  0  0  0  0  0  0  0  0
  189.9370  174.6840  141.9360 C   0  0  0  0  0  0  0  0  0  0  0  0
  188.2740  176.7570  144.5550 N   0  0  0  0  0  0  0  0  0  0  0  0
  190.1850  173.0450  139.6700 C   0  0  0  0  0  0  0  0  0  0  0  0
  188.7910  174.2360  141.2510 C   0  0  0  0  0  0  0  0  0  0  0  0
  190.1610  176.3470  146.0160 C   0  0  0  0  0  0  0  0  0  0  0  0
  189.7850  175.4920  143.0750 C   0  0  0  0  0  0  0  0  0  0  0  0
  192.5090  176.4000  145.3850 C   0  0  0  0  0  3  0  0  0  0  0  0
  187.5650  174.6020  141.6930 N   0  0  0  0  0  0  0  0  0  0  0  0
  191.9030  176.4760  147.7160 C   0  0  0  0  0  3  0  0  0  0  0  0
  190.5580  176.4010  147.3590 C   0  0  0  0  0  3  0  0  0  0  0  0
  191.1650  176.2720  145.0070 C   0  0  0  0  0  0  0  0  0  0  0  0
  185.1930  179.6360  144.4130 N   0  0  0  0  0  0  0  0  0  0  0  0
  187.2050  177.7250  144.4970 C   0  0  0  0  0  0  0  0  0  0  0  0
  186.8660  178.3560  143.2890 C   0  0  0  0  0  3  0  0  0  0  0  0
  185.8480  179.3110  143.2670 C   0  0  0  0  0  3  0  0  0  0  0  0
  185.5070  179.0510  145.6000 C   0  0  0  0  0  3  0  0  0  0  0  0
  186.5180  178.0910  145.6630 C   0  0  0  0  0  3  0  0  0  0  0  0
  1 15  2  0  0  0  0
  2 12  1  0  0  0  0
  3 21  2  0  0  0  0
  4 14  1  0  0  0  0
  5 13  1  0  0  0  0
  6  2  2  0  0  0  0
  7  9  2  0  0  0  0
  9 11  1  0  0  0  0
 10  8  1  0  0  0  0
 10 19  1  0  0  0  0
 11 16  2  0  0  0  0
 12  1  1  0  0  0  0
 13  4  2  0  0  0  0
 13  7  1  0  0  0  0
 14 18  2  0  0  0  0
 14 11  1  0  0  0  0
 15 20  1  0  0  0  0
 16  2  1  0  0  0  0
 16  3  1  0  0  0  0
 17 10  2  0  0  0  0
 18  6  1  0  0  0  0
 20 19  2  0  0  0  0
 21 17  1  0  0  0  0
 21 15  1  0  0  0  0
 22 26  1  0  0  0  0
 23 12  1  0  0  0  0
 23 27  1  0  0  0  0
 24 23  2  0  0  0  0
 25 24  1  0  0  0  0
 25 22  2  0  0  0  0
 26 27  2  0  0  0  0
M  END
>  <MODEL>
4

>  <REMARK>
 VINA RESULT:      -7.7      2.514      5.849
  Name = 
  1 active torsions:
  status: ('A' for Active; 'I' for Inactive)
    1  A    between atoms: C_9  and  N_15
                            x       y       z     vdW  Elec       q    Type
                         _______ _______ _______ _____ _____    ______ ____

>  <TORSDO>
F 1

$$$$
=
 OpenBabel11052418313D

 27 31  0  0  0  0  0  0  0  0999 V2000
  187.2080  177.5100  142.4610 N   0  0  0  0  0  0  0  0  0  0  0  0
  188.6910  176.9760  144.3520 C   0  0  0  0  0  0  0  0  0  0  0  0
  189.0920  175.2340  142.6200 N   0  0  0  0  0  0  0  0  0  0  0  0
  192.3290  176.0960  146.1620 C   0  0  0  0  0  3  0  0  0  0  0  0
  194.3320  174.8070  146.2590 F   0  0  0  0  0  0  0  0  0  0  0  0
  189.1410  177.6410  145.4540 N   0  0  0  0  0  0  0  0  0  0  0  0
  192.7570  174.3620  144.5260 C   0  0  0  0  0  3  0  0  0  0  0  0
  187.8780  174.1170  138.2630 F   0  0  0  0  0  0  0  0  0  0  0  0
  191.5400  174.6470  143.9010 C   0  0  0  0  0  3  0  0  0  0  0  0
  187.7940  174.9810  139.3030 C   0  0  0  0  0  0  0  0  0  0  0  0
  190.7060  175.6580  144.4020 C   0  0  0  0  0  0  0  0  0  0  0  0
  187.3930  177.2770  143.8330 N   0  0  0  0  0  0  0  0  0  0  0  0
  193.1510  175.0850  145.6560 C   0  0  0  0  0  0  0  0  0  0  0  0
  191.1110  176.3820  145.5400 C   0  0  0  0  0  0  0  0  0  0  0  0
  187.5900  176.7530  141.4770 C   0  0  0  0  0  0  0  0  0  0  0  0
  189.4840  175.9730  143.7850 C   0  0  0  0  0  0  0  0  0  0  0  0
  188.3710  174.6550  140.5290 C   0  0  0  0  0  3  0  0  0  0  0  0
  190.3110  177.3600  146.0260 N   0  0  0  0  0  0  0  0  0  0  0  0
  187.1800  176.2180  139.1350 C   0  0  0  0  0  3  0  0  0  0  0  0
  187.0730  177.0870  140.2180 C   0  0  0  0  0  3  0  0  0  0  0  0
  188.3200  175.5370  141.6170 C   0  0  0  0  0  0  0  0  0  0  0  0
  184.1910  178.2820  146.3910 N   0  0  0  0  0  0  0  0  0  0  0  0
  186.3130  177.6260  144.7260 C   0  0  0  0  0  0  0  0  0  0  0  0
  185.8880  176.7380  145.7270 C   0  0  0  0  0  3  0  0  0  0  0  0
  184.8220  177.0890  146.5570 C   0  0  0  0  0  3  0  0  0  0  0  0
  184.5720  179.1570  145.4220 C   0  0  0  0  0  3  0  0  0  0  0  0
  185.6350  178.8430  144.5720 C   0  0  0  0  0  3  0  0  0  0  0  0
  1 12  1  0  0  0  0
  2  6  1  0  0  0  0
  3 16  1  0  0  0  0
  6 18  2  0  0  0  0
  7 13  2  0  0  0  0
  8 10  1  0  0  0  0
  9 11  2  0  0  0  0
  9  7  1  0  0  0  0
 10 17  2  0  0  0  0
 11 14  1  0  0  0  0
 12  2  1  0  0  0  0
 12 23  1  0  0  0  0
 13  4  1  0  0  0  0
 13  5  1  0  0  0  0
 14 18  1  0  0  0  0
 14  4  2  0  0  0  0
 15 21  1  0  0  0  0
 15  1  2  0  0  0  0
 16  2  2  0  0  0  0
 16 11  1  0  0  0  0
 17 21  1  0  0  0  0
 19 10  1  0  0  0  0
 19 20  2  0  0  0  0
 20 15  1  0  0  0  0
 21  3  2  0  0  0  0
 22 25  1  0  0  0  0
 23 24  1  0  0  0  0
 24 25  2  0  0  0  0
 26 22  2  0  0  0  0
 27 23  2  0  0  0  0
 27 26  1  0  0  0  0
M  END
>  <MODEL>
5

>  <REMARK>
 VINA RESULT:      -7.7      2.650      6.729
  Name = 
  1 active torsions:
  status: ('A' for Active; 'I' for Inactive)
    1  A    between atoms: C_9  and  N_15
                            x       y       z     vdW  Elec       q    Type
                         _______ _______ _______ _____ _____    ______ ____

>  <TORSDO>
F 1

$$$$
=
 OpenBabel11052418313D

 27 31  0  0  0  0  0  0  0  0999 V2000
  188.8890  176.1590  145.7040 N   0  0  0  0  0  0  0  0  0  0  0  0
  188.6500  175.5270  143.3380 C   0  0  0  0  0  0  0  0  0  0  0  0
  191.0840  175.8550  143.7420 N   0  0  0  0  0  0  0  0  0  0  0  0
  189.4590  173.2890  139.9290 C   0  0  0  0  0  3  0  0  0  0  0  0
  191.0250  172.3440  138.3990 F   0  0  0  0  0  0  0  0  0  0  0  0
  187.6650  174.9760  142.5720 N   0  0  0  0  0  0  0  0  0  0  0  0
  191.8390  173.6050  140.2510 C   0  0  0  0  0  3  0  0  0  0  0  0
  194.0890  176.7540  147.1870 F   0  0  0  0  0  0  0  0  0  0  0  0
  191.5870  174.3560  141.4020 C   0  0  0  0  0  3  0  0  0  0  0  0
  192.8140  176.5260  146.7940 C   0  0  0  0  0  0  0  0  0  0  0  0
  190.2680  174.5810  141.8260 C   0  0  0  0  0  0  0  0  0  0  0  0
  188.2940  176.3540  144.4490 N   0  0  0  0  0  0  0  0  0  0  0  0
  190.7770  173.0720  139.5150 C   0  0  0  0  0  0  0  0  0  0  0  0
  189.2040  174.0400  141.0790 C   0  0  0  0  0  0  0  0  0  0  0  0
  190.1600  176.0920  145.9700 C   0  0  0  0  0  0  0  0  0  0  0  0
  189.9870  175.3210  142.9870 C   0  0  0  0  0  0  0  0  0  0  0  0
  192.5090  176.4240  145.4380 C   0  0  0  0  0  3  0  0  0  0  0  0
  187.9300  174.2520  141.4840 N   0  0  0  0  0  0  0  0  0  0  0  0
  191.8130  176.3400  147.7430 C   0  0  0  0  0  3  0  0  0  0  0  0
  190.4990  176.1340  147.3290 C   0  0  0  0  0  3  0  0  0  0  0  0
  191.2020  176.1670  145.0000 C   0  0  0  0  0  0  0  0  0  0  0  0
  184.8640  178.7990  144.1970 N   0  0  0  0  0  0  0  0  0  0  0  0
  187.1280  177.2020  144.3830 C   0  0  0  0  0  0  0  0  0  0  0  0
  186.0290  176.9890  145.2310 C   0  0  0  0  0  3  0  0  0  0  0  0
  184.9020  177.8050  145.1250 C   0  0  0  0  0  3  0  0  0  0  0  0
  185.9070  179.0230  143.3540 C   0  0  0  0  0  3  0  0  0  0  0  0
  187.0520  178.2280  143.4290 C   0  0  0  0  0  3  0  0  0  0  0  0
  1 15  2  0  0  0  0
  2 12  1  0  0  0  0
  3 21  2  0  0  0  0
  4 14  1  0  0  0  0
  5 13  1  0  0  0  0
  6  2  2  0  0  0  0
  7  9  2  0  0  0  0
  9 11  1  0  0  0  0
 10  8  1  0  0  0  0
 10 19  1  0  0  0  0
 11 16  2  0  0  0  0
 12  1  1  0  0  0  0
 13  4  2  0  0  0  0
 13  7  1  0  0  0  0
 14 18  2  0  0  0  0
 14 11  1  0  0  0  0
 15 20  1  0  0  0  0
 16  2  1  0  0  0  0
 16  3  1  0  0  0  0
 17 10  2  0  0  0  0
 18  6  1  0  0  0  0
 20 19  2  0  0  0  0
 21 17  1  0  0  0  0
 21 15  1  0  0  0  0
 22 25  1  0  0  0  0
 23 12  1  0  0  0  0
 23 24  1  0  0  0  0
 25 24  2  0  0  0  0
 26 27  1  0  0  0  0
 26 22  2  0  0  0  0
 27 23  2  0  0  0  0
M  END
>  <MODEL>
6

>  <REMARK>
 VINA RESULT:      -7.6      2.504      5.826
  Name = 
  1 active torsions:
  status: ('A' for Active; 'I' for Inactive)
    1  A    between atoms: C_9  and  N_15
                            x       y       z     vdW  Elec       q    Type
                         _______ _______ _______ _____ _____    ______ ____

>  <TORSDO>
F 1

$$$$
=
 OpenBabel11052418313D

 27 31  0  0  0  0  0  0  0  0999 V2000
  188.4700  175.5650  141.3130 N   0  0  0  0  0  0  0  0  0  0  0  0
  188.5660  176.5670  143.5590 C   0  0  0  0  0  0  0  0  0  0  0  0
  189.2720  174.1930  143.8090 N   0  0  0  0  0  0  0  0  0  0  0  0
  190.3550  177.5410  147.1830 C   0  0  0  0  0  3  0  0  0  0  0  0
  191.5660  176.8930  149.1310 F   0  0  0  0  0  0  0  0  0  0  0  0
  188.5620  177.8340  144.0610 N   0  0  0  0  0  0  0  0  0  0  0  0
  191.0370  175.2390  147.4990 C   0  0  0  0  0  3  0  0  0  0  0  0
  190.1750  170.4000  141.2590 F   0  0  0  0  0  0  0  0  0  0  0  0
  190.4460  174.8930  146.2810 C   0  0  0  0  0  3  0  0  0  0  0  0
  189.8270  171.7080  141.3050 C   0  0  0  0  0  0  0  0  0  0  0  0
  189.8020  175.8680  145.5040 C   0  0  0  0  0  0  0  0  0  0  0  0
  187.8590  176.2900  142.3470 N   0  0  0  0  0  0  0  0  0  0  0  0
  190.9910  176.5610  147.9500 C   0  0  0  0  0  0  0  0  0  0  0  0
  189.7620  177.1980  145.9660 C   0  0  0  0  0  0  0  0  0  0  0  0
  189.0640  174.4130  141.4050 C   0  0  0  0  0  0  0  0  0  0  0  0
  189.2110  175.5500  144.2700 C   0  0  0  0  0  0  0  0  0  0  0  0
  189.5810  172.3220  142.5320 C   0  0  0  0  0  3  0  0  0  0  0  0
  189.1440  178.1430  145.2190 N   0  0  0  0  0  0  0  0  0  0  0  0
  189.7650  172.4560  140.1340 C   0  0  0  0  0  3  0  0  0  0  0  0
  189.3780  173.7930  140.1880 C   0  0  0  0  0  3  0  0  0  0  0  0
  189.2390  173.6790  142.6140 C   0  0  0  0  0  0  0  0  0  0  0  0
  184.2850  178.3690  141.5030 N   0  0  0  0  0  0  0  0  0  0  0  0
  186.6280  176.9820  142.0460 C   0  0  0  0  0  0  0  0  0  0  0  0
  186.4030  177.5380  140.7770 C   0  0  0  0  0  3  0  0  0  0  0  0
  185.2160  178.2290  140.5230 C   0  0  0  0  0  3  0  0  0  0  0  0
  184.4800  177.8520  142.7460 C   0  0  0  0  0  3  0  0  0  0  0  0
  185.6530  177.1550  143.0400 C   0  0  0  0  0  3  0  0  0  0  0  0
  1 15  2  0  0  0  0
  1 12  1  0  0  0  0
  2  6  2  0  0  0  0
  2 16  1  0  0  0  0
  3 16  1  0  0  0  0
  4 13  2  0  0  0  0
  6 18  1  0  0  0  0
  7 13  1  0  0  0  0
  8 10  1  0  0  0  0
  9  7  2  0  0  0  0
 10 17  2  0  0  0  0
 11 14  1  0  0  0  0
 11  9  1  0  0  0  0
 12  2  1  0  0  0  0
 13  5  1  0  0  0  0
 14  4  1  0  0  0  0
 15 21  1  0  0  0  0
 16 11  2  0  0  0  0
 17 21  1  0  0  0  0
 18 14  2  0  0  0  0
 19 20  2  0  0  0  0
 19 10  1  0  0  0  0
 20 15  1  0  0  0  0
 21  3  2  0  0  0  0
 22 26  1  0  0  0  0
 23 12  1  0  0  0  0
 23 27  1  0  0  0  0
 24 23  2  0  0  0  0
 25 24  1  0  0  0  0
 25 22  2  0  0  0  0
 26 27  2  0  0  0  0
M  END
>  <MODEL>
7

>  <REMARK>
 VINA RESULT:      -7.6      2.776      5.260
  Name = 
  1 active torsions:
  status: ('A' for Active; 'I' for Inactive)
    1  A    between atoms: C_9  and  N_15
                            x       y       z     vdW  Elec       q    Type
                         _______ _______ _______ _____ _____    ______ ____

>  <TORSDO>
F 1

$$$$
=
 OpenBabel11052418313D

 27 31  0  0  0  0  0  0  0  0999 V2000
  188.7150  176.1300  142.8290 N   0  0  0  0  0  0  0  0  0  0  0  0
  190.3970  176.0720  144.6250 C   0  0  0  0  0  0  0  0  0  0  0  0
  190.6680  173.9630  143.3300 N   0  0  0  0  0  0  0  0  0  0  0  0
  194.2230  175.6630  146.2000 C   0  0  0  0  0  3  0  0  0  0  0  0
  196.2600  174.4390  146.3930 F   0  0  0  0  0  0  0  0  0  0  0  0
  190.9380  176.9840  145.4820 N   0  0  0  0  0  0  0  0  0  0  0  0
  194.5300  173.5860  144.9940 C   0  0  0  0  0  3  0  0  0  0  0  0
  189.0480  171.8240  139.5210 F   0  0  0  0  0  0  0  0  0  0  0  0
  193.2480  173.7080  144.4490 C   0  0  0  0  0  3  0  0  0  0  0  0
  189.0470  172.9130  140.3260 C   0  0  0  0  0  0  0  0  0  0  0  0
  192.4420  174.8090  144.7780 C   0  0  0  0  0  0  0  0  0  0  0  0
  189.0450  176.2350  144.1890 N   0  0  0  0  0  0  0  0  0  0  0  0
  195.0170  174.5610  145.8680 C   0  0  0  0  0  0  0  0  0  0  0  0
  192.9410  175.7870  145.6590 C   0  0  0  0  0  0  0  0  0  0  0  0
  189.0160  175.1580  142.0210 C   0  0  0  0  0  0  0  0  0  0  0  0
  191.1550  174.9630  144.2360 C   0  0  0  0  0  0  0  0  0  0  0  0
  189.7540  172.8940  141.5270 C   0  0  0  0  0  3  0  0  0  0  0  0
  192.1680  176.8520  145.9780 N   0  0  0  0  0  0  0  0  0  0  0  0
  188.3850  174.0710  139.9320 C   0  0  0  0  0  3  0  0  0  0  0  0
  188.3650  175.1770  140.7800 C   0  0  0  0  0  3  0  0  0  0  0  0
  189.7900  174.0130  142.3710 C   0  0  0  0  0  0  0  0  0  0  0  0
  186.0940  177.8190  146.7550 N   0  0  0  0  0  0  0  0  0  0  0  0
  188.0530  176.7870  145.0800 C   0  0  0  0  0  0  0  0  0  0  0  0
  187.7860  176.1900  146.3230 C   0  0  0  0  0  3  0  0  0  0  0  0
  186.7990  176.7270  147.1520 C   0  0  0  0  0  3  0  0  0  0  0  0
  186.3210  178.4120  145.5520 C   0  0  0  0  0  3  0  0  0  0  0  0
  187.2990  177.9050  144.6940 C   0  0  0  0  0  3  0  0  0  0  0  0
  1 12  1  0  0  0  0
  2  6  1  0  0  0  0
  3 16  1  0  0  0  0
  6 18  2  0  0  0  0
  7 13  2  0  0  0  0
  8 10  1  0  0  0  0
  9 11  2  0  0  0  0
  9  7  1  0  0  0  0
 10 17  2  0  0  0  0
 11 14  1  0  0  0  0
 12  2  1  0  0  0  0
 12 23  1  0  0  0  0
 13  4  1  0  0  0  0
 13  5  1  0  0  0  0
 14 18  1  0  0  0  0
 14  4  2  0  0  0  0
 15 21  1  0  0  0  0
 15  1  2  0  0  0  0
 16  2  2  0  0  0  0
 16 11  1  0  0  0  0
 17 21  1  0  0  0  0
 19 10  1  0  0  0  0
 19 20  2  0  0  0  0
 20 15  1  0  0  0  0
 21  3  2  0  0  0  0
 22 25  1  0  0  0  0
 23 24  1  0  0  0  0
 24 25  2  0  0  0  0
 26 22  2  0  0  0  0
 27 23  2  0  0  0  0
 27 26  1  0  0  0  0
M  END
>  <MODEL>
8

>  <REMARK>
 VINA RESULT:      -7.4      2.765      6.916
  Name = 
  1 active torsions:
  status: ('A' for Active; 'I' for Inactive)
    1  A    between atoms: C_9  and  N_15
                            x       y       z     vdW  Elec       q    Type
                         _______ _______ _______ _____ _____    ______ ____

>  <TORSDO>
F 1

$$$$
=
 OpenBabel11052418313D

 27 31  0  0  0  0  0  0  0  0999 V2000
  187.9800  176.0770  141.9020 N   0  0  0  0  0  0  0  0  0  0  0  0
  189.3230  176.3520  143.9470 C   0  0  0  0  0  0  0  0  0  0  0  0
  189.9570  174.1520  142.9710 N   0  0  0  0  0  0  0  0  0  0  0  0
  192.8340  176.4430  146.1710 C   0  0  0  0  0  3  0  0  0  0  0  0
  194.8840  175.4270  146.8410 F   0  0  0  0  0  0  0  0  0  0  0  0
  189.6430  177.3920  144.7680 N   0  0  0  0  0  0  0  0  0  0  0  0
  193.4860  174.2850  145.2840 C   0  0  0  0  0  3  0  0  0  0  0  0
  189.1760  171.4950  139.2240 F   0  0  0  0  0  0  0  0  0  0  0  0
  192.3140  174.2390  144.5250 C   0  0  0  0  0  3  0  0  0  0  0  0
  188.9610  172.6580  139.8840 C   0  0  0  0  0  0  0  0  0  0  0  0
  191.3900  175.2940  144.5840 C   0  0  0  0  0  0  0  0  0  0  0  0
  188.0600  176.3510  143.2760 N   0  0  0  0  0  0  0  0  0  0  0  0
  193.7460  175.3850  146.1070 C   0  0  0  0  0  0  0  0  0  0  0  0
  191.6610  176.3990  145.4140 C   0  0  0  0  0  0  0  0  0  0  0  0
  188.4820  175.0550  141.2740 C   0  0  0  0  0  0  0  0  0  0  0  0
  190.2110  175.2790  143.8210 C   0  0  0  0  0  0  0  0  0  0  0  0
  189.4470  172.8260  141.1800 C   0  0  0  0  0  3  0  0  0  0  0  0
  190.7740  177.4200  145.4740 N   0  0  0  0  0  0  0  0  0  0  0  0
  188.3010  173.7070  139.2520 C   0  0  0  0  0  3  0  0  0  0  0  0
  188.0580  174.8890  139.9490 C   0  0  0  0  0  3  0  0  0  0  0  0
  189.2590  174.0250  141.8800 C   0  0  0  0  0  0  0  0  0  0  0  0
  184.6070  177.9220  145.1230 N   0  0  0  0  0  0  0  0  0  0  0  0
  186.8920  176.9050  143.9190 C   0  0  0  0  0  0  0  0  0  0  0  0
  186.5880  176.5950  145.2540 C   0  0  0  0  0  3  0  0  0  0  0  0
  185.4350  177.1210  145.8430 C   0  0  0  0  0  3  0  0  0  0  0  0
  184.8680  178.2310  143.8240 C   0  0  0  0  0  3  0  0  0  0  0  0
  186.0110  177.7250  143.2000 C   0  0  0  0  0  3  0  0  0  0  0  0
  1 12  1  0  0  0  0
  2  6  1  0  0  0  0
  3 16  1  0  0  0  0
  6 18  2  0  0  0  0
  7 13  2  0  0  0  0
  8 10  1  0  0  0  0
  9 11  2  0  0  0  0
  9  7  1  0  0  0  0
 10 17  2  0  0  0  0
 11 14  1  0  0  0  0
 12 23  1  0  0  0  0
 12  2  1  0  0  0  0
 13  4  1  0  0  0  0
 13  5  1  0  0  0  0
 14 18  1  0  0  0  0
 14  4  2  0  0  0  0
 15 21  1  0  0  0  0
 15  1  2  0  0  0  0
 16  2  2  0  0  0  0
 16 11  1  0  0  0  0
 17 21  1  0  0  0  0
 19 10  1  0  0  0  0
 19 20  2  0  0  0  0
 20 15  1  0  0  0  0
 21  3  2  0  0  0  0
 22 25  1  0  0  0  0
 23 24  1  0  0  0  0
 24 25  2  0  0  0  0
 26 22  2  0  0  0  0
 27 26  1  0  0  0  0
 27 23  2  0  0  0  0
M  END
>  <MODEL>
9

>  <REMARK>
 VINA RESULT:      -7.4      2.615      6.441
  Name = 
  1 active torsions:
  status: ('A' for Active; 'I' for Inactive)
    1  A    between atoms: C_9  and  N_15
                            x       y       z     vdW  Elec       q    Type
                         _______ _______ _______ _____ _____    ______ ____

>  <TORSDO>
F 1

$$$$
