=
 OpenBabel11052420233D

 34 37  0  0  1  0  0  0  0  0999 V2000
  188.1430  176.5280  143.8880 C   0  0  1  0  0  0  0  0  0  0  0  0
  190.0830  175.6770  147.3280 C   0  0  0  0  0  2  0  0  0  0  0  0
  189.2840  176.9130  146.9400 C   0  0  0  0  0  2  0  0  0  0  0  0
  189.1140  177.3780  143.3200 O   0  0  0  0  0  0  0  0  0  0  0  0
  187.8650  175.4500  143.0450 O   0  0  0  0  0  1  0  0  0  0  0  0
  189.8180  174.5260  146.3690 C   0  0  0  0  0  2  0  0  0  0  0  0
  190.8380  174.5460  145.2310 C   0  0  2  0  0  3  0  0  0  0  0  0
  189.7860  177.5430  145.6450 C   0  0  0  0  0  2  0  0  0  0  0  0
  190.5290  175.5300  144.0830 C   0  0  1  0  0  3  0  0  0  0  0  0
  189.5180  176.6320  144.4480 C   0  0  1  0  0  0  0  0  0  0  0  0
  186.6580  178.5640  144.0210 C   0  0  0  0  0  3  0  0  0  0  0  0
  184.7640  178.6210  145.5280 C   0  0  0  0  0  3  0  0  0  0  0  0
  185.5550  179.2370  144.5520 C   0  0  0  0  0  3  0  0  0  0  0  0
  186.1790  176.6590  145.4370 C   0  0  0  0  0  3  0  0  0  0  0  0
  186.9820  177.2750  144.4710 C   0  0  0  0  0  0  0  0  0  0  0  0
  185.0740  177.3320  145.9690 C   0  0  0  0  0  3  0  0  0  0  0  0
  192.9640  175.2510  143.8530 C   0  0  1  0  0  3  0  0  0  0  0  0
  191.8340  176.1460  143.5770 C   0  0  1  0  0  3  0  0  0  0  0  0
  192.4380  175.2340  142.0870 S   0  0  0  0  0  0  0  0  0  0  0  0
  194.2630  176.0380  144.1110 C   0  0  2  0  0  3  0  0  0  0  0  0
  195.2580  176.1240  142.9450 C   0  0  0  0  0  2  0  0  0  0  0  0
  196.6120  176.6340  143.4120 C   0  0  0  0  0  2  0  0  0  0  0  0
  197.7170  175.7160  142.9270 C   0  0  0  0  0  1  0  0  0  0  0  0
  194.9340  175.5820  145.4050 C   0  0  0  0  0  2  0  0  0  0  0  0
  194.6720  174.1100  145.6960 C   0  0  0  0  0  2  0  0  0  0  0  0
  195.8590  173.2630  145.2680 C   0  0  1  0  0  3  0  0  0  0  0  0
  197.0570  173.5950  146.1440 C   0  0  0  0  0  1  0  0  0  0  0  0
  195.5130  171.7730  145.3170 C   0  0  1  0  0  3  0  0  0  0  0  0
  196.5490  170.9990  146.1100 C   0  0  0  0  0  1  0  0  0  0  0  0
  194.2440  171.5660  145.8630 O   0  0  0  0  0  1  0  0  0  0  0  0
  190.9920  173.1430  144.6640 C   0  0  0  0  0  2  0  0  0  0  0  0
  189.6810  172.3770  144.7400 C   0  0  0  0  0  2  0  0  0  0  0  0
  189.2170  171.9930  143.3470 C   0  0  0  0  0  2  0  0  0  0  0  0
  190.3970  172.0100  142.3990 C   0  0  0  0  0  1  0  0  0  0  0  0
  1  5  1  6  0  0  0
  1 10  1  0  0  0  0
  1 15  1  0  0  0  0
  3  2  1  0  0  0  0
  4  1  1  0  0  0  0
  4 10  1  0  0  0  0
  6  2  1  0  0  0  0
  7 31  1  6  0  0  0
  7  6  1  0  0  0  0
  8  3  1  0  0  0  0
  9 18  1  1  0  0  0
  9 10  1  0  0  0  0
  9  7  1  0  0  0  0
 10  8  1  1  0  0  0
 11 15  2  0  0  0  0
 11 13  1  0  0  0  0
 12 16  1  0  0  0  0
 13 12  2  0  0  0  0
 14 16  2  0  0  0  0
 15 14  1  0  0  0  0
 17 20  1  6  0  0  0
 18 19  1  6  0  0  0
 18 17  1  0  0  0  0
 19 17  1  0  0  0  0
 20 21  1  6  0  0  0
 20 24  1  0  0  0  0
 21 22  1  0  0  0  0
 23 22  1  0  0  0  0
 24 25  1  0  0  0  0
 26 28  1  0  0  0  0
 26 25  1  0  0  0  0
 26 27  1  1  0  0  0
 28 30  1  0  0  0  0
 28 29  1  1  0  0  0
 31 32  1  0  0  0  0
 33 32  1  0  0  0  0
 34 33  1  0  0  0  0
M  END
>  <MODEL>
1

>  <REMARK>
 VINA RESULT:      -7.1      0.000      0.000
  Name = 
  12 active torsions:
  status: ('A' for Active; 'I' for Inactive)
    1  A    between atoms: C_1  and  C_20
    2  A    between atoms: C_3  and  C_13
    3  A    between atoms: C_4  and  C_16
    4  A    between atoms: C_6  and  C_28
    5  A    between atoms: C_7  and  C_11
    6  A    between atoms: C_7  and  C_29
    7  A    between atoms: C_13  and  C_27
    8  A    between atoms: C_16  and  C_28
    9  A    between atoms: C_18  and  C_33
   10  A    between atoms: C_25  and  C_27
   11  A    between atoms: C_26  and  C_28
   12  A    between atoms: C_26  and  C_29
                            x       y       z     vdW  Elec       q    Type
                         _______ _______ _______ _____ _____    ______ ____

>  <TORSDO>
F 12

$$$$
=
 OpenBabel11052420233D

 34 37  0  0  1  0  0  0  0  0999 V2000
  188.0360  176.3550  143.7930 C   0  0  1  0  0  0  0  0  0  0  0  0
  189.7600  175.3590  147.3080 C   0  0  0  0  0  2  0  0  0  0  0  0
  189.1120  176.6670  146.8760 C   0  0  0  0  0  2  0  0  0  0  0  0
  189.1100  177.0860  143.2470 O   0  0  0  0  0  0  0  0  0  0  0  0
  187.6700  175.2990  142.9550 O   0  0  0  0  0  1  0  0  0  0  0  0
  189.4030  174.2270  146.3550 C   0  0  0  0  0  2  0  0  0  0  0  0
  190.4560  174.1190  145.2530 C   0  0  2  0  0  3  0  0  0  0  0  0
  189.7200  177.2170  145.5910 C   0  0  0  0  0  2  0  0  0  0  0  0
  190.2930  175.1110  144.0830 C   0  0  1  0  0  3  0  0  0  0  0  0
  189.3950  176.3200  144.3980 C   0  0  1  0  0  0  0  0  0  0  0  0
  186.7570  178.5300  143.8280 C   0  0  0  0  0  3  0  0  0  0  0  0
  184.8500  178.8250  145.2900 C   0  0  0  0  0  3  0  0  0  0  0  0
  185.7150  179.3260  144.3130 C   0  0  0  0  0  3  0  0  0  0  0  0
  186.0660  176.7310  145.2940 C   0  0  0  0  0  3  0  0  0  0  0  0
  186.9430  177.2320  144.3260 C   0  0  0  0  0  0  0  0  0  0  0  0
  185.0230  177.5270  145.7800 C   0  0  0  0  0  3  0  0  0  0  0  0
  192.6280  174.4610  143.6520 C   0  0  1  0  0  3  0  0  0  0  0  0
  191.6720  175.5740  143.6130 C   0  0  1  0  0  3  0  0  0  0  0  0
  192.0550  174.8670  141.9480 S   0  0  0  0  0  0  0  0  0  0  0  0
  194.0550  174.9480  143.9640 C   0  0  2  0  0  3  0  0  0  0  0  0
  194.1960  176.3930  144.4630 C   0  0  0  0  0  2  0  0  0  0  0  0
  194.5420  176.4350  145.9430 C   0  0  0  0  0  2  0  0  0  0  0  0
  193.2780  176.4690  146.7790 C   0  0  0  0  0  1  0  0  0  0  0  0
  195.0050  174.6460  142.8070 C   0  0  0  0  0  2  0  0  0  0  0  0
  196.2200  173.8460  143.2590 C   0  0  0  0  0  2  0  0  0  0  0  0
  195.8040  172.7530  144.2300 C   0  0  1  0  0  3  0  0  0  0  0  0
  195.4430  171.4980  143.4520 C   0  0  0  0  0  1  0  0  0  0  0  0
  196.9070  172.4870  145.2580 C   0  0  1  0  0  3  0  0  0  0  0  0
  196.9830  173.6090  146.2770 C   0  0  0  0  0  1  0  0  0  0  0  0
  196.7110  171.2670  145.9080 O   0  0  0  0  0  1  0  0  0  0  0  0
  190.4770  172.6980  144.7100 C   0  0  0  0  0  2  0  0  0  0  0  0
  189.3140  172.4600  143.7600 C   0  0  0  0  0  2  0  0  0  0  0  0
  189.8070  171.8100  142.4800 C   0  0  0  0  0  2  0  0  0  0  0  0
  191.1270  171.1180  142.7420 C   0  0  0  0  0  1  0  0  0  0  0  0
  1  5  1  6  0  0  0
  1 15  1  0  0  0  0
  1 10  1  0  0  0  0
  3  2  1  0  0  0  0
  4  1  1  0  0  0  0
  4 10  1  0  0  0  0
  6  2  1  0  0  0  0
  7 31  1  6  0  0  0
  7  6  1  0  0  0  0
  8  3  1  0  0  0  0
  9 18  1  1  0  0  0
  9 10  1  0  0  0  0
  9  7  1  0  0  0  0
 10  8  1  1  0  0  0
 11 13  2  0  0  0  0
 11 15  1  0  0  0  0
 12 16  2  0  0  0  0
 13 12  1  0  0  0  0
 14 16  1  0  0  0  0
 15 14  2  0  0  0  0
 17 20  1  6  0  0  0
 18 19  1  6  0  0  0
 18 17  1  0  0  0  0
 19 17  1  0  0  0  0
 20 24  1  6  0  0  0
 20 21  1  0  0  0  0
 21 22  1  0  0  0  0
 22 23  1  0  0  0  0
 24 25  1  0  0  0  0
 25 26  1  0  0  0  0
 26 27  1  6  0  0  0
 26 28  1  0  0  0  0
 28 30  1  0  0  0  0
 28 29  1  1  0  0  0
 32 31  1  0  0  0  0
 33 34  1  0  0  0  0
 33 32  1  0  0  0  0
M  END
>  <MODEL>
2

>  <REMARK>
 VINA RESULT:      -6.9      1.067      1.761
  Name = 
  12 active torsions:
  status: ('A' for Active; 'I' for Inactive)
    1  A    between atoms: C_1  and  C_20
    2  A    between atoms: C_3  and  C_13
    3  A    between atoms: C_4  and  C_16
    4  A    between atoms: C_6  and  C_28
    5  A    between atoms: C_7  and  C_11
    6  A    between atoms: C_7  and  C_29
    7  A    between atoms: C_13  and  C_27
    8  A    between atoms: C_16  and  C_28
    9  A    between atoms: C_18  and  C_33
   10  A    between atoms: C_25  and  C_27
   11  A    between atoms: C_26  and  C_28
   12  A    between atoms: C_26  and  C_29
                            x       y       z     vdW  Elec       q    Type
                         _______ _______ _______ _____ _____    ______ ____

>  <TORSDO>
F 12

$$$$
=
 OpenBabel11052420233D

 34 37  0  0  1  0  0  0  0  0999 V2000
  185.7650  178.3520  143.5580 C   0  0  1  0  0  0  0  0  0  0  0  0
  188.4970  175.9720  141.7710 C   0  0  0  0  0  2  0  0  0  0  0  0
  186.9770  175.9040  141.7410 C   0  0  0  0  0  2  0  0  0  0  0  0
  185.4540  177.5110  144.6460 O   0  0  0  0  0  0  0  0  0  0  0  0
  186.2140  179.5980  143.9980 O   0  0  0  0  0  1  0  0  0  0  0  0
  188.9780  177.3130  142.3080 C   0  0  0  0  0  2  0  0  0  0  0  0
  189.1800  177.2300  143.8200 C   0  0  2  0  0  3  0  0  0  0  0  0
  186.3730  175.8470  143.1390 C   0  0  0  0  0  2  0  0  0  0  0  0
  187.9000  177.3860  144.6680 C   0  0  1  0  0  3  0  0  0  0  0  0
  186.5920  177.1600  143.8900 C   0  0  1  0  0  0  0  0  0  0  0  0
  183.3560  178.2690  142.8110 C   0  0  0  0  0  3  0  0  0  0  0  0
  182.7810  178.3540  140.4600 C   0  0  0  0  0  3  0  0  0  0  0  0
  182.3900  178.2770  141.8010 C   0  0  0  0  0  3  0  0  0  0  0  0
  185.1040  178.4180  141.1420 C   0  0  0  0  0  3  0  0  0  0  0  0
  184.7190  178.3270  142.4840 C   0  0  0  0  0  0  0  0  0  0  0  0
  184.1380  178.4260  140.1310 C   0  0  0  0  0  3  0  0  0  0  0  0
  189.2280  176.6600  146.6100 C   0  0  1  0  0  3  0  0  0  0  0  0
  187.9730  176.4520  145.8760 C   0  0  1  0  0  3  0  0  0  0  0  0
  187.7650  177.4110  147.4430 S   0  0  0  0  0  0  0  0  0  0  0  0
  189.7240  175.3590  147.2690 C   0  0  2  0  0  3  0  0  0  0  0  0
  191.1300  175.3930  147.8850 C   0  0  0  0  0  2  0  0  0  0  0  0
  191.8370  176.7030  147.5750 C   0  0  0  0  0  2  0  0  0  0  0  0
  193.2180  176.4360  147.0100 C   0  0  0  0  0  1  0  0  0  0  0  0
  189.5350  174.1630  146.3380 C   0  0  0  0  0  2  0  0  0  0  0  0
  190.7550  173.9280  145.4580 C   0  0  0  0  0  2  0  0  0  0  0  0
  190.5530  172.6980  144.5880 C   0  0  1  0  0  3  0  0  0  0  0  0
  189.5610  173.0210  143.4810 C   0  0  0  0  0  1  0  0  0  0  0  0
  191.8880  172.2000  144.0280 C   0  0  1  0  0  3  0  0  0  0  0  0
  193.0550  172.8860  144.7130 C   0  0  0  0  0  1  0  0  0  0  0  0
  192.0070  170.8150  144.1590 O   0  0  0  0  0  1  0  0  0  0  0  0
  190.2010  178.2700  144.2530 C   0  0  0  0  0  2  0  0  0  0  0  0
  191.5220  178.0730  143.5260 C   0  0  0  0  0  2  0  0  0  0  0  0
  192.0910  176.7000  143.8340 C   0  0  0  0  0  2  0  0  0  0  0  0
  192.4610  176.0060  142.5410 C   0  0  0  0  0  1  0  0  0  0  0  0
  1 10  1  0  0  0  0
  1  5  1  1  0  0  0
  1  4  1  0  0  0  0
  2  6  1  0  0  0  0
  3  2  1  0  0  0  0
  3  8  1  0  0  0  0
  6  7  1  0  0  0  0
  7 31  1  1  0  0  0
  7  9  1  0  0  0  0
  9 18  1  1  0  0  0
 10  8  1  6  0  0  0
 10  4  1  0  0  0  0
 10  9  1  0  0  0  0
 12 13  1  0  0  0  0
 13 11  2  0  0  0  0
 14 15  2  0  0  0  0
 15 11  1  0  0  0  0
 15  1  1  0  0  0  0
 16 12  2  0  0  0  0
 16 14  1  0  0  0  0
 17 20  1  1  0  0  0
 17 19  1  0  0  0  0
 18 17  1  0  0  0  0
 18 19  1  1  0  0  0
 20 24  1  6  0  0  0
 20 21  1  0  0  0  0
 22 21  1  0  0  0  0
 23 22  1  0  0  0  0
 25 24  1  0  0  0  0
 26 27  1  6  0  0  0
 26 25  1  0  0  0  0
 28 30  1  0  0  0  0
 28 26  1  0  0  0  0
 28 29  1  1  0  0  0
 32 33  1  0  0  0  0
 32 31  1  0  0  0  0
 34 33  1  0  0  0  0
M  END
>  <MODEL>
3

>  <REMARK>
 VINA RESULT:      -6.9      2.704      5.045
  Name = 
  12 active torsions:
  status: ('A' for Active; 'I' for Inactive)
    1  A    between atoms: C_1  and  C_20
    2  A    between atoms: C_3  and  C_13
    3  A    between atoms: C_4  and  C_16
    4  A    between atoms: C_6  and  C_28
    5  A    between atoms: C_7  and  C_11
    6  A    between atoms: C_7  and  C_29
    7  A    between atoms: C_13  and  C_27
    8  A    between atoms: C_16  and  C_28
    9  A    between atoms: C_18  and  C_33
   10  A    between atoms: C_25  and  C_27
   11  A    between atoms: C_26  and  C_28
   12  A    between atoms: C_26  and  C_29
                            x       y       z     vdW  Elec       q    Type
                         _______ _______ _______ _____ _____    ______ ____

>  <TORSDO>
F 12

$$$$
=
 OpenBabel11052420233D

 34 37  0  0  1  0  0  0  0  0999 V2000
  190.7210  173.5550  140.9060 C   0  0  1  0  0  0  0  0  0  0  0  0
  190.0520  172.1850  144.6470 C   0  0  0  0  0  2  0  0  0  0  0  0
  189.4180  171.7660  143.3280 C   0  0  0  0  0  2  0  0  0  0  0  0
  189.5970  174.4000  140.8030 O   0  0  0  0  0  0  0  0  0  0  0  0
  191.9050  174.2680  140.7040 O   0  0  0  0  0  1  0  0  0  0  0  0
  191.3090  173.0110  144.4170 C   0  0  0  0  0  2  0  0  0  0  0  0
  190.9590  174.4980  144.3770 C   0  0  2  0  0  3  0  0  0  0  0  0
  188.8110  172.9470  142.5790 C   0  0  0  0  0  2  0  0  0  0  0  0
  190.4130  175.0130  143.0290 C   0  0  1  0  0  3  0  0  0  0  0  0
  189.8940  173.9090  142.0920 C   0  0  1  0  0  0  0  0  0  0  0  0
  189.6210  172.1510  139.1220 C   0  0  0  0  0  3  0  0  0  0  0  0
  190.3020  169.8560  138.7530 C   0  0  0  0  0  3  0  0  0  0  0  0
  189.4940  170.9480  138.4210 C   0  0  0  0  0  3  0  0  0  0  0  0
  191.3660  171.1710  140.4860 C   0  0  0  0  0  3  0  0  0  0  0  0
  190.5500  172.2630  140.1660 C   0  0  0  0  0  0  0  0  0  0  0  0
  191.2380  169.9680  139.7840 C   0  0  0  0  0  3  0  0  0  0  0  0
  189.7060  176.9330  144.3990 C   0  0  1  0  0  3  0  0  0  0  0  0
  189.3240  176.0550  143.2860 C   0  0  1  0  0  3  0  0  0  0  0  0
  189.8950  177.7280  142.7470 S   0  0  0  0  0  0  0  0  0  0  0  0
  188.4770  177.4170  145.1900 C   0  0  2  0  0  3  0  0  0  0  0  0
  188.5370  177.2630  146.7160 C   0  0  0  0  0  2  0  0  0  0  0  0
  189.5800  176.2350  147.1270 C   0  0  0  0  0  2  0  0  0  0  0  0
  188.9310  174.8800  147.3320 C   0  0  0  0  0  1  0  0  0  0  0  0
  187.1870  176.8450  144.6070 C   0  0  0  0  0  2  0  0  0  0  0  0
  186.0370  176.8980  145.6050 C   0  0  0  0  0  2  0  0  0  0  0  0
  184.9020  177.7520  145.0630 C   0  0  1  0  0  3  0  0  0  0  0  0
  184.4120  178.6900  146.1550 C   0  0  0  0  0  1  0  0  0  0  0  0
  185.3440  178.5160  143.8120 C   0  0  1  0  0  3  0  0  0  0  0  0
  184.3870  178.2720  142.6600 C   0  0  0  0  0  1  0  0  0  0  0  0
  185.4460  179.8850  144.0640 O   0  0  0  0  0  1  0  0  0  0  0  0
  192.1790  175.3160  144.7730 C   0  0  0  0  0  2  0  0  0  0  0  0
  192.8200  174.7640  146.0360 C   0  0  0  0  0  2  0  0  0  0  0  0
  194.2170  175.3310  146.2070 C   0  0  0  0  0  2  0  0  0  0  0  0
  194.1250  176.7920  146.5910 C   0  0  0  0  0  1  0  0  0  0  0  0
  1  5  1  6  0  0  0
  1 10  1  0  0  0  0
  3  2  1  0  0  0  0
  4  1  1  0  0  0  0
  4 10  1  0  0  0  0
  6  2  1  0  0  0  0
  7  6  1  0  0  0  0
  7 31  1  6  0  0  0
  8  3  1  0  0  0  0
  9 18  1  1  0  0  0
  9  7  1  0  0  0  0
 10  8  1  1  0  0  0
 10  9  1  0  0  0  0
 11 15  1  0  0  0  0
 12 16  2  0  0  0  0
 13 12  1  0  0  0  0
 13 11  2  0  0  0  0
 15 14  2  0  0  0  0
 15  1  1  0  0  0  0
 16 14  1  0  0  0  0
 17 20  1  1  0  0  0
 18 19  1  6  0  0  0
 18 17  1  0  0  0  0
 19 17  1  0  0  0  0
 20 24  1  6  0  0  0
 20 21  1  0  0  0  0
 21 22  1  0  0  0  0
 22 23  1  0  0  0  0
 24 25  1  0  0  0  0
 26 25  1  0  0  0  0
 26 27  1  1  0  0  0
 28 29  1  6  0  0  0
 28 30  1  0  0  0  0
 28 26  1  0  0  0  0
 31 32  1  0  0  0  0
 32 33  1  0  0  0  0
 33 34  1  0  0  0  0
M  END
>  <MODEL>
4

>  <REMARK>
 VINA RESULT:      -6.9      2.507      8.030
  Name = 
  12 active torsions:
  status: ('A' for Active; 'I' for Inactive)
    1  A    between atoms: C_1  and  C_20
    2  A    between atoms: C_3  and  C_13
    3  A    between atoms: C_4  and  C_16
    4  A    between atoms: C_6  and  C_28
    5  A    between atoms: C_7  and  C_11
    6  A    between atoms: C_7  and  C_29
    7  A    between atoms: C_13  and  C_27
    8  A    between atoms: C_16  and  C_28
    9  A    between atoms: C_18  and  C_33
   10  A    between atoms: C_25  and  C_27
   11  A    between atoms: C_26  and  C_28
   12  A    between atoms: C_26  and  C_29
                            x       y       z     vdW  Elec       q    Type
                         _______ _______ _______ _____ _____    ______ ____

>  <TORSDO>
F 12

$$$$
=
 OpenBabel11052420233D

 34 37  0  0  1  0  0  0  0  0999 V2000
  188.1350  176.3120  143.7790 C   0  0  1  0  0  0  0  0  0  0  0  0
  189.8380  175.3480  147.3130 C   0  0  0  0  0  2  0  0  0  0  0  0
  189.2040  176.6560  146.8620 C   0  0  0  0  0  2  0  0  0  0  0  0
  189.2180  177.0270  143.2280 O   0  0  0  0  0  0  0  0  0  0  0  0
  187.7620  175.2490  142.9540 O   0  0  0  0  0  1  0  0  0  0  0  0
  189.4750  174.2060  146.3750 C   0  0  0  0  0  2  0  0  0  0  0  0
  190.5300  174.0740  145.2770 C   0  0  2  0  0  3  0  0  0  0  0  0
  189.8210  177.1830  145.5720 C   0  0  0  0  0  2  0  0  0  0  0  0
  190.3800  175.0520  144.0930 C   0  0  1  0  0  3  0  0  0  0  0  0
  189.4920  176.2730  144.3890 C   0  0  1  0  0  0  0  0  0  0  0  0
  186.8670  178.4940  143.7730 C   0  0  0  0  0  3  0  0  0  0  0  0
  184.9660  178.8300  145.2340 C   0  0  0  0  0  3  0  0  0  0  0  0
  185.8320  179.3050  144.2440 C   0  0  0  0  0  3  0  0  0  0  0  0
  186.1710  176.7300  145.2780 C   0  0  0  0  0  3  0  0  0  0  0  0
  187.0480  177.2060  144.2970 C   0  0  0  0  0  0  0  0  0  0  0  0
  185.1340  177.5420  145.7500 C   0  0  0  0  0  3  0  0  0  0  0  0
  192.6660  174.3430  143.5190 C   0  0  1  0  0  3  0  0  0  0  0  0
  191.7640  175.4970  143.6220 C   0  0  1  0  0  3  0  0  0  0  0  0
  192.0610  174.9410  141.8840 S   0  0  0  0  0  0  0  0  0  0  0  0
  194.1240  174.7310  143.8260 C   0  0  2  0  0  3  0  0  0  0  0  0
  194.5310  174.7610  145.3060 C   0  0  0  0  0  2  0  0  0  0  0  0
  194.5480  176.1820  145.8460 C   0  0  0  0  0  2  0  0  0  0  0  0
  193.3820  176.4000  146.7910 C   0  0  0  0  0  1  0  0  0  0  0  0
  194.5170  176.0160  143.0980 C   0  0  0  0  0  2  0  0  0  0  0  0
  195.3390  175.7350  141.8470 C   0  0  0  0  0  2  0  0  0  0  0  0
  196.8090  176.0280  142.1010 C   0  0  1  0  0  3  0  0  0  0  0  0
  196.9360  176.9900  143.2720 C   0  0  0  0  0  1  0  0  0  0  0  0
  197.5900  174.7340  142.3400 C   0  0  1  0  0  3  0  0  0  0  0  0
  197.9410  174.5730  143.8080 C   0  0  0  0  0  1  0  0  0  0  0  0
  196.8730  173.6200  141.8980 O   0  0  0  0  0  1  0  0  0  0  0  0
  190.5400  172.6460  144.7540 C   0  0  0  0  0  2  0  0  0  0  0  0
  189.3030  172.3640  143.9170 C   0  0  0  0  0  2  0  0  0  0  0  0
  189.6850  171.6230  142.6480 C   0  0  0  0  0  2  0  0  0  0  0  0
  189.3540  172.4790  141.4450 C   0  0  0  0  0  1  0  0  0  0  0  0
  1  5  1  6  0  0  0
  1 15  1  0  0  0  0
  1 10  1  0  0  0  0
  3  2  1  0  0  0  0
  4  1  1  0  0  0  0
  4 10  1  0  0  0  0
  6  2  1  0  0  0  0
  7 31  1  6  0  0  0
  7  6  1  0  0  0  0
  8  3  1  0  0  0  0
  9 18  1  1  0  0  0
  9 10  1  0  0  0  0
  9  7  1  0  0  0  0
 10  8  1  1  0  0  0
 11 13  2  0  0  0  0
 11 15  1  0  0  0  0
 12 16  2  0  0  0  0
 13 12  1  0  0  0  0
 14 16  1  0  0  0  0
 15 14  2  0  0  0  0
 17 18  1  0  0  0  0
 17 20  1  6  0  0  0
 18 19  1  6  0  0  0
 19 17  1  0  0  0  0
 20 24  1  1  0  0  0
 20 21  1  0  0  0  0
 21 22  1  0  0  0  0
 22 23  1  0  0  0  0
 25 26  1  0  0  0  0
 25 24  1  0  0  0  0
 26 28  1  0  0  0  0
 26 27  1  1  0  0  0
 28 29  1  1  0  0  0
 30 28  1  0  0  0  0
 32 31  1  0  0  0  0
 33 32  1  0  0  0  0
 34 33  1  0  0  0  0
M  END
>  <MODEL>
5

>  <REMARK>
 VINA RESULT:      -6.8      1.512      2.385
  Name = 
  12 active torsions:
  status: ('A' for Active; 'I' for Inactive)
    1  A    between atoms: C_1  and  C_20
    2  A    between atoms: C_3  and  C_13
    3  A    between atoms: C_4  and  C_16
    4  A    between atoms: C_6  and  C_28
    5  A    between atoms: C_7  and  C_11
    6  A    between atoms: C_7  and  C_29
    7  A    between atoms: C_13  and  C_27
    8  A    between atoms: C_16  and  C_28
    9  A    between atoms: C_18  and  C_33
   10  A    between atoms: C_25  and  C_27
   11  A    between atoms: C_26  and  C_28
   12  A    between atoms: C_26  and  C_29
                            x       y       z     vdW  Elec       q    Type
                         _______ _______ _______ _____ _____    ______ ____

>  <TORSDO>
F 12

$$$$
=
 OpenBabel11052420233D

 34 37  0  0  1  0  0  0  0  0999 V2000
  193.4570  175.8280  144.5230 C   0  0  1  0  0  0  0  0  0  0  0  0
  191.8580  172.3210  143.3130 C   0  0  0  0  0  2  0  0  0  0  0  0
  193.1280  173.0230  142.8520 C   0  0  0  0  0  2  0  0  0  0  0  0
  193.0170  176.6260  143.4470 O   0  0  0  0  0  0  0  0  0  0  0  0
  193.0030  176.3340  145.7420 O   0  0  0  0  0  1  0  0  0  0  0  0
  191.3380  172.9180  144.6120 C   0  0  0  0  0  2  0  0  0  0  0  0
  190.3380  174.0340  144.3120 C   0  0  2  0  0  3  0  0  0  0  0  0
  192.8630  174.4500  142.3860 C   0  0  0  0  0  2  0  0  0  0  0  0
  190.9590  175.4040  143.9690 C   0  0  1  0  0  3  0  0  0  0  0  0
  192.4390  175.3430  143.5520 C   0  0  1  0  0  0  0  0  0  0  0  0
  195.4410  174.4290  145.2110 C   0  0  0  0  0  3  0  0  0  0  0  0
  197.5990  174.7310  144.1540 C   0  0  0  0  0  3  0  0  0  0  0  0
  196.7860  174.0720  145.0810 C   0  0  0  0  0  3  0  0  0  0  0  0
  195.7200  176.1020  143.4820 C   0  0  0  0  0  3  0  0  0  0  0  0
  194.9050  175.4550  144.4180 C   0  0  0  0  0  0  0  0  0  0  0  0
  197.0660  175.7450  143.3530 C   0  0  0  0  0  3  0  0  0  0  0  0
  188.8440  176.5460  143.4360 C   0  0  1  0  0  3  0  0  0  0  0  0
  190.1230  176.0840  142.8840 C   0  0  1  0  0  3  0  0  0  0  0  0
  190.0560  177.9090  143.1740 S   0  0  0  0  0  0  0  0  0  0  0  0
  187.7200  176.4980  142.3850 C   0  0  2  0  0  3  0  0  0  0  0  0
  187.7030  177.6260  141.3440 C   0  0  0  0  0  2  0  0  0  0  0  0
  186.6700  177.3620  140.2600 C   0  0  0  0  0  2  0  0  0  0  0  0
  185.4420  178.2240  140.4800 C   0  0  0  0  0  1  0  0  0  0  0  0
  186.3560  176.3060  143.0450 C   0  0  0  0  0  2  0  0  0  0  0  0
  186.4390  176.3960  144.5630 C   0  0  0  0  0  2  0  0  0  0  0  0
  185.4280  177.3990  145.0930 C   0  0  1  0  0  3  0  0  0  0  0  0
  184.9490  176.9560  146.4660 C   0  0  0  0  0  1  0  0  0  0  0  0
  186.0230  178.8090  145.1250 C   0  0  1  0  0  3  0  0  0  0  0  0
  185.4240  179.6790  144.0360 C   0  0  0  0  0  1  0  0  0  0  0  0
  185.8340  179.4100  146.3710 O   0  0  0  0  0  1  0  0  0  0  0  0
  189.3870  174.1920  145.4890 C   0  0  0  0  0  2  0  0  0  0  0  0
  190.0070  175.0510  146.5790 C   0  0  0  0  0  2  0  0  0  0  0  0
  189.0040  176.0790  147.0700 C   0  0  0  0  0  2  0  0  0  0  0  0
  189.5950  177.4660  146.9320 C   0  0  0  0  0  1  0  0  0  0  0  0
  1  5  1  1  0  0  0
  2  6  1  0  0  0  0
  3  2  1  0  0  0  0
  4 10  1  0  0  0  0
  4  1  1  0  0  0  0
  7  6  1  0  0  0  0
  7 31  1  1  0  0  0
  8  3  1  0  0  0  0
  9 18  1  6  0  0  0
  9  7  1  0  0  0  0
 10  8  1  6  0  0  0
 10  9  1  0  0  0  0
 10  1  1  0  0  0  0
 12 13  2  0  0  0  0
 13 11  1  0  0  0  0
 14 15  1  0  0  0  0
 15  1  1  0  0  0  0
 15 11  2  0  0  0  0
 16 14  2  0  0  0  0
 16 12  1  0  0  0  0
 17 20  1  6  0  0  0
 18 19  1  1  0  0  0
 18 17  1  0  0  0  0
 19 17  1  0  0  0  0
 20 21  1  1  0  0  0
 20 24  1  0  0  0  0
 22 23  1  0  0  0  0
 22 21  1  0  0  0  0
 24 25  1  0  0  0  0
 25 26  1  0  0  0  0
 26 28  1  0  0  0  0
 26 27  1  1  0  0  0
 28 29  1  6  0  0  0
 28 30  1  0  0  0  0
 31 32  1  0  0  0  0
 32 33  1  0  0  0  0
 34 33  1  0  0  0  0
M  END
>  <MODEL>
6

>  <REMARK>
 VINA RESULT:      -6.6      2.099      8.363
  Name = 
  12 active torsions:
  status: ('A' for Active; 'I' for Inactive)
    1  A    between atoms: C_1  and  C_20
    2  A    between atoms: C_3  and  C_13
    3  A    between atoms: C_4  and  C_16
    4  A    between atoms: C_6  and  C_28
    5  A    between atoms: C_7  and  C_11
    6  A    between atoms: C_7  and  C_29
    7  A    between atoms: C_13  and  C_27
    8  A    between atoms: C_16  and  C_28
    9  A    between atoms: C_18  and  C_33
   10  A    between atoms: C_25  and  C_27
   11  A    between atoms: C_26  and  C_28
   12  A    between atoms: C_26  and  C_29
                            x       y       z     vdW  Elec       q    Type
                         _______ _______ _______ _____ _____    ______ ____

>  <TORSDO>
F 12

$$$$
=
 OpenBabel11052420233D

 34 37  0  0  1  0  0  0  0  0999 V2000
  187.2480  176.5530  143.8530 C   0  0  1  0  0  0  0  0  0  0  0  0
  189.8430  175.6260  146.8070 C   0  0  0  0  0  2  0  0  0  0  0  0
  189.0460  176.9020  146.5750 C   0  0  0  0  0  2  0  0  0  0  0  0
  188.1150  177.3410  143.0690 O   0  0  0  0  0  0  0  0  0  0  0  0
  186.7350  175.4850  143.1130 O   0  0  0  0  0  1  0  0  0  0  0  0
  189.3140  174.4830  145.9530 C   0  0  0  0  0  2  0  0  0  0  0  0
  190.0610  174.4350  144.6210 C   0  0  2  0  0  3  0  0  0  0  0  0
  189.2860  177.4890  145.1890 C   0  0  0  0  0  2  0  0  0  0  0  0
  189.5620  175.4240  143.5470 C   0  0  1  0  0  3  0  0  0  0  0  0
  188.7150  176.5840  144.0980 C   0  0  1  0  0  0  0  0  0  0  0  0
  185.9710  178.6860  144.2860 C   0  0  0  0  0  3  0  0  0  0  0  0
  184.4230  178.8520  146.1400 C   0  0  0  0  0  3  0  0  0  0  0  0
  185.0470  179.4260  145.0280 C   0  0  0  0  0  3  0  0  0  0  0  0
  185.6450  176.7960  145.7630 C   0  0  0  0  0  3  0  0  0  0  0  0
  186.2830  177.3700  144.6580 C   0  0  0  0  0  0  0  0  0  0  0  0
  184.7200  177.5360  146.5060 C   0  0  0  0  0  3  0  0  0  0  0  0
  191.9780  175.2280  143.1120 C   0  0  1  0  0  3  0  0  0  0  0  0
  190.7560  175.9600  142.7560 C   0  0  1  0  0  3  0  0  0  0  0  0
  191.2830  174.7320  141.4780 S   0  0  0  0  0  0  0  0  0  0  0  0
  193.2260  176.1230  143.0150 C   0  0  2  0  0  3  0  0  0  0  0  0
  194.4790  175.4920  142.3920 C   0  0  0  0  0  2  0  0  0  0  0  0
  194.8890  176.2170  141.1200 C   0  0  0  0  0  2  0  0  0  0  0  0
  194.7800  175.2890  139.9260 C   0  0  0  0  0  1  0  0  0  0  0  0
  193.5280  176.7940  144.3540 C   0  0  0  0  0  2  0  0  0  0  0  0
  194.9450  176.5040  144.8300 C   0  0  0  0  0  2  0  0  0  0  0  0
  194.9190  175.6750  146.1030 C   0  0  1  0  0  3  0  0  0  0  0  0
  193.4760  175.4460  146.5260 C   0  0  0  0  0  1  0  0  0  0  0  0
  195.6720  174.3560  145.9120 C   0  0  1  0  0  3  0  0  0  0  0  0
  194.7740  173.3020  145.2920 C   0  0  0  0  0  1  0  0  0  0  0  0
  196.8110  174.5330  145.1230 O   0  0  0  0  0  1  0  0  0  0  0  0
  190.0130  173.0200  144.0640 C   0  0  0  0  0  2  0  0  0  0  0  0
  191.1370  172.1710  144.6370 C   0  0  0  0  0  2  0  0  0  0  0  0
  191.9360  171.5330  143.5150 C   0  0  0  0  0  2  0  0  0  0  0  0
  190.9920  171.0340  142.4430 C   0  0  0  0  0  1  0  0  0  0  0  0
  1  5  1  6  0  0  0
  1 10  1  0  0  0  0
  1 15  1  0  0  0  0
  3  2  1  0  0  0  0
  4  1  1  0  0  0  0
  4 10  1  0  0  0  0
  6  2  1  0  0  0  0
  7 31  1  6  0  0  0
  7  6  1  0  0  0  0
  8  3  1  0  0  0  0
  9 18  1  1  0  0  0
  9 10  1  0  0  0  0
  9  7  1  0  0  0  0
 10  8  1  1  0  0  0
 11 15  2  0  0  0  0
 11 13  1  0  0  0  0
 12 16  1  0  0  0  0
 13 12  2  0  0  0  0
 14 16  2  0  0  0  0
 15 14  1  0  0  0  0
 17 20  1  6  0  0  0
 18 19  1  6  0  0  0
 18 17  1  0  0  0  0
 19 17  1  0  0  0  0
 20 21  1  1  0  0  0
 20 24  1  0  0  0  0
 22 21  1  0  0  0  0
 23 22  1  0  0  0  0
 24 25  1  0  0  0  0
 25 26  1  0  0  0  0
 26 27  1  6  0  0  0
 28 29  1  6  0  0  0
 28 26  1  0  0  0  0
 30 28  1  0  0  0  0
 31 32  1  0  0  0  0
 33 32  1  0  0  0  0
 34 33  1  0  0  0  0
M  END
>  <MODEL>
7

>  <REMARK>
 VINA RESULT:      -6.5      1.448      1.919
  Name = 
  12 active torsions:
  status: ('A' for Active; 'I' for Inactive)
    1  A    between atoms: C_1  and  C_20
    2  A    between atoms: C_3  and  C_13
    3  A    between atoms: C_4  and  C_16
    4  A    between atoms: C_6  and  C_28
    5  A    between atoms: C_7  and  C_11
    6  A    between atoms: C_7  and  C_29
    7  A    between atoms: C_13  and  C_27
    8  A    between atoms: C_16  and  C_28
    9  A    between atoms: C_18  and  C_33
   10  A    between atoms: C_25  and  C_27
   11  A    between atoms: C_26  and  C_28
   12  A    between atoms: C_26  and  C_29
                            x       y       z     vdW  Elec       q    Type
                         _______ _______ _______ _____ _____    ______ ____

>  <TORSDO>
F 12

$$$$
=
 OpenBabel11052420233D

 34 37  0  0  1  0  0  0  0  0999 V2000
  187.8250  176.1580  144.6520 C   0  0  1  0  0  0  0  0  0  0  0  0
  191.2430  178.0680  143.6570 C   0  0  0  0  0  2  0  0  0  0  0  0
  189.8840  178.0830  142.9730 C   0  0  0  0  0  2  0  0  0  0  0  0
  187.9150  175.0990  143.7250 O   0  0  0  0  0  0  0  0  0  0  0  0
  187.7370  175.6750  145.9590 O   0  0  0  0  0  1  0  0  0  0  0  0
  191.1470  177.4850  145.0600 C   0  0  0  0  0  2  0  0  0  0  0  0
  191.4060  175.9800  145.0210 C   0  0  2  0  0  3  0  0  0  0  0  0
  189.3930  176.6800  142.6310 C   0  0  0  0  0  2  0  0  0  0  0  0
  190.1980  175.1110  144.6130 C   0  0  1  0  0  3  0  0  0  0  0  0
  189.0770  175.8820  143.8950 C   0  0  1  0  0  0  0  0  0  0  0  0
  185.9500  176.9920  143.1830 C   0  0  0  0  0  3  0  0  0  0  0  0
  184.9970  179.1920  143.5180 C   0  0  0  0  0  3  0  0  0  0  0  0
  185.0290  177.9790  142.8240 C   0  0  0  0  0  3  0  0  0  0  0  0
  186.8070  178.4290  144.9340 C   0  0  0  0  0  3  0  0  0  0  0  0
  186.8520  177.2190  144.2330 C   0  0  0  0  0  0  0  0  0  0  0  0
  185.8840  179.4170  144.5740 C   0  0  0  0  0  3  0  0  0  0  0  0
  191.7950  173.2490  144.4110 C   0  0  1  0  0  3  0  0  0  0  0  0
  190.6790  173.9410  143.7550 C   0  0  1  0  0  3  0  0  0  0  0  0
  190.2000  172.3340  144.5330 S   0  0  0  0  0  0  0  0  0  0  0  0
  192.7790  172.6560  143.3850 C   0  0  2  0  0  3  0  0  0  0  0  0
  194.0160  171.9440  143.9510 C   0  0  0  0  0  2  0  0  0  0  0  0
  194.2170  172.2710  145.4220 C   0  0  0  0  0  2  0  0  0  0  0  0
  195.5930  172.8680  145.6450 C   0  0  0  0  0  1  0  0  0  0  0  0
  193.1490  173.6860  142.3190 C   0  0  0  0  0  2  0  0  0  0  0  0
  194.6540  173.7680  142.1030 C   0  0  0  0  0  2  0  0  0  0  0  0
  195.1030  175.2190  142.0360 C   0  0  1  0  0  3  0  0  0  0  0  0
  193.9250  176.1260  142.3560 C   0  0  0  0  0  1  0  0  0  0  0  0
  196.2850  175.4680  142.9770 C   0  0  1  0  0  3  0  0  0  0  0  0
  197.3910  174.4560  142.7420 C   0  0  0  0  0  1  0  0  0  0  0  0
  196.7860  176.7630  142.8280 O   0  0  0  0  0  1  0  0  0  0  0  0
  191.9240  175.5190  146.3750 C   0  0  0  0  0  2  0  0  0  0  0  0
  193.0500  176.4170  146.8620 C   0  0  0  0  0  2  0  0  0  0  0  0
  194.2860  176.2200  146.0060 C   0  0  0  0  0  2  0  0  0  0  0  0
  194.9430  177.5600  145.7500 C   0  0  0  0  0  1  0  0  0  0  0  0
  1  5  1  1  0  0  0
  2  6  1  0  0  0  0
  3  2  1  0  0  0  0
  4 10  1  0  0  0  0
  4  1  1  0  0  0  0
  7  6  1  0  0  0  0
  7 31  1  1  0  0  0
  8  3  1  0  0  0  0
  9 18  1  6  0  0  0
  9  7  1  0  0  0  0
 10  8  1  6  0  0  0
 10  9  1  0  0  0  0
 10  1  1  0  0  0  0
 11 15  1  0  0  0  0
 12 16  2  0  0  0  0
 13 11  2  0  0  0  0
 13 12  1  0  0  0  0
 15  1  1  0  0  0  0
 15 14  2  0  0  0  0
 16 14  1  0  0  0  0
 17 20  1  6  0  0  0
 17 19  1  0  0  0  0
 18 17  1  0  0  0  0
 18 19  1  1  0  0  0
 20 24  1  6  0  0  0
 20 21  1  0  0  0  0
 21 22  1  0  0  0  0
 22 23  1  0  0  0  0
 25 24  1  0  0  0  0
 26 25  1  0  0  0  0
 26 27  1  1  0  0  0
 26 28  1  0  0  0  0
 28 29  1  6  0  0  0
 30 28  1  0  0  0  0
 31 32  1  0  0  0  0
 33 32  1  0  0  0  0
 34 33  1  0  0  0  0
M  END
>  <MODEL>
8

>  <REMARK>
 VINA RESULT:      -6.5      2.075      3.965
  Name = 
  12 active torsions:
  status: ('A' for Active; 'I' for Inactive)
    1  A    between atoms: C_1  and  C_20
    2  A    between atoms: C_3  and  C_13
    3  A    between atoms: C_4  and  C_16
    4  A    between atoms: C_6  and  C_28
    5  A    between atoms: C_7  and  C_11
    6  A    between atoms: C_7  and  C_29
    7  A    between atoms: C_13  and  C_27
    8  A    between atoms: C_16  and  C_28
    9  A    between atoms: C_18  and  C_33
   10  A    between atoms: C_25  and  C_27
   11  A    between atoms: C_26  and  C_28
   12  A    between atoms: C_26  and  C_29
                            x       y       z     vdW  Elec       q    Type
                         _______ _______ _______ _____ _____    ______ ____

>  <TORSDO>
F 12

$$$$
=
 OpenBabel11052420233D

 34 37  0  0  1  0  0  0  0  0999 V2000
  190.0330  177.1350  145.1450 C   0  0  1  0  0  0  0  0  0  0  0  0
  190.5800  173.4800  143.5130 C   0  0  0  0  0  2  0  0  0  0  0  0
  189.6980  173.9050  144.6790 C   0  0  0  0  0  2  0  0  0  0  0  0
  190.8750  176.9780  146.2650 O   0  0  0  0  0  0  0  0  0  0  0  0
  190.4260  178.2300  144.3710 O   0  0  0  0  0  1  0  0  0  0  0  0
  191.0510  174.6840  142.7110 C   0  0  0  0  0  2  0  0  0  0  0  0
  192.3930  175.1790  143.2480 C   0  0  2  0  0  3  0  0  0  0  0  0
  190.4830  174.6380  145.7600 C   0  0  0  0  0  2  0  0  0  0  0  0
  192.3130  176.0830  144.4960 C   0  0  1  0  0  3  0  0  0  0  0  0
  190.9810  175.9930  145.2600 C   0  0  1  0  0  0  0  0  0  0  0  0
  188.1450  177.0640  146.8180 C   0  0  0  0  0  3  0  0  0  0  0  0
  185.8480  176.8370  146.0870 C   0  0  0  0  0  3  0  0  0  0  0  0
  186.7830  176.9740  147.1170 C   0  0  0  0  0  3  0  0  0  0  0  0
  187.6370  176.8830  144.4570 C   0  0  0  0  0  3  0  0  0  0  0  0
  188.5790  177.0070  145.4850 C   0  0  0  0  0  0  0  0  0  0  0  0
  186.2740  176.7930  144.7570 C   0  0  0  0  0  3  0  0  0  0  0  0
  194.7580  175.8770  144.6990 C   0  0  1  0  0  3  0  0  0  0  0  0
  193.4870  175.7720  145.4250 C   0  0  1  0  0  3  0  0  0  0  0  0
  194.4320  177.3140  145.8060 S   0  0  0  0  0  0  0  0  0  0  0  0
  195.8090  174.8920  145.2460 C   0  0  2  0  0  3  0  0  0  0  0  0
  196.9870  174.5600  144.3200 C   0  0  0  0  0  2  0  0  0  0  0  0
  197.2110  175.6600  143.2950 C   0  0  0  0  0  2  0  0  0  0  0  0
  197.9050  175.1030  142.0670 C   0  0  0  0  0  1  0  0  0  0  0  0
  195.1460  173.6340  145.8040 C   0  0  0  0  0  2  0  0  0  0  0  0
  195.3260  172.4370  144.8800 C   0  0  0  0  0  2  0  0  0  0  0  0
  194.5230  171.2500  145.3860 C   0  0  1  0  0  3  0  0  0  0  0  0
  193.3160  171.0360  144.4860 C   0  0  0  0  0  1  0  0  0  0  0  0
  195.3980  169.9960  145.4720 C   0  0  1  0  0  3  0  0  0  0  0  0
  196.7040  170.2920  146.1840 C   0  0  0  0  0  1  0  0  0  0  0  0
  194.7290  168.9550  146.1190 O   0  0  0  0  0  1  0  0  0  0  0  0
  193.1430  175.9090  142.1440 C   0  0  0  0  0  2  0  0  0  0  0  0
  193.5900  174.9440  141.0580 C   0  0  0  0  0  2  0  0  0  0  0  0
  194.3920  173.8070  141.6650 C   0  0  0  0  0  2  0  0  0  0  0  0
  193.8800  172.4870  141.1300 C   0  0  0  0  0  1  0  0  0  0  0  0
  1  5  1  6  0  0  0
  1 10  1  0  0  0  0
  1 15  1  0  0  0  0
  1  4  1  0  0  0  0
  2  3  1  0  0  0  0
  3  8  1  0  0  0  0
  6  7  1  0  0  0  0
  6  2  1  0  0  0  0
  7 31  1  6  0  0  0
  7  9  1  0  0  0  0
  9 10  1  0  0  0  0
  9 18  1  1  0  0  0
 10  8  1  1  0  0  0
 10  4  1  0  0  0  0
 11 13  1  0  0  0  0
 12 13  2  0  0  0  0
 14 16  2  0  0  0  0
 14 15  1  0  0  0  0
 15 11  2  0  0  0  0
 16 12  1  0  0  0  0
 17 20  1  1  0  0  0
 17 18  1  0  0  0  0
 17 19  1  0  0  0  0
 18 19  1  1  0  0  0
 20 21  1  6  0  0  0
 20 24  1  0  0  0  0
 22 21  1  0  0  0  0
 23 22  1  0  0  0  0
 25 26  1  0  0  0  0
 25 24  1  0  0  0  0
 26 27  1  6  0  0  0
 26 28  1  0  0  0  0
 28 30  1  0  0  0  0
 28 29  1  1  0  0  0
 32 33  1  0  0  0  0
 32 31  1  0  0  0  0
 34 33  1  0  0  0  0
M  END
>  <MODEL>
9

>  <REMARK>
 VINA RESULT:      -6.5      1.860      3.169
  Name = 
  12 active torsions:
  status: ('A' for Active; 'I' for Inactive)
    1  A    between atoms: C_1  and  C_20
    2  A    between atoms: C_3  and  C_13
    3  A    between atoms: C_4  and  C_16
    4  A    between atoms: C_6  and  C_28
    5  A    between atoms: C_7  and  C_11
    6  A    between atoms: C_7  and  C_29
    7  A    between atoms: C_13  and  C_27
    8  A    between atoms: C_16  and  C_28
    9  A    between atoms: C_18  and  C_33
   10  A    between atoms: C_25  and  C_27
   11  A    between atoms: C_26  and  C_28
   12  A    between atoms: C_26  and  C_29
                            x       y       z     vdW  Elec       q    Type
                         _______ _______ _______ _____ _____    ______ ____

>  <TORSDO>
F 12

$$$$
