=
 OpenBabel11052417323D

 25 27  0  0  1  0  0  0  0  0999 V2000
  188.0930  176.5470  143.1340 C   0  0  0  0  0  0  0  0  0  0  0  0
  187.6740  175.2230  141.1320 O   0  0  0  0  0  1  0  0  0  0  0  0
  189.8410  175.1350  142.1950 C   0  0  0  0  0  0  0  0  0  0  0  0
  190.4160  174.0000  140.9860 Cl  0  0  0  0  0  0  0  0  0  0  0  0
  188.9750  176.9430  144.1440 C   0  0  0  0  0  3  0  0  0  0  0  0
  190.7090  175.5410  143.2110 C   0  0  0  0  0  3  0  0  0  0  0  0
  190.2800  176.4460  144.1900 C   0  0  0  0  0  0  0  0  0  0  0  0
  188.5310  175.6340  142.1490 C   0  0  0  0  0  0  0  0  0  0  0  0
  186.7060  177.1320  143.1540 C   0  0  1  0  0  3  0  0  0  0  0  0
  185.9640  178.2850  141.1420 N   0  0  0  0  0  1  0  0  0  0  0  0
  186.2530  177.4820  144.5130 C   0  0  0  0  0  0  0  0  0  0  0  0
  184.8820  178.5370  146.7820 C   0  0  0  0  0  2  0  0  0  0  0  0
  185.9860  178.9360  144.6160 C   0  0  2  0  0  3  0  0  0  0  0  0
  184.7100  179.1860  145.4080 C   0  0  0  0  0  2  0  0  0  0  0  0
  185.1070  177.0170  146.6760 C   0  0  0  0  0  2  0  0  0  0  0  0
  186.6300  178.4660  142.4190 C   0  0  1  0  0  3  0  0  0  0  0  0
  185.8700  179.4140  143.2430 N   0  0  0  0  0  2  0  0  0  0  0  0
  185.8580  176.5920  145.4340 C   0  0  0  0  0  3  0  0  0  0  0  0
  191.1690  176.8920  145.2720 C   0  0  0  0  0  3  0  0  0  0  0  0
  191.7950  176.0470  146.0810 C   0  0  0  0  0  3  0  0  0  0  0  0
  192.6440  176.5430  147.1130 N   0  0  0  0  0  2  0  0  0  0  0  0
  193.9630  176.9250  146.8320 N   0  0  0  0  0  2  0  0  0  0  0  0
  194.5980  175.8180  146.1330 C   0  0  0  0  0  2  0  0  0  0  0  0
  195.2690  176.3170  144.8670 C   0  0  0  0  0  2  0  0  0  0  0  0
  194.4880  175.8670  143.6470 C   0  0  0  0  0  1  0  0  0  0  0  0
  1  5  1  0  0  0  0
  2  8  1  0  0  0  0
  3  6  2  0  0  0  0
  4  3  1  0  0  0  0
  5  7  2  0  0  0  0
  6  7  1  0  0  0  0
  7 19  1  0  0  0  0
  8  3  1  0  0  0  0
  8  1  2  0  0  0  0
  9  1  1  1  0  0  0
  9 11  1  0  0  0  0
 11 13  1  0  0  0  0
 11 18  2  0  0  0  0
 13 14  1  1  0  0  0
 14 12  1  0  0  0  0
 15 12  1  0  0  0  0
 16 10  1  6  0  0  0
 16  9  1  0  0  0  0
 16 17  1  0  0  0  0
 17 13  1  0  0  0  0
 18 15  1  0  0  0  0
 19 20  2  0  0  0  0
 20 21  1  0  0  0  0
 22 21  1  0  0  0  0
 23 22  1  0  0  0  0
 24 23  1  0  0  0  0
 25 24  1  0  0  0  0
M  END
>  <MODEL>
1

>  <REMARK>
 VINA RESULT:      -6.7      0.000      0.000
  Name = 
  6 active torsions:
  status: ('A' for Active; 'I' for Inactive)
    1  A    between atoms: C_1  and  C_3
    2  A    between atoms: C_2  and  C_12
    3  A    between atoms: C_6  and  C_23
    4  A    between atoms: C_12  and  N_25
    5  A    between atoms: C_15  and  N_21
    6  A    between atoms: N_21  and  N_25
                            x       y       z     vdW  Elec       q    Type
                         _______ _______ _______ _____ _____    ______ ____

>  <TORSDO>
F 6

$$$$
=
 OpenBabel11052417323D

 25 27  0  0  1  0  0  0  0  0999 V2000
  188.5720  176.9120  146.3550 C   0  0  0  0  0  0  0  0  0  0  0  0
  189.4680  178.5950  147.8720 O   0  0  0  0  0  1  0  0  0  0  0  0
  190.6610  176.5210  147.5460 C   0  0  0  0  0  0  0  0  0  0  0  0
  191.9110  177.0330  148.6650 Cl  0  0  0  0  0  0  0  0  0  0  0  0
  188.6950  175.6550  145.7560 C   0  0  0  0  0  3  0  0  0  0  0  0
  190.7680  175.2680  146.9380 C   0  0  0  0  0  3  0  0  0  0  0  0
  189.7860  174.8290  146.0390 C   0  0  0  0  0  0  0  0  0  0  0  0
  189.5660  177.3490  147.2600 C   0  0  0  0  0  0  0  0  0  0  0  0
  187.3650  177.7370  145.9980 C   0  0  1  0  0  3  0  0  0  0  0  0
  185.7980  178.2360  147.7940 N   0  0  0  0  0  1  0  0  0  0  0  0
  186.9720  177.5930  144.5840 C   0  0  0  0  0  0  0  0  0  0  0  0
  185.5990  177.6100  142.0830 C   0  0  0  0  0  2  0  0  0  0  0  0
  185.6060  177.0300  144.4780 C   0  0  2  0  0  3  0  0  0  0  0  0
  184.8190  177.7500  143.3910 C   0  0  0  0  0  2  0  0  0  0  0  0
  187.0000  178.2440  142.1800 C   0  0  0  0  0  2  0  0  0  0  0  0
  186.1140  177.2860  146.7440 C   0  0  1  0  0  3  0  0  0  0  0  0
  185.0000  177.2120  145.7910 N   0  0  0  0  0  2  0  0  0  0  0  0
  187.6220  178.1540  143.5550 C   0  0  0  0  0  3  0  0  0  0  0  0
  189.8690  173.5170  145.3830 C   0  0  0  0  0  3  0  0  0  0  0  0
  190.5890  173.3070  144.2880 C   0  0  0  0  0  3  0  0  0  0  0  0
  190.6290  172.0100  143.6980 N   0  0  0  0  0  2  0  0  0  0  0  0
  189.6450  171.6110  142.7840 N   0  0  0  0  0  2  0  0  0  0  0  0
  189.4570  172.7020  141.8390 C   0  0  0  0  0  2  0  0  0  0  0  0
  187.9930  173.0970  141.7830 C   0  0  0  0  0  2  0  0  0  0  0  0
  187.8250  174.5480  142.1890 C   0  0  0  0  0  1  0  0  0  0  0  0
  1  8  1  0  0  0  0
  3  4  1  0  0  0  0
  5  7  1  0  0  0  0
  5  1  2  0  0  0  0
  6  3  1  0  0  0  0
  7  6  2  0  0  0  0
  8  3  2  0  0  0  0
  8  2  1  0  0  0  0
  9  1  1  1  0  0  0
  9 16  1  0  0  0  0
 11  9  1  0  0  0  0
 12 15  1  0  0  0  0
 12 14  1  0  0  0  0
 13 14  1  6  0  0  0
 13 11  1  0  0  0  0
 13 17  1  0  0  0  0
 15 18  1  0  0  0  0
 16 10  1  1  0  0  0
 17 16  1  0  0  0  0
 18 11  2  0  0  0  0
 19  7  1  0  0  0  0
 20 19  2  0  0  0  0
 21 20  1  0  0  0  0
 22 21  1  0  0  0  0
 23 22  1  0  0  0  0
 24 23  1  0  0  0  0
 24 25  1  0  0  0  0
M  END
>  <MODEL>
2

>  <REMARK>
 VINA RESULT:      -6.7      3.797      5.221
  Name = 
  6 active torsions:
  status: ('A' for Active; 'I' for Inactive)
    1  A    between atoms: C_1  and  C_3
    2  A    between atoms: C_2  and  C_12
    3  A    between atoms: C_6  and  C_23
    4  A    between atoms: C_12  and  N_25
    5  A    between atoms: C_15  and  N_21
    6  A    between atoms: N_21  and  N_25
                            x       y       z     vdW  Elec       q    Type
                         _______ _______ _______ _____ _____    ______ ____

>  <TORSDO>
F 6

$$$$
=
 OpenBabel11052417323D

 25 27  0  0  1  0  0  0  0  0999 V2000
  189.1930  174.9720  144.2600 C   0  0  0  0  0  0  0  0  0  0  0  0
  189.9680  172.9390  143.1650 O   0  0  0  0  0  1  0  0  0  0  0  0
  188.2960  174.3130  142.0930 C   0  0  0  0  0  0  0  0  0  0  0  0
  188.2260  173.2110  140.7300 Cl  0  0  0  0  0  0  0  0  0  0  0  0
  188.3670  176.1000  144.2430 C   0  0  0  0  0  3  0  0  0  0  0  0
  187.4780  175.4440  142.0930 C   0  0  0  0  0  3  0  0  0  0  0  0
  187.5090  176.3440  143.1670 C   0  0  0  0  0  0  0  0  0  0  0  0
  189.1570  174.0690  143.1730 C   0  0  0  0  0  0  0  0  0  0  0  0
  190.0840  174.7820  145.4580 C   0  0  1  0  0  3  0  0  0  0  0  0
  188.9880  174.4190  147.6020 N   0  0  0  0  0  1  0  0  0  0  0  0
  191.3930  175.4450  145.3090 C   0  0  0  0  0  0  0  0  0  0  0  0
  193.9560  176.6240  145.7300 C   0  0  0  0  0  2  0  0  0  0  0  0
  191.5770  176.4760  146.3560 C   0  0  2  0  0  3  0  0  0  0  0  0
  192.9960  176.4260  146.9050 C   0  0  0  0  0  2  0  0  0  0  0  0
  193.7990  175.5200  144.6680 C   0  0  0  0  0  2  0  0  0  0  0  0
  189.5150  175.4370  146.7120 C   0  0  1  0  0  3  0  0  0  0  0  0
  190.5900  176.1750  147.3860 N   0  0  0  0  0  2  0  0  0  0  0  0
  192.3880  174.9910  144.5350 C   0  0  0  0  0  3  0  0  0  0  0  0
  186.6610  177.5430  143.1960 C   0  0  0  0  0  3  0  0  0  0  0  0
  185.3350  177.4840  143.2380 C   0  0  0  0  0  3  0  0  0  0  0  0
  184.5680  178.6850  143.2630 N   0  0  0  0  0  2  0  0  0  0  0  0
  184.5940  179.5250  144.3840 N   0  0  0  0  0  2  0  0  0  0  0  0
  184.1090  178.7550  145.5190 C   0  0  0  0  0  2  0  0  0  0  0  0
  185.1260  178.7880  146.6450 C   0  0  0  0  0  2  0  0  0  0  0  0
  185.6610  177.3940  146.9110 C   0  0  0  0  0  1  0  0  0  0  0  0
  2  8  1  0  0  0  0
  3  6  2  0  0  0  0
  3  8  1  0  0  0  0
  4  3  1  0  0  0  0
  5  1  1  0  0  0  0
  6  7  1  0  0  0  0
  7 19  1  0  0  0  0
  7  5  2  0  0  0  0
  8  1  2  0  0  0  0
  9  1  1  6  0  0  0
  9 16  1  0  0  0  0
 11  9  1  0  0  0  0
 11 13  1  0  0  0  0
 12 14  1  0  0  0  0
 13 14  1  1  0  0  0
 13 17  1  0  0  0  0
 15 12  1  0  0  0  0
 16 17  1  0  0  0  0
 16 10  1  1  0  0  0
 18 15  1  0  0  0  0
 18 11  2  0  0  0  0
 19 20  2  0  0  0  0
 20 21  1  0  0  0  0
 21 22  1  0  0  0  0
 22 23  1  0  0  0  0
 23 24  1  0  0  0  0
 24 25  1  0  0  0  0
M  END
>  <MODEL>
3

>  <REMARK>
 VINA RESULT:      -6.7      1.815      6.860
  Name = 
  6 active torsions:
  status: ('A' for Active; 'I' for Inactive)
    1  A    between atoms: C_1  and  C_3
    2  A    between atoms: C_2  and  C_12
    3  A    between atoms: C_6  and  C_23
    4  A    between atoms: C_12  and  N_25
    5  A    between atoms: C_15  and  N_21
    6  A    between atoms: N_21  and  N_25
                            x       y       z     vdW  Elec       q    Type
                         _______ _______ _______ _____ _____    ______ ____

>  <TORSDO>
F 6

$$$$
=
 OpenBabel11052417323D

 25 27  0  0  1  0  0  0  0  0999 V2000
  188.1690  177.5990  144.7450 C   0  0  0  0  0  0  0  0  0  0  0  0
  188.2030  177.4610  147.1770 O   0  0  0  0  0  1  0  0  0  0  0  0
  186.2290  178.2770  146.0510 C   0  0  0  0  0  0  0  0  0  0  0  0
  185.4170  178.5120  147.5890 Cl  0  0  0  0  0  0  0  0  0  0  0  0
  187.4770  177.9250  143.5750 C   0  0  0  0  0  3  0  0  0  0  0  0
  185.5520  178.5980  144.8720 C   0  0  0  0  0  3  0  0  0  0  0  0
  186.1730  178.4230  143.6280 C   0  0  0  0  0  0  0  0  0  0  0  0
  187.5370  177.7770  145.9970 C   0  0  0  0  0  0  0  0  0  0  0  0
  189.5710  177.0720  144.5990 C   0  0  1  0  0  3  0  0  0  0  0  0
  191.2320  178.5950  143.6760 N   0  0  0  0  0  1  0  0  0  0  0  0
  189.6170  175.6080  144.4280 C   0  0  0  0  0  0  0  0  0  0  0  0
  190.3770  172.9140  143.8760 C   0  0  0  0  0  2  0  0  0  0  0  0
  190.2200  175.2540  143.1220 C   0  0  2  0  0  3  0  0  0  0  0  0
  191.1720  174.0760  143.2790 C   0  0  0  0  0  2  0  0  0  0  0  0
  189.7950  173.2660  145.2590 C   0  0  0  0  0  2  0  0  0  0  0  0
  190.2520  177.5810  143.3330 C   0  0  1  0  0  3  0  0  0  0  0  0
  190.9180  176.4530  142.6710 N   0  0  0  0  0  2  0  0  0  0  0  0
  189.4200  174.7230  145.4150 C   0  0  0  0  0  3  0  0  0  0  0  0
  185.4880  178.7500  142.3700 C   0  0  0  0  0  3  0  0  0  0  0  0
  184.7570  177.8680  141.7000 C   0  0  0  0  0  3  0  0  0  0  0  0
  184.1180  178.2480  140.4840 N   0  0  0  0  0  2  0  0  0  0  0  0
  182.8020  177.8520  140.2140 N   0  0  0  0  0  2  0  0  0  0  0  0
  181.9370  178.5300  141.1670 C   0  0  0  0  0  2  0  0  0  0  0  0
  180.5310  178.6420  140.6080 C   0  0  0  0  0  2  0  0  0  0  0  0
  180.1020  180.0960  140.5510 C   0  0  0  0  0  1  0  0  0  0  0  0
  1  8  1  0  0  0  0
  3  4  1  0  0  0  0
  5  7  1  0  0  0  0
  5  1  2  0  0  0  0
  6  3  1  0  0  0  0
  7  6  2  0  0  0  0
  8  3  2  0  0  0  0
  8  2  1  0  0  0  0
  9  1  1  6  0  0  0
 11  9  1  0  0  0  0
 11 18  2  0  0  0  0
 12 15  1  0  0  0  0
 13 14  1  1  0  0  0
 13 11  1  0  0  0  0
 14 12  1  0  0  0  0
 15 18  1  0  0  0  0
 16 10  1  1  0  0  0
 16  9  1  0  0  0  0
 17 13  1  0  0  0  0
 17 16  1  0  0  0  0
 19  7  1  0  0  0  0
 20 19  2  0  0  0  0
 21 20  1  0  0  0  0
 22 21  1  0  0  0  0
 22 23  1  0  0  0  0
 24 23  1  0  0  0  0
 25 24  1  0  0  0  0
M  END
>  <MODEL>
4

>  <REMARK>
 VINA RESULT:      -6.5      3.699      8.168
  Name = 
  6 active torsions:
  status: ('A' for Active; 'I' for Inactive)
    1  A    between atoms: C_1  and  C_3
    2  A    between atoms: C_2  and  C_12
    3  A    between atoms: C_6  and  C_23
    4  A    between atoms: C_12  and  N_25
    5  A    between atoms: C_15  and  N_21
    6  A    between atoms: N_21  and  N_25
                            x       y       z     vdW  Elec       q    Type
                         _______ _______ _______ _____ _____    ______ ____

>  <TORSDO>
F 6

$$$$
=
 OpenBabel11052417323D

 25 27  0  0  1  0  0  0  0  0999 V2000
  190.8130  175.9040  145.5580 C   0  0  0  0  0  0  0  0  0  0  0  0
  192.7850  175.9940  146.9860 O   0  0  0  0  0  1  0  0  0  0  0  0
  190.7720  177.1530  147.6490 C   0  0  0  0  0  0  0  0  0  0  0  0
  191.5500  177.7220  149.1140 Cl  0  0  0  0  0  0  0  0  0  0  0  0
  189.4850  176.2750  145.3270 C   0  0  0  0  0  3  0  0  0  0  0  0
  189.4460  177.5140  147.4020 C   0  0  0  0  0  3  0  0  0  0  0  0
  188.7960  177.0760  146.2400 C   0  0  0  0  0  0  0  0  0  0  0  0
  191.4630  176.3480  146.7320 C   0  0  0  0  0  0  0  0  0  0  0  0
  191.4840  175.0420  144.5230 C   0  0  1  0  0  3  0  0  0  0  0  0
  193.4820  175.9450  143.4610 N   0  0  0  0  0  1  0  0  0  0  0  0
  190.5500  174.1160  143.8560 C   0  0  0  0  0  0  0  0  0  0  0  0
  189.2770  172.2700  142.0920 C   0  0  0  0  0  2  0  0  0  0  0  0
  190.4860  174.3950  142.4030 C   0  0  2  0  0  3  0  0  0  0  0  0
  190.4750  173.0930  141.6140 C   0  0  0  0  0  2  0  0  0  0  0  0
  189.3720  171.9360  143.5920 C   0  0  0  0  0  2  0  0  0  0  0  0
  192.0360  175.8590  143.3590 C   0  0  1  0  0  3  0  0  0  0  0  0
  191.6670  175.1960  142.1020 N   0  0  0  0  0  2  0  0  0  0  0  0
  190.0550  173.0040  144.4170 C   0  0  0  0  0  3  0  0  0  0  0  0
  187.4010  177.4380  145.9520 C   0  0  0  0  0  3  0  0  0  0  0  0
  186.3680  176.8050  146.4940 C   0  0  0  0  0  3  0  0  0  0  0  0
  185.0380  177.2040  146.1730 N   0  0  0  0  0  2  0  0  0  0  0  0
  184.6460  178.5440  146.2920 N   0  0  0  0  0  2  0  0  0  0  0  0
  184.1890  178.9840  144.9830 C   0  0  0  0  0  2  0  0  0  0  0  0
  185.2680  179.8060  144.3030 C   0  0  0  0  0  2  0  0  0  0  0  0
  185.8090  179.0660  143.0950 C   0  0  0  0  0  1  0  0  0  0  0  0
  1  8  1  0  0  0  0
  3  4  1  0  0  0  0
  5  1  2  0  0  0  0
  5  7  1  0  0  0  0
  6  3  1  0  0  0  0
  7  6  2  0  0  0  0
  8  2  1  0  0  0  0
  8  3  2  0  0  0  0
  9  1  1  1  0  0  0
 11 18  2  0  0  0  0
 11  9  1  0  0  0  0
 12 15  1  0  0  0  0
 13 14  1  6  0  0  0
 13 11  1  0  0  0  0
 14 12  1  0  0  0  0
 15 18  1  0  0  0  0
 16 10  1  1  0  0  0
 16  9  1  0  0  0  0
 17 13  1  0  0  0  0
 17 16  1  0  0  0  0
 19  7  1  0  0  0  0
 19 20  2  0  0  0  0
 21 22  1  0  0  0  0
 21 20  1  0  0  0  0
 23 22  1  0  0  0  0
 24 23  1  0  0  0  0
 25 24  1  0  0  0  0
M  END
>  <MODEL>
5

>  <REMARK>
 VINA RESULT:      -6.4      3.343      7.147
  Name = 
  6 active torsions:
  status: ('A' for Active; 'I' for Inactive)
    1  A    between atoms: C_1  and  C_3
    2  A    between atoms: C_2  and  C_12
    3  A    between atoms: C_6  and  C_23
    4  A    between atoms: C_12  and  N_25
    5  A    between atoms: C_15  and  N_21
    6  A    between atoms: N_21  and  N_25
                            x       y       z     vdW  Elec       q    Type
                         _______ _______ _______ _____ _____    ______ ____

>  <TORSDO>
F 6

$$$$
=
 OpenBabel11052417323D

 25 27  0  0  1  0  0  0  0  0999 V2000
  188.6180  176.8570  145.2190 C   0  0  0  0  0  0  0  0  0  0  0  0
  189.5600  177.5380  147.3600 O   0  0  0  0  0  1  0  0  0  0  0  0
  187.2640  178.0750  146.8370 C   0  0  0  0  0  0  0  0  0  0  0  0
  187.0680  178.8680  148.3890 Cl  0  0  0  0  0  0  0  0  0  0  0  0
  187.5230  176.8240  144.3500 C   0  0  0  0  0  3  0  0  0  0  0  0
  186.1810  178.0320  145.9560 C   0  0  0  0  0  3  0  0  0  0  0  0
  186.3050  177.4060  144.7090 C   0  0  0  0  0  0  0  0  0  0  0  0
  188.4860  177.4900  146.4760 C   0  0  0  0  0  0  0  0  0  0  0  0
  189.8940  176.2100  144.7540 C   0  0  1  0  0  3  0  0  0  0  0  0
  191.5280  177.6500  143.6620 N   0  0  0  0  0  1  0  0  0  0  0  0
  189.7310  174.7770  144.4460 C   0  0  0  0  0  0  0  0  0  0  0  0
  190.0430  172.0980  143.5170 C   0  0  0  0  0  2  0  0  0  0  0  0
  190.0340  174.5120  143.0210 C   0  0  2  0  0  3  0  0  0  0  0  0
  190.8480  173.2330  142.8820 C   0  0  0  0  0  2  0  0  0  0  0  0
  189.7750  172.3520  145.0130 C   0  0  0  0  0  2  0  0  0  0  0  0
  190.3860  176.7860  143.4290 C   0  0  1  0  0  3  0  0  0  0  0  0
  190.7750  175.6760  142.5510 N   0  0  0  0  0  2  0  0  0  0  0  0
  189.6140  173.8130  145.3690 C   0  0  0  0  0  3  0  0  0  0  0  0
  185.1840  177.3430  143.7600 C   0  0  0  0  0  3  0  0  0  0  0  0
  184.7030  178.4170  143.1460 C   0  0  0  0  0  3  0  0  0  0  0  0
  183.6130  178.2900  142.2370 N   0  0  0  0  0  2  0  0  0  0  0  0
  183.8420  178.0880  140.8700 N   0  0  0  0  0  2  0  0  0  0  0  0
  185.1580  178.6280  140.5630 C   0  0  0  0  0  2  0  0  0  0  0  0
  186.0460  177.5410  139.9860 C   0  0  0  0  0  2  0  0  0  0  0  0
  187.3660  177.4910  140.7290 C   0  0  0  0  0  1  0  0  0  0  0  0
  1  8  1  0  0  0  0
  3  4  1  0  0  0  0
  5  7  1  0  0  0  0
  5  1  2  0  0  0  0
  6  3  1  0  0  0  0
  7  6  2  0  0  0  0
  8  3  2  0  0  0  0
  8  2  1  0  0  0  0
  9  1  1  6  0  0  0
 11  9  1  0  0  0  0
 11 18  2  0  0  0  0
 12 15  1  0  0  0  0
 13 14  1  1  0  0  0
 13 11  1  0  0  0  0
 14 12  1  0  0  0  0
 15 18  1  0  0  0  0
 16 10  1  1  0  0  0
 16  9  1  0  0  0  0
 17 13  1  0  0  0  0
 17 16  1  0  0  0  0
 19  7  1  0  0  0  0
 20 19  2  0  0  0  0
 21 20  1  0  0  0  0
 22 21  1  0  0  0  0
 23 22  1  0  0  0  0
 24 23  1  0  0  0  0
 24 25  1  0  0  0  0
M  END
>  <MODEL>
6

>  <REMARK>
 VINA RESULT:      -6.3      3.383      7.204
  Name = 
  6 active torsions:
  status: ('A' for Active; 'I' for Inactive)
    1  A    between atoms: C_1  and  C_3
    2  A    between atoms: C_2  and  C_12
    3  A    between atoms: C_6  and  C_23
    4  A    between atoms: C_12  and  N_25
    5  A    between atoms: C_15  and  N_21
    6  A    between atoms: N_21  and  N_25
                            x       y       z     vdW  Elec       q    Type
                         _______ _______ _______ _____ _____    ______ ____

>  <TORSDO>
F 6

$$$$
=
 OpenBabel11052417323D

 25 27  0  0  1  0  0  0  0  0999 V2000
  189.3450  176.1000  144.7260 C   0  0  0  0  0  0  0  0  0  0  0  0
  188.5050  175.3830  146.8980 O   0  0  0  0  0  1  0  0  0  0  0  0
  190.8740  175.7390  146.5870 C   0  0  0  0  0  0  0  0  0  0  0  0
  191.1860  175.2950  148.2560 Cl  0  0  0  0  0  0  0  0  0  0  0  0
  190.4320  176.4530  143.9210 C   0  0  0  0  0  3  0  0  0  0  0  0
  191.9480  176.0950  145.7690 C   0  0  0  0  0  3  0  0  0  0  0  0
  191.7320  176.4540  144.4310 C   0  0  0  0  0  0  0  0  0  0  0  0
  189.5690  175.7390  146.0740 C   0  0  0  0  0  0  0  0  0  0  0  0
  187.9780  176.1210  144.0970 C   0  0  1  0  0  3  0  0  0  0  0  0
  187.5890  174.5840  142.2480 N   0  0  0  0  0  1  0  0  0  0  0  0
  187.3070  177.4280  144.2310 C   0  0  0  0  0  0  0  0  0  0  0  0
  185.5830  179.6870  143.9760 C   0  0  0  0  0  2  0  0  0  0  0  0
  187.0350  178.0140  142.8980 C   0  0  2  0  0  3  0  0  0  0  0  0
  185.6470  178.6370  142.8660 C   0  0  0  0  0  2  0  0  0  0  0  0
  185.8130  179.0660  145.3670 C   0  0  0  0  0  2  0  0  0  0  0  0
  188.0330  175.9240  142.5860 C   0  0  1  0  0  3  0  0  0  0  0  0
  187.1530  176.9120  141.9500 N   0  0  0  0  0  2  0  0  0  0  0  0
  186.7580  177.8850  145.3650 C   0  0  0  0  0  3  0  0  0  0  0  0
  192.8400  176.8330  143.5450 C   0  0  0  0  0  3  0  0  0  0  0  0
  193.4310  175.9720  142.7250 C   0  0  0  0  0  3  0  0  0  0  0  0
  194.5020  176.4020  141.8900 N   0  0  0  0  0  2  0  0  0  0  0  0
  195.7880  175.8670  142.0440 N   0  0  0  0  0  2  0  0  0  0  0  0
  196.2630  176.2440  143.3660 C   0  0  0  0  0  2  0  0  0  0  0  0
  196.6440  175.0060  144.1560 C   0  0  0  0  0  2  0  0  0  0  0  0
  195.7710  174.8800  145.3900 C   0  0  0  0  0  1  0  0  0  0  0  0
  1  8  1  0  0  0  0
  3  4  1  0  0  0  0
  5  7  1  0  0  0  0
  5  1  2  0  0  0  0
  6  3  1  0  0  0  0
  7  6  2  0  0  0  0
  8  3  2  0  0  0  0
  8  2  1  0  0  0  0
  9 11  1  0  0  0  0
  9  1  1  6  0  0  0
 11 18  2  0  0  0  0
 12 15  1  0  0  0  0
 13 14  1  1  0  0  0
 13 11  1  0  0  0  0
 14 12  1  0  0  0  0
 16 10  1  1  0  0  0
 16  9  1  0  0  0  0
 17 16  1  0  0  0  0
 17 13  1  0  0  0  0
 18 15  1  0  0  0  0
 19  7  1  0  0  0  0
 20 19  2  0  0  0  0
 21 22  1  0  0  0  0
 21 20  1  0  0  0  0
 22 23  1  0  0  0  0
 23 24  1  0  0  0  0
 24 25  1  0  0  0  0
M  END
>  <MODEL>
7

>  <REMARK>
 VINA RESULT:      -6.3      2.789      3.540
  Name = 
  6 active torsions:
  status: ('A' for Active; 'I' for Inactive)
    1  A    between atoms: C_1  and  C_3
    2  A    between atoms: C_2  and  C_12
    3  A    between atoms: C_6  and  C_23
    4  A    between atoms: C_12  and  N_25
    5  A    between atoms: C_15  and  N_21
    6  A    between atoms: N_21  and  N_25
                            x       y       z     vdW  Elec       q    Type
                         _______ _______ _______ _____ _____    ______ ____

>  <TORSDO>
F 6

$$$$
=
 OpenBabel11052417323D

 25 27  0  0  1  0  0  0  0  0999 V2000
  187.8380  177.0520  143.2540 C   0  0  0  0  0  0  0  0  0  0  0  0
  186.8900  178.9380  142.0370 O   0  0  0  0  0  1  0  0  0  0  0  0
  187.3040  176.8560  140.8850 C   0  0  0  0  0  0  0  0  0  0  0  0
  186.6960  177.5340  139.3860 Cl  0  0  0  0  0  0  0  0  0  0  0  0
  188.2860  175.7280  143.2480 C   0  0  0  0  0  3  0  0  0  0  0  0
  187.7560  175.5350  140.8970 C   0  0  0  0  0  3  0  0  0  0  0  0
  188.2490  174.9640  142.0780 C   0  0  0  0  0  0  0  0  0  0  0  0
  187.3420  177.6220  142.0590 C   0  0  0  0  0  0  0  0  0  0  0  0
  187.9160  177.8060  144.5540 C   0  0  1  0  0  3  0  0  0  0  0  0
  190.0530  177.7730  145.7220 N   0  0  0  0  0  1  0  0  0  0  0  0
  186.6120  177.9100  145.2340 C   0  0  0  0  0  0  0  0  0  0  0  0
  184.4990  178.2920  147.1130 C   0  0  0  0  0  2  0  0  0  0  0  0
  186.6590  177.2450  146.5570 C   0  0  2  0  0  3  0  0  0  0  0  0
  185.9340  178.0860  147.5990 C   0  0  0  0  0  2  0  0  0  0  0  0
  184.4500  179.0310  145.7620 C   0  0  0  0  0  2  0  0  0  0  0  0
  188.7800  177.0900  145.5870 C   0  0  1  0  0  3  0  0  0  0  0  0
  188.0750  177.0970  146.8750 N   0  0  0  0  0  2  0  0  0  0  0  0
  185.6220  178.7290  144.8540 C   0  0  0  0  0  3  0  0  0  0  0  0
  188.7310  173.5770  142.1240 C   0  0  0  0  0  3  0  0  0  0  0  0
  189.5950  173.0880  141.2420 C   0  0  0  0  0  3  0  0  0  0  0  0
  190.0230  171.7320  141.3400 N   0  0  0  0  0  2  0  0  0  0  0  0
  190.2510  171.1430  142.5910 N   0  0  0  0  0  2  0  0  0  0  0  0
  191.6850  171.1750  142.8350 C   0  0  0  0  0  2  0  0  0  0  0  0
  191.9630  171.6520  144.2480 C   0  0  0  0  0  2  0  0  0  0  0  0
  191.6960  173.1400  144.3620 C   0  0  0  0  0  1  0  0  0  0  0  0
  2  8  1  0  0  0  0
  3  6  2  0  0  0  0
  3  8  1  0  0  0  0
  4  3  1  0  0  0  0
  5  1  1  0  0  0  0
  6  7  1  0  0  0  0
  7 19  1  0  0  0  0
  7  5  2  0  0  0  0
  8  1  2  0  0  0  0
  9  1  1  6  0  0  0
  9 11  1  0  0  0  0
  9 16  1  0  0  0  0
 11 13  1  0  0  0  0
 12 14  1  0  0  0  0
 13 17  1  0  0  0  0
 13 14  1  1  0  0  0
 15 12  1  0  0  0  0
 16 10  1  1  0  0  0
 16 17  1  0  0  0  0
 18 11  2  0  0  0  0
 18 15  1  0  0  0  0
 20 21  1  0  0  0  0
 20 19  2  0  0  0  0
 21 22  1  0  0  0  0
 22 23  1  0  0  0  0
 23 24  1  0  0  0  0
 24 25  1  0  0  0  0
M  END
>  <MODEL>
8

>  <REMARK>
 VINA RESULT:      -6.1      3.251      4.375
  Name = 
  6 active torsions:
  status: ('A' for Active; 'I' for Inactive)
    1  A    between atoms: C_1  and  C_3
    2  A    between atoms: C_2  and  C_12
    3  A    between atoms: C_6  and  C_23
    4  A    between atoms: C_12  and  N_25
    5  A    between atoms: C_15  and  N_21
    6  A    between atoms: N_21  and  N_25
                            x       y       z     vdW  Elec       q    Type
                         _______ _______ _______ _____ _____    ______ ____

>  <TORSDO>
F 6

$$$$
=
 OpenBabel11052417323D

 25 27  0  0  1  0  0  0  0  0999 V2000
  187.9580  176.8740  143.2870 C   0  0  0  0  0  0  0  0  0  0  0  0
  187.0720  178.7170  141.9630 O   0  0  0  0  0  1  0  0  0  0  0  0
  187.3980  176.5550  140.9380 C   0  0  0  0  0  0  0  0  0  0  0  0
  186.8040  177.1630  139.4040 Cl  0  0  0  0  0  0  0  0  0  0  0  0
  188.3550  175.5350  143.3590 C   0  0  0  0  0  3  0  0  0  0  0  0
  187.8000  175.2200  141.0280 C   0  0  0  0  0  3  0  0  0  0  0  0
  188.2800  174.7040  142.2390 C   0  0  0  0  0  0  0  0  0  0  0  0
  187.4740  177.3880  142.0630 C   0  0  0  0  0  0  0  0  0  0  0  0
  188.0750  177.7010  144.5380 C   0  0  1  0  0  3  0  0  0  0  0  0
  190.2550  177.7610  145.6230 N   0  0  0  0  0  1  0  0  0  0  0  0
  186.7960  177.8280  145.2620 C   0  0  0  0  0  0  0  0  0  0  0  0
  184.7510  178.2910  147.1970 C   0  0  0  0  0  2  0  0  0  0  0  0
  186.9040  177.2400  146.6180 C   0  0  2  0  0  3  0  0  0  0  0  0
  186.2070  178.1300  147.6380 C   0  0  0  0  0  2  0  0  0  0  0  0
  184.6410  178.9510  145.8100 C   0  0  0  0  0  2  0  0  0  0  0  0
  188.9870  177.0560  145.5760 C   0  0  1  0  0  3  0  0  0  0  0  0
  188.3320  177.1280  146.8880 N   0  0  0  0  0  2  0  0  0  0  0  0
  185.7810  178.6120  144.8750 C   0  0  0  0  0  3  0  0  0  0  0  0
  188.7100  173.3050  142.3660 C   0  0  0  0  0  3  0  0  0  0  0  0
  189.7880  172.9440  143.0520 C   0  0  0  0  0  3  0  0  0  0  0  0
  190.1520  171.5690  143.1360 N   0  0  0  0  0  2  0  0  0  0  0  0
  190.3250  170.8030  141.9760 N   0  0  0  0  0  2  0  0  0  0  0  0
  191.5570  171.2430  141.3410 C   0  0  0  0  0  2  0  0  0  0  0  0
  191.4340  171.1350  139.8320 C   0  0  0  0  0  2  0  0  0  0  0  0
  190.0710  171.6220  139.3800 C   0  0  0  0  0  1  0  0  0  0  0  0
  1  5  1  0  0  0  0
  2  8  1  0  0  0  0
  3  6  2  0  0  0  0
  3  8  1  0  0  0  0
  4  3  1  0  0  0  0
  6  7  1  0  0  0  0
  7 19  1  0  0  0  0
  7  5  2  0  0  0  0
  8  1  2  0  0  0  0
  9  1  1  6  0  0  0
  9 11  1  0  0  0  0
  9 16  1  0  0  0  0
 11 13  1  0  0  0  0
 12 14  1  0  0  0  0
 13 17  1  0  0  0  0
 13 14  1  1  0  0  0
 15 12  1  0  0  0  0
 16 10  1  1  0  0  0
 16 17  1  0  0  0  0
 18 11  2  0  0  0  0
 18 15  1  0  0  0  0
 19 20  2  0  0  0  0
 20 21  1  0  0  0  0
 22 21  1  0  0  0  0
 23 22  1  0  0  0  0
 24 23  1  0  0  0  0
 25 24  1  0  0  0  0
M  END
>  <MODEL>
9

>  <REMARK>
 VINA RESULT:      -6.1      3.302      4.640
  Name = 
  6 active torsions:
  status: ('A' for Active; 'I' for Inactive)
    1  A    between atoms: C_1  and  C_3
    2  A    between atoms: C_2  and  C_12
    3  A    between atoms: C_6  and  C_23
    4  A    between atoms: C_12  and  N_25
    5  A    between atoms: C_15  and  N_21
    6  A    between atoms: N_21  and  N_25
                            x       y       z     vdW  Elec       q    Type
                         _______ _______ _______ _____ _____    ______ ____

>  <TORSDO>
F 6

$$$$
