=
 OpenBabel11052417263D

 25 27  0  0  1  0  0  0  0  0999 V2000
  187.2790  177.1290  145.7850 C   0  0  0  0  0  0  0  0  0  0  0  0
  186.8460  177.0700  144.4390 C   0  0  0  0  0  0  0  0  0  0  0  0
  185.3240  178.3580  146.3490 C   0  0  0  0  0  3  0  0  0  0  0  0
  184.8870  178.3030  145.0670 N   0  0  0  0  0  0  0  0  0  0  0  0
  185.1560  177.6440  142.7750 C   0  0  0  0  0  0  0  0  0  0  0  0
  183.8590  178.2690  142.3860 C   0  0  0  0  0  1  0  0  0  0  0  0
  187.6040  176.4580  143.4300 C   0  0  0  0  0  3  0  0  0  0  0  0
  186.5020  177.7800  146.6940 N   0  0  0  0  0  0  0  0  0  0  0  0
  185.9240  177.0190  141.7900 C   0  0  0  0  0  3  0  0  0  0  0  0
  187.1520  176.4270  142.1090 C   0  0  0  0  0  0  0  0  0  0  0  0
  185.6150  177.6790  144.1030 C   0  0  0  0  0  0  0  0  0  0  0  0
  188.5460  176.5120  146.2580 C   0  0  0  0  0  0  0  0  0  0  0  0
  190.9900  175.6270  147.4420 C   0  0  0  0  0  3  0  0  0  0  0  0
  189.8500  177.1700  146.0230 C   0  0  0  0  0  0  0  0  0  0  0  0
  191.0080  176.7130  146.7290 N   0  0  0  0  0  0  0  0  0  0  0  0
  189.7800  174.7350  147.5040 C   0  0  0  0  0  2  0  0  0  0  0  0
  189.9510  178.1450  145.2320 O   0  0  0  0  0  0  0  0  0  0  0  0
  188.5260  175.4080  147.0130 C   0  0  0  0  0  3  0  0  0  0  0  0
  187.9640  175.7820  141.1180 N   0  0  0  0  0  2  0  0  0  0  0  0
  188.2640  174.3830  141.0320 C   0  0  0  0  0  0  0  0  0  0  0  0
  187.7960  173.5650  141.8690 O   0  0  0  0  0  0  0  0  0  0  0  0
  190.1410  172.8710  140.3940 C   0  0  0  0  0  1  0  0  0  0  0  0
  189.1310  173.8990  139.9130 C   0  0  1  0  0  3  0  0  0  0  0  0
  188.3090  173.3700  138.7430 C   0  0  0  0  0  2  0  0  0  0  0  0
  187.9570  174.4010  137.8670 O   0  0  0  0  0  1  0  0  0  0  0  0
  1 12  1  0  0  0  0
  1  8  1  0  0  0  0
  2  1  2  0  0  0  0
  3  8  2  0  0  0  0
  4  3  1  0  0  0  0
  5 11  1  0  0  0  0
  6  5  1  0  0  0  0
  7  2  1  0  0  0  0
  9 10  1  0  0  0  0
  9  5  2  0  0  0  0
 10  7  2  0  0  0  0
 11  2  1  0  0  0  0
 11  4  2  0  0  0  0
 12 18  2  0  0  0  0
 13 16  1  0  0  0  0
 14 12  1  0  0  0  0
 14 15  1  0  0  0  0
 15 13  2  0  0  0  0
 17 14  2  0  0  0  0
 18 16  1  0  0  0  0
 19 10  1  0  0  0  0
 20 19  1  0  0  0  0
 20 21  2  0  0  0  0
 23 22  1  1  0  0  0
 23 20  1  0  0  0  0
 24 23  1  0  0  0  0
 25 24  1  0  0  0  0
M  END
>  <MODEL>
1

>  <REMARK>
 VINA RESULT:      -7.1      0.000      0.000
  Name = 
  4 active torsions:
  status: ('A' for Active; 'I' for Inactive)
    1  A    between atoms: C_1  and  C_5
    2  A    between atoms: C_2  and  C_21
    3  A    between atoms: N_6  and  C_23
    4  A    between atoms: C_15  and  C_21
                            x       y       z     vdW  Elec       q    Type
                         _______ _______ _______ _____ _____    ______ ____

>  <TORSDO>
F 4

$$$$
=
 OpenBabel11052417263D

 25 27  0  0  1  0  0  0  0  0999 V2000
  187.6190  177.3860  144.8200 C   0  0  0  0  0  0  0  0  0  0  0  0
  187.4130  177.0850  143.4540 C   0  0  0  0  0  0  0  0  0  0  0  0
  185.9440  179.0680  144.6910 C   0  0  0  0  0  3  0  0  0  0  0  0
  185.7240  178.7860  143.3830 N   0  0  0  0  0  0  0  0  0  0  0  0
  186.2040  177.5480  141.3840 C   0  0  0  0  0  0  0  0  0  0  0  0
  185.1740  178.2970  140.6080 C   0  0  0  0  0  1  0  0  0  0  0  0
  188.1600  176.1100  142.7760 C   0  0  0  0  0  3  0  0  0  0  0  0
  186.8790  178.3760  145.3910 N   0  0  0  0  0  0  0  0  0  0  0  0
  186.9550  176.5660  140.7350 C   0  0  0  0  0  3  0  0  0  0  0  0
  187.9380  175.8440  141.4230 C   0  0  0  0  0  0  0  0  0  0  0  0
  186.4330  177.8180  142.7450 C   0  0  0  0  0  0  0  0  0  0  0  0
  188.6080  176.6710  145.6690 C   0  0  0  0  0  0  0  0  0  0  0  0
  190.5020  175.6300  147.5370 C   0  0  0  0  0  3  0  0  0  0  0  0
  190.0220  177.1040  145.7230 C   0  0  0  0  0  0  0  0  0  0  0  0
  190.8770  176.5940  146.7500 N   0  0  0  0  0  0  0  0  0  0  0  0
  189.1810  174.9300  147.3650 C   0  0  0  0  0  2  0  0  0  0  0  0
  190.4760  177.9370  144.8950 O   0  0  0  0  0  0  0  0  0  0  0  0
  188.2180  175.6960  146.4970 C   0  0  0  0  0  3  0  0  0  0  0  0
  188.7270  174.8340  140.7810 N   0  0  0  0  0  2  0  0  0  0  0  0
  188.5840  173.4140  140.9230 C   0  0  0  0  0  0  0  0  0  0  0  0
  187.6890  172.9220  141.6610 O   0  0  0  0  0  0  0  0  0  0  0  0
  190.0130  173.1880  138.8920 C   0  0  0  0  0  1  0  0  0  0  0  0
  189.5050  172.5180  140.1580 C   0  0  1  0  0  3  0  0  0  0  0  0
  190.6560  172.0110  141.0220 C   0  0  0  0  0  2  0  0  0  0  0  0
  190.2970  170.8450  141.7050 O   0  0  0  0  0  1  0  0  0  0  0  0
  1  8  1  0  0  0  0
  1 12  1  0  0  0  0
  2  1  2  0  0  0  0
  3  8  2  0  0  0  0
  4  3  1  0  0  0  0
  5 11  1  0  0  0  0
  6  5  1  0  0  0  0
  7  2  1  0  0  0  0
  9  5  2  0  0  0  0
  9 10  1  0  0  0  0
 10  7  2  0  0  0  0
 11  4  2  0  0  0  0
 11  2  1  0  0  0  0
 12 14  1  0  0  0  0
 12 18  2  0  0  0  0
 14 15  1  0  0  0  0
 15 13  2  0  0  0  0
 16 13  1  0  0  0  0
 17 14  2  0  0  0  0
 18 16  1  0  0  0  0
 19 20  1  0  0  0  0
 19 10  1  0  0  0  0
 20 21  2  0  0  0  0
 23 22  1  6  0  0  0
 23 20  1  0  0  0  0
 23 24  1  0  0  0  0
 24 25  1  0  0  0  0
M  END
>  <MODEL>
2

>  <REMARK>
 VINA RESULT:      -6.9      1.412      1.813
  Name = 
  4 active torsions:
  status: ('A' for Active; 'I' for Inactive)
    1  A    between atoms: C_1  and  C_5
    2  A    between atoms: C_2  and  C_21
    3  A    between atoms: N_6  and  C_23
    4  A    between atoms: C_15  and  C_21
                            x       y       z     vdW  Elec       q    Type
                         _______ _______ _______ _____ _____    ______ ____

>  <TORSDO>
F 4

$$$$
=
 OpenBabel11052417263D

 25 27  0  0  1  0  0  0  0  0999 V2000
  191.1530  174.2740  144.4460 C   0  0  0  0  0  0  0  0  0  0  0  0
  190.6070  175.3090  145.2410 C   0  0  0  0  0  0  0  0  0  0  0  0
  193.0000  174.1200  145.9340 C   0  0  0  0  0  3  0  0  0  0  0  0
  192.4880  175.1030  146.7140 N   0  0  0  0  0  0  0  0  0  0  0  0
  190.8030  176.7400  147.2090 C   0  0  0  0  0  0  0  0  0  0  0  0
  191.5180  177.1820  148.4400 C   0  0  0  0  0  1  0  0  0  0  0  0
  189.4130  175.9660  144.9070 C   0  0  0  0  0  3  0  0  0  0  0  0
  192.3380  173.7180  144.8190 N   0  0  0  0  0  0  0  0  0  0  0  0
  189.6070  177.3700  146.8610 C   0  0  0  0  0  3  0  0  0  0  0  0
  188.9070  176.9920  145.7080 C   0  0  0  0  0  0  0  0  0  0  0  0
  191.3140  175.7110  146.3980 C   0  0  0  0  0  0  0  0  0  0  0  0
  190.4910  173.7590  143.2180 C   0  0  0  0  0  0  0  0  0  0  0  0
  188.8830  172.9530  140.9990 C   0  0  0  0  0  3  0  0  0  0  0  0
  189.4930  172.6700  143.2880 C   0  0  0  0  0  0  0  0  0  0  0  0
  188.6690  172.3940  142.1510 N   0  0  0  0  0  0  0  0  0  0  0  0
  190.0610  173.8590  140.7600 C   0  0  0  0  0  2  0  0  0  0  0  0
  189.3370  172.0010  144.3440 O   0  0  0  0  0  0  0  0  0  0  0  0
  190.6930  174.3510  142.0360 C   0  0  0  0  0  3  0  0  0  0  0  0
  187.6790  177.6240  145.3240 N   0  0  0  0  0  2  0  0  0  0  0  0
  186.3830  177.3990  145.8920 C   0  0  0  0  0  0  0  0  0  0  0  0
  186.2210  176.5830  146.8400 O   0  0  0  0  0  0  0  0  0  0  0  0
  184.1470  178.3690  146.4150 C   0  0  0  0  0  1  0  0  0  0  0  0
  185.2170  178.1670  145.3560 C   0  0  1  0  0  3  0  0  0  0  0  0
  185.6440  179.4920  144.7320 C   0  0  0  0  0  2  0  0  0  0  0  0
  185.5200  179.4560  143.3410 O   0  0  0  0  0  1  0  0  0  0  0  0
  1  8  2  0  0  0  0
  1  2  1  0  0  0  0
  2 11  1  0  0  0  0
  3  4  2  0  0  0  0
  5  6  1  0  0  0  0
  7  2  2  0  0  0  0
  7 10  1  0  0  0  0
  8  3  1  0  0  0  0
  9  5  1  0  0  0  0
 10  9  2  0  0  0  0
 11  4  1  0  0  0  0
 11  5  2  0  0  0  0
 12 14  1  0  0  0  0
 12  1  1  0  0  0  0
 13 15  2  0  0  0  0
 14 17  2  0  0  0  0
 15 14  1  0  0  0  0
 16 13  1  0  0  0  0
 16 18  1  0  0  0  0
 18 12  2  0  0  0  0
 19 10  1  0  0  0  0
 19 20  1  0  0  0  0
 20 21  2  0  0  0  0
 23 20  1  0  0  0  0
 23 22  1  1  0  0  0
 24 23  1  0  0  0  0
 25 24  1  0  0  0  0
M  END
>  <MODEL>
3

>  <REMARK>
 VINA RESULT:      -6.8      2.742      6.813
  Name = 
  4 active torsions:
  status: ('A' for Active; 'I' for Inactive)
    1  A    between atoms: C_1  and  C_5
    2  A    between atoms: C_2  and  C_21
    3  A    between atoms: N_6  and  C_23
    4  A    between atoms: C_15  and  C_21
                            x       y       z     vdW  Elec       q    Type
                         _______ _______ _______ _____ _____    ______ ____

>  <TORSDO>
F 4

$$$$
=
 OpenBabel11052417263D

 25 27  0  0  1  0  0  0  0  0999 V2000
  185.1820  178.2540  144.1420 C   0  0  0  0  0  0  0  0  0  0  0  0
  186.1750  177.9170  143.1920 C   0  0  0  0  0  0  0  0  0  0  0  0
  183.5730  178.3870  142.3980 C   0  0  0  0  0  3  0  0  0  0  0  0
  184.5070  178.0560  141.4740 N   0  0  0  0  0  0  0  0  0  0  0  0
  186.7580  177.4930  140.8600 C   0  0  0  0  0  0  0  0  0  0  0  0
  186.3940  177.3760  139.4190 C   0  0  0  0  0  1  0  0  0  0  0  0
  187.5150  177.7050  143.5460 C   0  0  0  0  0  3  0  0  0  0  0  0
  183.9120  178.4840  143.7090 N   0  0  0  0  0  0  0  0  0  0  0  0
  188.0850  177.2770  141.2400 C   0  0  0  0  0  3  0  0  0  0  0  0
  188.4730  177.3850  142.5810 C   0  0  0  0  0  0  0  0  0  0  0  0
  185.7970  177.8210  141.8330 C   0  0  0  0  0  0  0  0  0  0  0  0
  185.4580  178.3680  145.5990 C   0  0  0  0  0  0  0  0  0  0  0  0
  186.3490  178.4120  148.3130 C   0  0  0  0  0  3  0  0  0  0  0  0
  185.4890  177.1690  146.4660 C   0  0  0  0  0  0  0  0  0  0  0  0
  186.0350  177.2680  147.7850 N   0  0  0  0  0  0  0  0  0  0  0  0
  186.0790  179.7150  147.6080 C   0  0  0  0  0  2  0  0  0  0  0  0
  185.0690  176.0580  146.0500 O   0  0  0  0  0  0  0  0  0  0  0  0
  185.8050  179.5420  146.1370 C   0  0  0  0  0  3  0  0  0  0  0  0
  189.8280  177.1720  142.9990 N   0  0  0  0  0  2  0  0  0  0  0  0
  190.3970  175.9460  143.4750 C   0  0  0  0  0  0  0  0  0  0  0  0
  189.7040  174.8960  143.5560 O   0  0  0  0  0  0  0  0  0  0  0  0
  192.7340  176.3280  142.6970 C   0  0  0  0  0  1  0  0  0  0  0  0
  191.8420  175.9240  143.8590 C   0  0  1  0  0  3  0  0  0  0  0  0
  192.1180  176.7710  145.0970 C   0  0  0  0  0  2  0  0  0  0  0  0
  191.7660  176.0870  146.2640 O   0  0  0  0  0  1  0  0  0  0  0  0
  1 12  1  0  0  0  0
  2  7  1  0  0  0  0
  2  1  2  0  0  0  0
  3  8  2  0  0  0  0
  4 11  2  0  0  0  0
  4  3  1  0  0  0  0
  5  9  2  0  0  0  0
  5 11  1  0  0  0  0
  6  5  1  0  0  0  0
  8  1  1  0  0  0  0
  9 10  1  0  0  0  0
 10 19  1  0  0  0  0
 10  7  2  0  0  0  0
 11  2  1  0  0  0  0
 12 18  2  0  0  0  0
 12 14  1  0  0  0  0
 14 15  1  0  0  0  0
 15 13  2  0  0  0  0
 16 13  1  0  0  0  0
 17 14  2  0  0  0  0
 18 16  1  0  0  0  0
 19 20  1  0  0  0  0
 20 21  2  0  0  0  0
 20 23  1  0  0  0  0
 23 22  1  6  0  0  0
 23 24  1  0  0  0  0
 24 25  1  0  0  0  0
M  END
>  <MODEL>
4

>  <REMARK>
 VINA RESULT:      -6.6      2.883      4.529
  Name = 
  4 active torsions:
  status: ('A' for Active; 'I' for Inactive)
    1  A    between atoms: C_1  and  C_5
    2  A    between atoms: C_2  and  C_21
    3  A    between atoms: N_6  and  C_23
    4  A    between atoms: C_15  and  C_21
                            x       y       z     vdW  Elec       q    Type
                         _______ _______ _______ _____ _____    ______ ____

>  <TORSDO>
F 4

$$$$
=
 OpenBabel11052417263D

 25 27  0  0  1  0  0  0  0  0999 V2000
  189.6870  175.0580  144.8460 C   0  0  0  0  0  0  0  0  0  0  0  0
  188.4370  175.7070  144.9710 C   0  0  0  0  0  0  0  0  0  0  0  0
  189.9330  175.0960  147.2090 C   0  0  0  0  0  3  0  0  0  0  0  0
  188.7320  175.7080  147.3510 N   0  0  0  0  0  0  0  0  0  0  0  0
  186.7370  176.6750  146.4310 C   0  0  0  0  0  0  0  0  0  0  0  0
  186.2140  177.0180  147.7850 C   0  0  0  0  0  1  0  0  0  0  0  0
  187.6600  176.0680  143.8600 C   0  0  0  0  0  3  0  0  0  0  0  0
  190.3970  174.7800  145.9730 N   0  0  0  0  0  0  0  0  0  0  0  0
  185.9780  177.0150  145.3090 C   0  0  0  0  0  3  0  0  0  0  0  0
  186.4340  176.7180  144.0190 C   0  0  0  0  0  0  0  0  0  0  0  0
  187.9730  176.0250  146.2690 C   0  0  0  0  0  0  0  0  0  0  0  0
  190.2680  174.6600  143.5350 C   0  0  0  0  0  0  0  0  0  0  0  0
  191.7330  173.8470  141.2220 C   0  0  0  0  0  3  0  0  0  0  0  0
  191.2220  175.5390  142.8250 C   0  0  0  0  0  0  0  0  0  0  0  0
  191.9790  175.0180  141.7280 N   0  0  0  0  0  0  0  0  0  0  0  0
  190.5840  172.9990  141.6980 C   0  0  0  0  0  2  0  0  0  0  0  0
  191.4000  176.7320  143.1900 O   0  0  0  0  0  0  0  0  0  0  0  0
  190.0350  173.4450  143.0270 C   0  0  0  0  0  3  0  0  0  0  0  0
  185.6790  177.0590  142.8490 N   0  0  0  0  0  2  0  0  0  0  0  0
  185.5520  178.3590  142.2580 C   0  0  0  0  0  0  0  0  0  0  0  0
  186.1430  179.3570  142.7500 O   0  0  0  0  0  0  0  0  0  0  0  0
  185.2950  177.7230  139.8610 C   0  0  0  0  0  1  0  0  0  0  0  0
  184.7180  178.5110  141.0250 C   0  0  1  0  0  3  0  0  0  0  0  0
  183.2580  178.1510  141.2760 C   0  0  0  0  0  2  0  0  0  0  0  0
  182.5980  177.8600  140.0780 O   0  0  0  0  0  1  0  0  0  0  0  0
  1  2  2  0  0  0  0
  1  8  1  0  0  0  0
  2 11  1  0  0  0  0
  3  4  1  0  0  0  0
  5  6  1  0  0  0  0
  7 10  2  0  0  0  0
  7  2  1  0  0  0  0
  8  3  2  0  0  0  0
  9  5  2  0  0  0  0
 10  9  1  0  0  0  0
 11  5  1  0  0  0  0
 11  4  2  0  0  0  0
 12  1  1  0  0  0  0
 13 16  1  0  0  0  0
 13 15  2  0  0  0  0
 14 17  2  0  0  0  0
 14 12  1  0  0  0  0
 15 14  1  0  0  0  0
 16 18  1  0  0  0  0
 18 12  2  0  0  0  0
 19 10  1  0  0  0  0
 20 21  2  0  0  0  0
 20 19  1  0  0  0  0
 23 22  1  6  0  0  0
 23 24  1  0  0  0  0
 23 20  1  0  0  0  0
 25 24  1  0  0  0  0
M  END
>  <MODEL>
5

>  <REMARK>
 VINA RESULT:      -6.4      2.643      4.945
  Name = 
  4 active torsions:
  status: ('A' for Active; 'I' for Inactive)
    1  A    between atoms: C_1  and  C_5
    2  A    between atoms: C_2  and  C_21
    3  A    between atoms: N_6  and  C_23
    4  A    between atoms: C_15  and  C_21
                            x       y       z     vdW  Elec       q    Type
                         _______ _______ _______ _____ _____    ______ ____

>  <TORSDO>
F 4

$$$$
=
 OpenBabel11052417263D

 25 27  0  0  1  0  0  0  0  0999 V2000
  189.9360  176.5070  145.6570 C   0  0  0  0  0  0  0  0  0  0  0  0
  188.8950  176.3390  144.7140 C   0  0  0  0  0  0  0  0  0  0  0  0
  188.4510  177.7160  147.0660 C   0  0  0  0  0  3  0  0  0  0  0  0
  187.4380  177.5550  146.1800 N   0  0  0  0  0  0  0  0  0  0  0  0
  186.5680  176.7400  144.0970 C   0  0  0  0  0  0  0  0  0  0  0  0
  185.2140  177.2970  144.3820 C   0  0  0  0  0  1  0  0  0  0  0  0
  189.0850  175.6780  143.4920 C   0  0  0  0  0  3  0  0  0  0  0  0
  189.6780  177.1990  146.8010 N   0  0  0  0  0  0  0  0  0  0  0  0
  186.7800  176.0690  142.8910 C   0  0  0  0  0  3  0  0  0  0  0  0
  188.0370  175.5370  142.5790 C   0  0  0  0  0  0  0  0  0  0  0  0
  187.6250  176.8850  145.0120 C   0  0  0  0  0  0  0  0  0  0  0  0
  191.3060  175.9630  145.4590 C   0  0  0  0  0  0  0  0  0  0  0  0
  194.0580  175.2050  145.3450 C   0  0  0  0  0  3  0  0  0  0  0  0
  192.3320  176.7290  144.7180 C   0  0  0  0  0  0  0  0  0  0  0  0
  193.7030  176.3240  144.7900 N   0  0  0  0  0  0  0  0  0  0  0  0
  193.0470  174.2210  145.8710 C   0  0  0  0  0  2  0  0  0  0  0  0
  192.0210  177.7490  144.0480 O   0  0  0  0  0  0  0  0  0  0  0  0
  191.6780  174.8230  146.0510 C   0  0  0  0  0  3  0  0  0  0  0  0
  188.2850  174.8470  141.3470 N   0  0  0  0  0  2  0  0  0  0  0  0
  188.2050  173.4330  141.1240 C   0  0  0  0  0  0  0  0  0  0  0  0
  187.8790  172.6460  142.0530 O   0  0  0  0  0  0  0  0  0  0  0  0
  188.3430  173.9800  138.6950 C   0  0  0  0  0  1  0  0  0  0  0  0
  188.4960  172.9020  139.7560 C   0  0  1  0  0  3  0  0  0  0  0  0
  189.8640  172.2340  139.6810 C   0  0  0  0  0  2  0  0  0  0  0  0
  190.8900  173.1820  139.7240 O   0  0  0  0  0  1  0  0  0  0  0  0
  1  8  1  0  0  0  0
  2 11  1  0  0  0  0
  2  1  2  0  0  0  0
  4  3  1  0  0  0  0
  5  6  1  0  0  0  0
  5 11  1  0  0  0  0
  7  2  1  0  0  0  0
  8  3  2  0  0  0  0
  9  5  2  0  0  0  0
 10  9  1  0  0  0  0
 10  7  2  0  0  0  0
 11  4  2  0  0  0  0
 12  1  1  0  0  0  0
 12 18  2  0  0  0  0
 13 16  1  0  0  0  0
 14 15  1  0  0  0  0
 14 12  1  0  0  0  0
 15 13  2  0  0  0  0
 16 18  1  0  0  0  0
 17 14  2  0  0  0  0
 19 10  1  0  0  0  0
 20 19  1  0  0  0  0
 20 21  2  0  0  0  0
 23 22  1  6  0  0  0
 23 20  1  0  0  0  0
 24 25  1  0  0  0  0
 24 23  1  0  0  0  0
M  END
>  <MODEL>
6

>  <REMARK>
 VINA RESULT:      -6.4      1.887      2.593
  Name = 
  4 active torsions:
  status: ('A' for Active; 'I' for Inactive)
    1  A    between atoms: C_1  and  C_5
    2  A    between atoms: C_2  and  C_21
    3  A    between atoms: N_6  and  C_23
    4  A    between atoms: C_15  and  C_21
                            x       y       z     vdW  Elec       q    Type
                         _______ _______ _______ _____ _____    ______ ____

>  <TORSDO>
F 4

$$$$
=
 OpenBabel11052417263D

 25 27  0  0  1  0  0  0  0  0999 V2000
  186.3580  176.5990  143.2580 C   0  0  0  0  0  0  0  0  0  0  0  0
  186.8940  176.9380  144.5220 C   0  0  0  0  0  0  0  0  0  0  0  0
  184.5020  178.0250  143.6740 C   0  0  0  0  0  3  0  0  0  0  0  0
  185.0050  178.3700  144.8840 N   0  0  0  0  0  0  0  0  0  0  0  0
  186.6800  178.2080  146.5960 C   0  0  0  0  0  0  0  0  0  0  0  0
  185.9560  179.1720  147.4720 C   0  0  0  0  0  1  0  0  0  0  0  0
  188.0880  176.3830  145.0070 C   0  0  0  0  0  3  0  0  0  0  0  0
  185.1720  177.1510  142.8800 N   0  0  0  0  0  0  0  0  0  0  0  0
  187.8760  177.6490  147.0520 C   0  0  0  0  0  3  0  0  0  0  0  0
  188.5840  176.7330  146.2650 C   0  0  0  0  0  0  0  0  0  0  0  0
  186.1790  177.8510  145.3310 C   0  0  0  0  0  0  0  0  0  0  0  0
  187.0290  175.6640  142.3150 C   0  0  0  0  0  0  0  0  0  0  0  0
  188.6670  174.0410  140.6300 C   0  0  0  0  0  3  0  0  0  0  0  0
  187.6520  176.1560  141.0670 C   0  0  0  0  0  0  0  0  0  0  0  0
  188.5300  175.2980  140.3320 N   0  0  0  0  0  0  0  0  0  0  0  0
  187.8490  173.3850  141.7090 C   0  0  0  0  0  2  0  0  0  0  0  0
  187.4430  177.3280  140.6560 O   0  0  0  0  0  0  0  0  0  0  0  0
  187.1920  174.3760  142.6340 C   0  0  0  0  0  3  0  0  0  0  0  0
  189.8120  176.1400  146.7100 N   0  0  0  0  0  2  0  0  0  0  0  0
  191.1160  176.3460  146.1510 C   0  0  0  0  0  0  0  0  0  0  0  0
  191.2890  177.1220  145.1730 O   0  0  0  0  0  0  0  0  0  0  0  0
  192.6350  174.3750  145.9960 C   0  0  0  0  0  1  0  0  0  0  0  0
  192.2820  175.6380  146.7640 C   0  0  1  0  0  3  0  0  0  0  0  0
  193.4910  176.5550  146.9170 C   0  0  0  0  0  2  0  0  0  0  0  0
  194.6510  175.9450  146.4310 O   0  0  0  0  0  1  0  0  0  0  0  0
  1  2  1  0  0  0  0
  2  7  2  0  0  0  0
  2 11  1  0  0  0  0
  3  4  2  0  0  0  0
  4 11  1  0  0  0  0
  5  9  1  0  0  0  0
  5  6  1  0  0  0  0
  7 10  1  0  0  0  0
  8  1  2  0  0  0  0
  8  3  1  0  0  0  0
 10 19  1  0  0  0  0
 10  9  2  0  0  0  0
 11  5  2  0  0  0  0
 12 18  2  0  0  0  0
 12  1  1  0  0  0  0
 13 16  1  0  0  0  0
 14 12  1  0  0  0  0
 15 13  2  0  0  0  0
 15 14  1  0  0  0  0
 16 18  1  0  0  0  0
 17 14  2  0  0  0  0
 20 19  1  0  0  0  0
 20 23  1  0  0  0  0
 21 20  2  0  0  0  0
 23 22  1  6  0  0  0
 23 24  1  0  0  0  0
 25 24  1  0  0  0  0
M  END
>  <MODEL>
7

>  <REMARK>
 VINA RESULT:      -6.4      1.952      5.695
  Name = 
  4 active torsions:
  status: ('A' for Active; 'I' for Inactive)
    1  A    between atoms: C_1  and  C_5
    2  A    between atoms: C_2  and  C_21
    3  A    between atoms: N_6  and  C_23
    4  A    between atoms: C_15  and  C_21
                            x       y       z     vdW  Elec       q    Type
                         _______ _______ _______ _____ _____    ______ ____

>  <TORSDO>
F 4

$$$$
=
 OpenBabel11052417263D

 25 27  0  0  1  0  0  0  0  0999 V2000
  186.7530  177.4880  144.4400 C   0  0  0  0  0  0  0  0  0  0  0  0
  187.7400  176.4790  144.5290 C   0  0  0  0  0  0  0  0  0  0  0  0
  186.9630  177.8860  146.7730 C   0  0  0  0  0  3  0  0  0  0  0  0
  187.9190  176.9300  146.8770 N   0  0  0  0  0  0  0  0  0  0  0  0
  189.3030  175.2200  145.9180 C   0  0  0  0  0  0  0  0  0  0  0  0
  189.9410  174.9240  147.2330 C   0  0  0  0  0  1  0  0  0  0  0  0
  188.1400  175.7150  143.4220 C   0  0  0  0  0  3  0  0  0  0  0  0
  186.3930  178.1540  145.5710 N   0  0  0  0  0  0  0  0  0  0  0  0
  189.6900  174.4800  144.7990 C   0  0  0  0  0  3  0  0  0  0  0  0
  189.1110  174.7190  143.5470 C   0  0  0  0  0  0  0  0  0  0  0  0
  188.3210  176.2180  145.7910 C   0  0  0  0  0  0  0  0  0  0  0  0
  186.0850  177.8600  143.1640 C   0  0  0  0  0  0  0  0  0  0  0  0
  184.9390  178.2160  140.5720 C   0  0  0  0  0  3  0  0  0  0  0  0
  186.8750  178.2240  141.9670 C   0  0  0  0  0  0  0  0  0  0  0  0
  186.2300  178.2930  140.6910 N   0  0  0  0  0  0  0  0  0  0  0  0
  184.0320  178.1340  141.7700 C   0  0  0  0  0  2  0  0  0  0  0  0
  188.1120  178.4460  142.0500 O   0  0  0  0  0  0  0  0  0  0  0  0
  184.7580  177.7550  143.0330 C   0  0  0  0  0  3  0  0  0  0  0  0
  189.4860  173.9730  142.3810 N   0  0  0  0  0  2  0  0  0  0  0  0
  188.6850  173.0110  141.6840 C   0  0  0  0  0  0  0  0  0  0  0  0
  187.5130  172.7430  142.0630 O   0  0  0  0  0  0  0  0  0  0  0  0
  188.4550  172.6650  139.2250 C   0  0  0  0  0  1  0  0  0  0  0  0
  189.2560  172.3390  140.4750 C   0  0  1  0  0  3  0  0  0  0  0  0
  190.7360  172.6570  140.2910 C   0  0  0  0  0  2  0  0  0  0  0  0
  190.9480  173.4080  139.1320 O   0  0  0  0  0  1  0  0  0  0  0  0
  1  2  2  0  0  0  0
  1  8  1  0  0  0  0
  2 11  1  0  0  0  0
  3  4  1  0  0  0  0
  5  6  1  0  0  0  0
  7 10  2  0  0  0  0
  7  2  1  0  0  0  0
  8  3  2  0  0  0  0
  9  5  2  0  0  0  0
 10  9  1  0  0  0  0
 11  5  1  0  0  0  0
 11  4  2  0  0  0  0
 12  1  1  0  0  0  0
 13 15  2  0  0  0  0
 13 16  1  0  0  0  0
 14 17  2  0  0  0  0
 14 12  1  0  0  0  0
 15 14  1  0  0  0  0
 16 18  1  0  0  0  0
 18 12  2  0  0  0  0
 19 10  1  0  0  0  0
 20 21  2  0  0  0  0
 20 19  1  0  0  0  0
 23 22  1  6  0  0  0
 23 20  1  0  0  0  0
 24 23  1  0  0  0  0
 25 24  1  0  0  0  0
M  END
>  <MODEL>
8

>  <REMARK>
 VINA RESULT:      -6.3      1.767      4.644
  Name = 
  4 active torsions:
  status: ('A' for Active; 'I' for Inactive)
    1  A    between atoms: C_1  and  C_5
    2  A    between atoms: C_2  and  C_21
    3  A    between atoms: N_6  and  C_23
    4  A    between atoms: C_15  and  C_21
                            x       y       z     vdW  Elec       q    Type
                         _______ _______ _______ _____ _____    ______ ____

>  <TORSDO>
F 4

$$$$
=
 OpenBabel11052417263D

 25 27  0  0  1  0  0  0  0  0999 V2000
  191.1990  174.3110  144.2700 C   0  0  0  0  0  0  0  0  0  0  0  0
  190.5990  175.3440  145.0270 C   0  0  0  0  0  0  0  0  0  0  0  0
  192.8880  174.0920  145.9280 C   0  0  0  0  0  3  0  0  0  0  0  0
  192.3210  175.0720  146.6730 N   0  0  0  0  0  0  0  0  0  0  0  0
  190.6280  176.7360  147.0320 C   0  0  0  0  0  0  0  0  0  0  0  0
  191.2270  177.1420  148.3360 C   0  0  0  0  0  1  0  0  0  0  0  0
  189.4560  176.0320  144.5900 C   0  0  0  0  0  3  0  0  0  0  0  0
  192.3310  173.7240  144.7460 N   0  0  0  0  0  0  0  0  0  0  0  0
  189.4850  177.3980  146.5800 C   0  0  0  0  0  3  0  0  0  0  0  0
  188.8950  177.0550  145.3580 C   0  0  0  0  0  0  0  0  0  0  0  0
  191.1960  175.7100  146.2550 C   0  0  0  0  0  0  0  0  0  0  0  0
  190.6520  173.8320  142.9730 C   0  0  0  0  0  0  0  0  0  0  0  0
  189.9340  172.6740  140.4620 C   0  0  0  0  0  3  0  0  0  0  0  0
  191.2840  174.2110  141.6910 C   0  0  0  0  0  0  0  0  0  0  0  0
  190.9240  173.5150  140.4940 N   0  0  0  0  0  0  0  0  0  0  0  0
  189.0480  172.4430  141.6570 C   0  0  0  0  0  2  0  0  0  0  0  0
  192.1560  175.1190  141.6420 O   0  0  0  0  0  0  0  0  0  0  0  0
  189.6490  172.9470  142.9420 C   0  0  0  0  0  3  0  0  0  0  0  0
  187.7230  177.7200  144.8670 N   0  0  0  0  0  2  0  0  0  0  0  0
  186.3620  177.4270  145.2090 C   0  0  0  0  0  0  0  0  0  0  0  0
  186.0810  176.5100  146.0280 O   0  0  0  0  0  0  0  0  0  0  0  0
  185.6150  179.7250  144.5970 C   0  0  0  0  0  1  0  0  0  0  0  0
  185.2720  178.2440  144.5930 C   0  0  1  0  0  3  0  0  0  0  0  0
  184.9150  177.7570  143.1920 C   0  0  0  0  0  2  0  0  0  0  0  0
  185.5830  178.5000  142.2150 O   0  0  0  0  0  1  0  0  0  0  0  0
  1  8  2  0  0  0  0
  1  2  1  0  0  0  0
  2 11  1  0  0  0  0
  3  4  2  0  0  0  0
  5  6  1  0  0  0  0
  7  2  2  0  0  0  0
  7 10  1  0  0  0  0
  8  3  1  0  0  0  0
  9  5  1  0  0  0  0
 10  9  2  0  0  0  0
 11  4  1  0  0  0  0
 11  5  2  0  0  0  0
 12  1  1  0  0  0  0
 13 15  2  0  0  0  0
 13 16  1  0  0  0  0
 14 12  1  0  0  0  0
 15 14  1  0  0  0  0
 16 18  1  0  0  0  0
 17 14  2  0  0  0  0
 18 12  2  0  0  0  0
 19 20  1  0  0  0  0
 19 10  1  0  0  0  0
 20 21  2  0  0  0  0
 23 22  1  6  0  0  0
 23 20  1  0  0  0  0
 24 23  1  0  0  0  0
 25 24  1  0  0  0  0
M  END
>  <MODEL>
9

>  <REMARK>
 VINA RESULT:      -6.3      2.617      6.436
  Name = 
  4 active torsions:
  status: ('A' for Active; 'I' for Inactive)
    1  A    between atoms: C_1  and  C_5
    2  A    between atoms: C_2  and  C_21
    3  A    between atoms: N_6  and  C_23
    4  A    between atoms: C_15  and  C_21
                            x       y       z     vdW  Elec       q    Type
                         _______ _______ _______ _____ _____    ______ ____

>  <TORSDO>
F 4

$$$$
