=
 OpenBabel11052420363D

 34 37  0  0  1  0  0  0  0  0999 V2000
  189.4820  177.3580  144.9890 N   0  0  2  0  0  0  0  0  0  0  0  0
  185.8290  177.0160  146.9440 C   0  0  0  0  0  2  0  0  0  0  0  0
  188.1760  176.1130  146.7070 C   0  0  2  0  0  3  0  0  0  0  0  0
  190.7780  177.2890  144.3120 C   0  0  2  0  0  3  0  0  0  0  0  0
  191.1850  178.6720  143.8340 C   0  0  0  0  0  1  0  0  0  0  0  0
  190.2320  176.4780  143.1560 C   0  0  2  0  0  3  0  0  0  0  0  0
  189.5700  176.5180  146.1940 C   0  0  2  0  0  3  0  0  0  0  0  0
  185.4920  176.6320  145.5040 C   0  0  0  0  0  2  0  0  0  0  0  0
  185.9290  177.7080  144.5160 C   0  0  1  0  0  3  0  0  0  0  0  0
  186.5110  177.0060  143.2980 C   0  0  0  0  0  2  0  0  0  0  0  0
  187.3160  177.3020  147.1320 C   0  0  0  0  0  2  0  0  0  0  0  0
  187.9520  177.4280  143.0720 C   0  0  0  0  0  2  0  0  0  0  0  0
  188.9110  176.5700  143.8920 C   0  0  2  0  0  3  0  0  0  0  0  0
  192.5600  174.3710  141.0190 C   0  0  0  0  0  2  0  0  0  0  0  0
  190.7760  175.0450  143.2140 C   0  0  1  0  0  3  0  0  0  0  0  0
  189.3520  172.6700  139.9010 C   0  0  0  0  0  0  0  0  0  0  0  0
  190.6710  173.1540  139.9130 C   0  0  0  0  0  3  0  0  0  0  0  0
  191.1320  173.9210  140.9860 C   0  0  0  0  0  0  0  0  0  0  0  0
  188.9660  173.7100  142.0600 C   0  0  0  0  0  3  0  0  0  0  0  0
  190.2790  174.1950  142.0680 C   0  0  0  0  0  0  0  0  0  0  0  0
  188.5070  172.9510  140.9790 C   0  0  0  0  0  3  0  0  0  0  0  0
  192.1920  175.0190  143.3150 O   0  0  0  0  0  0  0  0  0  0  0  0
  192.7510  175.4440  142.0900 C   0  0  0  0  0  2  0  0  0  0  0  0
  188.8610  171.9090  138.8370 O   0  0  0  0  0  0  0  0  0  0  0  0
  189.7370  169.8740  137.9230 C   0  0  0  0  0  1  0  0  0  0  0  0
  189.7000  171.3830  137.8170 C   0  0  0  0  0  2  0  0  0  0  0  0
  184.7540  178.6100  144.1170 C   0  0  0  0  0  3  0  0  0  0  0  0
  185.1650  180.0730  144.0970 C   0  0  0  0  0  1  0  0  0  0  0  0
  184.2370  178.2510  142.7340 C   0  0  0  0  0  1  0  0  0  0  0  0
  190.0150  178.2680  147.7830 O   0  0  0  0  0  1  0  0  0  0  0  0
  190.3980  177.1910  147.2550 C   0  0  0  0  0  0  0  0  0  0  0  0
  191.5920  176.6130  147.6620 O   0  0  0  0  0  0  0  0  0  0  0  0
  188.2110  175.0000  147.7530 C   0  0  0  0  0  2  0  0  0  0  0  0
  189.0360  173.9490  147.3450 O   0  0  0  0  0  1  0  0  0  0  0  0
  1  7  1  0  0  0  0
  2 11  1  0  0  0  0
  3 11  1  0  0  0  0
  3 33  1  0  0  0  0
  4  1  1  0  0  0  0
  5  4  1  0  0  0  0
  6 15  1  0  0  0  0
  6 13  1  0  0  0  0
  6  4  1  0  0  0  0
  7  3  1  0  0  0  0
  7 31  1  0  0  0  0
  8  2  1  0  0  0  0
  9  8  1  0  0  0  0
 10  9  1  0  0  0  0
 12 10  1  0  0  0  0
 12 13  1  0  0  0  0
 13  1  1  0  0  0  0
 14 23  1  0  0  0  0
 15 22  1  0  0  0  0
 16 17  2  0  0  0  0
 16 21  1  0  0  0  0
 17 18  1  0  0  0  0
 18 14  1  0  0  0  0
 18 20  2  0  0  0  0
 19 20  1  0  0  0  0
 20 15  1  0  0  0  0
 21 19  2  0  0  0  0
 23 22  1  0  0  0  0
 24 16  1  0  0  0  0
 26 25  1  0  0  0  0
 26 24  1  0  0  0  0
 27  9  1  0  0  0  0
 28 27  1  0  0  0  0
 29 27  1  0  0  0  0
 31 32  2  0  0  0  0
 31 30  1  0  0  0  0
 34 33  1  0  0  0  0
M  END
>  <MODEL>
1

>  <REMARK>
 VINA RESULT:      -7.4      0.000      0.000
  Name = 
  6 active torsions:
  status: ('A' for Active; 'I' for Inactive)
    1  A    between atoms: C_3  and  C_25
    2  A    between atoms: C_5  and  C_19
    3  A    between atoms: C_6  and  C_18
    4  A    between atoms: C_7  and  O_11
    5  A    between atoms: O_11  and  C_21
    6  A    between atoms: C_12  and  C_20
                            x       y       z     vdW  Elec       q    Type
                         _______ _______ _______ _____ _____    ______ ____

>  <TORSDO>
F 6

$$$$
=
 OpenBabel11052420363D

 34 37  0  0  1  0  0  0  0  0999 V2000
  190.6580  174.7210  144.5060 N   0  0  2  0  0  0  0  0  0  0  0  0
  193.0260  173.3840  141.3620 C   0  0  0  0  0  2  0  0  0  0  0  0
  192.4920  175.2970  142.9210 C   0  0  2  0  0  3  0  0  0  0  0  0
  189.8310  175.3610  145.5290 C   0  0  2  0  0  3  0  0  0  0  0  0
  189.3370  174.3210  146.5200 C   0  0  0  0  0  1  0  0  0  0  0  0
  188.7310  175.7110  144.5490 C   0  0  2  0  0  3  0  0  0  0  0  0
  191.8260  175.5870  144.2790 C   0  0  2  0  0  3  0  0  0  0  0  0
  191.6290  173.4420  140.7470 C   0  0  0  0  0  2  0  0  0  0  0  0
  190.6180  172.6440  141.5640 C   0  0  1  0  0  3  0  0  0  0  0  0
  189.3250  173.4440  141.6070 C   0  0  0  0  0  2  0  0  0  0  0  0
  193.0420  173.8760  142.8060 C   0  0  0  0  0  2  0  0  0  0  0  0
  188.9390  173.7640  143.0400 C   0  0  0  0  0  2  0  0  0  0  0  0
  189.6200  175.0410  143.5210 C   0  0  2  0  0  3  0  0  0  0  0  0
  186.2340  178.4950  145.2090 C   0  0  0  0  0  2  0  0  0  0  0  0
  188.6920  177.2260  144.3160 C   0  0  1  0  0  3  0  0  0  0  0  0
  185.6450  178.3190  141.4600 C   0  0  0  0  0  0  0  0  0  0  0  0
  185.4440  178.5410  142.8320 C   0  0  0  0  0  3  0  0  0  0  0  0
  186.4320  178.1880  143.7560 C   0  0  0  0  0  0  0  0  0  0  0  0
  187.8420  177.4090  141.9420 C   0  0  0  0  0  3  0  0  0  0  0  0
  187.6390  177.6270  143.3100 C   0  0  0  0  0  0  0  0  0  0  0  0
  186.8470  177.7540  141.0230 C   0  0  0  0  0  3  0  0  0  0  0  0
  188.5620  177.9460  145.5330 O   0  0  0  0  0  0  0  0  0  0  0  0
  187.2650  177.7450  146.0520 C   0  0  0  0  0  2  0  0  0  0  0  0
  184.6710  178.6520  140.5140 O   0  0  0  0  0  0  0  0  0  0  0  0
  182.3340  178.3050  140.9150 C   0  0  0  0  0  1  0  0  0  0  0  0
  183.5750  177.8010  140.2090 C   0  0  0  0  0  2  0  0  0  0  0  0
  190.3820  171.2540  140.9570 C   0  0  0  0  0  3  0  0  0  0  0  0
  190.8250  171.2060  139.5050 C   0  0  0  0  0  1  0  0  0  0  0  0
  191.1550  170.1900  141.7180 C   0  0  0  0  0  1  0  0  0  0  0  0
  193.3910  176.5120  145.8540 O   0  0  0  0  0  0  0  0  0  0  0  0
  192.7950  175.4880  145.4260 C   0  0  0  0  0  0  0  0  0  0  0  0
  193.0280  174.2570  146.0230 O   0  0  0  0  0  1  0  0  0  0  0  0
  193.5030  176.3620  142.4990 C   0  0  0  0  0  2  0  0  0  0  0  0
  194.8120  175.9370  142.7350 O   0  0  0  0  0  1  0  0  0  0  0  0
  1  4  1  0  0  0  0
  2 11  1  0  0  0  0
  3  7  1  0  0  0  0
  4  5  1  0  0  0  0
  6  4  1  0  0  0  0
  7  1  1  0  0  0  0
  7 31  1  0  0  0  0
  8  2  1  0  0  0  0
  8  9  1  0  0  0  0
  9 10  1  0  0  0  0
 10 12  1  0  0  0  0
 11  3  1  0  0  0  0
 12 13  1  0  0  0  0
 13  1  1  0  0  0  0
 13  6  1  0  0  0  0
 14 23  1  0  0  0  0
 15  6  1  0  0  0  0
 15 22  1  0  0  0  0
 16 17  1  0  0  0  0
 17 18  2  0  0  0  0
 18 14  1  0  0  0  0
 19 20  2  0  0  0  0
 20 18  1  0  0  0  0
 20 15  1  0  0  0  0
 21 16  2  0  0  0  0
 21 19  1  0  0  0  0
 22 23  1  0  0  0  0
 24 16  1  0  0  0  0
 26 24  1  0  0  0  0
 26 25  1  0  0  0  0
 27  9  1  0  0  0  0
 27 29  1  0  0  0  0
 28 27  1  0  0  0  0
 31 30  2  0  0  0  0
 31 32  1  0  0  0  0
 33 34  1  0  0  0  0
 33  3  1  0  0  0  0
M  END
>  <MODEL>
2

>  <REMARK>
 VINA RESULT:      -7.3      2.346      6.832
  Name = 
  6 active torsions:
  status: ('A' for Active; 'I' for Inactive)
    1  A    between atoms: C_3  and  C_25
    2  A    between atoms: C_5  and  C_19
    3  A    between atoms: C_6  and  C_18
    4  A    between atoms: C_7  and  O_11
    5  A    between atoms: O_11  and  C_21
    6  A    between atoms: C_12  and  C_20
                            x       y       z     vdW  Elec       q    Type
                         _______ _______ _______ _____ _____    ______ ____

>  <TORSDO>
F 6

$$$$
=
 OpenBabel11052420363D

 34 37  0  0  1  0  0  0  0  0999 V2000
  191.1730  173.1140  143.5490 N   0  0  2  0  0  0  0  0  0  0  0  0
  193.6230  173.1000  140.1910 C   0  0  0  0  0  2  0  0  0  0  0  0
  193.2510  174.0180  142.5140 C   0  0  2  0  0  3  0  0  0  0  0  0
  190.3550  173.3020  144.7480 C   0  0  2  0  0  3  0  0  0  0  0  0
  189.5760  172.0320  145.0470 C   0  0  0  0  0  1  0  0  0  0  0  0
  189.4540  174.3210  144.0830 C   0  0  2  0  0  3  0  0  0  0  0  0
  192.4910  173.7100  143.8170 C   0  0  2  0  0  3  0  0  0  0  0  0
  192.3380  173.7520  139.6830 C   0  0  0  0  0  2  0  0  0  0  0  0
  191.1170  172.8810  139.9560 C   0  0  1  0  0  3  0  0  0  0  0  0
  189.9860  173.7970  140.3960 C   0  0  0  0  0  2  0  0  0  0  0  0
  193.5560  172.7740  141.6800 C   0  0  0  0  0  2  0  0  0  0  0  0
  189.4960  173.4170  141.7830 C   0  0  0  0  0  2  0  0  0  0  0  0
  190.3270  174.0980  142.8650 C   0  0  2  0  0  3  0  0  0  0  0  0
  187.8270  176.4680  146.7600 C   0  0  0  0  0  2  0  0  0  0  0  0
  189.7060  175.7140  144.6730 C   0  0  1  0  0  3  0  0  0  0  0  0
  186.4580  178.4210  143.8030 C   0  0  0  0  0  0  0  0  0  0  0  0
  186.5970  177.8690  145.0870 C   0  0  0  0  0  3  0  0  0  0  0  0
  187.6490  176.9940  145.3690 C   0  0  0  0  0  0  0  0  0  0  0  0
  188.4490  177.2310  143.0900 C   0  0  0  0  0  3  0  0  0  0  0  0
  188.5850  176.6790  144.3690 C   0  0  0  0  0  0  0  0  0  0  0  0
  187.3890  178.0990  142.8110 C   0  0  0  0  0  3  0  0  0  0  0  0
  189.9910  175.6560  146.0640 O   0  0  0  0  0  0  0  0  0  0  0  0
  188.8160  175.3030  146.7620 C   0  0  0  0  0  2  0  0  0  0  0  0
  185.4100  179.2910  143.4890 O   0  0  0  0  0  0  0  0  0  0  0  0
  183.6340  178.2110  142.2950 C   0  0  0  0  0  1  0  0  0  0  0  0
  184.0430  178.9090  143.5750 C   0  0  0  0  0  2  0  0  0  0  0  0
  190.7160  172.0770  138.7110 C   0  0  0  0  0  3  0  0  0  0  0  0
  190.4860  170.6140  139.0520 C   0  0  0  0  0  1  0  0  0  0  0  0
  189.4360  172.6230  138.1010 C   0  0  0  0  0  1  0  0  0  0  0  0
  193.9970  173.3560  145.6590 O   0  0  0  0  0  1  0  0  0  0  0  0
  193.2880  172.8430  144.7540 C   0  0  0  0  0  0  0  0  0  0  0  0
  193.2340  171.4610  144.6230 O   0  0  0  0  0  0  0  0  0  0  0  0
  194.4730  174.9120  142.7180 C   0  0  0  0  0  2  0  0  0  0  0  0
  194.1490  176.0470  143.4660 O   0  0  0  0  0  1  0  0  0  0  0  0
  1  7  1  0  0  0  0
  1  4  1  0  0  0  0
  2 11  1  0  0  0  0
  3 33  1  0  0  0  0
  3  7  1  0  0  0  0
  4  5  1  0  0  0  0
  6 15  1  0  0  0  0
  6  4  1  0  0  0  0
  7 31  1  0  0  0  0
  8  9  1  0  0  0  0
  8  2  1  0  0  0  0
  9 10  1  0  0  0  0
 10 12  1  0  0  0  0
 11  3  1  0  0  0  0
 12 13  1  0  0  0  0
 13  1  1  0  0  0  0
 13  6  1  0  0  0  0
 14 23  1  0  0  0  0
 15 22  1  0  0  0  0
 16 17  1  0  0  0  0
 17 18  2  0  0  0  0
 18 14  1  0  0  0  0
 19 20  2  0  0  0  0
 20 15  1  0  0  0  0
 20 18  1  0  0  0  0
 21 19  1  0  0  0  0
 21 16  2  0  0  0  0
 22 23  1  0  0  0  0
 24 26  1  0  0  0  0
 24 16  1  0  0  0  0
 25 26  1  0  0  0  0
 27 28  1  0  0  0  0
 27  9  1  0  0  0  0
 29 27  1  0  0  0  0
 31 30  1  0  0  0  0
 32 31  2  0  0  0  0
 33 34  1  0  0  0  0
M  END
>  <MODEL>
3

>  <REMARK>
 VINA RESULT:      -6.8      2.275      7.323
  Name = 
  6 active torsions:
  status: ('A' for Active; 'I' for Inactive)
    1  A    between atoms: C_3  and  C_25
    2  A    between atoms: C_5  and  C_19
    3  A    between atoms: C_6  and  C_18
    4  A    between atoms: C_7  and  O_11
    5  A    between atoms: O_11  and  C_21
    6  A    between atoms: C_12  and  C_20
                            x       y       z     vdW  Elec       q    Type
                         _______ _______ _______ _____ _____    ______ ____

>  <TORSDO>
F 6

$$$$
=
 OpenBabel11052420363D

 34 37  0  0  1  0  0  0  0  0999 V2000
  188.7150  174.9810  143.7480 N   0  0  2  0  0  0  0  0  0  0  0  0
  185.5570  177.6580  143.3770 C   0  0  0  0  0  2  0  0  0  0  0  0
  187.6840  176.7650  142.3490 C   0  0  2  0  0  3  0  0  0  0  0  0
  189.9340  174.1720  143.7980 C   0  0  2  0  0  3  0  0  0  0  0  0
  189.6640  172.8750  144.5420 C   0  0  0  0  0  1  0  0  0  0  0  0
  190.6540  175.1500  144.7020 C   0  0  2  0  0  3  0  0  0  0  0  0
  188.6110  175.5360  142.3900 C   0  0  2  0  0  3  0  0  0  0  0  0
  186.3180  178.1820  144.5950 C   0  0  0  0  0  2  0  0  0  0  0  0
  186.5080  177.0980  145.6500 C   0  0  1  0  0  3  0  0  0  0  0  0
  187.9150  177.2420  146.2100 C   0  0  0  0  0  2  0  0  0  0  0  0
  186.2420  176.4500  142.7450 C   0  0  0  0  0  2  0  0  0  0  0  0
  188.7120  175.9670  145.9950 C   0  0  0  0  0  2  0  0  0  0  0  0
  189.3740  175.9570  144.6210 C   0  0  2  0  0  3  0  0  0  0  0  0
  193.3830  174.0640  142.2950 C   0  0  0  0  0  2  0  0  0  0  0  0
  191.7780  175.8520  143.9320 C   0  0  1  0  0  3  0  0  0  0  0  0
  195.6730  174.5720  145.2830 C   0  0  0  0  0  0  0  0  0  0  0  0
  195.1540  174.1020  144.0660 C   0  0  0  0  0  3  0  0  0  0  0  0
  193.8940  174.5170  143.6280 C   0  0  0  0  0  0  0  0  0  0  0  0
  193.6680  175.8980  145.6100 C   0  0  0  0  0  3  0  0  0  0  0  0
  193.1500  175.4260  144.3990 C   0  0  0  0  0  0  0  0  0  0  0  0
  194.9240  175.4720  146.0490 C   0  0  0  0  0  3  0  0  0  0  0  0
  191.6290  175.7060  142.5270 O   0  0  0  0  0  0  0  0  0  0  0  0
  191.8900  174.3650  142.1720 C   0  0  0  0  0  2  0  0  0  0  0  0
  196.9260  174.1660  145.7510 O   0  0  0  0  0  0  0  0  0  0  0  0
  196.8160  171.8030  146.1360 C   0  0  0  0  0  1  0  0  0  0  0  0
  197.5130  172.9220  145.3920 C   0  0  0  0  0  2  0  0  0  0  0  0
  185.4610  177.2150  146.7660 C   0  0  0  0  0  3  0  0  0  0  0  0
  186.1090  177.5730  148.0920 C   0  0  0  0  0  1  0  0  0  0  0  0
  184.4370  178.2890  146.4400 C   0  0  0  0  0  1  0  0  0  0  0  0
  187.4450  173.5290  141.7620 O   0  0  0  0  0  1  0  0  0  0  0  0
  188.1990  174.4730  141.4080 C   0  0  0  0  0  0  0  0  0  0  0  0
  188.6480  174.5400  140.0970 O   0  0  0  0  0  0  0  0  0  0  0  0
  187.7840  177.5600  141.0480 C   0  0  0  0  0  2  0  0  0  0  0  0
  186.6920  177.3050  140.2150 O   0  0  0  0  0  1  0  0  0  0  0  0
  1  4  1  0  0  0  0
  1 13  1  0  0  0  0
  2  8  1  0  0  0  0
  3  7  1  0  0  0  0
  3 11  1  0  0  0  0
  4  5  1  0  0  0  0
  4  6  1  0  0  0  0
  7  1  1  0  0  0  0
  8  9  1  0  0  0  0
  9 10  1  0  0  0  0
  9 27  1  0  0  0  0
 11  2  1  0  0  0  0
 12 10  1  0  0  0  0
 13  6  1  0  0  0  0
 13 12  1  0  0  0  0
 14 18  1  0  0  0  0
 15 20  1  0  0  0  0
 15  6  1  0  0  0  0
 16 24  1  0  0  0  0
 16 21  1  0  0  0  0
 17 16  2  0  0  0  0
 18 17  1  0  0  0  0
 18 20  2  0  0  0  0
 19 21  2  0  0  0  0
 20 19  1  0  0  0  0
 22 15  1  0  0  0  0
 23 14  1  0  0  0  0
 23 22  1  0  0  0  0
 26 24  1  0  0  0  0
 26 25  1  0  0  0  0
 27 28  1  0  0  0  0
 29 27  1  0  0  0  0
 31 30  1  0  0  0  0
 31  7  1  0  0  0  0
 32 31  2  0  0  0  0
 33  3  1  0  0  0  0
 34 33  1  0  0  0  0
M  END
>  <MODEL>
4

>  <REMARK>
 VINA RESULT:      -6.6      2.949      5.759
  Name = 
  6 active torsions:
  status: ('A' for Active; 'I' for Inactive)
    1  A    between atoms: C_3  and  C_25
    2  A    between atoms: C_5  and  C_19
    3  A    between atoms: C_6  and  C_18
    4  A    between atoms: C_7  and  O_11
    5  A    between atoms: O_11  and  C_21
    6  A    between atoms: C_12  and  C_20
                            x       y       z     vdW  Elec       q    Type
                         _______ _______ _______ _____ _____    ______ ____

>  <TORSDO>
F 6

$$$$
=
 OpenBabel11052420363D

 34 37  0  0  1  0  0  0  0  0999 V2000
  194.0270  173.9170  143.4680 N   0  0  2  0  0  0  0  0  0  0  0  0
  194.4910  174.0230  139.3390 C   0  0  0  0  0  2  0  0  0  0  0  0
  194.8700  175.2290  141.5250 C   0  0  2  0  0  3  0  0  0  0  0  0
  193.8350  174.0670  144.9120 C   0  0  2  0  0  3  0  0  0  0  0  0
  193.8480  172.7030  145.5790 C   0  0  0  0  0  1  0  0  0  0  0  0
  192.4110  174.5600  144.7620 C   0  0  2  0  0  3  0  0  0  0  0  0
  194.9680  174.9640  143.0390 C   0  0  2  0  0  3  0  0  0  0  0  0
  192.9750  174.0830  139.5220 C   0  0  0  0  0  2  0  0  0  0  0  0
  192.4640  172.9290  140.3780 C   0  0  1  0  0  3  0  0  0  0  0  0
  191.3920  173.4830  141.3040 C   0  0  0  0  0  2  0  0  0  0  0  0
  195.2340  174.0140  140.6720 C   0  0  0  0  0  2  0  0  0  0  0  0
  191.7720  173.2610  142.7580 C   0  0  0  0  0  2  0  0  0  0  0  0
  192.6530  174.3930  143.2750 C   0  0  2  0  0  3  0  0  0  0  0  0
  190.4250  176.6370  147.2440 C   0  0  0  0  0  2  0  0  0  0  0  0
  192.3260  176.0470  145.1250 C   0  0  1  0  0  3  0  0  0  0  0  0
  188.4510  177.6970  144.1760 C   0  0  0  0  0  0  0  0  0  0  0  0
  188.7930  177.4080  145.5070 C   0  0  0  0  0  3  0  0  0  0  0  0
  190.0480  176.8750  145.8140 C   0  0  0  0  0  0  0  0  0  0  0  0
  190.6430  176.9380  143.4630 C   0  0  0  0  0  3  0  0  0  0  0  0
  190.9800  176.6460  144.7890 C   0  0  0  0  0  0  0  0  0  0  0  0
  189.3830  177.4610  143.1600 C   0  0  0  0  0  3  0  0  0  0  0  0
  192.6870  176.2830  146.4790 O   0  0  0  0  0  0  0  0  0  0  0  0
  191.6790  175.7670  147.3220 C   0  0  0  0  0  2  0  0  0  0  0  0
  187.2000  178.2210  143.8380 O   0  0  0  0  0  0  0  0  0  0  0  0
  185.4190  179.7700  144.2520 C   0  0  0  0  0  1  0  0  0  0  0  0
  186.2540  178.6390  144.8130 C   0  0  0  0  0  2  0  0  0  0  0  0
  191.9030  171.7950  139.5090 C   0  0  0  0  0  3  0  0  0  0  0  0
  192.5320  170.4610  139.8750 C   0  0  0  0  0  1  0  0  0  0  0  0
  190.3990  171.6680  139.6860 C   0  0  0  0  0  1  0  0  0  0  0  0
  197.1350  175.5300  143.9140 O   0  0  0  0  0  1  0  0  0  0  0  0
  196.3700  174.6330  143.4730 C   0  0  0  0  0  0  0  0  0  0  0  0
  196.8210  173.3220  143.3950 O   0  0  0  0  0  0  0  0  0  0  0  0
  195.5870  176.5030  141.0820 C   0  0  0  0  0  2  0  0  0  0  0  0
  196.8350  176.2130  140.5270 O   0  0  0  0  0  1  0  0  0  0  0  0
  1  4  1  0  0  0  0
  2  8  1  0  0  0  0
  2 11  1  0  0  0  0
  3  7  1  0  0  0  0
  4  5  1  0  0  0  0
  6  4  1  0  0  0  0
  6 15  1  0  0  0  0
  7  1  1  0  0  0  0
  7 31  1  0  0  0  0
  8  9  1  0  0  0  0
  9 10  1  0  0  0  0
 10 12  1  0  0  0  0
 11  3  1  0  0  0  0
 12 13  1  0  0  0  0
 13  1  1  0  0  0  0
 13  6  1  0  0  0  0
 14 23  1  0  0  0  0
 15 22  1  0  0  0  0
 16 17  1  0  0  0  0
 17 18  2  0  0  0  0
 18 14  1  0  0  0  0
 19 20  2  0  0  0  0
 20 15  1  0  0  0  0
 20 18  1  0  0  0  0
 21 19  1  0  0  0  0
 21 16  2  0  0  0  0
 22 23  1  0  0  0  0
 24 16  1  0  0  0  0
 24 26  1  0  0  0  0
 25 26  1  0  0  0  0
 27 29  1  0  0  0  0
 27 28  1  0  0  0  0
 27  9  1  0  0  0  0
 31 30  1  0  0  0  0
 32 31  2  0  0  0  0
 33  3  1  0  0  0  0
 34 33  1  0  0  0  0
M  END
>  <MODEL>
5

>  <REMARK>
 VINA RESULT:      -6.5      2.834      7.948
  Name = 
  6 active torsions:
  status: ('A' for Active; 'I' for Inactive)
    1  A    between atoms: C_3  and  C_25
    2  A    between atoms: C_5  and  C_19
    3  A    between atoms: C_6  and  C_18
    4  A    between atoms: C_7  and  O_11
    5  A    between atoms: O_11  and  C_21
    6  A    between atoms: C_12  and  C_20
                            x       y       z     vdW  Elec       q    Type
                         _______ _______ _______ _____ _____    ______ ____

>  <TORSDO>
F 6

$$$$
=
 OpenBabel11052420363D

 34 37  0  0  1  0  0  0  0  0999 V2000
  192.9030  174.3970  143.2690 N   0  0  2  0  0  0  0  0  0  0  0  0
  194.3630  174.0810  139.3900 C   0  0  0  0  0  2  0  0  0  0  0  0
  194.2330  175.5010  141.4740 C   0  0  2  0  0  3  0  0  0  0  0  0
  192.3690  174.6930  144.5990 C   0  0  2  0  0  3  0  0  0  0  0  0
  192.1790  173.4030  145.3790 C   0  0  0  0  0  1  0  0  0  0  0  0
  191.0400  175.1750  144.0570 C   0  0  2  0  0  3  0  0  0  0  0  0
  193.9500  175.3900  142.9840 C   0  0  2  0  0  3  0  0  0  0  0  0
  192.8510  174.1660  139.1880 C   0  0  0  0  0  2  0  0  0  0  0  0
  192.1130  173.1080  140.0010 C   0  0  1  0  0  3  0  0  0  0  0  0
  190.8640  173.7580  140.5770 C   0  0  0  0  0  2  0  0  0  0  0  0
  194.7570  174.2040  140.8590 C   0  0  0  0  0  2  0  0  0  0  0  0
  190.8710  173.6820  142.0940 C   0  0  0  0  0  2  0  0  0  0  0  0
  191.6320  174.8570  142.6990 C   0  0  2  0  0  3  0  0  0  0  0  0
  188.8800  177.4780  146.1670 C   0  0  0  0  0  2  0  0  0  0  0  0
  190.9120  176.6920  144.2420 C   0  0  1  0  0  3  0  0  0  0  0  0
  187.0780  178.1420  142.8890 C   0  0  0  0  0  0  0  0  0  0  0  0
  187.3440  178.0130  144.2620 C   0  0  0  0  0  3  0  0  0  0  0  0
  188.5860  177.5440  144.7000 C   0  0  0  0  0  0  0  0  0  0  0  0
  189.3190  177.3520  142.3950 C   0  0  0  0  0  3  0  0  0  0  0  0
  189.5810  177.2200  143.7630 C   0  0  0  0  0  0  0  0  0  0  0  0
  188.0720  177.8110  141.9620 C   0  0  0  0  0  3  0  0  0  0  0  0
  191.1880  177.0870  145.5780 O   0  0  0  0  0  0  0  0  0  0  0  0
  190.1390  176.6490  146.4160 C   0  0  0  0  0  2  0  0  0  0  0  0
  185.8420  178.5980  142.4210 O   0  0  0  0  0  0  0  0  0  0  0  0
  183.5970  178.2920  141.6390 C   0  0  0  0  0  1  0  0  0  0  0  0
  184.6230  177.9180  142.6890 C   0  0  0  0  0  2  0  0  0  0  0  0
  191.7480  171.8940  139.1350 C   0  0  0  0  0  3  0  0  0  0  0  0
  192.5250  170.6610  139.5620 C   0  0  0  0  0  1  0  0  0  0  0  0
  190.2660  171.5750  139.2440 C   0  0  0  0  0  1  0  0  0  0  0  0
  195.5770  173.9130  143.9630 O   0  0  0  0  0  0  0  0  0  0  0  0
  195.1940  175.0990  143.7800 C   0  0  0  0  0  0  0  0  0  0  0  0
  195.9310  176.1490  144.3100 O   0  0  0  0  0  1  0  0  0  0  0  0
  195.0730  176.7210  141.0990 C   0  0  0  0  0  2  0  0  0  0  0  0
  196.4160  176.3760  140.9290 O   0  0  0  0  0  1  0  0  0  0  0  0
  1  4  1  0  0  0  0
  2 11  1  0  0  0  0
  3  7  1  0  0  0  0
  4  5  1  0  0  0  0
  6 15  1  0  0  0  0
  6  4  1  0  0  0  0
  7  1  1  0  0  0  0
  7 31  1  0  0  0  0
  8  2  1  0  0  0  0
  8  9  1  0  0  0  0
  9 10  1  0  0  0  0
 10 12  1  0  0  0  0
 11  3  1  0  0  0  0
 12 13  1  0  0  0  0
 13  1  1  0  0  0  0
 13  6  1  0  0  0  0
 14 23  1  0  0  0  0
 15 22  1  0  0  0  0
 16 17  1  0  0  0  0
 17 18  2  0  0  0  0
 18 14  1  0  0  0  0
 19 20  2  0  0  0  0
 20 15  1  0  0  0  0
 20 18  1  0  0  0  0
 21 19  1  0  0  0  0
 21 16  2  0  0  0  0
 22 23  1  0  0  0  0
 24 26  1  0  0  0  0
 24 16  1  0  0  0  0
 25 26  1  0  0  0  0
 27 29  1  0  0  0  0
 27 28  1  0  0  0  0
 27  9  1  0  0  0  0
 31 30  2  0  0  0  0
 31 32  1  0  0  0  0
 33  3  1  0  0  0  0
 34 33  1  0  0  0  0
M  END
>  <MODEL>
6

>  <REMARK>
 VINA RESULT:      -6.3      2.504      7.508
  Name = 
  6 active torsions:
  status: ('A' for Active; 'I' for Inactive)
    1  A    between atoms: C_3  and  C_25
    2  A    between atoms: C_5  and  C_19
    3  A    between atoms: C_6  and  C_18
    4  A    between atoms: C_7  and  O_11
    5  A    between atoms: O_11  and  C_21
    6  A    between atoms: C_12  and  C_20
                            x       y       z     vdW  Elec       q    Type
                         _______ _______ _______ _____ _____    ______ ____

>  <TORSDO>
F 6

$$$$
=
 OpenBabel11052420363D

 34 37  0  0  1  0  0  0  0  0999 V2000
  194.6670  175.3570  144.3450 N   0  0  2  0  0  0  0  0  0  0  0  0
  195.8980  171.7070  142.7820 C   0  0  0  0  0  2  0  0  0  0  0  0
  195.2520  174.0960  142.2770 C   0  0  2  0  0  3  0  0  0  0  0  0
  194.1300  176.6600  144.7380 C   0  0  2  0  0  3  0  0  0  0  0  0
  194.5880  177.0050  146.1450 C   0  0  0  0  0  1  0  0  0  0  0  0
  192.7000  176.1640  144.7630 C   0  0  2  0  0  3  0  0  0  0  0  0
  195.1330  175.4740  142.9540 C   0  0  2  0  0  3  0  0  0  0  0  0
  194.5040  171.4010  143.3260 C   0  0  0  0  0  2  0  0  0  0  0  0
  194.3710  171.7960  144.7930 C   0  0  1  0  0  3  0  0  0  0  0  0
  192.9970  172.4200  144.9800 C   0  0  0  0  0  2  0  0  0  0  0  0
  196.2730  173.1770  142.9470 C   0  0  0  0  0  2  0  0  0  0  0  0
  193.1200  173.8420  145.4990 C   0  0  0  0  0  2  0  0  0  0  0  0
  193.2970  174.8330  144.3540 C   0  0  2  0  0  3  0  0  0  0  0  0
  189.0320  176.8180  144.0250 C   0  0  0  0  0  2  0  0  0  0  0  0
  191.9080  176.7740  143.6000 C   0  0  1  0  0  3  0  0  0  0  0  0
  189.3810  173.8440  141.6860 C   0  0  0  0  0  0  0  0  0  0  0  0
  188.8270  174.8060  142.5460 C   0  0  0  0  0  3  0  0  0  0  0  0
  189.6450  175.7550  143.1650 C   0  0  0  0  0  0  0  0  0  0  0  0
  191.5800  174.8060  142.0490 C   0  0  0  0  0  3  0  0  0  0  0  0
  191.0260  175.7610  142.9100 C   0  0  0  0  0  0  0  0  0  0  0  0
  190.7580  173.8520  141.4410 C   0  0  0  0  0  3  0  0  0  0  0  0
  191.1780  177.9240  144.0030 O   0  0  0  0  0  0  0  0  0  0  0  0
  190.1130  177.5260  144.8400 C   0  0  0  0  0  2  0  0  0  0  0  0
  188.5890  172.8770  141.0610 O   0  0  0  0  0  0  0  0  0  0  0  0
  188.2480  173.0320  138.6940 C   0  0  0  0  0  1  0  0  0  0  0  0
  188.9380  172.2860  139.8160 C   0  0  0  0  0  2  0  0  0  0  0  0
  194.5500  170.5820  145.7150 C   0  0  0  0  0  3  0  0  0  0  0  0
  194.0970  169.3020  145.0340 C   0  0  0  0  0  1  0  0  0  0  0  0
  196.0070  170.4120  146.1120 C   0  0  0  0  0  1  0  0  0  0  0  0
  196.5650  177.1690  142.0270 O   0  0  0  0  0  0  0  0  0  0  0  0
  196.4140  176.2590  142.8840 C   0  0  0  0  0  0  0  0  0  0  0  0
  197.4380  175.9830  143.7800 O   0  0  0  0  0  1  0  0  0  0  0  0
  195.4250  174.1740  140.7620 C   0  0  0  0  0  2  0  0  0  0  0  0
  196.7650  174.0210  140.3980 O   0  0  0  0  0  1  0  0  0  0  0  0
  1 13  1  0  0  0  0
  1  4  1  0  0  0  0
  2 11  1  0  0  0  0
  2  8  1  0  0  0  0
  3 11  1  0  0  0  0
  3  7  1  0  0  0  0
  4  6  1  0  0  0  0
  4  5  1  0  0  0  0
  7  1  1  0  0  0  0
  8  9  1  0  0  0  0
  9 10  1  0  0  0  0
  9 27  1  0  0  0  0
 10 12  1  0  0  0  0
 13  6  1  0  0  0  0
 13 12  1  0  0  0  0
 14 23  1  0  0  0  0
 15 22  1  0  0  0  0
 15  6  1  0  0  0  0
 16 17  1  0  0  0  0
 17 18  2  0  0  0  0
 18 14  1  0  0  0  0
 19 20  2  0  0  0  0
 20 18  1  0  0  0  0
 20 15  1  0  0  0  0
 21 16  2  0  0  0  0
 21 19  1  0  0  0  0
 22 23  1  0  0  0  0
 24 16  1  0  0  0  0
 25 26  1  0  0  0  0
 26 24  1  0  0  0  0
 27 29  1  0  0  0  0
 28 27  1  0  0  0  0
 30 31  2  0  0  0  0
 31  7  1  0  0  0  0
 31 32  1  0  0  0  0
 33  3  1  0  0  0  0
 34 33  1  0  0  0  0
M  END
>  <MODEL>
7

>  <REMARK>
 VINA RESULT:      -6.1      3.695      7.470
  Name = 
  6 active torsions:
  status: ('A' for Active; 'I' for Inactive)
    1  A    between atoms: C_3  and  C_25
    2  A    between atoms: C_5  and  C_19
    3  A    between atoms: C_6  and  C_18
    4  A    between atoms: C_7  and  O_11
    5  A    between atoms: O_11  and  C_21
    6  A    between atoms: C_12  and  C_20
                            x       y       z     vdW  Elec       q    Type
                         _______ _______ _______ _____ _____    ______ ____

>  <TORSDO>
F 6

$$$$
=
 OpenBabel11052420363D

 34 37  0  0  1  0  0  0  0  0999 V2000
  194.5840  174.3990  143.1160 N   0  0  2  0  0  0  0  0  0  0  0  0
  195.2830  170.4290  142.1040 C   0  0  0  0  0  2  0  0  0  0  0  0
  194.1920  172.6050  141.4330 C   0  0  2  0  0  3  0  0  0  0  0  0
  194.1680  175.7750  143.3930 C   0  0  2  0  0  3  0  0  0  0  0  0
  195.2280  176.4790  144.2220 C   0  0  0  0  0  1  0  0  0  0  0  0
  193.0160  175.3440  144.2770 C   0  0  2  0  0  3  0  0  0  0  0  0
  194.2670  174.1180  141.7080 C   0  0  2  0  0  3  0  0  0  0  0  0
  194.4010  170.3220  143.3470 C   0  0  0  0  0  2  0  0  0  0  0  0
  194.9810  171.1070  144.5190 C   0  0  1  0  0  3  0  0  0  0  0  0
  193.8250  171.7960  145.2280 C   0  0  0  0  0  2  0  0  0  0  0  0
  195.5120  171.8770  141.6810 C   0  0  0  0  0  2  0  0  0  0  0  0
  194.0230  173.3020  145.2380 C   0  0  0  0  0  2  0  0  0  0  0  0
  193.4790  173.9370  143.9620 C   0  0  2  0  0  3  0  0  0  0  0  0
  190.5870  178.2620  144.1780 C   0  0  0  0  0  2  0  0  0  0  0  0
  191.6800  175.6350  143.5820 C   0  0  1  0  0  3  0  0  0  0  0  0
  188.4660  176.0600  146.4330 C   0  0  0  0  0  0  0  0  0  0  0  0
  189.0170  177.1920  145.8100 C   0  0  0  0  0  3  0  0  0  0  0  0
  190.0570  177.0540  144.8870 C   0  0  0  0  0  0  0  0  0  0  0  0
  189.9890  174.6460  145.1800 C   0  0  0  0  0  3  0  0  0  0  0  0
  190.5400  175.7750  144.5630 C   0  0  0  0  0  0  0  0  0  0  0  0
  188.9560  174.7900  146.1110 C   0  0  0  0  0  3  0  0  0  0  0  0
  191.7680  176.7520  142.7110 O   0  0  0  0  0  0  0  0  0  0  0  0
  191.9050  177.9290  143.4800 C   0  0  0  0  0  2  0  0  0  0  0  0
  187.4330  176.1680  147.3680 O   0  0  0  0  0  0  0  0  0  0  0  0
  185.4160  176.7640  146.2180 C   0  0  0  0  0  1  0  0  0  0  0  0
  186.4190  177.1610  147.2800 C   0  0  0  0  0  2  0  0  0  0  0  0
  195.7440  170.1870  145.4830 C   0  0  0  0  0  3  0  0  0  0  0  0
  196.8840  170.9270  146.1610 C   0  0  0  0  0  1  0  0  0  0  0  0
  194.8230  169.6520  146.5670 C   0  0  0  0  0  1  0  0  0  0  0  0
  194.8330  175.3710  139.7340 O   0  0  0  0  0  0  0  0  0  0  0  0
  195.2340  174.8190  140.7920 C   0  0  0  0  0  0  0  0  0  0  0  0
  196.5820  174.8640  141.1230 O   0  0  0  0  0  1  0  0  0  0  0  0
  193.5660  172.2610  140.0820 C   0  0  0  0  0  2  0  0  0  0  0  0
  192.2850  172.8060  139.9660 O   0  0  0  0  0  1  0  0  0  0  0  0
  1  4  1  0  0  0  0
  1 13  1  0  0  0  0
  2  8  1  0  0  0  0
  3 11  1  0  0  0  0
  3  7  1  0  0  0  0
  4  5  1  0  0  0  0
  4  6  1  0  0  0  0
  7  1  1  0  0  0  0
  8  9  1  0  0  0  0
  9 10  1  0  0  0  0
  9 27  1  0  0  0  0
 10 12  1  0  0  0  0
 11  2  1  0  0  0  0
 13  6  1  0  0  0  0
 13 12  1  0  0  0  0
 14 18  1  0  0  0  0
 15  6  1  0  0  0  0
 15 20  1  0  0  0  0
 16 24  1  0  0  0  0
 17 16  2  0  0  0  0
 18 17  1  0  0  0  0
 19 21  2  0  0  0  0
 20 18  2  0  0  0  0
 20 19  1  0  0  0  0
 21 16  1  0  0  0  0
 22 23  1  0  0  0  0
 22 15  1  0  0  0  0
 23 14  1  0  0  0  0
 25 26  1  0  0  0  0
 26 24  1  0  0  0  0
 27 28  1  0  0  0  0
 27 29  1  0  0  0  0
 30 31  2  0  0  0  0
 31 32  1  0  0  0  0
 31  7  1  0  0  0  0
 33  3  1  0  0  0  0
 34 33  1  0  0  0  0
M  END
>  <MODEL>
8

>  <REMARK>
 VINA RESULT:      -6.1      3.697      8.609
  Name = 
  6 active torsions:
  status: ('A' for Active; 'I' for Inactive)
    1  A    between atoms: C_3  and  C_25
    2  A    between atoms: C_5  and  C_19
    3  A    between atoms: C_6  and  C_18
    4  A    between atoms: C_7  and  O_11
    5  A    between atoms: O_11  and  C_21
    6  A    between atoms: C_12  and  C_20
                            x       y       z     vdW  Elec       q    Type
                         _______ _______ _______ _____ _____    ______ ____

>  <TORSDO>
F 6

$$$$
=
 OpenBabel11052420363D

 34 37  0  0  1  0  0  0  0  0999 V2000
  192.0360  175.2980  142.6280 N   0  0  2  0  0  0  0  0  0  0  0  0
  188.1640  173.9020  142.0450 C   0  0  0  0  0  2  0  0  0  0  0  0
  189.7800  175.0030  143.6430 C   0  0  2  0  0  3  0  0  0  0  0  0
  193.3810  175.7300  143.0120 C   0  0  2  0  0  3  0  0  0  0  0  0
  194.1280  176.2390  141.7920 C   0  0  0  0  0  1  0  0  0  0  0  0
  193.8330  174.3260  143.3520 C   0  0  2  0  0  3  0  0  0  0  0  0
  191.1050  175.7870  143.6570 C   0  0  2  0  0  3  0  0  0  0  0  0
  189.0040  172.6260  142.0110 C   0  0  0  0  0  2  0  0  0  0  0  0
  190.1310  172.7200  140.9870 C   0  0  1  0  0  3  0  0  0  0  0  0
  191.3680  172.0850  141.6050 C   0  0  0  0  0  2  0  0  0  0  0  0
  189.0070  175.1410  142.3320 C   0  0  0  0  0  2  0  0  0  0  0  0
  192.5070  173.0870  141.6740 C   0  0  0  0  0  2  0  0  0  0  0  0
  192.4300  173.9220  142.9480 C   0  0  2  0  0  3  0  0  0  0  0  0
  196.7920  174.1540  145.7270 C   0  0  0  0  0  2  0  0  0  0  0  0
  194.0140  174.1810  144.8680 C   0  0  1  0  0  3  0  0  0  0  0  0
  195.9400  170.4550  145.8910 C   0  0  0  0  0  0  0  0  0  0  0  0
  196.6580  171.6610  145.9360 C   0  0  0  0  0  3  0  0  0  0  0  0
  196.0340  172.8670  145.6060 C   0  0  0  0  0  0  0  0  0  0  0  0
  193.9580  171.6770  145.2050 C   0  0  0  0  0  3  0  0  0  0  0  0
  194.6760  172.8770  145.2460 C   0  0  0  0  0  0  0  0  0  0  0  0
  194.5900  170.4720  145.5260 C   0  0  0  0  0  3  0  0  0  0  0  0
  194.6870  175.2990  145.4300 O   0  0  0  0  0  0  0  0  0  0  0  0
  196.0380  175.2790  145.0190 C   0  0  0  0  0  2  0  0  0  0  0  0
  196.5400  169.2330  146.2060 O   0  0  0  0  0  0  0  0  0  0  0  0
  195.4230  168.1660  148.0390 C   0  0  0  0  0  1  0  0  0  0  0  0
  196.7130  168.7850  147.5430 C   0  0  0  0  0  2  0  0  0  0  0  0
  189.7530  172.0180  139.6760 C   0  0  0  0  0  3  0  0  0  0  0  0
  189.3100  173.0200  138.6240 C   0  0  0  0  0  1  0  0  0  0  0  0
  190.9330  171.2410  139.1160 C   0  0  0  0  0  1  0  0  0  0  0  0
  190.5460  177.7750  142.4250 O   0  0  0  0  0  0  0  0  0  0  0  0
  190.8950  177.2710  143.5250 C   0  0  0  0  0  0  0  0  0  0  0  0
  191.0790  178.0910  144.6290 O   0  0  0  0  0  1  0  0  0  0  0  0
  188.9110  175.2530  144.8750 C   0  0  0  0  0  2  0  0  0  0  0  0
  189.6850  175.3000  146.0370 O   0  0  0  0  0  1  0  0  0  0  0  0
  1 13  1  0  0  0  0
  1  4  1  0  0  0  0
  1  7  1  0  0  0  0
  2 11  1  0  0  0  0
  3  7  1  0  0  0  0
  3 33  1  0  0  0  0
  4  6  1  0  0  0  0
  5  4  1  0  0  0  0
  6 15  1  0  0  0  0
  8  2  1  0  0  0  0
  9 10  1  0  0  0  0
  9  8  1  0  0  0  0
 10 12  1  0  0  0  0
 11  3  1  0  0  0  0
 12 13  1  0  0  0  0
 13  6  1  0  0  0  0
 15 20  1  0  0  0  0
 15 22  1  0  0  0  0
 16 17  1  0  0  0  0
 16 24  1  0  0  0  0
 18 14  1  0  0  0  0
 18 17  2  0  0  0  0
 19 20  2  0  0  0  0
 19 21  1  0  0  0  0
 20 18  1  0  0  0  0
 21 16  2  0  0  0  0
 23 22  1  0  0  0  0
 23 14  1  0  0  0  0
 24 26  1  0  0  0  0
 26 25  1  0  0  0  0
 27  9  1  0  0  0  0
 28 27  1  0  0  0  0
 29 27  1  0  0  0  0
 30 31  2  0  0  0  0
 31  7  1  0  0  0  0
 31 32  1  0  0  0  0
 33 34  1  0  0  0  0
M  END
>  <MODEL>
9

>  <REMARK>
 VINA RESULT:      -6.1      4.201      6.764
  Name = 
  6 active torsions:
  status: ('A' for Active; 'I' for Inactive)
    1  A    between atoms: C_3  and  C_25
    2  A    between atoms: C_5  and  C_19
    3  A    between atoms: C_6  and  C_18
    4  A    between atoms: C_7  and  O_11
    5  A    between atoms: O_11  and  C_21
    6  A    between atoms: C_12  and  C_20
                            x       y       z     vdW  Elec       q    Type
                         _______ _______ _______ _____ _____    ______ ____

>  <TORSDO>
F 6

$$$$
