=
 OpenBabel11052419183D

 32 36  0  0  1  0  0  0  0  0999 V2000
  187.5560  177.6770  146.2510 C   0  0  2  0  0  3  0  0  0  0  0  0
  187.6220  175.8520  144.4780 C   0  0  0  0  0  0  0  0  0  0  0  0
  186.7300  178.1960  147.4280 C   0  0  0  0  0  2  0  0  0  0  0  0
  186.7820  176.5860  145.4790 C   0  0  2  0  0  3  0  0  0  0  0  0
  187.1990  176.0530  143.1770 C   0  0  0  0  0  0  0  0  0  0  0  0
  188.6800  174.9800  144.7530 C   0  0  0  0  0  3  0  0  0  0  0  0
  188.9050  174.5620  142.3660 C   0  0  0  0  0  3  0  0  0  0  0  0
  185.7590  177.2230  144.5610 C   0  0  0  0  0  0  0  0  0  0  0  0
  187.8230  175.4140  142.1040 C   0  0  0  0  0  3  0  0  0  0  0  0
  184.7060  177.9430  144.9720 C   0  0  0  0  0  3  0  0  0  0  0  0
  184.4430  178.2450  146.4140 C   0  0  0  0  0  2  0  0  0  0  0  0
  189.3340  174.3450  143.6880 C   0  0  0  0  0  0  0  0  0  0  0  0
  186.0130  176.9420  143.1060 C   0  0  1  0  0  3  0  0  0  0  0  0
  185.5710  179.0830  146.9950 C   0  0  0  0  0  2  0  0  0  0  0  0
  186.2910  178.2170  142.2980 C   0  0  0  0  0  2  0  0  0  0  0  0
  185.5030  178.2210  140.6500 S   0  0  0  0  0  1  0  0  0  0  0  0
  188.8680  177.1560  146.8160 C   0  0  0  0  0  2  0  0  0  0  0  0
  189.9500  177.9330  146.3230 O   0  0  0  0  0  0  0  0  0  0  0  0
  193.0330  176.4950  141.9250 F   0  0  0  0  0  0  0  0  0  0  0  0
  191.1240  177.6070  142.8140 C   0  0  0  0  0  3  0  0  0  0  0  0
  190.7100  177.5550  145.2100 C   0  0  0  0  0  0  0  0  0  0  0  0
  192.6400  176.4170  144.2730 C   0  0  0  0  0  3  0  0  0  0  0  0
  190.3480  177.9670  143.9170 C   0  0  0  0  0  3  0  0  0  0  0  0
  191.8560  176.7540  145.3860 C   0  0  0  0  0  0  0  0  0  0  0  0
  192.2720  176.8360  142.9930 C   0  0  0  0  0  0  0  0  0  0  0  0
  191.6450  175.0160  147.1450 C   0  0  0  0  0  2  0  0  0  0  0  0
  193.0900  175.0370  146.7060 C   0  0  0  0  0  2  0  0  0  0  0  0
  192.2980  176.3350  146.7620 C   0  0  0  0  0  3  0  0  0  0  0  0
  190.4990  173.4530  143.9630 C   0  0  0  0  0  2  0  0  0  0  0  0
  191.3860  173.2910  142.7340 C   0  0  0  0  0  2  0  0  0  0  0  0
  192.7670  172.1910  144.4950 C   0  0  0  0  0  1  0  0  0  0  0  0
  192.7780  172.8030  143.1080 C   0  0  0  0  0  2  0  0  0  0  0  0
  1 17  1  1  0  0  0
  1  3  1  0  0  0  0
  2  6  1  0  0  0  0
  4  2  1  6  0  0  0
  4  1  1  0  0  0  0
  5  2  2  0  0  0  0
  7 12  1  0  0  0  0
  8 10  2  0  0  0  0
  8  4  1  0  0  0  0
  9  7  2  0  0  0  0
  9  5  1  0  0  0  0
 10 11  1  0  0  0  0
 11 14  1  0  0  0  0
 12 29  1  0  0  0  0
 12  6  2  0  0  0  0
 13 15  1  6  0  0  0
 13  5  1  0  0  0  0
 13  8  1  0  0  0  0
 14  3  1  0  0  0  0
 16 15  1  0  0  0  0
 18 17  1  0  0  0  0
 19 25  1  0  0  0  0
 20 25  2  0  0  0  0
 20 23  1  0  0  0  0
 21 24  1  0  0  0  0
 21 18  1  0  0  0  0
 22 24  2  0  0  0  0
 23 21  2  0  0  0  0
 24 28  1  0  0  0  0
 25 22  1  0  0  0  0
 27 28  1  0  0  0  0
 27 26  1  0  0  0  0
 28 26  1  0  0  0  0
 30 32  1  0  0  0  0
 30 29  1  0  0  0  0
 32 31  1  0  0  0  0
M  END
>  <MODEL>
1

>  <REMARK>
 VINA RESULT:      -7.1      0.000      0.000
  Name = 
  8 active torsions:
  status: ('A' for Active; 'I' for Inactive)
    1  A    between atoms: C_1  and  C_27
    2  A    between atoms: C_9  and  C_31
    3  A    between atoms: C_9  and  C_32
    4  A    between atoms: C_13  and  C_29
    5  A    between atoms: C_16  and  O_24
    6  A    between atoms: C_22  and  C_23
    7  A    between atoms: O_24  and  C_27
    8  A    between atoms: C_28  and  C_32
                            x       y       z     vdW  Elec       q    Type
                         _______ _______ _______ _____ _____    ______ ____

>  <TORSDO>
F 8

$$$$
=
 OpenBabel11052419183D

 32 36  0  0  1  0  0  0  0  0999 V2000
  190.8780  172.8400  143.2760 C   0  0  2  0  0  3  0  0  0  0  0  0
  190.8360  173.9760  145.5540 C   0  0  0  0  0  0  0  0  0  0  0  0
  191.0700  171.4820  142.6010 C   0  0  0  0  0  2  0  0  0  0  0  0
  191.2440  172.7630  144.7750 C   0  0  2  0  0  3  0  0  0  0  0  0
  191.9180  174.6660  146.0690 C   0  0  0  0  0  0  0  0  0  0  0  0
  189.5300  174.3880  145.8400 C   0  0  0  0  0  3  0  0  0  0  0  0
  190.4390  176.2390  147.1330 C   0  0  0  0  0  3  0  0  0  0  0  0
  192.7470  172.8180  144.9490 C   0  0  0  0  0  0  0  0  0  0  0  0
  191.7430  175.7990  146.8660 C   0  0  0  0  0  3  0  0  0  0  0  0
  193.6040  171.8920  144.5000 C   0  0  0  0  0  3  0  0  0  0  0  0
  193.1670  170.6930  143.7180 C   0  0  0  0  0  2  0  0  0  0  0  0
  189.3340  175.5350  146.6210 C   0  0  0  0  0  0  0  0  0  0  0  0
  193.2090  174.0230  145.7220 C   0  0  1  0  0  3  0  0  0  0  0  0
  192.5350  171.1210  142.4020 C   0  0  0  0  0  2  0  0  0  0  0  0
  194.1140  174.9450  144.8940 C   0  0  0  0  0  2  0  0  0  0  0  0
  195.8910  174.7540  145.2750 S   0  0  0  0  0  1  0  0  0  0  0  0
  189.4290  173.2490  143.0610 C   0  0  0  0  0  2  0  0  0  0  0  0
  189.3710  174.4180  142.2560 O   0  0  0  0  0  0  0  0  0  0  0  0
  191.3790  179.3580  143.8290 F   0  0  0  0  0  0  0  0  0  0  0  0
  191.7630  177.1640  142.9890 C   0  0  0  0  0  3  0  0  0  0  0  0
  189.8840  175.6520  142.6720 C   0  0  0  0  0  0  0  0  0  0  0  0
  189.5250  177.8910  143.5400 C   0  0  0  0  0  3  0  0  0  0  0  0
  191.2610  175.9220  142.5960 C   0  0  0  0  0  3  0  0  0  0  0  0
  189.0110  176.6400  143.1690 C   0  0  0  0  0  0  0  0  0  0  0  0
  190.8950  178.1500  143.4570 C   0  0  0  0  0  0  0  0  0  0  0  0
  186.7770  177.7180  143.0960 C   0  0  0  0  0  2  0  0  0  0  0  0
  186.8690  176.7930  141.9060 C   0  0  0  0  0  2  0  0  0  0  0  0
  187.5270  176.4000  143.2190 C   0  0  0  0  0  3  0  0  0  0  0  0
  187.9460  176.0160  146.8900 C   0  0  0  0  0  2  0  0  0  0  0  0
  187.8670  177.5380  146.8840 C   0  0  0  0  0  2  0  0  0  0  0  0
  185.5040  176.8510  146.4840 C   0  0  0  0  0  1  0  0  0  0  0  0
  186.4350  178.0240  146.7180 C   0  0  0  0  0  2  0  0  0  0  0  0
  1 17  1  1  0  0  0
  1  4  1  0  0  0  0
  2  6  2  0  0  0  0
  2  5  1  0  0  0  0
  3  1  1  0  0  0  0
  4  8  1  6  0  0  0
  4  2  1  0  0  0  0
  5  9  2  0  0  0  0
  6 12  1  0  0  0  0
  8 13  1  0  0  0  0
  9  7  1  0  0  0  0
 10  8  2  0  0  0  0
 11 10  1  0  0  0  0
 12 29  1  0  0  0  0
 12  7  2  0  0  0  0
 13 15  1  6  0  0  0
 13  5  1  0  0  0  0
 14  3  1  0  0  0  0
 14 11  1  0  0  0  0
 15 16  1  0  0  0  0
 18 21  1  0  0  0  0
 18 17  1  0  0  0  0
 20 25  1  0  0  0  0
 21 24  2  0  0  0  0
 23 21  1  0  0  0  0
 23 20  2  0  0  0  0
 24 28  1  0  0  0  0
 24 22  1  0  0  0  0
 25 22  2  0  0  0  0
 25 19  1  0  0  0  0
 26 28  1  0  0  0  0
 27 26  1  0  0  0  0
 27 28  1  0  0  0  0
 30 29  1  0  0  0  0
 31 32  1  0  0  0  0
 32 30  1  0  0  0  0
M  END
>  <MODEL>
2

>  <REMARK>
 VINA RESULT:      -7.1      2.732      6.921
  Name = 
  8 active torsions:
  status: ('A' for Active; 'I' for Inactive)
    1  A    between atoms: C_1  and  C_27
    2  A    between atoms: C_9  and  C_31
    3  A    between atoms: C_9  and  C_32
    4  A    between atoms: C_13  and  C_29
    5  A    between atoms: C_16  and  O_24
    6  A    between atoms: C_22  and  C_23
    7  A    between atoms: O_24  and  C_27
    8  A    between atoms: C_28  and  C_32
                            x       y       z     vdW  Elec       q    Type
                         _______ _______ _______ _____ _____    ______ ____

>  <TORSDO>
F 8

$$$$
=
 OpenBabel11052419183D

 32 36  0  0  1  0  0  0  0  0999 V2000
  191.0930  172.9560  142.9820 C   0  0  2  0  0  3  0  0  0  0  0  0
  190.9820  173.7760  145.3900 C   0  0  0  0  0  0  0  0  0  0  0  0
  191.2380  171.6910  142.1370 C   0  0  0  0  0  2  0  0  0  0  0  0
  191.3580  172.6510  144.4730 C   0  0  2  0  0  3  0  0  0  0  0  0
  192.0720  174.3100  146.0520 C   0  0  0  0  0  0  0  0  0  0  0  0
  189.6900  174.2390  145.6600 C   0  0  0  0  0  3  0  0  0  0  0  0
  190.6340  175.8290  147.2430 C   0  0  0  0  0  3  0  0  0  0  0  0
  192.8480  172.5740  144.7320 C   0  0  0  0  0  0  0  0  0  0  0  0
  191.9210  175.3350  146.9870 C   0  0  0  0  0  3  0  0  0  0  0  0
  193.6690  171.6560  144.2060 C   0  0  0  0  0  3  0  0  0  0  0  0
  193.2050  170.6080  143.2430 C   0  0  0  0  0  2  0  0  0  0  0  0
  189.5200  175.2830  146.5800 C   0  0  0  0  0  0  0  0  0  0  0  0
  193.3370  173.6260  145.6880 C   0  0  1  0  0  3  0  0  0  0  0  0
  192.6860  171.2540  141.9670 C   0  0  0  0  0  2  0  0  0  0  0  0
  194.3510  174.5830  145.0450 C   0  0  0  0  0  2  0  0  0  0  0  0
  196.0590  174.3470  145.6490 S   0  0  0  0  0  1  0  0  0  0  0  0
  189.6900  173.4950  142.7490 C   0  0  0  0  0  2  0  0  0  0  0  0
  189.7590  174.8160  142.2310 O   0  0  0  0  0  0  0  0  0  0  0  0
  186.1750  178.7900  143.7400 F   0  0  0  0  0  0  0  0  0  0  0  0
  186.5820  176.5330  143.1000 C   0  0  0  0  0  3  0  0  0  0  0  0
  188.8500  175.8180  142.5880 C   0  0  0  0  0  0  0  0  0  0  0  0
  188.4030  178.1180  143.2300 C   0  0  0  0  0  3  0  0  0  0  0  0
  187.4800  175.5340  142.7190 C   0  0  0  0  0  3  0  0  0  0  0  0
  189.3120  177.1280  142.8250 C   0  0  0  0  0  0  0  0  0  0  0  0
  187.0440  177.8230  143.3600 C   0  0  0  0  0  0  0  0  0  0  0  0
  191.1170  178.6000  143.6820 C   0  0  0  0  0  2  0  0  0  0  0  0
  191.4720  177.1830  144.0660 C   0  0  0  0  0  2  0  0  0  0  0  0
  190.7770  177.4550  142.7400 C   0  0  0  0  0  3  0  0  0  0  0  0
  188.1530  175.8220  146.8390 C   0  0  0  0  0  2  0  0  0  0  0  0
  188.1380  177.3470  146.8290 C   0  0  0  0  0  2  0  0  0  0  0  0
  185.7010  176.8310  146.7250 C   0  0  0  0  0  1  0  0  0  0  0  0
  186.7350  177.8950  147.0370 C   0  0  0  0  0  2  0  0  0  0  0  0
  1 17  1  1  0  0  0
  1  4  1  0  0  0  0
  2  6  2  0  0  0  0
  2  5  1  0  0  0  0
  3  1  1  0  0  0  0
  4  8  1  6  0  0  0
  4  2  1  0  0  0  0
  5  9  2  0  0  0  0
  6 12  1  0  0  0  0
  8 13  1  0  0  0  0
  9  7  1  0  0  0  0
 10  8  2  0  0  0  0
 11 10  1  0  0  0  0
 12 29  1  0  0  0  0
 12  7  2  0  0  0  0
 13 15  1  6  0  0  0
 13  5  1  0  0  0  0
 14  3  1  0  0  0  0
 14 11  1  0  0  0  0
 15 16  1  0  0  0  0
 18 21  1  0  0  0  0
 18 17  1  0  0  0  0
 20 25  1  0  0  0  0
 21 23  1  0  0  0  0
 21 24  2  0  0  0  0
 22 25  2  0  0  0  0
 23 20  2  0  0  0  0
 24 22  1  0  0  0  0
 25 19  1  0  0  0  0
 26 27  1  0  0  0  0
 28 24  1  0  0  0  0
 28 26  1  0  0  0  0
 28 27  1  0  0  0  0
 30 29  1  0  0  0  0
 30 32  1  0  0  0  0
 31 32  1  0  0  0  0
M  END
>  <MODEL>
3

>  <REMARK>
 VINA RESULT:      -6.9      3.011      7.054
  Name = 
  8 active torsions:
  status: ('A' for Active; 'I' for Inactive)
    1  A    between atoms: C_1  and  C_27
    2  A    between atoms: C_9  and  C_31
    3  A    between atoms: C_9  and  C_32
    4  A    between atoms: C_13  and  C_29
    5  A    between atoms: C_16  and  O_24
    6  A    between atoms: C_22  and  C_23
    7  A    between atoms: O_24  and  C_27
    8  A    between atoms: C_28  and  C_32
                            x       y       z     vdW  Elec       q    Type
                         _______ _______ _______ _____ _____    ______ ____

>  <TORSDO>
F 8

$$$$
=
 OpenBabel11052419183D

 32 36  0  0  1  0  0  0  0  0999 V2000
  187.1400  176.7070  142.3860 C   0  0  2  0  0  3  0  0  0  0  0  0
  189.1980  177.3490  143.7400 C   0  0  0  0  0  0  0  0  0  0  0  0
  185.9660  177.3010  141.6070 C   0  0  0  0  0  2  0  0  0  0  0  0
  187.8920  177.8080  143.1670 C   0  0  2  0  0  3  0  0  0  0  0  0
  189.2110  177.3710  145.1220 C   0  0  0  0  0  0  0  0  0  0  0  0
  190.3480  176.9990  143.0250 C   0  0  0  0  0  3  0  0  0  0  0  0
  191.5050  176.6430  145.1370 C   0  0  0  0  0  3  0  0  0  0  0  0
  187.1410  178.1490  144.4370 C   0  0  0  0  0  0  0  0  0  0  0  0
  190.3560  177.0250  145.8430 C   0  0  0  0  0  3  0  0  0  0  0  0
  185.9170  178.6920  144.4810 C   0  0  0  0  0  3  0  0  0  0  0  0
  185.1160  178.9860  143.2510 C   0  0  0  0  0  2  0  0  0  0  0  0
  191.5020  176.6280  143.7310 C   0  0  0  0  0  0  0  0  0  0  0  0
  187.9240  177.8500  145.6860 C   0  0  1  0  0  3  0  0  0  0  0  0
  184.8020  177.6990  142.5030 C   0  0  0  0  0  2  0  0  0  0  0  0
  187.2470  176.7930  146.5690 C   0  0  0  0  0  2  0  0  0  0  0  0
  186.1660  177.5050  147.8580 S   0  0  0  0  0  1  0  0  0  0  0  0
  188.0390  176.0060  141.3790 C   0  0  0  0  0  2  0  0  0  0  0  0
  188.0200  174.6030  141.6070 O   0  0  0  0  0  0  0  0  0  0  0  0
  191.9810  171.2220  139.6610 F   0  0  0  0  0  0  0  0  0  0  0  0
  190.4830  173.0390  139.3090 C   0  0  0  0  0  3  0  0  0  0  0  0
  189.0000  173.7400  141.1050 C   0  0  0  0  0  0  0  0  0  0  0  0
  190.5280  171.8810  141.4300 C   0  0  0  0  0  3  0  0  0  0  0  0
  189.4870  173.8880  139.7950 C   0  0  0  0  0  3  0  0  0  0  0  0
  189.5110  172.7120  141.9220 C   0  0  0  0  0  0  0  0  0  0  0  0
  191.0060  172.0390  140.1280 C   0  0  0  0  0  0  0  0  0  0  0  0
  190.1790  172.0350  144.2140 C   0  0  0  0  0  2  0  0  0  0  0  0
  189.8030  173.4970  144.2700 C   0  0  0  0  0  2  0  0  0  0  0  0
  189.0460  172.5570  143.3440 C   0  0  0  0  0  3  0  0  0  0  0  0
  192.7200  176.2020  142.9810 C   0  0  0  0  0  2  0  0  0  0  0  0
  192.4250  175.0310  142.0490 C   0  0  0  0  0  2  0  0  0  0  0  0
  193.5510  173.4870  143.6510 C   0  0  0  0  0  1  0  0  0  0  0  0
  193.4550  173.9210  142.2020 C   0  0  0  0  0  2  0  0  0  0  0  0
  1 17  1  6  0  0  0
  1  4  1  0  0  0  0
  2  5  1  0  0  0  0
  3  1  1  0  0  0  0
  3 14  1  0  0  0  0
  4  2  1  1  0  0  0
  4  8  1  0  0  0  0
  5 13  1  0  0  0  0
  5  9  2  0  0  0  0
  6 12  1  0  0  0  0
  6  2  2  0  0  0  0
  7  9  1  0  0  0  0
  8 10  2  0  0  0  0
  8 13  1  0  0  0  0
 11 10  1  0  0  0  0
 12  7  2  0  0  0  0
 13 15  1  6  0  0  0
 14 11  1  0  0  0  0
 15 16  1  0  0  0  0
 17 18  1  0  0  0  0
 19 25  1  0  0  0  0
 20 23  2  0  0  0  0
 20 25  1  0  0  0  0
 21 18  1  0  0  0  0
 21 24  2  0  0  0  0
 22 24  1  0  0  0  0
 23 21  1  0  0  0  0
 24 28  1  0  0  0  0
 25 22  2  0  0  0  0
 26 27  1  0  0  0  0
 28 26  1  0  0  0  0
 28 27  1  0  0  0  0
 29 12  1  0  0  0  0
 30 32  1  0  0  0  0
 30 29  1  0  0  0  0
 32 31  1  0  0  0  0
M  END
>  <MODEL>
4

>  <REMARK>
 VINA RESULT:      -6.5      2.523      4.553
  Name = 
  8 active torsions:
  status: ('A' for Active; 'I' for Inactive)
    1  A    between atoms: C_1  and  C_27
    2  A    between atoms: C_9  and  C_31
    3  A    between atoms: C_9  and  C_32
    4  A    between atoms: C_13  and  C_29
    5  A    between atoms: C_16  and  O_24
    6  A    between atoms: C_22  and  C_23
    7  A    between atoms: O_24  and  C_27
    8  A    between atoms: C_28  and  C_32
                            x       y       z     vdW  Elec       q    Type
                         _______ _______ _______ _____ _____    ______ ____

>  <TORSDO>
F 8

$$$$
=
 OpenBabel11052419183D

 32 36  0  0  1  0  0  0  0  0999 V2000
  187.1970  176.7520  142.4470 C   0  0  2  0  0  3  0  0  0  0  0  0
  189.1510  177.4570  143.9190 C   0  0  0  0  0  0  0  0  0  0  0  0
  186.0520  177.3100  141.6030 C   0  0  0  0  0  2  0  0  0  0  0  0
  187.8660  177.8740  143.2720 C   0  0  2  0  0  3  0  0  0  0  0  0
  189.0830  177.4750  145.3000 C   0  0  0  0  0  0  0  0  0  0  0  0
  190.3510  177.1440  143.2720 C   0  0  0  0  0  3  0  0  0  0  0  0
  191.3950  176.8200  145.4470 C   0  0  0  0  0  3  0  0  0  0  0  0
  187.0330  178.1890  144.4970 C   0  0  0  0  0  0  0  0  0  0  0  0
  190.1950  177.1640  146.0850 C   0  0  0  0  0  3  0  0  0  0  0  0
  185.7920  178.6920  144.4690 C   0  0  0  0  0  3  0  0  0  0  0  0
  185.0540  178.9630  143.1950 C   0  0  0  0  0  2  0  0  0  0  0  0
  191.4730  176.8090  144.0430 C   0  0  0  0  0  0  0  0  0  0  0  0
  187.7520  177.9120  145.7880 C   0  0  1  0  0  3  0  0  0  0  0  0
  184.8250  177.6690  142.4300 C   0  0  0  0  0  2  0  0  0  0  0  0
  187.0590  176.8320  146.6300 C   0  0  0  0  0  2  0  0  0  0  0  0
  185.9410  177.5090  147.9070 S   0  0  0  0  0  1  0  0  0  0  0  0
  188.1750  176.0820  141.4940 C   0  0  0  0  0  2  0  0  0  0  0  0
  188.2370  174.6890  141.7660 O   0  0  0  0  0  0  0  0  0  0  0  0
  192.1970  172.3240  144.8710 F   0  0  0  0  0  0  0  0  0  0  0  0
  190.0660  173.3740  144.7200 C   0  0  0  0  0  3  0  0  0  0  0  0
  189.2410  174.1160  142.5550 C   0  0  0  0  0  0  0  0  0  0  0  0
  191.4180  173.0550  142.7420 C   0  0  0  0  0  3  0  0  0  0  0  0
  189.0710  173.9700  143.9420 C   0  0  0  0  0  3  0  0  0  0  0  0
  190.4360  173.6730  141.9530 C   0  0  0  0  0  0  0  0  0  0  0  0
  191.2360  172.9120  144.1190 C   0  0  0  0  0  0  0  0  0  0  0  0
  191.5880  172.6900  139.9870 C   0  0  0  0  0  2  0  0  0  0  0  0
  190.1030  172.5260  139.7660 C   0  0  0  0  0  2  0  0  0  0  0  0
  190.6300  173.7700  140.4650 C   0  0  0  0  0  3  0  0  0  0  0  0
  192.7460  176.4230  143.3650 C   0  0  0  0  0  2  0  0  0  0  0  0
  193.8960  176.2940  144.3570 C   0  0  0  0  0  2  0  0  0  0  0  0
  195.0020  174.5500  145.7540 C   0  0  0  0  0  1  0  0  0  0  0  0
  194.4640  174.8830  144.3770 C   0  0  0  0  0  2  0  0  0  0  0  0
  1 17  1  6  0  0  0
  1  4  1  0  0  0  0
  2  5  1  0  0  0  0
  3 14  1  0  0  0  0
  3  1  1  0  0  0  0
  4  2  1  1  0  0  0
  4  8  1  0  0  0  0
  5 13  1  0  0  0  0
  5  9  2  0  0  0  0
  6  2  2  0  0  0  0
  6 12  1  0  0  0  0
  7  9  1  0  0  0  0
  8 13  1  0  0  0  0
 10  8  2  0  0  0  0
 11 10  1  0  0  0  0
 12  7  2  0  0  0  0
 13 15  1  6  0  0  0
 14 11  1  0  0  0  0
 15 16  1  0  0  0  0
 17 18  1  0  0  0  0
 18 21  1  0  0  0  0
 21 23  1  0  0  0  0
 22 25  2  0  0  0  0
 23 20  2  0  0  0  0
 24 21  2  0  0  0  0
 24 22  1  0  0  0  0
 25 20  1  0  0  0  0
 25 19  1  0  0  0  0
 26 28  1  0  0  0  0
 27 26  1  0  0  0  0
 27 28  1  0  0  0  0
 28 24  1  0  0  0  0
 29 12  1  0  0  0  0
 29 30  1  0  0  0  0
 30 32  1  0  0  0  0
 32 31  1  0  0  0  0
M  END
>  <MODEL>
5

>  <REMARK>
 VINA RESULT:      -6.4      2.386      4.660
  Name = 
  8 active torsions:
  status: ('A' for Active; 'I' for Inactive)
    1  A    between atoms: C_1  and  C_27
    2  A    between atoms: C_9  and  C_31
    3  A    between atoms: C_9  and  C_32
    4  A    between atoms: C_13  and  C_29
    5  A    between atoms: C_16  and  O_24
    6  A    between atoms: C_22  and  C_23
    7  A    between atoms: O_24  and  C_27
    8  A    between atoms: C_28  and  C_32
                            x       y       z     vdW  Elec       q    Type
                         _______ _______ _______ _____ _____    ______ ____

>  <TORSDO>
F 8

$$$$
=
 OpenBabel11052419183D

 32 36  0  0  1  0  0  0  0  0999 V2000
  193.2230  172.4530  144.0500 C   0  0  2  0  0  3  0  0  0  0  0  0
  193.4800  174.1660  145.9160 C   0  0  0  0  0  0  0  0  0  0  0  0
  193.3870  170.9650  143.7380 C   0  0  0  0  0  2  0  0  0  0  0  0
  193.8310  172.7920  145.4300 C   0  0  2  0  0  3  0  0  0  0  0  0
  194.5860  174.9870  146.0340 C   0  0  0  0  0  0  0  0  0  0  0  0
  192.2150  174.6190  146.3030 C   0  0  0  0  0  3  0  0  0  0  0  0
  193.2040  176.7670  146.8810 C   0  0  0  0  0  3  0  0  0  0  0  0
  195.3360  172.9170  145.3200 C   0  0  0  0  0  0  0  0  0  0  0  0
  194.4720  176.2920  146.5190 C   0  0  0  0  0  3  0  0  0  0  0  0
  196.1650  171.9170  144.9920 C   0  0  0  0  0  3  0  0  0  0  0  0
  195.6820  170.5440  144.6450 C   0  0  0  0  0  2  0  0  0  0  0  0
  192.0760  175.9330  146.7720 C   0  0  0  0  0  0  0  0  0  0  0  0
  195.8410  174.2940  145.6530 C   0  0  1  0  0  3  0  0  0  0  0  0
  194.8200  170.5870  143.3920 C   0  0  0  0  0  2  0  0  0  0  0  0
  196.5410  174.9700  144.4670 C   0  0  0  0  0  2  0  0  0  0  0  0
  195.7540  174.6140  142.8570 S   0  0  0  0  0  1  0  0  0  0  0  0
  191.7360  172.7650  143.9880 C   0  0  0  0  0  2  0  0  0  0  0  0
  191.4750  173.6620  142.9180 O   0  0  0  0  0  0  0  0  0  0  0  0
  191.0660  179.1720  143.5390 F   0  0  0  0  0  0  0  0  0  0  0  0
  192.4190  177.2450  143.1900 C   0  0  0  0  0  3  0  0  0  0  0  0
  191.3800  175.0470  143.0970 C   0  0  0  0  0  0  0  0  0  0  0  0
  190.0270  177.0300  143.4650 C   0  0  0  0  0  3  0  0  0  0  0  0
  192.5240  175.8610  143.0370 C   0  0  0  0  0  3  0  0  0  0  0  0
  190.1220  175.6360  143.3350 C   0  0  0  0  0  0  0  0  0  0  0  0
  191.1700  177.8290  143.4000 C   0  0  0  0  0  0  0  0  0  0  0  0
  187.6550  175.6640  143.0690 C   0  0  0  0  0  2  0  0  0  0  0  0
  188.2130  174.7700  141.9880 C   0  0  0  0  0  2  0  0  0  0  0  0
  188.8720  174.8000  143.3580 C   0  0  0  0  0  3  0  0  0  0  0  0
  190.7240  176.4460  147.1390 C   0  0  0  0  0  2  0  0  0  0  0  0
  189.7250  175.3110  147.3350 C   0  0  0  0  0  2  0  0  0  0  0  0
  188.2240  177.1660  146.6110 C   0  0  0  0  0  1  0  0  0  0  0  0
  188.3570  175.6640  146.7700 C   0  0  0  0  0  2  0  0  0  0  0  0
  1 17  1  1  0  0  0
  1  4  1  0  0  0  0
  2  5  2  0  0  0  0
  2  6  1  0  0  0  0
  3  1  1  0  0  0  0
  4  8  1  6  0  0  0
  4  2  1  0  0  0  0
  5  9  1  0  0  0  0
  6 12  2  0  0  0  0
  8 13  1  0  0  0  0
  9  7  2  0  0  0  0
 10  8  2  0  0  0  0
 11 10  1  0  0  0  0
 12  7  1  0  0  0  0
 12 29  1  0  0  0  0
 13 15  1  6  0  0  0
 13  5  1  0  0  0  0
 14  3  1  0  0  0  0
 14 11  1  0  0  0  0
 16 15  1  0  0  0  0
 18 21  1  0  0  0  0
 18 17  1  0  0  0  0
 20 25  1  0  0  0  0
 21 24  2  0  0  0  0
 23 21  1  0  0  0  0
 23 20  2  0  0  0  0
 24 28  1  0  0  0  0
 24 22  1  0  0  0  0
 25 22  2  0  0  0  0
 25 19  1  0  0  0  0
 26 28  1  0  0  0  0
 27 26  1  0  0  0  0
 27 28  1  0  0  0  0
 29 30  1  0  0  0  0
 31 32  1  0  0  0  0
 32 30  1  0  0  0  0
M  END
>  <MODEL>
6

>  <REMARK>
 VINA RESULT:      -6.4      2.906      7.586
  Name = 
  8 active torsions:
  status: ('A' for Active; 'I' for Inactive)
    1  A    between atoms: C_1  and  C_27
    2  A    between atoms: C_9  and  C_31
    3  A    between atoms: C_9  and  C_32
    4  A    between atoms: C_13  and  C_29
    5  A    between atoms: C_16  and  O_24
    6  A    between atoms: C_22  and  C_23
    7  A    between atoms: O_24  and  C_27
    8  A    between atoms: C_28  and  C_32
                            x       y       z     vdW  Elec       q    Type
                         _______ _______ _______ _____ _____    ______ ____

>  <TORSDO>
F 8

$$$$
=
 OpenBabel11052419183D

 32 36  0  0  1  0  0  0  0  0999 V2000
  186.8890  176.0270  142.7010 C   0  0  2  0  0  3  0  0  0  0  0  0
  188.3470  176.1090  144.7860 C   0  0  0  0  0  0  0  0  0  0  0  0
  186.4830  176.8410  141.4720 C   0  0  0  0  0  2  0  0  0  0  0  0
  187.6970  176.8970  143.6900 C   0  0  2  0  0  3  0  0  0  0  0  0
  187.8520  176.4270  146.0370 C   0  0  0  0  0  0  0  0  0  0  0  0
  189.3970  175.1950  144.6500 C   0  0  0  0  0  3  0  0  0  0  0  0
  189.3960  174.8940  147.0660 C   0  0  0  0  0  3  0  0  0  0  0  0
  186.7620  177.7710  144.4990 C   0  0  0  0  0  0  0  0  0  0  0  0
  188.3650  175.8350  147.1920 C   0  0  0  0  0  3  0  0  0  0  0  0
  185.9870  178.7390  143.9910 C   0  0  0  0  0  3  0  0  0  0  0  0
  185.9220  179.0400  142.5270 C   0  0  0  0  0  2  0  0  0  0  0  0
  189.9120  174.5740  145.7970 C   0  0  0  0  0  0  0  0  0  0  0  0
  186.8040  177.4760  145.9730 C   0  0  1  0  0  3  0  0  0  0  0  0
  185.3750  177.8430  141.7640 C   0  0  0  0  0  2  0  0  0  0  0  0
  185.4560  176.9830  146.5150 C   0  0  0  0  0  2  0  0  0  0  0  0
  184.4420  178.3090  147.2600 S   0  0  0  0  0  1  0  0  0  0  0  0
  187.6870  174.8320  142.2060 C   0  0  0  0  0  2  0  0  0  0  0  0
  188.4420  175.1950  141.0590 O   0  0  0  0  0  0  0  0  0  0  0  0
  190.2110  171.5510  137.2510 F   0  0  0  0  0  0  0  0  0  0  0  0
  188.6780  173.2520  137.9020 C   0  0  0  0  0  3  0  0  0  0  0  0
  188.8690  174.2640  140.1060 C   0  0  0  0  0  0  0  0  0  0  0  0
  190.4090  172.5160  139.4200 C   0  0  0  0  0  3  0  0  0  0  0  0
  188.2310  174.1670  138.8580 C   0  0  0  0  0  3  0  0  0  0  0  0
  189.9550  173.4140  140.3970 C   0  0  0  0  0  0  0  0  0  0  0  0
  189.7700  172.4300  138.1810 C   0  0  0  0  0  0  0  0  0  0  0  0
  192.1190  173.0290  141.5490 C   0  0  0  0  0  2  0  0  0  0  0  0
  191.8420  174.5120  141.5980 C   0  0  0  0  0  2  0  0  0  0  0  0
  190.6900  173.5250  141.7040 C   0  0  0  0  0  3  0  0  0  0  0  0
  190.9960  173.5570  145.6610 C   0  0  0  0  0  2  0  0  0  0  0  0
  192.3350  174.2040  145.3230 C   0  0  0  0  0  2  0  0  0  0  0  0
  194.1850  175.6740  146.1180 C   0  0  0  0  0  1  0  0  0  0  0  0
  192.9080  174.9600  146.5120 C   0  0  0  0  0  2  0  0  0  0  0  0
  1 17  1  6  0  0  0
  1  4  1  0  0  0  0
  2  5  1  0  0  0  0
  3 14  1  0  0  0  0
  3  1  1  0  0  0  0
  4  8  1  1  0  0  0
  4  2  1  0  0  0  0
  5  9  2  0  0  0  0
  6  2  2  0  0  0  0
  6 12  1  0  0  0  0
  7  9  1  0  0  0  0
  8 13  1  0  0  0  0
 10  8  2  0  0  0  0
 11 10  1  0  0  0  0
 12  7  2  0  0  0  0
 13  5  1  0  0  0  0
 13 15  1  6  0  0  0
 14 11  1  0  0  0  0
 15 16  1  0  0  0  0
 18 17  1  0  0  0  0
 19 25  1  0  0  0  0
 20 25  2  0  0  0  0
 20 23  1  0  0  0  0
 21 24  1  0  0  0  0
 21 18  1  0  0  0  0
 22 24  2  0  0  0  0
 23 21  2  0  0  0  0
 24 28  1  0  0  0  0
 25 22  1  0  0  0  0
 26 27  1  0  0  0  0
 26 28  1  0  0  0  0
 27 28  1  0  0  0  0
 29 12  1  0  0  0  0
 30 29  1  0  0  0  0
 30 32  1  0  0  0  0
 31 32  1  0  0  0  0
M  END
>  <MODEL>
7

>  <REMARK>
 VINA RESULT:      -6.0      2.845      4.925
  Name = 
  8 active torsions:
  status: ('A' for Active; 'I' for Inactive)
    1  A    between atoms: C_1  and  C_27
    2  A    between atoms: C_9  and  C_31
    3  A    between atoms: C_9  and  C_32
    4  A    between atoms: C_13  and  C_29
    5  A    between atoms: C_16  and  O_24
    6  A    between atoms: C_22  and  C_23
    7  A    between atoms: O_24  and  C_27
    8  A    between atoms: C_28  and  C_32
                            x       y       z     vdW  Elec       q    Type
                         _______ _______ _______ _____ _____    ______ ____

>  <TORSDO>
F 8

$$$$
=
 OpenBabel11052419183D

 32 36  0  0  1  0  0  0  0  0999 V2000
  188.4920  176.7400  142.4920 C   0  0  2  0  0  3  0  0  0  0  0  0
  189.9490  177.3340  144.4940 C   0  0  0  0  0  0  0  0  0  0  0  0
  187.5860  177.3560  141.4260 C   0  0  0  0  0  2  0  0  0  0  0  0
  188.8630  177.7870  143.5660 C   0  0  2  0  0  3  0  0  0  0  0  0
  189.5160  177.2110  145.8010 C   0  0  0  0  0  0  0  0  0  0  0  0
  191.2910  177.1150  144.1670 C   0  0  0  0  0  3  0  0  0  0  0  0
  191.7340  176.5940  146.5040 C   0  0  0  0  0  3  0  0  0  0  0  0
  187.7210  177.9580  144.5450 C   0  0  0  0  0  0  0  0  0  0  0  0
  190.3920  176.8470  146.8240 C   0  0  0  0  0  3  0  0  0  0  0  0
  186.5090  178.4350  144.2310 C   0  0  0  0  0  3  0  0  0  0  0  0
  186.1240  178.8170  142.8360 C   0  0  0  0  0  2  0  0  0  0  0  0
  192.1830  176.7270  145.1780 C   0  0  0  0  0  0  0  0  0  0  0  0
  188.0830  177.5670  145.9510 C   0  0  1  0  0  3  0  0  0  0  0  0
  186.1690  177.6030  141.9220 C   0  0  0  0  0  2  0  0  0  0  0  0
  187.2440  176.3930  146.4720 C   0  0  0  0  0  2  0  0  0  0  0  0
  185.9430  176.8950  147.6530 S   0  0  0  0  0  1  0  0  0  0  0  0
  189.7180  176.1910  141.7800 C   0  0  0  0  0  2  0  0  0  0  0  0
  189.8490  174.8010  142.0430 O   0  0  0  0  0  0  0  0  0  0  0  0
  194.6400  172.5530  143.7460 F   0  0  0  0  0  0  0  0  0  0  0  0
  193.4240  173.7970  142.1200 C   0  0  0  0  0  3  0  0  0  0  0  0
  191.0520  174.2170  142.4550 C   0  0  0  0  0  0  0  0  0  0  0  0
  192.3150  172.9400  144.0900 C   0  0  0  0  0  3  0  0  0  0  0  0
  192.2210  174.3600  141.6890 C   0  0  0  0  0  3  0  0  0  0  0  0
  191.0950  173.4810  143.6560 C   0  0  0  0  0  0  0  0  0  0  0  0
  193.4720  173.0910  143.3220 C   0  0  0  0  0  0  0  0  0  0  0  0
  188.8510  172.4430  143.8570 C   0  0  0  0  0  2  0  0  0  0  0  0
  189.6930  171.9150  144.9940 C   0  0  0  0  0  2  0  0  0  0  0  0
  189.8730  173.3500  144.5230 C   0  0  0  0  0  3  0  0  0  0  0  0
  193.6070  176.4390  144.8340 C   0  0  0  0  0  2  0  0  0  0  0  0
  194.2740  175.5640  145.8900 C   0  0  0  0  0  2  0  0  0  0  0  0
  196.0270  175.7630  144.1270 C   0  0  0  0  0  1  0  0  0  0  0  0
  195.6890  175.1780  145.4840 C   0  0  0  0  0  2  0  0  0  0  0  0
  1 17  1  6  0  0  0
  1  4  1  0  0  0  0
  2  5  1  0  0  0  0
  3 14  1  0  0  0  0
  3  1  1  0  0  0  0
  4  2  1  1  0  0  0
  4  8  1  0  0  0  0
  5 13  1  0  0  0  0
  5  9  2  0  0  0  0
  6  2  2  0  0  0  0
  6 12  1  0  0  0  0
  7  9  1  0  0  0  0
  8 13  1  0  0  0  0
 10  8  2  0  0  0  0
 11 10  1  0  0  0  0
 12  7  2  0  0  0  0
 13 15  1  6  0  0  0
 14 11  1  0  0  0  0
 15 16  1  0  0  0  0
 17 18  1  0  0  0  0
 18 21  1  0  0  0  0
 20 25  1  0  0  0  0
 21 24  2  0  0  0  0
 23 20  2  0  0  0  0
 23 21  1  0  0  0  0
 24 22  1  0  0  0  0
 24 28  1  0  0  0  0
 25 19  1  0  0  0  0
 25 22  2  0  0  0  0
 26 28  1  0  0  0  0
 26 27  1  0  0  0  0
 28 27  1  0  0  0  0
 29 12  1  0  0  0  0
 29 30  1  0  0  0  0
 31 32  1  0  0  0  0
 32 30  1  0  0  0  0
M  END
>  <MODEL>
8

>  <REMARK>
 VINA RESULT:      -6.0      2.307      4.488
  Name = 
  8 active torsions:
  status: ('A' for Active; 'I' for Inactive)
    1  A    between atoms: C_1  and  C_27
    2  A    between atoms: C_9  and  C_31
    3  A    between atoms: C_9  and  C_32
    4  A    between atoms: C_13  and  C_29
    5  A    between atoms: C_16  and  O_24
    6  A    between atoms: C_22  and  C_23
    7  A    between atoms: O_24  and  C_27
    8  A    between atoms: C_28  and  C_32
                            x       y       z     vdW  Elec       q    Type
                         _______ _______ _______ _____ _____    ______ ____

>  <TORSDO>
F 8

$$$$
=
 OpenBabel11052419183D

 32 36  0  0  1  0  0  0  0  0999 V2000
  190.8730  175.1670  146.2580 C   0  0  2  0  0  3  0  0  0  0  0  0
  191.0510  174.0270  143.9890 C   0  0  0  0  0  0  0  0  0  0  0  0
  191.2610  176.4410  147.0100 C   0  0  0  0  0  2  0  0  0  0  0  0
  191.5780  175.1060  144.8850 C   0  0  2  0  0  3  0  0  0  0  0  0
  191.9970  173.0590  143.7070 C   0  0  0  0  0  0  0  0  0  0  0  0
  189.7840  173.9750  143.3990 C   0  0  0  0  0  3  0  0  0  0  0  0
  190.4350  171.9150  142.2770 C   0  0  0  0  0  3  0  0  0  0  0  0
  193.0110  174.6440  145.0550 C   0  0  0  0  0  0  0  0  0  0  0  0
  191.7120  171.9950  142.8490 C   0  0  0  0  0  3  0  0  0  0  0  0
  193.9580  175.3180  145.7210 C   0  0  0  0  0  3  0  0  0  0  0  0
  193.6900  176.6090  146.4280 C   0  0  0  0  0  2  0  0  0  0  0  0
  189.4720  172.9020  142.5520 C   0  0  0  0  0  0  0  0  0  0  0  0
  193.2980  173.3410  144.3620 C   0  0  1  0  0  3  0  0  0  0  0  0
  192.6840  176.4000  147.5500 C   0  0  0  0  0  2  0  0  0  0  0  0
  193.7100  172.2310  145.3380 C   0  0  0  0  0  2  0  0  0  0  0  0
  195.4860  171.8100  145.2540 S   0  0  0  0  0  1  0  0  0  0  0  0
  189.3580  175.1680  146.1240 C   0  0  0  0  0  2  0  0  0  0  0  0
  188.9200  176.4110  145.5940 O   0  0  0  0  0  0  0  0  0  0  0  0
  183.7140  178.3060  146.0580 F   0  0  0  0  0  0  0  0  0  0  0  0
  185.8410  177.8970  147.0460 C   0  0  0  0  0  3  0  0  0  0  0  0
  187.6040  176.8680  145.7230 C   0  0  0  0  0  0  0  0  0  0  0  0
  185.4200  177.2850  144.7460 C   0  0  0  0  0  3  0  0  0  0  0  0
  187.1480  177.4190  146.9330 C   0  0  0  0  0  3  0  0  0  0  0  0
  186.7240  176.7810  144.6260 C   0  0  0  0  0  0  0  0  0  0  0  0
  184.9790  177.8340  145.9520 C   0  0  0  0  0  0  0  0  0  0  0  0
  186.3700  176.8340  142.1710 C   0  0  0  0  0  2  0  0  0  0  0  0
  187.7640  177.3510  142.4350 C   0  0  0  0  0  2  0  0  0  0  0  0
  187.1930  176.2410  143.3030 C   0  0  0  0  0  3  0  0  0  0  0  0
  188.1060  172.8060  141.9570 C   0  0  0  0  0  2  0  0  0  0  0  0
  188.1510  172.8480  140.4340 C   0  0  0  0  0  2  0  0  0  0  0  0
  188.2280  174.3320  138.4320 C   0  0  0  0  0  1  0  0  0  0  0  0
  188.4880  174.2400  139.9220 C   0  0  0  0  0  2  0  0  0  0  0  0
  1 17  1  6  0  0  0
  1  3  1  0  0  0  0
  3 14  1  0  0  0  0
  4  2  1  6  0  0  0
  4  8  1  0  0  0  0
  4  1  1  0  0  0  0
  5  2  1  0  0  0  0
  5 13  1  0  0  0  0
  6  2  2  0  0  0  0
  7 12  2  0  0  0  0
  7  9  1  0  0  0  0
  8 10  2  0  0  0  0
  9  5  2  0  0  0  0
 10 11  1  0  0  0  0
 11 14  1  0  0  0  0
 12  6  1  0  0  0  0
 13  8  1  0  0  0  0
 13 15  1  1  0  0  0
 16 15  1  0  0  0  0
 18 21  1  0  0  0  0
 18 17  1  0  0  0  0
 21 23  2  0  0  0  0
 22 25  1  0  0  0  0
 23 20  1  0  0  0  0
 24 22  2  0  0  0  0
 24 21  1  0  0  0  0
 25 19  1  0  0  0  0
 25 20  2  0  0  0  0
 26 27  1  0  0  0  0
 26 28  1  0  0  0  0
 27 28  1  0  0  0  0
 28 24  1  0  0  0  0
 29 12  1  0  0  0  0
 30 29  1  0  0  0  0
 31 32  1  0  0  0  0
 32 30  1  0  0  0  0
M  END
>  <MODEL>
9

>  <REMARK>
 VINA RESULT:      -6.0      3.268      6.582
  Name = 
  8 active torsions:
  status: ('A' for Active; 'I' for Inactive)
    1  A    between atoms: C_1  and  C_27
    2  A    between atoms: C_9  and  C_31
    3  A    between atoms: C_9  and  C_32
    4  A    between atoms: C_13  and  C_29
    5  A    between atoms: C_16  and  O_24
    6  A    between atoms: C_22  and  C_23
    7  A    between atoms: O_24  and  C_27
    8  A    between atoms: C_28  and  C_32
                            x       y       z     vdW  Elec       q    Type
                         _______ _______ _______ _____ _____    ______ ____

>  <TORSDO>
F 8

$$$$
