=
 OpenBabel11052421123D

 43 49  0  0  1  0  0  0  0  0999 V2000
  185.9480  179.0070  143.7740 C   0  0  0  0  0  0  0  0  0  0  0  0
  188.0730  175.4170  140.9400 C   0  0  0  0  0  0  0  0  0  0  0  0
  189.5670  173.7580  142.6540 C   0  0  0  0  0  0  0  0  0  0  0  0
  186.6580  177.5990  141.9370 C   0  0  0  0  0  0  0  0  0  0  0  0
  186.6820  178.2200  144.6660 C   0  0  0  0  0  3  0  0  0  0  0  0
  185.1760  180.1740  144.2760 C   0  0  0  0  0  1  0  0  0  0  0  0
  187.4030  176.7950  142.8300 C   0  0  0  0  0  0  0  0  0  0  0  0
  185.9360  178.6970  142.4110 C   0  0  0  0  0  3  0  0  0  0  0  0
  187.4050  177.1200  144.1980 C   0  0  0  0  0  3  0  0  0  0  0  0
  188.8680  174.8570  143.1700 C   0  0  0  0  0  3  0  0  0  0  0  0
  188.1190  175.6920  142.3290 C   0  0  0  0  0  0  0  0  0  0  0  0
  187.3440  176.2200  140.1150 N   0  0  0  0  0  0  0  0  0  0  0  0
  188.7790  174.3170  140.4220 C   0  0  0  0  0  0  0  0  0  0  0  0
  189.5140  173.4950  141.2810 C   0  0  0  0  0  3  0  0  0  0  0  0
  186.6460  177.2890  140.5780 C   0  0  0  0  0  3  0  0  0  0  0  0
  190.3400  172.8720  143.5410 C   0  0  0  0  0  0  0  0  0  0  0  0
  191.5760  172.5840  143.2550 N   0  0  0  0  0  0  0  0  0  0  0  0
  189.7470  172.3700  144.6570 F   0  0  0  0  0  0  0  0  0  0  0  0
  192.4400  171.7520  144.0410 C   0  0  0  0  0  0  0  0  0  0  0  0
  192.2370  170.5130  144.1500 O   0  0  0  0  0  0  0  0  0  0  0  0
  193.5870  172.3670  144.7660 C   0  0  0  0  0  2  0  0  0  0  0  0
  194.1490  173.5450  143.9820 C   0  0  2  0  0  3  0  0  0  0  0  0
  195.5000  175.8890  144.3410 S   0  0  0  0  0  0  0  0  0  0  0  0
  195.5940  173.2940  143.6130 C   0  0  0  0  0  2  0  0  0  0  0  0
  194.1250  174.7980  144.8370 C   0  0  1  0  0  3  0  0  0  0  0  0
  196.1750  174.6300  143.2160 C   0  0  0  0  0  2  0  0  0  0  0  0
  192.0530  175.8370  145.8840 N   0  0  0  0  0  0  0  0  0  0  0  0
  192.8090  175.5040  144.7130 C   0  0  0  0  0  0  0  0  0  0  0  0
  189.6650  175.5830  146.3350 C   0  0  0  0  0  2  0  0  0  0  0  0
  191.3600  175.9660  148.1360 C   0  0  0  0  0  3  0  0  0  0  0  0
  190.2880  176.6160  147.2590 C   0  0  1  0  0  3  0  0  0  0  0  0
  192.5100  175.5620  147.2310 C   0  0  0  0  0  3  0  0  0  0  0  0
  190.7620  176.4980  145.8200 C   0  0  1  0  0  3  0  0  0  0  0  0
  192.3560  175.7830  143.5690 O   0  0  0  0  0  0  0  0  0  0  0  0
  188.7330  173.9830  138.9650 C   0  0  0  0  0  2  0  0  0  0  0  0
  190.2810  170.8800  137.5950 C   0  0  0  0  0  2  0  0  0  0  0  0
  191.7010  171.4560  137.5990 C   0  0  2  0  0  3  0  0  0  0  0  0
  190.7130  173.7940  137.7260 C   0  0  0  0  0  2  0  0  0  0  0  0
  189.2210  171.9480  137.8930 C   0  0  0  0  0  2  0  0  0  0  0  0
  189.8110  173.0670  138.6250 N   0  0  0  0  0  0  0  0  0  0  0  0
  191.7200  172.8700  137.0170 C   0  0  0  0  0  2  0  0  0  0  0  0
  191.9430  169.9740  135.7420 O   0  0  0  0  0  1  0  0  0  0  0  0
  192.6280  170.5410  136.8190 C   0  0  0  0  0  2  0  0  0  0  0  0
  1  6  1  0  0  0  0
  1  5  1  0  0  0  0
  2 11  1  0  0  0  0
  3 10  1  0  0  0  0
  3 16  1  0  0  0  0
  4  8  1  0  0  0  0
  4  7  2  0  0  0  0
  7  9  1  0  0  0  0
  8  1  2  0  0  0  0
  9  5  2  0  0  0  0
 11  7  1  0  0  0  0
 11 10  2  0  0  0  0
 12 15  2  0  0  0  0
 12  2  1  0  0  0  0
 13  2  2  0  0  0  0
 13 14  1  0  0  0  0
 14  3  2  0  0  0  0
 15  4  1  0  0  0  0
 16 18  1  0  0  0  0
 17 16  2  0  0  0  0
 17 19  1  0  0  0  0
 19 20  2  0  0  0  0
 19 21  1  0  0  0  0
 22 21  1  1  0  0  0
 22 25  1  0  0  0  0
 23 25  1  0  0  0  0
 24 22  1  0  0  0  0
 25 28  1  6  0  0  0
 26 24  1  0  0  0  0
 26 23  1  0  0  0  0
 27 32  1  0  0  0  0
 28 27  1  0  0  0  0
 31 29  1  6  0  0  0
 31 30  1  0  0  0  0
 32 30  2  0  0  0  0
 33 27  1  0  0  0  0
 33 29  1  6  0  0  0
 33 31  1  0  0  0  0
 34 28  2  0  0  0  0
 35 13  1  0  0  0  0
 36 37  1  0  0  0  0
 36 39  1  0  0  0  0
 37 43  1  6  0  0  0
 38 40  1  0  0  0  0
 39 40  1  0  0  0  0
 40 35  1  0  0  0  0
 41 37  1  0  0  0  0
 41 38  1  0  0  0  0
 42 43  1  0  0  0  0
M  END
>  <MODEL>
1

>  <REMARK>
 VINA RESULT:      -7.8      0.000      0.000
  Name = 
  8 active torsions:
  status: ('A' for Active; 'I' for Inactive)
    1  A    between atoms: C_1  and  C_34
    2  A    between atoms: C_1  and  N_35
    3  A    between atoms: C_2  and  C_13
    4  A    between atoms: C_3  and  C_4
    5  A    between atoms: C_3  and  C_12
    6  A    between atoms: N_6  and  C_12
    7  A    between atoms: C_14  and  C_22
    8  A    between atoms: C_19  and  C_37
                            x       y       z     vdW  Elec       q    Type
                         _______ _______ _______ _____ _____    ______ ____

>  <TORSDO>
F 8

$$$$
=
 OpenBabel11052421123D

 43 49  0  0  1  0  0  0  0  0999 V2000
  190.2940  171.3510  135.9020 C   0  0  0  0  0  0  0  0  0  0  0  0
  188.8710  174.0990  139.8850 C   0  0  0  0  0  0  0  0  0  0  0  0
  190.2200  173.0860  142.1380 C   0  0  0  0  0  0  0  0  0  0  0  0
  189.2550  172.9770  137.3650 C   0  0  0  0  0  0  0  0  0  0  0  0
  190.9800  170.8050  136.9910 C   0  0  0  0  0  3  0  0  0  0  0  0
  190.4830  170.7800  134.5430 C   0  0  0  0  0  1  0  0  0  0  0  0
  189.9450  172.4330  138.4730 C   0  0  0  0  0  0  0  0  0  0  0  0
  189.4320  172.4360  136.0890 C   0  0  0  0  0  3  0  0  0  0  0  0
  190.8080  171.3420  138.2690 C   0  0  0  0  0  3  0  0  0  0  0  0
  190.4170  172.5040  140.8790 C   0  0  0  0  0  3  0  0  0  0  0  0
  189.7530  172.9990  139.7470 C   0  0  0  0  0  0  0  0  0  0  0  0
  188.2260  174.5900  138.7900 N   0  0  0  0  0  0  0  0  0  0  0  0
  188.6710  174.6790  141.1500 C   0  0  0  0  0  0  0  0  0  0  0  0
  189.3480  174.1720  142.2630 C   0  0  0  0  0  3  0  0  0  0  0  0
  188.3970  174.0590  137.5520 C   0  0  0  0  0  3  0  0  0  0  0  0
  190.9300  172.5760  143.3240 C   0  0  0  0  0  0  0  0  0  0  0  0
  192.1430  172.1210  143.2090 N   0  0  0  0  0  0  0  0  0  0  0  0
  190.3040  172.5960  144.5310 F   0  0  0  0  0  0  0  0  0  0  0  0
  192.9480  171.6160  144.2820 C   0  0  0  0  0  0  0  0  0  0  0  0
  192.8060  170.4400  144.7120 O   0  0  0  0  0  0  0  0  0  0  0  0
  193.9570  172.5060  144.9220 C   0  0  0  0  0  2  0  0  0  0  0  0
  194.3420  173.6420  143.9860 C   0  0  2  0  0  3  0  0  0  0  0  0
  195.4440  176.1390  144.0100 S   0  0  0  0  0  0  0  0  0  0  0  0
  195.7840  173.5040  143.5500 C   0  0  0  0  0  2  0  0  0  0  0  0
  194.2270  174.9720  144.7070 C   0  0  1  0  0  3  0  0  0  0  0  0
  196.1920  174.8420  142.9800 C   0  0  0  0  0  2  0  0  0  0  0  0
  192.0050  175.6240  145.7600 N   0  0  0  0  0  0  0  0  0  0  0  0
  192.8360  175.5200  144.5970 C   0  0  0  0  0  0  0  0  0  0  0  0
  189.6560  175.0280  146.0690 C   0  0  0  0  0  2  0  0  0  0  0  0
  191.2280  175.4120  147.9780 C   0  0  0  0  0  3  0  0  0  0  0  0
  190.1110  176.0190  147.1260 C   0  0  1  0  0  3  0  0  0  0  0  0
  192.4480  175.2570  147.0890 C   0  0  0  0  0  3  0  0  0  0  0  0
  190.6430  176.1230  145.7070 C   0  0  1  0  0  3  0  0  0  0  0  0
  192.3890  175.8680  143.4700 O   0  0  0  0  0  0  0  0  0  0  0  0
  187.7660  175.8570  141.3270 C   0  0  0  0  0  2  0  0  0  0  0  0
  188.0680  177.9280  144.4140 C   0  0  0  0  0  2  0  0  0  0  0  0
  187.1020  177.0580  145.2230 C   0  0  2  0  0  3  0  0  0  0  0  0
  186.1950  176.1050  143.0480 C   0  0  0  0  0  2  0  0  0  0  0  0
  188.0790  177.5530  142.9270 C   0  0  0  0  0  2  0  0  0  0  0  0
  187.6270  176.1750  142.7400 N   0  0  0  0  0  0  0  0  0  0  0  0
  185.8470  176.7310  144.4110 C   0  0  0  0  0  2  0  0  0  0  0  0
  185.8500  176.9780  147.2560 O   0  0  0  0  0  1  0  0  0  0  0  0
  186.7360  177.7650  146.5160 C   0  0  0  0  0  2  0  0  0  0  0  0
  1  8  2  0  0  0  0
  1  5  1  0  0  0  0
  2 13  1  0  0  0  0
  3 14  1  0  0  0  0
  3 16  1  0  0  0  0
  4 15  2  0  0  0  0
  4  7  1  0  0  0  0
  5  9  2  0  0  0  0
  6  1  1  0  0  0  0
  7 11  2  0  0  0  0
  8  4  1  0  0  0  0
  9  7  1  0  0  0  0
 10  3  2  0  0  0  0
 11  2  1  0  0  0  0
 11 10  1  0  0  0  0
 12  2  2  0  0  0  0
 13 35  1  0  0  0  0
 13 14  2  0  0  0  0
 15 12  1  0  0  0  0
 16 18  1  0  0  0  0
 17 16  2  0  0  0  0
 17 19  1  0  0  0  0
 19 20  2  0  0  0  0
 19 21  1  0  0  0  0
 22 25  1  0  0  0  0
 22 21  1  1  0  0  0
 23 25  1  0  0  0  0
 24 22  1  0  0  0  0
 25 28  1  6  0  0  0
 26 24  1  0  0  0  0
 26 23  1  0  0  0  0
 27 32  1  0  0  0  0
 28 27  1  0  0  0  0
 31 29  1  6  0  0  0
 31 30  1  0  0  0  0
 32 30  2  0  0  0  0
 33 27  1  0  0  0  0
 33 29  1  6  0  0  0
 33 31  1  0  0  0  0
 34 28  2  0  0  0  0
 35 40  1  0  0  0  0
 36 37  1  0  0  0  0
 37 43  1  1  0  0  0
 38 41  1  0  0  0  0
 39 36  1  0  0  0  0
 40 39  1  0  0  0  0
 40 38  1  0  0  0  0
 41 37  1  0  0  0  0
 43 42  1  0  0  0  0
M  END
>  <MODEL>
2

>  <REMARK>
 VINA RESULT:      -7.7      1.872      6.262
  Name = 
  8 active torsions:
  status: ('A' for Active; 'I' for Inactive)
    1  A    between atoms: C_1  and  C_34
    2  A    between atoms: C_1  and  N_35
    3  A    between atoms: C_2  and  C_13
    4  A    between atoms: C_3  and  C_4
    5  A    between atoms: C_3  and  C_12
    6  A    between atoms: N_6  and  C_12
    7  A    between atoms: C_14  and  C_22
    8  A    between atoms: C_19  and  C_37
                            x       y       z     vdW  Elec       q    Type
                         _______ _______ _______ _____ _____    ______ ____

>  <TORSDO>
F 8

$$$$
=
 OpenBabel11052421123D

 43 49  0  0  1  0  0  0  0  0999 V2000
  185.2320  177.9200  145.8470 C   0  0  0  0  0  0  0  0  0  0  0  0
  188.6290  175.4860  143.0230 C   0  0  0  0  0  0  0  0  0  0  0  0
  191.0790  175.5450  144.4060 C   0  0  0  0  0  0  0  0  0  0  0  0
  186.3530  176.6810  144.0950 C   0  0  0  0  0  0  0  0  0  0  0  0
  186.4280  177.9860  146.5690 C   0  0  0  0  0  3  0  0  0  0  0  0
  183.9990  178.5420  146.3950 C   0  0  0  0  0  1  0  0  0  0  0  0
  187.5670  176.7400  144.8170 C   0  0  0  0  0  0  0  0  0  0  0  0
  185.1950  177.2690  144.6110 C   0  0  0  0  0  3  0  0  0  0  0  0
  187.5890  177.4000  146.0590 C   0  0  0  0  0  3  0  0  0  0  0  0
  189.9460  176.1590  144.9550 C   0  0  0  0  0  3  0  0  0  0  0  0
  188.7190  176.1370  144.2780 C   0  0  0  0  0  0  0  0  0  0  0  0
  187.4390  175.4540  142.3600 N   0  0  0  0  0  0  0  0  0  0  0  0
  189.7690  174.8740  142.4710 C   0  0  0  0  0  0  0  0  0  0  0  0
  190.9810  174.9040  143.1670 C   0  0  0  0  0  3  0  0  0  0  0  0
  186.3170  176.0300  142.8630 C   0  0  0  0  0  3  0  0  0  0  0  0
  192.3650  175.5550  145.1260 C   0  0  0  0  0  0  0  0  0  0  0  0
  193.3520  176.2780  144.6840 N   0  0  0  0  0  0  0  0  0  0  0  0
  192.4990  174.8060  146.2540 F   0  0  0  0  0  0  0  0  0  0  0  0
  194.6430  176.3890  145.2980 C   0  0  0  0  0  0  0  0  0  0  0  0
  194.8190  177.0860  146.3330 O   0  0  0  0  0  0  0  0  0  0  0  0
  195.8060  175.6870  144.6880 C   0  0  0  0  0  2  0  0  0  0  0  0
  195.7330  174.1910  144.9560 C   0  0  2  0  0  3  0  0  0  0  0  0
  196.9200  171.8400  144.2420 S   0  0  0  0  0  0  0  0  0  0  0  0
  196.6780  173.8050  146.0720 C   0  0  0  0  0  2  0  0  0  0  0  0
  196.1680  173.4190  143.7250 C   0  0  1  0  0  3  0  0  0  0  0  0
  196.8440  172.3060  145.9970 C   0  0  0  0  0  2  0  0  0  0  0  0
  195.1120  173.5130  141.4120 N   0  0  0  0  0  0  0  0  0  0  0  0
  195.0090  173.1850  142.8030 C   0  0  0  0  0  0  0  0  0  0  0  0
  193.5320  174.6690  139.9510 C   0  0  0  0  0  2  0  0  0  0  0  0
  195.9440  174.3500  139.3690 C   0  0  0  0  0  3  0  0  0  0  0  0
  194.5180  173.8440  139.1430 C   0  0  1  0  0  3  0  0  0  0  0  0
  196.3180  174.0400  140.8070 C   0  0  0  0  0  3  0  0  0  0  0  0
  194.0140  173.3300  140.4810 C   0  0  1  0  0  3  0  0  0  0  0  0
  193.9310  172.7180  143.2630 O   0  0  0  0  0  0  0  0  0  0  0  0
  189.7040  174.1570  141.1600 C   0  0  0  0  0  2  0  0  0  0  0  0
  190.4800  170.6660  142.2180 C   0  0  0  0  0  2  0  0  0  0  0  0
  191.5550  170.4650  141.1470 C   0  0  2  0  0  3  0  0  0  0  0  0
  190.5810  172.4220  139.8510 C   0  0  0  0  0  2  0  0  0  0  0  0
  189.6890  171.9630  142.0090 C   0  0  0  0  0  2  0  0  0  0  0  0
  190.4680  172.9210  141.2260 N   0  0  0  0  0  0  0  0  0  0  0  0
  191.0720  170.9650  139.7840 C   0  0  0  0  0  2  0  0  0  0  0  0
  192.1340  168.6190  139.7460 O   0  0  0  0  0  1  0  0  0  0  0  0
  191.9390  168.9970  141.0750 C   0  0  0  0  0  2  0  0  0  0  0  0
  1  6  1  0  0  0  0
  1  5  1  0  0  0  0
  2 11  1  0  0  0  0
  3 10  1  0  0  0  0
  3 16  1  0  0  0  0
  4  8  1  0  0  0  0
  4  7  2  0  0  0  0
  7  9  1  0  0  0  0
  8  1  2  0  0  0  0
  9  5  2  0  0  0  0
 11  7  1  0  0  0  0
 11 10  2  0  0  0  0
 12 15  2  0  0  0  0
 12  2  1  0  0  0  0
 13  2  2  0  0  0  0
 13 14  1  0  0  0  0
 14  3  2  0  0  0  0
 15  4  1  0  0  0  0
 16 18  1  0  0  0  0
 17 16  2  0  0  0  0
 17 19  1  0  0  0  0
 19 20  2  0  0  0  0
 21 19  1  0  0  0  0
 22 21  1  6  0  0  0
 22 24  1  0  0  0  0
 23 26  1  0  0  0  0
 25 28  1  6  0  0  0
 25 23  1  0  0  0  0
 25 22  1  0  0  0  0
 26 24  1  0  0  0  0
 27 28  1  0  0  0  0
 28 34  2  0  0  0  0
 30 32  2  0  0  0  0
 31 30  1  1  0  0  0
 31 29  1  0  0  0  0
 31 33  1  0  0  0  0
 32 27  1  0  0  0  0
 33 29  1  1  0  0  0
 33 27  1  0  0  0  0
 35 40  1  0  0  0  0
 35 13  1  0  0  0  0
 37 43  1  6  0  0  0
 37 36  1  0  0  0  0
 38 40  1  0  0  0  0
 39 36  1  0  0  0  0
 40 39  1  0  0  0  0
 41 38  1  0  0  0  0
 41 37  1  0  0  0  0
 42 43  1  0  0  0  0
M  END
>  <MODEL>
3

>  <REMARK>
 VINA RESULT:      -7.7      2.553      4.379
  Name = 
  8 active torsions:
  status: ('A' for Active; 'I' for Inactive)
    1  A    between atoms: C_1  and  C_34
    2  A    between atoms: C_1  and  N_35
    3  A    between atoms: C_2  and  C_13
    4  A    between atoms: C_3  and  C_4
    5  A    between atoms: C_3  and  C_12
    6  A    between atoms: N_6  and  C_12
    7  A    between atoms: C_14  and  C_22
    8  A    between atoms: C_19  and  C_37
                            x       y       z     vdW  Elec       q    Type
                         _______ _______ _______ _____ _____    ______ ____

>  <TORSDO>
F 8

$$$$
=
 OpenBabel11052421123D

 43 49  0  0  1  0  0  0  0  0999 V2000
  185.1300  177.9990  145.9040 C   0  0  0  0  0  0  0  0  0  0  0  0
  188.6240  175.5820  143.1860 C   0  0  0  0  0  0  0  0  0  0  0  0
  191.0240  175.6330  144.6550 C   0  0  0  0  0  0  0  0  0  0  0  0
  186.3120  176.7710  144.1840 C   0  0  0  0  0  0  0  0  0  0  0  0
  186.2980  178.0600  146.6680 C   0  0  0  0  0  3  0  0  0  0  0  0
  183.8780  178.6170  146.4120 C   0  0  0  0  0  1  0  0  0  0  0  0
  187.4990  176.8250  144.9490 C   0  0  0  0  0  0  0  0  0  0  0  0
  185.1360  177.3550  144.6630 C   0  0  0  0  0  3  0  0  0  0  0  0
  187.4770  177.4770  146.1950 C   0  0  0  0  0  3  0  0  0  0  0  0
  189.8720  176.2440  145.1670 C   0  0  0  0  0  3  0  0  0  0  0  0
  188.6690  176.2250  144.4480 C   0  0  0  0  0  0  0  0  0  0  0  0
  187.4590  175.5550  142.4810 N   0  0  0  0  0  0  0  0  0  0  0  0
  189.7830  174.9740  142.6710 C   0  0  0  0  0  0  0  0  0  0  0  0
  190.9700  175.0000  143.4090 C   0  0  0  0  0  3  0  0  0  0  0  0
  186.3190  176.1280  142.9480 C   0  0  0  0  0  3  0  0  0  0  0  0
  192.2840  175.6380  145.4190 C   0  0  0  0  0  0  0  0  0  0  0  0
  193.3030  176.3220  144.9880 N   0  0  0  0  0  0  0  0  0  0  0  0
  192.3590  174.9280  146.5770 F   0  0  0  0  0  0  0  0  0  0  0  0
  194.5740  176.4240  145.6440 C   0  0  0  0  0  0  0  0  0  0  0  0
  194.8950  177.4540  146.2950 O   0  0  0  0  0  0  0  0  0  0  0  0
  195.5460  175.3010  145.5340 C   0  0  0  0  0  2  0  0  0  0  0  0
  196.2410  175.3220  144.1800 C   0  0  2  0  0  3  0  0  0  0  0  0
  195.7020  175.1620  141.5090 S   0  0  0  0  0  0  0  0  0  0  0  0
  196.2820  176.7290  143.6260 C   0  0  0  0  0  2  0  0  0  0  0  0
  195.4640  174.4800  143.1840 C   0  0  1  0  0  3  0  0  0  0  0  0
  196.6010  176.6030  142.1560 C   0  0  0  0  0  2  0  0  0  0  0  0
  195.0010  172.0400  143.7320 N   0  0  0  0  0  0  0  0  0  0  0  0
  195.8970  173.0460  143.2460 C   0  0  0  0  0  0  0  0  0  0  0  0
  195.4020  170.2000  145.2880 C   0  0  0  0  0  2  0  0  0  0  0  0
  193.1090  171.0060  144.6930 C   0  0  0  0  0  3  0  0  0  0  0  0
  194.1720  169.9360  144.4380 C   0  0  1  0  0  3  0  0  0  0  0  0
  193.6420  172.3190  144.1480 C   0  0  0  0  0  3  0  0  0  0  0  0
  195.3760  170.6410  143.8360 C   0  0  1  0  0  3  0  0  0  0  0  0
  197.0650  172.7310  142.8890 O   0  0  0  0  0  0  0  0  0  0  0  0
  189.7650  174.2650  141.3530 C   0  0  0  0  0  2  0  0  0  0  0  0
  190.5070  170.6620  141.9600 C   0  0  0  0  0  2  0  0  0  0  0  0
  191.8510  170.7030  141.2270 C   0  0  2  0  0  3  0  0  0  0  0  0
  191.1140  172.8430  140.0700 C   0  0  0  0  0  2  0  0  0  0  0  0
  189.6990  171.9500  141.7620 C   0  0  0  0  0  2  0  0  0  0  0  0
  190.5820  173.0630  141.4190 N   0  0  0  0  0  0  0  0  0  0  0  0
  191.7250  171.4410  139.8930 C   0  0  0  0  0  2  0  0  0  0  0  0
  191.9750  168.4760  142.0790 O   0  0  0  0  0  1  0  0  0  0  0  0
  192.3620  169.2890  141.0120 C   0  0  0  0  0  2  0  0  0  0  0  0
  1  6  1  0  0  0  0
  1  5  1  0  0  0  0
  2 11  1  0  0  0  0
  3 10  1  0  0  0  0
  3 16  1  0  0  0  0
  4  8  1  0  0  0  0
  4  7  2  0  0  0  0
  7  9  1  0  0  0  0
  8  1  2  0  0  0  0
  9  5  2  0  0  0  0
 11  7  1  0  0  0  0
 11 10  2  0  0  0  0
 12 15  2  0  0  0  0
 12  2  1  0  0  0  0
 13  2  2  0  0  0  0
 13 14  1  0  0  0  0
 14  3  2  0  0  0  0
 15  4  1  0  0  0  0
 16 18  1  0  0  0  0
 17 16  2  0  0  0  0
 17 19  1  0  0  0  0
 19 20  2  0  0  0  0
 21 19  1  0  0  0  0
 22 21  1  1  0  0  0
 23 26  1  0  0  0  0
 23 25  1  0  0  0  0
 24 22  1  0  0  0  0
 25 28  1  6  0  0  0
 25 22  1  0  0  0  0
 26 24  1  0  0  0  0
 27 33  1  0  0  0  0
 27 32  1  0  0  0  0
 28 27  1  0  0  0  0
 31 30  1  1  0  0  0
 31 29  1  0  0  0  0
 32 30  2  0  0  0  0
 33 31  1  0  0  0  0
 33 29  1  1  0  0  0
 34 28  2  0  0  0  0
 35 40  1  0  0  0  0
 35 13  1  0  0  0  0
 37 43  1  6  0  0  0
 37 36  1  0  0  0  0
 38 40  1  0  0  0  0
 39 36  1  0  0  0  0
 40 39  1  0  0  0  0
 41 38  1  0  0  0  0
 41 37  1  0  0  0  0
 43 42  1  0  0  0  0
M  END
>  <MODEL>
4

>  <REMARK>
 VINA RESULT:      -7.7      2.395      4.201
  Name = 
  8 active torsions:
  status: ('A' for Active; 'I' for Inactive)
    1  A    between atoms: C_1  and  C_34
    2  A    between atoms: C_1  and  N_35
    3  A    between atoms: C_2  and  C_13
    4  A    between atoms: C_3  and  C_4
    5  A    between atoms: C_3  and  C_12
    6  A    between atoms: N_6  and  C_12
    7  A    between atoms: C_14  and  C_22
    8  A    between atoms: C_19  and  C_37
                            x       y       z     vdW  Elec       q    Type
                         _______ _______ _______ _____ _____    ______ ____

>  <TORSDO>
F 8

$$$$
=
 OpenBabel11052421123D

 43 49  0  0  1  0  0  0  0  0999 V2000
  190.7290  170.7700  136.2440 C   0  0  0  0  0  0  0  0  0  0  0  0
  190.8270  171.6740  141.2050 C   0  0  0  0  0  0  0  0  0  0  0  0
  189.1230  173.8590  141.7020 C   0  0  0  0  0  0  0  0  0  0  0  0
  191.1870  170.7010  138.6210 C   0  0  0  0  0  0  0  0  0  0  0  0
  189.8790  171.8630  136.4370 C   0  0  0  0  0  3  0  0  0  0  0  0
  190.9360  170.2220  134.8790 C   0  0  0  0  0  1  0  0  0  0  0  0
  190.3290  171.8050  138.8270 C   0  0  0  0  0  0  0  0  0  0  0  0
  191.3820  170.1890  137.3350 C   0  0  0  0  0  3  0  0  0  0  0  0
  189.6790  172.3780  137.7200 C   0  0  0  0  0  3  0  0  0  0  0  0
  189.3000  173.3870  140.3950 C   0  0  0  0  0  3  0  0  0  0  0  0
  190.1450  172.2990  140.1320 C   0  0  0  0  0  0  0  0  0  0  0  0
  191.6460  170.6140  140.9610 N   0  0  0  0  0  0  0  0  0  0  0  0
  190.6520  172.1520  142.5160 C   0  0  0  0  0  0  0  0  0  0  0  0
  189.8000  173.2350  142.7550 C   0  0  0  0  0  3  0  0  0  0  0  0
  191.8370  170.1220  139.7090 C   0  0  0  0  0  3  0  0  0  0  0  0
  188.2220  174.9910  141.9790 C   0  0  0  0  0  0  0  0  0  0  0  0
  188.5720  176.1980  141.6410 N   0  0  0  0  0  0  0  0  0  0  0  0
  187.0270  174.7540  142.5830 F   0  0  0  0  0  0  0  0  0  0  0  0
  187.7830  177.3780  141.8380 C   0  0  0  0  0  0  0  0  0  0  0  0
  187.0190  177.8140  140.9350 O   0  0  0  0  0  0  0  0  0  0  0  0
  187.8860  178.1210  143.1240 C   0  0  0  0  0  2  0  0  0  0  0  0
  186.5500  178.1250  143.8520 C   0  0  2  0  0  3  0  0  0  0  0  0
  185.3360  179.1560  146.0680 S   0  0  0  0  0  0  0  0  0  0  0  0
  185.7030  179.2930  143.4000 C   0  0  0  0  0  2  0  0  0  0  0  0
  186.7700  178.2930  145.3440 C   0  0  1  0  0  3  0  0  0  0  0  0
  184.6100  179.4560  144.4300 C   0  0  0  0  0  2  0  0  0  0  0  0
  188.2960  176.5730  146.4340 N   0  0  0  0  0  0  0  0  0  0  0  0
  186.9860  176.9650  146.0050 C   0  0  0  0  0  0  0  0  0  0  0  0
  189.4630  174.4430  146.1710 C   0  0  0  0  0  2  0  0  0  0  0  0
  190.6320  176.5740  146.7660 C   0  0  0  0  0  3  0  0  0  0  0  0
  190.0650  175.2590  147.3020 C   0  0  1  0  0  3  0  0  0  0  0  0
  189.4620  177.4220  146.3010 C   0  0  0  0  0  3  0  0  0  0  0  0
  188.5660  175.2900  147.0560 C   0  0  1  0  0  3  0  0  0  0  0  0
  186.0110  176.1790  146.1620 O   0  0  0  0  0  0  0  0  0  0  0  0
  191.3380  171.5010  143.6750 C   0  0  0  0  0  2  0  0  0  0  0  0
  193.7450  173.8790  145.2450 C   0  0  0  0  0  2  0  0  0  0  0  0
  194.9820  173.1310  144.7400 C   0  0  2  0  0  3  0  0  0  0  0  0
  193.5380  171.0730  144.3610 C   0  0  0  0  0  2  0  0  0  0  0  0
  192.4520  173.0890  145.0060 C   0  0  0  0  0  2  0  0  0  0  0  0
  192.6270  172.1330  143.9150 N   0  0  0  0  0  0  0  0  0  0  0  0
  194.8420  171.6240  144.9670 C   0  0  0  0  0  2  0  0  0  0  0  0
  196.8290  172.6510  146.1750 O   0  0  0  0  0  1  0  0  0  0  0  0
  196.2230  173.6650  145.4320 C   0  0  0  0  0  2  0  0  0  0  0  0
  1  5  2  0  0  0  0
  1  8  1  0  0  0  0
  2 13  1  0  0  0  0
  3 16  1  0  0  0  0
  3 14  1  0  0  0  0
  4  7  1  0  0  0  0
  4 15  1  0  0  0  0
  5  9  1  0  0  0  0
  6  1  1  0  0  0  0
  7 11  1  0  0  0  0
  8  4  2  0  0  0  0
  9  7  2  0  0  0  0
 10  3  2  0  0  0  0
 11 10  1  0  0  0  0
 11  2  2  0  0  0  0
 12  2  1  0  0  0  0
 13 14  2  0  0  0  0
 13 35  1  0  0  0  0
 15 12  2  0  0  0  0
 16 18  1  0  0  0  0
 17 19  1  0  0  0  0
 17 16  2  0  0  0  0
 19 21  1  0  0  0  0
 20 19  2  0  0  0  0
 22 21  1  6  0  0  0
 22 25  1  0  0  0  0
 24 22  1  0  0  0  0
 24 26  1  0  0  0  0
 25 28  1  1  0  0  0
 25 23  1  0  0  0  0
 26 23  1  0  0  0  0
 27 33  1  0  0  0  0
 28 34  2  0  0  0  0
 28 27  1  0  0  0  0
 30 31  1  0  0  0  0
 31 29  1  6  0  0  0
 32 27  1  0  0  0  0
 32 30  2  0  0  0  0
 33 29  1  6  0  0  0
 33 31  1  0  0  0  0
 35 40  1  0  0  0  0
 37 41  1  0  0  0  0
 37 36  1  0  0  0  0
 37 43  1  1  0  0  0
 38 41  1  0  0  0  0
 39 36  1  0  0  0  0
 40 38  1  0  0  0  0
 40 39  1  0  0  0  0
 43 42  1  0  0  0  0
M  END
>  <MODEL>
5

>  <REMARK>
 VINA RESULT:      -7.5      3.087      7.794
  Name = 
  8 active torsions:
  status: ('A' for Active; 'I' for Inactive)
    1  A    between atoms: C_1  and  C_34
    2  A    between atoms: C_1  and  N_35
    3  A    between atoms: C_2  and  C_13
    4  A    between atoms: C_3  and  C_4
    5  A    between atoms: C_3  and  C_12
    6  A    between atoms: N_6  and  C_12
    7  A    between atoms: C_14  and  C_22
    8  A    between atoms: C_19  and  C_37
                            x       y       z     vdW  Elec       q    Type
                         _______ _______ _______ _____ _____    ______ ____

>  <TORSDO>
F 8

$$$$
=
 OpenBabel11052421123D

 43 49  0  0  1  0  0  0  0  0999 V2000
  190.3380  170.3520  138.4040 C   0  0  0  0  0  0  0  0  0  0  0  0
  188.6200  174.4820  140.7340 C   0  0  0  0  0  0  0  0  0  0  0  0
  189.5480  174.4040  143.3900 C   0  0  0  0  0  0  0  0  0  0  0  0
  189.2510  172.4480  138.9390 C   0  0  0  0  0  0  0  0  0  0  0  0
  190.8160  170.2620  139.7150 C   0  0  0  0  0  3  0  0  0  0  0  0
  190.6640  169.2870  137.4210 C   0  0  0  0  0  1  0  0  0  0  0  0
  189.7300  172.3680  140.2660 C   0  0  0  0  0  0  0  0  0  0  0  0
  189.5570  171.4440  138.0170 C   0  0  0  0  0  3  0  0  0  0  0  0
  190.5150  171.2630  140.6420 C   0  0  0  0  0  3  0  0  0  0  0  0
  189.8670  173.3690  142.5020 C   0  0  0  0  0  3  0  0  0  0  0  0
  189.4130  173.3940  141.1760 C   0  0  0  0  0  0  0  0  0  0  0  0
  188.1780  174.5180  139.4460 N   0  0  0  0  0  0  0  0  0  0  0  0
  188.2960  175.5180  141.6280 C   0  0  0  0  0  0  0  0  0  0  0  0
  188.7650  175.4740  142.9440 C   0  0  0  0  0  3  0  0  0  0  0  0
  188.4730  173.5380  138.5530 C   0  0  0  0  0  3  0  0  0  0  0  0
  190.0390  174.3850  144.7790 C   0  0  0  0  0  0  0  0  0  0  0  0
  190.7430  175.3800  145.2330 N   0  0  0  0  0  0  0  0  0  0  0  0
  189.7410  173.3210  145.5720 F   0  0  0  0  0  0  0  0  0  0  0  0
  191.2640  175.4920  146.5640 C   0  0  0  0  0  0  0  0  0  0  0  0
  190.7430  176.2690  147.4080 O   0  0  0  0  0  0  0  0  0  0  0  0
  192.4610  174.6940  146.9510 C   0  0  0  0  0  2  0  0  0  0  0  0
  193.7390  175.3940  146.5130 C   0  0  2  0  0  3  0  0  0  0  0  0
  195.0020  176.3130  144.2750 S   0  0  0  0  0  0  0  0  0  0  0  0
  193.5330  176.8910  146.4610 C   0  0  0  0  0  2  0  0  0  0  0  0
  194.1180  174.9540  145.1110 C   0  0  1  0  0  3  0  0  0  0  0  0
  194.6750  177.4550  145.6500 C   0  0  0  0  0  2  0  0  0  0  0  0
  194.4140  172.4570  144.7260 N   0  0  0  0  0  0  0  0  0  0  0  0
  194.9580  173.7130  145.1500 C   0  0  0  0  0  0  0  0  0  0  0  0
  194.5670  170.2500  145.7630 C   0  0  0  0  0  2  0  0  0  0  0  0
  192.8810  170.8150  144.0020 C   0  0  0  0  0  3  0  0  0  0  0  0
  194.2220  170.1370  144.2880 C   0  0  1  0  0  3  0  0  0  0  0  0
  193.0700  172.3070  144.2080 C   0  0  0  0  0  3  0  0  0  0  0  0
  195.1740  171.2210  144.7660 C   0  0  1  0  0  3  0  0  0  0  0  0
  196.1420  173.7740  145.5810 O   0  0  0  0  0  0  0  0  0  0  0  0
  187.4810  176.6930  141.1880 C   0  0  0  0  0  2  0  0  0  0  0  0
  186.3160  178.6470  144.1430 C   0  0  0  0  0  2  0  0  0  0  0  0
  184.8570  178.2010  143.9990 C   0  0  2  0  0  3  0  0  0  0  0  0
  185.3340  177.5410  141.5920 C   0  0  0  0  0  2  0  0  0  0  0  0
  187.1700  178.2340  142.9380 C   0  0  0  0  0  2  0  0  0  0  0  0
  186.5680  177.0950  142.2470 N   0  0  0  0  0  0  0  0  0  0  0  0
  184.3950  178.3020  142.5450 C   0  0  0  0  0  2  0  0  0  0  0  0
  184.3360  178.8500  146.2380 O   0  0  0  0  0  1  0  0  0  0  0  0
  183.9730  179.0410  144.9040 C   0  0  0  0  0  2  0  0  0  0  0  0
  1  5  1  0  0  0  0
  2 11  1  0  0  0  0
  2 13  1  0  0  0  0
  3 16  1  0  0  0  0
  4  7  1  0  0  0  0
  5  9  2  0  0  0  0
  6  1  1  0  0  0  0
  7  9  1  0  0  0  0
  7 11  2  0  0  0  0
  8  1  2  0  0  0  0
  8  4  1  0  0  0  0
 10  3  2  0  0  0  0
 11 10  1  0  0  0  0
 12  2  2  0  0  0  0
 13 14  2  0  0  0  0
 14  3  1  0  0  0  0
 15  4  2  0  0  0  0
 15 12  1  0  0  0  0
 16 17  2  0  0  0  0
 16 18  1  0  0  0  0
 17 19  1  0  0  0  0
 19 21  1  0  0  0  0
 19 20  2  0  0  0  0
 22 21  1  6  0  0  0
 23 25  1  0  0  0  0
 23 26  1  0  0  0  0
 24 22  1  0  0  0  0
 25 28  1  1  0  0  0
 25 22  1  0  0  0  0
 26 24  1  0  0  0  0
 27 33  1  0  0  0  0
 27 28  1  0  0  0  0
 28 34  2  0  0  0  0
 30 32  2  0  0  0  0
 31 30  1  1  0  0  0
 31 33  1  0  0  0  0
 31 29  1  0  0  0  0
 32 27  1  0  0  0  0
 33 29  1  1  0  0  0
 35 13  1  0  0  0  0
 35 40  1  0  0  0  0
 37 36  1  0  0  0  0
 37 43  1  1  0  0  0
 38 40  1  0  0  0  0
 38 41  1  0  0  0  0
 39 36  1  0  0  0  0
 40 39  1  0  0  0  0
 41 37  1  0  0  0  0
 43 42  1  0  0  0  0
M  END
>  <MODEL>
6

>  <REMARK>
 VINA RESULT:      -7.5      2.488      7.033
  Name = 
  8 active torsions:
  status: ('A' for Active; 'I' for Inactive)
    1  A    between atoms: C_1  and  C_34
    2  A    between atoms: C_1  and  N_35
    3  A    between atoms: C_2  and  C_13
    4  A    between atoms: C_3  and  C_4
    5  A    between atoms: C_3  and  C_12
    6  A    between atoms: N_6  and  C_12
    7  A    between atoms: C_14  and  C_22
    8  A    between atoms: C_19  and  C_37
                            x       y       z     vdW  Elec       q    Type
                         _______ _______ _______ _____ _____    ______ ____

>  <TORSDO>
F 8

$$$$
=
 OpenBabel11052421123D

 43 49  0  0  1  0  0  0  0  0999 V2000
  185.1700  178.1690  145.2860 C   0  0  0  0  0  0  0  0  0  0  0  0
  189.3870  175.4400  144.8300 C   0  0  0  0  0  0  0  0  0  0  0  0
  189.4500  174.4090  142.2120 C   0  0  0  0  0  0  0  0  0  0  0  0
  187.2760  177.0430  145.6850 C   0  0  0  0  0  0  0  0  0  0  0  0
  185.1490  177.6740  143.9780 C   0  0  0  0  0  3  0  0  0  0  0  0
  184.0620  179.0330  145.7690 C   0  0  0  0  0  1  0  0  0  0  0  0
  187.2660  176.5390  144.3640 C   0  0  0  0  0  0  0  0  0  0  0  0
  186.2320  177.8540  146.1380 C   0  0  0  0  0  3  0  0  0  0  0  0
  186.1910  176.8640  143.5190 C   0  0  0  0  0  3  0  0  0  0  0  0
  188.3770  175.2070  142.6290 C   0  0  0  0  0  3  0  0  0  0  0  0
  188.3320  175.7280  143.9300 C   0  0  0  0  0  0  0  0  0  0  0  0
  189.3540  175.9460  146.0950 N   0  0  0  0  0  0  0  0  0  0  0  0
  190.4610  174.6350  144.4120 C   0  0  0  0  0  0  0  0  0  0  0  0
  190.4870  174.1310  143.1080 C   0  0  0  0  0  3  0  0  0  0  0  0
  188.3360  176.7300  146.5340 C   0  0  0  0  0  3  0  0  0  0  0  0
  189.5050  173.8760  140.8400 C   0  0  0  0  0  0  0  0  0  0  0  0
  188.5990  174.2200  139.9720 N   0  0  0  0  0  0  0  0  0  0  0  0
  190.5140  173.0310  140.4970 F   0  0  0  0  0  0  0  0  0  0  0  0
  188.5490  173.7880  138.6060 C   0  0  0  0  0  0  0  0  0  0  0  0
  188.0890  174.5330  137.6990 O   0  0  0  0  0  0  0  0  0  0  0  0
  189.0250  172.4210  138.2530 C   0  0  0  0  0  2  0  0  0  0  0  0
  189.8740  172.4570  136.9910 C   0  0  2  0  0  3  0  0  0  0  0  0
  192.1100  171.3360  135.8980 S   0  0  0  0  0  0  0  0  0  0  0  0
  189.4160  171.3980  136.0130 C   0  0  0  0  0  2  0  0  0  0  0  0
  191.3210  172.1470  137.3280 C   0  0  1  0  0  3  0  0  0  0  0  0
  190.5290  171.2320  135.0060 C   0  0  0  0  0  2  0  0  0  0  0  0
  193.0560  173.3590  138.7400 N   0  0  0  0  0  0  0  0  0  0  0  0
  192.0590  173.3950  137.7110 C   0  0  0  0  0  0  0  0  0  0  0  0
  193.4420  174.8890  140.6050 C   0  0  0  0  0  2  0  0  0  0  0  0
  194.4230  172.5890  140.5020 C   0  0  0  0  0  3  0  0  0  0  0  0
  194.6900  174.0810  140.2950 C   0  0  1  0  0  3  0  0  0  0  0  0
  193.4400  172.1470  139.4330 C   0  0  0  0  0  3  0  0  0  0  0  0
  193.7830  174.5410  139.1660 C   0  0  1  0  0  3  0  0  0  0  0  0
  191.7810  174.4850  137.1390 O   0  0  0  0  0  0  0  0  0  0  0  0
  191.6030  174.3310  145.3290 C   0  0  0  0  0  2  0  0  0  0  0  0
  194.3840  176.4040  143.9610 C   0  0  0  0  0  2  0  0  0  0  0  0
  195.3360  175.2150  143.7970 C   0  0  2  0  0  3  0  0  0  0  0  0
  193.9030  173.8900  145.4250 C   0  0  0  0  0  2  0  0  0  0  0  0
  193.1190  176.0310  144.7430 C   0  0  0  0  0  2  0  0  0  0  0  0
  192.8680  174.5930  144.6600 N   0  0  0  0  0  0  0  0  0  0  0  0
  195.3280  174.3310  145.0450 C   0  0  0  0  0  2  0  0  0  0  0  0
  196.7570  177.1130  143.5130 O   0  0  0  0  0  1  0  0  0  0  0  0
  196.7380  175.7180  143.5020 C   0  0  0  0  0  2  0  0  0  0  0  0
  1  6  1  0  0  0  0
  1  8  1  0  0  0  0
  2 12  1  0  0  0  0
  3 10  2  0  0  0  0
  3 14  1  0  0  0  0
  4  8  2  0  0  0  0
  4 15  1  0  0  0  0
  5  1  2  0  0  0  0
  7  4  1  0  0  0  0
  9  5  1  0  0  0  0
  9  7  2  0  0  0  0
 10 11  1  0  0  0  0
 11  7  1  0  0  0  0
 11  2  2  0  0  0  0
 12 15  2  0  0  0  0
 13  2  1  0  0  0  0
 13 35  1  0  0  0  0
 14 13  2  0  0  0  0
 16  3  1  0  0  0  0
 17 16  2  0  0  0  0
 18 16  1  0  0  0  0
 19 17  1  0  0  0  0
 20 19  2  0  0  0  0
 21 19  1  0  0  0  0
 22 25  1  0  0  0  0
 22 21  1  1  0  0  0
 23 25  1  0  0  0  0
 24 22  1  0  0  0  0
 25 28  1  6  0  0  0
 26 23  1  0  0  0  0
 26 24  1  0  0  0  0
 27 33  1  0  0  0  0
 27 32  1  0  0  0  0
 28 27  1  0  0  0  0
 31 30  1  1  0  0  0
 31 29  1  0  0  0  0
 32 30  2  0  0  0  0
 33 31  1  0  0  0  0
 33 29  1  1  0  0  0
 34 28  2  0  0  0  0
 36 39  1  0  0  0  0
 37 43  1  1  0  0  0
 37 36  1  0  0  0  0
 37 41  1  0  0  0  0
 40 39  1  0  0  0  0
 40 35  1  0  0  0  0
 40 38  1  0  0  0  0
 41 38  1  0  0  0  0
 43 42  1  0  0  0  0
M  END
>  <MODEL>
7

>  <REMARK>
 VINA RESULT:      -7.4      2.837      6.899
  Name = 
  8 active torsions:
  status: ('A' for Active; 'I' for Inactive)
    1  A    between atoms: C_1  and  C_34
    2  A    between atoms: C_1  and  N_35
    3  A    between atoms: C_2  and  C_13
    4  A    between atoms: C_3  and  C_4
    5  A    between atoms: C_3  and  C_12
    6  A    between atoms: N_6  and  C_12
    7  A    between atoms: C_14  and  C_22
    8  A    between atoms: C_19  and  C_37
                            x       y       z     vdW  Elec       q    Type
                         _______ _______ _______ _____ _____    ______ ____

>  <TORSDO>
F 8

$$$$
=
 OpenBabel11052421123D

 43 49  0  0  1  0  0  0  0  0999 V2000
  195.8410  176.0800  143.1990 C   0  0  0  0  0  0  0  0  0  0  0  0
  191.0120  175.7780  144.6220 C   0  0  0  0  0  0  0  0  0  0  0  0
  189.5740  174.6150  142.5000 C   0  0  0  0  0  0  0  0  0  0  0  0
  193.7560  176.2070  144.4240 C   0  0  0  0  0  0  0  0  0  0  0  0
  195.1710  175.5070  142.1130 C   0  0  0  0  0  3  0  0  0  0  0  0
  197.3060  176.3150  143.1270 C   0  0  0  0  0  1  0  0  0  0  0  0
  193.0700  175.6280  143.3320 C   0  0  0  0  0  0  0  0  0  0  0  0
  195.1340  176.4290  144.3530 C   0  0  0  0  0  3  0  0  0  0  0  0
  193.7940  175.2820  142.1780 C   0  0  0  0  0  3  0  0  0  0  0  0
  190.9530  174.8320  142.3810 C   0  0  0  0  0  3  0  0  0  0  0  0
  191.6820  175.4090  143.4300 C   0  0  0  0  0  0  0  0  0  0  0  0
  191.7130  176.3350  145.6490 N   0  0  0  0  0  0  0  0  0  0  0  0
  189.6270  175.5640  144.7390 C   0  0  0  0  0  0  0  0  0  0  0  0
  188.9210  174.9810  143.6810 C   0  0  0  0  0  3  0  0  0  0  0  0
  193.0510  176.5540  145.5750 C   0  0  0  0  0  3  0  0  0  0  0  0
  188.8110  173.9930  141.4040 C   0  0  0  0  0  0  0  0  0  0  0  0
  189.1850  174.1680  140.1710 N   0  0  0  0  0  0  0  0  0  0  0  0
  187.7230  173.2330  141.7020 F   0  0  0  0  0  0  0  0  0  0  0  0
  188.5440  173.6050  139.0190 C   0  0  0  0  0  0  0  0  0  0  0  0
  187.8140  174.3060  138.2660 O   0  0  0  0  0  0  0  0  0  0  0  0
  188.7210  172.1580  138.7160 C   0  0  0  0  0  2  0  0  0  0  0  0
  190.0400  171.9150  137.9970 C   0  0  2  0  0  3  0  0  0  0  0  0
  191.9130  169.9740  137.5840 S   0  0  0  0  0  0  0  0  0  0  0  0
  189.7950  171.3370  136.6210 C   0  0  0  0  0  2  0  0  0  0  0  0
  190.8690  170.8990  138.7600 C   0  0  1  0  0  3  0  0  0  0  0  0
  191.1110  170.7620  136.1560 C   0  0  0  0  0  2  0  0  0  0  0  0
  192.0280  170.8860  141.0240 N   0  0  0  0  0  0  0  0  0  0  0  0
  191.7060  171.5700  139.8060 C   0  0  0  0  0  0  0  0  0  0  0  0
  191.9750  171.6830  143.3330 C   0  0  0  0  0  2  0  0  0  0  0  0
  192.0650  169.2560  142.7300 C   0  0  0  0  0  3  0  0  0  0  0  0
  192.8750  170.4670  143.1960 C   0  0  1  0  0  3  0  0  0  0  0  0
  191.6170  169.5260  141.3050 C   0  0  0  0  0  3  0  0  0  0  0  0
  192.8140  171.4970  142.0800 C   0  0  1  0  0  3  0  0  0  0  0  0
  192.1070  172.7520  139.6220 O   0  0  0  0  0  0  0  0  0  0  0  0
  188.8910  175.9190  145.9920 C   0  0  0  0  0  2  0  0  0  0  0  0
  185.4250  177.1260  146.6540 C   0  0  0  0  0  2  0  0  0  0  0  0
  185.2980  177.8350  145.3020 C   0  0  2  0  0  3  0  0  0  0  0  0
  187.8300  177.8010  145.0860 C   0  0  0  0  0  2  0  0  0  0  0  0
  186.8560  176.6440  146.9230 C   0  0  0  0  0  2  0  0  0  0  0  0
  187.5870  176.4770  145.6680 N   0  0  0  0  0  0  0  0  0  0  0  0
  186.5520  178.6550  144.9930 C   0  0  0  0  0  2  0  0  0  0  0  0
  183.7070  179.0420  143.9920 O   0  0  0  0  0  1  0  0  0  0  0  0
  184.0640  178.7200  145.3030 C   0  0  0  0  0  2  0  0  0  0  0  0
  1  8  1  0  0  0  0
  2 13  1  0  0  0  0
  2 12  1  0  0  0  0
  3 14  1  0  0  0  0
  4 15  1  0  0  0  0
  5  9  1  0  0  0  0
  5  1  2  0  0  0  0
  6  1  1  0  0  0  0
  7 11  1  0  0  0  0
  7  4  1  0  0  0  0
  8  4  2  0  0  0  0
  9  7  2  0  0  0  0
 10  3  2  0  0  0  0
 10 11  1  0  0  0  0
 11  2  2  0  0  0  0
 13 35  1  0  0  0  0
 14 13  2  0  0  0  0
 15 12  2  0  0  0  0
 16 18  1  0  0  0  0
 16  3  1  0  0  0  0
 17 16  2  0  0  0  0
 19 17  1  0  0  0  0
 20 19  2  0  0  0  0
 21 19  1  0  0  0  0
 22 21  1  1  0  0  0
 22 25  1  0  0  0  0
 23 25  1  0  0  0  0
 24 22  1  0  0  0  0
 25 28  1  1  0  0  0
 26 24  1  0  0  0  0
 26 23  1  0  0  0  0
 27 32  1  0  0  0  0
 27 33  1  0  0  0  0
 28 27  1  0  0  0  0
 31 30  1  6  0  0  0
 31 29  1  0  0  0  0
 32 30  2  0  0  0  0
 33 31  1  0  0  0  0
 33 29  1  1  0  0  0
 34 28  2  0  0  0  0
 36 39  1  0  0  0  0
 37 43  1  1  0  0  0
 37 36  1  0  0  0  0
 38 40  1  0  0  0  0
 40 35  1  0  0  0  0
 40 39  1  0  0  0  0
 41 38  1  0  0  0  0
 41 37  1  0  0  0  0
 42 43  1  0  0  0  0
M  END
>  <MODEL>
8

>  <REMARK>
 VINA RESULT:      -7.4      3.023      8.240
  Name = 
  8 active torsions:
  status: ('A' for Active; 'I' for Inactive)
    1  A    between atoms: C_1  and  C_34
    2  A    between atoms: C_1  and  N_35
    3  A    between atoms: C_2  and  C_13
    4  A    between atoms: C_3  and  C_4
    5  A    between atoms: C_3  and  C_12
    6  A    between atoms: N_6  and  C_12
    7  A    between atoms: C_14  and  C_22
    8  A    between atoms: C_19  and  C_37
                            x       y       z     vdW  Elec       q    Type
                         _______ _______ _______ _____ _____    ______ ____

>  <TORSDO>
F 8

$$$$
=
 OpenBabel11052421123D

 43 49  0  0  1  0  0  0  0  0999 V2000
  195.8600  173.8360  145.8270 C   0  0  0  0  0  0  0  0  0  0  0  0
  191.5330  175.9520  144.3290 C   0  0  0  0  0  0  0  0  0  0  0  0
  190.2720  174.1480  142.5740 C   0  0  0  0  0  0  0  0  0  0  0  0
  193.9860  175.3330  145.4950 C   0  0  0  0  0  0  0  0  0  0  0  0
  195.2800  172.9110  144.9550 C   0  0  0  0  0  3  0  0  0  0  0  0
  197.1640  173.5330  146.4700 C   0  0  0  0  0  1  0  0  0  0  0  0
  193.3890  174.4040  144.6120 C   0  0  0  0  0  0  0  0  0  0  0  0
  195.2140  175.0460  146.0970 C   0  0  0  0  0  3  0  0  0  0  0  0
  194.0520  173.1910  144.3510 C   0  0  0  0  0  3  0  0  0  0  0  0
  191.5100  173.8260  143.1450 C   0  0  0  0  0  3  0  0  0  0  0  0
  192.1490  174.7130  144.0220 C   0  0  0  0  0  0  0  0  0  0  0  0
  192.1450  176.8180  145.1840 N   0  0  0  0  0  0  0  0  0  0  0  0
  190.2930  176.2760  143.7520 C   0  0  0  0  0  0  0  0  0  0  0  0
  189.6710  175.3730  142.8850 C   0  0  0  0  0  3  0  0  0  0  0  0
  193.3400  176.5390  145.7640 C   0  0  0  0  0  3  0  0  0  0  0  0
  189.5920  173.2080  141.6670 C   0  0  0  0  0  0  0  0  0  0  0  0
  189.6810  173.3690  140.3790 N   0  0  0  0  0  0  0  0  0  0  0  0
  188.8830  172.1740  142.1930 F   0  0  0  0  0  0  0  0  0  0  0  0
  189.0850  172.5180  139.3910 C   0  0  0  0  0  0  0  0  0  0  0  0
  187.8850  172.6680  139.0340 O   0  0  0  0  0  0  0  0  0  0  0  0
  189.8900  171.4180  138.7910 C   0  0  0  0  0  2  0  0  0  0  0  0
  190.3000  171.7670  137.3670 C   0  0  2  0  0  3  0  0  0  0  0  0
  192.2050  171.1890  135.5000 S   0  0  0  0  0  0  0  0  0  0  0  0
  189.6890  170.7920  136.3860 C   0  0  0  0  0  2  0  0  0  0  0  0
  191.8060  171.6550  137.2180 C   0  0  1  0  0  3  0  0  0  0  0  0
  190.4500  170.9510  135.0910 C   0  0  0  0  0  2  0  0  0  0  0  0
  193.2900  173.0170  138.7710 N   0  0  0  0  0  0  0  0  0  0  0  0
  192.4770  172.9410  137.5940 C   0  0  0  0  0  0  0  0  0  0  0  0
  193.3710  174.7240  140.5170 C   0  0  0  0  0  2  0  0  0  0  0  0
  194.3430  172.4360  140.8020 C   0  0  0  0  0  3  0  0  0  0  0  0
  194.6490  173.9030  140.4970 C   0  0  1  0  0  3  0  0  0  0  0  0
  193.5480  171.8810  139.6340 C   0  0  0  0  0  3  0  0  0  0  0  0
  193.9430  174.2420  139.1950 C   0  0  1  0  0  3  0  0  0  0  0  0
  192.3040  173.9680  136.8810 O   0  0  0  0  0  0  0  0  0  0  0  0
  189.6020  177.5640  144.0730 C   0  0  0  0  0  2  0  0  0  0  0  0
  187.0150  177.1710  146.7300 C   0  0  0  0  0  2  0  0  0  0  0  0
  185.8420  177.2190  145.7470 C   0  0  2  0  0  3  0  0  0  0  0  0
  187.3750  178.2890  144.0250 C   0  0  0  0  0  2  0  0  0  0  0  0
  188.3470  177.5360  146.0620 C   0  0  0  0  0  2  0  0  0  0  0  0
  188.2800  177.3010  144.6210 N   0  0  0  0  0  0  0  0  0  0  0  0
  186.0140  178.3600  144.7430 C   0  0  0  0  0  2  0  0  0  0  0  0
  184.0530  178.6700  146.3770 O   0  0  0  0  0  1  0  0  0  0  0  0
  184.5380  177.3680  146.5110 C   0  0  0  0  0  2  0  0  0  0  0  0
  1  8  1  0  0  0  0
  1  6  1  0  0  0  0
  2 12  1  0  0  0  0
  3 14  2  0  0  0  0
  3 10  1  0  0  0  0
  4 15  1  0  0  0  0
  4  8  2  0  0  0  0
  5  1  2  0  0  0  0
  7  4  1  0  0  0  0
  9  7  2  0  0  0  0
  9  5  1  0  0  0  0
 10 11  2  0  0  0  0
 11  2  1  0  0  0  0
 11  7  1  0  0  0  0
 12 15  2  0  0  0  0
 13 35  1  0  0  0  0
 13  2  2  0  0  0  0
 14 13  1  0  0  0  0
 16 18  1  0  0  0  0
 16  3  1  0  0  0  0
 17 16  2  0  0  0  0
 19 17  1  0  0  0  0
 20 19  2  0  0  0  0
 21 19  1  0  0  0  0
 22 21  1  1  0  0  0
 23 25  1  0  0  0  0
 24 22  1  0  0  0  0
 25 22  1  0  0  0  0
 25 28  1  6  0  0  0
 26 23  1  0  0  0  0
 26 24  1  0  0  0  0
 27 33  1  0  0  0  0
 27 32  1  0  0  0  0
 28 27  1  0  0  0  0
 31 29  1  1  0  0  0
 31 30  1  0  0  0  0
 32 30  2  0  0  0  0
 33 31  1  0  0  0  0
 33 29  1  1  0  0  0
 34 28  2  0  0  0  0
 35 40  1  0  0  0  0
 37 43  1  1  0  0  0
 37 36  1  0  0  0  0
 38 40  1  0  0  0  0
 38 41  1  0  0  0  0
 39 36  1  0  0  0  0
 40 39  1  0  0  0  0
 41 37  1  0  0  0  0
 42 43  1  0  0  0  0
M  END
>  <MODEL>
9

>  <REMARK>
 VINA RESULT:      -7.4      3.135      8.524
  Name = 
  8 active torsions:
  status: ('A' for Active; 'I' for Inactive)
    1  A    between atoms: C_1  and  C_34
    2  A    between atoms: C_1  and  N_35
    3  A    between atoms: C_2  and  C_13
    4  A    between atoms: C_3  and  C_4
    5  A    between atoms: C_3  and  C_12
    6  A    between atoms: N_6  and  C_12
    7  A    between atoms: C_14  and  C_22
    8  A    between atoms: C_19  and  C_37
                            x       y       z     vdW  Elec       q    Type
                         _______ _______ _______ _____ _____    ______ ____

>  <TORSDO>
F 8

$$$$
