=
 OpenBabel11052418363D

 34 38  0  0  1  0  0  0  0  0999 V2000
  191.3860  173.8620  142.5330 C   0  0  0  0  0  0  0  0  0  0  0  0
  191.7230  176.2170  142.8750 C   0  0  0  0  0  0  0  0  0  0  0  0
  189.5380  175.6620  142.2160 C   0  0  0  0  0  2  0  0  0  0  0  0
  191.0480  177.5290  142.8340 C   0  0  0  0  0  2  0  0  0  0  0  0
  192.7400  173.6470  142.8880 C   0  0  0  0  0  0  0  0  0  0  0  0
  193.0160  176.0170  143.2200 N   0  0  0  0  0  0  0  0  0  0  0  0
  193.5560  174.7640  143.2470 C   0  0  0  0  0  0  0  0  0  0  0  0
  189.6150  177.1840  142.4090 C   0  0  2  0  0  3  0  0  0  0  0  0
  190.9030  175.1800  142.5400 C   0  0  0  0  0  0  0  0  0  0  0  0
  190.0170  172.7850  140.7970 N   0  0  0  0  0  0  0  0  0  0  0  0
  189.2420  172.6430  142.9420 C   0  0  0  0  0  0  0  0  0  0  0  0
  188.7210  172.7590  140.8050 C   0  0  0  0  0  0  0  0  0  0  0  0
  188.1120  172.6760  142.0890 N   0  0  0  0  0  2  0  0  0  0  0  0
  190.5080  172.6850  142.1660 C   0  0  2  0  0  3  0  0  0  0  0  0
  187.9590  172.8430  139.6070 N   0  0  0  0  0  1  0  0  0  0  0  0
  189.1620  172.5620  144.1950 O   0  0  0  0  0  0  0  0  0  0  0  0
  196.7030  174.0930  145.2690 C   0  0  0  0  0  0  0  0  0  0  0  0
  197.6720  174.5090  144.3560 C   0  0  0  0  0  3  0  0  0  0  0  0
  194.9800  174.6360  143.6500 C   0  0  0  0  0  0  0  0  0  0  0  0
  197.2990  174.9800  143.1370 N   0  0  0  0  0  0  0  0  0  0  0  0
  195.3560  174.1650  144.9150 C   0  0  0  0  0  3  0  0  0  0  0  0
  195.9900  175.0550  142.7730 C   0  0  0  0  0  3  0  0  0  0  0  0
  197.1010  173.5830  146.6060 C   0  0  0  0  0  1  0  0  0  0  0  0
  187.9050  177.9320  144.3190 C   0  0  0  0  0  0  0  0  0  0  0  0
  188.6770  177.5910  143.4580 C   0  0  0  0  0  0  0  0  0  0  0  0
  185.4940  180.0220  144.1930 C   0  0  0  0  0  1  0  0  0  0  0  0
  186.9660  178.3520  145.3630 C   0  0  1  0  0  3  0  0  0  0  0  0
  185.5770  178.6120  144.7430 C   0  0  1  0  0  3  0  0  0  0  0  0
  184.5130  177.3520  146.5670 C   0  0  0  0  0  3  0  0  0  0  0  0
  185.7200  176.4620  146.5570 C   0  0  0  0  0  2  0  0  0  0  0  0
  186.9810  177.3270  146.5150 C   0  0  0  0  0  2  0  0  0  0  0  0
  184.4520  178.3790  145.7140 C   0  0  0  0  0  3  0  0  0  0  0  0
  193.0560  171.5100  144.0990 C   0  0  0  0  0  1  0  0  0  0  0  0
  193.3080  172.2600  142.8030 C   0  0  0  0  0  2  0  0  0  0  0  0
  1  9  2  0  0  0  0
  1  5  1  0  0  0  0
  2  6  2  0  0  0  0
  3  8  1  0  0  0  0
  3  9  1  0  0  0  0
  4  2  1  0  0  0  0
  5  7  2  0  0  0  0
  6  7  1  0  0  0  0
  7 19  1  0  0  0  0
  8  4  1  0  0  0  0
  8 25  1  1  0  0  0
  9  2  1  0  0  0  0
 10 12  2  0  0  0  0
 10 14  1  0  0  0  0
 11 16  2  0  0  0  0
 12 13  1  0  0  0  0
 13 11  1  0  0  0  0
 14  1  1  1  0  0  0
 14 11  1  0  0  0  0
 15 12  1  0  0  0  0
 17 23  1  0  0  0  0
 18 17  2  0  0  0  0
 19 21  2  0  0  0  0
 20 18  1  0  0  0  0
 21 17  1  0  0  0  0
 22 20  2  0  0  0  0
 22 19  1  0  0  0  0
 25 24  3  0  0  0  0
 27 24  1  6  0  0  0
 27 31  1  0  0  0  0
 28 26  1  1  0  0  0
 28 27  1  0  0  0  0
 28 32  1  0  0  0  0
 30 29  1  0  0  0  0
 31 30  1  0  0  0  0
 32 29  2  0  0  0  0
 34  5  1  0  0  0  0
 34 33  1  0  0  0  0
M  END
>  <MODEL>
1

>  <REMARK>
 VINA RESULT:      -7.9      0.000      0.000
  Name = 
  5 active torsions:
  status: ('A' for Active; 'I' for Inactive)
    1  A    between atoms: C_3  and  C_13
    2  A    between atoms: C_4  and  C_15
    3  A    between atoms: C_12  and  C_28
    4  A    between atoms: C_17  and  C_29
    5  A    between atoms: C_21  and  C_32
                            x       y       z     vdW  Elec       q    Type
                         _______ _______ _______ _____ _____    ______ ____

>  <TORSDO>
F 5

$$$$
=
 OpenBabel11052418363D

 34 38  0  0  1  0  0  0  0  0999 V2000
  191.3310  174.0740  141.7810 C   0  0  0  0  0  0  0  0  0  0  0  0
  191.3100  176.2400  142.8230 C   0  0  0  0  0  0  0  0  0  0  0  0
  189.2590  175.6430  141.8460 C   0  0  0  0  0  2  0  0  0  0  0  0
  190.4560  177.4090  143.1100 C   0  0  0  0  0  2  0  0  0  0  0  0
  192.6840  173.9320  142.1720 C   0  0  0  0  0  0  0  0  0  0  0  0
  192.6020  176.1080  143.2040 N   0  0  0  0  0  0  0  0  0  0  0  0
  193.3140  174.9810  142.9100 C   0  0  0  0  0  0  0  0  0  0  0  0
  189.1070  177.0330  142.4810 C   0  0  2  0  0  3  0  0  0  0  0  0
  190.6630  175.2590  142.1310 C   0  0  0  0  0  0  0  0  0  0  0  0
  190.1930  173.4140  139.7040 N   0  0  0  0  0  0  0  0  0  0  0  0
  189.3780  172.5200  141.6420 C   0  0  0  0  0  0  0  0  0  0  0  0
  188.9150  173.2180  139.6050 C   0  0  0  0  0  0  0  0  0  0  0  0
  188.2840  172.6650  140.7540 N   0  0  0  0  0  2  0  0  0  0  0  0
  190.6480  172.9640  141.0130 C   0  0  2  0  0  3  0  0  0  0  0  0
  188.1880  173.5660  138.4330 N   0  0  0  0  0  1  0  0  0  0  0  0
  189.2710  172.0480  142.8030 O   0  0  0  0  0  0  0  0  0  0  0  0
  196.4230  174.1740  144.9420 C   0  0  0  0  0  0  0  0  0  0  0  0
  197.3720  174.9160  144.2380 C   0  0  0  0  0  3  0  0  0  0  0  0
  194.7220  174.9160  143.3790 C   0  0  0  0  0  0  0  0  0  0  0  0
  197.0000  175.6380  143.1490 N   0  0  0  0  0  0  0  0  0  0  0  0
  195.0960  174.1820  144.5120 C   0  0  0  0  0  3  0  0  0  0  0  0
  195.7100  175.6570  142.7140 C   0  0  0  0  0  3  0  0  0  0  0  0
  196.8200  173.3870  146.1370 C   0  0  0  0  0  1  0  0  0  0  0  0
  187.2260  176.9430  144.3740 C   0  0  0  0  0  0  0  0  0  0  0  0
  188.0750  176.9870  143.5190 C   0  0  0  0  0  0  0  0  0  0  0  0
  187.4400  176.0420  147.4300 C   0  0  0  0  0  1  0  0  0  0  0  0
  186.1950  176.8830  145.4130 C   0  0  1  0  0  3  0  0  0  0  0  0
  186.8070  177.2560  146.7790 C   0  0  1  0  0  3  0  0  0  0  0  0
  184.8940  178.7270  147.2490 C   0  0  0  0  0  3  0  0  0  0  0  0
  184.8690  179.0410  145.7840 C   0  0  0  0  0  2  0  0  0  0  0  0
  184.9830  177.7380  144.9900 C   0  0  0  0  0  2  0  0  0  0  0  0
  185.8060  177.8710  147.7190 C   0  0  0  0  0  3  0  0  0  0  0  0
  194.1340  172.9780  140.4070 C   0  0  0  0  0  1  0  0  0  0  0  0
  193.4490  172.7160  141.7350 C   0  0  0  0  0  2  0  0  0  0  0  0
  1  9  2  0  0  0  0
  1  5  1  0  0  0  0
  2  4  1  0  0  0  0
  2  6  2  0  0  0  0
  3  9  1  0  0  0  0
  3  8  1  0  0  0  0
  5  7  2  0  0  0  0
  7  6  1  0  0  0  0
  7 19  1  0  0  0  0
  8  4  1  0  0  0  0
  8 25  1  1  0  0  0
  9  2  1  0  0  0  0
 10 14  1  0  0  0  0
 11 16  2  0  0  0  0
 12 10  2  0  0  0  0
 12 13  1  0  0  0  0
 13 11  1  0  0  0  0
 14 11  1  0  0  0  0
 14  1  1  1  0  0  0
 15 12  1  0  0  0  0
 17 23  1  0  0  0  0
 18 17  2  0  0  0  0
 19 21  2  0  0  0  0
 20 18  1  0  0  0  0
 21 17  1  0  0  0  0
 22 20  2  0  0  0  0
 22 19  1  0  0  0  0
 25 24  3  0  0  0  0
 27 24  1  6  0  0  0
 27 28  1  0  0  0  0
 28 26  1  1  0  0  0
 28 32  1  0  0  0  0
 29 32  2  0  0  0  0
 30 29  1  0  0  0  0
 31 27  1  0  0  0  0
 31 30  1  0  0  0  0
 33 34  1  0  0  0  0
 34  5  1  0  0  0  0
M  END
>  <MODEL>
2

>  <REMARK>
 VINA RESULT:      -7.6      1.086      1.728
  Name = 
  5 active torsions:
  status: ('A' for Active; 'I' for Inactive)
    1  A    between atoms: C_3  and  C_13
    2  A    between atoms: C_4  and  C_15
    3  A    between atoms: C_12  and  C_28
    4  A    between atoms: C_17  and  C_29
    5  A    between atoms: C_21  and  C_32
                            x       y       z     vdW  Elec       q    Type
                         _______ _______ _______ _____ _____    ______ ____

>  <TORSDO>
F 5

$$$$
=
 OpenBabel11052418363D

 34 38  0  0  1  0  0  0  0  0999 V2000
  189.2100  174.4660  143.2070 C   0  0  0  0  0  0  0  0  0  0  0  0
  189.9380  175.2660  145.3530 C   0  0  0  0  0  0  0  0  0  0  0  0
  191.2590  173.5220  144.4980 C   0  0  0  0  0  2  0  0  0  0  0  0
  190.9570  175.0780  146.4040 C   0  0  0  0  0  2  0  0  0  0  0  0
  188.1650  175.4220  143.2390 C   0  0  0  0  0  0  0  0  0  0  0  0
  188.9440  176.1830  145.3880 N   0  0  0  0  0  0  0  0  0  0  0  0
  188.0520  176.2990  144.3610 C   0  0  0  0  0  0  0  0  0  0  0  0
  191.8340  173.9430  145.8580 C   0  0  2  0  0  3  0  0  0  0  0  0
  190.0940  174.4170  144.2970 C   0  0  0  0  0  0  0  0  0  0  0  0
  189.2250  172.1420  142.4040 N   0  0  0  0  0  0  0  0  0  0  0  0
  190.7050  173.5730  141.4140 C   0  0  0  0  0  0  0  0  0  0  0  0
  190.2950  171.5030  142.0450 C   0  0  0  0  0  0  0  0  0  0  0  0
  191.3020  172.2890  141.4170 N   0  0  0  0  0  2  0  0  0  0  0  0
  189.3490  173.5420  142.0170 C   0  0  2  0  0  3  0  0  0  0  0  0
  190.4620  170.1140  142.2950 N   0  0  0  0  0  1  0  0  0  0  0  0
  191.2620  174.5950  140.9330 O   0  0  0  0  0  0  0  0  0  0  0  0
  185.0320  178.2850  145.5340 C   0  0  0  0  0  0  0  0  0  0  0  0
  185.0150  179.2930  144.5700 C   0  0  0  0  0  3  0  0  0  0  0  0
  187.0020  177.3430  144.4770 C   0  0  0  0  0  0  0  0  0  0  0  0
  185.9560  179.3140  143.5910 N   0  0  0  0  0  0  0  0  0  0  0  0
  186.0240  177.3060  145.4800 C   0  0  0  0  0  3  0  0  0  0  0  0
  186.9330  178.3680  143.5230 C   0  0  0  0  0  3  0  0  0  0  0  0
  184.0030  178.2520  146.6050 C   0  0  0  0  0  1  0  0  0  0  0  0
  194.3360  174.8150  145.5310 C   0  0  0  0  0  0  0  0  0  0  0  0
  193.2060  174.4210  145.6820 C   0  0  0  0  0  0  0  0  0  0  0  0
  197.1130  173.4610  146.3360 C   0  0  0  0  0  1  0  0  0  0  0  0
  195.7080  175.2930  145.3400 C   0  0  1  0  0  3  0  0  0  0  0  0
  196.6410  174.0990  145.0450 C   0  0  1  0  0  3  0  0  0  0  0  0
  197.6790  175.3500  143.1990 C   0  0  0  0  0  3  0  0  0  0  0  0
  196.3280  175.9500  142.9450 C   0  0  0  0  0  2  0  0  0  0  0  0
  195.7250  176.4070  144.2740 C   0  0  0  0  0  2  0  0  0  0  0  0
  197.8280  174.4810  144.2030 C   0  0  0  0  0  3  0  0  0  0  0  0
  187.6750  176.2420  140.9550 C   0  0  0  0  0  1  0  0  0  0  0  0
  187.1520  175.4370  142.1300 C   0  0  0  0  0  2  0  0  0  0  0  0
  1  5  2  0  0  0  0
  1  9  1  0  0  0  0
  2  6  1  0  0  0  0
  2  4  1  0  0  0  0
  3  8  1  0  0  0  0
  5  7  1  0  0  0  0
  7 19  1  0  0  0  0
  7  6  2  0  0  0  0
  8 25  1  6  0  0  0
  8  4  1  0  0  0  0
  9  3  1  0  0  0  0
  9  2  2  0  0  0  0
 11 13  1  0  0  0  0
 11 14  1  0  0  0  0
 12 15  1  0  0  0  0
 12 10  2  0  0  0  0
 13 12  1  0  0  0  0
 14 10  1  0  0  0  0
 14  1  1  1  0  0  0
 16 11  2  0  0  0  0
 17 23  1  0  0  0  0
 18 17  2  0  0  0  0
 19 21  2  0  0  0  0
 20 18  1  0  0  0  0
 21 17  1  0  0  0  0
 22 20  2  0  0  0  0
 22 19  1  0  0  0  0
 24 25  3  0  0  0  0
 27 24  1  6  0  0  0
 28 27  1  0  0  0  0
 28 26  1  1  0  0  0
 29 32  2  0  0  0  0
 30 29  1  0  0  0  0
 30 31  1  0  0  0  0
 31 27  1  0  0  0  0
 32 28  1  0  0  0  0
 33 34  1  0  0  0  0
 34  5  1  0  0  0  0
M  END
>  <MODEL>
3

>  <REMARK>
 VINA RESULT:      -7.6      2.383      8.347
  Name = 
  5 active torsions:
  status: ('A' for Active; 'I' for Inactive)
    1  A    between atoms: C_3  and  C_13
    2  A    between atoms: C_4  and  C_15
    3  A    between atoms: C_12  and  C_28
    4  A    between atoms: C_17  and  C_29
    5  A    between atoms: C_21  and  C_32
                            x       y       z     vdW  Elec       q    Type
                         _______ _______ _______ _____ _____    ______ ____

>  <TORSDO>
F 5

$$$$
=
 OpenBabel11052418363D

 34 38  0  0  1  0  0  0  0  0999 V2000
  192.6920  175.4070  144.0400 C   0  0  0  0  0  0  0  0  0  0  0  0
  191.5230  173.3170  143.8310 C   0  0  0  0  0  0  0  0  0  0  0  0
  193.7500  173.2320  143.0880 C   0  0  0  0  0  2  0  0  0  0  0  0
  191.6720  171.9150  143.3950 C   0  0  0  0  0  2  0  0  0  0  0  0
  191.5150  175.9760  144.5860 C   0  0  0  0  0  0  0  0  0  0  0  0
  190.3980  173.8540  144.3570 N   0  0  0  0  0  0  0  0  0  0  0  0
  190.3540  175.1600  144.7500 C   0  0  0  0  0  0  0  0  0  0  0  0
  193.1260  171.8400  142.9100 C   0  0  2  0  0  3  0  0  0  0  0  0
  192.6600  174.0530  143.6700 C   0  0  0  0  0  0  0  0  0  0  0  0
  194.5650  176.0450  142.5800 N   0  0  0  0  0  0  0  0  0  0  0  0
  195.0220  175.8780  144.8120 C   0  0  0  0  0  0  0  0  0  0  0  0
  195.7900  175.6610  142.7590 C   0  0  0  0  0  0  0  0  0  0  0  0
  196.2000  175.5150  144.1150 N   0  0  0  0  0  2  0  0  0  0  0  0
  193.9330  176.2570  143.8760 C   0  0  2  0  0  3  0  0  0  0  0  0
  196.6570  175.3740  141.6690 N   0  0  0  0  0  1  0  0  0  0  0  0
  194.9380  175.8970  146.0680 O   0  0  0  0  0  0  0  0  0  0  0  0
  186.9430  176.7910  145.1340 C   0  0  0  0  0  0  0  0  0  0  0  0
  186.7590  176.6500  146.5090 C   0  0  0  0  0  3  0  0  0  0  0  0
  189.0810  175.6620  145.3290 C   0  0  0  0  0  0  0  0  0  0  0  0
  187.7120  176.0420  147.2640 N   0  0  0  0  0  0  0  0  0  0  0  0
  188.1090  176.3010  144.5470 C   0  0  0  0  0  3  0  0  0  0  0  0
  188.8560  175.5570  146.7090 C   0  0  0  0  0  3  0  0  0  0  0  0
  185.9090  177.4590  144.3020 C   0  0  0  0  0  1  0  0  0  0  0  0
  194.4790  170.0690  144.3810 C   0  0  0  0  0  0  0  0  0  0  0  0
  193.8660  170.8670  143.7150 C   0  0  0  0  0  0  0  0  0  0  0  0
  197.5360  170.0970  145.3010 C   0  0  0  0  0  1  0  0  0  0  0  0
  195.2280  169.1050  145.1900 C   0  0  1  0  0  3  0  0  0  0  0  0
  196.2540  169.8480  146.0710 C   0  0  1  0  0  3  0  0  0  0  0  0
  195.5850  168.4980  148.0140 C   0  0  0  0  0  3  0  0  0  0  0  0
  194.1930  168.5220  147.4580 C   0  0  0  0  0  2  0  0  0  0  0  0
  194.2450  168.2020  145.9630 C   0  0  0  0  0  2  0  0  0  0  0  0
  196.5640  169.1170  147.3490 C   0  0  0  0  0  3  0  0  0  0  0  0
  191.0850  178.2410  143.6820 C   0  0  0  0  0  1  0  0  0  0  0  0
  191.4920  177.4420  144.9070 C   0  0  0  0  0  2  0  0  0  0  0  0
  1  5  1  0  0  0  0
  2  6  2  0  0  0  0
  3  9  1  0  0  0  0
  4  2  1  0  0  0  0
  5  7  2  0  0  0  0
  5 34  1  0  0  0  0
  6  7  1  0  0  0  0
  7 19  1  0  0  0  0
  8  3  1  0  0  0  0
  8  4  1  0  0  0  0
  8 25  1  1  0  0  0
  9  2  1  0  0  0  0
  9  1  2  0  0  0  0
 10 12  2  0  0  0  0
 10 14  1  0  0  0  0
 11 16  2  0  0  0  0
 12 13  1  0  0  0  0
 13 11  1  0  0  0  0
 14  1  1  6  0  0  0
 14 11  1  0  0  0  0
 15 12  1  0  0  0  0
 17 18  1  0  0  0  0
 18 20  2  0  0  0  0
 19 22  2  0  0  0  0
 21 17  2  0  0  0  0
 21 19  1  0  0  0  0
 22 20  1  0  0  0  0
 23 17  1  0  0  0  0
 25 24  3  0  0  0  0
 27 24  1  1  0  0  0
 27 31  1  0  0  0  0
 27 28  1  0  0  0  0
 28 26  1  6  0  0  0
 28 32  1  0  0  0  0
 30 29  1  0  0  0  0
 31 30  1  0  0  0  0
 32 29  2  0  0  0  0
 33 34  1  0  0  0  0
M  END
>  <MODEL>
4

>  <REMARK>
 VINA RESULT:      -7.3      2.921      8.992
  Name = 
  5 active torsions:
  status: ('A' for Active; 'I' for Inactive)
    1  A    between atoms: C_3  and  C_13
    2  A    between atoms: C_4  and  C_15
    3  A    between atoms: C_12  and  C_28
    4  A    between atoms: C_17  and  C_29
    5  A    between atoms: C_21  and  C_32
                            x       y       z     vdW  Elec       q    Type
                         _______ _______ _______ _____ _____    ______ ____

>  <TORSDO>
F 5

$$$$
=
 OpenBabel11052418363D

 34 38  0  0  1  0  0  0  0  0999 V2000
  192.4270  173.4160  143.1010 C   0  0  0  0  0  0  0  0  0  0  0  0
  190.3490  172.6440  144.0310 C   0  0  0  0  0  0  0  0  0  0  0  0
  191.2960  174.4480  145.2020 C   0  0  0  0  0  2  0  0  0  0  0  0
  189.3750  172.8820  145.1150 C   0  0  0  0  0  2  0  0  0  0  0  0
  192.3120  172.4220  142.0980 C   0  0  0  0  0  0  0  0  0  0  0  0
  190.2310  171.6970  143.0730 N   0  0  0  0  0  0  0  0  0  0  0  0
  191.1730  171.5580  142.0950 C   0  0  0  0  0  0  0  0  0  0  0  0
  189.9770  174.0620  145.8890 C   0  0  2  0  0  3  0  0  0  0  0  0
  191.4090  173.5010  144.0650 C   0  0  0  0  0  0  0  0  0  0  0  0
  194.4670  174.1320  144.2710 N   0  0  0  0  0  0  0  0  0  0  0  0
  193.2400  175.7740  143.2630 C   0  0  0  0  0  0  0  0  0  0  0  0
  194.5750  175.2420  144.9320 C   0  0  0  0  0  0  0  0  0  0  0  0
  193.8490  176.3480  144.4050 N   0  0  0  0  0  2  0  0  0  0  0  0
  193.6190  174.3470  143.1050 C   0  0  2  0  0  3  0  0  0  0  0  0
  195.3430  175.3380  146.1250 N   0  0  0  0  0  1  0  0  0  0  0  0
  192.4940  176.4170  142.4790 O   0  0  0  0  0  0  0  0  0  0  0  0
  190.2950  169.7700  138.8590 C   0  0  0  0  0  0  0  0  0  0  0  0
  190.4940  168.4460  139.2510 C   0  0  0  0  0  3  0  0  0  0  0  0
  190.9570  170.5000  141.0760 C   0  0  0  0  0  0  0  0  0  0  0  0
  190.9010  168.1660  140.5170 N   0  0  0  0  0  0  0  0  0  0  0  0
  190.5210  170.7950  139.7770 C   0  0  0  0  0  3  0  0  0  0  0  0
  191.1290  169.1530  141.4260 C   0  0  0  0  0  3  0  0  0  0  0  0
  189.8440  170.0850  137.4790 C   0  0  0  0  0  1  0  0  0  0  0  0
  188.2970  176.1360  145.8120 C   0  0  0  0  0  0  0  0  0  0  0  0
  189.0560  175.1990  145.8500 C   0  0  0  0  0  0  0  0  0  0  0  0
  186.0040  176.8280  143.7010 C   0  0  0  0  0  1  0  0  0  0  0  0
  187.3770  177.2750  145.7590 C   0  0  1  0  0  3  0  0  0  0  0  0
  186.0070  176.8160  145.2170 C   0  0  1  0  0  3  0  0  0  0  0  0
  184.8670  178.0620  147.0040 C   0  0  0  0  0  3  0  0  0  0  0  0
  186.0240  177.7050  147.8890 C   0  0  0  0  0  2  0  0  0  0  0  0
  187.3300  177.9670  147.1370 C   0  0  0  0  0  2  0  0  0  0  0  0
  184.8660  177.6500  145.7340 C   0  0  0  0  0  3  0  0  0  0  0  0
  194.4000  171.1920  141.5950 C   0  0  0  0  0  1  0  0  0  0  0  0
  193.4270  172.2490  141.1080 C   0  0  0  0  0  2  0  0  0  0  0  0
  1  9  1  0  0  0  0
  2  9  2  0  0  0  0
  2  4  1  0  0  0  0
  3  8  1  0  0  0  0
  4  8  1  0  0  0  0
  5  1  2  0  0  0  0
  6  2  1  0  0  0  0
  7  5  1  0  0  0  0
  7  6  2  0  0  0  0
  8 25  1  6  0  0  0
  9  3  1  0  0  0  0
 10 12  2  0  0  0  0
 11 13  1  0  0  0  0
 12 15  1  0  0  0  0
 13 12  1  0  0  0  0
 14  1  1  1  0  0  0
 14 11  1  0  0  0  0
 14 10  1  0  0  0  0
 16 11  2  0  0  0  0
 17 18  2  0  0  0  0
 17 21  1  0  0  0  0
 18 20  1  0  0  0  0
 19 22  1  0  0  0  0
 19  7  1  0  0  0  0
 20 22  2  0  0  0  0
 21 19  2  0  0  0  0
 23 17  1  0  0  0  0
 24 25  3  0  0  0  0
 27 24  1  1  0  0  0
 27 31  1  0  0  0  0
 28 26  1  6  0  0  0
 28 32  1  0  0  0  0
 28 27  1  0  0  0  0
 29 30  1  0  0  0  0
 31 30  1  0  0  0  0
 32 29  2  0  0  0  0
 34 33  1  0  0  0  0
 34  5  1  0  0  0  0
M  END
>  <MODEL>
5

>  <REMARK>
 VINA RESULT:      -7.2      2.618      5.732
  Name = 
  5 active torsions:
  status: ('A' for Active; 'I' for Inactive)
    1  A    between atoms: C_3  and  C_13
    2  A    between atoms: C_4  and  C_15
    3  A    between atoms: C_12  and  C_28
    4  A    between atoms: C_17  and  C_29
    5  A    between atoms: C_21  and  C_32
                            x       y       z     vdW  Elec       q    Type
                         _______ _______ _______ _____ _____    ______ ____

>  <TORSDO>
F 5

$$$$
=
 OpenBabel11052418363D

 34 38  0  0  1  0  0  0  0  0999 V2000
  192.2080  174.2880  143.8930 C   0  0  0  0  0  0  0  0  0  0  0  0
  190.3750  173.2220  145.0250 C   0  0  0  0  0  0  0  0  0  0  0  0
  190.7270  175.4490  145.6870 C   0  0  0  0  0  2  0  0  0  0  0  0
  189.3170  173.4380  146.0320 C   0  0  0  0  0  2  0  0  0  0  0  0
  192.4230  173.0860  143.1740 C   0  0  0  0  0  0  0  0  0  0  0  0
  190.5720  172.0740  144.3380 N   0  0  0  0  0  0  0  0  0  0  0  0
  191.5670  171.9670  143.4090 C   0  0  0  0  0  0  0  0  0  0  0  0
  189.5300  174.8930  146.4720 C   0  0  2  0  0  3  0  0  0  0  0  0
  191.1560  174.3220  144.8230 C   0  0  0  0  0  0  0  0  0  0  0  0
  194.0050  175.7270  144.7560 N   0  0  0  0  0  0  0  0  0  0  0  0
  192.3440  176.7640  143.5790 C   0  0  0  0  0  0  0  0  0  0  0  0
  193.8220  176.9300  145.2030 C   0  0  0  0  0  0  0  0  0  0  0  0
  192.8060  177.6840  144.5520 N   0  0  0  0  0  2  0  0  0  0  0  0
  193.0980  175.4850  143.6410 C   0  0  2  0  0  3  0  0  0  0  0  0
  194.5690  177.4480  146.2970 N   0  0  0  0  0  1  0  0  0  0  0  0
  191.4280  177.0260  142.7570 O   0  0  0  0  0  0  0  0  0  0  0  0
  191.1970  169.1910  140.8400 C   0  0  0  0  0  0  0  0  0  0  0  0
  191.9420  168.1870  141.4580 C   0  0  0  0  0  3  0  0  0  0  0  0
  191.7040  170.6730  142.6930 C   0  0  0  0  0  0  0  0  0  0  0  0
  192.5370  168.4220  142.6570 N   0  0  0  0  0  0  0  0  0  0  0  0
  191.0740  170.4320  141.4650 C   0  0  0  0  0  3  0  0  0  0  0  0
  192.4300  169.6270  143.2810 C   0  0  0  0  0  3  0  0  0  0  0  0
  190.5380  168.9410  139.5330 C   0  0  0  0  0  1  0  0  0  0  0  0
  187.3550  176.3350  145.9090 C   0  0  0  0  0  0  0  0  0  0  0  0
  188.3360  175.6820  146.1650 C   0  0  0  0  0  0  0  0  0  0  0  0
  185.8660  178.5680  147.6390 C   0  0  0  0  0  1  0  0  0  0  0  0
  186.1670  177.1340  145.5950 C   0  0  1  0  0  3  0  0  0  0  0  0
  186.3170  178.5490  146.1920 C   0  0  1  0  0  3  0  0  0  0  0  0
  185.5420  179.5370  144.0770 C   0  0  0  0  0  3  0  0  0  0  0  0
  186.2480  178.4130  143.3790 C   0  0  0  0  0  2  0  0  0  0  0  0
  185.9040  177.0950  144.0760 C   0  0  0  0  0  2  0  0  0  0  0  0
  185.5650  179.5940  145.4120 C   0  0  0  0  0  3  0  0  0  0  0  0
  194.8120  172.4680  142.9770 C   0  0  0  0  0  1  0  0  0  0  0  0
  193.5940  172.9920  142.2390 C   0  0  0  0  0  2  0  0  0  0  0  0
  1  9  1  0  0  0  0
  2  4  1  0  0  0  0
  3  8  1  0  0  0  0
  4  8  1  0  0  0  0
  5  7  1  0  0  0  0
  5  1  2  0  0  0  0
  6  2  1  0  0  0  0
  7  6  2  0  0  0  0
  8 25  1  6  0  0  0
  9  2  2  0  0  0  0
  9  3  1  0  0  0  0
 10 12  2  0  0  0  0
 11 14  1  0  0  0  0
 11 13  1  0  0  0  0
 12 15  1  0  0  0  0
 13 12  1  0  0  0  0
 14  1  1  1  0  0  0
 14 10  1  0  0  0  0
 16 11  2  0  0  0  0
 17 18  2  0  0  0  0
 17 21  1  0  0  0  0
 18 20  1  0  0  0  0
 19 22  1  0  0  0  0
 19  7  1  0  0  0  0
 20 22  2  0  0  0  0
 21 19  2  0  0  0  0
 23 17  1  0  0  0  0
 24 25  3  0  0  0  0
 27 24  1  6  0  0  0
 27 28  1  0  0  0  0
 28 26  1  1  0  0  0
 29 32  2  0  0  0  0
 30 31  1  0  0  0  0
 30 29  1  0  0  0  0
 31 27  1  0  0  0  0
 32 28  1  0  0  0  0
 34 33  1  0  0  0  0
 34  5  1  0  0  0  0
M  END
>  <MODEL>
6

>  <REMARK>
 VINA RESULT:      -7.0      2.672      5.392
  Name = 
  5 active torsions:
  status: ('A' for Active; 'I' for Inactive)
    1  A    between atoms: C_3  and  C_13
    2  A    between atoms: C_4  and  C_15
    3  A    between atoms: C_12  and  C_28
    4  A    between atoms: C_17  and  C_29
    5  A    between atoms: C_21  and  C_32
                            x       y       z     vdW  Elec       q    Type
                         _______ _______ _______ _____ _____    ______ ____

>  <TORSDO>
F 5

$$$$
=
 OpenBabel11052418363D

 34 38  0  0  1  0  0  0  0  0999 V2000
  189.2100  176.9410  145.2150 C   0  0  0  0  0  0  0  0  0  0  0  0
  190.5510  177.3070  143.2540 C   0  0  0  0  0  0  0  0  0  0  0  0
  191.8070  176.8560  145.1870 C   0  0  0  0  0  2  0  0  0  0  0  0
  191.9420  177.3570  142.7620 C   0  0  0  0  0  2  0  0  0  0  0  0
  188.0520  177.1420  144.4230 C   0  0  0  0  0  0  0  0  0  0  0  0
  189.4490  177.4960  142.4920 N   0  0  0  0  0  0  0  0  0  0  0  0
  188.1960  177.4150  143.0280 C   0  0  0  0  0  0  0  0  0  0  0  0
  192.7780  177.0590  144.0140 C   0  0  2  0  0  3  0  0  0  0  0  0
  190.4630  177.0290  144.5860 C   0  0  0  0  0  0  0  0  0  0  0  0
  189.8380  177.5650  147.5080 N   0  0  0  0  0  0  0  0  0  0  0  0
  189.6640  175.3290  147.0700 C   0  0  0  0  0  0  0  0  0  0  0  0
  190.6760  176.8980  148.2400 C   0  0  0  0  0  0  0  0  0  0  0  0
  190.6680  175.4860  148.0570 N   0  0  0  0  0  2  0  0  0  0  0  0
  189.0690  176.6360  146.6900 C   0  0  2  0  0  3  0  0  0  0  0  0
  191.5660  177.5410  149.1420 N   0  0  0  0  0  1  0  0  0  0  0  0
  189.3160  174.2120  146.6070 O   0  0  0  0  0  0  0  0  0  0  0  0
  184.6850  178.0210  141.7070 C   0  0  0  0  0  0  0  0  0  0  0  0
  184.9200  177.9160  140.3360 C   0  0  0  0  0  3  0  0  0  0  0  0
  187.0430  177.6230  142.1150 C   0  0  0  0  0  0  0  0  0  0  0  0
  186.1740  177.6640  139.8780 N   0  0  0  0  0  0  0  0  0  0  0  0
  185.7490  177.8670  142.5950 C   0  0  0  0  0  3  0  0  0  0  0  0
  187.2250  177.5120  140.7290 C   0  0  0  0  0  3  0  0  0  0  0  0
  183.3160  178.2910  142.2160 C   0  0  0  0  0  1  0  0  0  0  0  0
  194.1950  174.8270  143.6400 C   0  0  0  0  0  0  0  0  0  0  0  0
  193.5570  175.8360  143.8080 C   0  0  0  0  0  0  0  0  0  0  0  0
  197.2950  174.4260  142.9900 C   0  0  0  0  0  1  0  0  0  0  0  0
  194.9650  173.5960  143.4410 C   0  0  1  0  0  3  0  0  0  0  0  0
  196.3870  173.7710  144.0120 C   0  0  1  0  0  3  0  0  0  0  0  0
  196.2360  171.5720  145.1010 C   0  0  0  0  0  3  0  0  0  0  0  0
  194.7790  171.8590  145.3120 C   0  0  0  0  0  2  0  0  0  0  0  0
  194.1800  172.3960  144.0110 C   0  0  0  0  0  2  0  0  0  0  0  0
  196.9950  172.4740  144.4730 C   0  0  0  0  0  3  0  0  0  0  0  0
  186.4490  178.4790  145.7550 C   0  0  0  0  0  1  0  0  0  0  0  0
  186.7040  177.1420  145.0840 C   0  0  0  0  0  2  0  0  0  0  0  0
  2  9  2  0  0  0  0
  4  2  1  0  0  0  0
  4  8  1  0  0  0  0
  5 34  1  0  0  0  0
  5  1  2  0  0  0  0
  6  7  2  0  0  0  0
  6  2  1  0  0  0  0
  7  5  1  0  0  0  0
  8 25  1  6  0  0  0
  8  3  1  0  0  0  0
  9  3  1  0  0  0  0
  9  1  1  0  0  0  0
 10 12  2  0  0  0  0
 11 13  1  0  0  0  0
 12 15  1  0  0  0  0
 13 12  1  0  0  0  0
 14  1  1  6  0  0  0
 14 11  1  0  0  0  0
 14 10  1  0  0  0  0
 16 11  2  0  0  0  0
 17 23  1  0  0  0  0
 17 21  1  0  0  0  0
 18 17  2  0  0  0  0
 19 21  2  0  0  0  0
 19  7  1  0  0  0  0
 20 18  1  0  0  0  0
 20 22  2  0  0  0  0
 22 19  1  0  0  0  0
 24 25  3  0  0  0  0
 27 24  1  1  0  0  0
 27 31  1  0  0  0  0
 27 28  1  0  0  0  0
 28 26  1  6  0  0  0
 28 32  1  0  0  0  0
 29 30  1  0  0  0  0
 31 30  1  0  0  0  0
 32 29  2  0  0  0  0
 34 33  1  0  0  0  0
M  END
>  <MODEL>
7

>  <REMARK>
 VINA RESULT:      -7.0      3.000      8.993
  Name = 
  5 active torsions:
  status: ('A' for Active; 'I' for Inactive)
    1  A    between atoms: C_3  and  C_13
    2  A    between atoms: C_4  and  C_15
    3  A    between atoms: C_12  and  C_28
    4  A    between atoms: C_17  and  C_29
    5  A    between atoms: C_21  and  C_32
                            x       y       z     vdW  Elec       q    Type
                         _______ _______ _______ _____ _____    ______ ____

>  <TORSDO>
F 5

$$$$
=
 OpenBabel11052418363D

 34 38  0  0  1  0  0  0  0  0999 V2000
  193.3700  174.8520  144.1930 C   0  0  0  0  0  0  0  0  0  0  0  0
  191.9660  174.4760  142.2790 C   0  0  0  0  0  0  0  0  0  0  0  0
  190.7760  174.7200  144.2900 C   0  0  0  0  0  2  0  0  0  0  0  0
  190.5600  174.3350  141.8500 C   0  0  0  0  0  2  0  0  0  0  0  0
  194.4990  174.7890  143.3390 C   0  0  0  0  0  0  0  0  0  0  0  0
  193.0390  174.4200  141.4580 N   0  0  0  0  0  0  0  0  0  0  0  0
  194.3070  174.5780  141.9390 C   0  0  0  0  0  0  0  0  0  0  0  0
  189.7670  174.4970  143.1530 C   0  0  2  0  0  3  0  0  0  0  0  0
  192.0980  174.6910  143.6190 C   0  0  0  0  0  0  0  0  0  0  0  0
  192.4500  174.5570  146.4530 N   0  0  0  0  0  0  0  0  0  0  0  0
  193.5220  176.5300  146.0380 C   0  0  0  0  0  0  0  0  0  0  0  0
  191.9200  175.5110  147.1530 C   0  0  0  0  0  0  0  0  0  0  0  0
  192.4990  176.7990  146.9800 N   0  0  0  0  0  2  0  0  0  0  0  0
  193.5590  175.0910  145.6750 C   0  0  2  0  0  3  0  0  0  0  0  0
  190.8090  175.2870  148.0130 N   0  0  0  0  0  1  0  0  0  0  0  0
  194.3070  177.4100  145.5980 O   0  0  0  0  0  0  0  0  0  0  0  0
  197.0720  173.2830  139.6770 C   0  0  0  0  0  0  0  0  0  0  0  0
  197.5790  174.4910  139.1960 C   0  0  0  0  0  3  0  0  0  0  0  0
  195.4260  174.5140  140.9640 C   0  0  0  0  0  0  0  0  0  0  0  0
  197.0290  175.6660  139.5980 N   0  0  0  0  0  0  0  0  0  0  0  0
  195.9990  173.2990  140.5660 C   0  0  0  0  0  3  0  0  0  0  0  0
  195.9800  175.7020  140.4650 C   0  0  0  0  0  3  0  0  0  0  0  0
  197.6710  171.9930  139.2470 C   0  0  0  0  0  1  0  0  0  0  0  0
  188.1530  176.6170  142.9720 C   0  0  0  0  0  0  0  0  0  0  0  0
  188.8820  175.6590  143.0510 C   0  0  0  0  0  0  0  0  0  0  0  0
  186.3550  177.6500  140.5450 C   0  0  0  0  0  1  0  0  0  0  0  0
  187.2680  177.7810  142.8840 C   0  0  1  0  0  3  0  0  0  0  0  0
  186.0410  177.4390  142.0130 C   0  0  1  0  0  3  0  0  0  0  0  0
  184.5550  178.4730  143.6770 C   0  0  0  0  0  3  0  0  0  0  0  0
  185.4990  177.9680  144.7260 C   0  0  0  0  0  2  0  0  0  0  0  0
  186.9340  178.2860  144.3030 C   0  0  0  0  0  2  0  0  0  0  0  0
  184.8190  178.2320  142.3890 C   0  0  0  0  0  3  0  0  0  0  0  0
  196.3790  173.4780  144.2750 C   0  0  0  0  0  1  0  0  0  0  0  0
  195.8740  174.8680  143.9360 C   0  0  0  0  0  2  0  0  0  0  0  0
  2  9  2  0  0  0  0
  4  2  1  0  0  0  0
  4  8  1  0  0  0  0
  5 34  1  0  0  0  0
  5  1  2  0  0  0  0
  6  7  2  0  0  0  0
  6  2  1  0  0  0  0
  7  5  1  0  0  0  0
  8 25  1  6  0  0  0
  8  3  1  0  0  0  0
  9  1  1  0  0  0  0
  9  3  1  0  0  0  0
 10 12  2  0  0  0  0
 11 13  1  0  0  0  0
 12 15  1  0  0  0  0
 13 12  1  0  0  0  0
 14  1  1  6  0  0  0
 14 11  1  0  0  0  0
 14 10  1  0  0  0  0
 16 11  2  0  0  0  0
 17 21  1  0  0  0  0
 18 20  1  0  0  0  0
 18 17  2  0  0  0  0
 19  7  1  0  0  0  0
 20 22  2  0  0  0  0
 21 19  2  0  0  0  0
 22 19  1  0  0  0  0
 23 17  1  0  0  0  0
 24 25  3  0  0  0  0
 27 24  1  1  0  0  0
 27 31  1  0  0  0  0
 28 26  1  6  0  0  0
 28 32  1  0  0  0  0
 28 27  1  0  0  0  0
 29 30  1  0  0  0  0
 31 30  1  0  0  0  0
 32 29  2  0  0  0  0
 34 33  1  0  0  0  0
M  END
>  <MODEL>
8

>  <REMARK>
 VINA RESULT:      -6.6      2.897      4.491
  Name = 
  5 active torsions:
  status: ('A' for Active; 'I' for Inactive)
    1  A    between atoms: C_3  and  C_13
    2  A    between atoms: C_4  and  C_15
    3  A    between atoms: C_12  and  C_28
    4  A    between atoms: C_17  and  C_29
    5  A    between atoms: C_21  and  C_32
                            x       y       z     vdW  Elec       q    Type
                         _______ _______ _______ _____ _____    ______ ____

>  <TORSDO>
F 5

$$$$
=
 OpenBabel11052418363D

 34 38  0  0  1  0  0  0  0  0999 V2000
  190.0570  176.1070  143.2670 C   0  0  0  0  0  0  0  0  0  0  0  0
  190.6430  174.1530  141.9960 C   0  0  0  0  0  0  0  0  0  0  0  0
  188.4170  174.8410  141.6970 C   0  0  0  0  0  2  0  0  0  0  0  0
  190.1170  173.1600  141.0390 C   0  0  0  0  0  2  0  0  0  0  0  0
  191.3800  176.1390  143.7720 C   0  0  0  0  0  0  0  0  0  0  0  0
  191.9090  174.1800  142.4720 N   0  0  0  0  0  0  0  0  0  0  0  0
  192.3170  175.1480  143.3440 C   0  0  0  0  0  0  0  0  0  0  0  0
  188.6610  173.5980  140.8280 C   0  0  2  0  0  3  0  0  0  0  0  0
  189.7190  175.0850  142.3640 C   0  0  0  0  0  0  0  0  0  0  0  0
  187.9420  176.5750  144.4310 N   0  0  0  0  0  0  0  0  0  0  0  0
  188.3710  177.8100  142.5580 C   0  0  0  0  0  0  0  0  0  0  0  0
  186.8330  176.8790  143.8310 C   0  0  0  0  0  0  0  0  0  0  0  0
  186.9660  177.6490  142.6410 N   0  0  0  0  0  2  0  0  0  0  0  0
  189.0600  177.1590  143.7010 C   0  0  2  0  0  3  0  0  0  0  0  0
  185.5700  176.4430  144.3150 N   0  0  0  0  0  1  0  0  0  0  0  0
  188.9410  178.4510  141.6370 O   0  0  0  0  0  0  0  0  0  0  0  0
  196.0320  175.8630  143.7000 C   0  0  0  0  0  0  0  0  0  0  0  0
  196.3710  174.9130  144.6640 C   0  0  0  0  0  3  0  0  0  0  0  0
  193.7280  175.1100  143.8040 C   0  0  0  0  0  0  0  0  0  0  0  0
  195.4170  174.0880  145.1700 N   0  0  0  0  0  0  0  0  0  0  0  0
  194.7100  175.9540  143.2670 C   0  0  0  0  0  3  0  0  0  0  0  0
  194.1210  174.1630  144.7610 C   0  0  0  0  0  3  0  0  0  0  0  0
  197.0690  176.7650  143.1380 C   0  0  0  0  0  1  0  0  0  0  0  0
  188.2660  174.2120  138.2600 C   0  0  0  0  0  0  0  0  0  0  0  0
  188.4470  173.9370  139.4200 C   0  0  0  0  0  0  0  0  0  0  0  0
  186.0240  176.0410  136.9090 C   0  0  0  0  0  1  0  0  0  0  0  0
  188.0410  174.5410  136.8500 C   0  0  1  0  0  3  0  0  0  0  0  0
  187.5280  175.9910  136.7270 C   0  0  1  0  0  3  0  0  0  0  0  0
  189.1090  176.4080  134.8900 C   0  0  0  0  0  3  0  0  0  0  0  0
  190.0620  175.4950  135.6010 C   0  0  0  0  0  2  0  0  0  0  0  0
  189.3160  174.2330  136.0370 C   0  0  0  0  0  2  0  0  0  0  0  0
  187.9030  176.6330  135.4190 C   0  0  0  0  0  3  0  0  0  0  0  0
  191.5760  176.5870  146.1990 C   0  0  0  0  0  1  0  0  0  0  0  0
  191.7440  177.1650  144.8060 C   0  0  0  0  0  2  0  0  0  0  0  0
  1  5  1  0  0  0  0
  2  9  1  0  0  0  0
  2  6  2  0  0  0  0
  3  9  1  0  0  0  0
  4  2  1  0  0  0  0
  5 34  1  0  0  0  0
  6  7  1  0  0  0  0
  7  5  2  0  0  0  0
  7 19  1  0  0  0  0
  8 25  1  6  0  0  0
  8  4  1  0  0  0  0
  8  3  1  0  0  0  0
  9  1  2  0  0  0  0
 11 13  1  0  0  0  0
 11 14  1  0  0  0  0
 12 15  1  0  0  0  0
 12 10  2  0  0  0  0
 13 12  1  0  0  0  0
 14  1  1  6  0  0  0
 14 10  1  0  0  0  0
 16 11  2  0  0  0  0
 17 18  1  0  0  0  0
 18 20  2  0  0  0  0
 19 22  2  0  0  0  0
 21 17  2  0  0  0  0
 21 19  1  0  0  0  0
 22 20  1  0  0  0  0
 23 17  1  0  0  0  0
 24 25  3  0  0  0  0
 27 24  1  1  0  0  0
 28 27  1  0  0  0  0
 28 26  1  6  0  0  0
 29 32  2  0  0  0  0
 29 30  1  0  0  0  0
 30 31  1  0  0  0  0
 31 27  1  0  0  0  0
 32 28  1  0  0  0  0
 34 33  1  0  0  0  0
M  END
>  <MODEL>
9

>  <REMARK>
 VINA RESULT:      -6.6      3.498      6.109
  Name = 
  5 active torsions:
  status: ('A' for Active; 'I' for Inactive)
    1  A    between atoms: C_3  and  C_13
    2  A    between atoms: C_4  and  C_15
    3  A    between atoms: C_12  and  C_28
    4  A    between atoms: C_17  and  C_29
    5  A    between atoms: C_21  and  C_32
                            x       y       z     vdW  Elec       q    Type
                         _______ _______ _______ _____ _____    ______ ____

>  <TORSDO>
F 5

$$$$
