=
 OpenBabel11052418423D

 34 37  0  0  1  0  0  0  0  0999 V2000
  193.6540  176.4050  145.6190 C   0  0  1  0  0  3  0  0  0  0  0  0
  191.2580  175.7880  146.4200 C   0  0  2  0  0  3  0  0  0  0  0  0
  187.4740  177.9260  145.7560 C   0  0  0  0  0  2  0  0  0  0  0  0
  191.7660  176.1970  143.9580 C   0  0  1  0  0  3  0  0  0  0  0  0
  190.0310  178.4340  144.5240 O   0  0  0  0  0  1  0  0  0  0  0  0
  195.5940  174.8250  145.5660 C   0  0  0  0  0  1  0  0  0  0  0  0
  191.4620  176.3280  147.8290 C   0  0  0  0  0  1  0  0  0  0  0  0
  189.5300  175.4870  144.7290 O   0  0  0  0  0  0  0  0  0  0  0  0
  185.5560  176.6380  146.1200 C   0  0  0  0  0  1  0  0  0  0  0  0
  186.9920  176.5620  145.9250 N   0  0  0  0  0  0  0  0  0  0  0  0
  192.1360  176.5650  145.4120 C   0  0  2  0  0  3  0  0  0  0  0  0
  187.3570  178.4080  144.3110 C   0  0  0  0  0  2  0  0  0  0  0  0
  189.6820  177.5950  143.5160 N   0  0  0  0  0  0  0  0  0  0  0  0
  194.0500  176.8280  146.8900 O   0  0  0  0  0  1  0  0  0  0  0  0
  188.8280  175.2780  146.9790 C   0  0  0  0  0  2  0  0  0  0  0  0
  192.3040  174.7930  143.5810 C   0  0  2  0  0  3  0  0  0  0  0  0
  194.0980  174.9720  145.3450 C   0  0  2  0  0  3  0  0  0  0  0  0
  189.7880  175.9740  146.0230 C   0  0  1  0  0  3  0  0  0  0  0  0
  188.2120  177.6410  143.2730 C   0  0  1  0  0  3  0  0  0  0  0  0
  190.2380  176.2470  143.7740 C   0  0  1  0  0  3  0  0  0  0  0  0
  193.7910  174.6380  143.8920 C   0  0  0  0  0  2  0  0  0  0  0  0
  187.5530  176.0940  147.1860 C   0  0  0  0  0  2  0  0  0  0  0  0
  187.5660  176.3490  142.7290 C   0  0  0  0  0  3  0  0  0  0  0  0
  187.9660  176.1060  141.2860 C   0  0  0  0  0  1  0  0  0  0  0  0
  186.0470  176.3940  142.7980 C   0  0  0  0  0  1  0  0  0  0  0  0
  193.1900  173.7720  141.5850 O   0  0  0  0  0  1  0  0  0  0  0  0
  192.0630  174.4010  142.1160 C   0  0  1  0  0  3  0  0  0  0  0  0
  189.0490  172.8590  140.3830 C   0  0  0  0  0  0  0  0  0  0  0  0
  188.4300  172.1790  141.4360 C   0  0  0  0  0  3  0  0  0  0  0  0
  190.8080  173.6010  141.8860 C   0  0  0  0  0  0  0  0  0  0  0  0
  188.9990  172.1990  142.7130 C   0  0  0  0  0  3  0  0  0  0  0  0
  190.2360  173.5620  140.6070 C   0  0  0  0  0  3  0  0  0  0  0  0
  190.1800  172.9140  142.9390 C   0  0  0  0  0  3  0  0  0  0  0  0
  188.4470  172.8340  139.0250 C   0  0  0  0  0  1  0  0  0  0  0  0
  1 14  1  1  0  0  0
  2  7  1  1  0  0  0
  3 10  1  0  0  0  0
  4 11  1  0  0  0  0
  8 18  1  0  0  0  0
 10  9  1  0  0  0  0
 10 22  1  0  0  0  0
 11  1  1  0  0  0  0
 11  2  1  0  0  0  0
 12  3  1  0  0  0  0
 13 20  1  0  0  0  0
 13  5  1  0  0  0  0
 15 22  1  0  0  0  0
 16 21  1  0  0  0  0
 16  4  1  0  0  0  0
 17  6  1  0  0  0  0
 17  1  1  0  0  0  0
 18  2  1  0  0  0  0
 18 15  1  0  0  0  0
 19 13  1  0  0  0  0
 19 12  1  0  0  0  0
 20  4  1  0  0  0  0
 20  8  1  0  0  0  0
 21 17  1  0  0  0  0
 23 25  1  0  0  0  0
 23 19  1  0  0  0  0
 24 23  1  0  0  0  0
 26 27  1  0  0  0  0
 27 16  1  0  0  0  0
 28 32  2  0  0  0  0
 28 29  1  0  0  0  0
 29 31  2  0  0  0  0
 30 27  1  0  0  0  0
 30 33  2  0  0  0  0
 31 33  1  0  0  0  0
 32 30  1  0  0  0  0
 34 28  1  0  0  0  0
M  END
>  <MODEL>
1

>  <REMARK>
 VINA RESULT:      -8.1      0.000      0.000
  Name = 
  3 active torsions:
  status: ('A' for Active; 'I' for Inactive)
    1  A    between atoms: C_12  and  C_28
    2  A    between atoms: C_13  and  C_29
    3  A    between atoms: C_21  and  C_28
                            x       y       z     vdW  Elec       q    Type
                         _______ _______ _______ _____ _____    ______ ____

>  <TORSDO>
F 3

$$$$
=
 OpenBabel11052418423D

 34 37  0  0  1  0  0  0  0  0999 V2000
  190.4840  176.4960  147.3570 C   0  0  1  0  0  3  0  0  0  0  0  0
  191.5660  176.4400  144.9930 C   0  0  2  0  0  3  0  0  0  0  0  0
  192.4480  172.9810  142.4260 C   0  0  0  0  0  2  0  0  0  0  0  0
  189.3020  175.3630  145.4380 C   0  0  1  0  0  3  0  0  0  0  0  0
  190.8990  173.0290  144.8580 O   0  0  0  0  0  1  0  0  0  0  0  0
  189.5190  178.5360  148.4390 C   0  0  0  0  0  1  0  0  0  0  0  0
  192.9900  176.5790  145.5120 C   0  0  0  0  0  1  0  0  0  0  0  0
  190.2910  175.4340  143.1770 O   0  0  0  0  0  0  0  0  0  0  0  0
  192.8120  173.5110  140.1770 C   0  0  0  0  0  1  0  0  0  0  0  0
  192.2900  174.0300  141.4280 N   0  0  0  0  0  0  0  0  0  0  0  0
  190.6790  175.7260  146.0380 C   0  0  2  0  0  3  0  0  0  0  0  0
  191.2850  171.9900  142.4150 C   0  0  0  0  0  2  0  0  0  0  0  0
  189.7840  173.2410  144.1120 N   0  0  0  0  0  0  0  0  0  0  0  0
  191.7030  176.7530  147.9900 O   0  0  0  0  0  1  0  0  0  0  0  0
  192.4640  176.1910  142.6240 C   0  0  0  0  0  2  0  0  0  0  0  0
  188.4000  176.6170  145.3030 C   0  0  2  0  0  3  0  0  0  0  0  0
  189.6910  177.7790  147.1330 C   0  0  2  0  0  3  0  0  0  0  0  0
  191.5810  175.5940  143.7130 C   0  0  1  0  0  3  0  0  0  0  0  0
  189.8990  172.5720  142.7850 C   0  0  1  0  0  3  0  0  0  0  0  0
  189.4840  174.6900  144.0650 C   0  0  1  0  0  3  0  0  0  0  0  0
  188.3120  177.4110  146.6050 C   0  0  0  0  0  2  0  0  0  0  0  0
  193.1890  175.1040  141.8330 C   0  0  0  0  0  2  0  0  0  0  0  0
  189.1400  173.2340  141.6150 C   0  0  0  0  0  3  0  0  0  0  0  0
  187.6500  173.2800  141.8890 C   0  0  0  0  0  1  0  0  0  0  0  0
  189.3580  172.4990  140.3010 C   0  0  0  0  0  1  0  0  0  0  0  0
  186.0450  176.5840  145.8130 O   0  0  0  0  0  1  0  0  0  0  0  0
  186.9780  176.3180  144.8090 C   0  0  1  0  0  3  0  0  0  0  0  0
  184.9200  177.8920  142.0260 C   0  0  0  0  0  0  0  0  0  0  0  0
  185.9000  178.1790  141.0720 C   0  0  0  0  0  3  0  0  0  0  0  0
  186.6180  176.9900  143.5100 C   0  0  0  0  0  0  0  0  0  0  0  0
  187.2420  177.8820  141.3340 C   0  0  0  0  0  3  0  0  0  0  0  0
  185.2790  177.3060  143.2430 C   0  0  0  0  0  3  0  0  0  0  0  0
  187.5980  177.2830  142.5460 C   0  0  0  0  0  3  0  0  0  0  0  0
  183.4950  178.2120  141.7480 C   0  0  0  0  0  1  0  0  0  0  0  0
  1 14  1  6  0  0  0
  2  7  1  1  0  0  0
  2 11  1  0  0  0  0
  4 11  1  0  0  0  0
  8 18  1  0  0  0  0
  8 20  1  0  0  0  0
  9 10  1  0  0  0  0
 10 22  1  0  0  0  0
 10  3  1  0  0  0  0
 11  1  1  0  0  0  0
 12  3  1  0  0  0  0
 12 19  1  0  0  0  0
 13  5  1  0  0  0  0
 15 18  1  0  0  0  0
 16  4  1  0  0  0  0
 16 21  1  0  0  0  0
 17  1  1  0  0  0  0
 17  6  1  0  0  0  0
 18  2  1  0  0  0  0
 19 13  1  0  0  0  0
 20 13  1  0  0  0  0
 20  4  1  0  0  0  0
 21 17  1  0  0  0  0
 22 15  1  0  0  0  0
 23 24  1  0  0  0  0
 23 19  1  0  0  0  0
 25 23  1  0  0  0  0
 27 16  1  0  0  0  0
 27 26  1  0  0  0  0
 28 32  1  0  0  0  0
 29 31  1  0  0  0  0
 29 28  2  0  0  0  0
 30 27  1  0  0  0  0
 31 33  2  0  0  0  0
 32 30  2  0  0  0  0
 33 30  1  0  0  0  0
 34 28  1  0  0  0  0
M  END
>  <MODEL>
2

>  <REMARK>
 VINA RESULT:      -8.0      2.106      5.728
  Name = 
  3 active torsions:
  status: ('A' for Active; 'I' for Inactive)
    1  A    between atoms: C_12  and  C_28
    2  A    between atoms: C_13  and  C_29
    3  A    between atoms: C_21  and  C_28
                            x       y       z     vdW  Elec       q    Type
                         _______ _______ _______ _____ _____    ______ ____

>  <TORSDO>
F 3

$$$$
=
 OpenBabel11052418423D

 34 37  0  0  1  0  0  0  0  0999 V2000
  193.7480  176.4080  145.6380 C   0  0  1  0  0  3  0  0  0  0  0  0
  191.3480  175.7760  146.4160 C   0  0  2  0  0  3  0  0  0  0  0  0
  187.5510  177.8660  145.6740 C   0  0  0  0  0  2  0  0  0  0  0  0
  191.8840  176.1570  143.9560 C   0  0  1  0  0  3  0  0  0  0  0  0
  190.1190  178.3840  144.4680 O   0  0  0  0  0  1  0  0  0  0  0  0
  195.7040  174.8470  145.6320 C   0  0  0  0  0  1  0  0  0  0  0  0
  191.5280  176.3380  147.8200 C   0  0  0  0  0  1  0  0  0  0  0  0
  189.6460  175.4350  144.7080 O   0  0  0  0  0  0  0  0  0  0  0  0
  185.6420  176.5630  146.0310 C   0  0  0  0  0  1  0  0  0  0  0  0
  187.0810  176.4990  145.8550 N   0  0  0  0  0  0  0  0  0  0  0  0
  192.2310  176.5490  145.4100 C   0  0  2  0  0  3  0  0  0  0  0  0
  187.4480  178.3270  144.2210 C   0  0  0  0  0  2  0  0  0  0  0  0
  189.7920  177.5270  143.4670 N   0  0  0  0  0  0  0  0  0  0  0  0
  194.1230  176.8520  146.9080 O   0  0  0  0  0  1  0  0  0  0  0  0
  188.9160  175.2490  146.9510 C   0  0  0  0  0  2  0  0  0  0  0  0
  192.4410  174.7530  143.6050 C   0  0  2  0  0  3  0  0  0  0  0  0
  194.2110  174.9760  145.3890 C   0  0  2  0  0  3  0  0  0  0  0  0
  189.8810  175.9420  145.9980 C   0  0  1  0  0  3  0  0  0  0  0  0
  188.3250  177.5540  143.2050 C   0  0  1  0  0  3  0  0  0  0  0  0
  190.3580  176.1890  143.7510 C   0  0  1  0  0  3  0  0  0  0  0  0
  193.9260  174.6180  143.9380 C   0  0  0  0  0  2  0  0  0  0  0  0
  187.6310  176.0540  147.1300 C   0  0  0  0  0  2  0  0  0  0  0  0
  187.6990  176.2480  142.6700 C   0  0  0  0  0  3  0  0  0  0  0  0
  188.2830  175.8780  141.3200 C   0  0  0  0  0  1  0  0  0  0  0  0
  186.1890  176.3550  142.5210 C   0  0  0  0  0  1  0  0  0  0  0  0
  193.3920  174.5220  141.4020 O   0  0  0  0  0  1  0  0  0  0  0  0
  192.2230  174.3390  142.1430 C   0  0  1  0  0  3  0  0  0  0  0  0
  191.5370  170.8900  140.6950 C   0  0  0  0  0  0  0  0  0  0  0  0
  190.5640  170.4000  141.5710 C   0  0  0  0  0  3  0  0  0  0  0  0
  191.6540  172.9550  141.9680 C   0  0  0  0  0  0  0  0  0  0  0  0
  190.1390  171.1790  142.6520 C   0  0  0  0  0  3  0  0  0  0  0  0
  192.0840  172.1610  140.8970 C   0  0  0  0  0  3  0  0  0  0  0  0
  190.6760  172.4550  142.8450 C   0  0  0  0  0  3  0  0  0  0  0  0
  191.9920  170.0610  139.5490 C   0  0  0  0  0  1  0  0  0  0  0  0
  1 14  1  1  0  0  0
  2  7  1  1  0  0  0
  3 10  1  0  0  0  0
  4 11  1  0  0  0  0
  8 18  1  0  0  0  0
 10  9  1  0  0  0  0
 10 22  1  0  0  0  0
 11  1  1  0  0  0  0
 11  2  1  0  0  0  0
 12  3  1  0  0  0  0
 13 20  1  0  0  0  0
 13  5  1  0  0  0  0
 15 22  1  0  0  0  0
 16 21  1  0  0  0  0
 16  4  1  0  0  0  0
 17  6  1  0  0  0  0
 17  1  1  0  0  0  0
 18  2  1  0  0  0  0
 18 15  1  0  0  0  0
 19 13  1  0  0  0  0
 19 12  1  0  0  0  0
 20  4  1  0  0  0  0
 20  8  1  0  0  0  0
 21 17  1  0  0  0  0
 23 19  1  0  0  0  0
 24 23  1  0  0  0  0
 25 23  1  0  0  0  0
 26 27  1  0  0  0  0
 27 16  1  0  0  0  0
 28 32  2  0  0  0  0
 28 29  1  0  0  0  0
 29 31  2  0  0  0  0
 30 27  1  0  0  0  0
 30 33  2  0  0  0  0
 31 33  1  0  0  0  0
 32 30  1  0  0  0  0
 34 28  1  0  0  0  0
M  END
>  <MODEL>
3

>  <REMARK>
 VINA RESULT:      -7.8      1.114      1.202
  Name = 
  3 active torsions:
  status: ('A' for Active; 'I' for Inactive)
    1  A    between atoms: C_12  and  C_28
    2  A    between atoms: C_13  and  C_29
    3  A    between atoms: C_21  and  C_28
                            x       y       z     vdW  Elec       q    Type
                         _______ _______ _______ _____ _____    ______ ____

>  <TORSDO>
F 3

$$$$
=
 OpenBabel11052418423D

 34 37  0  0  1  0  0  0  0  0999 V2000
  191.9440  175.3240  146.9620 C   0  0  1  0  0  3  0  0  0  0  0  0
  192.4560  175.5110  144.4190 C   0  0  2  0  0  3  0  0  0  0  0  0
  192.1600  172.4320  141.2950 C   0  0  0  0  0  2  0  0  0  0  0  0
  190.1970  174.6880  145.2560 C   0  0  1  0  0  3  0  0  0  0  0  0
  191.2120  172.2880  144.0150 O   0  0  0  0  0  1  0  0  0  0  0  0
  191.5970  177.2710  148.4960 C   0  0  0  0  0  1  0  0  0  0  0  0
  193.9630  175.3710  144.5920 C   0  0  0  0  0  1  0  0  0  0  0  0
  190.6640  174.9940  142.8520 O   0  0  0  0  0  0  0  0  0  0  0  0
  192.1070  173.2680  139.1110 C   0  0  0  0  0  1  0  0  0  0  0  0
  191.9660  173.6410  140.5070 N   0  0  0  0  0  0  0  0  0  0  0  0
  191.7120  174.7610  145.5470 C   0  0  2  0  0  3  0  0  0  0  0  0
  190.8730  171.6200  141.4380 C   0  0  0  0  0  2  0  0  0  0  0  0
  190.0130  172.7670  143.5930 N   0  0  0  0  0  0  0  0  0  0  0  0
  193.2970  175.3090  147.3090 O   0  0  0  0  0  1  0  0  0  0  0  0
  192.7590  175.5340  141.8910 C   0  0  0  0  0  2  0  0  0  0  0  0
  189.5120  176.0570  145.5050 C   0  0  2  0  0  3  0  0  0  0  0  0
  191.3480  176.7210  147.1020 C   0  0  2  0  0  3  0  0  0  0  0  0
  192.0480  174.8910  143.0760 C   0  0  1  0  0  3  0  0  0  0  0  0
  189.7210  172.3140  142.2040 C   0  0  1  0  0  3  0  0  0  0  0  0
  189.9590  174.2310  143.8060 C   0  0  1  0  0  3  0  0  0  0  0  0
  189.8450  176.6320  146.8800 C   0  0  0  0  0  2  0  0  0  0  0  0
  193.0990  174.5040  140.8160 C   0  0  0  0  0  2  0  0  0  0  0  0
  188.8460  173.2530  141.3460 C   0  0  0  0  0  3  0  0  0  0  0  0
  187.4920  173.4760  141.9910 C   0  0  0  0  0  1  0  0  0  0  0  0
  188.6200  172.7060  139.9450 C   0  0  0  0  0  1  0  0  0  0  0  0
  187.3540  176.1160  146.5770 O   0  0  0  0  0  1  0  0  0  0  0  0
  187.9860  176.0360  145.3350 C   0  0  1  0  0  3  0  0  0  0  0  0
  185.9580  178.9100  143.8900 C   0  0  0  0  0  0  0  0  0  0  0  0
  186.3930  178.9280  142.5620 C   0  0  0  0  0  3  0  0  0  0  0  0
  187.4560  177.0570  144.3630 C   0  0  0  0  0  0  0  0  0  0  0  0
  187.3640  178.0190  142.1310 C   0  0  0  0  0  3  0  0  0  0  0  0
  186.4920  177.9820  144.7880 C   0  0  0  0  0  3  0  0  0  0  0  0
  187.8880  177.0820  143.0260 C   0  0  0  0  0  3  0  0  0  0  0  0
  184.9290  179.8790  144.3500 C   0  0  0  0  0  1  0  0  0  0  0  0
  1 17  1  0  0  0  0
  1 14  1  6  0  0  0
  2  7  1  1  0  0  0
  2 11  1  0  0  0  0
  3 12  1  0  0  0  0
  4 16  1  0  0  0  0
  4 11  1  0  0  0  0
  8 18  1  0  0  0  0
  8 20  1  0  0  0  0
  9 10  1  0  0  0  0
 10 22  1  0  0  0  0
 10  3  1  0  0  0  0
 11  1  1  0  0  0  0
 12 19  1  0  0  0  0
 13 20  1  0  0  0  0
 13  5  1  0  0  0  0
 15 18  1  0  0  0  0
 16 21  1  0  0  0  0
 17  6  1  0  0  0  0
 18  2  1  0  0  0  0
 19 13  1  0  0  0  0
 20  4  1  0  0  0  0
 21 17  1  0  0  0  0
 22 15  1  0  0  0  0
 23 24  1  0  0  0  0
 23 19  1  0  0  0  0
 25 23  1  0  0  0  0
 27 16  1  0  0  0  0
 27 26  1  0  0  0  0
 28 34  1  0  0  0  0
 28 32  1  0  0  0  0
 29 28  2  0  0  0  0
 30 32  2  0  0  0  0
 30 27  1  0  0  0  0
 31 29  1  0  0  0  0
 31 33  2  0  0  0  0
 33 30  1  0  0  0  0
M  END
>  <MODEL>
4

>  <REMARK>
 VINA RESULT:      -7.6      2.051      5.815
  Name = 
  3 active torsions:
  status: ('A' for Active; 'I' for Inactive)
    1  A    between atoms: C_12  and  C_28
    2  A    between atoms: C_13  and  C_29
    3  A    between atoms: C_21  and  C_28
                            x       y       z     vdW  Elec       q    Type
                         _______ _______ _______ _____ _____    ______ ____

>  <TORSDO>
F 3

$$$$
=
 OpenBabel11052418423D

 34 37  0  0  1  0  0  0  0  0999 V2000
  190.5650  173.1950  139.8560 C   0  0  1  0  0  3  0  0  0  0  0  0
  191.9280  172.3530  141.9050 C   0  0  2  0  0  3  0  0  0  0  0  0
  195.6770  173.9260  143.5800 C   0  0  0  0  0  2  0  0  0  0  0  0
  191.1440  174.7690  141.7410 C   0  0  1  0  0  3  0  0  0  0  0  0
  194.0030  175.1230  141.5590 O   0  0  0  0  0  1  0  0  0  0  0  0
  188.1860  172.5830  139.3740 C   0  0  0  0  0  1  0  0  0  0  0  0
  192.5980  171.2170  141.1420 C   0  0  0  0  0  1  0  0  0  0  0  0
  192.3290  173.9150  143.7300 O   0  0  0  0  0  0  0  0  0  0  0  0
  196.1300  173.2300  145.7660 C   0  0  0  0  0  1  0  0  0  0  0  0
  195.0860  173.3110  144.7600 N   0  0  0  0  0  0  0  0  0  0  0  0
  191.5990  173.5230  140.9500 C   0  0  2  0  0  3  0  0  0  0  0  0
  195.6540  175.4530  143.6480 C   0  0  0  0  0  2  0  0  0  0  0  0
  193.3390  175.7860  142.5410 N   0  0  0  0  0  0  0  0  0  0  0  0
  190.9870  172.1360  139.0470 O   0  0  0  0  0  1  0  0  0  0  0  0
  193.3160  171.7760  143.9600 C   0  0  0  0  0  2  0  0  0  0  0  0
  189.6990  174.5970  142.2770 C   0  0  2  0  0  3  0  0  0  0  0  0
  189.1920  172.9200  140.4620 C   0  0  2  0  0  3  0  0  0  0  0  0
  192.8920  172.8660  142.9830 C   0  0  1  0  0  3  0  0  0  0  0  0
  194.2510  176.1050  143.6750 C   0  0  1  0  0  3  0  0  0  0  0  0
  192.1140  175.0390  142.9050 C   0  0  1  0  0  3  0  0  0  0  0  0
  188.7200  174.1740  141.1830 C   0  0  0  0  0  2  0  0  0  0  0  0
  194.7750  171.9380  144.3810 C   0  0  0  0  0  2  0  0  0  0  0  0
  193.6020  176.1900  145.0730 C   0  0  0  0  0  3  0  0  0  0  0  0
  192.4400  177.1640  145.0770 C   0  0  0  0  0  1  0  0  0  0  0  0
  194.5940  176.6320  146.1400 C   0  0  0  0  0  1  0  0  0  0  0  0
  187.9960  176.3020  142.3350 O   0  0  0  0  0  1  0  0  0  0  0  0
  189.1400  175.8390  142.9860 C   0  0  1  0  0  3  0  0  0  0  0  0
  187.8470  176.3940  146.5190 C   0  0  0  0  0  0  0  0  0  0  0  0
  188.5260  175.4030  147.2320 C   0  0  0  0  0  3  0  0  0  0  0  0
  188.9160  175.6600  144.4650 C   0  0  0  0  0  0  0  0  0  0  0  0
  189.3960  174.5320  146.5660 C   0  0  0  0  0  3  0  0  0  0  0  0
  188.0360  176.5180  145.1400 C   0  0  0  0  0  3  0  0  0  0  0  0
  189.5950  174.6660  145.1890 C   0  0  0  0  0  3  0  0  0  0  0  0
  186.9200  177.3160  147.2260 C   0  0  0  0  0  1  0  0  0  0  0  0
  1 14  1  1  0  0  0
  1 17  1  0  0  0  0
  1 11  1  0  0  0  0
  2  7  1  6  0  0  0
  2 18  1  0  0  0  0
  3 12  1  0  0  0  0
  3 10  1  0  0  0  0
  4 16  1  0  0  0  0
  4 20  1  0  0  0  0
  5 13  1  0  0  0  0
  6 17  1  0  0  0  0
 10  9  1  0  0  0  0
 11  4  1  0  0  0  0
 11  2  1  0  0  0  0
 12 19  1  0  0  0  0
 13 20  1  0  0  0  0
 13 19  1  0  0  0  0
 15 22  1  0  0  0  0
 16 27  1  0  0  0  0
 17 21  1  0  0  0  0
 18  8  1  0  0  0  0
 18 15  1  0  0  0  0
 19 23  1  0  0  0  0
 20  8  1  0  0  0  0
 21 16  1  0  0  0  0
 22 10  1  0  0  0  0
 23 24  1  0  0  0  0
 23 25  1  0  0  0  0
 26 27  1  0  0  0  0
 27 30  1  0  0  0  0
 28 34  1  0  0  0  0
 28 29  1  0  0  0  0
 30 32  1  0  0  0  0
 30 33  2  0  0  0  0
 31 29  2  0  0  0  0
 32 28  2  0  0  0  0
 33 31  1  0  0  0  0
M  END
>  <MODEL>
5

>  <REMARK>
 VINA RESULT:      -7.5      2.383      6.802
  Name = 
  3 active torsions:
  status: ('A' for Active; 'I' for Inactive)
    1  A    between atoms: C_12  and  C_28
    2  A    between atoms: C_13  and  C_29
    3  A    between atoms: C_21  and  C_28
                            x       y       z     vdW  Elec       q    Type
                         _______ _______ _______ _____ _____    ______ ____

>  <TORSDO>
F 3

$$$$
=
 OpenBabel11052418423D

 34 37  0  0  1  0  0  0  0  0999 V2000
  190.1540  175.5740  146.9560 C   0  0  1  0  0  3  0  0  0  0  0  0
  191.8640  174.9140  145.1100 C   0  0  2  0  0  3  0  0  0  0  0  0
  192.1670  171.1730  142.8200 C   0  0  0  0  0  2  0  0  0  0  0  0
  189.3550  174.8130  144.6870 C   0  0  1  0  0  3  0  0  0  0  0  0
  190.0300  172.0080  144.5670 O   0  0  0  0  0  1  0  0  0  0  0  0
  189.7390  177.9120  147.7480 C   0  0  0  0  0  1  0  0  0  0  0  0
  192.9650  174.5480  146.0960 C   0  0  0  0  0  1  0  0  0  0  0  0
  190.9980  174.3130  142.9140 O   0  0  0  0  0  0  0  0  0  0  0  0
  193.4460  171.3330  140.8680 C   0  0  0  0  0  1  0  0  0  0  0  0
  192.7720  172.1150  141.8880 N   0  0  0  0  0  0  0  0  0  0  0  0
  190.4730  174.6790  145.7440 C   0  0  2  0  0  3  0  0  0  0  0  0
  190.7920  170.6970  142.3540 C   0  0  0  0  0  2  0  0  0  0  0  0
  189.4060  172.5620  143.4950 N   0  0  0  0  0  0  0  0  0  0  0  0
  191.0850  175.4060  147.9830 O   0  0  0  0  0  1  0  0  0  0  0  0
  193.3430  174.1440  143.1870 C   0  0  0  0  0  2  0  0  0  0  0  0
  189.1060  176.2980  144.3180 C   0  0  2  0  0  3  0  0  0  0  0  0
  190.0390  177.0380  146.5420 C   0  0  2  0  0  3  0  0  0  0  0  0
  191.9870  174.0190  143.8700 C   0  0  1  0  0  3  0  0  0  0  0  0
  189.6990  171.7880  142.2540 C   0  0  1  0  0  3  0  0  0  0  0  0
  189.7190  174.0070  143.4270 C   0  0  1  0  0  3  0  0  0  0  0  0
  188.8930  177.1740  145.5510 C   0  0  0  0  0  2  0  0  0  0  0  0
  193.8180  172.8010  142.6370 C   0  0  0  0  0  2  0  0  0  0  0  0
  189.6970  172.5860  140.9330 C   0  0  0  0  0  3  0  0  0  0  0  0
  188.3150  173.1290  140.6260 C   0  0  0  0  0  1  0  0  0  0  0  0
  190.1460  171.7380  139.7510 C   0  0  0  0  0  1  0  0  0  0  0  0
  187.3650  175.2960  142.9860 O   0  0  0  0  0  1  0  0  0  0  0  0
  187.9360  176.5170  143.3480 C   0  0  1  0  0  3  0  0  0  0  0  0
  185.1520  178.0850  145.4090 C   0  0  0  0  0  0  0  0  0  0  0  0
  184.9270  179.2820  144.7240 C   0  0  0  0  0  3  0  0  0  0  0  0
  186.9050  177.5030  143.8330 C   0  0  0  0  0  0  0  0  0  0  0  0
  185.6930  179.5990  143.5980 C   0  0  0  0  0  3  0  0  0  0  0  0
  186.1410  177.2020  144.9690 C   0  0  0  0  0  3  0  0  0  0  0  0
  186.6740  178.7090  143.1500 C   0  0  0  0  0  3  0  0  0  0  0  0
  184.3400  177.7500  146.6090 C   0  0  0  0  0  1  0  0  0  0  0  0
  1 14  1  1  0  0  0
  2 11  1  0  0  0  0
  2  7  1  1  0  0  0
  4 11  1  0  0  0  0
  8 20  1  0  0  0  0
  8 18  1  0  0  0  0
  9 10  1  0  0  0  0
 10 22  1  0  0  0  0
 10  3  1  0  0  0  0
 11  1  1  0  0  0  0
 12  3  1  0  0  0  0
 13  5  1  0  0  0  0
 15 18  1  0  0  0  0
 16  4  1  0  0  0  0
 16 21  1  0  0  0  0
 17  1  1  0  0  0  0
 17  6  1  0  0  0  0
 18  2  1  0  0  0  0
 19 12  1  0  0  0  0
 19 13  1  0  0  0  0
 20 13  1  0  0  0  0
 20  4  1  0  0  0  0
 21 17  1  0  0  0  0
 22 15  1  0  0  0  0
 23 19  1  0  0  0  0
 24 23  1  0  0  0  0
 25 23  1  0  0  0  0
 26 27  1  0  0  0  0
 27 30  1  0  0  0  0
 27 16  1  0  0  0  0
 28 34  1  0  0  0  0
 29 28  2  0  0  0  0
 30 32  2  0  0  0  0
 31 29  1  0  0  0  0
 32 28  1  0  0  0  0
 33 31  2  0  0  0  0
 33 30  1  0  0  0  0
M  END
>  <MODEL>
6

>  <REMARK>
 VINA RESULT:      -7.3      2.369      6.233
  Name = 
  3 active torsions:
  status: ('A' for Active; 'I' for Inactive)
    1  A    between atoms: C_12  and  C_28
    2  A    between atoms: C_13  and  C_29
    3  A    between atoms: C_21  and  C_28
                            x       y       z     vdW  Elec       q    Type
                         _______ _______ _______ _____ _____    ______ ____

>  <TORSDO>
F 3

$$$$
=
 OpenBabel11052418423D

 34 37  0  0  1  0  0  0  0  0999 V2000
  193.7390  174.7750  145.4270 C   0  0  1  0  0  3  0  0  0  0  0  0
  193.5120  174.8560  142.8380 C   0  0  2  0  0  3  0  0  0  0  0  0
  191.8650  171.8350  140.1010 C   0  0  0  0  0  2  0  0  0  0  0  0
  191.4970  174.4100  144.3290 C   0  0  1  0  0  3  0  0  0  0  0  0
  191.7380  171.8680  142.9820 O   0  0  0  0  0  1  0  0  0  0  0  0
  194.1470  176.7650  146.8890 C   0  0  0  0  0  1  0  0  0  0  0  0
  194.9660  174.4800  142.5810 C   0  0  0  0  0  1  0  0  0  0  0  0
  191.2870  174.6170  141.8780 O   0  0  0  0  0  0  0  0  0  0  0  0
  191.3060  172.6500  137.9810 C   0  0  0  0  0  1  0  0  0  0  0  0
  191.6340  173.0530  139.3360 N   0  0  0  0  0  0  0  0  0  0  0  0
  193.0250  174.2430  144.1710 C   0  0  2  0  0  3  0  0  0  0  0  0
  190.5700  171.2390  140.6500 C   0  0  0  0  0  2  0  0  0  0  0  0
  190.5530  172.5270  142.8950 N   0  0  0  0  0  0  0  0  0  0  0  0
  195.1170  174.5490  145.3740 O   0  0  0  0  0  1  0  0  0  0  0  0
  193.0680  174.8090  140.3320 C   0  0  0  0  0  2  0  0  0  0  0  0
  191.1260  175.8720  144.6870 C   0  0  2  0  0  3  0  0  0  0  0  0
  193.4250  176.2500  145.6560 C   0  0  2  0  0  3  0  0  0  0  0  0
  192.6440  174.2970  141.7030 C   0  0  1  0  0  3  0  0  0  0  0  0
  189.8060  172.1140  141.6730 C   0  0  1  0  0  3  0  0  0  0  0  0
  190.7820  173.9830  143.0340 C   0  0  1  0  0  3  0  0  0  0  0  0
  191.9270  176.3990  145.8770 C   0  0  0  0  0  2  0  0  0  0  0  0
  192.9240  173.7280  139.2620 C   0  0  0  0  0  2  0  0  0  0  0  0
  188.8710  173.1730  141.0510 C   0  0  0  0  0  3  0  0  0  0  0  0
  187.7900  173.5880  142.0300 C   0  0  0  0  0  1  0  0  0  0  0  0
  188.1950  172.6680  139.7850 C   0  0  0  0  0  1  0  0  0  0  0  0
  189.4420  176.6390  146.2320 O   0  0  0  0  0  1  0  0  0  0  0  0
  189.6320  176.0920  144.9620 C   0  0  1  0  0  3  0  0  0  0  0  0
  186.8290  177.5610  142.8530 C   0  0  0  0  0  0  0  0  0  0  0  0
  187.5430  178.2660  141.8790 C   0  0  0  0  0  3  0  0  0  0  0  0
  188.9140  176.8750  143.8950 C   0  0  0  0  0  0  0  0  0  0  0  0
  188.9410  178.2860  141.9130 C   0  0  0  0  0  3  0  0  0  0  0  0
  187.5130  176.8740  143.8600 C   0  0  0  0  0  3  0  0  0  0  0  0
  189.6240  177.5870  142.9130 C   0  0  0  0  0  3  0  0  0  0  0  0
  185.3440  177.5440  142.8200 C   0  0  0  0  0  1  0  0  0  0  0  0
  1 14  1  6  0  0  0
  1 17  1  0  0  0  0
  2  7  1  6  0  0  0
  2 11  1  0  0  0  0
  3 12  1  0  0  0  0
  4 16  1  0  0  0  0
  8 20  1  0  0  0  0
  9 10  1  0  0  0  0
 10  3  1  0  0  0  0
 11  4  1  0  0  0  0
 11  1  1  0  0  0  0
 12 19  1  0  0  0  0
 13  5  1  0  0  0  0
 13 20  1  0  0  0  0
 15 18  1  0  0  0  0
 16 27  1  0  0  0  0
 16 21  1  0  0  0  0
 17 21  1  0  0  0  0
 17  6  1  0  0  0  0
 18  8  1  0  0  0  0
 18  2  1  0  0  0  0
 19 13  1  0  0  0  0
 20  4  1  0  0  0  0
 22 10  1  0  0  0  0
 22 15  1  0  0  0  0
 23 19  1  0  0  0  0
 23 24  1  0  0  0  0
 25 23  1  0  0  0  0
 27 26  1  0  0  0  0
 28 32  1  0  0  0  0
 29 31  1  0  0  0  0
 29 28  2  0  0  0  0
 30 27  1  0  0  0  0
 31 33  2  0  0  0  0
 32 30  2  0  0  0  0
 33 30  1  0  0  0  0
 34 28  1  0  0  0  0
M  END
>  <MODEL>
7

>  <REMARK>
 VINA RESULT:      -7.2      2.167      5.732
  Name = 
  3 active torsions:
  status: ('A' for Active; 'I' for Inactive)
    1  A    between atoms: C_12  and  C_28
    2  A    between atoms: C_13  and  C_29
    3  A    between atoms: C_21  and  C_28
                            x       y       z     vdW  Elec       q    Type
                         _______ _______ _______ _____ _____    ______ ____

>  <TORSDO>
F 3

$$$$
=
 OpenBabel11052418423D

 34 37  0  0  1  0  0  0  0  0999 V2000
  195.3870  176.3730  143.2500 C   0  0  1  0  0  3  0  0  0  0  0  0
  193.5480  175.6000  144.9190 C   0  0  2  0  0  3  0  0  0  0  0  0
  189.6600  177.4470  145.8150 C   0  0  0  0  0  2  0  0  0  0  0  0
  193.0200  175.9990  142.4600 C   0  0  1  0  0  3  0  0  0  0  0  0
  191.4870  178.1160  143.6860 O   0  0  0  0  0  1  0  0  0  0  0  0
  197.2620  174.9360  142.4240 C   0  0  0  0  0  1  0  0  0  0  0  0
  194.2470  176.1790  146.1410 C   0  0  0  0  0  1  0  0  0  0  0  0
  191.3230  175.1450  144.0360 O   0  0  0  0  0  0  0  0  0  0  0  0
  188.1380  176.0320  146.8870 C   0  0  0  0  0  1  0  0  0  0  0  0
  189.3840  176.0560  146.1430 N   0  0  0  0  0  0  0  0  0  0  0  0
  193.9020  176.4200  143.6570 C   0  0  2  0  0  3  0  0  0  0  0  0
  188.9520  177.8940  144.5360 C   0  0  0  0  0  2  0  0  0  0  0  0
  190.8330  177.2360  142.8850 N   0  0  0  0  0  0  0  0  0  0  0  0
  196.2170  176.8470  144.2690 O   0  0  0  0  0  1  0  0  0  0  0  0
  191.5750  174.9260  146.3790 C   0  0  0  0  0  2  0  0  0  0  0  0
  193.4690  174.6310  141.8850 C   0  0  2  0  0  3  0  0  0  0  0  0
  195.7920  174.9710  142.8070 C   0  0  2  0  0  3  0  0  0  0  0  0
  192.0300  175.6730  145.1310 C   0  0  1  0  0  3  0  0  0  0  0  0
  189.3860  177.1710  143.2380 C   0  0  1  0  0  3  0  0  0  0  0  0
  191.5430  175.9360  142.8890 C   0  0  1  0  0  3  0  0  0  0  0  0
  194.9660  174.5890  141.5880 C   0  0  0  0  0  2  0  0  0  0  0  0
  190.4270  175.6520  147.0780 C   0  0  0  0  0  2  0  0  0  0  0  0
  188.6750  175.8270  142.9750 C   0  0  0  0  0  3  0  0  0  0  0  0
  188.8540  175.3880  141.5350 C   0  0  0  0  0  1  0  0  0  0  0  0
  187.1840  175.9000  143.2670 C   0  0  0  0  0  1  0  0  0  0  0  0
  193.5530  174.1730  139.5200 O   0  0  0  0  0  1  0  0  0  0  0  0
  192.7030  174.1960  140.6280 C   0  0  1  0  0  3  0  0  0  0  0  0
  190.5080  171.2000  139.8130 C   0  0  0  0  0  0  0  0  0  0  0  0
  190.4460  170.5460  141.0470 C   0  0  0  0  0  3  0  0  0  0  0  0
  191.9390  172.9080  140.7810 C   0  0  0  0  0  0  0  0  0  0  0  0
  191.1350  171.0630  142.1490 C   0  0  0  0  0  3  0  0  0  0  0  0
  191.2560  172.3730  139.6800 C   0  0  0  0  0  3  0  0  0  0  0  0
  191.8730  172.2440  142.0180 C   0  0  0  0  0  3  0  0  0  0  0  0
  189.7790  170.6480  138.6410 C   0  0  0  0  0  1  0  0  0  0  0  0
  1 11  1  0  0  0  0
  1 14  1  1  0  0  0
  2 18  1  0  0  0  0
  2  7  1  1  0  0  0
  3 10  1  0  0  0  0
  4 20  1  0  0  0  0
  4 11  1  0  0  0  0
  6 17  1  0  0  0  0
  8 18  1  0  0  0  0
 10  9  1  0  0  0  0
 10 22  1  0  0  0  0
 11  2  1  0  0  0  0
 12  3  1  0  0  0  0
 13 20  1  0  0  0  0
 13 19  1  0  0  0  0
 13  5  1  0  0  0  0
 15 22  1  0  0  0  0
 16  4  1  0  0  0  0
 17  1  1  0  0  0  0
 18 15  1  0  0  0  0
 19 12  1  0  0  0  0
 20  8  1  0  0  0  0
 21 16  1  0  0  0  0
 21 17  1  0  0  0  0
 23 19  1  0  0  0  0
 23 25  1  0  0  0  0
 24 23  1  0  0  0  0
 26 27  1  0  0  0  0
 27 30  1  0  0  0  0
 27 16  1  0  0  0  0
 28 29  1  0  0  0  0
 29 31  2  0  0  0  0
 30 33  2  0  0  0  0
 32 28  2  0  0  0  0
 32 30  1  0  0  0  0
 33 31  1  0  0  0  0
 34 28  1  0  0  0  0
M  END
>  <MODEL>
8

>  <REMARK>
 VINA RESULT:      -7.0      1.889      2.335
  Name = 
  3 active torsions:
  status: ('A' for Active; 'I' for Inactive)
    1  A    between atoms: C_12  and  C_28
    2  A    between atoms: C_13  and  C_29
    3  A    between atoms: C_21  and  C_28
                            x       y       z     vdW  Elec       q    Type
                         _______ _______ _______ _____ _____    ______ ____

>  <TORSDO>
F 3

$$$$
=
 OpenBabel11052418423D

 34 37  0  0  1  0  0  0  0  0999 V2000
  188.3380  176.6240  144.1630 C   0  0  1  0  0  3  0  0  0  0  0  0
  190.7930  176.6170  143.3040 C   0  0  2  0  0  3  0  0  0  0  0  0
  194.3030  174.5450  144.9520 C   0  0  0  0  0  2  0  0  0  0  0  0
  189.5110  174.4470  143.6630 C   0  0  1  0  0  3  0  0  0  0  0  0
  191.5390  174.2110  145.7030 O   0  0  0  0  0  1  0  0  0  0  0  0
  186.3570  177.3570  142.8210 C   0  0  0  0  0  1  0  0  0  0  0  0
  191.1380  177.9640  143.9250 C   0  0  0  0  0  1  0  0  0  0  0  0
  191.7960  174.4730  142.7300 O   0  0  0  0  0  0  0  0  0  0  0  0
  196.0970  174.3450  143.4650 C   0  0  0  0  0  1  0  0  0  0  0  0
  194.6810  174.6520  143.5490 N   0  0  0  0  0  0  0  0  0  0  0  0
  189.7000  175.9060  144.1350 C   0  0  2  0  0  3  0  0  0  0  0  0
  193.9610  173.1110  145.3540 C   0  0  0  0  0  2  0  0  0  0  0  0
  191.4380  173.2150  144.7860 N   0  0  0  0  0  0  0  0  0  0  0  0
  188.4460  177.9160  144.6850 O   0  0  0  0  0  1  0  0  0  0  0  0
  193.2070  176.3640  142.5370 C   0  0  0  0  0  2  0  0  0  0  0  0
  188.7440  174.3880  142.3160 C   0  0  2  0  0  3  0  0  0  0  0  0
  187.6920  176.6330  142.7820 C   0  0  2  0  0  3  0  0  0  0  0  0
  192.0470  175.7340  143.2990 C   0  0  1  0  0  3  0  0  0  0  0  0
  192.7320  172.4890  144.6480 C   0  0  1  0  0  3  0  0  0  0  0  0
  190.8790  173.7540  143.5250 C   0  0  1  0  0  3  0  0  0  0  0  0
  187.4470  175.1940  142.3510 C   0  0  0  0  0  2  0  0  0  0  0  0
  194.5460  176.0620  143.2060 C   0  0  0  0  0  2  0  0  0  0  0  0
  193.0250  171.8650  143.2670 C   0  0  0  0  0  3  0  0  0  0  0  0
  192.0180  170.7800  142.9340 C   0  0  0  0  0  1  0  0  0  0  0  0
  194.4180  171.2570  143.1960 C   0  0  0  0  0  1  0  0  0  0  0  0
  187.0730  172.6770  142.0130 O   0  0  0  0  0  1  0  0  0  0  0  0
  188.4280  172.9640  141.8360 C   0  0  1  0  0  3  0  0  0  0  0  0
  190.5230  171.6590  138.9440 C   0  0  0  0  0  0  0  0  0  0  0  0
  189.8230  172.1490  137.8380 C   0  0  0  0  0  3  0  0  0  0  0  0
  188.8910  172.6660  140.4340 C   0  0  0  0  0  0  0  0  0  0  0  0
  188.6520  172.8910  138.0230 C   0  0  0  0  0  3  0  0  0  0  0  0
  190.0550  171.9110  140.2360 C   0  0  0  0  0  3  0  0  0  0  0  0
  188.1920  173.1540  139.3170 C   0  0  0  0  0  3  0  0  0  0  0  0
  191.7660  170.8670  138.7460 C   0  0  0  0  0  1  0  0  0  0  0  0
  1 14  1  6  0  0  0
  2  7  1  1  0  0  0
  2 11  1  0  0  0  0
  3 12  1  0  0  0  0
  4 11  1  0  0  0  0
  8 18  1  0  0  0  0
  8 20  1  0  0  0  0
  9 10  1  0  0  0  0
 10  3  1  0  0  0  0
 11  1  1  0  0  0  0
 13  5  1  0  0  0  0
 15 22  1  0  0  0  0
 15 18  1  0  0  0  0
 16 21  1  0  0  0  0
 16  4  1  0  0  0  0
 17  6  1  0  0  0  0
 17  1  1  0  0  0  0
 18  2  1  0  0  0  0
 19 13  1  0  0  0  0
 19 12  1  0  0  0  0
 20  4  1  0  0  0  0
 20 13  1  0  0  0  0
 21 17  1  0  0  0  0
 22 10  1  0  0  0  0
 23 19  1  0  0  0  0
 24 23  1  0  0  0  0
 25 23  1  0  0  0  0
 27 26  1  0  0  0  0
 27 16  1  0  0  0  0
 28 32  1  0  0  0  0
 29 31  1  0  0  0  0
 29 28  2  0  0  0  0
 30 27  1  0  0  0  0
 31 33  2  0  0  0  0
 32 30  2  0  0  0  0
 33 30  1  0  0  0  0
 34 28  1  0  0  0  0
M  END
>  <MODEL>
9

>  <REMARK>
 VINA RESULT:      -7.0      2.359      5.953
  Name = 
  3 active torsions:
  status: ('A' for Active; 'I' for Inactive)
    1  A    between atoms: C_12  and  C_28
    2  A    between atoms: C_13  and  C_29
    3  A    between atoms: C_21  and  C_28
                            x       y       z     vdW  Elec       q    Type
                         _______ _______ _______ _____ _____    ______ ____

>  <TORSDO>
F 3

$$$$
