=
 OpenBabel11052419303D

 55 61  0  0  1  0  0  0  0  0999 V2000
  195.5600  176.0680  142.7690 C   0  0  0  0  0  2  0  0  0  0  0  0
  192.5370  170.6180  143.0350 C   0  0  0  0  0  2  0  0  0  0  0  0
  191.0350  170.0110  139.5980 C   0  0  0  0  0  2  0  0  0  0  0  0
  190.9250  171.1530  136.7290 C   0  0  0  0  0  3  0  0  0  0  0  0
  191.4720  171.4690  135.4850 C   0  0  0  0  0  3  0  0  0  0  0  0
  192.3880  172.7680  137.7960 C   0  0  0  0  0  0  0  0  0  0  0  0
  192.9340  173.0790  136.5420 C   0  0  0  0  0  3  0  0  0  0  0  0
  189.4250  171.7390  139.2330 O   0  0  0  0  0  1  0  0  0  0  0  0
  192.4780  172.4310  135.3930 C   0  0  0  0  0  3  0  0  0  0  0  0
  191.3810  171.7950  137.8870 C   0  0  0  0  0  0  0  0  0  0  0  0
  195.1580  174.3520  144.2130 C   0  0  1  0  0  0  0  0  0  0  0  0
  194.7170  176.1050  140.4980 O   0  0  0  0  0  0  0  0  0  0  0  0
  196.1020  173.3140  143.6220 C   0  0  0  0  0  2  0  0  0  0  0  0
  193.8560  175.0060  140.4090 C   0  0  0  0  0  2  0  0  0  0  0  0
  194.4560  172.0820  141.7700 O   0  0  0  0  0  1  0  0  0  0  0  0
  192.8280  173.4070  138.9610 O   0  0  0  0  0  0  0  0  0  0  0  0
  192.5200  170.1320  141.5810 C   0  0  0  0  0  2  0  0  0  0  0  0
  191.0970  169.8780  141.1090 C   0  0  0  0  0  2  0  0  0  0  0  0
  192.5190  172.0890  143.1690 N   0  0  0  0  0  0  0  0  0  0  0  0
  195.7760  175.6670  141.3090 C   0  0  0  0  0  2  0  0  0  0  0  0
  190.7890  171.4620  139.2210 C   0  0  2  0  0  3  0  0  0  0  0  0
  194.5470  175.2750  143.3350 O   0  0  0  0  0  0  0  0  0  0  0  0
  193.7900  172.7420  142.8050 C   0  0  1  0  0  3  0  0  0  0  0  0
  193.8400  174.4110  139.0080 C   0  0  2  0  0  3  0  0  0  0  0  0
  194.6870  172.8990  144.0320 C   0  0  2  0  0  3  0  0  0  0  0  0
  195.1760  173.8160  138.6860 C   0  0  0  0  0  0  0  0  0  0  0  0
  196.8400  172.5610  138.6380 C   0  0  0  0  0  0  0  0  0  0  0  0
  196.0840  174.4170  137.9060 N   0  0  0  0  0  0  0  0  0  0  0  0
  197.1340  173.6190  137.8690 N   0  0  0  0  0  0  0  0  0  0  0  0
  195.6090  172.6380  139.1680 N   0  0  0  0  0  2  0  0  0  0  0  0
  197.7480  171.3890  138.8140 C   0  0  0  0  0  3  0  0  0  0  0  0
  197.5400  170.3890  137.6930 C   0  0  0  0  0  2  0  0  0  0  0  0
  196.9350  170.1320  139.0540 C   0  0  0  0  0  2  0  0  0  0  0  0
  191.4370  172.6980  142.3950 C   0  0  0  0  0  2  0  0  0  0  0  0
  191.0740  174.0540  142.9820 C   0  0  0  0  0  2  0  0  0  0  0  0
  190.1530  177.9490  144.5640 S   0  0  0  0  0  0  0  0  0  0  0  0
  188.8980  175.1250  142.3320 C   0  0  0  0  0  2  0  0  0  0  0  0
  188.6980  175.8490  145.0120 C   0  0  2  0  0  3  0  0  0  0  0  0
  189.5780  174.1380  143.2900 C   0  0  2  0  0  3  0  0  0  0  0  0
  189.3420  174.4800  144.7830 C   0  0  0  0  0  2  0  0  0  0  0  0
  189.2860  176.9060  144.0820 C   0  0  0  0  0  0  0  0  0  0  0  0
  189.3370  176.5730  142.6090 C   0  0  2  0  0  3  0  0  0  0  0  0
  188.8910  174.9830  147.3810 C   0  0  0  0  0  1  0  0  0  0  0  0
  187.1340  176.6800  146.8500 C   0  0  0  0  0  1  0  0  0  0  0  0
  188.5180  176.1630  146.5040 C   0  0  0  0  0  3  0  0  0  0  0  0
  188.4830  177.5420  141.8030 C   0  0  0  0  0  2  0  0  0  0  0  0
  187.2130  176.8480  141.3330 C   0  0  1  0  0  3  0  0  0  0  0  0
  185.9490  177.4030  141.9070 C   0  0  2  0  0  3  0  0  0  0  0  0
  186.4160  177.7690  140.6300 O   0  0  0  0  0  0  0  0  0  0  0  0
  186.1690  178.4520  142.8030 O   0  0  0  0  0  0  0  0  0  0  0  0
  185.2510  179.4300  144.7670 C   0  0  0  0  0  1  0  0  0  0  0  0
  185.1690  178.3080  143.7540 C   0  0  0  0  0  2  0  0  0  0  0  0
  195.3070  174.7520  145.6820 C   0  0  0  0  0  2  0  0  0  0  0  0
  194.5040  176.9670  146.3140 N   0  0  0  0  0  1  0  0  0  0  0  0
  194.1120  175.5750  146.1570 C   0  0  0  0  0  2  0  0  0  0  0  0
  1 22  1  0  0  0  0
  2 19  1  0  0  0  0
  3 18  1  0  0  0  0
  4 10  1  0  0  0  0
  5  4  2  0  0  0  0
  6 10  2  0  0  0  0
  6 16  1  0  0  0  0
  7  6  1  0  0  0  0
  9  5  1  0  0  0  0
  9  7  2  0  0  0  0
 10 21  1  0  0  0  0
 11 53  1  1  0  0  0
 12 20  1  0  0  0  0
 13 11  1  0  0  0  0
 14 12  1  0  0  0  0
 16 24  1  0  0  0  0
 17  2  1  0  0  0  0
 18 17  1  0  0  0  0
 20  1  1  0  0  0  0
 21  8  1  6  0  0  0
 21  3  1  0  0  0  0
 22 11  1  0  0  0  0
 23 15  1  6  0  0  0
 23 19  1  0  0  0  0
 23 25  1  0  0  0  0
 24 26  1  1  0  0  0
 24 14  1  0  0  0  0
 25 13  1  6  0  0  0
 25 11  1  0  0  0  0
 26 30  1  0  0  0  0
 27 31  1  0  0  0  0
 27 30  1  0  0  0  0
 28 26  2  0  0  0  0
 29 28  1  0  0  0  0
 29 27  2  0  0  0  0
 31 33  1  0  0  0  0
 32 31  1  0  0  0  0
 32 33  1  0  0  0  0
 34 35  1  0  0  0  0
 34 19  1  0  0  0  0
 37 42  1  0  0  0  0
 37 39  1  0  0  0  0
 38 45  1  1  0  0  0
 39 35  1  1  0  0  0
 39 40  1  0  0  0  0
 40 38  1  0  0  0  0
 41 36  2  0  0  0  0
 41 38  1  0  0  0  0
 42 46  1  6  0  0  0
 42 41  1  0  0  0  0
 45 44  1  0  0  0  0
 45 43  1  0  0  0  0
 47 46  1  1  0  0  0
 47 48  1  0  0  0  0
 48 50  1  1  0  0  0
 49 47  1  0  0  0  0
 49 48  1  0  0  0  0
 50 52  1  0  0  0  0
 52 51  1  0  0  0  0
 53 55  1  0  0  0  0
 55 54  1  0  0  0  0
M  END
>  <MODEL>
1

>  <REMARK>
 VINA RESULT:      -7.2      0.000      0.000
  Name = 
  12 active torsions:
  status: ('A' for Active; 'I' for Inactive)
    1  A    between atoms: C_3  and  C_21
    2  A    between atoms: C_6  and  O_25
    3  A    between atoms: C_8  and  C_20
    4  A    between atoms: C_8  and  C_22
    5  A    between atoms: C_10  and  C_32
    6  A    between atoms: C_12  and  C_50
    7  A    between atoms: C_13  and  C_52
    8  A    between atoms: C_21  and  C_53
    9  A    between atoms: C_22  and  N_43
   10  A    between atoms: O_25  and  C_38
   11  A    between atoms: C_27  and  C_55
   12  A    between atoms: C_41  and  C_55
                            x       y       z     vdW  Elec       q    Type
                         _______ _______ _______ _____ _____    ______ ____

>  <TORSDO>
F 12

$$$$
=
 OpenBabel11052419303D

 55 61  0  0  1  0  0  0  0  0999 V2000
  189.7710  177.8750  142.5870 C   0  0  0  0  0  2  0  0  0  0  0  0
  190.2050  171.6750  143.1260 C   0  0  0  0  0  2  0  0  0  0  0  0
  193.8900  170.8500  143.5350 C   0  0  0  0  0  2  0  0  0  0  0  0
  196.6760  172.1460  143.8600 C   0  0  0  0  0  3  0  0  0  0  0  0
  197.6470  172.8720  144.5510 C   0  0  0  0  0  3  0  0  0  0  0  0
  195.2780  174.1240  143.7240 C   0  0  0  0  0  0  0  0  0  0  0  0
  196.2580  174.8460  144.4200 C   0  0  0  0  0  3  0  0  0  0  0  0
  194.9730  171.4990  141.5050 O   0  0  0  0  0  1  0  0  0  0  0  0
  197.4350  174.2210  144.8320 C   0  0  0  0  0  3  0  0  0  0  0  0
  195.4890  172.7640  143.4480 C   0  0  0  0  0  0  0  0  0  0  0  0
  188.4460  176.0250  142.6900 C   0  0  1  0  0  0  0  0  0  0  0  0
  192.1870  177.7750  142.7350 O   0  0  0  0  0  0  0  0  0  0  0  0
  188.5520  175.7350  144.1810 C   0  0  0  0  0  2  0  0  0  0  0  0
  192.5010  176.4120  142.7030 C   0  0  0  0  0  2  0  0  0  0  0  0
  190.7770  174.0900  144.2520 O   0  0  0  0  0  1  0  0  0  0  0  0
  194.0900  174.7300  143.2980 O   0  0  0  0  0  0  0  0  0  0  0  0
  191.5130  171.4600  143.8940 C   0  0  0  0  0  2  0  0  0  0  0  0
  192.4610  170.5620  143.1150 C   0  0  0  0  0  2  0  0  0  0  0  0
  190.2090  172.8800  142.2710 N   0  0  0  0  0  0  0  0  0  0  0  0
  191.0060  177.8550  143.4900 C   0  0  0  0  0  2  0  0  0  0  0  0
  194.4510  171.9880  142.7000 C   0  0  2  0  0  3  0  0  0  0  0  0
  189.5610  176.5970  142.0400 O   0  0  0  0  0  0  0  0  0  0  0  0
  190.1240  174.1480  143.0180 C   0  0  1  0  0  3  0  0  0  0  0  0
  193.7520  176.0990  143.5120 C   0  0  2  0  0  3  0  0  0  0  0  0
  188.6680  174.5830  143.1790 C   0  0  2  0  0  3  0  0  0  0  0  0
  193.5000  176.3500  144.9670 C   0  0  0  0  0  0  0  0  0  0  0  0
  192.6210  176.4100  146.8570 C   0  0  0  0  0  0  0  0  0  0  0  0
  194.3260  177.0570  145.7480 N   0  0  0  0  0  0  0  0  0  0  0  0
  193.7740  177.0890  146.9470 N   0  0  0  0  0  0  0  0  0  0  0  0
  192.4110  175.9180  145.6250 N   0  0  0  0  0  2  0  0  0  0  0  0
  191.7180  176.1590  148.0180 C   0  0  0  0  0  3  0  0  0  0  0  0
  190.5570  175.2780  147.6000 C   0  0  0  0  0  2  0  0  0  0  0  0
  190.3530  176.7670  147.7560 C   0  0  0  0  0  2  0  0  0  0  0  0
  191.3790  172.9260  141.3940 C   0  0  0  0  0  2  0  0  0  0  0  0
  190.9390  172.9350  139.9370 C   0  0  0  0  0  2  0  0  0  0  0  0
  191.8560  174.4400  136.0110 S   0  0  0  0  0  0  0  0  0  0  0  0
  193.1220  172.2780  138.8840 C   0  0  0  0  0  2  0  0  0  0  0  0
  191.6450  171.9130  136.5540 C   0  0  2  0  0  3  0  0  0  0  0  0
  191.6690  171.8550  139.1360 C   0  0  2  0  0  3  0  0  0  0  0  0
  190.8980  171.5240  137.8320 C   0  0  0  0  0  2  0  0  0  0  0  0
  192.3310  173.2670  136.6980 C   0  0  0  0  0  0  0  0  0  0  0  0
  193.2040  173.4700  137.9140 C   0  0  2  0  0  3  0  0  0  0  0  0
  189.3400  171.5570  135.5720 C   0  0  0  0  0  1  0  0  0  0  0  0
  191.2840  170.3430  134.5740 C   0  0  0  0  0  1  0  0  0  0  0  0
  190.8300  171.6010  135.2900 C   0  0  0  0  0  3  0  0  0  0  0  0
  194.6500  173.7180  137.5100 C   0  0  0  0  0  2  0  0  0  0  0  0
  195.1140  175.0660  138.0400 C   0  0  1  0  0  3  0  0  0  0  0  0
  196.2370  174.9980  139.0250 C   0  0  2  0  0  3  0  0  0  0  0  0
  196.4510  175.2770  137.6620 O   0  0  0  0  0  0  0  0  0  0  0  0
  196.6420  173.6900  139.3030 O   0  0  0  0  0  0  0  0  0  0  0  0
  197.4360  175.2270  140.9340 C   0  0  0  0  0  1  0  0  0  0  0  0
  197.4930  173.8160  140.3910 C   0  0  0  0  0  2  0  0  0  0  0  0
  187.0660  176.2350  142.0640 C   0  0  0  0  0  2  0  0  0  0  0  0
  186.2690  178.3780  142.9120 N   0  0  0  0  0  1  0  0  0  0  0  0
  186.1180  176.9370  143.0320 C   0  0  0  0  0  2  0  0  0  0  0  0
  1 20  1  0  0  0  0
  2 17  1  0  0  0  0
  4  5  1  0  0  0  0
  5  9  2  0  0  0  0
  6  7  2  0  0  0  0
  7  9  1  0  0  0  0
 10  6  1  0  0  0  0
 10  4  2  0  0  0  0
 11 53  1  6  0  0  0
 11 25  1  0  0  0  0
 11 13  1  0  0  0  0
 12 20  1  0  0  0  0
 14 12  1  0  0  0  0
 14 24  1  0  0  0  0
 16 24  1  0  0  0  0
 16  6  1  0  0  0  0
 18  3  1  0  0  0  0
 18 17  1  0  0  0  0
 19 23  1  0  0  0  0
 19  2  1  0  0  0  0
 21  8  1  6  0  0  0
 21 10  1  0  0  0  0
 21  3  1  0  0  0  0
 22  1  1  0  0  0  0
 22 11  1  0  0  0  0
 23 25  1  0  0  0  0
 23 15  1  1  0  0  0
 24 26  1  1  0  0  0
 25 13  1  1  0  0  0
 26 30  1  0  0  0  0
 26 28  2  0  0  0  0
 27 29  2  0  0  0  0
 27 31  1  0  0  0  0
 28 29  1  0  0  0  0
 30 27  1  0  0  0  0
 32 33  1  0  0  0  0
 32 31  1  0  0  0  0
 33 31  1  0  0  0  0
 34 19  1  0  0  0  0
 35 34  1  0  0  0  0
 36 41  2  0  0  0  0
 37 39  1  0  0  0  0
 38 45  1  6  0  0  0
 38 41  1  0  0  0  0
 38 40  1  0  0  0  0
 39 35  1  6  0  0  0
 40 39  1  0  0  0  0
 41 42  1  0  0  0  0
 42 46  1  6  0  0  0
 42 37  1  0  0  0  0
 44 45  1  0  0  0  0
 45 43  1  0  0  0  0
 47 46  1  6  0  0  0
 47 48  1  0  0  0  0
 48 50  1  6  0  0  0
 49 47  1  0  0  0  0
 49 48  1  0  0  0  0
 50 52  1  0  0  0  0
 52 51  1  0  0  0  0
 53 55  1  0  0  0  0
 54 55  1  0  0  0  0
M  END
>  <MODEL>
2

>  <REMARK>
 VINA RESULT:      -6.9      2.968      8.443
  Name = 
  12 active torsions:
  status: ('A' for Active; 'I' for Inactive)
    1  A    between atoms: C_3  and  C_21
    2  A    between atoms: C_6  and  O_25
    3  A    between atoms: C_8  and  C_20
    4  A    between atoms: C_8  and  C_22
    5  A    between atoms: C_10  and  C_32
    6  A    between atoms: C_12  and  C_50
    7  A    between atoms: C_13  and  C_52
    8  A    between atoms: C_21  and  C_53
    9  A    between atoms: C_22  and  N_43
   10  A    between atoms: O_25  and  C_38
   11  A    between atoms: C_27  and  C_55
   12  A    between atoms: C_41  and  C_55
                            x       y       z     vdW  Elec       q    Type
                         _______ _______ _______ _____ _____    ______ ____

>  <TORSDO>
F 12

$$$$
=
 OpenBabel11052419303D

 55 61  0  0  1  0  0  0  0  0999 V2000
  195.7020  174.4530  143.0500 C   0  0  0  0  0  2  0  0  0  0  0  0
  191.1430  170.6800  141.0730 C   0  0  0  0  0  2  0  0  0  0  0  0
  190.0250  171.9730  137.6800 C   0  0  0  0  0  2  0  0  0  0  0  0
  190.6740  174.0850  135.5190 C   0  0  0  0  0  3  0  0  0  0  0  0
  191.4590  174.6460  134.5130 C   0  0  0  0  0  3  0  0  0  0  0  0
  192.3980  174.5760  137.1550 C   0  0  0  0  0  0  0  0  0  0  0  0
  193.1820  175.1360  136.1370 C   0  0  0  0  0  3  0  0  0  0  0  0
  189.0910  174.1440  138.0410 O   0  0  0  0  0  1  0  0  0  0  0  0
  192.7140  175.1690  134.8220 C   0  0  0  0  0  3  0  0  0  0  0  0
  191.1380  174.0430  136.8400 C   0  0  0  0  0  0  0  0  0  0  0  0
  194.5940  172.5630  143.6730 C   0  0  1  0  0  0  0  0  0  0  0  0
  195.2370  175.6340  140.9860 O   0  0  0  0  0  0  0  0  0  0  0  0
  195.2460  171.5750  142.7150 C   0  0  0  0  0  2  0  0  0  0  0  0
  194.1010  175.0130  140.4560 C   0  0  0  0  0  2  0  0  0  0  0  0
  193.5770  171.7750  140.5170 O   0  0  0  0  0  1  0  0  0  0  0  0
  192.8450  174.5340  138.4810 O   0  0  0  0  0  0  0  0  0  0  0  0
  191.1820  170.8210  139.5470 C   0  0  0  0  0  2  0  0  0  0  0  0
  189.8310  171.2630  139.0070 C   0  0  0  0  0  2  0  0  0  0  0  0
  191.5600  171.9020  141.7920 N   0  0  0  0  0  0  0  0  0  0  0  0
  195.9860  174.5910  141.5530 C   0  0  0  0  0  2  0  0  0  0  0  0
  190.2920  173.4480  137.9230 C   0  0  2  0  0  3  0  0  0  0  0  0
  194.4250  173.8970  143.2430 O   0  0  0  0  0  0  0  0  0  0  0  0
  193.0080  172.1730  141.7280 C   0  0  1  0  0  3  0  0  0  0  0  0
  194.0990  175.0390  138.9340 C   0  0  2  0  0  3  0  0  0  0  0  0
  193.7290  171.5390  142.9170 C   0  0  2  0  0  3  0  0  0  0  0  0
  195.2190  174.1970  138.4030 C   0  0  0  0  0  0  0  0  0  0  0  0
  196.4290  172.5760  137.8990 C   0  0  0  0  0  0  0  0  0  0  0  0
  196.3300  174.7070  137.8560 N   0  0  0  0  0  0  0  0  0  0  0  0
  197.0930  173.6810  137.5300 N   0  0  0  0  0  0  0  0  0  0  0  0
  195.2350  172.8550  138.4480 N   0  0  0  0  0  2  0  0  0  0  0  0
  196.9250  171.1910  137.6490 C   0  0  0  0  0  3  0  0  0  0  0  0
  196.4670  170.7060  136.2870 C   0  0  0  0  0  2  0  0  0  0  0  0
  195.7560  170.2320  137.5340 C   0  0  0  0  0  2  0  0  0  0  0  0
  190.8370  173.0860  141.3280 C   0  0  0  0  0  2  0  0  0  0  0  0
  191.0840  174.2520  142.2730 C   0  0  0  0  0  2  0  0  0  0  0  0
  190.4610  177.9530  144.3790 S   0  0  0  0  0  0  0  0  0  0  0  0
  189.0790  174.4530  143.7720 C   0  0  0  0  0  2  0  0  0  0  0  0
  190.8130  175.6780  145.5720 C   0  0  2  0  0  3  0  0  0  0  0  0
  190.5270  173.9570  143.6680 C   0  0  2  0  0  3  0  0  0  0  0  0
  191.4520  174.5460  144.7630 C   0  0  0  0  0  2  0  0  0  0  0  0
  190.0110  176.6190  144.6790 C   0  0  0  0  0  0  0  0  0  0  0  0
  189.0050  175.9890  143.7450 C   0  0  2  0  0  3  0  0  0  0  0  0
  193.1380  175.5920  146.5670 C   0  0  0  0  0  1  0  0  0  0  0  0
  191.2160  176.2370  148.0300 C   0  0  0  0  0  1  0  0  0  0  0  0
  191.7750  176.2560  146.6190 C   0  0  0  0  0  3  0  0  0  0  0  0
  187.5920  176.4510  144.0760 C   0  0  0  0  0  2  0  0  0  0  0  0
  186.8930  176.9310  142.8130 C   0  0  1  0  0  3  0  0  0  0  0  0
  186.3240  178.3110  142.9000 C   0  0  2  0  0  3  0  0  0  0  0  0
  187.5730  178.0510  142.3050 O   0  0  0  0  0  0  0  0  0  0  0  0
  186.5170  178.9040  144.1510 O   0  0  0  0  0  0  0  0  0  0  0  0
  184.5500  178.8900  145.4870 C   0  0  0  0  0  1  0  0  0  0  0  0
  185.3330  179.5860  144.3950 C   0  0  0  0  0  2  0  0  0  0  0  0
  194.6510  172.2970  145.1780 C   0  0  0  0  0  2  0  0  0  0  0  0
  196.8090  171.8250  146.2110 N   0  0  0  0  0  1  0  0  0  0  0  0
  195.6840  171.2250  145.5130 C   0  0  0  0  0  2  0  0  0  0  0  0
  1 22  1  0  0  0  0
  2 19  1  0  0  0  0
  3 21  1  0  0  0  0
  3 18  1  0  0  0  0
  4 10  1  0  0  0  0
  5  9  1  0  0  0  0
  5  4  2  0  0  0  0
  6 16  1  0  0  0  0
  7  6  1  0  0  0  0
  9  7  2  0  0  0  0
 10  6  2  0  0  0  0
 10 21  1  0  0  0  0
 11 53  1  1  0  0  0
 12 20  1  0  0  0  0
 13 11  1  0  0  0  0
 14 12  1  0  0  0  0
 16 24  1  0  0  0  0
 17  2  1  0  0  0  0
 18 17  1  0  0  0  0
 20  1  1  0  0  0  0
 21  8  1  6  0  0  0
 22 11  1  0  0  0  0
 23 15  1  6  0  0  0
 23 19  1  0  0  0  0
 23 25  1  0  0  0  0
 24 26  1  6  0  0  0
 24 14  1  0  0  0  0
 25 13  1  6  0  0  0
 25 11  1  0  0  0  0
 26 30  1  0  0  0  0
 27 30  1  0  0  0  0
 28 26  2  0  0  0  0
 29 28  1  0  0  0  0
 29 27  2  0  0  0  0
 31 27  1  0  0  0  0
 32 33  1  0  0  0  0
 32 31  1  0  0  0  0
 33 31  1  0  0  0  0
 34 19  1  0  0  0  0
 34 35  1  0  0  0  0
 36 41  2  0  0  0  0
 38 45  1  6  0  0  0
 39 35  1  6  0  0  0
 39 37  1  0  0  0  0
 39 40  1  0  0  0  0
 40 38  1  0  0  0  0
 41 38  1  0  0  0  0
 42 37  1  0  0  0  0
 42 46  1  1  0  0  0
 42 41  1  0  0  0  0
 43 45  1  0  0  0  0
 45 44  1  0  0  0  0
 47 48  1  0  0  0  0
 47 46  1  1  0  0  0
 48 50  1  1  0  0  0
 49 47  1  0  0  0  0
 49 48  1  0  0  0  0
 50 52  1  0  0  0  0
 52 51  1  0  0  0  0
 53 55  1  0  0  0  0
 55 54  1  0  0  0  0
M  END
>  <MODEL>
3

>  <REMARK>
 VINA RESULT:      -6.7      1.669      2.224
  Name = 
  12 active torsions:
  status: ('A' for Active; 'I' for Inactive)
    1  A    between atoms: C_3  and  C_21
    2  A    between atoms: C_6  and  O_25
    3  A    between atoms: C_8  and  C_20
    4  A    between atoms: C_8  and  C_22
    5  A    between atoms: C_10  and  C_32
    6  A    between atoms: C_12  and  C_50
    7  A    between atoms: C_13  and  C_52
    8  A    between atoms: C_21  and  C_53
    9  A    between atoms: C_22  and  N_43
   10  A    between atoms: O_25  and  C_38
   11  A    between atoms: C_27  and  C_55
   12  A    between atoms: C_41  and  C_55
                            x       y       z     vdW  Elec       q    Type
                         _______ _______ _______ _____ _____    ______ ____

>  <TORSDO>
F 12

$$$$
=
 OpenBabel11052419303D

 55 61  0  0  1  0  0  0  0  0999 V2000
  189.7090  177.9820  142.5920 C   0  0  0  0  0  2  0  0  0  0  0  0
  189.9280  171.7830  143.2630 C   0  0  0  0  0  2  0  0  0  0  0  0
  193.5810  170.8420  143.7110 C   0  0  0  0  0  2  0  0  0  0  0  0
  196.4080  172.0490  144.0240 C   0  0  0  0  0  3  0  0  0  0  0  0
  197.4000  172.7560  144.7050 C   0  0  0  0  0  3  0  0  0  0  0  0
  195.0790  174.0700  143.8380 C   0  0  0  0  0  0  0  0  0  0  0  0
  196.0790  174.7720  144.5250 C   0  0  0  0  0  3  0  0  0  0  0  0
  194.6960  171.4100  141.6740 O   0  0  0  0  0  1  0  0  0  0  0  0
  197.2330  174.1170  144.9560 C   0  0  0  0  0  3  0  0  0  0  0  0
  195.2450  172.6980  143.5920 C   0  0  0  0  0  0  0  0  0  0  0  0
  188.3210  176.1800  142.7260 C   0  0  1  0  0  0  0  0  0  0  0  0
  192.1200  177.8020  142.7550 O   0  0  0  0  0  0  0  0  0  0  0  0
  188.4100  175.9190  144.2230 C   0  0  0  0  0  2  0  0  0  0  0  0
  192.3870  176.4290  142.7530 C   0  0  0  0  0  2  0  0  0  0  0  0
  190.5770  174.2010  144.3410 O   0  0  0  0  0  1  0  0  0  0  0  0
  193.9140  174.7070  143.3930 O   0  0  0  0  0  0  0  0  0  0  0  0
  191.2250  171.5400  144.0430 C   0  0  0  0  0  2  0  0  0  0  0  0
  192.1440  170.5940  143.2880 C   0  0  0  0  0  2  0  0  0  0  0  0
  189.9770  172.9690  142.3830 N   0  0  0  0  0  0  0  0  0  0  0  0
  190.9380  177.9380  143.5020 C   0  0  0  0  0  2  0  0  0  0  0  0
  194.1840  171.9420  142.8550 C   0  0  2  0  0  3  0  0  0  0  0  0
  189.4580  176.7000  142.0700 O   0  0  0  0  0  0  0  0  0  0  0  0
  189.9320  174.2550  143.1030 C   0  0  1  0  0  3  0  0  0  0  0  0
  193.6220  176.0910  143.5760 C   0  0  2  0  0  3  0  0  0  0  0  0
  188.4920  174.7430  143.2460 C   0  0  2  0  0  3  0  0  0  0  0  0
  193.3720  176.3810  145.0240 C   0  0  0  0  0  0  0  0  0  0  0  0
  192.4900  176.5040  146.9090 C   0  0  0  0  0  0  0  0  0  0  0  0
  194.2110  177.0890  145.7910 N   0  0  0  0  0  0  0  0  0  0  0  0
  193.6570  177.1610  146.9870 N   0  0  0  0  0  0  0  0  0  0  0  0
  192.2730  175.9870  145.6890 N   0  0  0  0  0  2  0  0  0  0  0  0
  191.5780  176.2990  148.0730 C   0  0  0  0  0  3  0  0  0  0  0  0
  190.4140  177.2680  148.0060 C   0  0  0  0  0  2  0  0  0  0  0  0
  191.5650  177.5380  148.9480 C   0  0  0  0  0  2  0  0  0  0  0  0
  191.1530  172.9570  141.5120 C   0  0  0  0  0  2  0  0  0  0  0  0
  190.7230  172.8420  140.0570 C   0  0  0  0  0  2  0  0  0  0  0  0
  190.9520  174.5460  136.1110 S   0  0  0  0  0  0  0  0  0  0  0  0
  192.9690  172.9860  138.9440 C   0  0  0  0  0  2  0  0  0  0  0  0
  191.6560  172.1090  136.6530 C   0  0  2  0  0  3  0  0  0  0  0  0
  191.7650  172.0820  139.2330 C   0  0  2  0  0  3  0  0  0  0  0  0
  191.1260  171.4920  137.9500 C   0  0  0  0  0  2  0  0  0  0  0  0
  191.8260  173.6190  136.7830 C   0  0  0  0  0  0  0  0  0  0  0  0
  192.6030  174.1240  137.9760 C   0  0  2  0  0  3  0  0  0  0  0  0
  189.4990  171.2440  135.6520 C   0  0  0  0  0  1  0  0  0  0  0  0
  191.6710  170.2970  134.8570 C   0  0  0  0  0  1  0  0  0  0  0  0
  190.9700  171.5230  135.4110 C   0  0  0  0  0  3  0  0  0  0  0  0
  193.8590  174.8620  137.5350 C   0  0  0  0  0  2  0  0  0  0  0  0
  194.7380  173.9400  136.7020 C   0  0  1  0  0  3  0  0  0  0  0  0
  195.9390  174.5970  136.1010 C   0  0  2  0  0  3  0  0  0  0  0  0
  196.0100  173.8540  137.2950 O   0  0  0  0  0  0  0  0  0  0  0  0
  196.0210  175.9600  136.3930 O   0  0  0  0  0  0  0  0  0  0  0  0
  196.0670  177.5440  134.6200 C   0  0  0  0  0  1  0  0  0  0  0  0
  196.8230  176.4810  135.3880 C   0  0  0  0  0  2  0  0  0  0  0  0
  186.9520  176.4240  142.0870 C   0  0  0  0  0  2  0  0  0  0  0  0
  186.2130  178.6090  142.8790 N   0  0  0  0  0  1  0  0  0  0  0  0
  186.0230  177.1760  143.0360 C   0  0  0  0  0  2  0  0  0  0  0  0
  1 20  1  0  0  0  0
  2 17  1  0  0  0  0
  4  5  1  0  0  0  0
  5  9  2  0  0  0  0
  6  7  2  0  0  0  0
  7  9  1  0  0  0  0
 10  6  1  0  0  0  0
 10  4  2  0  0  0  0
 11 53  1  6  0  0  0
 11 25  1  0  0  0  0
 11 13  1  0  0  0  0
 12 20  1  0  0  0  0
 14 12  1  0  0  0  0
 14 24  1  0  0  0  0
 16 24  1  0  0  0  0
 16  6  1  0  0  0  0
 18  3  1  0  0  0  0
 18 17  1  0  0  0  0
 19 23  1  0  0  0  0
 19  2  1  0  0  0  0
 21  8  1  6  0  0  0
 21 10  1  0  0  0  0
 21  3  1  0  0  0  0
 22  1  1  0  0  0  0
 22 11  1  0  0  0  0
 23 25  1  0  0  0  0
 23 15  1  1  0  0  0
 24 26  1  1  0  0  0
 25 13  1  1  0  0  0
 26 30  1  0  0  0  0
 26 28  2  0  0  0  0
 27 29  2  0  0  0  0
 27 31  1  0  0  0  0
 28 29  1  0  0  0  0
 30 27  1  0  0  0  0
 31 33  1  0  0  0  0
 32 31  1  0  0  0  0
 32 33  1  0  0  0  0
 34 19  1  0  0  0  0
 35 34  1  0  0  0  0
 36 41  2  0  0  0  0
 37 39  1  0  0  0  0
 38 45  1  6  0  0  0
 38 41  1  0  0  0  0
 38 40  1  0  0  0  0
 39 35  1  6  0  0  0
 40 39  1  0  0  0  0
 41 42  1  0  0  0  0
 42 46  1  6  0  0  0
 42 37  1  0  0  0  0
 44 45  1  0  0  0  0
 45 43  1  0  0  0  0
 47 49  1  0  0  0  0
 47 46  1  1  0  0  0
 48 50  1  1  0  0  0
 48 47  1  0  0  0  0
 48 49  1  0  0  0  0
 51 52  1  0  0  0  0
 52 50  1  0  0  0  0
 53 55  1  0  0  0  0
 54 55  1  0  0  0  0
M  END
>  <MODEL>
4

>  <REMARK>
 VINA RESULT:      -6.7      3.111      8.593
  Name = 
  12 active torsions:
  status: ('A' for Active; 'I' for Inactive)
    1  A    between atoms: C_3  and  C_21
    2  A    between atoms: C_6  and  O_25
    3  A    between atoms: C_8  and  C_20
    4  A    between atoms: C_8  and  C_22
    5  A    between atoms: C_10  and  C_32
    6  A    between atoms: C_12  and  C_50
    7  A    between atoms: C_13  and  C_52
    8  A    between atoms: C_21  and  C_53
    9  A    between atoms: C_22  and  N_43
   10  A    between atoms: O_25  and  C_38
   11  A    between atoms: C_27  and  C_55
   12  A    between atoms: C_41  and  C_55
                            x       y       z     vdW  Elec       q    Type
                         _______ _______ _______ _____ _____    ______ ____

>  <TORSDO>
F 12

$$$$
=
 OpenBabel11052419303D

 55 61  0  0  1  0  0  0  0  0999 V2000
  190.6150  170.5080  138.8680 C   0  0  0  0  0  2  0  0  0  0  0  0
  193.5700  175.3080  141.5420 C   0  0  0  0  0  2  0  0  0  0  0  0
  195.5420  173.9080  144.4710 C   0  0  0  0  0  2  0  0  0  0  0  0
  196.3210  171.2640  145.8690 C   0  0  0  0  0  3  0  0  0  0  0  0
  196.9830  170.0380  145.9510 C   0  0  0  0  0  3  0  0  0  0  0  0
  194.9610  170.4200  144.0450 C   0  0  0  0  0  0  0  0  0  0  0  0
  195.6320  169.1920  144.1330 C   0  0  0  0  0  3  0  0  0  0  0  0
  193.9470  173.0520  146.0330 O   0  0  0  0  0  1  0  0  0  0  0  0
  196.6390  169.0040  145.0810 C   0  0  0  0  0  3  0  0  0  0  0  0
  195.3140  171.4620  144.9160 C   0  0  0  0  0  0  0  0  0  0  0  0
  190.9310  172.7470  138.5960 C   0  0  1  0  0  0  0  0  0  0  0  0
  191.6390  169.2430  140.6630 O   0  0  0  0  0  0  0  0  0  0  0  0
  192.3530  172.7260  138.0520 C   0  0  0  0  0  2  0  0  0  0  0  0
  192.2370  170.1980  141.4920 C   0  0  0  0  0  2  0  0  0  0  0  0
  193.8250  172.8500  140.3920 O   0  0  0  0  0  1  0  0  0  0  0  0
  193.9460  170.6310  143.1040 O   0  0  0  0  0  0  0  0  0  0  0  0
  194.7740  174.6610  142.2370 C   0  0  0  0  0  2  0  0  0  0  0  0
  194.7830  174.9870  143.7220 C   0  0  0  0  0  2  0  0  0  0  0  0
  192.3860  174.4280  141.4650 N   0  0  0  0  0  0  0  0  0  0  0  0
  191.8340  169.7240  139.3590 C   0  0  0  0  0  2  0  0  0  0  0  0
  194.5980  172.7740  144.8330 C   0  0  2  0  0  3  0  0  0  0  0  0
  190.5550  171.7510  139.5230 O   0  0  0  0  0  0  0  0  0  0  0  0
  192.5160  173.3280  140.4920 C   0  0  1  0  0  3  0  0  0  0  0  0
  193.4920  169.6590  142.1650 C   0  0  2  0  0  3  0  0  0  0  0  0
  191.9720  173.7470  139.1270 C   0  0  2  0  0  3  0  0  0  0  0  0
  194.5520  169.3940  141.1400 C   0  0  0  0  0  0  0  0  0  0  0  0
  196.0450  169.6410  139.7060 C   0  0  0  0  0  0  0  0  0  0  0  0
  194.8570  168.1680  140.6940 N   0  0  0  0  0  0  0  0  0  0  0  0
  195.8080  168.3240  139.7920 N   0  0  0  0  0  0  0  0  0  0  0  0
  195.2800  170.3550  140.5470 N   0  0  0  0  0  2  0  0  0  0  0  0
  197.1020  170.2350  138.8360 C   0  0  0  0  0  3  0  0  0  0  0  0
  196.4920  170.7560  137.5490 C   0  0  0  0  0  2  0  0  0  0  0  0
  197.2290  169.4370  137.5530 C   0  0  0  0  0  2  0  0  0  0  0  0
  192.0340  173.8660  142.7690 C   0  0  0  0  0  2  0  0  0  0  0  0
  190.6780  173.1810  142.6930 C   0  0  0  0  0  2  0  0  0  0  0  0
  190.9140  177.4670  142.9980 S   0  0  0  0  0  0  0  0  0  0  0  0
  188.5840  174.4590  143.2260 C   0  0  0  0  0  2  0  0  0  0  0  0
  190.1800  175.9380  144.9600 C   0  0  2  0  0  3  0  0  0  0  0  0
  189.7550  173.6630  143.8140 C   0  0  2  0  0  3  0  0  0  0  0  0
  190.5540  174.4560  144.8800 C   0  0  0  0  0  2  0  0  0  0  0  0
  189.9750  176.5380  143.5730 C   0  0  0  0  0  0  0  0  0  0  0  0
  189.0520  175.7990  142.6330 C   0  0  2  0  0  3  0  0  0  0  0  0
  192.2820  175.9350  146.3680 C   0  0  0  0  0  1  0  0  0  0  0  0
  190.2390  177.0800  147.2420 C   0  0  0  0  0  1  0  0  0  0  0  0
  191.0200  176.6930  146.0010 C   0  0  0  0  0  3  0  0  0  0  0  0
  187.8500  176.6580  142.2660 C   0  0  0  0  0  2  0  0  0  0  0  0
  186.5760  176.0290  142.8100 C   0  0  1  0  0  3  0  0  0  0  0  0
  185.9700  176.7500  143.9720 C   0  0  2  0  0  3  0  0  0  0  0  0
  185.5100  176.9320  142.6530 O   0  0  0  0  0  0  0  0  0  0  0  0
  186.7090  177.8670  144.3680 O   0  0  0  0  0  0  0  0  0  0  0  0
  185.6660  177.0370  146.3370 C   0  0  0  0  0  1  0  0  0  0  0  0
  186.8870  177.6970  145.7330 C   0  0  0  0  0  2  0  0  0  0  0  0
  189.8250  173.4180  137.7780 C   0  0  0  0  0  2  0  0  0  0  0  0
  188.2620  174.4880  139.3130 N   0  0  0  0  0  1  0  0  0  0  0  0
  188.4750  173.3150  138.4810 C   0  0  0  0  0  2  0  0  0  0  0  0
  1 20  1  0  0  0  0
  1 22  1  0  0  0  0
  2 17  1  0  0  0  0
  3 21  1  0  0  0  0
  4  5  1  0  0  0  0
  6  7  2  0  0  0  0
  6 10  1  0  0  0  0
  7  9  1  0  0  0  0
  9  5  2  0  0  0  0
 10  4  2  0  0  0  0
 11 53  1  6  0  0  0
 11 25  1  0  0  0  0
 11 22  1  0  0  0  0
 12 14  1  0  0  0  0
 13 11  1  0  0  0  0
 14 24  1  0  0  0  0
 16  6  1  0  0  0  0
 17 18  1  0  0  0  0
 18  3  1  0  0  0  0
 19  2  1  0  0  0  0
 19 34  1  0  0  0  0
 20 12  1  0  0  0  0
 21 10  1  0  0  0  0
 21  8  1  1  0  0  0
 23 15  1  6  0  0  0
 23 19  1  0  0  0  0
 24 26  1  6  0  0  0
 24 16  1  0  0  0  0
 25 13  1  6  0  0  0
 25 23  1  0  0  0  0
 27 29  2  0  0  0  0
 27 30  1  0  0  0  0
 28 26  2  0  0  0  0
 29 28  1  0  0  0  0
 30 26  1  0  0  0  0
 31 27  1  0  0  0  0
 32 33  1  0  0  0  0
 32 31  1  0  0  0  0
 33 31  1  0  0  0  0
 35 34  1  0  0  0  0
 36 41  2  0  0  0  0
 37 39  1  0  0  0  0
 38 45  1  6  0  0  0
 39 35  1  6  0  0  0
 39 40  1  0  0  0  0
 40 38  1  0  0  0  0
 41 38  1  0  0  0  0
 42 46  1  1  0  0  0
 42 37  1  0  0  0  0
 42 41  1  0  0  0  0
 45 43  1  0  0  0  0
 45 44  1  0  0  0  0
 47 46  1  6  0  0  0
 47 48  1  0  0  0  0
 48 50  1  6  0  0  0
 49 47  1  0  0  0  0
 49 48  1  0  0  0  0
 50 52  1  0  0  0  0
 52 51  1  0  0  0  0
 53 55  1  0  0  0  0
 55 54  1  0  0  0  0
M  END
>  <MODEL>
5

>  <REMARK>
 VINA RESULT:      -6.6      2.277      5.718
  Name = 
  12 active torsions:
  status: ('A' for Active; 'I' for Inactive)
    1  A    between atoms: C_3  and  C_21
    2  A    between atoms: C_6  and  O_25
    3  A    between atoms: C_8  and  C_20
    4  A    between atoms: C_8  and  C_22
    5  A    between atoms: C_10  and  C_32
    6  A    between atoms: C_12  and  C_50
    7  A    between atoms: C_13  and  C_52
    8  A    between atoms: C_21  and  C_53
    9  A    between atoms: C_22  and  N_43
   10  A    between atoms: O_25  and  C_38
   11  A    between atoms: C_27  and  C_55
   12  A    between atoms: C_41  and  C_55
                            x       y       z     vdW  Elec       q    Type
                         _______ _______ _______ _____ _____    ______ ____

>  <TORSDO>
F 12

$$$$
=
 OpenBabel11052419303D

 55 61  0  0  1  0  0  0  0  0999 V2000
  190.8850  169.4210  140.5080 C   0  0  0  0  0  2  0  0  0  0  0  0
  193.7510  174.8350  139.3250 C   0  0  0  0  0  2  0  0  0  0  0  0
  195.6940  175.7710  142.4520 C   0  0  0  0  0  2  0  0  0  0  0  0
  196.4800  174.7380  145.2570 C   0  0  0  0  0  3  0  0  0  0  0  0
  197.1530  173.8890  146.1360 C   0  0  0  0  0  3  0  0  0  0  0  0
  195.1550  172.8730  144.4510 C   0  0  0  0  0  0  0  0  0  0  0  0
  195.8380  172.0260  145.3350 C   0  0  0  0  0  3  0  0  0  0  0  0
  194.0850  176.1420  144.1810 O   0  0  0  0  0  1  0  0  0  0  0  0
  196.8330  172.5330  146.1720 C   0  0  0  0  0  3  0  0  0  0  0  0
  195.4840  174.2360  144.4090 C   0  0  0  0  0  0  0  0  0  0  0  0
  191.1810  170.9180  138.8170 C   0  0  1  0  0  0  0  0  0  0  0  0
  191.8950  169.6870  142.6950 O   0  0  0  0  0  0  0  0  0  0  0  0
  192.6110  170.5650  138.4310 C   0  0  0  0  0  2  0  0  0  0  0  0
  192.4710  170.9620  142.6800 C   0  0  0  0  0  2  0  0  0  0  0  0
  194.0470  172.2390  140.1020 O   0  0  0  0  0  1  0  0  0  0  0  0
  194.1520  172.3870  143.6040 O   0  0  0  0  0  0  0  0  0  0  0  0
  194.9500  174.8350  140.2790 C   0  0  0  0  0  2  0  0  0  0  0  0
  194.9350  176.0660  141.1720 C   0  0  0  0  0  2  0  0  0  0  0  0
  192.5770  174.1060  139.8480 N   0  0  0  0  0  0  0  0  0  0  0  0
  192.1040  169.1830  141.4010 C   0  0  0  0  0  2  0  0  0  0  0  0
  194.7560  175.1480  143.4720 C   0  0  2  0  0  3  0  0  0  0  0  0
  190.8020  170.7840  140.1710 O   0  0  0  0  0  0  0  0  0  0  0  0
  192.7330  172.6390  139.8530 C   0  0  1  0  0  3  0  0  0  0  0  0
  193.7220  171.0290  143.5460 C   0  0  2  0  0  3  0  0  0  0  0  0
  192.2040  172.0360  138.5530 C   0  0  2  0  0  3  0  0  0  0  0  0
  194.7990  170.1680  142.9610 C   0  0  0  0  0  0  0  0  0  0  0  0
  196.3030  169.4200  141.7260 C   0  0  0  0  0  0  0  0  0  0  0  0
  195.1360  168.9690  143.4560 N   0  0  0  0  0  0  0  0  0  0  0  0
  196.0940  168.4990  142.6790 N   0  0  0  0  0  0  0  0  0  0  0  0
  195.5120  170.4960  141.8710 N   0  0  0  0  0  2  0  0  0  0  0  0
  197.3570  169.2970  140.6760 C   0  0  0  0  0  3  0  0  0  0  0  0
  197.2990  170.4830  139.7330 C   0  0  0  0  0  2  0  0  0  0  0  0
  196.7150  169.1550  139.3100 C   0  0  0  0  0  2  0  0  0  0  0  0
  192.2120  174.5470  141.1950 C   0  0  0  0  0  2  0  0  0  0  0  0
  190.7230  174.8500  141.2590 C   0  0  0  0  0  2  0  0  0  0  0  0
  189.6580  177.7140  144.2900 S   0  0  0  0  0  0  0  0  0  0  0  0
  188.5820  174.5100  142.5270 C   0  0  0  0  0  2  0  0  0  0  0  0
  190.0570  175.1990  144.7840 C   0  0  2  0  0  3  0  0  0  0  0  0
  190.0640  174.1260  142.4350 C   0  0  2  0  0  3  0  0  0  0  0  0
  190.8430  174.3910  143.7490 C   0  0  0  0  0  2  0  0  0  0  0  0
  189.2760  176.3340  144.1310 C   0  0  0  0  0  0  0  0  0  0  0  0
  188.4040  175.9790  142.9500 C   0  0  2  0  0  3  0  0  0  0  0  0
  192.0950  174.5680  146.1460 C   0  0  0  0  0  1  0  0  0  0  0  0
  190.0590  175.4080  147.3280 C   0  0  0  0  0  1  0  0  0  0  0  0
  190.8790  175.4700  146.0530 C   0  0  0  0  0  3  0  0  0  0  0  0
  186.9390  176.2630  143.2500 C   0  0  0  0  0  2  0  0  0  0  0  0
  186.3890  177.2680  142.2480 C   0  0  1  0  0  3  0  0  0  0  0  0
  185.1670  178.0000  142.7040 C   0  0  2  0  0  3  0  0  0  0  0  0
  186.4560  178.5580  142.8030 O   0  0  0  0  0  0  0  0  0  0  0  0
  184.7320  177.6010  143.9700 O   0  0  0  0  0  0  0  0  0  0  0  0
  184.3120  178.6240  146.0760 C   0  0  0  0  0  1  0  0  0  0  0  0
  184.2950  178.7740  144.5700 C   0  0  0  0  0  2  0  0  0  0  0  0
  190.0810  170.8550  137.7560 C   0  0  0  0  0  2  0  0  0  0  0  0
  190.5680  170.5250  135.3890 N   0  0  0  0  0  1  0  0  0  0  0  0
  190.4190  169.8430  136.6640 C   0  0  0  0  0  2  0  0  0  0  0  0
  1 20  1  0  0  0  0
  2 19  1  0  0  0  0
  2 17  1  0  0  0  0
  3 21  1  0  0  0  0
  4  5  1  0  0  0  0
  5  9  2  0  0  0  0
  6  7  2  0  0  0  0
  7  9  1  0  0  0  0
 10  6  1  0  0  0  0
 10  4  2  0  0  0  0
 11 53  1  6  0  0  0
 11 22  1  0  0  0  0
 13 11  1  0  0  0  0
 14 12  1  0  0  0  0
 14 24  1  0  0  0  0
 16  6  1  0  0  0  0
 17 18  1  0  0  0  0
 18  3  1  0  0  0  0
 19 23  1  0  0  0  0
 19 34  1  0  0  0  0
 20 12  1  0  0  0  0
 21  8  1  1  0  0  0
 21 10  1  0  0  0  0
 22  1  1  0  0  0  0
 23 15  1  6  0  0  0
 24 26  1  6  0  0  0
 24 16  1  0  0  0  0
 25 13  1  1  0  0  0
 25 11  1  0  0  0  0
 25 23  1  0  0  0  0
 26 28  2  0  0  0  0
 27 30  1  0  0  0  0
 27 29  2  0  0  0  0
 29 28  1  0  0  0  0
 30 26  1  0  0  0  0
 31 27  1  0  0  0  0
 32 31  1  0  0  0  0
 33 32  1  0  0  0  0
 33 31  1  0  0  0  0
 34 35  1  0  0  0  0
 37 42  1  0  0  0  0
 38 45  1  1  0  0  0
 39 35  1  6  0  0  0
 39 37  1  0  0  0  0
 39 40  1  0  0  0  0
 40 38  1  0  0  0  0
 41 36  2  0  0  0  0
 41 38  1  0  0  0  0
 42 46  1  1  0  0  0
 42 41  1  0  0  0  0
 45 43  1  0  0  0  0
 45 44  1  0  0  0  0
 47 48  1  0  0  0  0
 47 49  1  0  0  0  0
 47 46  1  1  0  0  0
 48 49  1  0  0  0  0
 48 50  1  1  0  0  0
 50 52  1  0  0  0  0
 52 51  1  0  0  0  0
 54 55  1  0  0  0  0
 55 53  1  0  0  0  0
M  END
>  <MODEL>
6

>  <REMARK>
 VINA RESULT:      -6.5      2.116      6.104
  Name = 
  12 active torsions:
  status: ('A' for Active; 'I' for Inactive)
    1  A    between atoms: C_3  and  C_21
    2  A    between atoms: C_6  and  O_25
    3  A    between atoms: C_8  and  C_20
    4  A    between atoms: C_8  and  C_22
    5  A    between atoms: C_10  and  C_32
    6  A    between atoms: C_12  and  C_50
    7  A    between atoms: C_13  and  C_52
    8  A    between atoms: C_21  and  C_53
    9  A    between atoms: C_22  and  N_43
   10  A    between atoms: O_25  and  C_38
   11  A    between atoms: C_27  and  C_55
   12  A    between atoms: C_41  and  C_55
                            x       y       z     vdW  Elec       q    Type
                         _______ _______ _______ _____ _____    ______ ____

>  <TORSDO>
F 12

$$$$
=
 OpenBabel11052419303D

 55 61  0  0  1  0  0  0  0  0999 V2000
  188.8690  172.0050  141.7020 C   0  0  0  0  0  2  0  0  0  0  0  0
  193.8770  175.6630  141.0260 C   0  0  0  0  0  2  0  0  0  0  0  0
  196.3460  174.6820  143.7410 C   0  0  0  0  0  2  0  0  0  0  0  0
  196.8150  172.6420  146.0140 C   0  0  0  0  0  3  0  0  0  0  0  0
  197.0740  171.3680  146.5200 C   0  0  0  0  0  3  0  0  0  0  0  0
  194.6690  171.8840  145.1710 C   0  0  0  0  0  0  0  0  0  0  0  0
  194.9390  170.6060  145.6810 C   0  0  0  0  0  3  0  0  0  0  0  0
  195.3160  175.2080  145.8340 O   0  0  0  0  0  1  0  0  0  0  0  0
  196.1360  170.3500  146.3500 C   0  0  0  0  0  3  0  0  0  0  0  0
  195.6180  172.9060  145.3360 C   0  0  0  0  0  0  0  0  0  0  0  0
  189.6810  173.6340  140.3320 C   0  0  1  0  0  0  0  0  0  0  0  0
  190.1030  171.1450  143.6020 O   0  0  0  0  0  0  0  0  0  0  0  0
  190.7060  172.8120  139.5620 C   0  0  0  0  0  2  0  0  0  0  0  0
  191.2250  171.9730  143.7170 C   0  0  0  0  0  2  0  0  0  0  0  0
  192.9440  173.1060  141.1630 O   0  0  0  0  0  1  0  0  0  0  0  0
  193.4740  172.1650  144.4980 O   0  0  0  0  0  0  0  0  0  0  0  0
  195.0160  174.8530  141.6550 C   0  0  0  0  0  2  0  0  0  0  0  0
  195.6990  175.6430  142.7600 C   0  0  0  0  0  2  0  0  0  0  0  0
  192.5590  175.4140  141.6440 N   0  0  0  0  0  0  0  0  0  0  0  0
  189.9020  171.0010  142.2200 C   0  0  0  0  0  2  0  0  0  0  0  0
  195.3360  174.2750  144.8010 C   0  0  2  0  0  3  0  0  0  0  0  0
  189.4300  173.2940  141.6800 O   0  0  0  0  0  0  0  0  0  0  0  0
  191.9760  174.1010  141.3120 C   0  0  1  0  0  3  0  0  0  0  0  0
  192.4310  171.2220  144.2640 C   0  0  2  0  0  3  0  0  0  0  0  0
  191.0870  174.2040  140.0750 C   0  0  2  0  0  3  0  0  0  0  0  0
  192.8800  170.1840  143.2820 C   0  0  0  0  0  0  0  0  0  0  0  0
  193.6470  169.2430  141.5870 C   0  0  0  0  0  0  0  0  0  0  0  0
  192.7060  168.8690  143.4660 N   0  0  0  0  0  0  0  0  0  0  0  0
  193.1990  168.2720  142.3970 N   0  0  0  0  0  0  0  0  0  0  0  0
  193.4740  170.4670  142.1100 N   0  0  0  0  0  2  0  0  0  0  0  0
  194.3370  168.9830  140.2900 C   0  0  0  0  0  3  0  0  0  0  0  0
  193.7330  169.8370  139.1920 C   0  0  0  0  0  2  0  0  0  0  0  0
  193.3670  168.3740  139.2960 C   0  0  0  0  0  2  0  0  0  0  0  0
  192.6000  175.5580  143.1000 C   0  0  0  0  0  2  0  0  0  0  0  0
  191.1880  175.5500  143.6660 C   0  0  0  0  0  2  0  0  0  0  0  0
  186.8940  175.7750  143.4990 S   0  0  0  0  0  0  0  0  0  0  0  0
  189.9950  176.9430  145.3810 C   0  0  0  0  0  2  0  0  0  0  0  0
  188.4380  177.8450  143.2580 C   0  0  2  0  0  3  0  0  0  0  0  0
  190.7370  176.9650  144.0390 C   0  0  2  0  0  3  0  0  0  0  0  0
  189.9040  177.5950  142.8940 C   0  0  0  0  0  2  0  0  0  0  0  0
  187.8570  176.6860  144.0610 C   0  0  0  0  0  0  0  0  0  0  0  0
  188.6410  176.2240  145.2670 C   0  0  2  0  0  3  0  0  0  0  0  0
  186.2530  178.8740  142.5050 C   0  0  0  0  0  1  0  0  0  0  0  0
  187.5790  177.5170  140.8770 C   0  0  0  0  0  1  0  0  0  0  0  0
  187.6420  178.4340  142.0840 C   0  0  0  0  0  3  0  0  0  0  0  0
  187.8360  176.4170  146.5450 C   0  0  0  0  0  2  0  0  0  0  0  0
  187.6310  177.9000  146.8110 C   0  0  1  0  0  3  0  0  0  0  0  0
  186.2010  178.3360  146.8510 C   0  0  2  0  0  3  0  0  0  0  0  0
  186.9340  178.0610  148.0210 O   0  0  0  0  0  0  0  0  0  0  0  0
  185.3040  177.2930  146.6050 O   0  0  0  0  0  0  0  0  0  0  0  0
  184.1300  179.0390  145.4980 C   0  0  0  0  0  1  0  0  0  0  0  0
  184.0680  177.9160  146.5100 C   0  0  0  0  0  2  0  0  0  0  0  0
  188.5870  174.3780  139.5650 C   0  0  0  0  0  2  0  0  0  0  0  0
  188.6120  174.3860  137.1270 N   0  0  0  0  0  1  0  0  0  0  0  0
  188.1920  173.6290  138.2950 C   0  0  0  0  0  2  0  0  0  0  0  0
  1 20  1  0  0  0  0
  2 19  1  0  0  0  0
  2 17  1  0  0  0  0
  3 21  1  0  0  0  0
  4  5  1  0  0  0  0
  6 10  1  0  0  0  0
  6  7  2  0  0  0  0
  7  9  1  0  0  0  0
  9  5  2  0  0  0  0
 10  4  2  0  0  0  0
 11 53  1  6  0  0  0
 11 22  1  0  0  0  0
 12 14  1  0  0  0  0
 13 11  1  0  0  0  0
 14 24  1  0  0  0  0
 16  6  1  0  0  0  0
 17 18  1  0  0  0  0
 18  3  1  0  0  0  0
 19 34  1  0  0  0  0
 20 12  1  0  0  0  0
 21 10  1  0  0  0  0
 21  8  1  1  0  0  0
 22  1  1  0  0  0  0
 23 15  1  6  0  0  0
 23 19  1  0  0  0  0
 24 26  1  6  0  0  0
 24 16  1  0  0  0  0
 25 13  1  6  0  0  0
 25 11  1  0  0  0  0
 25 23  1  0  0  0  0
 26 28  2  0  0  0  0
 27 30  1  0  0  0  0
 27 29  2  0  0  0  0
 29 28  1  0  0  0  0
 30 26  1  0  0  0  0
 31 27  1  0  0  0  0
 32 33  1  0  0  0  0
 32 31  1  0  0  0  0
 33 31  1  0  0  0  0
 34 35  1  0  0  0  0
 36 41  2  0  0  0  0
 38 45  1  6  0  0  0
 38 41  1  0  0  0  0
 39 35  1  6  0  0  0
 39 37  1  0  0  0  0
 40 38  1  0  0  0  0
 40 39  1  0  0  0  0
 41 42  1  0  0  0  0
 42 37  1  0  0  0  0
 42 46  1  1  0  0  0
 44 45  1  0  0  0  0
 45 43  1  0  0  0  0
 47 46  1  6  0  0  0
 47 48  1  0  0  0  0
 47 49  1  0  0  0  0
 48 50  1  6  0  0  0
 48 49  1  0  0  0  0
 51 52  1  0  0  0  0
 52 50  1  0  0  0  0
 54 55  1  0  0  0  0
 55 53  1  0  0  0  0
M  END
>  <MODEL>
7

>  <REMARK>
 VINA RESULT:      -6.4      2.839      6.567
  Name = 
  12 active torsions:
  status: ('A' for Active; 'I' for Inactive)
    1  A    between atoms: C_3  and  C_21
    2  A    between atoms: C_6  and  O_25
    3  A    between atoms: C_8  and  C_20
    4  A    between atoms: C_8  and  C_22
    5  A    between atoms: C_10  and  C_32
    6  A    between atoms: C_12  and  C_50
    7  A    between atoms: C_13  and  C_52
    8  A    between atoms: C_21  and  C_53
    9  A    between atoms: C_22  and  N_43
   10  A    between atoms: O_25  and  C_38
   11  A    between atoms: C_27  and  C_55
   12  A    between atoms: C_41  and  C_55
                            x       y       z     vdW  Elec       q    Type
                         _______ _______ _______ _____ _____    ______ ____

>  <TORSDO>
F 12

$$$$
=
 OpenBabel11052419303D

 55 61  0  0  1  0  0  0  0  0999 V2000
  187.4590  173.4860  141.6430 C   0  0  0  0  0  2  0  0  0  0  0  0
  192.5650  176.3490  143.8020 C   0  0  0  0  0  2  0  0  0  0  0  0
  195.3500  173.7670  143.8520 C   0  0  0  0  0  2  0  0  0  0  0  0
  196.0160  170.8550  143.0580 C   0  0  0  0  0  3  0  0  0  0  0  0
  196.2510  169.8290  142.1430 C   0  0  0  0  0  3  0  0  0  0  0  0
  193.7110  171.0050  142.3140 C   0  0  0  0  0  0  0  0  0  0  0  0
  193.9570  169.9740  141.3960 C   0  0  0  0  0  3  0  0  0  0  0  0
  194.7110  172.0910  145.4330 O   0  0  0  0  0  1  0  0  0  0  0  0
  195.2220  169.3910  141.3110 C   0  0  0  0  0  3  0  0  0  0  0  0
  194.7500  171.4490  143.1460 C   0  0  0  0  0  0  0  0  0  0  0  0
  188.1670  175.5450  142.3130 C   0  0  1  0  0  0  0  0  0  0  0  0
  188.9090  171.5460  141.5980 O   0  0  0  0  0  0  0  0  0  0  0  0
  188.9880  175.9270  141.0890 C   0  0  0  0  0  2  0  0  0  0  0  0
  190.0960  171.9590  142.2120 C   0  0  0  0  0  2  0  0  0  0  0  0
  191.4690  174.9050  141.7670 O   0  0  0  0  0  1  0  0  0  0  0  0
  192.4490  171.6020  142.4190 O   0  0  0  0  0  0  0  0  0  0  0  0
  193.7220  175.5290  143.2230 C   0  0  0  0  0  2  0  0  0  0  0  0
  194.6320  175.0160  144.3280 C   0  0  0  0  0  2  0  0  0  0  0  0
  191.3470  175.5550  144.0630 N   0  0  0  0  0  0  0  0  0  0  0  0
  188.4800  172.6590  140.8580 C   0  0  0  0  0  2  0  0  0  0  0  0
  194.4940  172.5440  144.1340 C   0  0  2  0  0  3  0  0  0  0  0  0
  188.1070  174.1830  142.6790 O   0  0  0  0  0  0  0  0  0  0  0  0
  190.6180  175.1530  142.8460 C   0  0  1  0  0  3  0  0  0  0  0  0
  191.3110  171.2460  141.6370 C   0  0  2  0  0  3  0  0  0  0  0  0
  189.5530  176.1890  142.4880 C   0  0  2  0  0  3  0  0  0  0  0  0
  191.5170  171.6490  140.2090 C   0  0  0  0  0  0  0  0  0  0  0  0
  191.5850  171.6410  138.1250 C   0  0  0  0  0  0  0  0  0  0  0  0
  192.0830  172.8060  139.8430 N   0  0  0  0  0  0  0  0  0  0  0  0
  192.1190  172.8040  138.5230 N   0  0  0  0  0  0  0  0  0  0  0  0
  191.1820  170.8820  139.1570 N   0  0  0  0  0  2  0  0  0  0  0  0
  191.3830  171.2710  136.6930 C   0  0  0  0  0  3  0  0  0  0  0  0
  190.2240  172.0530  136.1060 C   0  0  0  0  0  2  0  0  0  0  0  0
  190.0300  170.6100  136.5130 C   0  0  0  0  0  2  0  0  0  0  0  0
  191.6300  174.3600  144.8590 C   0  0  0  0  0  2  0  0  0  0  0  0
  190.3340  173.7660  145.3890 C   0  0  0  0  0  2  0  0  0  0  0  0
  189.6080  177.9950  145.7260 S   0  0  0  0  0  0  0  0  0  0  0  0
  188.6700  174.5630  147.0930 C   0  0  0  0  0  2  0  0  0  0  0  0
  190.5300  176.5490  147.6710 C   0  0  2  0  0  3  0  0  0  0  0  0
  190.1230  174.1310  146.8610 C   0  0  2  0  0  3  0  0  0  0  0  0
  191.1530  175.1970  147.3150 C   0  0  0  0  0  2  0  0  0  0  0  0
  189.4330  176.9360  146.6860 C   0  0  0  0  0  0  0  0  0  0  0  0
  188.3630  175.9060  146.4100 C   0  0  2  0  0  3  0  0  0  0  0  0
  192.9830  177.1740  147.6440 C   0  0  0  0  0  1  0  0  0  0  0  0
  191.5600  177.9270  149.5570 C   0  0  0  0  0  1  0  0  0  0  0  0
  191.5890  177.5850  148.0790 C   0  0  0  0  0  3  0  0  0  0  0  0
  186.9940  176.4140  146.8440 C   0  0  0  0  0  2  0  0  0  0  0  0
  187.0800  177.8870  147.2120 C   0  0  1  0  0  3  0  0  0  0  0  0
  185.8140  178.6570  147.0090 C   0  0  2  0  0  3  0  0  0  0  0  0
  186.1900  178.1520  148.2680 O   0  0  0  0  0  0  0  0  0  0  0  0
  184.7790  177.8780  146.4830 O   0  0  0  0  0  0  0  0  0  0  0  0
  185.0240  179.5850  144.8450 C   0  0  0  0  0  1  0  0  0  0  0  0
  184.0690  178.7510  145.6720 C   0  0  0  0  0  2  0  0  0  0  0  0
  187.0260  176.4580  142.7640 C   0  0  0  0  0  2  0  0  0  0  0  0
  186.1740  178.5290  141.7960 N   0  0  0  0  0  1  0  0  0  0  0  0
  186.3230  177.1000  141.5710 C   0  0  0  0  0  2  0  0  0  0  0  0
  1 22  1  0  0  0  0
  2 19  1  0  0  0  0
  3 21  1  0  0  0  0
  3 18  1  0  0  0  0
  4 10  1  0  0  0  0
  5  4  2  0  0  0  0
  6 16  1  0  0  0  0
  6 10  2  0  0  0  0
  7  6  1  0  0  0  0
  9  7  2  0  0  0  0
  9  5  1  0  0  0  0
 10 21  1  0  0  0  0
 11 25  1  0  0  0  0
 11 22  1  0  0  0  0
 11 53  1  1  0  0  0
 12 14  1  0  0  0  0
 13 11  1  0  0  0  0
 17  2  1  0  0  0  0
 17 18  1  0  0  0  0
 19 34  1  0  0  0  0
 20 12  1  0  0  0  0
 20  1  1  0  0  0  0
 21  8  1  1  0  0  0
 23 15  1  6  0  0  0
 23 19  1  0  0  0  0
 24 26  1  6  0  0  0
 24 14  1  0  0  0  0
 24 16  1  0  0  0  0
 25 13  1  6  0  0  0
 25 23  1  0  0  0  0
 27 29  2  0  0  0  0
 27 30  1  0  0  0  0
 28 26  2  0  0  0  0
 29 28  1  0  0  0  0
 30 26  1  0  0  0  0
 31 27  1  0  0  0  0
 32 33  1  0  0  0  0
 32 31  1  0  0  0  0
 33 31  1  0  0  0  0
 34 35  1  0  0  0  0
 36 41  2  0  0  0  0
 38 45  1  6  0  0  0
 39 35  1  6  0  0  0
 39 37  1  0  0  0  0
 39 40  1  0  0  0  0
 40 38  1  0  0  0  0
 41 38  1  0  0  0  0
 42 41  1  0  0  0  0
 42 46  1  1  0  0  0
 42 37  1  0  0  0  0
 43 45  1  0  0  0  0
 45 44  1  0  0  0  0
 47 46  1  6  0  0  0
 47 49  1  0  0  0  0
 48 50  1  6  0  0  0
 48 47  1  0  0  0  0
 48 49  1  0  0  0  0
 51 52  1  0  0  0  0
 52 50  1  0  0  0  0
 55 54  1  0  0  0  0
 55 53  1  0  0  0  0
M  END
>  <MODEL>
8

>  <REMARK>
 VINA RESULT:      -6.1      2.665      5.925
  Name = 
  12 active torsions:
  status: ('A' for Active; 'I' for Inactive)
    1  A    between atoms: C_3  and  C_21
    2  A    between atoms: C_6  and  O_25
    3  A    between atoms: C_8  and  C_20
    4  A    between atoms: C_8  and  C_22
    5  A    between atoms: C_10  and  C_32
    6  A    between atoms: C_12  and  C_50
    7  A    between atoms: C_13  and  C_52
    8  A    between atoms: C_21  and  C_53
    9  A    between atoms: C_22  and  N_43
   10  A    between atoms: O_25  and  C_38
   11  A    between atoms: C_27  and  C_55
   12  A    between atoms: C_41  and  C_55
                            x       y       z     vdW  Elec       q    Type
                         _______ _______ _______ _____ _____    ______ ____

>  <TORSDO>
F 12

$$$$
=
 OpenBabel11052419303D

 55 61  0  0  1  0  0  0  0  0999 V2000
  192.8300  172.7510  137.7260 C   0  0  0  0  0  2  0  0  0  0  0  0
  195.9880  176.5170  141.5680 C   0  0  0  0  0  2  0  0  0  0  0  0
  196.8450  174.4840  144.6610 C   0  0  0  0  0  2  0  0  0  0  0  0
  196.6860  171.6370  145.8520 C   0  0  0  0  0  3  0  0  0  0  0  0
  197.0330  170.2880  145.9230 C   0  0  0  0  0  3  0  0  0  0  0  0
  195.6640  171.2710  143.6810 C   0  0  0  0  0  0  0  0  0  0  0  0
  196.0190  169.9170  143.7600 C   0  0  0  0  0  3  0  0  0  0  0  0
  194.7740  173.9160  145.7110 O   0  0  0  0  0  1  0  0  0  0  0  0
  196.7020  169.4290  144.8760 C   0  0  0  0  0  3  0  0  0  0  0  0
  196.0050  172.1350  144.7330 C   0  0  0  0  0  0  0  0  0  0  0  0
  193.6670  174.8670  137.8130 C   0  0  1  0  0  0  0  0  0  0  0  0
  193.0950  171.1540  139.5290 O   0  0  0  0  0  0  0  0  0  0  0  0
  195.1410  174.5530  137.5990 C   0  0  0  0  0  2  0  0  0  0  0  0
  193.6610  171.8790  140.5820 C   0  0  0  0  0  2  0  0  0  0  0  0
  195.9910  174.1580  140.2030 O   0  0  0  0  0  1  0  0  0  0  0  0
  194.9770  171.7810  142.5740 O   0  0  0  0  0  0  0  0  0  0  0  0
  196.8210  175.5570  142.4250 C   0  0  0  0  0  2  0  0  0  0  0  0
  196.5370  175.7630  143.9050 C   0  0  0  0  0  2  0  0  0  0  0  0
  194.7000  175.9470  141.1210 N   0  0  0  0  0  0  0  0  0  0  0  0
  193.6990  171.6690  138.3710 C   0  0  0  0  0  2  0  0  0  0  0  0
  195.6240  173.5810  144.6590 C   0  0  2  0  0  3  0  0  0  0  0  0
  192.8760  173.9220  138.5020 O   0  0  0  0  0  0  0  0  0  0  0  0
  194.8290  174.9210  140.0700 C   0  0  1  0  0  3  0  0  0  0  0  0
  194.5710  171.0140  141.4420 C   0  0  2  0  0  3  0  0  0  0  0  0
  194.7340  175.5540  138.6830 C   0  0  2  0  0  3  0  0  0  0  0  0
  195.7690  170.5820  140.6520 C   0  0  0  0  0  0  0  0  0  0  0  0
  197.0880  169.4780  139.4740 C   0  0  0  0  0  0  0  0  0  0  0  0
  196.8980  171.2980  140.5730 N   0  0  0  0  0  0  0  0  0  0  0  0
  197.7300  170.6030  139.8210 N   0  0  0  0  0  0  0  0  0  0  0  0
  195.8410  169.4270  139.9710 N   0  0  0  0  0  2  0  0  0  0  0  0
  197.6660  168.4420  138.5680 C   0  0  0  0  0  3  0  0  0  0  0  0
  197.9370  169.0340  137.1980 C   0  0  0  0  0  2  0  0  0  0  0  0
  196.7160  168.1700  137.4180 C   0  0  0  0  0  2  0  0  0  0  0  0
  193.9310  175.3900  142.2340 C   0  0  0  0  0  2  0  0  0  0  0  0
  192.5010  175.1120  141.7930 C   0  0  0  0  0  2  0  0  0  0  0  0
  190.1440  177.9580  143.9990 S   0  0  0  0  0  0  0  0  0  0  0  0
  190.2180  174.4220  142.5770 C   0  0  0  0  0  2  0  0  0  0  0  0
  190.8930  175.6730  144.9700 C   0  0  2  0  0  3  0  0  0  0  0  0
  191.7190  174.3850  142.8890 C   0  0  2  0  0  3  0  0  0  0  0  0
  192.0640  174.9630  144.2850 C   0  0  0  0  0  2  0  0  0  0  0  0
  190.0980  176.5190  143.9810 C   0  0  0  0  0  0  0  0  0  0  0  0
  189.6490  175.8460  142.7060 C   0  0  2  0  0  3  0  0  0  0  0  0
  192.7850  176.4890  146.4390 C   0  0  0  0  0  1  0  0  0  0  0  0
  190.7770  175.4550  147.5100 C   0  0  0  0  0  1  0  0  0  0  0  0
  191.2890  176.2620  146.3320 C   0  0  0  0  0  3  0  0  0  0  0  0
  188.1290  175.8130  142.6140 C   0  0  0  0  0  2  0  0  0  0  0  0
  187.6770  176.3820  141.2780 C   0  0  1  0  0  3  0  0  0  0  0  0
  186.4300  177.2040  141.3390 C   0  0  2  0  0  3  0  0  0  0  0  0
  187.7120  177.7860  141.3380 O   0  0  0  0  0  0  0  0  0  0  0  0
  185.8850  177.2760  142.6230 O   0  0  0  0  0  0  0  0  0  0  0  0
  184.5820  178.7940  143.9090 C   0  0  0  0  0  1  0  0  0  0  0  0
  184.9130  178.2620  142.5320 C   0  0  0  0  0  2  0  0  0  0  0  0
  192.9610  175.8350  136.8620 C   0  0  0  0  0  2  0  0  0  0  0  0
  191.6330  174.7540  135.1260 N   0  0  0  0  0  1  0  0  0  0  0  0
  192.9460  175.2970  135.4340 C   0  0  0  0  0  2  0  0  0  0  0  0
  1 20  1  0  0  0  0
  1 22  1  0  0  0  0
  2 17  1  0  0  0  0
  4  5  1  0  0  0  0
  6  7  2  0  0  0  0
  6 10  1  0  0  0  0
  7  9  1  0  0  0  0
  9  5  2  0  0  0  0
 10  4  2  0  0  0  0
 11 53  1  6  0  0  0
 11 22  1  0  0  0  0
 11 25  1  0  0  0  0
 12 14  1  0  0  0  0
 13 11  1  0  0  0  0
 14 24  1  0  0  0  0
 16  6  1  0  0  0  0
 17 18  1  0  0  0  0
 18  3  1  0  0  0  0
 19  2  1  0  0  0  0
 19 34  1  0  0  0  0
 20 12  1  0  0  0  0
 21  3  1  0  0  0  0
 21 10  1  0  0  0  0
 21  8  1  1  0  0  0
 23 15  1  6  0  0  0
 23 19  1  0  0  0  0
 24 26  1  6  0  0  0
 24 16  1  0  0  0  0
 25 13  1  6  0  0  0
 25 23  1  0  0  0  0
 27 29  2  0  0  0  0
 27 30  1  0  0  0  0
 28 26  2  0  0  0  0
 29 28  1  0  0  0  0
 30 26  1  0  0  0  0
 31 27  1  0  0  0  0
 32 33  1  0  0  0  0
 32 31  1  0  0  0  0
 33 31  1  0  0  0  0
 35 34  1  0  0  0  0
 37 42  1  0  0  0  0
 37 39  1  0  0  0  0
 38 45  1  1  0  0  0
 39 35  1  6  0  0  0
 39 40  1  0  0  0  0
 40 38  1  0  0  0  0
 41 36  2  0  0  0  0
 41 38  1  0  0  0  0
 42 46  1  1  0  0  0
 42 41  1  0  0  0  0
 45 43  1  0  0  0  0
 45 44  1  0  0  0  0
 47 49  1  0  0  0  0
 47 48  1  0  0  0  0
 47 46  1  1  0  0  0
 48 50  1  1  0  0  0
 49 48  1  0  0  0  0
 52 50  1  0  0  0  0
 52 51  1  0  0  0  0
 54 55  1  0  0  0  0
 55 53  1  0  0  0  0
M  END
>  <MODEL>
9

>  <REMARK>
 VINA RESULT:      -6.0      2.208      5.723
  Name = 
  12 active torsions:
  status: ('A' for Active; 'I' for Inactive)
    1  A    between atoms: C_3  and  C_21
    2  A    between atoms: C_6  and  O_25
    3  A    between atoms: C_8  and  C_20
    4  A    between atoms: C_8  and  C_22
    5  A    between atoms: C_10  and  C_32
    6  A    between atoms: C_12  and  C_50
    7  A    between atoms: C_13  and  C_52
    8  A    between atoms: C_21  and  C_53
    9  A    between atoms: C_22  and  N_43
   10  A    between atoms: O_25  and  C_38
   11  A    between atoms: C_27  and  C_55
   12  A    between atoms: C_41  and  C_55
                            x       y       z     vdW  Elec       q    Type
                         _______ _______ _______ _____ _____    ______ ____

>  <TORSDO>
F 12

$$$$
