=
 OpenBabel11052421203D

 43 48  0  0  1  0  0  0  0  0999 V2000
  184.6600  178.6170  146.4940 O   0  0  0  0  0  0  0  0  0  0  0  0
  188.6190  175.9940  145.1070 C   0  0  2  0  0  3  0  0  0  0  0  0
  187.5450  175.6890  142.8770 C   0  0  0  0  0  2  0  0  0  0  0  0
  186.1480  176.7800  145.9820 C   0  0  2  0  0  3  0  0  0  0  0  0
  185.0940  179.3910  144.2480 C   0  0  0  0  0  2  0  0  0  0  0  0
  184.0610  178.8950  145.2610 C   0  0  0  0  0  2  0  0  0  0  0  0
  186.4320  177.2310  144.5300 C   0  0  1  0  0  3  0  0  0  0  0  0
  184.7860  177.2240  146.5150 C   0  0  0  0  0  2  0  0  0  0  0  0
  186.4780  178.7560  144.4140 C   0  0  0  0  0  2  0  0  0  0  0  0
  188.8290  175.0430  142.4080 C   0  0  0  0  0  0  0  0  0  0  0  0
  187.7690  176.6700  144.0200 C   0  0  1  0  0  3  0  0  0  0  0  0
  188.6840  176.8920  146.3420 C   0  0  0  0  0  2  0  0  0  0  0  0
  190.0050  175.7030  144.5340 C   0  0  2  0  0  3  0  0  0  0  0  0
  189.9100  174.9900  143.2050 C   0  0  0  0  0  3  0  0  0  0  0  0
  187.2910  177.1250  146.9500 C   0  0  0  0  0  2  0  0  0  0  0  0
  188.8330  174.2980  141.1310 C   0  0  0  0  0  0  0  0  0  0  0  0
  189.4220  172.9960  141.0260 N   0  0  0  0  0  2  0  0  0  0  0  0
  188.3550  174.8310  140.0940 O   0  0  0  0  0  0  0  0  0  0  0  0
  189.3710  172.0070  142.0580 C   0  0  0  0  0  0  0  0  0  0  0  0
  188.4890  172.0600  142.9550 O   0  0  0  0  0  0  0  0  0  0  0  0
  190.3740  170.9050  142.0750 C   0  0  0  0  0  2  0  0  0  0  0  0
  191.6750  171.4140  141.6570 N   0  0  0  0  0  2  0  0  0  0  0  0
  193.2640  173.1810  142.2700 C   0  0  0  0  0  3  0  0  0  0  0  0
  192.6720  172.0060  142.5090 C   0  0  0  0  0  0  0  0  0  0  0  0
  193.0470  171.2850  143.7530 C   0  0  0  0  0  1  0  0  0  0  0  0
  192.9640  174.0710  141.1130 C   0  0  0  0  0  2  0  0  0  0  0  0
  194.9900  174.8340  139.7910 C   0  0  2  0  0  0  0  0  0  0  0  0
  193.7770  174.8390  138.8910 C   0  0  0  0  0  2  0  0  0  0  0  0
  193.9150  173.7670  139.9660 C   0  0  2  0  0  3  0  0  0  0  0  0
  197.4770  174.6690  139.9550 C   0  0  0  0  0  3  0  0  0  0  0  0
  196.2360  176.3500  141.2530 C   0  0  0  0  0  3  0  0  0  0  0  0
  197.4620  175.5940  140.9240 C   0  0  0  0  0  3  0  0  0  0  0  0
  195.0610  176.0170  140.7160 C   0  0  0  0  0  3  0  0  0  0  0  0
  196.2730  174.3980  139.0900 C   0  0  0  0  0  2  0  0  0  0  0  0
  190.8260  174.8690  145.5110 C   0  0  0  0  0  2  0  0  0  0  0  0
  194.5740  174.3170  145.5860 C   0  0  0  0  0  3  0  0  0  0  0  0
  195.0370  175.4060  144.8390 C   0  0  0  0  0  0  0  0  0  0  0  0
  192.7450  176.1530  144.5360 C   0  0  0  0  0  3  0  0  0  0  0  0
  193.2040  174.1450  145.8080 C   0  0  0  0  0  3  0  0  0  0  0  0
  192.2880  175.0640  145.2860 C   0  0  0  0  0  0  0  0  0  0  0  0
  194.1130  176.3250  144.3130 C   0  0  0  0  0  3  0  0  0  0  0  0
  197.2960  174.4410  144.5520 C   0  0  0  0  0  1  0  0  0  0  0  0
  196.4120  175.5500  144.6340 O   0  0  0  0  0  0  0  0  0  0  0  0
  1  8  1  0  0  0  0
  2 12  1  1  0  0  0
  4  8  1  1  0  0  0
  4 15  1  0  0  0  0
  5  9  1  0  0  0  0
  5  6  1  0  0  0  0
  6  1  1  0  0  0  0
  7  9  1  1  0  0  0
  7  4  1  0  0  0  0
 10  3  1  0  0  0  0
 10 14  2  0  0  0  0
 11  3  1  6  0  0  0
 11  7  1  0  0  0  0
 11  2  1  0  0  0  0
 12 15  1  0  0  0  0
 13  2  1  0  0  0  0
 13 35  1  1  0  0  0
 14 13  1  0  0  0  0
 16 10  1  0  0  0  0
 17 16  1  0  0  0  0
 17 19  1  0  0  0  0
 18 16  2  0  0  0  0
 19 21  1  0  0  0  0
 19 20  2  0  0  0  0
 22 21  1  0  0  0  0
 22 24  1  0  0  0  0
 23 24  2  0  0  0  0
 24 25  1  0  0  0  0
 26 23  1  0  0  0  0
 27 28  1  6  0  0  0
 27 29  1  0  0  0  0
 27 33  1  0  0  0  0
 28 29  1  0  0  0  0
 29 26  1  1  0  0  0
 30 32  2  0  0  0  0
 32 31  1  0  0  0  0
 33 31  2  0  0  0  0
 34 27  1  0  0  0  0
 34 30  1  0  0  0  0
 36 39  1  0  0  0  0
 37 36  2  0  0  0  0
 38 40  1  0  0  0  0
 40 35  1  0  0  0  0
 40 39  2  0  0  0  0
 41 38  2  0  0  0  0
 41 37  1  0  0  0  0
 42 43  1  0  0  0  0
 43 37  1  0  0  0  0
M  END
>  <MODEL>
1

>  <REMARK>
 VINA RESULT:      -8.3      0.000      0.000
  Name = 
  9 active torsions:
  status: ('A' for Active; 'I' for Inactive)
    1  A    between atoms: C_1  and  C_34
    2  A    between atoms: C_1  and  C_35
    3  A    between atoms: C_2  and  C_27
    4  A    between atoms: C_3  and  N_4
    5  A    between atoms: C_3  and  C_12
    6  A    between atoms: N_4  and  C_15
    7  A    between atoms: C_10  and  C_41
    8  A    between atoms: C_19  and  O_37
    9  A    between atoms: C_22  and  C_41
                            x       y       z     vdW  Elec       q    Type
                         _______ _______ _______ _____ _____    ______ ____

>  <TORSDO>
F 9

$$$$
=
 OpenBabel11052421203D

 43 48  0  0  1  0  0  0  0  0999 V2000
  184.6690  178.6410  146.5190 O   0  0  0  0  0  0  0  0  0  0  0  0
  188.6560  176.1050  145.0520 C   0  0  2  0  0  3  0  0  0  0  0  0
  187.5150  175.7140  142.8700 C   0  0  0  0  0  2  0  0  0  0  0  0
  186.1950  176.8380  145.9970 C   0  0  2  0  0  3  0  0  0  0  0  0
  185.0010  179.3730  144.2430 C   0  0  0  0  0  2  0  0  0  0  0  0
  184.0200  178.8710  145.3020 C   0  0  0  0  0  2  0  0  0  0  0  0
  186.4140  177.2620  144.5260 C   0  0  1  0  0  3  0  0  0  0  0  0
  184.8390  177.2530  146.5680 C   0  0  0  0  0  2  0  0  0  0  0  0
  186.4090  178.7840  144.3730 C   0  0  0  0  0  2  0  0  0  0  0  0
  188.8010  175.0960  142.3700 C   0  0  0  0  0  0  0  0  0  0  0  0
  187.7480  176.7290  143.9810 C   0  0  1  0  0  3  0  0  0  0  0  0
  188.7370  177.0340  146.2630 C   0  0  0  0  0  2  0  0  0  0  0  0
  190.0300  175.8410  144.4370 C   0  0  2  0  0  3  0  0  0  0  0  0
  189.9100  175.0940  143.1290 C   0  0  0  0  0  3  0  0  0  0  0  0
  187.3600  177.2400  146.9150 C   0  0  0  0  0  2  0  0  0  0  0  0
  188.7830  174.3210  141.1110 C   0  0  0  0  0  0  0  0  0  0  0  0
  189.3930  173.0270  141.0200 N   0  0  0  0  0  2  0  0  0  0  0  0
  188.2660  174.8200  140.0760 O   0  0  0  0  0  0  0  0  0  0  0  0
  189.3890  172.0620  142.0760 C   0  0  0  0  0  0  0  0  0  0  0  0
  188.5310  172.1210  142.9960 O   0  0  0  0  0  0  0  0  0  0  0  0
  190.4120  170.9790  142.0900 C   0  0  0  0  0  2  0  0  0  0  0  0
  191.6230  171.4340  141.4160 N   0  0  0  0  0  2  0  0  0  0  0  0
  193.2580  172.3350  143.0090 C   0  0  0  0  0  3  0  0  0  0  0  0
  192.5340  172.4400  141.8890 C   0  0  0  0  0  0  0  0  0  0  0  0
  192.7130  173.6650  141.0670 C   0  0  0  0  0  1  0  0  0  0  0  0
  193.2590  171.1530  143.9190 C   0  0  0  0  0  2  0  0  0  0  0  0
  195.5350  171.1940  145.0380 C   0  0  2  0  0  0  0  0  0  0  0  0
  194.6510  170.1930  145.7440 C   0  0  0  0  0  2  0  0  0  0  0  0
  194.0430  171.4740  145.1810 C   0  0  2  0  0  3  0  0  0  0  0  0
  197.4940  172.7360  145.1940 C   0  0  0  0  0  3  0  0  0  0  0  0
  197.1880  171.2800  143.2360 C   0  0  0  0  0  3  0  0  0  0  0  0
  197.8470  172.3940  143.9490 C   0  0  0  0  0  3  0  0  0  0  0  0
  196.1050  170.6890  143.7410 C   0  0  0  0  0  3  0  0  0  0  0  0
  196.4640  171.9600  145.9750 C   0  0  0  0  0  2  0  0  0  0  0  0
  190.9100  175.0560  145.4020 C   0  0  0  0  0  2  0  0  0  0  0  0
  194.0980  176.1070  143.6440 C   0  0  0  0  0  3  0  0  0  0  0  0
  195.0740  175.7210  144.5700 C   0  0  0  0  0  0  0  0  0  0  0  0
  193.3270  174.8910  146.0420 C   0  0  0  0  0  3  0  0  0  0  0  0
  192.7430  175.8860  143.9130 C   0  0  0  0  0  3  0  0  0  0  0  0
  192.3570  175.2750  145.1100 C   0  0  0  0  0  0  0  0  0  0  0  0
  194.6800  175.1120  145.7740 C   0  0  0  0  0  3  0  0  0  0  0  0
  196.8340  176.8220  143.2260 C   0  0  0  0  0  1  0  0  0  0  0  0
  196.4190  175.9550  144.2720 O   0  0  0  0  0  0  0  0  0  0  0  0
  1  8  1  0  0  0  0
  2 12  1  1  0  0  0
  4  8  1  1  0  0  0
  4 15  1  0  0  0  0
  5  9  1  0  0  0  0
  5  6  1  0  0  0  0
  6  1  1  0  0  0  0
  7  9  1  1  0  0  0
  7  4  1  0  0  0  0
 10  3  1  0  0  0  0
 10 14  2  0  0  0  0
 11  3  1  6  0  0  0
 11  7  1  0  0  0  0
 11  2  1  0  0  0  0
 12 15  1  0  0  0  0
 13  2  1  0  0  0  0
 13 35  1  1  0  0  0
 14 13  1  0  0  0  0
 16 10  1  0  0  0  0
 17 16  1  0  0  0  0
 17 19  1  0  0  0  0
 18 16  2  0  0  0  0
 19 21  1  0  0  0  0
 19 20  2  0  0  0  0
 22 24  1  0  0  0  0
 22 21  1  0  0  0  0
 23 26  1  0  0  0  0
 24 23  2  0  0  0  0
 25 24  1  0  0  0  0
 27 33  1  6  0  0  0
 27 29  1  0  0  0  0
 27 28  1  0  0  0  0
 27 34  1  0  0  0  0
 29 26  1  6  0  0  0
 29 28  1  0  0  0  0
 30 34  1  0  0  0  0
 31 33  2  0  0  0  0
 31 32  1  0  0  0  0
 32 30  2  0  0  0  0
 36 39  2  0  0  0  0
 36 37  1  0  0  0  0
 37 41  2  0  0  0  0
 39 40  1  0  0  0  0
 40 35  1  0  0  0  0
 40 38  2  0  0  0  0
 41 38  1  0  0  0  0
 42 43  1  0  0  0  0
 43 37  1  0  0  0  0
M  END
>  <MODEL>
2

>  <REMARK>
 VINA RESULT:      -8.1      1.370      2.965
  Name = 
  9 active torsions:
  status: ('A' for Active; 'I' for Inactive)
    1  A    between atoms: C_1  and  C_34
    2  A    between atoms: C_1  and  C_35
    3  A    between atoms: C_2  and  C_27
    4  A    between atoms: C_3  and  N_4
    5  A    between atoms: C_3  and  C_12
    6  A    between atoms: N_4  and  C_15
    7  A    between atoms: C_10  and  C_41
    8  A    between atoms: C_19  and  O_37
    9  A    between atoms: C_22  and  C_41
                            x       y       z     vdW  Elec       q    Type
                         _______ _______ _______ _____ _____    ______ ____

>  <TORSDO>
F 9

$$$$
=
 OpenBabel11052421203D

 43 48  0  0  1  0  0  0  0  0999 V2000
  184.2880  178.8770  144.8600 O   0  0  0  0  0  0  0  0  0  0  0  0
  188.1840  176.1150  143.5680 C   0  0  2  0  0  3  0  0  0  0  0  0
  189.1850  176.6140  145.7960 C   0  0  0  0  0  2  0  0  0  0  0  0
  186.4710  178.1860  144.0800 C   0  0  2  0  0  3  0  0  0  0  0  0
  184.7720  177.6100  146.8570 C   0  0  0  0  0  2  0  0  0  0  0  0
  184.4610  178.9760  146.2440 C   0  0  0  0  0  2  0  0  0  0  0  0
  186.8270  177.3850  145.3540 C   0  0  1  0  0  3  0  0  0  0  0  0
  185.4950  179.3380  144.3220 C   0  0  0  0  0  2  0  0  0  0  0  0
  185.5960  176.6950  145.9460 C   0  0  0  0  0  2  0  0  0  0  0  0
  190.2840  175.6300  145.4620 C   0  0  0  0  0  0  0  0  0  0  0  0
  187.8860  176.3100  145.0620 C   0  0  1  0  0  3  0  0  0  0  0  0
  186.8720  176.0070  142.7910 C   0  0  0  0  0  2  0  0  0  0  0  0
  189.0560  174.8710  143.4000 C   0  0  2  0  0  3  0  0  0  0  0  0
  190.2460  174.9060  144.3300 C   0  0  0  0  0  3  0  0  0  0  0  0
  186.0330  177.2900  142.9120 C   0  0  0  0  0  2  0  0  0  0  0  0
  191.5030  175.6040  146.2980 C   0  0  0  0  0  0  0  0  0  0  0  0
  192.8110  175.6580  145.7160 N   0  0  0  0  0  2  0  0  0  0  0  0
  191.4020  175.4830  147.5490 O   0  0  0  0  0  0  0  0  0  0  0  0
  193.1440  176.4310  144.5590 C   0  0  0  0  0  0  0  0  0  0  0  0
  192.4270  177.4070  144.2130 O   0  0  0  0  0  0  0  0  0  0  0  0
  194.3470  176.0770  143.7550 C   0  0  0  0  0  2  0  0  0  0  0  0
  195.3830  175.5350  144.6270 N   0  0  0  0  0  2  0  0  0  0  0  0
  197.5000  174.3080  144.7980 C   0  0  0  0  0  3  0  0  0  0  0  0
  196.7510  175.2810  144.2670 C   0  0  0  0  0  0  0  0  0  0  0  0
  197.3690  176.1290  143.2140 C   0  0  0  0  0  1  0  0  0  0  0  0
  197.0300  173.3210  145.8120 C   0  0  0  0  0  2  0  0  0  0  0  0
  195.5020  171.4170  145.1250 C   0  0  2  0  0  0  0  0  0  0  0  0
  196.4270  170.9430  146.2210 C   0  0  0  0  0  2  0  0  0  0  0  0
  196.9330  171.9400  145.1840 C   0  0  2  0  0  3  0  0  0  0  0  0
  194.0860  170.7950  143.1630 C   0  0  0  0  0  3  0  0  0  0  0  0
  193.2720  172.3860  144.8530 C   0  0  0  0  0  3  0  0  0  0  0  0
  193.1790  171.7030  143.5460 C   0  0  0  0  0  3  0  0  0  0  0  0
  194.3540  172.2510  145.6210 C   0  0  0  0  0  3  0  0  0  0  0  0
  195.2090  170.3570  144.0670 C   0  0  0  0  0  2  0  0  0  0  0  0
  189.5310  174.7370  141.9580 C   0  0  0  0  0  2  0  0  0  0  0  0
  191.2790  171.7920  140.3380 C   0  0  0  0  0  3  0  0  0  0  0  0
  190.8310  170.7260  141.1270 C   0  0  0  0  0  0  0  0  0  0  0  0
  189.5230  172.2820  142.4590 C   0  0  0  0  0  3  0  0  0  0  0  0
  190.8520  173.0960  140.6060 C   0  0  0  0  0  3  0  0  0  0  0  0
  189.9720  173.3430  141.6640 C   0  0  0  0  0  0  0  0  0  0  0  0
  189.9490  170.9790  142.1920 C   0  0  0  0  0  3  0  0  0  0  0  0
  190.8040  168.2850  141.5230 C   0  0  0  0  0  1  0  0  0  0  0  0
  191.2760  169.4340  140.8350 O   0  0  0  0  0  0  0  0  0  0  0  0
  1  6  1  0  0  0  0
  2 12  1  6  0  0  0
  2 11  1  0  0  0  0
  4 15  1  6  0  0  0
  4  8  1  0  0  0  0
  4  7  1  0  0  0  0
  6  5  1  0  0  0  0
  7  9  1  6  0  0  0
  8  1  1  0  0  0  0
  9  5  1  0  0  0  0
 10  3  1  0  0  0  0
 10 16  1  0  0  0  0
 11  7  1  0  0  0  0
 11  3  1  1  0  0  0
 12 15  1  0  0  0  0
 13 35  1  6  0  0  0
 13  2  1  0  0  0  0
 13 14  1  0  0  0  0
 14 10  2  0  0  0  0
 16 18  2  0  0  0  0
 17 16  1  0  0  0  0
 19 17  1  0  0  0  0
 20 19  2  0  0  0  0
 21 19  1  0  0  0  0
 21 22  1  0  0  0  0
 23 26  1  0  0  0  0
 24 22  1  0  0  0  0
 24 23  2  0  0  0  0
 25 24  1  0  0  0  0
 27 34  1  6  0  0  0
 27 29  1  0  0  0  0
 27 33  1  0  0  0  0
 27 28  1  0  0  0  0
 29 26  1  1  0  0  0
 29 28  1  0  0  0  0
 30 32  2  0  0  0  0
 30 34  1  0  0  0  0
 31 33  2  0  0  0  0
 32 31  1  0  0  0  0
 36 39  2  0  0  0  0
 36 37  1  0  0  0  0
 37 41  2  0  0  0  0
 39 40  1  0  0  0  0
 40 35  1  0  0  0  0
 40 38  2  0  0  0  0
 41 38  1  0  0  0  0
 43 37  1  0  0  0  0
 43 42  1  0  0  0  0
M  END
>  <MODEL>
3

>  <REMARK>
 VINA RESULT:      -8.1      2.600      5.542
  Name = 
  9 active torsions:
  status: ('A' for Active; 'I' for Inactive)
    1  A    between atoms: C_1  and  C_34
    2  A    between atoms: C_1  and  C_35
    3  A    between atoms: C_2  and  C_27
    4  A    between atoms: C_3  and  N_4
    5  A    between atoms: C_3  and  C_12
    6  A    between atoms: N_4  and  C_15
    7  A    between atoms: C_10  and  C_41
    8  A    between atoms: C_19  and  O_37
    9  A    between atoms: C_22  and  C_41
                            x       y       z     vdW  Elec       q    Type
                         _______ _______ _______ _____ _____    ______ ____

>  <TORSDO>
F 9

$$$$
=
 OpenBabel11052421203D

 43 48  0  0  1  0  0  0  0  0999 V2000
  197.0900  173.5880  146.1030 O   0  0  0  0  0  0  0  0  0  0  0  0
  192.6190  175.2720  144.8140 C   0  0  2  0  0  3  0  0  0  0  0  0
  192.5930  173.5840  142.9790 C   0  0  0  0  0  2  0  0  0  0  0  0
  195.3050  174.7750  144.9810 C   0  0  2  0  0  3  0  0  0  0  0  0
  195.8420  171.5770  145.6260 C   0  0  0  0  0  2  0  0  0  0  0  0
  197.1360  172.3670  145.4240 C   0  0  0  0  0  2  0  0  0  0  0  0
  194.4900  173.5070  144.6360 C   0  0  1  0  0  3  0  0  0  0  0  0
  196.8090  174.5320  145.1080 C   0  0  0  0  0  2  0  0  0  0  0  0
  194.5920  172.4540  145.7420 C   0  0  0  0  0  2  0  0  0  0  0  0
  191.1610  173.9840  142.7050 C   0  0  0  0  0  0  0  0  0  0  0  0
  193.0040  173.8370  144.4230 C   0  0  1  0  0  3  0  0  0  0  0  0
  193.2010  175.6040  146.1880 C   0  0  0  0  0  2  0  0  0  0  0  0
  191.0970  175.3950  144.7890 C   0  0  2  0  0  3  0  0  0  0  0  0
  190.5260  174.8690  143.4930 C   0  0  0  0  0  3  0  0  0  0  0  0
  194.7370  175.5420  146.1860 C   0  0  0  0  0  2  0  0  0  0  0  0
  190.5190  173.5410  141.4490 C   0  0  0  0  0  0  0  0  0  0  0  0
  190.4990  172.1600  141.0660 N   0  0  0  0  0  2  0  0  0  0  0  0
  190.0180  174.3930  140.6670 O   0  0  0  0  0  0  0  0  0  0  0  0
  190.3560  171.0740  141.9850 C   0  0  0  0  0  0  0  0  0  0  0  0
  189.8510  171.2600  143.1240 O   0  0  0  0  0  0  0  0  0  0  0  0
  190.8120  169.7100  141.5940 C   0  0  0  0  0  2  0  0  0  0  0  0
  192.2660  169.6880  141.4840 N   0  0  0  0  0  2  0  0  0  0  0  0
  194.3620  170.5160  142.4540 C   0  0  0  0  0  3  0  0  0  0  0  0
  193.2050  169.8540  142.5600 C   0  0  0  0  0  0  0  0  0  0  0  0
  192.8570  169.2830  143.8870 C   0  0  0  0  0  1  0  0  0  0  0  0
  194.8420  171.2090  141.2250 C   0  0  0  0  0  2  0  0  0  0  0  0
  195.8660  173.4960  140.8330 C   0  0  2  0  0  0  0  0  0  0  0  0
  196.8200  172.4330  140.3420 C   0  0  0  0  0  2  0  0  0  0  0  0
  195.9660  172.1700  141.5780 C   0  0  2  0  0  3  0  0  0  0  0  0
  195.5880  175.8230  141.7000 C   0  0  0  0  0  3  0  0  0  0  0  0
  194.0660  174.9230  139.9900 C   0  0  0  0  0  3  0  0  0  0  0  0
  194.4610  175.9410  140.9860 C   0  0  0  0  0  3  0  0  0  0  0  0
  194.7270  173.7690  139.8910 C   0  0  0  0  0  3  0  0  0  0  0  0
  196.5600  174.6930  141.4780 C   0  0  0  0  0  2  0  0  0  0  0  0
  190.6710  176.8450  144.9900 C   0  0  0  0  0  2  0  0  0  0  0  0
  186.9910  177.7440  144.9360 C   0  0  0  0  0  3  0  0  0  0  0  0
  186.5180  177.0780  146.0730 C   0  0  0  0  0  0  0  0  0  0  0  0
  188.7650  176.2630  146.5100 C   0  0  0  0  0  3  0  0  0  0  0  0
  188.3430  177.6720  144.5860 C   0  0  0  0  0  3  0  0  0  0  0  0
  189.2320  176.9340  145.3750 C   0  0  0  0  0  0  0  0  0  0  0  0
  187.4140  176.3350  146.8590 C   0  0  0  0  0  3  0  0  0  0  0  0
  184.3870  178.3320  146.1340 C   0  0  0  0  0  1  0  0  0  0  0  0
  185.1620  177.1700  146.3950 O   0  0  0  0  0  0  0  0  0  0  0  0
  2 12  1  1  0  0  0
  4  8  1  1  0  0  0
  4 15  1  0  0  0  0
  5  9  1  0  0  0  0
  6  5  1  0  0  0  0
  6  1  1  0  0  0  0
  7  4  1  0  0  0  0
  7  9  1  1  0  0  0
  8  1  1  0  0  0  0
 10  3  1  0  0  0  0
 10 14  2  0  0  0  0
 11  3  1  6  0  0  0
 11  7  1  0  0  0  0
 11  2  1  0  0  0  0
 13  2  1  0  0  0  0
 13 35  1  6  0  0  0
 14 13  1  0  0  0  0
 15 12  1  0  0  0  0
 16 10  1  0  0  0  0
 17 16  1  0  0  0  0
 17 19  1  0  0  0  0
 18 16  2  0  0  0  0
 19 20  2  0  0  0  0
 21 19  1  0  0  0  0
 22 21  1  0  0  0  0
 22 24  1  0  0  0  0
 23 24  2  0  0  0  0
 24 25  1  0  0  0  0
 26 23  1  0  0  0  0
 27 33  1  6  0  0  0
 27 34  1  0  0  0  0
 27 29  1  0  0  0  0
 28 27  1  0  0  0  0
 28 29  1  0  0  0  0
 29 26  1  6  0  0  0
 31 32  1  0  0  0  0
 32 30  2  0  0  0  0
 33 31  2  0  0  0  0
 34 30  1  0  0  0  0
 35 40  1  0  0  0  0
 36 37  1  0  0  0  0
 37 43  1  0  0  0  0
 37 41  2  0  0  0  0
 38 41  1  0  0  0  0
 39 36  2  0  0  0  0
 39 40  1  0  0  0  0
 40 38  2  0  0  0  0
 42 43  1  0  0  0  0
M  END
>  <MODEL>
4

>  <REMARK>
 VINA RESULT:      -8.0      1.575      6.604
  Name = 
  9 active torsions:
  status: ('A' for Active; 'I' for Inactive)
    1  A    between atoms: C_1  and  C_34
    2  A    between atoms: C_1  and  C_35
    3  A    between atoms: C_2  and  C_27
    4  A    between atoms: C_3  and  N_4
    5  A    between atoms: C_3  and  C_12
    6  A    between atoms: N_4  and  C_15
    7  A    between atoms: C_10  and  C_41
    8  A    between atoms: C_19  and  O_37
    9  A    between atoms: C_22  and  C_41
                            x       y       z     vdW  Elec       q    Type
                         _______ _______ _______ _____ _____    ______ ____

>  <TORSDO>
F 9

$$$$
=
 OpenBabel11052421203D

 43 48  0  0  1  0  0  0  0  0999 V2000
  184.3350  178.7330  144.2980 O   0  0  0  0  0  0  0  0  0  0  0  0
  188.5840  176.2170  143.9940 C   0  0  2  0  0  3  0  0  0  0  0  0
  189.1940  177.1170  146.2380 C   0  0  0  0  0  2  0  0  0  0  0  0
  186.6580  178.1600  143.9430 C   0  0  2  0  0  3  0  0  0  0  0  0
  184.6080  177.8110  146.5130 C   0  0  0  0  0  2  0  0  0  0  0  0
  184.2880  179.0410  145.6610 C   0  0  0  0  0  2  0  0  0  0  0  0
  186.8780  177.5830  145.3610 C   0  0  1  0  0  3  0  0  0  0  0  0
  185.5700  179.2320  143.8700 C   0  0  0  0  0  2  0  0  0  0  0  0
  185.6280  176.8640  145.8750 C   0  0  0  0  0  2  0  0  0  0  0  0
  190.4030  176.2100  146.2130 C   0  0  0  0  0  0  0  0  0  0  0  0
  188.0490  176.5870  145.3860 C   0  0  1  0  0  3  0  0  0  0  0  0
  187.4170  175.8720  143.0690 C   0  0  0  0  0  2  0  0  0  0  0  0
  189.5640  175.0540  144.1410 C   0  0  2  0  0  3  0  0  0  0  0  0
  190.5930  175.3360  145.2100 C   0  0  0  0  0  3  0  0  0  0  0  0
  186.4720  177.0700  142.8760 C   0  0  0  0  0  2  0  0  0  0  0  0
  191.4800  176.4220  147.2040 C   0  0  0  0  0  0  0  0  0  0  0  0
  192.8520  176.1530  146.8870 N   0  0  0  0  0  2  0  0  0  0  0  0
  191.1910  176.8010  148.3710 O   0  0  0  0  0  0  0  0  0  0  0  0
  193.4420  176.3940  145.6070 C   0  0  0  0  0  0  0  0  0  0  0  0
  192.9190  177.2090  144.8030 O   0  0  0  0  0  0  0  0  0  0  0  0
  194.6870  175.6720  145.2200 C   0  0  0  0  0  2  0  0  0  0  0  0
  194.6450  175.3400  143.8010 N   0  0  0  0  0  2  0  0  0  0  0  0
  195.7680  175.0560  141.6380 C   0  0  0  0  0  3  0  0  0  0  0  0
  195.6410  175.6710  142.8180 C   0  0  0  0  0  0  0  0  0  0  0  0
  196.5720  176.7910  143.1150 C   0  0  0  0  0  1  0  0  0  0  0  0
  194.8830  173.9620  141.1430 C   0  0  0  0  0  2  0  0  0  0  0  0
  193.2560  173.5390  139.2450 C   0  0  2  0  0  0  0  0  0  0  0  0
  194.2630  174.5790  138.8140 C   0  0  0  0  0  2  0  0  0  0  0  0
  193.7870  174.5410  140.2620 C   0  0  2  0  0  3  0  0  0  0  0  0
  190.9620  172.5950  138.9480 C   0  0  0  0  0  3  0  0  0  0  0  0
  192.9170  171.1170  139.1540 C   0  0  0  0  0  3  0  0  0  0  0  0
  191.4600  171.3630  139.1140 C   0  0  0  0  0  3  0  0  0  0  0  0
  193.7820  172.1310  139.1990 C   0  0  0  0  0  3  0  0  0  0  0  0
  191.8470  173.7910  138.7130 C   0  0  0  0  0  2  0  0  0  0  0  0
  190.2610  174.7680  142.8150 C   0  0  0  0  0  2  0  0  0  0  0  0
  192.3690  171.6190  142.8240 C   0  0  0  0  0  3  0  0  0  0  0  0
  191.4090  170.6330  142.5630 C   0  0  0  0  0  0  0  0  0  0  0  0
  189.6950  172.3530  142.4590 C   0  0  0  0  0  3  0  0  0  0  0  0
  191.9960  172.9650  142.9010 C   0  0  0  0  0  3  0  0  0  0  0  0
  190.6590  173.3330  142.7160 C   0  0  0  0  0  0  0  0  0  0  0  0
  190.0670  171.0080  142.3820 C   0  0  0  0  0  3  0  0  0  0  0  0
  191.1910  168.3520  141.6350 C   0  0  0  0  0  1  0  0  0  0  0  0
  191.8130  169.2980  142.4930 O   0  0  0  0  0  0  0  0  0  0  0  0
  1  6  1  0  0  0  0
  2 12  1  6  0  0  0
  2 13  1  0  0  0  0
  2 11  1  0  0  0  0
  4 15  1  6  0  0  0
  4  7  1  0  0  0  0
  6  5  1  0  0  0  0
  7 11  1  0  0  0  0
  7  9  1  6  0  0  0
  8  4  1  0  0  0  0
  8  1  1  0  0  0  0
  9  5  1  0  0  0  0
 10  3  1  0  0  0  0
 10 16  1  0  0  0  0
 11  3  1  1  0  0  0
 13 35  1  6  0  0  0
 13 14  1  0  0  0  0
 14 10  2  0  0  0  0
 15 12  1  0  0  0  0
 16 18  2  0  0  0  0
 17 16  1  0  0  0  0
 19 17  1  0  0  0  0
 20 19  2  0  0  0  0
 21 19  1  0  0  0  0
 22 21  1  0  0  0  0
 23 24  2  0  0  0  0
 24 25  1  0  0  0  0
 24 22  1  0  0  0  0
 26 23  1  0  0  0  0
 27 34  1  6  0  0  0
 27 29  1  0  0  0  0
 28 27  1  0  0  0  0
 28 29  1  0  0  0  0
 29 26  1  1  0  0  0
 30 32  2  0  0  0  0
 31 33  2  0  0  0  0
 32 31  1  0  0  0  0
 33 27  1  0  0  0  0
 34 30  1  0  0  0  0
 36 39  1  0  0  0  0
 37 36  2  0  0  0  0
 38 40  1  0  0  0  0
 40 35  1  0  0  0  0
 40 39  2  0  0  0  0
 41 38  2  0  0  0  0
 41 37  1  0  0  0  0
 42 43  1  0  0  0  0
 43 37  1  0  0  0  0
M  END
>  <MODEL>
5

>  <REMARK>
 VINA RESULT:      -7.4      2.397      4.973
  Name = 
  9 active torsions:
  status: ('A' for Active; 'I' for Inactive)
    1  A    between atoms: C_1  and  C_34
    2  A    between atoms: C_1  and  C_35
    3  A    between atoms: C_2  and  C_27
    4  A    between atoms: C_3  and  N_4
    5  A    between atoms: C_3  and  C_12
    6  A    between atoms: N_4  and  C_15
    7  A    between atoms: C_10  and  C_41
    8  A    between atoms: C_19  and  O_37
    9  A    between atoms: C_22  and  C_41
                            x       y       z     vdW  Elec       q    Type
                         _______ _______ _______ _____ _____    ______ ____

>  <TORSDO>
F 9

$$$$
=
 OpenBabel11052421203D

 43 48  0  0  1  0  0  0  0  0999 V2000
  195.3910  175.4600  146.1460 O   0  0  0  0  0  0  0  0  0  0  0  0
  190.4690  175.9000  145.8950 C   0  0  2  0  0  3  0  0  0  0  0  0
  190.6350  175.5470  143.4320 C   0  0  0  0  0  2  0  0  0  0  0  0
  193.1660  176.3550  145.8250 C   0  0  2  0  0  3  0  0  0  0  0  0
  194.7440  173.7190  144.6040 C   0  0  0  0  0  2  0  0  0  0  0  0
  195.6850  174.8860  144.9050 C   0  0  0  0  0  2  0  0  0  0  0  0
  192.7240  175.2700  144.8160 C   0  0  1  0  0  3  0  0  0  0  0  0
  194.6720  176.6200  145.8330 C   0  0  0  0  0  2  0  0  0  0  0  0
  193.3270  173.9060  145.1560 C   0  0  0  0  0  2  0  0  0  0  0  0
  189.1250  175.5060  143.3910 C   0  0  0  0  0  0  0  0  0  0  0  0
  191.1940  175.1240  144.7840 C   0  0  1  0  0  3  0  0  0  0  0  0
  191.1520  175.6360  147.2370 C   0  0  0  0  0  2  0  0  0  0  0  0
  188.9990  175.4820  145.9050 C   0  0  2  0  0  3  0  0  0  0  0  0
  188.3990  175.5580  144.5210 C   0  0  0  0  0  3  0  0  0  0  0  0
  192.6100  176.1200  147.2380 C   0  0  0  0  0  2  0  0  0  0  0  0
  188.4390  175.6010  142.0840 C   0  0  0  0  0  0  0  0  0  0  0  0
  188.6520  174.6270  141.0550 N   0  0  0  0  0  2  0  0  0  0  0  0
  187.6870  176.5830  141.8410 O   0  0  0  0  0  0  0  0  0  0  0  0
  188.8420  173.2300  141.2990 C   0  0  0  0  0  0  0  0  0  0  0  0
  188.4500  172.7080  142.3760 O   0  0  0  0  0  0  0  0  0  0  0  0
  189.5120  172.3850  140.2710 C   0  0  0  0  0  2  0  0  0  0  0  0
  190.6060  171.6390  140.8820 N   0  0  0  0  0  2  0  0  0  0  0  0
  192.4250  173.1170  141.6080 C   0  0  0  0  0  3  0  0  0  0  0  0
  191.5440  172.1410  141.8500 C   0  0  0  0  0  0  0  0  0  0  0  0
  191.5120  171.5640  143.2190 C   0  0  0  0  0  1  0  0  0  0  0  0
  192.5530  173.8550  140.3190 C   0  0  0  0  0  2  0  0  0  0  0  0
  194.8990  174.6520  139.7780 C   0  0  2  0  0  0  0  0  0  0  0  0
  194.1260  174.4710  138.4930 C   0  0  0  0  0  2  0  0  0  0  0  0
  193.8830  173.5220  139.6620 C   0  0  2  0  0  3  0  0  0  0  0  0
  197.1380  174.7090  140.8860 C   0  0  0  0  0  3  0  0  0  0  0  0
  195.4280  176.3980  141.4080 C   0  0  0  0  0  3  0  0  0  0  0  0
  196.7150  175.7170  141.6590 C   0  0  0  0  0  3  0  0  0  0  0  0
  194.5640  175.9200  140.5120 C   0  0  0  0  0  3  0  0  0  0  0  0
  196.3700  174.2580  139.6700 C   0  0  0  0  0  2  0  0  0  0  0  0
  188.1980  176.3550  146.8650 C   0  0  0  0  0  2  0  0  0  0  0  0
  184.7090  177.4500  145.8740 C   0  0  0  0  0  3  0  0  0  0  0  0
  184.9790  178.3720  144.8550 C   0  0  0  0  0  0  0  0  0  0  0  0
  187.3580  177.9710  145.1440 C   0  0  0  0  0  3  0  0  0  0  0  0
  185.7570  176.7900  146.5240 C   0  0  0  0  0  3  0  0  0  0  0  0
  187.0820  177.0470  146.1580 C   0  0  0  0  0  0  0  0  0  0  0  0
  186.3130  178.6310  144.4940 C   0  0  0  0  0  3  0  0  0  0  0  0
  183.4640  178.6650  142.9230 C   0  0  0  0  0  1  0  0  0  0  0  0
  183.9110  179.0150  144.2250 O   0  0  0  0  0  0  0  0  0  0  0  0
  2 13  1  0  0  0  0
  2 12  1  1  0  0  0
  4  8  1  1  0  0  0
  4 15  1  0  0  0  0
  5  6  1  0  0  0  0
  5  9  1  0  0  0  0
  6  1  1  0  0  0  0
  7  9  1  1  0  0  0
  7  4  1  0  0  0  0
  8  1  1  0  0  0  0
 10  3  1  0  0  0  0
 10 14  2  0  0  0  0
 11  3  1  6  0  0  0
 11  7  1  0  0  0  0
 11  2  1  0  0  0  0
 12 15  1  0  0  0  0
 13 35  1  1  0  0  0
 14 13  1  0  0  0  0
 16 10  1  0  0  0  0
 17 19  1  0  0  0  0
 17 16  1  0  0  0  0
 18 16  2  0  0  0  0
 19 20  2  0  0  0  0
 21 22  1  0  0  0  0
 21 19  1  0  0  0  0
 22 24  1  0  0  0  0
 23 24  2  0  0  0  0
 24 25  1  0  0  0  0
 26 23  1  0  0  0  0
 27 28  1  6  0  0  0
 27 33  1  0  0  0  0
 28 29  1  0  0  0  0
 29 27  1  0  0  0  0
 29 26  1  1  0  0  0
 30 32  2  0  0  0  0
 31 32  1  0  0  0  0
 33 31  2  0  0  0  0
 34 27  1  0  0  0  0
 34 30  1  0  0  0  0
 36 39  1  0  0  0  0
 37 36  2  0  0  0  0
 38 40  1  0  0  0  0
 40 39  2  0  0  0  0
 40 35  1  0  0  0  0
 41 37  1  0  0  0  0
 41 38  2  0  0  0  0
 42 43  1  0  0  0  0
 43 37  1  0  0  0  0
M  END
>  <MODEL>
6

>  <REMARK>
 VINA RESULT:      -7.3      1.259      6.054
  Name = 
  9 active torsions:
  status: ('A' for Active; 'I' for Inactive)
    1  A    between atoms: C_1  and  C_34
    2  A    between atoms: C_1  and  C_35
    3  A    between atoms: C_2  and  C_27
    4  A    between atoms: C_3  and  N_4
    5  A    between atoms: C_3  and  C_12
    6  A    between atoms: N_4  and  C_15
    7  A    between atoms: C_10  and  C_41
    8  A    between atoms: C_19  and  O_37
    9  A    between atoms: C_22  and  C_41
                            x       y       z     vdW  Elec       q    Type
                         _______ _______ _______ _____ _____    ______ ____

>  <TORSDO>
F 9

$$$$
=
 OpenBabel11052421203D

 43 48  0  0  1  0  0  0  0  0999 V2000
  197.9410  170.0540  145.0020 O   0  0  0  0  0  0  0  0  0  0  0  0
  194.4940  173.5930  145.2570 C   0  0  2  0  0  3  0  0  0  0  0  0
  192.7840  171.8680  144.6930 C   0  0  0  0  0  2  0  0  0  0  0  0
  196.3460  171.7700  144.4010 C   0  0  2  0  0  3  0  0  0  0  0  0
  196.1170  168.9850  146.1680 C   0  0  0  0  0  2  0  0  0  0  0  0
  197.1590  168.8960  145.0520 C   0  0  0  0  0  2  0  0  0  0  0  0
  195.1480  171.1040  145.1160 C   0  0  1  0  0  3  0  0  0  0  0  0
  197.4160  170.7850  143.9300 C   0  0  0  0  0  2  0  0  0  0  0  0
  195.5820  170.4010  146.4040 C   0  0  0  0  0  2  0  0  0  0  0  0
  191.7230  172.9150  144.9460 C   0  0  0  0  0  0  0  0  0  0  0  0
  194.0640  172.1340  145.4730 C   0  0  1  0  0  3  0  0  0  0  0  0
  195.8760  173.8190  145.8690 C   0  0  0  0  0  2  0  0  0  0  0  0
  193.4370  174.5100  145.8700 C   0  0  2  0  0  3  0  0  0  0  0  0
  192.0490  174.1350  145.4060 C   0  0  0  0  0  3  0  0  0  0  0  0
  196.9450  172.9390  145.1990 C   0  0  0  0  0  2  0  0  0  0  0  0
  190.3370  172.6530  144.5040 C   0  0  0  0  0  0  0  0  0  0  0  0
  189.7230  173.4290  143.4670 N   0  0  0  0  0  2  0  0  0  0  0  0
  189.6540  171.7630  145.0790 O   0  0  0  0  0  0  0  0  0  0  0  0
  190.4160  173.9220  142.3170 C   0  0  0  0  0  0  0  0  0  0  0  0
  191.4940  173.3900  141.9400 O   0  0  0  0  0  0  0  0  0  0  0  0
  189.8600  175.0780  141.5590 C   0  0  0  0  0  2  0  0  0  0  0  0
  189.1710  175.9820  142.4720 N   0  0  0  0  0  2  0  0  0  0  0  0
  188.3350  178.2660  142.1480 C   0  0  0  0  0  3  0  0  0  0  0  0
  189.2990  177.4140  142.5110 C   0  0  0  0  0  0  0  0  0  0  0  0
  190.5720  177.9900  143.0190 C   0  0  0  0  0  1  0  0  0  0  0  0
  186.9750  177.8720  141.6810 C   0  0  0  0  0  2  0  0  0  0  0  0
  185.4290  178.1550  143.6710 C   0  0  2  0  0  0  0  0  0  0  0  0
  184.6020  177.9850  142.4190 C   0  0  0  0  0  2  0  0  0  0  0  0
  185.9240  178.7410  142.3540 C   0  0  2  0  0  3  0  0  0  0  0  0
  185.5490  179.0650  145.9950 C   0  0  0  0  0  3  0  0  0  0  0  0
  186.3780  176.8080  145.4800 C   0  0  0  0  0  3  0  0  0  0  0  0
  186.2280  177.9750  146.3730 C   0  0  0  0  0  3  0  0  0  0  0  0
  185.9920  176.8670  144.2050 C   0  0  0  0  0  3  0  0  0  0  0  0
  184.8310  179.1410  144.6720 C   0  0  0  0  0  2  0  0  0  0  0  0
  193.7220  175.9670  145.5240 C   0  0  0  0  0  2  0  0  0  0  0  0
  194.5210  175.8360  141.8230 C   0  0  0  0  0  3  0  0  0  0  0  0
  195.8360  176.3160  141.7980 C   0  0  0  0  0  0  0  0  0  0  0  0
  195.7740  176.5620  144.2150 C   0  0  0  0  0  3  0  0  0  0  0  0
  193.8350  175.7180  143.0350 C   0  0  0  0  0  3  0  0  0  0  0  0
  194.4620  176.0780  144.2330 C   0  0  0  0  0  0  0  0  0  0  0  0
  196.4600  176.6800  143.0040 C   0  0  0  0  0  3  0  0  0  0  0  0
  196.4480  175.4020  139.5830 C   0  0  0  0  0  1  0  0  0  0  0  0
  196.4940  176.4220  140.5700 O   0  0  0  0  0  0  0  0  0  0  0  0
  1  6  1  0  0  0  0
  2 11  1  0  0  0  0
  2 12  1  1  0  0  0
  2 13  1  0  0  0  0
  3 10  1  0  0  0  0
  4  8  1  1  0  0  0
  4  7  1  0  0  0  0
  4 15  1  0  0  0  0
  5  9  1  0  0  0  0
  6  5  1  0  0  0  0
  7 11  1  0  0  0  0
  7  9  1  1  0  0  0
  8  1  1  0  0  0  0
 10 14  2  0  0  0  0
 11  3  1  6  0  0  0
 13 35  1  6  0  0  0
 14 13  1  0  0  0  0
 15 12  1  0  0  0  0
 16 10  1  0  0  0  0
 16 18  2  0  0  0  0
 17 16  1  0  0  0  0
 19 17  1  0  0  0  0
 20 19  2  0  0  0  0
 21 19  1  0  0  0  0
 21 22  1  0  0  0  0
 22 24  1  0  0  0  0
 23 24  2  0  0  0  0
 24 25  1  0  0  0  0
 26 23  1  0  0  0  0
 27 28  1  6  0  0  0
 27 33  1  0  0  0  0
 27 34  1  0  0  0  0
 29 26  1  6  0  0  0
 29 28  1  0  0  0  0
 29 27  1  0  0  0  0
 30 32  2  0  0  0  0
 31 32  1  0  0  0  0
 33 31  2  0  0  0  0
 34 30  1  0  0  0  0
 36 39  1  0  0  0  0
 37 36  2  0  0  0  0
 37 41  1  0  0  0  0
 38 40  1  0  0  0  0
 39 40  2  0  0  0  0
 40 35  1  0  0  0  0
 41 38  2  0  0  0  0
 42 43  1  0  0  0  0
 43 37  1  0  0  0  0
M  END
>  <MODEL>
7

>  <REMARK>
 VINA RESULT:      -7.3      2.438      8.675
  Name = 
  9 active torsions:
  status: ('A' for Active; 'I' for Inactive)
    1  A    between atoms: C_1  and  C_34
    2  A    between atoms: C_1  and  C_35
    3  A    between atoms: C_2  and  C_27
    4  A    between atoms: C_3  and  N_4
    5  A    between atoms: C_3  and  C_12
    6  A    between atoms: N_4  and  C_15
    7  A    between atoms: C_10  and  C_41
    8  A    between atoms: C_19  and  O_37
    9  A    between atoms: C_22  and  C_41
                            x       y       z     vdW  Elec       q    Type
                         _______ _______ _______ _____ _____    ______ ____

>  <TORSDO>
F 9

$$$$
=
 OpenBabel11052421203D

 43 48  0  0  1  0  0  0  0  0999 V2000
  197.2870  175.0250  144.2310 O   0  0  0  0  0  0  0  0  0  0  0  0
  192.4550  176.0870  144.2340 C   0  0  2  0  0  3  0  0  0  0  0  0
  192.1410  174.3270  142.4960 C   0  0  0  0  0  2  0  0  0  0  0  0
  195.1230  175.9320  143.6440 C   0  0  2  0  0  3  0  0  0  0  0  0
  196.2300  172.8570  144.1430 C   0  0  0  0  0  2  0  0  0  0  0  0
  197.3030  173.7890  143.5770 C   0  0  0  0  0  2  0  0  0  0  0  0
  194.4160  174.5590  143.5540 C   0  0  1  0  0  3  0  0  0  0  0  0
  196.6210  175.8810  143.3460 C   0  0  0  0  0  2  0  0  0  0  0  0
  194.9580  173.5790  144.5970 C   0  0  0  0  0  2  0  0  0  0  0  0
  190.6500  174.5360  142.6320 C   0  0  0  0  0  0  0  0  0  0  0  0
  192.9000  174.6940  143.7640 C   0  0  1  0  0  3  0  0  0  0  0  0
  193.3460  176.5510  145.3860 C   0  0  0  0  0  2  0  0  0  0  0  0
  190.9820  176.0220  144.6360 C   0  0  2  0  0  3  0  0  0  0  0  0
  190.1480  175.3710  143.5580 C   0  0  0  0  0  3  0  0  0  0  0  0
  194.8160  176.6780  144.9520 C   0  0  0  0  0  2  0  0  0  0  0  0
  189.7480  173.9600  141.6110 C   0  0  0  0  0  0  0  0  0  0  0  0
  189.8650  172.5930  141.1950 N   0  0  0  0  0  2  0  0  0  0  0  0
  188.8870  174.6910  141.0530 O   0  0  0  0  0  0  0  0  0  0  0  0
  190.2090  171.5150  142.0690 C   0  0  0  0  0  0  0  0  0  0  0  0
  190.0500  171.6220  143.3140 O   0  0  0  0  0  0  0  0  0  0  0  0
  190.7650  170.2540  141.5030 C   0  0  0  0  0  2  0  0  0  0  0  0
  191.9840  170.5420  140.7560 N   0  0  0  0  0  2  0  0  0  0  0  0
  193.8480  170.5140  142.3500 C   0  0  0  0  0  3  0  0  0  0  0  0
  193.2160  171.0460  141.2990 C   0  0  0  0  0  0  0  0  0  0  0  0
  193.8510  172.2120  140.6310 C   0  0  0  0  0  1  0  0  0  0  0  0
  193.3980  169.3070  143.1000 C   0  0  0  0  0  2  0  0  0  0  0  0
  194.6660  168.9960  145.2740 C   0  0  2  0  0  0  0  0  0  0  0  0
  193.3460  168.2650  145.3580 C   0  0  0  0  0  2  0  0  0  0  0  0
  193.4340  169.5820  144.5950 C   0  0  2  0  0  3  0  0  0  0  0  0
  196.5210  170.1200  146.5130 C   0  0  0  0  0  3  0  0  0  0  0  0
  196.9960  168.5750  144.6590 C   0  0  0  0  0  3  0  0  0  0  0  0
  197.3990  169.5970  145.6480 C   0  0  0  0  0  3  0  0  0  0  0  0
  195.7120  168.2650  144.4790 C   0  0  0  0  0  3  0  0  0  0  0  0
  195.0920  169.6460  146.5870 C   0  0  0  0  0  2  0  0  0  0  0  0
  190.4440  177.4160  144.9360 C   0  0  0  0  0  2  0  0  0  0  0  0
  186.6810  177.8530  144.8490 C   0  0  0  0  0  3  0  0  0  0  0  0
  186.2960  177.2390  146.0470 C   0  0  0  0  0  0  0  0  0  0  0  0
  188.6270  176.7460  146.5250 C   0  0  0  0  0  3  0  0  0  0  0  0
  188.0310  177.9140  144.4900 C   0  0  0  0  0  3  0  0  0  0  0  0
  189.0060  177.3640  145.3290 C   0  0  0  0  0  0  0  0  0  0  0  0
  187.2780  176.6840  146.8850 C   0  0  0  0  0  3  0  0  0  0  0  0
  184.0660  178.2990  146.1930 C   0  0  0  0  0  1  0  0  0  0  0  0
  184.9390  177.1940  146.3770 O   0  0  0  0  0  0  0  0  0  0  0  0
  2 13  1  0  0  0  0
  2 12  1  1  0  0  0
  3 10  1  0  0  0  0
  4  8  1  1  0  0  0
  4 15  1  0  0  0  0
  5  9  1  0  0  0  0
  6  5  1  0  0  0  0
  6  1  1  0  0  0  0
  7  4  1  0  0  0  0
  7 11  1  0  0  0  0
  7  9  1  1  0  0  0
  8  1  1  0  0  0  0
 10 14  2  0  0  0  0
 11  3  1  6  0  0  0
 11  2  1  0  0  0  0
 13 35  1  6  0  0  0
 14 13  1  0  0  0  0
 15 12  1  0  0  0  0
 16 10  1  0  0  0  0
 17 16  1  0  0  0  0
 17 19  1  0  0  0  0
 18 16  2  0  0  0  0
 19 20  2  0  0  0  0
 21 19  1  0  0  0  0
 22 24  1  0  0  0  0
 22 21  1  0  0  0  0
 23 26  1  0  0  0  0
 24 23  2  0  0  0  0
 25 24  1  0  0  0  0
 27 33  1  6  0  0  0
 27 28  1  0  0  0  0
 27 34  1  0  0  0  0
 29 26  1  6  0  0  0
 29 27  1  0  0  0  0
 29 28  1  0  0  0  0
 30 34  1  0  0  0  0
 31 32  1  0  0  0  0
 32 30  2  0  0  0  0
 33 31  2  0  0  0  0
 35 40  1  0  0  0  0
 36 37  1  0  0  0  0
 37 43  1  0  0  0  0
 37 41  2  0  0  0  0
 38 41  1  0  0  0  0
 39 36  2  0  0  0  0
 39 40  1  0  0  0  0
 40 38  2  0  0  0  0
 42 43  1  0  0  0  0
M  END
>  <MODEL>
8

>  <REMARK>
 VINA RESULT:      -7.3      2.081      7.375
  Name = 
  9 active torsions:
  status: ('A' for Active; 'I' for Inactive)
    1  A    between atoms: C_1  and  C_34
    2  A    between atoms: C_1  and  C_35
    3  A    between atoms: C_2  and  C_27
    4  A    between atoms: C_3  and  N_4
    5  A    between atoms: C_3  and  C_12
    6  A    between atoms: N_4  and  C_15
    7  A    between atoms: C_10  and  C_41
    8  A    between atoms: C_19  and  O_37
    9  A    between atoms: C_22  and  C_41
                            x       y       z     vdW  Elec       q    Type
                         _______ _______ _______ _____ _____    ______ ____

>  <TORSDO>
F 9

$$$$
=
 OpenBabel11052421203D

 43 48  0  0  1  0  0  0  0  0999 V2000
  184.6050  178.6580  146.4850 O   0  0  0  0  0  0  0  0  0  0  0  0
  188.6160  176.0030  145.3280 C   0  0  2  0  0  3  0  0  0  0  0  0
  187.6330  175.6380  143.0660 C   0  0  0  0  0  2  0  0  0  0  0  0
  186.1130  176.8100  146.0830 C   0  0  2  0  0  3  0  0  0  0  0  0
  185.1290  179.3720  144.2400 C   0  0  0  0  0  2  0  0  0  0  0  0
  184.0560  178.9020  145.2230 C   0  0  0  0  0  2  0  0  0  0  0  0
  186.4540  177.2220  144.6320 C   0  0  1  0  0  3  0  0  0  0  0  0
  184.7300  177.2660  146.5490 C   0  0  0  0  0  2  0  0  0  0  0  0
  186.5050  178.7440  144.4770 C   0  0  0  0  0  2  0  0  0  0  0  0
  188.9340  174.9810  142.6660 C   0  0  0  0  0  0  0  0  0  0  0  0
  187.8110  176.6490  144.1910 C   0  0  1  0  0  3  0  0  0  0  0  0
  188.6320  176.9340  146.5410 C   0  0  0  0  0  2  0  0  0  0  0  0
  190.0240  175.6980  144.8190 C   0  0  2  0  0  3  0  0  0  0  0  0
  189.9820  174.9490  143.5070 C   0  0  0  0  0  3  0  0  0  0  0  0
  187.2160  177.1810  147.0860 C   0  0  0  0  0  2  0  0  0  0  0  0
  188.9890  174.2020  141.4110 C   0  0  0  0  0  0  0  0  0  0  0  0
  189.5940  172.9040  141.3610 N   0  0  0  0  0  2  0  0  0  0  0  0
  188.5420  174.7020  140.3440 O   0  0  0  0  0  0  0  0  0  0  0  0
  189.5180  171.9420  142.4170 C   0  0  0  0  0  0  0  0  0  0  0  0
  188.6040  172.0100  143.2810 O   0  0  0  0  0  0  0  0  0  0  0  0
  190.5300  170.8520  142.4980 C   0  0  0  0  0  2  0  0  0  0  0  0
  190.8940  170.4150  141.1550 N   0  0  0  0  0  2  0  0  0  0  0  0
  192.6010  171.0350  139.5040 C   0  0  0  0  0  3  0  0  0  0  0  0
  192.2220  170.3740  140.6030 C   0  0  0  0  0  0  0  0  0  0  0  0
  193.2520  169.5740  141.3150 C   0  0  0  0  0  1  0  0  0  0  0  0
  191.7250  171.9380  138.7030 C   0  0  0  0  0  2  0  0  0  0  0  0
  189.9620  171.9040  136.8800 C   0  0  2  0  0  0  0  0  0  0  0  0
  189.6970  170.7770  137.8500 C   0  0  0  0  0  2  0  0  0  0  0  0
  191.1330  171.1750  137.5280 C   0  0  2  0  0  3  0  0  0  0  0  0
  189.6850  172.7770  134.5550 C   0  0  0  0  0  3  0  0  0  0  0  0
  189.3160  174.2340  136.5020 C   0  0  0  0  0  3  0  0  0  0  0  0
  189.4910  174.0050  135.0530 C   0  0  0  0  0  3  0  0  0  0  0  0
  189.5180  173.2510  137.3810 C   0  0  0  0  0  3  0  0  0  0  0  0
  189.6590  171.5480  135.4270 C   0  0  0  0  0  2  0  0  0  0  0  0
  190.8060  174.8910  145.8500 C   0  0  0  0  0  2  0  0  0  0  0  0
  194.4300  173.9500  145.2710 C   0  0  0  0  0  3  0  0  0  0  0  0
  195.0340  175.2080  145.1490 C   0  0  0  0  0  0  0  0  0  0  0  0
  192.8730  176.2620  145.4930 C   0  0  0  0  0  3  0  0  0  0  0  0
  193.0550  173.8480  145.5040 C   0  0  0  0  0  3  0  0  0  0  0  0
  192.2750  175.0040  145.6180 C   0  0  0  0  0  0  0  0  0  0  0  0
  194.2460  176.3650  145.2600 C   0  0  0  0  0  3  0  0  0  0  0  0
  197.2610  174.1410  144.9960 C   0  0  0  0  0  1  0  0  0  0  0  0
  196.4100  175.2760  144.9160 O   0  0  0  0  0  0  0  0  0  0  0  0
  1  8  1  0  0  0  0
  2 12  1  1  0  0  0
  4  8  1  1  0  0  0
  4 15  1  0  0  0  0
  5  9  1  0  0  0  0
  5  6  1  0  0  0  0
  6  1  1  0  0  0  0
  7  9  1  1  0  0  0
  7  4  1  0  0  0  0
 10  3  1  0  0  0  0
 10 14  2  0  0  0  0
 11  3  1  6  0  0  0
 11  7  1  0  0  0  0
 11  2  1  0  0  0  0
 12 15  1  0  0  0  0
 13  2  1  0  0  0  0
 13 35  1  1  0  0  0
 14 13  1  0  0  0  0
 16 10  1  0  0  0  0
 17 16  1  0  0  0  0
 17 19  1  0  0  0  0
 18 16  2  0  0  0  0
 19 21  1  0  0  0  0
 19 20  2  0  0  0  0
 22 21  1  0  0  0  0
 23 24  2  0  0  0  0
 24 22  1  0  0  0  0
 24 25  1  0  0  0  0
 26 23  1  0  0  0  0
 27 34  1  6  0  0  0
 27 33  1  0  0  0  0
 27 29  1  0  0  0  0
 27 28  1  0  0  0  0
 29 28  1  0  0  0  0
 29 26  1  1  0  0  0
 30 32  2  0  0  0  0
 30 34  1  0  0  0  0
 31 33  2  0  0  0  0
 32 31  1  0  0  0  0
 36 39  1  0  0  0  0
 37 41  1  0  0  0  0
 37 36  2  0  0  0  0
 38 40  1  0  0  0  0
 39 40  2  0  0  0  0
 40 35  1  0  0  0  0
 41 38  2  0  0  0  0
 43 42  1  0  0  0  0
 43 37  1  0  0  0  0
M  END
>  <MODEL>
9

>  <REMARK>
 VINA RESULT:      -7.2      2.428      3.501
  Name = 
  9 active torsions:
  status: ('A' for Active; 'I' for Inactive)
    1  A    between atoms: C_1  and  C_34
    2  A    between atoms: C_1  and  C_35
    3  A    between atoms: C_2  and  C_27
    4  A    between atoms: C_3  and  N_4
    5  A    between atoms: C_3  and  C_12
    6  A    between atoms: N_4  and  C_15
    7  A    between atoms: C_10  and  C_41
    8  A    between atoms: C_19  and  O_37
    9  A    between atoms: C_22  and  C_41
                            x       y       z     vdW  Elec       q    Type
                         _______ _______ _______ _____ _____    ______ ____

>  <TORSDO>
F 9

$$$$
