=
 OpenBabel11052421303D

 32 36  0  0  1  0  0  0  0  0999 V2000
  192.9440  174.2160  144.5900 C   0  0  2  0  0  3  0  0  0  0  0  0
  196.8930  172.3390  145.9590 C   0  0  0  0  0  2  0  0  0  0  0  0
  197.5580  172.1710  144.5840 C   0  0  0  0  0  2  0  0  0  0  0  0
  196.4190  173.7740  146.1910 C   0  0  0  0  0  2  0  0  0  0  0  0
  193.9720  173.7550  145.6240 C   0  0  0  0  0  2  0  0  0  0  0  0
  195.3550  174.1790  145.1670 C   0  0  2  0  0  3  0  0  0  0  0  0
  194.6950  173.4100  142.9410 N   0  0  0  0  0  0  0  0  0  0  0  0
  197.0250  173.1150  143.4940 C   0  0  0  0  0  2  0  0  0  0  0  0
  195.6360  173.5890  143.8050 C   0  0  0  0  0  0  0  0  0  0  0  0
  193.2920  173.7390  143.1620 C   0  0  1  0  0  3  0  0  0  0  0  0
  192.3800  172.6180  142.6170 C   0  0  1  0  0  3  0  0  0  0  0  0
  191.8600  171.6090  143.6590 C   0  0  2  0  0  3  0  0  0  0  0  0
  190.0810  173.7070  142.6140 C   0  0  2  0  0  3  0  0  0  0  0  0
  189.5940  172.6670  143.6220 C   0  0  0  0  0  2  0  0  0  0  0  0
  190.7400  172.1960  144.5130 C   0  0  0  0  0  2  0  0  0  0  0  0
  191.6790  174.0910  140.8420 O   0  0  0  0  0  1  0  0  0  0  0  0
  192.8900  171.1270  144.4670 O   0  0  0  0  0  1  0  0  0  0  0  0
  188.9120  174.1250  141.7420 C   0  0  0  0  0  1  0  0  0  0  0  0
  191.2180  173.1370  141.7540 C   0  0  1  0  0  3  0  0  0  0  0  0
  192.8380  175.6130  144.5970 O   0  0  0  0  0  0  0  0  0  0  0  0
  189.1380  177.6880  143.8120 C   0  0  0  0  0  2  0  0  0  0  0  0
  191.5060  175.8750  144.2530 C   0  0  2  0  0  3  0  0  0  0  0  0
  192.4100  177.1300  142.4210 O   0  0  0  0  0  0  0  0  0  0  0  0
  190.1900  177.5160  142.8600 O   0  0  0  0  0  0  0  0  0  0  0  0
  191.4140  176.9010  143.1580 C   0  0  0  0  0  0  0  0  0  0  0  0
  190.5830  176.4100  145.7230 S   0  0  0  0  0  0  0  0  0  0  0  0
  189.0450  176.5060  144.7610 C   0  0  1  0  0  3  0  0  0  0  0  0
  186.9640  176.8420  146.4020 C   0  0  0  0  0  0  0  0  0  0  0  0
  187.9040  176.6670  145.6630 C   0  0  0  0  0  0  0  0  0  0  0  0
  185.8290  177.0740  147.2970 C   0  0  0  0  0  3  0  0  0  0  0  0
  184.6540  177.5780  146.4790 C   0  0  0  0  0  2  0  0  0  0  0  0
  185.4840  178.5470  147.2940 C   0  0  0  0  0  2  0  0  0  0  0  0
  1 20  1  6  0  0  0
  1  5  1  0  0  0  0
  2  4  1  0  0  0  0
  3  2  1  0  0  0  0
  6  5  1  1  0  0  0
  6  4  1  0  0  0  0
  7  9  2  0  0  0  0
  8  9  1  0  0  0  0
  8  3  1  0  0  0  0
  9  6  1  0  0  0  0
 10  7  1  1  0  0  0
 10  1  1  0  0  0  0
 11 10  1  1  0  0  0
 11 12  1  0  0  0  0
 12 17  1  1  0  0  0
 12 15  1  0  0  0  0
 13 18  1  6  0  0  0
 13 14  1  0  0  0  0
 14 15  1  0  0  0  0
 19 16  1  6  0  0  0
 19 13  1  0  0  0  0
 19 11  1  0  0  0  0
 21 27  1  0  0  0  0
 22 20  1  1  0  0  0
 22 26  1  0  0  0  0
 23 25  2  0  0  0  0
 24 25  1  0  0  0  0
 24 21  1  0  0  0  0
 25 22  1  0  0  0  0
 27 29  1  1  0  0  0
 27 26  1  0  0  0  0
 28 30  1  0  0  0  0
 29 28  3  0  0  0  0
 31 32  1  0  0  0  0
 31 30  1  0  0  0  0
 32 30  1  0  0  0  0
M  END
>  <MODEL>
1

>  <REMARK>
 VINA RESULT:      -7.1      0.000      0.000
  Name = 
  5 active torsions:
  status: ('A' for Active; 'I' for Inactive)
    1  A    between atoms: C_1  and  C_10
    2  A    between atoms: C_3  and  O_28
    3  A    between atoms: C_6  and  C_31
    4  A    between atoms: C_8  and  O_28
    5  A    between atoms: C_19  and  C_24
                            x       y       z     vdW  Elec       q    Type
                         _______ _______ _______ _____ _____    ______ ____

>  <TORSDO>
F 5

$$$$
=
 OpenBabel11052421303D

 32 36  0  0  1  0  0  0  0  0999 V2000
  189.0350  176.4700  144.2340 C   0  0  2  0  0  3  0  0  0  0  0  0
  190.1180  173.8110  140.6620 C   0  0  0  0  0  2  0  0  0  0  0  0
  191.0240  172.8050  141.3900 C   0  0  0  0  0  2  0  0  0  0  0  0
  188.7540  173.9430  141.3400 C   0  0  0  0  0  2  0  0  0  0  0  0
  188.9350  175.9900  142.7850 C   0  0  0  0  0  2  0  0  0  0  0  0
  188.8940  174.4730  142.7700 C   0  0  2  0  0  3  0  0  0  0  0  0
  190.6860  174.5550  144.4320 N   0  0  0  0  0  0  0  0  0  0  0  0
  190.7710  172.6910  142.9020 C   0  0  0  0  0  2  0  0  0  0  0  0
  190.1300  173.9320  143.4490 C   0  0  0  0  0  0  0  0  0  0  0  0
  190.2130  175.8160  144.9890 C   0  0  1  0  0  3  0  0  0  0  0  0
  191.4000  176.7620  145.2730 C   0  0  1  0  0  3  0  0  0  0  0  0
  191.9950  176.6870  146.6920 C   0  0  2  0  0  3  0  0  0  0  0  0
  193.3990  175.4330  144.4300 C   0  0  2  0  0  3  0  0  0  0  0  0
  193.9720  175.4100  145.8460 C   0  0  0  0  0  2  0  0  0  0  0  0
  192.8550  175.4410  146.8860 C   0  0  0  0  0  2  0  0  0  0  0  0
  191.9790  176.6910  142.9330 O   0  0  0  0  0  1  0  0  0  0  0  0
  191.0030  176.7520  147.6700 O   0  0  0  0  0  1  0  0  0  0  0  0
  194.5480  175.4220  143.4390 C   0  0  0  0  0  1  0  0  0  0  0  0
  192.5200  176.6750  144.2220 C   0  0  1  0  0  3  0  0  0  0  0  0
  187.8420  176.2040  144.9190 O   0  0  0  0  0  0  0  0  0  0  0  0
  184.4170  178.8230  144.7740 C   0  0  0  0  0  2  0  0  0  0  0  0
  186.9900  177.2630  144.5840 C   0  0  2  0  0  3  0  0  0  0  0  0
  187.1920  177.9200  146.8810 O   0  0  0  0  0  0  0  0  0  0  0  0
  185.4720  178.9180  145.7330 O   0  0  0  0  0  0  0  0  0  0  0  0
  186.5390  178.0120  145.8070 C   0  0  0  0  0  0  0  0  0  0  0  0
  185.5670  176.6380  143.6430 S   0  0  0  0  0  0  0  0  0  0  0  0
  184.9260  178.3240  143.4320 C   0  0  1  0  0  3  0  0  0  0  0  0
  182.9350  178.2910  141.6520 C   0  0  0  0  0  0  0  0  0  0  0  0
  183.8440  178.3250  142.4470 C   0  0  0  0  0  0  0  0  0  0  0  0
  181.8290  178.2310  140.6950 C   0  0  0  0  0  3  0  0  0  0  0  0
  180.9290  179.4330  140.9080 C   0  0  0  0  0  2  0  0  0  0  0  0
  180.5260  178.0780  141.4480 C   0  0  0  0  0  2  0  0  0  0  0  0
  1 20  1  1  0  0  0
  1 10  1  0  0  0  0
  2  4  1  0  0  0  0
  2  3  1  0  0  0  0
  3  8  1  0  0  0  0
  5  1  1  0  0  0  0
  6  4  1  6  0  0  0
  6  5  1  0  0  0  0
  6  9  1  0  0  0  0
  8  9  1  0  0  0  0
  9  7  2  0  0  0  0
 10  7  1  6  0  0  0
 11 10  1  6  0  0  0
 11 12  1  0  0  0  0
 12 15  1  0  0  0  0
 12 17  1  1  0  0  0
 13 18  1  6  0  0  0
 13 14  1  0  0  0  0
 14 15  1  0  0  0  0
 19 16  1  6  0  0  0
 19 13  1  0  0  0  0
 19 11  1  0  0  0  0
 21 24  1  0  0  0  0
 22 20  1  1  0  0  0
 22 25  1  0  0  0  0
 24 25  1  0  0  0  0
 25 23  2  0  0  0  0
 26 22  1  0  0  0  0
 27 29  1  6  0  0  0
 27 26  1  0  0  0  0
 27 21  1  0  0  0  0
 28 29  3  0  0  0  0
 30 31  1  0  0  0  0
 30 32  1  0  0  0  0
 30 28  1  0  0  0  0
 31 32  1  0  0  0  0
M  END
>  <MODEL>
2

>  <REMARK>
 VINA RESULT:      -7.1      3.386      5.977
  Name = 
  5 active torsions:
  status: ('A' for Active; 'I' for Inactive)
    1  A    between atoms: C_1  and  C_10
    2  A    between atoms: C_3  and  O_28
    3  A    between atoms: C_6  and  C_31
    4  A    between atoms: C_8  and  O_28
    5  A    between atoms: C_19  and  C_24
                            x       y       z     vdW  Elec       q    Type
                         _______ _______ _______ _____ _____    ______ ____

>  <TORSDO>
F 5

$$$$
=
 OpenBabel11052421303D

 32 36  0  0  1  0  0  0  0  0999 V2000
  188.0940  176.8940  144.2260 C   0  0  2  0  0  3  0  0  0  0  0  0
  186.2800  178.6540  148.0470 C   0  0  0  0  0  2  0  0  0  0  0  0
  184.8010  178.6280  147.6340 C   0  0  0  0  0  2  0  0  0  0  0  0
  186.9430  177.2860  147.8800 C   0  0  0  0  0  2  0  0  0  0  0  0
  188.1300  177.3990  145.6690 C   0  0  0  0  0  2  0  0  0  0  0  0
  186.9320  176.8400  146.4150 C   0  0  2  0  0  3  0  0  0  0  0  0
  185.6180  177.4020  144.4300 N   0  0  0  0  0  0  0  0  0  0  0  0
  184.4590  177.6070  146.5360 C   0  0  0  0  0  2  0  0  0  0  0  0
  185.6630  177.2600  145.7110 C   0  0  0  0  0  0  0  0  0  0  0  0
  186.7470  177.1890  143.5320 C   0  0  1  0  0  3  0  0  0  0  0  0
  186.8030  178.3000  142.4600 C   0  0  1  0  0  3  0  0  0  0  0  0
  187.7110  178.0190  141.2480 C   0  0  2  0  0  3  0  0  0  0  0  0
  184.7890  177.7790  140.9950 C   0  0  2  0  0  3  0  0  0  0  0  0
  185.7220  177.5420  139.8090 C   0  0  0  0  0  2  0  0  0  0  0  0
  187.0790  177.0240  140.2790 C   0  0  0  0  0  2  0  0  0  0  0  0
  184.5740  178.9760  143.0850 O   0  0  0  0  0  1  0  0  0  0  0  0
  188.9750  177.5800  141.6430 O   0  0  0  0  0  1  0  0  0  0  0  0
  183.4660  178.3110  140.4770 C   0  0  0  0  0  1  0  0  0  0  0  0
  185.4160  178.7690  141.9880 C   0  0  1  0  0  3  0  0  0  0  0  0
  188.3430  175.5160  144.1850 O   0  0  0  0  0  0  0  0  0  0  0  0
  192.0920  173.8400  142.8630 C   0  0  0  0  0  2  0  0  0  0  0  0
  189.6500  175.3990  143.6970 C   0  0  2  0  0  3  0  0  0  0  0  0
  188.6670  174.2490  141.8380 O   0  0  0  0  0  0  0  0  0  0  0  0
  190.9410  174.0110  142.0330 O   0  0  0  0  0  0  0  0  0  0  0  0
  189.7100  174.4910  142.5010 C   0  0  0  0  0  0  0  0  0  0  0  0
  190.7510  174.8090  145.0170 S   0  0  0  0  0  0  0  0  0  0  0  0
  192.1890  174.9320  143.9150 C   0  0  1  0  0  3  0  0  0  0  0  0
  194.4590  174.6890  145.3010 C   0  0  0  0  0  0  0  0  0  0  0  0
  193.4220  174.7830  144.6880 C   0  0  0  0  0  0  0  0  0  0  0  0
  195.7250  174.5850  146.0290 C   0  0  0  0  0  3  0  0  0  0  0  0
  196.8550  174.4200  145.0300 C   0  0  0  0  0  2  0  0  0  0  0  0
  196.3290  173.2190  145.7880 C   0  0  0  0  0  2  0  0  0  0  0  0
  1 20  1  1  0  0  0
  1  5  1  0  0  0  0
  3  2  1  0  0  0  0
  4  2  1  0  0  0  0
  6  5  1  6  0  0  0
  6  4  1  0  0  0  0
  7  9  2  0  0  0  0
  8  3  1  0  0  0  0
  9  6  1  0  0  0  0
  9  8  1  0  0  0  0
 10  1  1  0  0  0  0
 10  7  1  1  0  0  0
 11 10  1  6  0  0  0
 12 17  1  1  0  0  0
 12 11  1  0  0  0  0
 13 18  1  6  0  0  0
 13 19  1  0  0  0  0
 14 15  1  0  0  0  0
 14 13  1  0  0  0  0
 15 12  1  0  0  0  0
 19 11  1  0  0  0  0
 19 16  1  1  0  0  0
 21 27  1  0  0  0  0
 22 20  1  1  0  0  0
 22 26  1  0  0  0  0
 23 25  2  0  0  0  0
 24 25  1  0  0  0  0
 24 21  1  0  0  0  0
 25 22  1  0  0  0  0
 27 29  1  1  0  0  0
 27 26  1  0  0  0  0
 28 30  1  0  0  0  0
 29 28  3  0  0  0  0
 31 32  1  0  0  0  0
 31 30  1  0  0  0  0
 32 30  1  0  0  0  0
M  END
>  <MODEL>
3

>  <REMARK>
 VINA RESULT:      -6.8      3.189      8.397
  Name = 
  5 active torsions:
  status: ('A' for Active; 'I' for Inactive)
    1  A    between atoms: C_1  and  C_10
    2  A    between atoms: C_3  and  O_28
    3  A    between atoms: C_6  and  C_31
    4  A    between atoms: C_8  and  O_28
    5  A    between atoms: C_19  and  C_24
                            x       y       z     vdW  Elec       q    Type
                         _______ _______ _______ _____ _____    ______ ____

>  <TORSDO>
F 5

$$$$
=
 OpenBabel11052421303D

 32 36  0  0  1  0  0  0  0  0999 V2000
  192.4960  175.4560  143.1780 C   0  0  2  0  0  3  0  0  0  0  0  0
  196.8110  176.7150  142.2900 C   0  0  0  0  0  2  0  0  0  0  0  0
  197.4640  175.3240  142.3030 C   0  0  0  0  0  2  0  0  0  0  0  0
  195.6140  176.7740  141.3410 C   0  0  0  0  0  2  0  0  0  0  0  0
  193.5990  176.4470  142.8050 C   0  0  0  0  0  2  0  0  0  0  0  0
  194.5120  175.8040  141.7780 C   0  0  2  0  0  3  0  0  0  0  0  0
  194.4080  173.7900  143.1610 N   0  0  0  0  0  0  0  0  0  0  0  0
  196.5010  174.1600  142.0190 C   0  0  0  0  0  2  0  0  0  0  0  0
  195.0830  174.5250  142.3440 C   0  0  0  0  0  0  0  0  0  0  0  0
  193.0590  174.0900  143.6270 C   0  0  1  0  0  3  0  0  0  0  0  0
  192.9340  173.8060  145.1400 C   0  0  1  0  0  3  0  0  0  0  0  0
  193.5800  174.8460  146.0740 C   0  0  2  0  0  3  0  0  0  0  0  0
  190.6600  174.7920  145.7160 C   0  0  2  0  0  3  0  0  0  0  0  0
  191.3370  175.7850  146.6590 C   0  0  0  0  0  2  0  0  0  0  0  0
  192.7460  176.1200  146.1760 C   0  0  0  0  0  2  0  0  0  0  0  0
  190.8880  172.6030  144.7150 O   0  0  0  0  0  1  0  0  0  0  0  0
  194.8850  175.1470  145.6850 O   0  0  0  0  0  1  0  0  0  0  0  0
  189.2750  174.4770  146.2510 C   0  0  0  0  0  1  0  0  0  0  0  0
  191.4940  173.5080  145.5910 C   0  0  1  0  0  3  0  0  0  0  0  0
  191.6270  175.2640  142.0970 O   0  0  0  0  0  0  0  0  0  0  0  0
  187.3400  175.3900  142.5610 C   0  0  0  0  0  2  0  0  0  0  0  0
  190.3480  175.2210  142.6650 C   0  0  2  0  0  3  0  0  0  0  0  0
  189.9760  173.3190  141.2540 O   0  0  0  0  0  0  0  0  0  0  0  0
  188.0800  174.2320  142.1710 O   0  0  0  0  0  0  0  0  0  0  0  0
  189.4650  174.2320  141.9560 C   0  0  0  0  0  0  0  0  0  0  0  0
  189.6080  176.8810  142.6480 S   0  0  0  0  0  0  0  0  0  0  0  0
  188.1340  176.2670  143.5130 C   0  0  1  0  0  3  0  0  0  0  0  0
  186.6520  178.3120  144.3810 C   0  0  0  0  0  0  0  0  0  0  0  0
  187.3180  177.3940  143.9670 C   0  0  0  0  0  0  0  0  0  0  0  0
  185.8450  179.4180  144.9010 C   0  0  0  0  0  3  0  0  0  0  0  0
  185.4240  179.0920  146.3220 C   0  0  0  0  0  2  0  0  0  0  0  0
  184.4430  178.9230  145.1820 C   0  0  0  0  0  2  0  0  0  0  0  0
  1 20  1  6  0  0  0
  1 10  1  0  0  0  0
  2  3  1  0  0  0  0
  4  2  1  0  0  0  0
  5  1  1  0  0  0  0
  6  4  1  1  0  0  0
  6  9  1  0  0  0  0
  6  5  1  0  0  0  0
  8  3  1  0  0  0  0
  8  9  1  0  0  0  0
  9  7  2  0  0  0  0
 10  7  1  1  0  0  0
 11 10  1  6  0  0  0
 11 19  1  0  0  0  0
 11 12  1  0  0  0  0
 12 17  1  6  0  0  0
 12 15  1  0  0  0  0
 13 18  1  1  0  0  0
 13 14  1  0  0  0  0
 15 14  1  0  0  0  0
 19 16  1  6  0  0  0
 19 13  1  0  0  0  0
 21 27  1  0  0  0  0
 22 20  1  6  0  0  0
 23 25  2  0  0  0  0
 24 21  1  0  0  0  0
 25 24  1  0  0  0  0
 25 22  1  0  0  0  0
 26 22  1  0  0  0  0
 26 27  1  0  0  0  0
 27 29  1  6  0  0  0
 28 30  1  0  0  0  0
 29 28  3  0  0  0  0
 30 32  1  0  0  0  0
 30 31  1  0  0  0  0
 32 31  1  0  0  0  0
M  END
>  <MODEL>
4

>  <REMARK>
 VINA RESULT:      -6.8      2.238      3.514
  Name = 
  5 active torsions:
  status: ('A' for Active; 'I' for Inactive)
    1  A    between atoms: C_1  and  C_10
    2  A    between atoms: C_3  and  O_28
    3  A    between atoms: C_6  and  C_31
    4  A    between atoms: C_8  and  O_28
    5  A    between atoms: C_19  and  C_24
                            x       y       z     vdW  Elec       q    Type
                         _______ _______ _______ _____ _____    ______ ____

>  <TORSDO>
F 5

$$$$
=
 OpenBabel11052421303D

 32 36  0  0  1  0  0  0  0  0999 V2000
  192.5520  175.2270  143.3690 C   0  0  2  0  0  3  0  0  0  0  0  0
  197.0720  175.9560  143.1810 C   0  0  0  0  0  2  0  0  0  0  0  0
  197.5070  174.5760  142.6650 C   0  0  0  0  0  2  0  0  0  0  0  0
  195.9940  176.5820  142.2960 C   0  0  0  0  0  2  0  0  0  0  0  0
  193.8210  176.0760  143.4510 C   0  0  0  0  0  2  0  0  0  0  0  0
  194.7230  175.7280  142.2810 C   0  0  2  0  0  3  0  0  0  0  0  0
  194.1880  173.3890  142.7550 N   0  0  0  0  0  0  0  0  0  0  0  0
  196.4130  173.7970  141.9160 C   0  0  0  0  0  2  0  0  0  0  0  0
  195.0400  174.2510  142.3150 C   0  0  0  0  0  0  0  0  0  0  0  0
  192.8600  173.7180  143.2600 C   0  0  1  0  0  3  0  0  0  0  0  0
  192.5490  172.9020  144.5340 C   0  0  1  0  0  3  0  0  0  0  0  0
  191.7420  171.6080  144.3230 C   0  0  2  0  0  3  0  0  0  0  0  0
  194.6380  171.4800  144.8250 C   0  0  2  0  0  3  0  0  0  0  0  0
  193.7960  170.2190  144.6430 C   0  0  0  0  0  2  0  0  0  0  0  0
  192.5990  170.4890  143.7370 C   0  0  0  0  0  2  0  0  0  0  0  0
  194.5490  173.7840  145.5530 O   0  0  0  0  0  1  0  0  0  0  0  0
  190.6160  171.8270  143.5300 O   0  0  0  0  0  1  0  0  0  0  0  0
  195.8000  171.1640  145.7470 C   0  0  0  0  0  1  0  0  0  0  0  0
  193.7880  172.6210  145.4020 C   0  0  1  0  0  3  0  0  0  0  0  0
  191.7720  175.6190  142.2730 O   0  0  0  0  0  0  0  0  0  0  0  0
  187.4620  175.7590  142.3880 C   0  0  0  0  0  2  0  0  0  0  0  0
  190.4480  175.4940  142.7100 C   0  0  2  0  0  3  0  0  0  0  0  0
  190.1870  173.9300  140.9120 O   0  0  0  0  0  0  0  0  0  0  0  0
  188.2250  174.6860  141.8320 O   0  0  0  0  0  0  0  0  0  0  0  0
  189.6240  174.6940  141.7400 C   0  0  0  0  0  0  0  0  0  0  0  0
  189.7260  177.1410  142.9720 S   0  0  0  0  0  0  0  0  0  0  0  0
  188.1760  176.4010  143.5640 C   0  0  1  0  0  3  0  0  0  0  0  0
  186.6060  178.2750  144.6390 C   0  0  0  0  0  0  0  0  0  0  0  0
  187.3320  177.4330  144.1690 C   0  0  0  0  0  0  0  0  0  0  0  0
  185.7120  179.2940  145.1930 C   0  0  0  0  0  3  0  0  0  0  0  0
  185.5320  179.0350  146.6780 C   0  0  0  0  0  2  0  0  0  0  0  0
  184.4510  178.6300  145.7000 C   0  0  0  0  0  2  0  0  0  0  0  0
  1 20  1  6  0  0  0
  1  5  1  0  0  0  0
  3  2  1  0  0  0  0
  4  2  1  0  0  0  0
  6  4  1  1  0  0  0
  6  9  1  0  0  0  0
  6  5  1  0  0  0  0
  8  9  1  0  0  0  0
  8  3  1  0  0  0  0
  9  7  2  0  0  0  0
 10  7  1  1  0  0  0
 10  1  1  0  0  0  0
 11 10  1  6  0  0  0
 11 19  1  0  0  0  0
 12 17  1  6  0  0  0
 12 11  1  0  0  0  0
 13 19  1  0  0  0  0
 13 18  1  1  0  0  0
 14 13  1  0  0  0  0
 15 12  1  0  0  0  0
 15 14  1  0  0  0  0
 19 16  1  6  0  0  0
 21 27  1  0  0  0  0
 22 20  1  6  0  0  0
 22 26  1  0  0  0  0
 23 25  2  0  0  0  0
 24 21  1  0  0  0  0
 25 24  1  0  0  0  0
 25 22  1  0  0  0  0
 26 27  1  0  0  0  0
 27 29  1  6  0  0  0
 28 30  1  0  0  0  0
 29 28  3  0  0  0  0
 30 32  1  0  0  0  0
 30 31  1  0  0  0  0
 32 31  1  0  0  0  0
M  END
>  <MODEL>
5

>  <REMARK>
 VINA RESULT:      -6.7      2.035      3.423
  Name = 
  5 active torsions:
  status: ('A' for Active; 'I' for Inactive)
    1  A    between atoms: C_1  and  C_10
    2  A    between atoms: C_3  and  O_28
    3  A    between atoms: C_6  and  C_31
    4  A    between atoms: C_8  and  O_28
    5  A    between atoms: C_19  and  C_24
                            x       y       z     vdW  Elec       q    Type
                         _______ _______ _______ _____ _____    ______ ____

>  <TORSDO>
F 5

$$$$
=
 OpenBabel11052421303D

 32 36  0  0  1  0  0  0  0  0999 V2000
  188.5420  175.8320  143.2820 C   0  0  2  0  0  3  0  0  0  0  0  0
  191.9430  175.1960  146.2860 C   0  0  0  0  0  2  0  0  0  0  0  0
  191.1340  175.3400  147.5850 C   0  0  0  0  0  2  0  0  0  0  0  0
  191.3310  174.1580  145.3460 C   0  0  0  0  0  2  0  0  0  0  0  0
  189.9710  175.4840  143.7010 C   0  0  0  0  0  2  0  0  0  0  0  0
  189.9200  174.5680  144.9100 C   0  0  2  0  0  3  0  0  0  0  0  0
  188.1890  176.0570  145.7840 N   0  0  0  0  0  0  0  0  0  0  0  0
  189.6300  175.0550  147.4390 C   0  0  0  0  0  2  0  0  0  0  0  0
  189.1660  175.2510  146.0260 C   0  0  0  0  0  0  0  0  0  0  0  0
  187.7090  176.4020  144.4510 C   0  0  1  0  0  3  0  0  0  0  0  0
  187.4170  177.9160  144.3560 C   0  0  1  0  0  3  0  0  0  0  0  0
  186.9850  178.4310  142.9700 C   0  0  2  0  0  3  0  0  0  0  0  0
  184.9900  178.0740  145.1030 C   0  0  2  0  0  3  0  0  0  0  0  0
  184.6080  178.6140  143.7260 C   0  0  0  0  0  2  0  0  0  0  0  0
  185.5390  178.0640  142.6490 C   0  0  0  0  0  2  0  0  0  0  0  0
  186.8080  177.9150  146.6890 O   0  0  0  0  0  1  0  0  0  0  0  0
  187.8380  177.9780  141.9640 O   0  0  0  0  0  1  0  0  0  0  0  0
  184.0510  178.6660  146.1380 C   0  0  0  0  0  1  0  0  0  0  0  0
  186.4480  178.4230  145.4380 C   0  0  1  0  0  3  0  0  0  0  0  0
  187.8970  174.7010  142.7640 O   0  0  0  0  0  0  0  0  0  0  0  0
  189.7070  172.2800  139.6860 C   0  0  0  0  0  2  0  0  0  0  0  0
  188.8500  174.0890  141.9400 C   0  0  2  0  0  3  0  0  0  0  0  0
  187.8330  175.3170  140.1490 O   0  0  0  0  0  0  0  0  0  0  0  0
  189.2170  173.6080  139.4910 O   0  0  0  0  0  0  0  0  0  0  0  0
  188.5670  174.3500  140.4870 C   0  0  0  0  0  0  0  0  0  0  0  0
  188.9060  172.3060  142.2810 S   0  0  0  0  0  0  0  0  0  0  0  0
  190.2590  172.0890  141.0890 C   0  0  1  0  0  3  0  0  0  0  0  0
  191.2800  169.6370  141.3710 C   0  0  0  0  0  0  0  0  0  0  0  0
  190.8360  170.7510  141.2290 C   0  0  0  0  0  0  0  0  0  0  0  0
  191.8050  168.2830  141.5570 C   0  0  0  0  0  3  0  0  0  0  0  0
  192.6180  168.2430  142.8380 C   0  0  0  0  0  2  0  0  0  0  0  0
  193.3170  168.3210  141.4970 C   0  0  0  0  0  2  0  0  0  0  0  0
  1 20  1  1  0  0  0
  1  5  1  0  0  0  0
  1 10  1  0  0  0  0
  2  3  1  0  0  0  0
  4  2  1  0  0  0  0
  6  5  1  6  0  0  0
  6  4  1  0  0  0  0
  6  9  1  0  0  0  0
  7  9  2  0  0  0  0
  8  3  1  0  0  0  0
  9  8  1  0  0  0  0
 10  7  1  1  0  0  0
 11 10  1  6  0  0  0
 11 19  1  0  0  0  0
 12 17  1  6  0  0  0
 12 11  1  0  0  0  0
 13 19  1  0  0  0  0
 13 18  1  1  0  0  0
 14 13  1  0  0  0  0
 15 12  1  0  0  0  0
 15 14  1  0  0  0  0
 19 16  1  1  0  0  0
 21 27  1  0  0  0  0
 22 26  1  0  0  0  0
 22 20  1  1  0  0  0
 23 25  2  0  0  0  0
 24 21  1  0  0  0  0
 24 25  1  0  0  0  0
 25 22  1  0  0  0  0
 27 29  1  6  0  0  0
 27 26  1  0  0  0  0
 28 30  1  0  0  0  0
 29 28  3  0  0  0  0
 30 31  1  0  0  0  0
 32 30  1  0  0  0  0
 32 31  1  0  0  0  0
M  END
>  <MODEL>
6

>  <REMARK>
 VINA RESULT:      -6.7      3.711      7.711
  Name = 
  5 active torsions:
  status: ('A' for Active; 'I' for Inactive)
    1  A    between atoms: C_1  and  C_10
    2  A    between atoms: C_3  and  O_28
    3  A    between atoms: C_6  and  C_31
    4  A    between atoms: C_8  and  O_28
    5  A    between atoms: C_19  and  C_24
                            x       y       z     vdW  Elec       q    Type
                         _______ _______ _______ _____ _____    ______ ____

>  <TORSDO>
F 5

$$$$
=
 OpenBabel11052421303D

 32 36  0  0  1  0  0  0  0  0999 V2000
  189.8770  176.4510  145.2650 C   0  0  2  0  0  3  0  0  0  0  0  0
  186.2120  179.0290  146.2210 C   0  0  0  0  0  2  0  0  0  0  0  0
  185.1660  178.2550  145.4040 C   0  0  0  0  0  2  0  0  0  0  0  0
  186.9780  178.1150  147.1780 C   0  0  0  0  0  2  0  0  0  0  0  0
  189.1200  177.5670  145.9870 C   0  0  0  0  0  2  0  0  0  0  0  0
  187.7620  177.0440  146.4140 C   0  0  2  0  0  3  0  0  0  0  0  0
  187.6170  176.0290  144.1930 N   0  0  0  0  0  0  0  0  0  0  0  0
  185.5260  176.7860  145.1280 C   0  0  0  0  0  2  0  0  0  0  0  0
  187.0070  176.5580  145.1980 C   0  0  0  0  0  0  0  0  0  0  0  0
  189.0610  175.8430  144.1030 C   0  0  1  0  0  3  0  0  0  0  0  0
  189.5680  176.2170  142.6940 C   0  0  1  0  0  3  0  0  0  0  0  0
  189.9090  175.0350  141.7660 C   0  0  2  0  0  3  0  0  0  0  0  0
  187.4130  176.5450  141.3820 C   0  0  2  0  0  3  0  0  0  0  0  0
  187.8040  175.3880  140.4640 C   0  0  0  0  0  2  0  0  0  0  0  0
  188.6560  174.3650  141.2100 C   0  0  0  0  0  2  0  0  0  0  0  0
  188.3100  178.2700  142.8170 O   0  0  0  0  0  1  0  0  0  0  0  0
  190.7210  174.0980  142.4040 O   0  0  0  0  0  1  0  0  0  0  0  0
  186.5870  177.5410  140.5890 C   0  0  0  0  0  1  0  0  0  0  0  0
  188.6630  177.2230  141.9620 C   0  0  1  0  0  3  0  0  0  0  0  0
  190.2250  175.4360  146.1650 O   0  0  0  0  0  0  0  0  0  0  0  0
  194.1910  177.0880  146.5500 C   0  0  0  0  0  2  0  0  0  0  0  0
  191.6140  175.5440  146.3110 C   0  0  2  0  0  3  0  0  0  0  0  0
  191.1340  176.6330  148.3920 O   0  0  0  0  0  0  0  0  0  0  0  0
  193.2870  176.8870  147.6380 O   0  0  0  0  0  0  0  0  0  0  0  0
  191.9760  176.4160  147.4810 C   0  0  0  0  0  0  0  0  0  0  0  0
  192.3480  176.1780  144.7750 S   0  0  0  0  0  0  0  0  0  0  0  0
  194.0170  176.0290  145.4750 C   0  0  1  0  0  3  0  0  0  0  0  0
  195.8290  176.3160  143.5340 C   0  0  0  0  0  0  0  0  0  0  0  0
  195.0170  176.2060  144.4210 C   0  0  0  0  0  0  0  0  0  0  0  0
  196.8100  176.4300  142.4530 C   0  0  0  0  0  3  0  0  0  0  0  0
  196.0870  176.7910  141.1690 C   0  0  0  0  0  2  0  0  0  0  0  0
  196.5330  175.3650  141.4140 C   0  0  0  0  0  2  0  0  0  0  0  0
  1  5  1  0  0  0  0
  1 20  1  1  0  0  0
  2  4  1  0  0  0  0
  3  2  1  0  0  0  0
  6  5  1  6  0  0  0
  6  4  1  0  0  0  0
  7  9  2  0  0  0  0
  8  9  1  0  0  0  0
  8  3  1  0  0  0  0
  9  6  1  0  0  0  0
 10  7  1  6  0  0  0
 10  1  1  0  0  0  0
 11 10  1  1  0  0  0
 12 17  1  1  0  0  0
 12 11  1  0  0  0  0
 13 18  1  6  0  0  0
 13 19  1  0  0  0  0
 14 15  1  0  0  0  0
 14 13  1  0  0  0  0
 15 12  1  0  0  0  0
 19 11  1  0  0  0  0
 19 16  1  1  0  0  0
 21 24  1  0  0  0  0
 22 20  1  6  0  0  0
 22 25  1  0  0  0  0
 25 24  1  0  0  0  0
 25 23  2  0  0  0  0
 26 27  1  0  0  0  0
 26 22  1  0  0  0  0
 27 29  1  6  0  0  0
 27 21  1  0  0  0  0
 28 29  3  0  0  0  0
 30 28  1  0  0  0  0
 31 32  1  0  0  0  0
 31 30  1  0  0  0  0
 32 30  1  0  0  0  0
M  END
>  <MODEL>
7

>  <REMARK>
 VINA RESULT:      -6.7      3.009      7.625
  Name = 
  5 active torsions:
  status: ('A' for Active; 'I' for Inactive)
    1  A    between atoms: C_1  and  C_10
    2  A    between atoms: C_3  and  O_28
    3  A    between atoms: C_6  and  C_31
    4  A    between atoms: C_8  and  O_28
    5  A    between atoms: C_19  and  C_24
                            x       y       z     vdW  Elec       q    Type
                         _______ _______ _______ _____ _____    ______ ____

>  <TORSDO>
F 5

$$$$
=
 OpenBabel11052421303D

 32 36  0  0  1  0  0  0  0  0999 V2000
  192.2800  174.1630  143.8130 C   0  0  2  0  0  3  0  0  0  0  0  0
  189.7780  173.2790  140.0770 C   0  0  0  0  0  2  0  0  0  0  0  0
  190.2720  171.8500  139.8010 C   0  0  0  0  0  2  0  0  0  0  0  0
  189.2760  173.4410  141.5120 C   0  0  0  0  0  2  0  0  0  0  0  0
  191.2000  174.4550  142.7690 C   0  0  0  0  0  2  0  0  0  0  0  0
  190.3980  173.1900  142.5240 C   0  0  2  0  0  3  0  0  0  0  0  0
  192.5410  172.0120  142.4950 N   0  0  0  0  0  0  0  0  0  0  0  0
  190.8460  171.1220  141.0280 C   0  0  0  0  0  2  0  0  0  0  0  0
  191.3260  172.0880  142.0690 C   0  0  0  0  0  0  0  0  0  0  0  0
  193.1520  172.9470  143.4320 C   0  0  1  0  0  3  0  0  0  0  0  0
  194.5890  173.2980  142.9870 C   0  0  1  0  0  3  0  0  0  0  0  0
  194.7890  174.7180  142.4240 C   0  0  2  0  0  3  0  0  0  0  0  0
  195.6820  174.0680  145.1520 C   0  0  2  0  0  3  0  0  0  0  0  0
  195.8930  175.4530  144.5440 C   0  0  0  0  0  2  0  0  0  0  0  0
  194.8020  175.7730  143.5260 C   0  0  0  0  0  2  0  0  0  0  0  0
  195.4430  171.7260  144.6030 O   0  0  0  0  0  1  0  0  0  0  0  0
  193.8310  175.0300  141.4610 O   0  0  0  0  0  1  0  0  0  0  0  0
  196.8010  173.7910  146.1380 C   0  0  0  0  0  1  0  0  0  0  0  0
  195.6540  172.9940  144.0540 C   0  0  1  0  0  3  0  0  0  0  0  0
  191.6980  173.9400  145.0670 O   0  0  0  0  0  0  0  0  0  0  0  0
  189.7300  177.0890  147.2630 C   0  0  0  0  0  2  0  0  0  0  0  0
  191.0350  175.1340  145.3750 C   0  0  2  0  0  3  0  0  0  0  0  0
  192.9860  175.6810  146.6570 O   0  0  0  0  0  0  0  0  0  0  0  0
  191.1440  176.9810  147.0900 O   0  0  0  0  0  0  0  0  0  0  0  0
  191.7670  175.9100  146.4340 C   0  0  0  0  0  0  0  0  0  0  0  0
  189.3300  174.7790  145.8920 S   0  0  0  0  0  0  0  0  0  0  0  0
  188.9770  176.5530  146.0570 C   0  0  1  0  0  3  0  0  0  0  0  0
  186.3570  176.9730  146.3550 C   0  0  0  0  0  0  0  0  0  0  0  0
  187.5380  176.7610  146.2240 C   0  0  0  0  0  0  0  0  0  0  0  0
  184.9280  177.2520  146.5150 C   0  0  0  0  0  3  0  0  0  0  0  0
  184.5840  178.5150  145.7470 C   0  0  0  0  0  2  0  0  0  0  0  0
  184.7540  178.5620  147.2510 C   0  0  0  0  0  2  0  0  0  0  0  0
  1 20  1  1  0  0  0
  2  4  1  0  0  0  0
  3  2  1  0  0  0  0
  3  8  1  0  0  0  0
  5  1  1  0  0  0  0
  6  4  1  6  0  0  0
  6  5  1  0  0  0  0
  8  9  1  0  0  0  0
  9  7  2  0  0  0  0
  9  6  1  0  0  0  0
 10  7  1  6  0  0  0
 10  1  1  0  0  0  0
 11 10  1  1  0  0  0
 11 19  1  0  0  0  0
 12 17  1  6  0  0  0
 12 11  1  0  0  0  0
 12 15  1  0  0  0  0
 13 18  1  1  0  0  0
 14 13  1  0  0  0  0
 15 14  1  0  0  0  0
 19 16  1  1  0  0  0
 19 13  1  0  0  0  0
 22 20  1  1  0  0  0
 22 26  1  0  0  0  0
 22 25  1  0  0  0  0
 24 21  1  0  0  0  0
 25 23  2  0  0  0  0
 25 24  1  0  0  0  0
 26 27  1  0  0  0  0
 27 29  1  1  0  0  0
 27 21  1  0  0  0  0
 28 30  1  0  0  0  0
 29 28  3  0  0  0  0
 30 32  1  0  0  0  0
 31 30  1  0  0  0  0
 31 32  1  0  0  0  0
M  END
>  <MODEL>
8

>  <REMARK>
 VINA RESULT:      -6.6      1.785      4.850
  Name = 
  5 active torsions:
  status: ('A' for Active; 'I' for Inactive)
    1  A    between atoms: C_1  and  C_10
    2  A    between atoms: C_3  and  O_28
    3  A    between atoms: C_6  and  C_31
    4  A    between atoms: C_8  and  O_28
    5  A    between atoms: C_19  and  C_24
                            x       y       z     vdW  Elec       q    Type
                         _______ _______ _______ _____ _____    ______ ____

>  <TORSDO>
F 5

$$$$
=
 OpenBabel11052421303D

 32 36  0  0  1  0  0  0  0  0999 V2000
  192.4030  174.5330  145.0570 C   0  0  2  0  0  3  0  0  0  0  0  0
  196.5500  172.7160  145.7620 C   0  0  0  0  0  2  0  0  0  0  0  0
  196.9290  172.4300  144.3010 C   0  0  0  0  0  2  0  0  0  0  0  0
  196.1290  174.1710  145.9670 C   0  0  0  0  0  2  0  0  0  0  0  0
  193.6180  174.1410  145.9010 C   0  0  0  0  0  2  0  0  0  0  0  0
  194.8810  174.5080  145.1450 C   0  0  2  0  0  3  0  0  0  0  0  0
  193.7930  173.5740  143.1640 N   0  0  0  0  0  0  0  0  0  0  0  0
  196.1870  173.2920  143.2650 C   0  0  0  0  0  2  0  0  0  0  0  0
  194.8870  173.8070  143.8070 C   0  0  0  0  0  0  0  0  0  0  0  0
  192.4620  173.9390  143.6320 C   0  0  1  0  0  3  0  0  0  0  0  0
  191.4620  172.7910  143.3710 C   0  0  1  0  0  3  0  0  0  0  0  0
  190.6380  172.8990  142.0740 C   0  0  2  0  0  3  0  0  0  0  0  0
  192.9050  171.0290  142.2360 C   0  0  2  0  0  3  0  0  0  0  0  0
  192.0420  171.1420  140.9810 C   0  0  0  0  0  2  0  0  0  0  0  0
  191.4660  172.5480  140.8410 C   0  0  0  0  0  2  0  0  0  0  0  0
  192.8800  171.3070  144.6370 O   0  0  0  0  0  1  0  0  0  0  0  0
  190.0630  174.1610  141.9330 O   0  0  0  0  0  1  0  0  0  0  0  0
  193.4350  169.6110  142.3390 C   0  0  0  0  0  1  0  0  0  0  0  0
  192.0910  171.3910  143.4870 C   0  0  1  0  0  3  0  0  0  0  0  0
  192.2980  175.9270  144.9720 O   0  0  0  0  0  0  0  0  0  0  0  0
  188.7450  177.9180  143.5480 C   0  0  0  0  0  2  0  0  0  0  0  0
  191.0400  176.1590  144.4010 C   0  0  2  0  0  3  0  0  0  0  0  0
  192.2200  177.4320  142.7480 O   0  0  0  0  0  0  0  0  0  0  0  0
  189.9500  177.7690  142.7940 O   0  0  0  0  0  0  0  0  0  0  0  0
  191.1170  177.1820  143.3020 C   0  0  0  0  0  0  0  0  0  0  0  0
  189.8640  176.6740  145.6870 S   0  0  0  0  0  0  0  0  0  0  0  0
  188.5150  176.7340  144.4720 C   0  0  1  0  0  3  0  0  0  0  0  0
  186.1920  177.0000  145.7620 C   0  0  0  0  0  0  0  0  0  0  0  0
  187.2310  176.8710  145.1610 C   0  0  0  0  0  0  0  0  0  0  0  0
  184.9420  177.1630  146.5080 C   0  0  0  0  0  3  0  0  0  0  0  0
  184.2300  178.4060  146.0090 C   0  0  0  0  0  2  0  0  0  0  0  0
  185.0030  178.4450  147.3100 C   0  0  0  0  0  2  0  0  0  0  0  0
  1 20  1  6  0  0  0
  1  5  1  0  0  0  0
  2  4  1  0  0  0  0
  3  2  1  0  0  0  0
  6  5  1  1  0  0  0
  6  4  1  0  0  0  0
  7  9  2  0  0  0  0
  8  9  1  0  0  0  0
  8  3  1  0  0  0  0
  9  6  1  0  0  0  0
 10  7  1  1  0  0  0
 10  1  1  0  0  0  0
 11 19  1  0  0  0  0
 11 10  1  6  0  0  0
 12 17  1  6  0  0  0
 12 11  1  0  0  0  0
 13 18  1  1  0  0  0
 13 19  1  0  0  0  0
 14 13  1  0  0  0  0
 15 14  1  0  0  0  0
 15 12  1  0  0  0  0
 19 16  1  1  0  0  0
 21 27  1  0  0  0  0
 22 20  1  1  0  0  0
 22 26  1  0  0  0  0
 23 25  2  0  0  0  0
 24 25  1  0  0  0  0
 24 21  1  0  0  0  0
 25 22  1  0  0  0  0
 27 29  1  1  0  0  0
 27 26  1  0  0  0  0
 28 30  1  0  0  0  0
 29 28  3  0  0  0  0
 30 32  1  0  0  0  0
 31 30  1  0  0  0  0
 31 32  1  0  0  0  0
M  END
>  <MODEL>
9

>  <REMARK>
 VINA RESULT:      -6.6      1.045      2.235
  Name = 
  5 active torsions:
  status: ('A' for Active; 'I' for Inactive)
    1  A    between atoms: C_1  and  C_10
    2  A    between atoms: C_3  and  O_28
    3  A    between atoms: C_6  and  C_31
    4  A    between atoms: C_8  and  O_28
    5  A    between atoms: C_19  and  C_24
                            x       y       z     vdW  Elec       q    Type
                         _______ _______ _______ _____ _____    ______ ____

>  <TORSDO>
F 5

$$$$
