=
 OpenBabel11052420253D

 34 39  0  0  1  0  0  0  0  0999 V2000
  190.4970  175.7550  143.9230 C   0  0  0  0  0  2  0  0  0  0  0  0
  188.7850  177.5220  143.4400 C   0  0  0  0  0  0  0  0  0  0  0  0
  189.6270  176.5700  142.9940 C   0  0  0  0  0  3  0  0  0  0  0  0
  189.6430  177.3050  145.6880 C   0  0  0  0  0  0  0  0  0  0  0  0
  189.7030  177.4610  147.0770 N   0  0  0  0  0  0  0  0  0  0  0  0
  188.7470  177.8610  144.8800 C   0  0  0  0  0  3  0  0  0  0  0  0
  191.3180  175.8600  146.3090 N   0  0  0  0  0  0  0  0  0  0  0  0
  190.6100  176.4060  145.2280 N   0  0  0  0  0  0  0  0  0  0  0  0
  190.7870  176.5690  147.4990 C   0  0  0  0  0  3  0  0  0  0  0  0
  192.6560  176.2580  146.1660 N   0  0  0  0  0  2  0  0  0  0  0  0
  193.9580  174.8750  144.7300 C   0  0  2  0  0  3  0  0  0  0  0  0
  196.4980  175.9270  142.1810 C   0  0  0  0  0  0  0  0  0  0  0  0
  195.8340  176.5770  141.3300 O   0  0  0  0  0  0  0  0  0  0  0  0
  194.4340  175.7590  143.6010 C   0  0  0  0  0  2  0  0  0  0  0  0
  197.9410  175.6610  141.9110 C   0  0  0  0  0  1  0  0  0  0  0  0
  195.8710  175.4580  143.3850 N   0  0  0  0  0  0  0  0  0  0  0  0
  196.6890  174.7470  144.4100 C   0  0  0  0  0  2  0  0  0  0  0  0
  193.4580  175.0470  146.0910 C   0  0  1  0  0  3  0  0  0  0  0  0
  195.8720  174.3830  145.6780 C   0  0  0  0  0  2  0  0  0  0  0  0
  194.8410  175.3930  145.8010 N   0  0  1  0  0  0  0  0  0  0  0  0
  187.9220  178.2490  142.5520 N   0  0  0  0  0  2  0  0  0  0  0  0
  184.4310  178.9770  143.7550 C   0  0  0  0  0  3  0  0  0  0  0  0
  185.7500  178.0660  141.4580 C   0  0  0  0  0  3  0  0  0  0  0  0
  181.5560  178.4660  141.4650 C   0  0  0  0  0  0  0  0  0  0  0  0
  182.3040  178.7880  142.6110 C   0  0  0  0  0  3  0  0  0  0  0  0
  183.6950  178.6580  142.6130 C   0  0  0  0  0  0  0  0  0  0  0  0
  183.6240  177.8770  140.3130 C   0  0  0  0  0  3  0  0  0  0  0  0
  184.3590  178.1980  141.4550 C   0  0  0  0  0  0  0  0  0  0  0  0
  182.2320  178.0100  140.3190 C   0  0  0  0  0  3  0  0  0  0  0  0
  186.4910  178.3870  142.6020 C   0  0  0  0  0  0  0  0  0  0  0  0
  185.8220  178.8440  143.7490 C   0  0  0  0  0  3  0  0  0  0  0  0
  180.1230  178.6050  141.4640 N   0  0  0  0  0  0  0  0  0  0  0  0
  179.2600  177.5110  141.8850 C   0  0  0  0  0  1  0  0  0  0  0  0
  179.4850  179.8430  141.0450 C   0  0  0  0  0  1  0  0  0  0  0  0
  1  8  1  0  0  0  0
  2  6  1  0  0  0  0
  3  2  2  0  0  0  0
  3  1  1  0  0  0  0
  4  5  1  0  0  0  0
  5  9  2  0  0  0  0
  6  4  2  0  0  0  0
  7  9  1  0  0  0  0
  8  4  1  0  0  0  0
  8  7  1  0  0  0  0
 10  7  1  0  0  0  0
 11 14  1  6  0  0  0
 11 20  1  0  0  0  0
 11 18  1  0  0  0  0
 12 16  1  0  0  0  0
 13 12  2  0  0  0  0
 15 12  1  0  0  0  0
 16 14  1  0  0  0  0
 16 17  1  0  0  0  0
 17 19  1  0  0  0  0
 18 10  1  6  0  0  0
 20 19  1  1  0  0  0
 20 18  1  0  0  0  0
 21 30  1  0  0  0  0
 21  2  1  0  0  0  0
 23 30  1  0  0  0  0
 24 25  2  0  0  0  0
 25 26  1  0  0  0  0
 26 22  2  0  0  0  0
 27 29  2  0  0  0  0
 27 28  1  0  0  0  0
 28 23  2  0  0  0  0
 28 26  1  0  0  0  0
 29 24  1  0  0  0  0
 30 31  2  0  0  0  0
 31 22  1  0  0  0  0
 32 24  1  0  0  0  0
 32 33  1  0  0  0  0
 34 32  1  0  0  0  0
M  END
>  <MODEL>
1

>  <REMARK>
 VINA RESULT:      -8.0      0.000      0.000
  Name = 
  5 active torsions:
  status: ('A' for Active; 'I' for Inactive)
    1  A    between atoms: N_5  and  N_19
    2  A    between atoms: N_5  and  C_32
    3  A    between atoms: C_7  and  N_11
    4  A    between atoms: C_8  and  N_18
    5  A    between atoms: N_18  and  C_30
                            x       y       z     vdW  Elec       q    Type
                         _______ _______ _______ _____ _____    ______ ____

>  <TORSDO>
F 5

$$$$
=
 OpenBabel11052420253D

 34 39  0  0  1  0  0  0  0  0999 V2000
  194.3370  173.7440  144.0360 C   0  0  0  0  0  2  0  0  0  0  0  0
  193.0190  175.0390  145.7310 C   0  0  0  0  0  0  0  0  0  0  0  0
  193.1710  173.9320  144.9790 C   0  0  0  0  0  3  0  0  0  0  0  0
  194.8820  176.1100  144.6270 C   0  0  0  0  0  0  0  0  0  0  0  0
  195.8930  177.0510  144.4010 N   0  0  0  0  0  0  0  0  0  0  0  0
  193.9690  176.1650  145.5910 C   0  0  0  0  0  3  0  0  0  0  0  0
  196.1190  175.1590  142.9410 N   0  0  0  0  0  0  0  0  0  0  0  0
  194.9810  175.0250  143.7510 N   0  0  0  0  0  0  0  0  0  0  0  0
  196.6850  176.4810  143.3070 C   0  0  0  0  0  3  0  0  0  0  0  0
  195.6710  175.2650  141.6160 N   0  0  0  0  0  2  0  0  0  0  0  0
  196.1420  174.3610  139.4650 C   0  0  2  0  0  3  0  0  0  0  0  0
  195.0050  175.6240  136.1220 C   0  0  0  0  0  0  0  0  0  0  0  0
  193.7520  175.4980  136.1520 O   0  0  0  0  0  0  0  0  0  0  0  0
  195.0910  174.9130  138.5290 C   0  0  0  0  0  2  0  0  0  0  0  0
  195.6490  176.0690  134.8520 C   0  0  0  0  0  1  0  0  0  0  0  0
  195.7890  175.3450  137.2930 N   0  0  0  0  0  0  0  0  0  0  0  0
  197.2650  175.5620  137.2570 C   0  0  0  0  0  2  0  0  0  0  0  0
  196.7080  174.7050  140.7660 C   0  0  1  0  0  3  0  0  0  0  0  0
  197.9410  175.2890  138.6260 C   0  0  0  0  0  2  0  0  0  0  0  0
  196.9490  175.5910  139.6370 N   0  0  1  0  0  0  0  0  0  0  0  0
  191.9390  175.1790  146.6660 N   0  0  0  0  0  2  0  0  0  0  0  0
  188.2210  175.6590  147.0080 C   0  0  0  0  0  3  0  0  0  0  0  0
  190.3160  176.3700  145.2890 C   0  0  0  0  0  3  0  0  0  0  0  0
  186.3890  177.6580  144.4740 C   0  0  0  0  0  0  0  0  0  0  0  0
  186.6600  176.8710  145.6070 C   0  0  0  0  0  3  0  0  0  0  0  0
  187.9600  176.4430  145.8820 C   0  0  0  0  0  0  0  0  0  0  0  0
  188.7550  177.5830  143.8890 C   0  0  0  0  0  3  0  0  0  0  0  0
  189.0160  176.8000  145.0160 C   0  0  0  0  0  0  0  0  0  0  0  0
  187.4500  178.0080  143.6210 C   0  0  0  0  0  3  0  0  0  0  0  0
  190.5820  175.5850  146.4190 C   0  0  0  0  0  0  0  0  0  0  0  0
  189.5260  175.2340  147.2750 C   0  0  0  0  0  3  0  0  0  0  0  0
  185.0480  178.1020  144.1950 N   0  0  0  0  0  0  0  0  0  0  0  0
  184.4860  178.0070  142.8560 C   0  0  0  0  0  1  0  0  0  0  0  0
  184.2040  178.6580  145.2410 C   0  0  0  0  0  1  0  0  0  0  0  0
  1  3  1  0  0  0  0
  2 21  1  0  0  0  0
  3  2  2  0  0  0  0
  4  6  2  0  0  0  0
  5  4  1  0  0  0  0
  6  2  1  0  0  0  0
  7  9  1  0  0  0  0
  7  8  1  0  0  0  0
  8  1  1  0  0  0  0
  8  4  1  0  0  0  0
  9  5  2  0  0  0  0
 10  7  1  0  0  0  0
 11 14  1  1  0  0  0
 11 20  1  0  0  0  0
 11 18  1  0  0  0  0
 12 13  2  0  0  0  0
 12 16  1  0  0  0  0
 15 12  1  0  0  0  0
 16 14  1  0  0  0  0
 17 16  1  0  0  0  0
 17 19  1  0  0  0  0
 18 10  1  1  0  0  0
 20 19  1  6  0  0  0
 20 18  1  0  0  0  0
 22 31  1  0  0  0  0
 23 30  1  0  0  0  0
 24 25  2  0  0  0  0
 25 26  1  0  0  0  0
 26 22  2  0  0  0  0
 27 28  1  0  0  0  0
 28 23  2  0  0  0  0
 28 26  1  0  0  0  0
 29 27  2  0  0  0  0
 29 24  1  0  0  0  0
 30 21  1  0  0  0  0
 30 31  2  0  0  0  0
 32 24  1  0  0  0  0
 32 34  1  0  0  0  0
 33 32  1  0  0  0  0
M  END
>  <MODEL>
2

>  <REMARK>
 VINA RESULT:      -7.8      2.980      6.039
  Name = 
  5 active torsions:
  status: ('A' for Active; 'I' for Inactive)
    1  A    between atoms: N_5  and  N_19
    2  A    between atoms: N_5  and  C_32
    3  A    between atoms: C_7  and  N_11
    4  A    between atoms: C_8  and  N_18
    5  A    between atoms: N_18  and  C_30
                            x       y       z     vdW  Elec       q    Type
                         _______ _______ _______ _____ _____    ______ ____

>  <TORSDO>
F 5

$$$$
=
 OpenBabel11052420253D

 34 39  0  0  1  0  0  0  0  0999 V2000
  192.0940  173.7090  145.2490 C   0  0  0  0  0  2  0  0  0  0  0  0
  191.0200  175.6780  146.3680 C   0  0  0  0  0  0  0  0  0  0  0  0
  190.9010  174.5450  145.6490 C   0  0  0  0  0  3  0  0  0  0  0  0
  193.4290  175.5880  146.2150 C   0  0  0  0  0  0  0  0  0  0  0  0
  194.7620  175.8990  146.5040 N   0  0  0  0  0  0  0  0  0  0  0  0
  192.3610  176.1910  146.7260 C   0  0  0  0  0  3  0  0  0  0  0  0
  194.6030  173.9570  145.1020 N   0  0  0  0  0  0  0  0  0  0  0  0
  193.3290  174.4830  145.3640 N   0  0  0  0  0  0  0  0  0  0  0  0
  195.5380  174.8870  145.7800 C   0  0  0  0  0  3  0  0  0  0  0  0
  194.8280  174.0920  143.7240 N   0  0  0  0  0  2  0  0  0  0  0  0
  196.6030  173.7060  142.1860 C   0  0  2  0  0  3  0  0  0  0  0  0
  196.7320  174.5530  138.5360 C   0  0  0  0  0  0  0  0  0  0  0  0
  195.8260  173.8440  138.0200 O   0  0  0  0  0  0  0  0  0  0  0  0
  195.9950  173.7680  140.8040 C   0  0  0  0  0  2  0  0  0  0  0  0
  197.6110  175.3550  137.6360 C   0  0  0  0  0  1  0  0  0  0  0  0
  196.9050  174.5820  139.9610 N   0  0  0  0  0  0  0  0  0  0  0  0
  197.9400  175.4760  140.5560 C   0  0  0  0  0  2  0  0  0  0  0  0
  196.2670  174.1660  143.5300 C   0  0  1  0  0  3  0  0  0  0  0  0
  197.9350  175.4440  142.1070 C   0  0  0  0  0  2  0  0  0  0  0  0
  196.5740  175.1520  142.5040 N   0  0  1  0  0  0  0  0  0  0  0  0
  189.8730  176.4320  146.7920 N   0  0  0  0  0  2  0  0  0  0  0  0
  186.2250  176.7500  145.9200 C   0  0  0  0  0  3  0  0  0  0  0  0
  188.7410  177.1990  144.7730 C   0  0  0  0  0  3  0  0  0  0  0  0
  185.2430  178.0450  142.5830 C   0  0  0  0  0  0  0  0  0  0  0  0
  185.1590  177.5370  143.8910 C   0  0  0  0  0  3  0  0  0  0  0  0
  186.3160  177.2570  144.6210 C   0  0  0  0  0  0  0  0  0  0  0  0
  187.6760  177.9870  142.7450 C   0  0  0  0  0  3  0  0  0  0  0  0
  187.5840  177.4820  144.0430 C   0  0  0  0  0  0  0  0  0  0  0  0
  186.5130  178.2660  142.0210 C   0  0  0  0  0  3  0  0  0  0  0  0
  188.6540  176.6930  146.0760 C   0  0  0  0  0  0  0  0  0  0  0  0
  187.3880  176.4720  146.6430 C   0  0  0  0  0  3  0  0  0  0  0  0
  184.0490  178.3370  141.8340 N   0  0  0  0  0  0  0  0  0  0  0  0
  184.0670  178.3940  140.3790 C   0  0  0  0  0  1  0  0  0  0  0  0
  182.7800  178.5820  142.5010 C   0  0  0  0  0  1  0  0  0  0  0  0
  1  8  1  0  0  0  0
  1  3  1  0  0  0  0
  2  6  1  0  0  0  0
  2 21  1  0  0  0  0
  3  2  2  0  0  0  0
  4  5  1  0  0  0  0
  4  6  2  0  0  0  0
  7  8  1  0  0  0  0
  7  9  1  0  0  0  0
  8  4  1  0  0  0  0
  9  5  2  0  0  0  0
 10  7  1  0  0  0  0
 11 14  1  6  0  0  0
 11 20  1  0  0  0  0
 11 18  1  0  0  0  0
 12 16  1  0  0  0  0
 13 12  2  0  0  0  0
 15 12  1  0  0  0  0
 16 17  1  0  0  0  0
 16 14  1  0  0  0  0
 17 19  1  0  0  0  0
 18 10  1  6  0  0  0
 20 19  1  1  0  0  0
 20 18  1  0  0  0  0
 22 31  1  0  0  0  0
 23 30  1  0  0  0  0
 24 25  2  0  0  0  0
 25 26  1  0  0  0  0
 26 22  2  0  0  0  0
 27 28  1  0  0  0  0
 28 26  1  0  0  0  0
 28 23  2  0  0  0  0
 29 24  1  0  0  0  0
 29 27  2  0  0  0  0
 30 31  2  0  0  0  0
 30 21  1  0  0  0  0
 32 34  1  0  0  0  0
 32 24  1  0  0  0  0
 33 32  1  0  0  0  0
M  END
>  <MODEL>
3

>  <REMARK>
 VINA RESULT:      -7.8      2.108      4.147
  Name = 
  5 active torsions:
  status: ('A' for Active; 'I' for Inactive)
    1  A    between atoms: N_5  and  N_19
    2  A    between atoms: N_5  and  C_32
    3  A    between atoms: C_7  and  N_11
    4  A    between atoms: C_8  and  N_18
    5  A    between atoms: N_18  and  C_30
                            x       y       z     vdW  Elec       q    Type
                         _______ _______ _______ _____ _____    ______ ____

>  <TORSDO>
F 5

$$$$
=
 OpenBabel11052420253D

 34 39  0  0  1  0  0  0  0  0999 V2000
  194.5900  173.8260  143.9010 C   0  0  0  0  0  2  0  0  0  0  0  0
  193.3240  175.0400  145.6920 C   0  0  0  0  0  0  0  0  0  0  0  0
  193.4690  173.9560  144.9050 C   0  0  0  0  0  3  0  0  0  0  0  0
  195.0970  176.1930  144.5240 C   0  0  0  0  0  0  0  0  0  0  0  0
  196.0690  177.1680  144.2720 N   0  0  0  0  0  0  0  0  0  0  0  0
  194.2330  176.1970  145.5330 C   0  0  0  0  0  3  0  0  0  0  0  0
  196.2740  175.3190  142.7550 N   0  0  0  0  0  0  0  0  0  0  0  0
  195.1830  175.1320  143.6170 N   0  0  0  0  0  0  0  0  0  0  0  0
  196.8190  176.6480  143.1260 C   0  0  0  0  0  3  0  0  0  0  0  0
  195.7560  175.4440  141.4570 N   0  0  0  0  0  2  0  0  0  0  0  0
  197.5770  174.6170  140.1650 C   0  0  2  0  0  3  0  0  0  0  0  0
  197.6280  171.6620  137.8590 C   0  0  0  0  0  0  0  0  0  0  0  0
  197.4190  170.6750  138.6140 O   0  0  0  0  0  0  0  0  0  0  0  0
  197.2410  173.1860  139.8160 C   0  0  0  0  0  2  0  0  0  0  0  0
  197.9410  171.4090  136.4220 C   0  0  0  0  0  1  0  0  0  0  0  0
  197.5620  172.9980  138.3800 N   0  0  0  0  0  0  0  0  0  0  0  0
  197.7490  174.1550  137.4570 C   0  0  0  0  0  2  0  0  0  0  0  0
  196.8610  175.8170  140.5890 C   0  0  1  0  0  3  0  0  0  0  0  0
  197.5670  175.5220  138.1690 C   0  0  0  0  0  2  0  0  0  0  0  0
  196.6300  175.2950  139.2500 N   0  0  1  0  0  0  0  0  0  0  0  0
  192.2880  175.1260  146.6830 N   0  0  0  0  0  2  0  0  0  0  0  0
  188.5550  175.3140  147.1190 C   0  0  0  0  0  3  0  0  0  0  0  0
  190.5750  176.4140  145.5210 C   0  0  0  0  0  3  0  0  0  0  0  0
  186.5650  177.5680  144.9440 C   0  0  0  0  0  0  0  0  0  0  0  0
  186.9010  176.6310  145.9370 C   0  0  0  0  0  3  0  0  0  0  0  0
  188.2290  176.2470  146.1330 C   0  0  0  0  0  0  0  0  0  0  0  0
  188.9220  177.7330  144.3400 C   0  0  0  0  0  3  0  0  0  0  0  0
  189.2470  176.8010  145.3270 C   0  0  0  0  0  0  0  0  0  0  0  0
  187.5900  178.1120  144.1500 C   0  0  0  0  0  3  0  0  0  0  0  0
  190.9060  175.4810  146.5110 C   0  0  0  0  0  0  0  0  0  0  0  0
  189.8870  174.9350  147.3080 C   0  0  0  0  0  3  0  0  0  0  0  0
  185.1950  177.9660  144.7470 N   0  0  0  0  0  0  0  0  0  0  0  0
  184.6170  178.0410  143.4130 C   0  0  0  0  0  1  0  0  0  0  0  0
  184.3370  178.3030  145.8720 C   0  0  0  0  0  1  0  0  0  0  0  0
  1  3  1  0  0  0  0
  2 21  1  0  0  0  0
  3  2  2  0  0  0  0
  4  6  2  0  0  0  0
  5  4  1  0  0  0  0
  6  2  1  0  0  0  0
  7  9  1  0  0  0  0
  7  8  1  0  0  0  0
  8  1  1  0  0  0  0
  8  4  1  0  0  0  0
  9  5  2  0  0  0  0
 10  7  1  0  0  0  0
 11 14  1  1  0  0  0
 11 18  1  0  0  0  0
 12 16  1  0  0  0  0
 12 13  2  0  0  0  0
 15 12  1  0  0  0  0
 16 14  1  0  0  0  0
 17 19  1  0  0  0  0
 17 16  1  0  0  0  0
 18 10  1  1  0  0  0
 20 19  1  6  0  0  0
 20 11  1  0  0  0  0
 20 18  1  0  0  0  0
 22 31  1  0  0  0  0
 23 30  1  0  0  0  0
 24 25  2  0  0  0  0
 25 26  1  0  0  0  0
 26 22  2  0  0  0  0
 27 28  1  0  0  0  0
 28 23  2  0  0  0  0
 28 26  1  0  0  0  0
 29 27  2  0  0  0  0
 29 24  1  0  0  0  0
 30 21  1  0  0  0  0
 30 31  2  0  0  0  0
 32 24  1  0  0  0  0
 32 34  1  0  0  0  0
 33 32  1  0  0  0  0
M  END
>  <MODEL>
4

>  <REMARK>
 VINA RESULT:      -7.8      2.963      6.293
  Name = 
  5 active torsions:
  status: ('A' for Active; 'I' for Inactive)
    1  A    between atoms: N_5  and  N_19
    2  A    between atoms: N_5  and  C_32
    3  A    between atoms: C_7  and  N_11
    4  A    between atoms: C_8  and  N_18
    5  A    between atoms: N_18  and  C_30
                            x       y       z     vdW  Elec       q    Type
                         _______ _______ _______ _____ _____    ______ ____

>  <TORSDO>
F 5

$$$$
=
 OpenBabel11052420253D

 34 39  0  0  1  0  0  0  0  0999 V2000
  187.7400  177.7360  144.8290 C   0  0  0  0  0  2  0  0  0  0  0  0
  188.8690  176.3470  146.5840 C   0  0  0  0  0  0  0  0  0  0  0  0
  188.8060  176.7800  145.3100 C   0  0  0  0  0  3  0  0  0  0  0  0
  186.7660  177.4140  147.1080 C   0  0  0  0  0  0  0  0  0  0  0  0
  185.7260  177.9220  147.8950 N   0  0  0  0  0  0  0  0  0  0  0  0
  187.8230  176.7420  147.5520 C   0  0  0  0  0  3  0  0  0  0  0  0
  185.4960  178.5990  145.6040 N   0  0  0  0  0  0  0  0  0  0  0  0
  186.6160  177.7690  145.7640 N   0  0  0  0  0  0  0  0  0  0  0  0
  184.8820  178.6620  146.9530 C   0  0  0  0  0  3  0  0  0  0  0  0
  184.5910  177.9140  144.7800 N   0  0  0  0  0  2  0  0  0  0  0  0
  185.2760  178.7490  142.6580 C   0  0  2  0  0  3  0  0  0  0  0  0
  186.6900  176.8320  139.7620 C   0  0  0  0  0  0  0  0  0  0  0  0
  187.7840  176.3810  140.1930 O   0  0  0  0  0  0  0  0  0  0  0  0
  186.1940  177.7060  142.0630 C   0  0  0  0  0  2  0  0  0  0  0  0
  186.3440  176.6210  138.3260 C   0  0  0  0  0  1  0  0  0  0  0  0
  185.7980  177.5330  140.6440 N   0  0  0  0  0  0  0  0  0  0  0  0
  184.4790  178.0030  140.1310 C   0  0  0  0  0  2  0  0  0  0  0  0
  184.2430  178.8090  143.6880 C   0  0  1  0  0  3  0  0  0  0  0  0
  183.6120  178.6660  141.2340 C   0  0  0  0  0  2  0  0  0  0  0  0
  183.9900  178.0350  142.4820 N   0  0  1  0  0  0  0  0  0  0  0  0
  189.9220  175.4850  147.0410 N   0  0  0  0  0  2  0  0  0  0  0  0
  193.5670  176.3550  146.6930 C   0  0  0  0  0  3  0  0  0  0  0  0
  191.7340  174.4420  145.7850 C   0  0  0  0  0  3  0  0  0  0  0  0
  195.7640  174.2440  144.5740 C   0  0  0  0  0  0  0  0  0  0  0  0
  195.3280  175.2670  145.4350 C   0  0  0  0  0  3  0  0  0  0  0  0
  193.9930  175.3350  145.8400 C   0  0  0  0  0  0  0  0  0  0  0  0
  193.4940  173.3530  144.5280 C   0  0  0  0  0  3  0  0  0  0  0  0
  193.0690  174.3720  145.3820 C   0  0  0  0  0  0  0  0  0  0  0  0
  194.8320  173.2910  144.1270 C   0  0  0  0  0  3  0  0  0  0  0  0
  191.3030  175.4620  146.6420 C   0  0  0  0  0  0  0  0  0  0  0  0
  192.2300  176.4170  147.0930 C   0  0  0  0  0  3  0  0  0  0  0  0
  197.1410  174.1730  144.1610 N   0  0  0  0  0  0  0  0  0  0  0  0
  197.7860  175.2920  143.4900 C   0  0  0  0  0  1  0  0  0  0  0  0
  197.9410  172.9820  144.4030 C   0  0  0  0  0  1  0  0  0  0  0  0
  1  3  1  0  0  0  0
  1  8  1  0  0  0  0
  2 21  1  0  0  0  0
  2  6  1  0  0  0  0
  3  2  2  0  0  0  0
  4  6  2  0  0  0  0
  4  5  1  0  0  0  0
  7  8  1  0  0  0  0
  7  9  1  0  0  0  0
  8  4  1  0  0  0  0
  9  5  2  0  0  0  0
 10  7  1  0  0  0  0
 11 14  1  1  0  0  0
 11 18  1  0  0  0  0
 12 13  2  0  0  0  0
 12 16  1  0  0  0  0
 15 12  1  0  0  0  0
 16 14  1  0  0  0  0
 17 16  1  0  0  0  0
 17 19  1  0  0  0  0
 18 10  1  1  0  0  0
 20 19  1  6  0  0  0
 20 11  1  0  0  0  0
 20 18  1  0  0  0  0
 22 31  1  0  0  0  0
 23 30  1  0  0  0  0
 24 25  2  0  0  0  0
 25 26  1  0  0  0  0
 26 22  2  0  0  0  0
 27 28  1  0  0  0  0
 28 23  2  0  0  0  0
 28 26  1  0  0  0  0
 29 27  2  0  0  0  0
 29 24  1  0  0  0  0
 30 21  1  0  0  0  0
 30 31  2  0  0  0  0
 32 34  1  0  0  0  0
 32 24  1  0  0  0  0
 33 32  1  0  0  0  0
M  END
>  <MODEL>
5

>  <REMARK>
 VINA RESULT:      -7.8      2.635     10.567
  Name = 
  5 active torsions:
  status: ('A' for Active; 'I' for Inactive)
    1  A    between atoms: N_5  and  N_19
    2  A    between atoms: N_5  and  C_32
    3  A    between atoms: C_7  and  N_11
    4  A    between atoms: C_8  and  N_18
    5  A    between atoms: N_18  and  C_30
                            x       y       z     vdW  Elec       q    Type
                         _______ _______ _______ _____ _____    ______ ____

>  <TORSDO>
F 5

$$$$
=
 OpenBabel11052420253D

 34 39  0  0  1  0  0  0  0  0999 V2000
  193.8880  174.0030  143.1830 C   0  0  0  0  0  2  0  0  0  0  0  0
  193.0110  175.0060  145.3060 C   0  0  0  0  0  0  0  0  0  0  0  0
  192.8770  174.1210  144.3000 C   0  0  0  0  0  3  0  0  0  0  0  0
  194.9220  176.0210  144.2330 C   0  0  0  0  0  0  0  0  0  0  0  0
  196.0650  176.8170  144.0950 N   0  0  0  0  0  0  0  0  0  0  0  0
  194.1360  175.9660  145.3030 C   0  0  0  0  0  3  0  0  0  0  0  0
  195.7870  175.3550  142.2110 N   0  0  0  0  0  0  0  0  0  0  0  0
  194.7300  175.1970  143.1200 N   0  0  0  0  0  0  0  0  0  0  0  0
  196.6230  176.4320  142.7960 C   0  0  0  0  0  3  0  0  0  0  0  0
  195.2370  175.8690  141.0270 N   0  0  0  0  0  2  0  0  0  0  0  0
  194.5700  174.1030  139.5760 C   0  0  2  0  0  3  0  0  0  0  0  0
  191.3310  173.7260  137.7250 C   0  0  0  0  0  0  0  0  0  0  0  0
  190.4650  173.6130  138.6330 O   0  0  0  0  0  0  0  0  0  0  0  0
  193.0620  174.1670  139.4890 C   0  0  0  0  0  2  0  0  0  0  0  0
  190.9040  173.5620  136.3050 C   0  0  0  0  0  1  0  0  0  0  0  0
  192.6990  174.0080  138.0590 N   0  0  0  0  0  0  0  0  0  0  0  0
  193.6970  174.2020  136.9680 C   0  0  0  0  0  2  0  0  0  0  0  0
  195.6630  174.9980  139.9440 C   0  0  1  0  0  3  0  0  0  0  0  0
  195.1030  174.5770  137.5040 C   0  0  0  0  0  2  0  0  0  0  0  0
  194.8870  175.2890  138.7470 N   0  0  1  0  0  0  0  0  0  0  0  0
  192.0730  175.0670  146.3930 N   0  0  0  0  0  2  0  0  0  0  0  0
  188.4160  175.3940  147.2190 C   0  0  0  0  0  3  0  0  0  0  0  0
  190.3010  176.4370  145.4280 C   0  0  0  0  0  3  0  0  0  0  0  0
  186.3020  177.7530  145.2840 C   0  0  0  0  0  0  0  0  0  0  0  0
  186.7010  176.7900  146.2280 C   0  0  0  0  0  3  0  0  0  0  0  0
  188.0260  176.3520  146.2800 C   0  0  0  0  0  0  0  0  0  0  0  0
  188.5880  177.8340  144.4380 C   0  0  0  0  0  3  0  0  0  0  0  0
  188.9770  176.8770  145.3780 C   0  0  0  0  0  0  0  0  0  0  0  0
  187.2590  178.2680  144.3930 C   0  0  0  0  0  3  0  0  0  0  0  0
  190.6950  175.4780  146.3690 C   0  0  0  0  0  0  0  0  0  0  0  0
  189.7440  174.9610  147.2630 C   0  0  0  0  0  3  0  0  0  0  0  0
  184.9360  178.2060  145.2350 N   0  0  0  0  0  0  0  0  0  0  0  0
  184.1420  178.3400  146.4480 C   0  0  0  0  0  1  0  0  0  0  0  0
  184.3000  178.5510  143.9730 C   0  0  0  0  0  1  0  0  0  0  0  0
  1  3  1  0  0  0  0
  2 21  1  0  0  0  0
  3  2  2  0  0  0  0
  4  6  2  0  0  0  0
  5  4  1  0  0  0  0
  6  2  1  0  0  0  0
  7  9  1  0  0  0  0
  7  8  1  0  0  0  0
  8  1  1  0  0  0  0
  8  4  1  0  0  0  0
  9  5  2  0  0  0  0
 10  7  1  0  0  0  0
 11 14  1  1  0  0  0
 11 18  1  0  0  0  0
 12 16  1  0  0  0  0
 12 13  2  0  0  0  0
 15 12  1  0  0  0  0
 16 14  1  0  0  0  0
 17 19  1  0  0  0  0
 17 16  1  0  0  0  0
 18 10  1  1  0  0  0
 20 19  1  6  0  0  0
 20 11  1  0  0  0  0
 20 18  1  0  0  0  0
 22 31  1  0  0  0  0
 23 30  1  0  0  0  0
 24 25  2  0  0  0  0
 25 26  1  0  0  0  0
 26 22  2  0  0  0  0
 27 28  1  0  0  0  0
 28 23  2  0  0  0  0
 28 26  1  0  0  0  0
 29 27  2  0  0  0  0
 29 24  1  0  0  0  0
 30 21  1  0  0  0  0
 30 31  2  0  0  0  0
 32 24  1  0  0  0  0
 32 33  1  0  0  0  0
 34 32  1  0  0  0  0
M  END
>  <MODEL>
6

>  <REMARK>
 VINA RESULT:      -7.8      3.369      6.360
  Name = 
  5 active torsions:
  status: ('A' for Active; 'I' for Inactive)
    1  A    between atoms: N_5  and  N_19
    2  A    between atoms: N_5  and  C_32
    3  A    between atoms: C_7  and  N_11
    4  A    between atoms: C_8  and  N_18
    5  A    between atoms: N_18  and  C_30
                            x       y       z     vdW  Elec       q    Type
                         _______ _______ _______ _____ _____    ______ ____

>  <TORSDO>
F 5

$$$$
=
 OpenBabel11052420253D

 34 39  0  0  1  0  0  0  0  0999 V2000
  190.7690  177.6780  144.8380 C   0  0  0  0  0  2  0  0  0  0  0  0
  192.6990  176.0880  144.6500 C   0  0  0  0  0  0  0  0  0  0  0  0
  192.0680  177.2020  144.2310 C   0  0  0  0  0  3  0  0  0  0  0  0
  190.8480  175.5180  146.0930 C   0  0  0  0  0  0  0  0  0  0  0  0
  190.1470  174.8590  147.1100 N   0  0  0  0  0  0  0  0  0  0  0  0
  192.0810  175.2340  145.6890 C   0  0  0  0  0  3  0  0  0  0  0  0
  188.9220  176.7550  146.2920 N   0  0  0  0  0  0  0  0  0  0  0  0
  190.1220  176.5980  145.5820 N   0  0  0  0  0  0  0  0  0  0  0  0
  188.8960  175.6130  147.2390 C   0  0  0  0  0  3  0  0  0  0  0  0
  187.8760  176.5470  145.3810 N   0  0  0  0  0  2  0  0  0  0  0  0
  186.6790  178.2820  144.2740 C   0  0  2  0  0  3  0  0  0  0  0  0
  184.8650  178.1180  140.9970 C   0  0  0  0  0  0  0  0  0  0  0  0
  185.7710  177.8920  140.1510 O   0  0  0  0  0  0  0  0  0  0  0  0
  186.5680  177.8690  142.8240 C   0  0  0  0  0  2  0  0  0  0  0  0
  183.4780  178.3680  140.5080 C   0  0  0  0  0  1  0  0  0  0  0  0
  185.1710  178.1310  142.4000 N   0  0  0  0  0  0  0  0  0  0  0  0
  184.0740  178.3370  143.3880 C   0  0  0  0  0  2  0  0  0  0  0  0
  186.9290  177.6360  145.5590 C   0  0  1  0  0  3  0  0  0  0  0  0
  184.5670  178.2420  144.8560 C   0  0  0  0  0  2  0  0  0  0  0  0
  185.6950  177.3340  144.8480 N   0  0  1  0  0  0  0  0  0  0  0  0
  193.9630  175.6800  144.1040 N   0  0  0  0  0  2  0  0  0  0  0  0
  193.7670  174.8140  140.4470 C   0  0  0  0  0  3  0  0  0  0  0  0
  195.6360  175.7110  142.3300 C   0  0  0  0  0  3  0  0  0  0  0  0
  196.7910  175.1340  138.3200 C   0  0  0  0  0  0  0  0  0  0  0  0
  195.4690  174.8800  138.7240 C   0  0  0  0  0  3  0  0  0  0  0  0
  195.0810  175.0710  140.0520 C   0  0  0  0  0  0  0  0  0  0  0  0
  197.3380  175.7790  140.6080 C   0  0  0  0  0  3  0  0  0  0  0  0
  196.0230  175.5220  141.0010 C   0  0  0  0  0  0  0  0  0  0  0  0
  197.7180  175.5850  139.2760 C   0  0  0  0  0  3  0  0  0  0  0  0
  194.3180  175.4560  142.7290 C   0  0  0  0  0  0  0  0  0  0  0  0
  193.3880  175.0070  141.7780 C   0  0  0  0  0  3  0  0  0  0  0  0
  197.1870  174.9400  136.9500 N   0  0  0  0  0  0  0  0  0  0  0  0
  197.1700  176.0410  135.9970 C   0  0  0  0  0  1  0  0  0  0  0  0
  197.6240  173.6390  136.4670 C   0  0  0  0  0  1  0  0  0  0  0  0
  1  8  1  0  0  0  0
  2  6  1  0  0  0  0
  3  2  2  0  0  0  0
  3  1  1  0  0  0  0
  4  5  1  0  0  0  0
  5  9  2  0  0  0  0
  6  4  2  0  0  0  0
  7  9  1  0  0  0  0
  8  4  1  0  0  0  0
  8  7  1  0  0  0  0
 10  7  1  0  0  0  0
 11 14  1  6  0  0  0
 11 20  1  0  0  0  0
 11 18  1  0  0  0  0
 12 16  1  0  0  0  0
 13 12  2  0  0  0  0
 15 12  1  0  0  0  0
 16 14  1  0  0  0  0
 16 17  1  0  0  0  0
 17 19  1  0  0  0  0
 18 10  1  6  0  0  0
 20 19  1  1  0  0  0
 20 18  1  0  0  0  0
 21  2  1  0  0  0  0
 22 31  1  0  0  0  0
 23 30  1  0  0  0  0
 24 25  2  0  0  0  0
 24 29  1  0  0  0  0
 25 26  1  0  0  0  0
 26 22  2  0  0  0  0
 26 28  1  0  0  0  0
 27 28  1  0  0  0  0
 28 23  2  0  0  0  0
 29 27  2  0  0  0  0
 30 21  1  0  0  0  0
 31 30  2  0  0  0  0
 32 24  1  0  0  0  0
 33 32  1  0  0  0  0
 34 32  1  0  0  0  0
M  END
>  <MODEL>
7

>  <REMARK>
 VINA RESULT:      -7.6      3.185     10.765
  Name = 
  5 active torsions:
  status: ('A' for Active; 'I' for Inactive)
    1  A    between atoms: N_5  and  N_19
    2  A    between atoms: N_5  and  C_32
    3  A    between atoms: C_7  and  N_11
    4  A    between atoms: C_8  and  N_18
    5  A    between atoms: N_18  and  C_30
                            x       y       z     vdW  Elec       q    Type
                         _______ _______ _______ _____ _____    ______ ____

>  <TORSDO>
F 5

$$$$
=
 OpenBabel11052420253D

 34 39  0  0  1  0  0  0  0  0999 V2000
  189.9970  177.5550  142.8140 C   0  0  0  0  0  2  0  0  0  0  0  0
  187.8100  177.3060  141.6150 C   0  0  0  0  0  0  0  0  0  0  0  0
  188.7680  178.1020  142.1290 C   0  0  0  0  0  3  0  0  0  0  0  0
  188.8600  175.3450  142.5560 C   0  0  0  0  0  0  0  0  0  0  0  0
  189.1270  173.9870  142.7650 N   0  0  0  0  0  0  0  0  0  0  0  0
  187.8990  175.8390  141.7830 C   0  0  0  0  0  3  0  0  0  0  0  0
  190.7790  175.3740  143.8190 N   0  0  0  0  0  0  0  0  0  0  0  0
  189.7940  176.1600  143.2020 N   0  0  0  0  0  0  0  0  0  0  0  0
  190.3350  173.9760  143.5950 C   0  0  0  0  0  3  0  0  0  0  0  0
  190.6890  175.6100  145.1980 N   0  0  0  0  0  2  0  0  0  0  0  0
  192.8840  175.5450  146.1200 C   0  0  2  0  0  3  0  0  0  0  0  0
  195.6410  173.1180  145.3670 C   0  0  0  0  0  0  0  0  0  0  0  0
  195.1950  172.0080  145.7640 O   0  0  0  0  0  0  0  0  0  0  0  0
  193.4090  174.1490  145.8780 C   0  0  0  0  0  2  0  0  0  0  0  0
  197.0490  173.1890  144.8780 C   0  0  0  0  0  1  0  0  0  0  0  0
  194.8030  174.2840  145.3870 N   0  0  0  0  0  0  0  0  0  0  0  0
  195.3280  175.5740  144.8540 C   0  0  0  0  0  2  0  0  0  0  0  0
  191.8430  176.4110  145.5730 C   0  0  1  0  0  3  0  0  0  0  0  0
  194.2660  176.7050  144.8770 C   0  0  0  0  0  2  0  0  0  0  0  0
  192.9790  176.0580  144.7330 N   0  0  1  0  0  0  0  0  0  0  0  0
  186.6750  177.8390  140.9140 N   0  0  0  0  0  2  0  0  0  0  0  0
  183.8380  178.8410  143.1750 C   0  0  0  0  0  3  0  0  0  0  0  0
  184.2650  177.9350  140.5590 C   0  0  0  0  0  3  0  0  0  0  0  0
  180.3550  178.7500  141.8980 C   0  0  0  0  0  0  0  0  0  0  0  0
  181.4540  178.9300  142.7560 C   0  0  0  0  0  3  0  0  0  0  0  0
  182.7520  178.6620  142.3160 C   0  0  0  0  0  0  0  0  0  0  0  0
  181.8810  178.0250  140.1400 C   0  0  0  0  0  3  0  0  0  0  0  0
  182.9670  178.2050  140.9980 C   0  0  0  0  0  0  0  0  0  0  0  0
  180.5840  178.2950  140.5880 C   0  0  0  0  0  3  0  0  0  0  0  0
  185.3570  178.1150  141.4160 C   0  0  0  0  0  0  0  0  0  0  0  0
  185.1340  178.5710  142.7260 C   0  0  0  0  0  3  0  0  0  0  0  0
  179.0180  179.0310  142.3530 N   0  0  0  0  0  0  0  0  0  0  0  0
  178.6910  179.0430  143.7720 C   0  0  0  0  0  1  0  0  0  0  0  0
  177.9450  179.3160  141.4130 C   0  0  0  0  0  1  0  0  0  0  0  0
  1  8  1  0  0  0  0
  2  6  1  0  0  0  0
  2  3  2  0  0  0  0
  3  1  1  0  0  0  0
  4  5  1  0  0  0  0
  4  8  1  0  0  0  0
  5  9  2  0  0  0  0
  6  4  2  0  0  0  0
  7 10  1  0  0  0  0
  8  7  1  0  0  0  0
  9  7  1  0  0  0  0
 11 14  1  6  0  0  0
 12 16  1  0  0  0  0
 12 13  2  0  0  0  0
 15 12  1  0  0  0  0
 16 14  1  0  0  0  0
 17 19  1  0  0  0  0
 17 16  1  0  0  0  0
 18 10  1  6  0  0  0
 18 11  1  0  0  0  0
 20 19  1  1  0  0  0
 20 18  1  0  0  0  0
 20 11  1  0  0  0  0
 21 30  1  0  0  0  0
 21  2  1  0  0  0  0
 23 28  2  0  0  0  0
 23 30  1  0  0  0  0
 24 32  1  0  0  0  0
 24 25  2  0  0  0  0
 26 25  1  0  0  0  0
 26 22  2  0  0  0  0
 27 29  2  0  0  0  0
 27 28  1  0  0  0  0
 28 26  1  0  0  0  0
 29 24  1  0  0  0  0
 30 31  2  0  0  0  0
 31 22  1  0  0  0  0
 32 33  1  0  0  0  0
 34 32  1  0  0  0  0
M  END
>  <MODEL>
8

>  <REMARK>
 VINA RESULT:      -7.6      2.015      2.777
  Name = 
  5 active torsions:
  status: ('A' for Active; 'I' for Inactive)
    1  A    between atoms: N_5  and  N_19
    2  A    between atoms: N_5  and  C_32
    3  A    between atoms: C_7  and  N_11
    4  A    between atoms: C_8  and  N_18
    5  A    between atoms: N_18  and  C_30
                            x       y       z     vdW  Elec       q    Type
                         _______ _______ _______ _____ _____    ______ ____

>  <TORSDO>
F 5

$$$$
=
 OpenBabel11052420253D

 34 39  0  0  1  0  0  0  0  0999 V2000
  191.4890  176.9920  143.9460 C   0  0  0  0  0  2  0  0  0  0  0  0
  189.7520  177.3200  145.7240 C   0  0  0  0  0  0  0  0  0  0  0  0
  190.2600  177.6540  144.5220 C   0  0  0  0  0  3  0  0  0  0  0  0
  191.6370  175.8790  146.1790 C   0  0  0  0  0  0  0  0  0  0  0  0
  192.3950  174.8930  146.8210 N   0  0  0  0  0  0  0  0  0  0  0  0
  190.4490  176.3260  146.5700 C   0  0  0  0  0  3  0  0  0  0  0  0
  193.4100  175.5630  144.7510 N   0  0  0  0  0  0  0  0  0  0  0  0
  192.2440  176.3050  144.9930 N   0  0  0  0  0  0  0  0  0  0  0  0
  193.5510  174.6910  145.9430 C   0  0  0  0  0  3  0  0  0  0  0  0
  194.4840  176.4640  144.7820 N   0  0  0  0  0  2  0  0  0  0  0  0
  195.6790  174.9970  143.3360 C   0  0  2  0  0  3  0  0  0  0  0  0
  196.1700  175.2900  139.6300 C   0  0  0  0  0  0  0  0  0  0  0  0
  195.0090  175.1830  139.1540 O   0  0  0  0  0  0  0  0  0  0  0  0
  195.1780  175.2730  141.9370 C   0  0  0  0  0  2  0  0  0  0  0  0
  197.3250  175.3620  138.6890 C   0  0  0  0  0  1  0  0  0  0  0  0
  196.3670  175.3420  141.0520 N   0  0  0  0  0  0  0  0  0  0  0  0
  197.7430  175.5340  141.5960 C   0  0  0  0  0  2  0  0  0  0  0  0
  195.7020  175.6850  144.6240 C   0  0  1  0  0  3  0  0  0  0  0  0
  197.7620  175.6490  143.1430 C   0  0  0  0  0  2  0  0  0  0  0  0
  196.4890  176.2230  143.5240 N   0  0  1  0  0  0  0  0  0  0  0  0
  188.5490  177.9160  146.2330 N   0  0  0  0  0  2  0  0  0  0  0  0
  184.8940  178.5710  145.6190 C   0  0  0  0  0  3  0  0  0  0  0  0
  187.2000  177.8470  144.2030 C   0  0  0  0  0  3  0  0  0  0  0  0
  183.5310  178.2840  142.1790 C   0  0  0  0  0  0  0  0  0  0  0  0
  183.6100  178.5000  143.5660 C   0  0  0  0  0  3  0  0  0  0  0  0
  184.8240  178.3570  144.2410 C   0  0  0  0  0  0  0  0  0  0  0  0
  185.9160  177.7780  142.1500 C   0  0  0  0  0  3  0  0  0  0  0  0
  185.9860  177.9920  143.5280 C   0  0  0  0  0  0  0  0  0  0  0  0
  184.6970  177.9220  141.4820 C   0  0  0  0  0  3  0  0  0  0  0  0
  187.2740  178.0630  145.5850 C   0  0  0  0  0  0  0  0  0  0  0  0
  186.1130  178.4250  146.2860 C   0  0  0  0  0  3  0  0  0  0  0  0
  182.2790  178.4360  141.4850 N   0  0  0  0  0  0  0  0  0  0  0  0
  182.0950  177.9130  140.1390 C   0  0  0  0  0  1  0  0  0  0  0  0
  181.1490  179.1130  142.1040 C   0  0  0  0  0  1  0  0  0  0  0  0
  1  3  1  0  0  0  0
  1  8  1  0  0  0  0
  2 21  1  0  0  0  0
  2  6  1  0  0  0  0
  3  2  2  0  0  0  0
  4  6  2  0  0  0  0
  4  5  1  0  0  0  0
  7 10  1  0  0  0  0
  7  8  1  0  0  0  0
  7  9  1  0  0  0  0
  8  4  1  0  0  0  0
  9  5  2  0  0  0  0
 11 14  1  6  0  0  0
 11 20  1  0  0  0  0
 11 18  1  0  0  0  0
 12 16  1  0  0  0  0
 13 12  2  0  0  0  0
 15 12  1  0  0  0  0
 16 17  1  0  0  0  0
 16 14  1  0  0  0  0
 17 19  1  0  0  0  0
 18 10  1  6  0  0  0
 20 19  1  1  0  0  0
 20 18  1  0  0  0  0
 22 31  1  0  0  0  0
 23 30  1  0  0  0  0
 24 25  2  0  0  0  0
 25 26  1  0  0  0  0
 26 22  2  0  0  0  0
 27 28  1  0  0  0  0
 28 23  2  0  0  0  0
 28 26  1  0  0  0  0
 29 27  2  0  0  0  0
 29 24  1  0  0  0  0
 30 21  1  0  0  0  0
 30 31  2  0  0  0  0
 32 34  1  0  0  0  0
 32 24  1  0  0  0  0
 33 32  1  0  0  0  0
M  END
>  <MODEL>
9

>  <REMARK>
 VINA RESULT:      -7.5      1.586      2.683
  Name = 
  5 active torsions:
  status: ('A' for Active; 'I' for Inactive)
    1  A    between atoms: N_5  and  N_19
    2  A    between atoms: N_5  and  C_32
    3  A    between atoms: C_7  and  N_11
    4  A    between atoms: C_8  and  N_18
    5  A    between atoms: N_18  and  C_30
                            x       y       z     vdW  Elec       q    Type
                         _______ _______ _______ _____ _____    ______ ____

>  <TORSDO>
F 5

$$$$
