=
 OpenBabel11052421083D

 43 48  0  0  1  0  0  0  0  0999 V2000
  189.8570  176.2040  143.6490 C   0  0  0  0  0  2  0  0  0  0  0  0
  194.9640  176.1180  144.1120 C   0  0  0  0  0  0  0  0  0  0  0  0
  190.3270  175.5340  146.0660 C   0  0  0  0  0  0  0  0  0  0  0  0
  193.0960  175.6470  145.5810 C   0  0  0  0  0  0  0  0  0  0  0  0
  194.0780  176.4340  143.0790 C   0  0  0  0  0  3  0  0  0  0  0  0
  196.4300  176.1890  143.8780 C   0  0  0  0  0  1  0  0  0  0  0  0
  192.1900  175.9760  144.5450 C   0  0  0  0  0  0  0  0  0  0  0  0
  194.4730  175.7240  145.3600 C   0  0  0  0  0  3  0  0  0  0  0  0
  192.7010  176.3650  143.2940 C   0  0  0  0  0  3  0  0  0  0  0  0
  190.8000  175.9190  144.7800 C   0  0  0  0  0  0  0  0  0  0  0  0
  191.2440  175.1920  147.0620 C   0  0  0  0  0  3  0  0  0  0  0  0
  192.6170  175.2470  146.8250 C   0  0  0  0  0  3  0  0  0  0  0  0
  188.1530  176.5180  146.6490 C   0  0  0  0  0  0  0  0  0  0  0  0
  187.4210  177.5780  146.8680 C   0  0  0  0  0  3  0  0  0  0  0  0
  188.9020  175.4690  146.4490 C   0  0  0  0  0  3  0  0  0  0  0  0
  185.9980  178.8920  143.5250 C   0  0  0  0  0  2  0  0  0  0  0  0
  183.9590  178.7230  145.8680 C   0  0  0  0  0  3  0  0  0  0  0  0
  183.7560  179.1060  144.4360 C   0  0  0  0  0  2  0  0  0  0  0  0
  186.8140  178.3090  144.6260 C   0  0  0  0  0  3  0  0  0  0  0  0
  186.4450  178.1170  145.9060 C   0  0  0  0  0  0  0  0  0  0  0  0
  184.6120  178.3000  143.4880 C   0  0  0  0  0  2  0  0  0  0  0  0
  185.0920  178.3380  146.4640 C   0  0  0  0  0  3  0  0  0  0  0  0
  190.1160  175.2820  142.5530 N   0  0  0  0  0  2  0  0  0  0  0  0
  189.3720  174.0630  142.8270 C   0  0  0  0  0  2  0  0  0  0  0  0
  190.2490  172.8380  142.5880 C   0  0  1  0  0  3  0  0  0  0  0  0
  193.2980  170.7290  143.3110 F   0  0  0  0  0  0  0  0  0  0  0  0
  193.6060  172.0490  143.6100 C   0  0  2  0  0  0  0  0  0  0  0  0
  191.6510  173.2330  142.4760 N   0  0  2  0  0  0  0  0  0  0  0  0
  190.1130  171.8900  143.7630 C   0  0  0  0  0  2  0  0  0  0  0  0
  192.1990  172.5060  141.3280 C   0  0  0  0  0  2  0  0  0  0  0  0
  192.3070  172.8720  143.7540 C   0  0  1  0  0  3  0  0  0  0  0  0
  194.4560  172.6390  142.4810 C   0  0  0  0  0  2  0  0  0  0  0  0
  191.2890  172.1860  144.6520 C   0  0  0  0  0  2  0  0  0  0  0  0
  193.6870  172.8000  141.1660 C   0  0  0  0  0  2  0  0  0  0  0  0
  194.3940  172.1200  144.9200 C   0  0  0  0  0  2  0  0  0  0  0  0
  195.6740  171.2870  144.8930 C   0  0  1  0  0  3  0  0  0  0  0  0
  196.8720  172.1860  145.1500 C   0  0  0  0  0  1  0  0  0  0  0  0
  195.6390  170.1740  145.8910 C   0  0  0  0  0  0  0  0  0  0  0  0
  196.7140  168.9280  147.6170 N   0  0  0  0  0  0  0  0  0  0  0  0
  194.5010  168.3950  147.0090 N   0  0  0  0  0  0  0  0  0  0  0  0
  195.6000  168.1660  147.7760 C   0  0  0  0  0  3  0  0  0  0  0  0
  194.4980  169.3830  146.0770 C   0  0  0  0  0  3  0  0  0  0  0  0
  196.7510  169.9250  146.6940 C   0  0  0  0  0  3  0  0  0  0  0  0
  1 10  1  0  0  0  0
  2  8  1  0  0  0  0
  3 15  1  0  0  0  0
  3 11  1  0  0  0  0
  4 12  1  0  0  0  0
  5  9  1  0  0  0  0
  5  2  2  0  0  0  0
  6  2  1  0  0  0  0
  7 10  1  0  0  0  0
  7  4  1  0  0  0  0
  8  4  2  0  0  0  0
  9  7  2  0  0  0  0
 10  3  2  0  0  0  0
 12 11  2  0  0  0  0
 13 14  2  0  0  0  0
 15 13  2  0  0  0  0
 16 19  1  0  0  0  0
 17 22  2  0  0  0  0
 18 17  1  0  0  0  0
 19 20  2  0  0  0  0
 20 22  1  0  0  0  0
 20 14  1  0  0  0  0
 21 16  1  0  0  0  0
 21 18  1  0  0  0  0
 23 24  1  0  0  0  0
 23  1  1  0  0  0  0
 25 24  1  1  0  0  0
 25 29  1  0  0  0  0
 27 26  1  6  0  0  0
 27 31  1  0  0  0  0
 27 35  1  0  0  0  0
 28 30  1  6  0  0  0
 28 25  1  0  0  0  0
 28 31  1  0  0  0  0
 29 33  1  0  0  0  0
 31 33  1  1  0  0  0
 32 27  1  0  0  0  0
 34 30  1  0  0  0  0
 34 32  1  0  0  0  0
 36 35  1  0  0  0  0
 36 37  1  1  0  0  0
 36 38  1  0  0  0  0
 38 42  2  0  0  0  0
 38 43  1  0  0  0  0
 39 41  1  0  0  0  0
 40 41  2  0  0  0  0
 42 40  1  0  0  0  0
 43 39  2  0  0  0  0
M  END
>  <MODEL>
1

>  <REMARK>
 VINA RESULT:      -8.4      0.000      0.000
  Name = 
  9 active torsions:
  status: ('A' for Active; 'I' for Inactive)
    1  A    between atoms: C_2  and  C_13
    2  A    between atoms: C_4  and  C_22
    3  A    between atoms: C_8  and  C_34
    4  A    between atoms: C_11  and  C_14
    5  A    between atoms: C_13  and  N_38
    6  A    between atoms: C_14  and  C_22
    7  A    between atoms: C_27  and  C_30
    8  A    between atoms: C_27  and  N_38
    9  A    between atoms: C_28  and  C_35
                            x       y       z     vdW  Elec       q    Type
                         _______ _______ _______ _____ _____    ______ ____

>  <TORSDO>
F 9

$$$$
=
 OpenBabel11052421083D

 43 48  0  0  1  0  0  0  0  0999 V2000
  190.1840  175.9200  143.2960 C   0  0  0  0  0  2  0  0  0  0  0  0
  195.2820  176.2120  143.7700 C   0  0  0  0  0  0  0  0  0  0  0  0
  190.6910  175.3570  145.7330 C   0  0  0  0  0  0  0  0  0  0  0  0
  193.4460  175.6530  145.2490 C   0  0  0  0  0  0  0  0  0  0  0  0
  194.3790  176.4340  142.7270 C   0  0  0  0  0  3  0  0  0  0  0  0
  196.7400  176.3810  143.5370 C   0  0  0  0  0  1  0  0  0  0  0  0
  192.5240  175.8860  144.2020 C   0  0  0  0  0  0  0  0  0  0  0  0
  194.8160  175.8210  145.0290 C   0  0  0  0  0  3  0  0  0  0  0  0
  193.0100  176.2730  142.9420 C   0  0  0  0  0  3  0  0  0  0  0  0
  191.1410  175.7360  144.4370 C   0  0  0  0  0  0  0  0  0  0  0  0
  191.6260  175.1100  146.7400 C   0  0  0  0  0  3  0  0  0  0  0  0
  192.9930  175.2560  146.5040 C   0  0  0  0  0  3  0  0  0  0  0  0
  188.4950  176.1940  146.4480 C   0  0  0  0  0  0  0  0  0  0  0  0
  187.7350  177.1960  146.8000 C   0  0  0  0  0  3  0  0  0  0  0  0
  189.2720  175.2020  146.1150 C   0  0  0  0  0  3  0  0  0  0  0  0
  186.1790  178.6860  143.5930 C   0  0  0  0  0  2  0  0  0  0  0  0
  184.2920  178.5740  146.0630 C   0  0  0  0  0  3  0  0  0  0  0  0
  184.0190  179.0090  144.6580 C   0  0  0  0  0  2  0  0  0  0  0  0
  187.0280  178.0240  144.6230 C   0  0  0  0  0  3  0  0  0  0  0  0
  186.7330  177.8200  145.9200 C   0  0  0  0  0  0  0  0  0  0  0  0
  184.7590  178.1790  143.6360 C   0  0  0  0  0  2  0  0  0  0  0  0
  185.4360  178.1060  146.5720 C   0  0  0  0  0  3  0  0  0  0  0  0
  190.2410  174.7600  142.4190 N   0  0  0  0  0  2  0  0  0  0  0  0
  189.0440  173.9710  142.6650 C   0  0  0  0  0  2  0  0  0  0  0  0
  189.3610  172.4810  142.5870 C   0  0  1  0  0  3  0  0  0  0  0  0
  191.7120  169.5490  142.9670 F   0  0  0  0  0  0  0  0  0  0  0  0
  192.4720  170.6770  142.6890 C   0  0  2  0  0  0  0  0  0  0  0  0
  190.6380  172.2700  141.9080 N   0  0  2  0  0  0  0  0  0  0  0  0
  189.4690  171.9190  143.9910 C   0  0  0  0  0  2  0  0  0  0  0  0
  190.4320  171.1720  140.9620 C   0  0  0  0  0  2  0  0  0  0  0  0
  191.6370  171.9490  142.9540 C   0  0  1  0  0  3  0  0  0  0  0  0
  192.9010  170.6510  141.2210 C   0  0  0  0  0  2  0  0  0  0  0  0
  190.9390  171.9090  144.3050 C   0  0  0  0  0  2  0  0  0  0  0  0
  191.7330  170.8270  140.2460 C   0  0  0  0  0  2  0  0  0  0  0  0
  193.7190  170.7010  143.5760 C   0  0  0  0  0  2  0  0  0  0  0  0
  194.1520  172.1150  143.9600 C   0  0  1  0  0  3  0  0  0  0  0  0
  194.3750  172.1880  145.4610 C   0  0  0  0  0  1  0  0  0  0  0  0
  195.3870  172.5400  143.2310 C   0  0  0  0  0  0  0  0  0  0  0  0
  197.7560  172.8010  143.1850 N   0  0  0  0  0  0  0  0  0  0  0  0
  196.4910  173.3650  141.2800 N   0  0  0  0  0  0  0  0  0  0  0  0
  197.6920  173.2630  141.9090 C   0  0  0  0  0  3  0  0  0  0  0  0
  195.3430  173.0100  141.9120 C   0  0  0  0  0  3  0  0  0  0  0  0
  196.6310  172.4360  143.8520 C   0  0  0  0  0  3  0  0  0  0  0  0
  1 10  1  0  0  0  0
  2  8  1  0  0  0  0
  3 15  1  0  0  0  0
  3 11  1  0  0  0  0
  4 12  1  0  0  0  0
  5  9  1  0  0  0  0
  5  2  2  0  0  0  0
  6  2  1  0  0  0  0
  7 10  1  0  0  0  0
  7  4  1  0  0  0  0
  8  4  2  0  0  0  0
  9  7  2  0  0  0  0
 10  3  2  0  0  0  0
 12 11  2  0  0  0  0
 13 14  2  0  0  0  0
 15 13  2  0  0  0  0
 16 21  1  0  0  0  0
 16 19  1  0  0  0  0
 17 22  2  0  0  0  0
 18 17  1  0  0  0  0
 19 20  2  0  0  0  0
 20 22  1  0  0  0  0
 20 14  1  0  0  0  0
 21 18  1  0  0  0  0
 23 24  1  0  0  0  0
 23  1  1  0  0  0  0
 25 24  1  1  0  0  0
 25 29  1  0  0  0  0
 27 31  1  0  0  0  0
 27 26  1  1  0  0  0
 27 35  1  0  0  0  0
 28 30  1  6  0  0  0
 28 25  1  0  0  0  0
 28 31  1  0  0  0  0
 29 33  1  0  0  0  0
 31 33  1  1  0  0  0
 32 27  1  0  0  0  0
 34 30  1  0  0  0  0
 34 32  1  0  0  0  0
 35 36  1  0  0  0  0
 36 37  1  1  0  0  0
 38 43  1  0  0  0  0
 38 36  1  0  0  0  0
 39 43  2  0  0  0  0
 40 41  2  0  0  0  0
 40 42  1  0  0  0  0
 41 39  1  0  0  0  0
 42 38  2  0  0  0  0
M  END
>  <MODEL>
2

>  <REMARK>
 VINA RESULT:      -8.3      1.918      2.531
  Name = 
  9 active torsions:
  status: ('A' for Active; 'I' for Inactive)
    1  A    between atoms: C_2  and  C_13
    2  A    between atoms: C_4  and  C_22
    3  A    between atoms: C_8  and  C_34
    4  A    between atoms: C_11  and  C_14
    5  A    between atoms: C_13  and  N_38
    6  A    between atoms: C_14  and  C_22
    7  A    between atoms: C_27  and  C_30
    8  A    between atoms: C_27  and  N_38
    9  A    between atoms: C_28  and  C_35
                            x       y       z     vdW  Elec       q    Type
                         _______ _______ _______ _____ _____    ______ ____

>  <TORSDO>
F 9

$$$$
=
 OpenBabel11052421083D

 43 48  0  0  1  0  0  0  0  0999 V2000
  190.1270  178.0520  144.1990 C   0  0  0  0  0  2  0  0  0  0  0  0
  185.2030  177.9930  142.7680 C   0  0  0  0  0  0  0  0  0  0  0  0
  188.8020  177.4200  146.2860 C   0  0  0  0  0  0  0  0  0  0  0  0
  186.3950  177.6220  144.8440 C   0  0  0  0  0  0  0  0  0  0  0  0
  186.4130  178.2230  142.1090 C   0  0  0  0  0  3  0  0  0  0  0  0
  183.9220  178.0790  142.0180 C   0  0  0  0  0  1  0  0  0  0  0  0
  187.6260  177.8430  144.1840 C   0  0  0  0  0  0  0  0  0  0  0  0
  185.1940  177.6940  144.1340 C   0  0  0  0  0  3  0  0  0  0  0  0
  187.6160  178.1480  142.8120 C   0  0  0  0  0  3  0  0  0  0  0  0
  188.8370  177.7460  144.9010 C   0  0  0  0  0  0  0  0  0  0  0  0
  187.5700  177.2320  146.9160 C   0  0  0  0  0  3  0  0  0  0  0  0
  186.3750  177.3310  146.2050 C   0  0  0  0  0  3  0  0  0  0  0  0
  190.7300  176.1770  147.1640 C   0  0  0  0  0  0  0  0  0  0  0  0
  191.4420  175.0820  147.1950 C   0  0  0  0  0  3  0  0  0  0  0  0
  189.9970  177.2550  147.1380 C   0  0  0  0  0  3  0  0  0  0  0  0
  194.3320  173.3480  145.3070 C   0  0  0  0  0  2  0  0  0  0  0  0
  194.6960  176.3990  145.7900 C   0  0  0  0  0  3  0  0  0  0  0  0
  195.5570  175.4300  145.0430 C   0  0  0  0  0  2  0  0  0  0  0  0
  193.0610  173.7250  145.9840 C   0  0  0  0  0  3  0  0  0  0  0  0
  192.7350  174.9200  146.5080 C   0  0  0  0  0  0  0  0  0  0  0  0
  194.7550  174.3880  144.3000 C   0  0  0  0  0  2  0  0  0  0  0  0
  193.5370  176.1600  146.4130 C   0  0  0  0  0  3  0  0  0  0  0  0
  190.8350  176.8120  143.9160 N   0  0  0  0  0  2  0  0  0  0  0  0
  190.4640  176.3990  142.5720 C   0  0  0  0  0  2  0  0  0  0  0  0
  189.6770  175.0930  142.6120 C   0  0  1  0  0  3  0  0  0  0  0  0
  189.3670  171.3690  142.0600 F   0  0  0  0  0  0  0  0  0  0  0  0
  190.3080  171.8610  141.1650 C   0  0  2  0  0  0  0  0  0  0  0  0
  189.8440  174.3620  141.3570 N   0  0  2  0  0  0  0  0  0  0  0  0
  190.2000  174.2280  143.7410 C   0  0  0  0  0  2  0  0  0  0  0  0
  188.5130  173.8930  140.9660 C   0  0  0  0  0  2  0  0  0  0  0  0
  190.7900  173.2540  141.6240 C   0  0  1  0  0  3  0  0  0  0  0  0
  189.6750  171.9770  139.7770 C   0  0  0  0  0  2  0  0  0  0  0  0
  191.1690  173.2750  143.0980 C   0  0  0  0  0  2  0  0  0  0  0  0
  188.5900  173.0550  139.6950 C   0  0  0  0  0  2  0  0  0  0  0  0
  191.5070  170.9120  141.0920 C   0  0  0  0  0  2  0  0  0  0  0  0
  191.5130  169.8700  142.2080 C   0  0  1  0  0  3  0  0  0  0  0  0
  191.2570  168.4930  141.6200 C   0  0  0  0  0  1  0  0  0  0  0  0
  192.7990  169.8750  142.9720 C   0  0  0  0  0  0  0  0  0  0  0  0
  194.0570  169.1900  144.8790 N   0  0  0  0  0  0  0  0  0  0  0  0
  195.1020  170.4680  143.1990 N   0  0  0  0  0  0  0  0  0  0  0  0
  195.1600  169.8160  144.3900 C   0  0  0  0  0  3  0  0  0  0  0  0
  193.9490  170.5060  142.4820 C   0  0  0  0  0  3  0  0  0  0  0  0
  192.8850  169.2050  144.1930 C   0  0  0  0  0  3  0  0  0  0  0  0
  1 10  1  0  0  0  0
  2  8  1  0  0  0  0
  3 11  1  0  0  0  0
  3 15  1  0  0  0  0
  4 12  1  0  0  0  0
  5  2  2  0  0  0  0
  5  9  1  0  0  0  0
  6  2  1  0  0  0  0
  7  4  1  0  0  0  0
  7 10  1  0  0  0  0
  8  4  2  0  0  0  0
  9  7  2  0  0  0  0
 10  3  2  0  0  0  0
 12 11  2  0  0  0  0
 13 14  2  0  0  0  0
 15 13  2  0  0  0  0
 16 19  1  0  0  0  0
 17 22  2  0  0  0  0
 18 17  1  0  0  0  0
 19 20  2  0  0  0  0
 20 14  1  0  0  0  0
 21 18  1  0  0  0  0
 21 16  1  0  0  0  0
 22 20  1  0  0  0  0
 23  1  1  0  0  0  0
 24 23  1  0  0  0  0
 25 24  1  6  0  0  0
 25 29  1  0  0  0  0
 27 31  1  0  0  0  0
 27 26  1  1  0  0  0
 28 30  1  1  0  0  0
 28 31  1  0  0  0  0
 28 25  1  0  0  0  0
 31 33  1  1  0  0  0
 32 27  1  0  0  0  0
 33 29  1  0  0  0  0
 34 32  1  0  0  0  0
 34 30  1  0  0  0  0
 35 27  1  0  0  0  0
 35 36  1  0  0  0  0
 36 37  1  6  0  0  0
 36 38  1  0  0  0  0
 38 43  1  0  0  0  0
 40 41  2  0  0  0  0
 41 39  1  0  0  0  0
 42 38  2  0  0  0  0
 42 40  1  0  0  0  0
 43 39  2  0  0  0  0
M  END
>  <MODEL>
3

>  <REMARK>
 VINA RESULT:      -8.2      1.990      6.242
  Name = 
  9 active torsions:
  status: ('A' for Active; 'I' for Inactive)
    1  A    between atoms: C_2  and  C_13
    2  A    between atoms: C_4  and  C_22
    3  A    between atoms: C_8  and  C_34
    4  A    between atoms: C_11  and  C_14
    5  A    between atoms: C_13  and  N_38
    6  A    between atoms: C_14  and  C_22
    7  A    between atoms: C_27  and  C_30
    8  A    between atoms: C_27  and  N_38
    9  A    between atoms: C_28  and  C_35
                            x       y       z     vdW  Elec       q    Type
                         _______ _______ _______ _____ _____    ______ ____

>  <TORSDO>
F 9

$$$$
=
 OpenBabel11052421083D

 43 48  0  0  1  0  0  0  0  0999 V2000
  193.0970  175.4380  146.1310 C   0  0  0  0  0  2  0  0  0  0  0  0
  192.9620  170.6960  144.1840 C   0  0  0  0  0  0  0  0  0  0  0  0
  190.7090  175.0940  145.2980 C   0  0  0  0  0  0  0  0  0  0  0  0
  191.3720  172.5110  144.4030 C   0  0  0  0  0  0  0  0  0  0  0  0
  193.9380  171.4690  144.8180 C   0  0  0  0  0  3  0  0  0  0  0  0
  193.2900  169.3220  143.7200 C   0  0  0  0  0  1  0  0  0  0  0  0
  192.3510  173.2970  145.0550 C   0  0  0  0  0  0  0  0  0  0  0  0
  191.6810  171.2170  143.9760 C   0  0  0  0  0  3  0  0  0  0  0  0
  193.6340  172.7600  145.2510 C   0  0  0  0  0  3  0  0  0  0  0  0
  192.0260  174.5950  145.5040 C   0  0  0  0  0  0  0  0  0  0  0  0
  189.7720  174.3040  144.6290 C   0  0  0  0  0  3  0  0  0  0  0  0
  190.0970  173.0230  144.1840 C   0  0  0  0  0  3  0  0  0  0  0  0
  189.2890  177.0940  145.1600 C   0  0  0  0  0  0  0  0  0  0  0  0
  188.3560  177.7690  144.5440 C   0  0  0  0  0  3  0  0  0  0  0  0
  190.2350  176.4180  145.7500 C   0  0  0  0  0  3  0  0  0  0  0  0
  185.1350  176.8750  146.4820 C   0  0  0  0  0  2  0  0  0  0  0  0
  184.9510  179.4080  144.6860 C   0  0  0  0  0  3  0  0  0  0  0  0
  183.9470  178.8120  145.6210 C   0  0  0  0  0  2  0  0  0  0  0  0
  186.5140  176.9860  145.9310 C   0  0  0  0  0  3  0  0  0  0  0  0
  186.9600  177.8560  145.0080 C   0  0  0  0  0  0  0  0  0  0  0  0
  184.5800  178.2250  146.8610 C   0  0  0  0  0  2  0  0  0  0  0  0
  186.1910  178.9790  144.4280 C   0  0  0  0  0  3  0  0  0  0  0  0
  193.5340  176.4550  145.1860 N   0  0  0  0  0  2  0  0  0  0  0  0
  194.7710  175.9840  144.5840 C   0  0  0  0  0  2  0  0  0  0  0  0
  194.7680  176.2450  143.0810 C   0  0  1  0  0  3  0  0  0  0  0  0
  194.0260  175.2210  139.5220 F   0  0  0  0  0  0  0  0  0  0  0  0
  194.2430  174.0690  140.2650 C   0  0  2  0  0  0  0  0  0  0  0  0
  195.2830  175.0800  142.3640 N   0  0  2  0  0  0  0  0  0  0  0  0
  193.3460  176.4980  142.6210 C   0  0  0  0  0  2  0  0  0  0  0  0
  196.2160  175.5880  141.3560 C   0  0  0  0  0  2  0  0  0  0  0  0
  194.1160  174.3850  141.7710 C   0  0  1  0  0  3  0  0  0  0  0  0
  195.6480  173.5360  139.9770 C   0  0  0  0  0  2  0  0  0  0  0  0
  192.8580  175.1790  142.0900 C   0  0  0  0  0  2  0  0  0  0  0  0
  196.7600  174.4480  140.5030 C   0  0  0  0  0  2  0  0  0  0  0  0
  193.2140  173.0000  139.8880 C   0  0  0  0  0  2  0  0  0  0  0  0
  192.2550  173.4550  138.7900 C   0  0  1  0  0  3  0  0  0  0  0  0
  192.5760  172.7230  137.4990 C   0  0  0  0  0  1  0  0  0  0  0  0
  190.8250  173.2350  139.1680 C   0  0  0  0  0  0  0  0  0  0  0  0
  188.5150  173.2650  138.5750 N   0  0  0  0  0  0  0  0  0  0  0  0
  189.1500  172.5370  140.7230 N   0  0  0  0  0  0  0  0  0  0  0  0
  188.1810  172.7950  139.8050 C   0  0  0  0  0  3  0  0  0  0  0  0
  190.4600  172.7420  140.4280 C   0  0  0  0  0  3  0  0  0  0  0  0
  189.8140  173.4850  138.2410 C   0  0  0  0  0  3  0  0  0  0  0  0
  2  5  1  0  0  0  0
  3 10  1  0  0  0  0
  3 15  1  0  0  0  0
  4  7  1  0  0  0  0
  5  9  2  0  0  0  0
  6  2  1  0  0  0  0
  7  9  1  0  0  0  0
  7 10  2  0  0  0  0
  8  2  2  0  0  0  0
  8  4  1  0  0  0  0
 10  1  1  0  0  0  0
 11  3  2  0  0  0  0
 12  4  2  0  0  0  0
 12 11  1  0  0  0  0
 13 15  2  0  0  0  0
 14 20  1  0  0  0  0
 14 13  2  0  0  0  0
 16 21  1  0  0  0  0
 17 18  1  0  0  0  0
 18 21  1  0  0  0  0
 19 16  1  0  0  0  0
 20 19  2  0  0  0  0
 22 17  2  0  0  0  0
 22 20  1  0  0  0  0
 23  1  1  0  0  0  0
 24 23  1  0  0  0  0
 25 24  1  1  0  0  0
 27 26  1  6  0  0  0
 27 31  1  0  0  0  0
 28 30  1  6  0  0  0
 28 25  1  0  0  0  0
 29 25  1  0  0  0  0
 31 33  1  6  0  0  0
 31 28  1  0  0  0  0
 32 27  1  0  0  0  0
 32 34  1  0  0  0  0
 33 29  1  0  0  0  0
 34 30  1  0  0  0  0
 35 27  1  0  0  0  0
 36 37  1  6  0  0  0
 36 38  1  0  0  0  0
 36 35  1  0  0  0  0
 38 42  1  0  0  0  0
 39 41  2  0  0  0  0
 41 40  1  0  0  0  0
 42 40  2  0  0  0  0
 43 39  1  0  0  0  0
 43 38  2  0  0  0  0
M  END
>  <MODEL>
4

>  <REMARK>
 VINA RESULT:      -8.1      2.669      5.652
  Name = 
  9 active torsions:
  status: ('A' for Active; 'I' for Inactive)
    1  A    between atoms: C_2  and  C_13
    2  A    between atoms: C_4  and  C_22
    3  A    between atoms: C_8  and  C_34
    4  A    between atoms: C_11  and  C_14
    5  A    between atoms: C_13  and  N_38
    6  A    between atoms: C_14  and  C_22
    7  A    between atoms: C_27  and  C_30
    8  A    between atoms: C_27  and  N_38
    9  A    between atoms: C_28  and  C_35
                            x       y       z     vdW  Elec       q    Type
                         _______ _______ _______ _____ _____    ______ ____

>  <TORSDO>
F 9

$$$$
=
 OpenBabel11052421083D

 43 48  0  0  1  0  0  0  0  0999 V2000
  192.1880  172.9500  145.4450 C   0  0  0  0  0  2  0  0  0  0  0  0
  195.8680  176.0730  143.7100 C   0  0  0  0  0  0  0  0  0  0  0  0
  191.1360  175.2730  145.3310 C   0  0  0  0  0  0  0  0  0  0  0  0
  193.5680  176.3530  144.4180 C   0  0  0  0  0  0  0  0  0  0  0  0
  195.7830  174.7010  143.9590 C   0  0  0  0  0  3  0  0  0  0  0  0
  197.1400  176.6580  143.2100 C   0  0  0  0  0  1  0  0  0  0  0  0
  193.4680  174.9630  144.6630 C   0  0  0  0  0  0  0  0  0  0  0  0
  194.7630  176.8970  143.9400 C   0  0  0  0  0  3  0  0  0  0  0  0
  194.5910  174.1500  144.4320 C   0  0  0  0  0  3  0  0  0  0  0  0
  192.2530  174.4150  145.1250 C   0  0  0  0  0  0  0  0  0  0  0  0
  191.2720  176.6440  145.1040 C   0  0  0  0  0  3  0  0  0  0  0  0
  192.4750  177.1830  144.6510 C   0  0  0  0  0  3  0  0  0  0  0  0
  189.0790  175.4440  146.6630 C   0  0  0  0  0  0  0  0  0  0  0  0
  188.3750  176.0700  147.5680 C   0  0  0  0  0  3  0  0  0  0  0  0
  189.8030  174.8190  145.7770 C   0  0  0  0  0  3  0  0  0  0  0  0
  186.2050  179.2650  147.4780 C   0  0  0  0  0  2  0  0  0  0  0  0
  185.0350  176.8150  145.9600 C   0  0  0  0  0  3  0  0  0  0  0  0
  184.5210  178.2150  146.0760 C   0  0  0  0  0  2  0  0  0  0  0  0
  187.2720  178.2390  147.6420 C   0  0  0  0  0  3  0  0  0  0  0  0
  187.2340  176.9490  147.2620 C   0  0  0  0  0  0  0  0  0  0  0  0
  185.6260  179.2450  146.0850 C   0  0  0  0  0  2  0  0  0  0  0  0
  186.1550  176.3030  146.4820 C   0  0  0  0  0  3  0  0  0  0  0  0
  191.2870  172.2860  144.5150 N   0  0  0  0  0  2  0  0  0  0  0  0
  192.0260  172.0600  143.2830 C   0  0  0  0  0  2  0  0  0  0  0  0
  191.1500  172.3620  142.0710 C   0  0  1  0  0  3  0  0  0  0  0  0
  188.7990  174.5930  140.1310 F   0  0  0  0  0  0  0  0  0  0  0  0
  188.6520  174.8830  141.4810 C   0  0  2  0  0  0  0  0  0  0  0  0
  189.8510  172.8750  142.5020 N   0  0  2  0  0  0  0  0  0  0  0  0
  191.8210  173.4200  141.2190 C   0  0  0  0  0  2  0  0  0  0  0  0
  188.8400  172.1790  141.7020 C   0  0  0  0  0  2  0  0  0  0  0  0
  189.8630  174.3380  142.2690 C   0  0  1  0  0  3  0  0  0  0  0  0
  187.3720  174.2260  142.0040 C   0  0  0  0  0  2  0  0  0  0  0  0
  191.1880  174.7220  141.6260 C   0  0  0  0  0  2  0  0  0  0  0  0
  187.4440  172.6970  142.0300 C   0  0  0  0  0  2  0  0  0  0  0  0
  188.5590  176.3970  141.6850 C   0  0  0  0  0  2  0  0  0  0  0  0
  187.4650  176.8000  142.6720 C   0  0  1  0  0  3  0  0  0  0  0  0
  188.0330  177.7700  143.6930 C   0  0  0  0  0  1  0  0  0  0  0  0
  186.2840  177.4060  141.9830 C   0  0  0  0  0  0  0  0  0  0  0  0
  184.0520  178.2390  142.0830 N   0  0  0  0  0  0  0  0  0  0  0  0
  185.2310  178.3260  140.0460 N   0  0  0  0  0  0  0  0  0  0  0  0
  184.1030  178.5670  140.7660 C   0  0  0  0  0  3  0  0  0  0  0  0
  186.3190  177.7590  140.6280 C   0  0  0  0  0  3  0  0  0  0  0  0
  185.1190  177.6690  142.7020 C   0  0  0  0  0  3  0  0  0  0  0  0
  2  8  2  0  0  0  0
  2  5  1  0  0  0  0
  3 15  1  0  0  0  0
  4 12  2  0  0  0  0
  4  7  1  0  0  0  0
  5  9  2  0  0  0  0
  6  2  1  0  0  0  0
  7 10  2  0  0  0  0
  8  4  1  0  0  0  0
  9  7  1  0  0  0  0
 10  3  1  0  0  0  0
 10  1  1  0  0  0  0
 11  3  2  0  0  0  0
 12 11  1  0  0  0  0
 13 14  2  0  0  0  0
 15 13  2  0  0  0  0
 16 19  1  0  0  0  0
 17 18  1  0  0  0  0
 17 22  2  0  0  0  0
 18 21  1  0  0  0  0
 20 14  1  0  0  0  0
 20 19  2  0  0  0  0
 21 16  1  0  0  0  0
 22 20  1  0  0  0  0
 23  1  1  0  0  0  0
 24 23  1  0  0  0  0
 25 28  1  0  0  0  0
 25 24  1  1  0  0  0
 27 26  1  6  0  0  0
 27 35  1  0  0  0  0
 27 32  1  0  0  0  0
 27 31  1  0  0  0  0
 28 30  1  6  0  0  0
 29 33  1  0  0  0  0
 29 25  1  0  0  0  0
 30 34  1  0  0  0  0
 31 33  1  6  0  0  0
 31 28  1  0  0  0  0
 32 34  1  0  0  0  0
 35 36  1  0  0  0  0
 36 37  1  1  0  0  0
 38 36  1  0  0  0  0
 38 43  1  0  0  0  0
 39 43  2  0  0  0  0
 40 42  1  0  0  0  0
 40 41  2  0  0  0  0
 41 39  1  0  0  0  0
 42 38  2  0  0  0  0
M  END
>  <MODEL>
5

>  <REMARK>
 VINA RESULT:      -8.1      2.749      6.803
  Name = 
  9 active torsions:
  status: ('A' for Active; 'I' for Inactive)
    1  A    between atoms: C_2  and  C_13
    2  A    between atoms: C_4  and  C_22
    3  A    between atoms: C_8  and  C_34
    4  A    between atoms: C_11  and  C_14
    5  A    between atoms: C_13  and  N_38
    6  A    between atoms: C_14  and  C_22
    7  A    between atoms: C_27  and  C_30
    8  A    between atoms: C_27  and  N_38
    9  A    between atoms: C_28  and  C_35
                            x       y       z     vdW  Elec       q    Type
                         _______ _______ _______ _____ _____    ______ ____

>  <TORSDO>
F 9

$$$$
=
 OpenBabel11052421083D

 43 48  0  0  1  0  0  0  0  0999 V2000
  188.1530  176.4250  142.2020 C   0  0  0  0  0  2  0  0  0  0  0  0
  185.5870  177.9280  146.3800 C   0  0  0  0  0  0  0  0  0  0  0  0
  189.7520  176.0870  144.1610 C   0  0  0  0  0  0  0  0  0  0  0  0
  187.8170  177.0880  145.9410 C   0  0  0  0  0  0  0  0  0  0  0  0
  185.2770  177.8270  145.0220 C   0  0  0  0  0  3  0  0  0  0  0  0
  184.5710  178.4380  147.3370 C   0  0  0  0  0  1  0  0  0  0  0  0
  187.5080  176.9720  144.5650 C   0  0  0  0  0  0  0  0  0  0  0  0
  186.8550  177.5590  146.8390 C   0  0  0  0  0  3  0  0  0  0  0  0
  186.2300  177.3530  144.1210 C   0  0  0  0  0  3  0  0  0  0  0  0
  188.4750  176.4740  143.6660 C   0  0  0  0  0  0  0  0  0  0  0  0
  190.0360  176.2350  145.5210 C   0  0  0  0  0  3  0  0  0  0  0  0
  189.0790  176.7300  146.4060 C   0  0  0  0  0  3  0  0  0  0  0  0
  192.0530  175.9830  143.3080 C   0  0  0  0  0  0  0  0  0  0  0  0
  193.2640  176.4730  143.2780 C   0  0  0  0  0  3  0  0  0  0  0  0
  190.8350  175.5190  143.3320 C   0  0  0  0  0  3  0  0  0  0  0  0
  195.3400  175.0190  146.1930 C   0  0  0  0  0  2  0  0  0  0  0  0
  196.7570  175.0330  143.4240 C   0  0  0  0  0  3  0  0  0  0  0  0
  197.2150  174.4890  144.7400 C   0  0  0  0  0  2  0  0  0  0  0  0
  194.2900  175.5680  145.2920 C   0  0  0  0  0  3  0  0  0  0  0  0
  194.4100  175.8820  143.9890 C   0  0  0  0  0  0  0  0  0  0  0  0
  196.0890  173.8820  145.5440 C   0  0  0  0  0  2  0  0  0  0  0  0
  195.5950  175.6310  143.1390 C   0  0  0  0  0  3  0  0  0  0  0  0
  187.6630  175.0990  141.8540 N   0  0  0  0  0  2  0  0  0  0  0  0
  188.4300  174.6410  140.7070 C   0  0  0  0  0  2  0  0  0  0  0  0
  188.5320  173.1190  140.7050 C   0  0  1  0  0  3  0  0  0  0  0  0
  190.1660  169.8860  141.7760 F   0  0  0  0  0  0  0  0  0  0  0  0
  191.1320  170.8830  141.7900 C   0  0  2  0  0  0  0  0  0  0  0  0
  189.9160  172.7050  140.4820 N   0  0  2  0  0  0  0  0  0  0  0  0
  188.0850  172.5860  142.0520 C   0  0  0  0  0  2  0  0  0  0  0  0
  189.8740  171.6230  139.4960 C   0  0  0  0  0  2  0  0  0  0  0  0
  190.4540  172.2700  141.7920 C   0  0  1  0  0  3  0  0  0  0  0  0
  192.0140  170.7530  140.5460 C   0  0  0  0  0  2  0  0  0  0  0  0
  189.3510  172.3710  142.8350 C   0  0  0  0  0  2  0  0  0  0  0  0
  191.2730  171.0710  139.2440 C   0  0  0  0  0  2  0  0  0  0  0  0
  192.0050  170.7490  143.0400 C   0  0  0  0  0  2  0  0  0  0  0  0
  192.9010  171.9630  143.2760 C   0  0  1  0  0  3  0  0  0  0  0  0
  192.6660  172.5050  144.6750 C   0  0  0  0  0  1  0  0  0  0  0  0
  194.3480  171.6370  143.0830 C   0  0  0  0  0  0  0  0  0  0  0  0
  196.3630  171.8950  141.8340 N   0  0  0  0  0  0  0  0  0  0  0  0
  196.3710  170.5770  143.7850 N   0  0  0  0  0  0  0  0  0  0  0  0
  197.0260  171.1040  142.7170 C   0  0  0  0  0  3  0  0  0  0  0  0
  195.0530  170.8310  143.9870 C   0  0  0  0  0  3  0  0  0  0  0  0
  195.0430  172.1720  141.9990 C   0  0  0  0  0  3  0  0  0  0  0  0
  1 10  1  0  0  0  0
  2  8  1  0  0  0  0
  2  6  1  0  0  0  0
  3 11  1  0  0  0  0
  4 12  1  0  0  0  0
  4  8  2  0  0  0  0
  5  2  2  0  0  0  0
  7  4  1  0  0  0  0
  9  7  2  0  0  0  0
  9  5  1  0  0  0  0
 10  3  2  0  0  0  0
 10  7  1  0  0  0  0
 11 12  2  0  0  0  0
 13 15  2  0  0  0  0
 14 13  2  0  0  0  0
 14 20  1  0  0  0  0
 15  3  1  0  0  0  0
 17 18  1  0  0  0  0
 18 21  1  0  0  0  0
 19 16  1  0  0  0  0
 20 19  2  0  0  0  0
 21 16  1  0  0  0  0
 22 17  2  0  0  0  0
 22 20  1  0  0  0  0
 23  1  1  0  0  0  0
 24 23  1  0  0  0  0
 25 24  1  1  0  0  0
 25 29  1  0  0  0  0
 27 26  1  6  0  0  0
 27 31  1  0  0  0  0
 27 35  1  0  0  0  0
 28 30  1  6  0  0  0
 28 25  1  0  0  0  0
 28 31  1  0  0  0  0
 29 33  1  0  0  0  0
 31 33  1  1  0  0  0
 32 27  1  0  0  0  0
 34 30  1  0  0  0  0
 34 32  1  0  0  0  0
 35 36  1  0  0  0  0
 36 37  1  1  0  0  0
 38 36  1  0  0  0  0
 38 42  1  0  0  0  0
 39 43  1  0  0  0  0
 39 41  2  0  0  0  0
 40 42  2  0  0  0  0
 41 40  1  0  0  0  0
 43 38  2  0  0  0  0
M  END
>  <MODEL>
6

>  <REMARK>
 VINA RESULT:      -7.9      1.979      6.524
  Name = 
  9 active torsions:
  status: ('A' for Active; 'I' for Inactive)
    1  A    between atoms: C_2  and  C_13
    2  A    between atoms: C_4  and  C_22
    3  A    between atoms: C_8  and  C_34
    4  A    between atoms: C_11  and  C_14
    5  A    between atoms: C_13  and  N_38
    6  A    between atoms: C_14  and  C_22
    7  A    between atoms: C_27  and  C_30
    8  A    between atoms: C_27  and  N_38
    9  A    between atoms: C_28  and  C_35
                            x       y       z     vdW  Elec       q    Type
                         _______ _______ _______ _____ _____    ______ ____

>  <TORSDO>
F 9

$$$$
=
 OpenBabel11052421083D

 43 48  0  0  1  0  0  0  0  0999 V2000
  190.4950  178.0920  144.2000 C   0  0  0  0  0  2  0  0  0  0  0  0
  185.6040  177.8350  142.6800 C   0  0  0  0  0  0  0  0  0  0  0  0
  189.2050  177.1030  146.1660 C   0  0  0  0  0  0  0  0  0  0  0  0
  186.8030  177.2990  144.7160 C   0  0  0  0  0  0  0  0  0  0  0  0
  186.7980  178.2390  142.0780 C   0  0  0  0  0  3  0  0  0  0  0  0
  184.3280  177.9160  141.9230 C   0  0  0  0  0  1  0  0  0  0  0  0
  188.0190  177.6950  144.1110 C   0  0  0  0  0  0  0  0  0  0  0  0
  185.6060  177.3670  143.9970 C   0  0  0  0  0  3  0  0  0  0  0  0
  187.9970  178.1690  142.7880 C   0  0  0  0  0  3  0  0  0  0  0  0
  189.2270  177.6020  144.8340 C   0  0  0  0  0  0  0  0  0  0  0  0
  187.9870  176.7420  146.7450 C   0  0  0  0  0  3  0  0  0  0  0  0
  186.7940  176.8380  146.0290 C   0  0  0  0  0  3  0  0  0  0  0  0
  191.2230  175.9160  146.9120 C   0  0  0  0  0  0  0  0  0  0  0  0
  192.0230  174.8890  146.8130 C   0  0  0  0  0  3  0  0  0  0  0  0
  190.4020  176.9240  147.0140 C   0  0  0  0  0  3  0  0  0  0  0  0
  195.2500  173.6000  145.1250 C   0  0  0  0  0  2  0  0  0  0  0  0
  194.9390  176.6930  145.2200 C   0  0  0  0  0  3  0  0  0  0  0  0
  196.0010  175.8480  144.5900 C   0  0  0  0  0  2  0  0  0  0  0  0
  193.9160  173.7740  145.7630 C   0  0  0  0  0  3  0  0  0  0  0  0
  193.3320  174.9260  146.1380 C   0  0  0  0  0  0  0  0  0  0  0  0
  195.4550  174.5730  143.9920 C   0  0  0  0  0  2  0  0  0  0  0  0
  193.8500  176.2890  145.8810 C   0  0  0  0  0  3  0  0  0  0  0  0
  190.6850  177.4350  142.9150 N   0  0  0  0  0  2  0  0  0  0  0  0
  191.7330  176.4420  143.0870 C   0  0  0  0  0  2  0  0  0  0  0  0
  191.1350  175.0410  143.1580 C   0  0  1  0  0  3  0  0  0  0  0  0
  189.8330  171.8860  141.5400 F   0  0  0  0  0  0  0  0  0  0  0  0
  189.6370  172.9370  140.6550 C   0  0  2  0  0  0  0  0  0  0  0  0
  190.0240  174.9160  142.2170 N   0  0  2  0  0  0  0  0  0  0  0  0
  192.1950  174.0250  142.7820 C   0  0  0  0  0  2  0  0  0  0  0  0
  188.9410  174.2410  142.9370 C   0  0  0  0  0  2  0  0  0  0  0  0
  190.5210  174.1360  141.0600 C   0  0  1  0  0  3  0  0  0  0  0  0
  188.1660  173.3590  140.6870 C   0  0  0  0  0  2  0  0  0  0  0  0
  191.9610  173.7250  141.3270 C   0  0  0  0  0  2  0  0  0  0  0  0
  187.7500  174.0010  142.0140 C   0  0  0  0  0  2  0  0  0  0  0  0
  190.0020  172.5010  139.2340 C   0  0  0  0  0  2  0  0  0  0  0  0
  190.3330  171.0130  139.1320 C   0  0  1  0  0  3  0  0  0  0  0  0
  189.6910  170.4330  137.8840 C   0  0  0  0  0  1  0  0  0  0  0  0
  191.8080  170.7680  139.1170 C   0  0  0  0  0  0  0  0  0  0  0  0
  193.9090  170.9490  138.0020 N   0  0  0  0  0  0  0  0  0  0  0  0
  193.8190  170.0080  140.1590 N   0  0  0  0  0  0  0  0  0  0  0  0
  194.5360  170.3820  139.0660 C   0  0  0  0  0  3  0  0  0  0  0  0
  192.4750  170.1940  140.2070 C   0  0  0  0  0  3  0  0  0  0  0  0
  192.5650  171.1510  138.0100 C   0  0  0  0  0  3  0  0  0  0  0  0
  1 10  1  0  0  0  0
  2  8  1  0  0  0  0
  3 11  1  0  0  0  0
  3 15  1  0  0  0  0
  4 12  1  0  0  0  0
  5  2  2  0  0  0  0
  5  9  1  0  0  0  0
  6  2  1  0  0  0  0
  7  4  1  0  0  0  0
  7 10  1  0  0  0  0
  8  4  2  0  0  0  0
  9  7  2  0  0  0  0
 10  3  2  0  0  0  0
 12 11  2  0  0  0  0
 13 15  2  0  0  0  0
 14 13  2  0  0  0  0
 16 19  1  0  0  0  0
 17 22  2  0  0  0  0
 18 17  1  0  0  0  0
 19 20  2  0  0  0  0
 20 14  1  0  0  0  0
 21 18  1  0  0  0  0
 21 16  1  0  0  0  0
 22 20  1  0  0  0  0
 23 24  1  0  0  0  0
 23  1  1  0  0  0  0
 25 24  1  6  0  0  0
 27 32  1  0  0  0  0
 27 31  1  0  0  0  0
 27 26  1  1  0  0  0
 28 30  1  1  0  0  0
 28 25  1  0  0  0  0
 29 25  1  0  0  0  0
 31 33  1  1  0  0  0
 31 28  1  0  0  0  0
 32 34  1  0  0  0  0
 33 29  1  0  0  0  0
 34 30  1  0  0  0  0
 35 27  1  0  0  0  0
 36 37  1  6  0  0  0
 36 35  1  0  0  0  0
 38 36  1  0  0  0  0
 38 42  1  0  0  0  0
 39 43  1  0  0  0  0
 39 41  2  0  0  0  0
 40 42  2  0  0  0  0
 41 40  1  0  0  0  0
 43 38  2  0  0  0  0
M  END
>  <MODEL>
7

>  <REMARK>
 VINA RESULT:      -7.8      2.773      7.122
  Name = 
  9 active torsions:
  status: ('A' for Active; 'I' for Inactive)
    1  A    between atoms: C_2  and  C_13
    2  A    between atoms: C_4  and  C_22
    3  A    between atoms: C_8  and  C_34
    4  A    between atoms: C_11  and  C_14
    5  A    between atoms: C_13  and  N_38
    6  A    between atoms: C_14  and  C_22
    7  A    between atoms: C_27  and  C_30
    8  A    between atoms: C_27  and  N_38
    9  A    between atoms: C_28  and  C_35
                            x       y       z     vdW  Elec       q    Type
                         _______ _______ _______ _____ _____    ______ ____

>  <TORSDO>
F 9

$$$$
=
 OpenBabel11052421083D

 43 48  0  0  1  0  0  0  0  0999 V2000
  188.1680  177.6690  142.1330 C   0  0  0  0  0  2  0  0  0  0  0  0
  185.1960  178.0900  146.2900 C   0  0  0  0  0  0  0  0  0  0  0  0
  189.6960  177.2300  144.1300 C   0  0  0  0  0  0  0  0  0  0  0  0
  187.5440  177.6470  145.8940 C   0  0  0  0  0  0  0  0  0  0  0  0
  184.9750  178.1770  144.9140 C   0  0  0  0  0  3  0  0  0  0  0  0
  184.0670  178.2910  147.2370 C   0  0  0  0  0  1  0  0  0  0  0  0
  187.3280  177.7220  144.4970 C   0  0  0  0  0  0  0  0  0  0  0  0
  186.4790  177.8270  146.7790 C   0  0  0  0  0  3  0  0  0  0  0  0
  186.0330  177.9930  144.0240 C   0  0  0  0  0  3  0  0  0  0  0  0
  188.4030  177.5170  143.6070 C   0  0  0  0  0  0  0  0  0  0  0  0
  189.8830  177.1860  145.5130 C   0  0  0  0  0  3  0  0  0  0  0  0
  188.8190  177.3920  146.3900 C   0  0  0  0  0  3  0  0  0  0  0  0
  192.1080  176.9280  143.7750 C   0  0  0  0  0  0  0  0  0  0  0  0
  193.3220  176.9200  144.2570 C   0  0  0  0  0  3  0  0  0  0  0  0
  190.8920  176.9610  143.3060 C   0  0  0  0  0  3  0  0  0  0  0  0
  196.3060  174.4720  144.4200 C   0  0  0  0  0  2  0  0  0  0  0  0
  193.6840  173.4700  145.7610 C   0  0  0  0  0  3  0  0  0  0  0  0
  195.0380  172.8370  145.6960 C   0  0  0  0  0  2  0  0  0  0  0  0
  195.3870  175.6310  144.2480 C   0  0  0  0  0  3  0  0  0  0  0  0
  194.0800  175.6940  144.5600 C   0  0  0  0  0  0  0  0  0  0  0  0
  196.1590  173.8460  145.7840 C   0  0  0  0  0  2  0  0  0  0  0  0
  193.3010  174.6490  145.2600 C   0  0  0  0  0  3  0  0  0  0  0  0
  187.4020  176.5340  141.6410 N   0  0  0  0  0  2  0  0  0  0  0  0
  188.2450  175.8180  140.6970 C   0  0  0  0  0  2  0  0  0  0  0  0
  188.1890  174.3170  140.9620 C   0  0  1  0  0  3  0  0  0  0  0  0
  189.6920  171.1040  142.2610 F   0  0  0  0  0  0  0  0  0  0  0  0
  190.7300  171.9440  141.8840 C   0  0  2  0  0  0  0  0  0  0  0  0
  189.4350  173.6820  140.5380 N   0  0  2  0  0  0  0  0  0  0  0  0
  188.0140  174.0780  142.4480 C   0  0  0  0  0  2  0  0  0  0  0  0
  189.0590  172.4710  139.8060 C   0  0  0  0  0  2  0  0  0  0  0  0
  190.2150  173.3950  141.7640 C   0  0  1  0  0  3  0  0  0  0  0  0
  191.2840  171.4910  140.5310 C   0  0  0  0  0  2  0  0  0  0  0  0
  189.3970  173.8170  142.9760 C   0  0  0  0  0  2  0  0  0  0  0  0
  190.2990  171.6940  139.3760 C   0  0  0  0  0  2  0  0  0  0  0  0
  191.8500  171.8930  142.9260 C   0  0  0  0  0  2  0  0  0  0  0  0
  193.1920  171.4590  142.3400 C   0  0  1  0  0  3  0  0  0  0  0  0
  194.0790  172.6760  142.1440 C   0  0  0  0  0  1  0  0  0  0  0  0
  193.8810  170.4510  143.2040 C   0  0  0  0  0  0  0  0  0  0  0  0
  193.8090  168.9250  145.0350 N   0  0  0  0  0  0  0  0  0  0  0  0
  195.7790  169.1110  143.7580 N   0  0  0  0  0  0  0  0  0  0  0  0
  195.0920  168.5510  144.7890 C   0  0  0  0  0  3  0  0  0  0  0  0
  195.1990  170.0450  142.9620 C   0  0  0  0  0  3  0  0  0  0  0  0
  193.1930  169.8570  144.2620 C   0  0  0  0  0  3  0  0  0  0  0  0
  1 10  1  0  0  0  0
  2  8  1  0  0  0  0
  2  6  1  0  0  0  0
  3 11  1  0  0  0  0
  4 12  1  0  0  0  0
  4  8  2  0  0  0  0
  5  2  2  0  0  0  0
  7  4  1  0  0  0  0
  9  7  2  0  0  0  0
  9  5  1  0  0  0  0
 10  3  2  0  0  0  0
 10  7  1  0  0  0  0
 11 12  2  0  0  0  0
 13 14  2  0  0  0  0
 14 20  1  0  0  0  0
 15 13  2  0  0  0  0
 15  3  1  0  0  0  0
 16 21  1  0  0  0  0
 18 17  1  0  0  0  0
 18 21  1  0  0  0  0
 19 16  1  0  0  0  0
 19 20  2  0  0  0  0
 20 22  1  0  0  0  0
 22 17  2  0  0  0  0
 23  1  1  0  0  0  0
 24 23  1  0  0  0  0
 25 24  1  1  0  0  0
 25 29  1  0  0  0  0
 27 26  1  1  0  0  0
 27 35  1  0  0  0  0
 28 30  1  1  0  0  0
 28 25  1  0  0  0  0
 28 31  1  0  0  0  0
 29 33  1  0  0  0  0
 31 27  1  0  0  0  0
 31 33  1  1  0  0  0
 32 27  1  0  0  0  0
 34 30  1  0  0  0  0
 34 32  1  0  0  0  0
 36 37  1  1  0  0  0
 36 35  1  0  0  0  0
 36 38  1  0  0  0  0
 38 43  1  0  0  0  0
 40 41  2  0  0  0  0
 41 39  1  0  0  0  0
 42 38  2  0  0  0  0
 42 40  1  0  0  0  0
 43 39  2  0  0  0  0
M  END
>  <MODEL>
8

>  <REMARK>
 VINA RESULT:      -7.8      1.865      6.344
  Name = 
  9 active torsions:
  status: ('A' for Active; 'I' for Inactive)
    1  A    between atoms: C_2  and  C_13
    2  A    between atoms: C_4  and  C_22
    3  A    between atoms: C_8  and  C_34
    4  A    between atoms: C_11  and  C_14
    5  A    between atoms: C_13  and  N_38
    6  A    between atoms: C_14  and  C_22
    7  A    between atoms: C_27  and  C_30
    8  A    between atoms: C_27  and  N_38
    9  A    between atoms: C_28  and  C_35
                            x       y       z     vdW  Elec       q    Type
                         _______ _______ _______ _____ _____    ______ ____

>  <TORSDO>
F 9

$$$$
=
 OpenBabel11052421083D

 43 48  0  0  1  0  0  0  0  0999 V2000
  191.1250  172.2060  142.1160 C   0  0  0  0  0  2  0  0  0  0  0  0
  190.6570  170.2320  137.4050 C   0  0  0  0  0  0  0  0  0  0  0  0
  189.2180  173.4900  141.0070 C   0  0  0  0  0  0  0  0  0  0  0  0
  189.5620  172.0030  138.6440 C   0  0  0  0  0  0  0  0  0  0  0  0
  191.4700  169.9570  138.5080 C   0  0  0  0  0  3  0  0  0  0  0  0
  190.8130  169.4450  136.1550 C   0  0  0  0  0  1  0  0  0  0  0  0
  190.3730  171.7250  139.7700 C   0  0  0  0  0  0  0  0  0  0  0  0
  189.7050  171.2540  137.4730 C   0  0  0  0  0  3  0  0  0  0  0  0
  191.3290  170.6980  139.6820 C   0  0  0  0  0  3  0  0  0  0  0  0
  190.2080  172.4690  140.9570 C   0  0  0  0  0  0  0  0  0  0  0  0
  188.4490  173.7580  139.8730 C   0  0  0  0  0  3  0  0  0  0  0  0
  188.6160  173.0220  138.7000 C   0  0  0  0  0  3  0  0  0  0  0  0
  188.7270  175.6020  142.1620 C   0  0  0  0  0  0  0  0  0  0  0  0
  188.5550  176.8960  142.1130 C   0  0  0  0  0  3  0  0  0  0  0  0
  188.9230  174.3130  142.1980 C   0  0  0  0  0  3  0  0  0  0  0  0
  185.1610  178.2680  140.8800 C   0  0  0  0  0  2  0  0  0  0  0  0
  185.7110  178.6080  143.9230 C   0  0  0  0  0  3  0  0  0  0  0  0
  184.4960  178.9440  143.1180 C   0  0  0  0  0  2  0  0  0  0  0  0
  186.4830  177.6040  141.0490 C   0  0  0  0  0  3  0  0  0  0  0  0
  187.2390  177.5540  142.1610 C   0  0  0  0  0  0  0  0  0  0  0  0
  184.2280  177.9430  142.0190 C   0  0  0  0  0  2  0  0  0  0  0  0
  186.8510  178.0530  143.5000 C   0  0  0  0  0  3  0  0  0  0  0  0
  192.2300  173.1520  142.0880 N   0  0  0  0  0  2  0  0  0  0  0  0
  193.0140  172.9380  143.2940 C   0  0  0  0  0  2  0  0  0  0  0  0
  193.3760  174.2710  143.9400 C   0  0  1  0  0  3  0  0  0  0  0  0
  192.6300  177.1680  146.2470 F   0  0  0  0  0  0  0  0  0  0  0  0
  191.4220  176.6440  145.8090 C   0  0  2  0  0  0  0  0  0  0  0  0
  192.2380  175.1880  143.8800 N   0  0  2  0  0  0  0  0  0  0  0  0
  193.7270  174.0420  145.3960 C   0  0  0  0  0  2  0  0  0  0  0  0
  192.7680  176.4840  143.4530 C   0  0  0  0  0  2  0  0  0  0  0  0
  191.6410  175.2270  145.2350 C   0  0  1  0  0  3  0  0  0  0  0  0
  190.8430  177.5470  144.7180 C   0  0  0  0  0  2  0  0  0  0  0  0
  192.4710  174.3520  146.1630 C   0  0  0  0  0  2  0  0  0  0  0  0
  191.6630  177.5340  143.4240 C   0  0  0  0  0  2  0  0  0  0  0  0
  190.4310  176.5660  146.9730 C   0  0  0  0  0  2  0  0  0  0  0  0
  189.0910  175.9500  146.5770 C   0  0  1  0  0  3  0  0  0  0  0  0
  188.9410  174.5900  147.2360 C   0  0  0  0  0  1  0  0  0  0  0  0
  187.9390  176.8320  146.9420 C   0  0  0  0  0  0  0  0  0  0  0  0
  185.5850  177.1720  147.1070 N   0  0  0  0  0  0  0  0  0  0  0  0
  187.0540  178.8600  147.8430 N   0  0  0  0  0  0  0  0  0  0  0  0
  185.7880  178.4030  147.6460 C   0  0  0  0  0  3  0  0  0  0  0  0
  188.1280  178.1000  147.5070 C   0  0  0  0  0  3  0  0  0  0  0  0
  186.6330  176.3820  146.7560 C   0  0  0  0  0  3  0  0  0  0  0  0
  2  8  2  0  0  0  0
  2  5  1  0  0  0  0
  3 15  1  0  0  0  0
  4 12  2  0  0  0  0
  4  7  1  0  0  0  0
  5  9  2  0  0  0  0
  6  2  1  0  0  0  0
  7 10  2  0  0  0  0
  8  4  1  0  0  0  0
  9  7  1  0  0  0  0
 10  3  1  0  0  0  0
 10  1  1  0  0  0  0
 11  3  2  0  0  0  0
 12 11  1  0  0  0  0
 13 15  2  0  0  0  0
 14 20  1  0  0  0  0
 14 13  2  0  0  0  0
 16 19  1  0  0  0  0
 16 21  1  0  0  0  0
 18 17  1  0  0  0  0
 19 20  2  0  0  0  0
 20 22  1  0  0  0  0
 21 18  1  0  0  0  0
 22 17  2  0  0  0  0
 23  1  1  0  0  0  0
 23 24  1  0  0  0  0
 25 24  1  1  0  0  0
 25 29  1  0  0  0  0
 27 26  1  1  0  0  0
 27 35  1  0  0  0  0
 28 30  1  1  0  0  0
 28 25  1  0  0  0  0
 28 31  1  0  0  0  0
 29 33  1  0  0  0  0
 31 27  1  0  0  0  0
 31 33  1  1  0  0  0
 32 27  1  0  0  0  0
 34 30  1  0  0  0  0
 34 32  1  0  0  0  0
 36 38  1  0  0  0  0
 36 35  1  0  0  0  0
 36 37  1  1  0  0  0
 38 42  1  0  0  0  0
 39 41  2  0  0  0  0
 41 40  1  0  0  0  0
 42 40  2  0  0  0  0
 43 38  2  0  0  0  0
 43 39  1  0  0  0  0
M  END
>  <MODEL>
9

>  <REMARK>
 VINA RESULT:      -7.8      3.048      7.296
  Name = 
  9 active torsions:
  status: ('A' for Active; 'I' for Inactive)
    1  A    between atoms: C_2  and  C_13
    2  A    between atoms: C_4  and  C_22
    3  A    between atoms: C_8  and  C_34
    4  A    between atoms: C_11  and  C_14
    5  A    between atoms: C_13  and  N_38
    6  A    between atoms: C_14  and  C_22
    7  A    between atoms: C_27  and  C_30
    8  A    between atoms: C_27  and  N_38
    9  A    between atoms: C_28  and  C_35
                            x       y       z     vdW  Elec       q    Type
                         _______ _______ _______ _____ _____    ______ ____

>  <TORSDO>
F 9

$$$$
