=
 OpenBabel11052418023D

 28 31  0  0  1  0  0  0  0  0999 V2000
  187.0590  176.1090  142.0180 C   0  0  2  0  0  3  0  0  0  0  0  0
  185.8950  178.0890  142.5240 C   0  0  2  0  0  3  0  0  0  0  0  0
  185.9560  177.8330  141.0710 C   0  0  0  0  0  0  0  0  0  0  0  0
  185.4440  178.5650  140.1850 O   0  0  0  0  0  0  0  0  0  0  0  0
  186.6860  176.7110  140.7950 O   0  0  0  0  0  0  0  0  0  0  0  0
  186.8010  177.0900  143.1110 N   0  0  0  0  0  0  0  0  0  0  0  0
  184.2060  178.8080  144.2110 C   0  0  0  0  0  1  0  0  0  0  0  0
  184.4870  177.8680  143.0550 C   0  0  0  0  0  2  0  0  0  0  0  0
  188.4750  175.5280  141.9460 C   0  0  0  0  0  2  0  0  0  0  0  0
  188.4740  174.0340  142.2380 C   0  0  2  0  0  3  0  0  0  0  0  0
  190.2600  172.8310  141.2280 C   0  0  0  0  0  0  0  0  0  0  0  0
  189.4010  173.7480  143.4140 C   0  0  0  0  0  2  0  0  0  0  0  0
  188.2300  172.9670  139.9390 N   0  0  0  0  0  1  0  0  0  0  0  0
  189.0210  173.2670  141.0860 C   0  0  0  0  0  0  0  0  0  0  0  0
  190.9410  171.9550  140.2330 C   0  0  0  0  0  1  0  0  0  0  0  0
  191.0420  173.2830  142.7610 S   0  0  0  0  0  0  0  0  0  0  0  0
  188.0200  177.8080  143.5040 C   0  0  0  0  0  2  0  0  0  0  0  0
  190.8060  177.4060  144.6050 C   0  0  0  0  0  3  0  0  0  0  0  0
  189.7690  175.9110  146.2090 C   0  0  0  0  0  0  0  0  0  0  0  0
  188.3260  177.6380  144.9980 C   0  0  2  0  0  3  0  0  0  0  0  0
  192.1470  175.7630  145.7650 C   0  0  0  0  0  0  0  0  0  0  0  0
  189.6530  176.9440  145.2520 C   0  0  0  0  0  0  0  0  0  0  0  0
  187.5180  176.4880  147.0960 C   0  0  0  0  0  2  0  0  0  0  0  0
  191.0120  175.3150  146.4450 C   0  0  0  0  0  3  0  0  0  0  0  0
  188.5720  175.4000  146.9530 C   0  0  0  0  0  2  0  0  0  0  0  0
  193.7000  175.0130  146.0690 Cl  0  0  0  0  0  0  0  0  0  0  0  0
  192.0460  176.8150  144.8530 C   0  0  0  0  0  3  0  0  0  0  0  0
  187.1340  176.9890  145.7130 C   0  0  0  0  0  2  0  0  0  0  0  0
  1  9  1  6  0  0  0
  1  6  1  0  0  0  0
  2  8  1  1  0  0  0
  2  6  1  0  0  0  0
  3  2  1  0  0  0  0
  4  3  2  0  0  0  0
  5  3  1  0  0  0  0
  5  1  1  0  0  0  0
  6 17  1  0  0  0  0
  8  7  1  0  0  0  0
 10  9  1  6  0  0  0
 10 12  1  0  0  0  0
 11 16  1  0  0  0  0
 13 14  1  0  0  0  0
 14 11  2  0  0  0  0
 14 10  1  0  0  0  0
 15 11  1  0  0  0  0
 16 12  1  0  0  0  0
 18 27  2  0  0  0  0
 18 22  1  0  0  0  0
 19 24  1  0  0  0  0
 19 25  1  0  0  0  0
 20 17  1  6  0  0  0
 20 22  1  0  0  0  0
 20 28  1  0  0  0  0
 21 26  1  0  0  0  0
 21 24  2  0  0  0  0
 22 19  2  0  0  0  0
 25 23  1  0  0  0  0
 27 21  1  0  0  0  0
 28 23  1  0  0  0  0
M  END
>  <MODEL>
1

>  <REMARK>
 VINA RESULT:      -7.3      0.000      0.000
  Name = 
  5 active torsions:
  status: ('A' for Active; 'I' for Inactive)
    1  A    between atoms: C_1  and  C_2
    2  A    between atoms: C_2  and  C_3
    3  A    between atoms: C_10  and  C_17
    4  A    between atoms: C_16  and  C_20
    5  A    between atoms: C_17  and  N_27
                            x       y       z     vdW  Elec       q    Type
                         _______ _______ _______ _____ _____    ______ ____

>  <TORSDO>
F 5

$$$$
=
 OpenBabel11052418023D

 28 31  0  0  1  0  0  0  0  0999 V2000
  189.3140  176.5010  146.3640 C   0  0  2  0  0  3  0  0  0  0  0  0
  191.6450  176.3160  146.6130 C   0  0  2  0  0  3  0  0  0  0  0  0
  191.0210  177.0480  147.7330 C   0  0  0  0  0  0  0  0  0  0  0  0
  191.6380  177.5180  148.7240 O   0  0  0  0  0  0  0  0  0  0  0  0
  189.6760  177.1960  147.5400 O   0  0  0  0  0  0  0  0  0  0  0  0
  190.5650  176.1640  145.6270 N   0  0  0  0  0  0  0  0  0  0  0  0
  193.2940  174.4880  146.2170 C   0  0  0  0  0  1  0  0  0  0  0  0
  192.1180  174.9410  147.0600 C   0  0  0  0  0  2  0  0  0  0  0  0
  188.2430  177.2610  145.5740 C   0  0  0  0  0  2  0  0  0  0  0  0
  186.8960  176.5550  145.6510 C   0  0  2  0  0  3  0  0  0  0  0  0
  185.0200  178.0160  145.7250 C   0  0  0  0  0  0  0  0  0  0  0  0
  186.3100  176.4290  144.2500 C   0  0  0  0  0  2  0  0  0  0  0  0
  185.9180  177.3570  147.8610 N   0  0  0  0  0  1  0  0  0  0  0  0
  185.9190  177.3590  146.4360 C   0  0  0  0  0  0  0  0  0  0  0  0
  183.8970  178.7850  146.3310 C   0  0  0  0  0  1  0  0  0  0  0  0
  185.1830  177.8360  143.9620 S   0  0  0  0  0  0  0  0  0  0  0  0
  190.8430  177.1200  144.5480 C   0  0  0  0  0  2  0  0  0  0  0  0
  189.1230  178.0230  142.2320 C   0  0  0  0  0  3  0  0  0  0  0  0
  188.9130  175.6670  141.6960 C   0  0  0  0  0  0  0  0  0  0  0  0
  190.8490  176.4430  143.1710 C   0  0  2  0  0  3  0  0  0  0  0  0
  187.3000  177.2610  140.8390 C   0  0  0  0  0  0  0  0  0  0  0  0
  189.5820  176.7070  142.3790 C   0  0  0  0  0  0  0  0  0  0  0  0
  190.8780  174.1830  142.0440 C   0  0  0  0  0  2  0  0  0  0  0  0
  187.7660  175.9480  140.9460 C   0  0  0  0  0  3  0  0  0  0  0  0
  189.3790  174.2460  141.7930 C   0  0  0  0  0  2  0  0  0  0  0  0
  185.8670  177.6050  139.8960 Cl  0  0  0  0  0  0  0  0  0  0  0  0
  187.9850  178.2990  141.4730 C   0  0  0  0  0  3  0  0  0  0  0  0
  191.2000  174.9560  143.3130 C   0  0  0  0  0  2  0  0  0  0  0  0
  1  9  1  6  0  0  0
  1  5  1  0  0  0  0
  2  8  1  1  0  0  0
  2  3  1  0  0  0  0
  3  4  2  0  0  0  0
  5  3  1  0  0  0  0
  6  1  1  0  0  0  0
  6  2  1  0  0  0  0
  7  8  1  0  0  0  0
 10  9  1  6  0  0  0
 10 14  1  0  0  0  0
 11 15  1  0  0  0  0
 11 14  2  0  0  0  0
 12 10  1  0  0  0  0
 14 13  1  0  0  0  0
 16 12  1  0  0  0  0
 16 11  1  0  0  0  0
 17  6  1  0  0  0  0
 18 22  1  0  0  0  0
 19 25  1  0  0  0  0
 19 22  2  0  0  0  0
 20 28  1  0  0  0  0
 20 17  1  1  0  0  0
 21 24  2  0  0  0  0
 21 27  1  0  0  0  0
 22 20  1  0  0  0  0
 23 28  1  0  0  0  0
 24 19  1  0  0  0  0
 25 23  1  0  0  0  0
 26 21  1  0  0  0  0
 27 18  2  0  0  0  0
M  END
>  <MODEL>
2

>  <REMARK>
 VINA RESULT:      -7.0      3.836      6.992
  Name = 
  5 active torsions:
  status: ('A' for Active; 'I' for Inactive)
    1  A    between atoms: C_1  and  C_2
    2  A    between atoms: C_2  and  C_3
    3  A    between atoms: C_10  and  C_17
    4  A    between atoms: C_16  and  C_20
    5  A    between atoms: C_17  and  N_27
                            x       y       z     vdW  Elec       q    Type
                         _______ _______ _______ _____ _____    ______ ____

>  <TORSDO>
F 5

$$$$
=
 OpenBabel11052418023D

 28 31  0  0  1  0  0  0  0  0999 V2000
  188.6380  175.3740  142.1330 C   0  0  2  0  0  3  0  0  0  0  0  0
  187.1190  177.1550  142.3620 C   0  0  2  0  0  3  0  0  0  0  0  0
  187.2150  176.6800  140.9670 C   0  0  0  0  0  0  0  0  0  0  0  0
  186.5640  177.1460  139.9970 O   0  0  0  0  0  0  0  0  0  0  0  0
  188.1450  175.6850  140.8450 O   0  0  0  0  0  0  0  0  0  0  0  0
  188.2050  176.4550  143.0640 N   0  0  0  0  0  0  0  0  0  0  0  0
  185.2660  177.8760  143.8660 C   0  0  0  0  0  1  0  0  0  0  0  0
  185.7840  176.7620  142.9780 C   0  0  0  0  0  2  0  0  0  0  0  0
  190.1380  175.0670  142.0970 C   0  0  0  0  0  2  0  0  0  0  0  0
  190.3950  173.5660  142.1060 C   0  0  2  0  0  3  0  0  0  0  0  0
  191.6380  172.7900  143.9800 C   0  0  0  0  0  0  0  0  0  0  0  0
  189.3350  172.8770  142.9580 C   0  0  0  0  0  2  0  0  0  0  0  0
  192.9340  173.3860  142.0370 N   0  0  0  0  0  1  0  0  0  0  0  0
  191.7030  173.2550  142.7450 C   0  0  0  0  0  0  0  0  0  0  0  0
  192.8290  172.3210  144.7430 C   0  0  0  0  0  1  0  0  0  0  0  0
  189.9940  172.6650  144.6480 S   0  0  0  0  0  0  0  0  0  0  0  0
  189.2660  177.4450  143.2880 C   0  0  0  0  0  2  0  0  0  0  0  0
  192.0980  177.2250  144.3230 C   0  0  0  0  0  3  0  0  0  0  0  0
  191.1290  176.0720  146.2240 C   0  0  0  0  0  0  0  0  0  0  0  0
  189.6390  177.5560  144.7730 C   0  0  2  0  0  3  0  0  0  0  0  0
  193.4850  175.8150  145.7130 C   0  0  0  0  0  0  0  0  0  0  0  0
  190.9730  176.9070  145.0950 C   0  0  0  0  0  0  0  0  0  0  0  0
  188.9220  176.8310  147.0830 C   0  0  0  0  0  2  0  0  0  0  0  0
  192.3790  175.5160  146.5130 C   0  0  0  0  0  3  0  0  0  0  0  0
  189.9660  175.7240  147.1030 C   0  0  0  0  0  2  0  0  0  0  0  0
  195.0470  175.1180  146.0850 Cl  0  0  0  0  0  0  0  0  0  0  0  0
  193.3460  176.6770  144.6240 C   0  0  0  0  0  3  0  0  0  0  0  0
  188.4780  177.0680  145.6490 C   0  0  0  0  0  2  0  0  0  0  0  0
  1  9  1  6  0  0  0
  1  6  1  0  0  0  0
  2  8  1  1  0  0  0
  2  6  1  0  0  0  0
  3  2  1  0  0  0  0
  4  3  2  0  0  0  0
  5  3  1  0  0  0  0
  5  1  1  0  0  0  0
  6 17  1  0  0  0  0
  8  7  1  0  0  0  0
 10  9  1  1  0  0  0
 10 14  1  0  0  0  0
 10 12  1  0  0  0  0
 11 16  1  0  0  0  0
 11 15  1  0  0  0  0
 12 16  1  0  0  0  0
 13 14  1  0  0  0  0
 14 11  2  0  0  0  0
 18 27  2  0  0  0  0
 18 22  1  0  0  0  0
 19 24  1  0  0  0  0
 19 25  1  0  0  0  0
 20 17  1  6  0  0  0
 20 22  1  0  0  0  0
 20 28  1  0  0  0  0
 21 26  1  0  0  0  0
 21 24  2  0  0  0  0
 22 19  2  0  0  0  0
 23 25  1  0  0  0  0
 27 21  1  0  0  0  0
 28 23  1  0  0  0  0
M  END
>  <MODEL>
3

>  <REMARK>
 VINA RESULT:      -6.9      1.766      2.134
  Name = 
  5 active torsions:
  status: ('A' for Active; 'I' for Inactive)
    1  A    between atoms: C_1  and  C_2
    2  A    between atoms: C_2  and  C_3
    3  A    between atoms: C_10  and  C_17
    4  A    between atoms: C_16  and  C_20
    5  A    between atoms: C_17  and  N_27
                            x       y       z     vdW  Elec       q    Type
                         _______ _______ _______ _____ _____    ______ ____

>  <TORSDO>
F 5

$$$$
=
 OpenBabel11052418023D

 28 31  0  0  1  0  0  0  0  0999 V2000
  188.7630  177.3720  145.5260 C   0  0  2  0  0  3  0  0  0  0  0  0
  190.8010  176.2370  145.2340 C   0  0  2  0  0  3  0  0  0  0  0  0
  190.7040  177.4380  144.3800 C   0  0  0  0  0  0  0  0  0  0  0  0
  191.5970  177.8380  143.5890 O   0  0  0  0  0  0  0  0  0  0  0  0
  189.4900  178.0500  144.5220 O   0  0  0  0  0  0  0  0  0  0  0  0
  189.4540  176.0810  145.8020 N   0  0  0  0  0  0  0  0  0  0  0  0
  191.4980  175.5220  147.5190 C   0  0  0  0  0  1  0  0  0  0  0  0
  191.8020  176.4510  146.3590 C   0  0  0  0  0  2  0  0  0  0  0  0
  187.2740  177.2860  145.1750 C   0  0  0  0  0  2  0  0  0  0  0  0
  186.7810  178.5780  144.5380 C   0  0  2  0  0  3  0  0  0  0  0  0
  184.7440  178.3670  143.3280 C   0  0  0  0  0  0  0  0  0  0  0  0
  185.7650  179.2410  145.4610 C   0  0  0  0  0  2  0  0  0  0  0  0
  186.7600  178.0560  142.0460 N   0  0  0  0  0  1  0  0  0  0  0  0
  186.0620  178.3020  143.2640 C   0  0  0  0  0  0  0  0  0  0  0  0
  183.8570  178.2300  142.1380 C   0  0  0  0  0  1  0  0  0  0  0  0
  184.0900  178.7350  144.9410 S   0  0  0  0  0  0  0  0  0  0  0  0
  188.8270  174.9590  145.0920 C   0  0  0  0  0  2  0  0  0  0  0  0
  188.9280  175.1240  142.0760 C   0  0  0  0  0  3  0  0  0  0  0  0
  189.4920  172.7650  142.1390 C   0  0  0  0  0  0  0  0  0  0  0  0
  189.8380  174.1880  144.2330 C   0  0  2  0  0  3  0  0  0  0  0  0
  188.6100  173.7540  140.1090 C   0  0  0  0  0  0  0  0  0  0  0  0
  189.3770  174.0100  142.7980 C   0  0  0  0  0  0  0  0  0  0  0  0
  190.9510  171.9360  143.9750 C   0  0  0  0  0  2  0  0  0  0  0  0
  189.0900  172.6420  140.8060 C   0  0  0  0  0  3  0  0  0  0  0  0
  189.9960  171.5490  142.8550 C   0  0  0  0  0  2  0  0  0  0  0  0
  188.1130  173.5910  138.4390 Cl  0  0  0  0  0  0  0  0  0  0  0  0
  188.5390  174.9960  140.7410 C   0  0  0  0  0  3  0  0  0  0  0  0
  190.2370  172.8810  144.9290 C   0  0  0  0  0  2  0  0  0  0  0  0
  1  9  1  6  0  0  0
  1  6  1  0  0  0  0
  2  6  1  0  0  0  0
  2  8  1  1  0  0  0
  3  5  1  0  0  0  0
  3  2  1  0  0  0  0
  4  3  2  0  0  0  0
  5  1  1  0  0  0  0
  8  7  1  0  0  0  0
 10  9  1  1  0  0  0
 10 12  1  0  0  0  0
 11 16  1  0  0  0  0
 13 14  1  0  0  0  0
 14 11  2  0  0  0  0
 14 10  1  0  0  0  0
 15 11  1  0  0  0  0
 16 12  1  0  0  0  0
 17  6  1  0  0  0  0
 18 22  1  0  0  0  0
 19 22  2  0  0  0  0
 19 25  1  0  0  0  0
 20 28  1  0  0  0  0
 20 17  1  1  0  0  0
 21 27  1  0  0  0  0
 21 24  2  0  0  0  0
 22 20  1  0  0  0  0
 23 28  1  0  0  0  0
 24 19  1  0  0  0  0
 25 23  1  0  0  0  0
 26 21  1  0  0  0  0
 27 18  2  0  0  0  0
M  END
>  <MODEL>
4

>  <REMARK>
 VINA RESULT:      -6.6      3.314      6.325
  Name = 
  5 active torsions:
  status: ('A' for Active; 'I' for Inactive)
    1  A    between atoms: C_1  and  C_2
    2  A    between atoms: C_2  and  C_3
    3  A    between atoms: C_10  and  C_17
    4  A    between atoms: C_16  and  C_20
    5  A    between atoms: C_17  and  N_27
                            x       y       z     vdW  Elec       q    Type
                         _______ _______ _______ _____ _____    ______ ____

>  <TORSDO>
F 5

$$$$
=
 OpenBabel11052418023D

 28 31  0  0  1  0  0  0  0  0999 V2000
  190.3110  177.1180  145.2200 C   0  0  2  0  0  3  0  0  0  0  0  0
  190.0840  177.0580  147.5600 C   0  0  2  0  0  3  0  0  0  0  0  0
  191.3650  176.4780  147.1090 C   0  0  0  0  0  0  0  0  0  0  0  0
  192.2550  176.0110  147.8650 O   0  0  0  0  0  0  0  0  0  0  0  0
  191.4520  176.4690  145.7440 O   0  0  0  0  0  0  0  0  0  0  0  0
  189.3180  177.2630  146.3220 N   0  0  0  0  0  0  0  0  0  0  0  0
  191.1210  178.2160  149.5100 C   0  0  0  0  0  1  0  0  0  0  0  0
  190.3080  178.3990  148.2430 C   0  0  0  0  0  2  0  0  0  0  0  0
  189.8160  176.4310  143.9430 C   0  0  0  0  0  2  0  0  0  0  0  0
  190.6930  175.2400  143.5810 C   0  0  2  0  0  3  0  0  0  0  0  0
  189.4970  173.3340  142.8100 C   0  0  0  0  0  0  0  0  0  0  0  0
  190.9650  175.2490  142.0820 C   0  0  0  0  0  2  0  0  0  0  0  0
  189.9230  173.4140  145.1800 N   0  0  0  0  0  1  0  0  0  0  0  0
  189.9910  173.9580  143.8640 C   0  0  0  0  0  0  0  0  0  0  0  0
  188.8590  171.9890  142.8770 C   0  0  0  0  0  1  0  0  0  0  0  0
  189.7390  174.1740  141.2610 S   0  0  0  0  0  0  0  0  0  0  0  0
  188.2950  176.2110  146.2820 C   0  0  0  0  0  2  0  0  0  0  0  0
  186.5500  176.3260  143.8170 C   0  0  0  0  0  3  0  0  0  0  0  0
  185.7760  178.4580  144.6770 C   0  0  0  0  0  0  0  0  0  0  0  0
  186.8750  176.7930  146.2740 C   0  0  2  0  0  3  0  0  0  0  0  0
  185.5060  177.9210  142.3290 C   0  0  0  0  0  0  0  0  0  0  0  0
  186.4220  177.2200  144.8890 C   0  0  0  0  0  0  0  0  0  0  0  0
  185.4900  178.7210  147.1340 C   0  0  0  0  0  2  0  0  0  0  0  0
  185.3400  178.8080  143.3960 C   0  0  0  0  0  3  0  0  0  0  0  0
  185.5850  179.4380  145.7960 C   0  0  0  0  0  2  0  0  0  0  0  0
  184.9540  178.3650  140.7290 Cl  0  0  0  0  0  0  0  0  0  0  0  0
  186.1010  176.6770  142.5420 C   0  0  0  0  0  3  0  0  0  0  0  0
  186.7460  177.8890  147.3400 C   0  0  0  0  0  2  0  0  0  0  0  0
  1  9  1  6  0  0  0
  1  5  1  0  0  0  0
  1  6  1  0  0  0  0
  2  8  1  6  0  0  0
  3  2  1  0  0  0  0
  3  4  2  0  0  0  0
  5  3  1  0  0  0  0
  6  2  1  0  0  0  0
  8  7  1  0  0  0  0
 10 14  1  0  0  0  0
 10  9  1  6  0  0  0
 11 15  1  0  0  0  0
 11 14  2  0  0  0  0
 12 10  1  0  0  0  0
 14 13  1  0  0  0  0
 16 12  1  0  0  0  0
 16 11  1  0  0  0  0
 17  6  1  0  0  0  0
 18 22  1  0  0  0  0
 19 22  2  0  0  0  0
 19 25  1  0  0  0  0
 20 17  1  6  0  0  0
 20 28  1  0  0  0  0
 21 27  1  0  0  0  0
 21 24  2  0  0  0  0
 22 20  1  0  0  0  0
 23 28  1  0  0  0  0
 24 19  1  0  0  0  0
 25 23  1  0  0  0  0
 26 21  1  0  0  0  0
 27 18  2  0  0  0  0
M  END
>  <MODEL>
5

>  <REMARK>
 VINA RESULT:      -6.5      3.648      5.693
  Name = 
  5 active torsions:
  status: ('A' for Active; 'I' for Inactive)
    1  A    between atoms: C_1  and  C_2
    2  A    between atoms: C_2  and  C_3
    3  A    between atoms: C_10  and  C_17
    4  A    between atoms: C_16  and  C_20
    5  A    between atoms: C_17  and  N_27
                            x       y       z     vdW  Elec       q    Type
                         _______ _______ _______ _____ _____    ______ ____

>  <TORSDO>
F 5

$$$$
=
 OpenBabel11052418023D

 28 31  0  0  1  0  0  0  0  0999 V2000
  192.2120  173.4190  143.9230 C   0  0  2  0  0  3  0  0  0  0  0  0
  193.8350  174.0250  145.5130 C   0  0  2  0  0  3  0  0  0  0  0  0
  193.7410  172.5610  145.3420 C   0  0  0  0  0  0  0  0  0  0  0  0
  194.4440  171.7140  145.9520 O   0  0  0  0  0  0  0  0  0  0  0  0
  192.7530  172.2280  144.4580 O   0  0  0  0  0  0  0  0  0  0  0  0
  192.6900  174.5560  144.7590 N   0  0  0  0  0  0  0  0  0  0  0  0
  195.2230  176.0580  145.1210 C   0  0  0  0  0  1  0  0  0  0  0  0
  195.1270  174.5590  144.9140 C   0  0  0  0  0  2  0  0  0  0  0  0
  190.6960  173.3060  143.7310 C   0  0  0  0  0  2  0  0  0  0  0  0
  190.2310  174.1130  142.5260 C   0  0  2  0  0  3  0  0  0  0  0  0
  189.4150  172.8020  140.7170 C   0  0  0  0  0  0  0  0  0  0  0  0
  188.7230  174.3190  142.6080 C   0  0  0  0  0  2  0  0  0  0  0  0
  191.7640  173.3350  140.6480 N   0  0  0  0  0  1  0  0  0  0  0  0
  190.4770  173.3690  141.2610 C   0  0  0  0  0  0  0  0  0  0  0  0
  189.4400  172.1090  139.3980 C   0  0  0  0  0  1  0  0  0  0  0  0
  187.9030  173.0120  141.6310 S   0  0  0  0  0  0  0  0  0  0  0  0
  191.6890  174.9700  145.7500 C   0  0  0  0  0  2  0  0  0  0  0  0
  189.0280  176.0310  146.7130 C   0  0  0  0  0  3  0  0  0  0  0  0
  188.9850  177.3030  144.6480 C   0  0  0  0  0  0  0  0  0  0  0  0
  191.2160  176.4110  145.5180 C   0  0  2  0  0  3  0  0  0  0  0  0
  186.9310  176.8880  145.8660 C   0  0  0  0  0  0  0  0  0  0  0  0
  189.7070  176.5560  145.6050 C   0  0  0  0  0  0  0  0  0  0  0  0
  191.1200  178.2370  143.7770 C   0  0  0  0  0  2  0  0  0  0  0  0
  187.6010  177.4480  144.7750 C   0  0  0  0  0  3  0  0  0  0  0  0
  189.6670  177.9140  143.4610 C   0  0  0  0  0  2  0  0  0  0  0  0
  185.1980  177.0760  146.0190 Cl  0  0  0  0  0  0  0  0  0  0  0  0
  187.6460  176.1890  146.8400 C   0  0  0  0  0  3  0  0  0  0  0  0
  191.8240  176.9660  144.2240 C   0  0  0  0  0  2  0  0  0  0  0  0
  1  9  1  1  0  0  0
  1  5  1  0  0  0  0
  1  6  1  0  0  0  0
  2  8  1  6  0  0  0
  3  2  1  0  0  0  0
  3  4  2  0  0  0  0
  5  3  1  0  0  0  0
  6  2  1  0  0  0  0
  6 17  1  0  0  0  0
  8  7  1  0  0  0  0
 10 12  1  0  0  0  0
 10  9  1  1  0  0  0
 11 14  2  0  0  0  0
 11 16  1  0  0  0  0
 13 14  1  0  0  0  0
 14 10  1  0  0  0  0
 15 11  1  0  0  0  0
 16 12  1  0  0  0  0
 18 27  1  0  0  0  0
 19 24  2  0  0  0  0
 19 22  1  0  0  0  0
 20 22  1  0  0  0  0
 20 17  1  6  0  0  0
 21 26  1  0  0  0  0
 21 27  2  0  0  0  0
 22 18  2  0  0  0  0
 23 28  1  0  0  0  0
 24 21  1  0  0  0  0
 25 23  1  0  0  0  0
 25 19  1  0  0  0  0
 28 20  1  0  0  0  0
M  END
>  <MODEL>
6

>  <REMARK>
 VINA RESULT:      -6.5      3.782      6.221
  Name = 
  5 active torsions:
  status: ('A' for Active; 'I' for Inactive)
    1  A    between atoms: C_1  and  C_2
    2  A    between atoms: C_2  and  C_3
    3  A    between atoms: C_10  and  C_17
    4  A    between atoms: C_16  and  C_20
    5  A    between atoms: C_17  and  N_27
                            x       y       z     vdW  Elec       q    Type
                         _______ _______ _______ _____ _____    ______ ____

>  <TORSDO>
F 5

$$$$
=
 OpenBabel11052418023D

 28 31  0  0  1  0  0  0  0  0999 V2000
  190.5750  176.7820  146.5210 C   0  0  2  0  0  3  0  0  0  0  0  0
  188.3650  176.0440  146.2000 C   0  0  2  0  0  3  0  0  0  0  0  0
  189.0940  175.2140  147.1800 C   0  0  0  0  0  0  0  0  0  0  0  0
  188.6110  174.2280  147.7950 O   0  0  0  0  0  0  0  0  0  0  0  0
  190.3920  175.6220  147.3080 O   0  0  0  0  0  0  0  0  0  0  0  0
  189.3970  176.9140  145.6160 N   0  0  0  0  0  0  0  0  0  0  0  0
  185.9860  176.7900  146.1670 C   0  0  0  0  0  1  0  0  0  0  0  0
  187.3150  176.9000  146.8900 C   0  0  0  0  0  2  0  0  0  0  0  0
  191.9520  176.7900  145.8500 C   0  0  0  0  0  2  0  0  0  0  0  0
  192.7870  175.5940  146.2890 C   0  0  2  0  0  3  0  0  0  0  0  0
  193.9620  174.5110  144.5270 C   0  0  0  0  0  0  0  0  0  0  0  0
  194.2270  176.0390  146.5150 C   0  0  0  0  0  2  0  0  0  0  0  0
  191.7680  173.6420  145.0110 N   0  0  0  0  0  1  0  0  0  0  0  0
  192.8380  174.5600  145.2200 C   0  0  0  0  0  0  0  0  0  0  0  0
  194.2440  173.4760  143.4920 C   0  0  0  0  0  1  0  0  0  0  0  0
  195.1800  175.7230  144.9900 S   0  0  0  0  0  0  0  0  0  0  0  0
  189.6750  176.3930  144.2720 C   0  0  0  0  0  2  0  0  0  0  0  0
  189.0940  173.9510  142.5880 C   0  0  0  0  0  3  0  0  0  0  0  0
  188.0600  175.4900  141.0240 C   0  0  0  0  0  0  0  0  0  0  0  0
  188.3900  176.2120  143.4530 C   0  0  2  0  0  3  0  0  0  0  0  0
  188.7700  173.2930  140.2840 C   0  0  0  0  0  0  0  0  0  0  0  0
  188.5490  175.2130  142.3200 C   0  0  0  0  0  0  0  0  0  0  0  0
  186.7960  177.4340  141.9220 C   0  0  0  0  0  2  0  0  0  0  0  0
  188.1910  174.5350  140.0110 C   0  0  0  0  0  3  0  0  0  0  0  0
  187.4390  176.8130  140.6910 C   0  0  0  0  0  2  0  0  0  0  0  0
  188.9270  172.1030  139.0100 Cl  0  0  0  0  0  0  0  0  0  0  0  0
  189.2120  172.9980  141.5740 C   0  0  0  0  0  3  0  0  0  0  0  0
  187.8470  177.5780  143.0110 C   0  0  0  0  0  2  0  0  0  0  0  0
  1  9  1  6  0  0  0
  1  5  1  0  0  0  0
  2  8  1  1  0  0  0
  2  3  1  0  0  0  0
  3  5  1  0  0  0  0
  3  4  2  0  0  0  0
  6  2  1  0  0  0  0
  6  1  1  0  0  0  0
  7  8  1  0  0  0  0
 10  9  1  6  0  0  0
 10 12  1  0  0  0  0
 11 16  1  0  0  0  0
 11 14  2  0  0  0  0
 13 14  1  0  0  0  0
 14 10  1  0  0  0  0
 15 11  1  0  0  0  0
 16 12  1  0  0  0  0
 17  6  1  0  0  0  0
 19 22  2  0  0  0  0
 20 17  1  6  0  0  0
 21 27  1  0  0  0  0
 22 18  1  0  0  0  0
 22 20  1  0  0  0  0
 23 28  1  0  0  0  0
 24 21  2  0  0  0  0
 24 19  1  0  0  0  0
 25 19  1  0  0  0  0
 25 23  1  0  0  0  0
 26 21  1  0  0  0  0
 27 18  2  0  0  0  0
 28 20  1  0  0  0  0
M  END
>  <MODEL>
7

>  <REMARK>
 VINA RESULT:      -6.4      3.533      5.735
  Name = 
  5 active torsions:
  status: ('A' for Active; 'I' for Inactive)
    1  A    between atoms: C_1  and  C_2
    2  A    between atoms: C_2  and  C_3
    3  A    between atoms: C_10  and  C_17
    4  A    between atoms: C_16  and  C_20
    5  A    between atoms: C_17  and  N_27
                            x       y       z     vdW  Elec       q    Type
                         _______ _______ _______ _____ _____    ______ ____

>  <TORSDO>
F 5

$$$$
=
 OpenBabel11052418023D

 28 31  0  0  1  0  0  0  0  0999 V2000
  189.2310  176.4970  145.9170 C   0  0  2  0  0  3  0  0  0  0  0  0
  191.5390  176.3700  146.3520 C   0  0  2  0  0  3  0  0  0  0  0  0
  190.7830  176.9110  147.5000 C   0  0  0  0  0  0  0  0  0  0  0  0
  191.2870  177.2600  148.5990 O   0  0  0  0  0  0  0  0  0  0  0  0
  189.4540  177.0310  147.2060 O   0  0  0  0  0  0  0  0  0  0  0  0
  190.5570  176.3160  145.2590 N   0  0  0  0  0  0  0  0  0  0  0  0
  193.4680  174.8020  146.1580 C   0  0  0  0  0  1  0  0  0  0  0  0
  192.0420  174.9650  146.6490 C   0  0  0  0  0  2  0  0  0  0  0  0
  188.1950  177.3180  145.1430 C   0  0  0  0  0  2  0  0  0  0  0  0
  186.8450  176.6130  145.1120 C   0  0  2  0  0  3  0  0  0  0  0  0
  184.9780  178.0420  145.4770 C   0  0  0  0  0  0  0  0  0  0  0  0
  186.2380  176.7450  143.7200 C   0  0  0  0  0  2  0  0  0  0  0  0
  185.9040  177.0050  147.4450 N   0  0  0  0  0  1  0  0  0  0  0  0
  185.8840  177.2650  146.0440 C   0  0  0  0  0  0  0  0  0  0  0  0
  183.8680  178.6920  146.2300 C   0  0  0  0  0  1  0  0  0  0  0  0
  185.1140  178.1840  143.7090 S   0  0  0  0  0  0  0  0  0  0  0  0
  190.8770  177.4260  144.3530 C   0  0  0  0  0  2  0  0  0  0  0  0
  189.3670  176.0120  142.1490 C   0  0  0  0  0  3  0  0  0  0  0  0
  191.3720  174.6760  141.8700 C   0  0  0  0  0  0  0  0  0  0  0  0
  191.5320  176.9340  143.0550 C   0  0  2  0  0  3  0  0  0  0  0  0
  189.2440  173.8720  141.0320 C   0  0  0  0  0  0  0  0  0  0  0  0
  190.7380  175.8330  142.3760 C   0  0  0  0  0  0  0  0  0  0  0  0
  193.5860  175.7710  142.1570 C   0  0  0  0  0  2  0  0  0  0  0  0
  190.6170  173.6950  141.2190 C   0  0  0  0  0  3  0  0  0  0  0  0
  192.8410  174.4480  142.0570 C   0  0  0  0  0  2  0  0  0  0  0  0
  188.3080  172.6400  140.2120 Cl  0  0  0  0  0  0  0  0  0  0  0  0
  188.6210  175.0340  141.4880 C   0  0  0  0  0  3  0  0  0  0  0  0
  193.0040  176.5810  143.3050 C   0  0  0  0  0  2  0  0  0  0  0  0
  1  9  1  6  0  0  0
  1  5  1  0  0  0  0
  2  8  1  1  0  0  0
  2  3  1  0  0  0  0
  3  4  2  0  0  0  0
  5  3  1  0  0  0  0
  6  1  1  0  0  0  0
  6  2  1  0  0  0  0
  7  8  1  0  0  0  0
 10  9  1  6  0  0  0
 10 14  1  0  0  0  0
 11 14  2  0  0  0  0
 11 15  1  0  0  0  0
 12 10  1  0  0  0  0
 14 13  1  0  0  0  0
 16 12  1  0  0  0  0
 16 11  1  0  0  0  0
 17  6  1  0  0  0  0
 18 22  1  0  0  0  0
 19 25  1  0  0  0  0
 19 22  2  0  0  0  0
 20 28  1  0  0  0  0
 20 17  1  1  0  0  0
 21 24  2  0  0  0  0
 21 27  1  0  0  0  0
 22 20  1  0  0  0  0
 23 28  1  0  0  0  0
 24 19  1  0  0  0  0
 25 23  1  0  0  0  0
 26 21  1  0  0  0  0
 27 18  2  0  0  0  0
M  END
>  <MODEL>
8

>  <REMARK>
 VINA RESULT:      -6.3      3.599      6.838
  Name = 
  5 active torsions:
  status: ('A' for Active; 'I' for Inactive)
    1  A    between atoms: C_1  and  C_2
    2  A    between atoms: C_2  and  C_3
    3  A    between atoms: C_10  and  C_17
    4  A    between atoms: C_16  and  C_20
    5  A    between atoms: C_17  and  N_27
                            x       y       z     vdW  Elec       q    Type
                         _______ _______ _______ _____ _____    ______ ____

>  <TORSDO>
F 5

$$$$
=
 OpenBabel11052418023D

 28 31  0  0  1  0  0  0  0  0999 V2000
  189.1060  175.3710  142.4020 C   0  0  2  0  0  3  0  0  0  0  0  0
  189.9980  173.4990  141.2920 C   0  0  2  0  0  3  0  0  0  0  0  0
  188.8420  174.0740  140.5750 C   0  0  0  0  0  0  0  0  0  0  0  0
  188.3750  173.6420  139.4900 O   0  0  0  0  0  0  0  0  0  0  0  0
  188.3030  175.1240  141.2660 O   0  0  0  0  0  0  0  0  0  0  0  0
  190.0190  174.2060  142.5810 N   0  0  0  0  0  0  0  0  0  0  0  0
  192.2890  174.4700  141.4510 C   0  0  0  0  0  1  0  0  0  0  0  0
  191.2930  173.7750  140.5430 C   0  0  0  0  0  2  0  0  0  0  0  0
  188.2540  175.7600  143.6140 C   0  0  0  0  0  2  0  0  0  0  0  0
  188.4380  177.2300  143.9690 C   0  0  2  0  0  3  0  0  0  0  0  0
  186.4110  178.4110  144.3610 C   0  0  0  0  0  0  0  0  0  0  0  0
  188.4240  177.3900  145.4840 C   0  0  0  0  0  2  0  0  0  0  0  0
  187.2300  178.4610  142.0950 N   0  0  0  0  0  1  0  0  0  0  0  0
  187.3040  178.0460  143.4570 C   0  0  0  0  0  0  0  0  0  0  0  0
  185.2670  179.3190  144.0640 C   0  0  0  0  0  1  0  0  0  0  0  0
  186.7280  177.8180  146.0080 S   0  0  0  0  0  0  0  0  0  0  0  0
  189.5150  173.2620  143.5860 C   0  0  0  0  0  2  0  0  0  0  0  0
  190.9970  174.8610  145.6800 C   0  0  0  0  0  3  0  0  0  0  0  0
  192.9640  173.6240  144.9820 C   0  0  0  0  0  0  0  0  0  0  0  0
  190.6470  172.6880  144.4500 C   0  0  2  0  0  3  0  0  0  0  0  0
  193.2020  175.7230  146.1710 C   0  0  0  0  0  0  0  0  0  0  0  0
  191.5580  173.7620  145.0160 C   0  0  0  0  0  0  0  0  0  0  0  0
  192.7070  171.2320  144.3510 C   0  0  0  0  0  2  0  0  0  0  0  0
  193.7760  174.6140  145.5430 C   0  0  0  0  0  3  0  0  0  0  0  0
  193.6150  172.4520  144.3130 C   0  0  0  0  0  2  0  0  0  0  0  0
  194.2260  176.9560  146.8730 Cl  0  0  0  0  0  0  0  0  0  0  0  0
  191.8140  175.8410  146.2480 C   0  0  0  0  0  3  0  0  0  0  0  0
  191.3840  171.5790  143.6880 C   0  0  0  0  0  2  0  0  0  0  0  0
  1  6  1  0  0  0  0
  1  9  1  1  0  0  0
  2  8  1  6  0  0  0
  2  6  1  0  0  0  0
  3  5  1  0  0  0  0
  3  2  1  0  0  0  0
  4  3  2  0  0  0  0
  5  1  1  0  0  0  0
  6 17  1  0  0  0  0
  8  7  1  0  0  0  0
 10  9  1  1  0  0  0
 10 12  1  0  0  0  0
 11 16  1  0  0  0  0
 12 16  1  0  0  0  0
 13 14  1  0  0  0  0
 14 10  1  0  0  0  0
 14 11  2  0  0  0  0
 15 11  1  0  0  0  0
 18 27  1  0  0  0  0
 19 22  1  0  0  0  0
 19 24  2  0  0  0  0
 20 17  1  6  0  0  0
 20 22  1  0  0  0  0
 21 27  2  0  0  0  0
 21 26  1  0  0  0  0
 22 18  2  0  0  0  0
 24 21  1  0  0  0  0
 25 23  1  0  0  0  0
 25 19  1  0  0  0  0
 28 23  1  0  0  0  0
 28 20  1  0  0  0  0
M  END
>  <MODEL>
9

>  <REMARK>
 VINA RESULT:      -6.3      2.483      5.536
  Name = 
  5 active torsions:
  status: ('A' for Active; 'I' for Inactive)
    1  A    between atoms: C_1  and  C_2
    2  A    between atoms: C_2  and  C_3
    3  A    between atoms: C_10  and  C_17
    4  A    between atoms: C_16  and  C_20
    5  A    between atoms: C_17  and  N_27
                            x       y       z     vdW  Elec       q    Type
                         _______ _______ _______ _____ _____    ______ ____

>  <TORSDO>
F 5

$$$$
