=
 OpenBabel11052417273D

 25 27  0  0  1  0  0  0  0  0999 V2000
  189.5850  173.6260  144.9860 C   0  0  1  0  0  3  0  0  0  0  0  0
  189.4210  174.6750  143.8650 C   0  0  2  0  0  3  0  0  0  0  0  0
  190.3750  172.0900  143.1260 C   0  0  0  0  0  2  0  0  0  0  0  0
  189.5540  172.8870  142.1640 C   0  0  0  0  0  3  0  0  0  0  0  0
  188.3610  174.8960  141.5020 C   0  0  0  0  0  0  0  0  0  0  0  0
  188.6210  174.7650  140.2750 O   0  0  0  0  0  0  0  0  0  0  0  0
  188.4740  175.7810  144.3350 C   0  0  0  0  0  2  0  0  0  0  0  0
  189.7400  172.1670  144.5090 C   0  0  0  0  0  2  0  0  0  0  0  0
  187.1400  176.1030  142.0110 S   0  0  0  0  0  0  0  0  0  0  0  0
  188.2510  176.8240  143.2470 C   0  0  1  0  0  3  0  0  0  0  0  0
  189.0670  174.0840  142.5090 C   0  0  0  0  0  0  0  0  0  0  0  0
  190.6560  174.0420  146.0000 C   0  0  2  0  0  3  0  0  0  0  0  0
  192.0340  176.4960  146.8790 C   0  0  0  0  0  2  0  0  0  0  0  0
  190.1240  174.9180  147.1240 C   0  0  0  0  0  0  0  0  0  0  0  0
  190.7820  176.0050  147.5430 C   0  0  0  0  0  3  0  0  0  0  0  0
  192.7980  175.3440  146.2410 C   0  0  0  0  0  2  0  0  0  0  0  0
  188.9680  174.5440  147.7970 O   0  0  0  0  0  1  0  0  0  0  0  0
  191.8690  174.6320  145.2680 C   0  0  0  0  0  2  0  0  0  0  0  0
  187.6100  178.0390  143.8290 C   0  0  0  0  0  3  0  0  0  0  0  0
  186.5830  177.9300  144.6720 C   0  0  0  0  0  3  0  0  0  0  0  0
  185.9390  179.1460  145.2580 C   0  0  1  0  0  3  0  0  0  0  0  0
  185.3710  180.0050  144.1450 C   0  0  0  0  0  1  0  0  0  0  0  0
  184.8560  178.7720  146.2170 C   0  0  0  0  0  0  0  0  0  0  0  0
  185.1660  178.3840  147.5170 O   0  0  0  0  0  1  0  0  0  0  0  0
  183.6540  178.8080  145.8470 O   0  0  0  0  0  0  0  0  0  0  0  0
  1  8  1  6  0  0  0
  1 12  1  0  0  0  0
  2  7  1  1  0  0  0
  2  1  1  0  0  0  0
  3  8  1  0  0  0  0
  4 11  2  0  0  0  0
  4  3  1  0  0  0  0
  5  9  1  0  0  0  0
  5 11  1  0  0  0  0
  6  5  2  0  0  0  0
  9 10  1  0  0  0  0
 10 19  1  1  0  0  0
 10  7  1  0  0  0  0
 11  2  1  0  0  0  0
 12 18  1  6  0  0  0
 12 14  1  0  0  0  0
 13 15  1  0  0  0  0
 14 15  2  0  0  0  0
 14 17  1  0  0  0  0
 16 13  1  0  0  0  0
 18 16  1  0  0  0  0
 19 20  2  0  0  0  0
 20 21  1  0  0  0  0
 21 22  1  6  0  0  0
 21 23  1  0  0  0  0
 23 24  1  0  0  0  0
 25 23  2  0  0  0  0
M  END
>  <MODEL>
1

>  <REMARK>
 VINA RESULT:      -7.4      0.000      0.000
  Name = 
  4 active torsions:
  status: ('A' for Active; 'I' for Inactive)
    1  A    between atoms: C_1  and  C_5
    2  A    between atoms: C_2  and  C_21
    3  A    between atoms: C_6  and  C_23
    4  A    between atoms: C_15  and  C_21
                            x       y       z     vdW  Elec       q    Type
                         _______ _______ _______ _____ _____    ______ ____

>  <TORSDO>
F 4

$$$$
=
 OpenBabel11052417273D

 25 27  0  0  1  0  0  0  0  0999 V2000
  186.7950  177.9850  143.1900 C   0  0  1  0  0  3  0  0  0  0  0  0
  187.5880  176.6590  143.1800 C   0  0  2  0  0  3  0  0  0  0  0  0
  186.0270  177.2850  140.8750 C   0  0  0  0  0  2  0  0  0  0  0  0
  187.2870  176.4940  140.7320 C   0  0  0  0  0  3  0  0  0  0  0  0
  189.2230  175.3460  141.6430 C   0  0  0  0  0  0  0  0  0  0  0  0
  189.2550  174.4710  140.7370 O   0  0  0  0  0  0  0  0  0  0  0  0
  188.7050  176.7230  144.2230 C   0  0  0  0  0  2  0  0  0  0  0  0
  186.2760  178.4570  141.8160 C   0  0  0  0  0  2  0  0  0  0  0  0
  190.6120  175.4910  142.7650 S   0  0  0  0  0  0  0  0  0  0  0  0
  189.5400  175.4500  144.2250 C   0  0  1  0  0  3  0  0  0  0  0  0
  188.0500  176.2250  141.7960 C   0  0  0  0  0  0  0  0  0  0  0  0
  185.7120  177.9880  144.2750 C   0  0  2  0  0  3  0  0  0  0  0  0
  185.5270  178.1050  147.2150 C   0  0  0  0  0  2  0  0  0  0  0  0
  185.6130  179.3020  145.0330 C   0  0  0  0  0  0  0  0  0  0  0  0
  185.4840  179.3400  146.3640 C   0  0  0  0  0  3  0  0  0  0  0  0
  185.0300  176.8940  146.4370 C   0  0  0  0  0  2  0  0  0  0  0  0
  185.5680  180.4990  144.3300 O   0  0  0  0  0  1  0  0  0  0  0  0
  185.8690  176.7560  145.1760 C   0  0  0  0  0  2  0  0  0  0  0  0
  190.3890  175.3980  145.4510 C   0  0  0  0  0  3  0  0  0  0  0  0
  191.0500  176.4770  145.8680 C   0  0  0  0  0  3  0  0  0  0  0  0
  191.9010  176.4280  147.0970 C   0  0  1  0  0  3  0  0  0  0  0  0
  191.4040  175.3300  148.0160 C   0  0  0  0  0  1  0  0  0  0  0  0
  193.3350  176.1920  146.7490 C   0  0  0  0  0  0  0  0  0  0  0  0
  193.7460  174.9650  146.2380 O   0  0  0  0  0  0  0  0  0  0  0  0
  194.1780  177.1100  146.9180 O   0  0  0  0  0  1  0  0  0  0  0  0
  1  8  1  6  0  0  0
  1 12  1  0  0  0  0
  2  1  1  0  0  0  0
  2  7  1  1  0  0  0
  3  8  1  0  0  0  0
  4  3  1  0  0  0  0
  4 11  2  0  0  0  0
  5 11  1  0  0  0  0
  5  9  1  0  0  0  0
  6  5  2  0  0  0  0
  7 10  1  0  0  0  0
  9 10  1  0  0  0  0
 10 19  1  1  0  0  0
 11  2  1  0  0  0  0
 12 14  1  0  0  0  0
 12 18  1  1  0  0  0
 14 15  2  0  0  0  0
 15 13  1  0  0  0  0
 16 13  1  0  0  0  0
 17 14  1  0  0  0  0
 18 16  1  0  0  0  0
 19 20  2  0  0  0  0
 20 21  1  0  0  0  0
 21 22  1  1  0  0  0
 23 25  1  0  0  0  0
 23 21  1  0  0  0  0
 24 23  2  0  0  0  0
M  END
>  <MODEL>
2

>  <REMARK>
 VINA RESULT:      -7.1      2.243      6.228
  Name = 
  4 active torsions:
  status: ('A' for Active; 'I' for Inactive)
    1  A    between atoms: C_1  and  C_5
    2  A    between atoms: C_2  and  C_21
    3  A    between atoms: C_6  and  C_23
    4  A    between atoms: C_15  and  C_21
                            x       y       z     vdW  Elec       q    Type
                         _______ _______ _______ _____ _____    ______ ____

>  <TORSDO>
F 4

$$$$
=
 OpenBabel11052417273D

 25 27  0  0  1  0  0  0  0  0999 V2000
  190.7560  175.8300  143.1950 C   0  0  1  0  0  3  0  0  0  0  0  0
  190.2350  175.7170  144.6450 C   0  0  2  0  0  3  0  0  0  0  0  0
  193.0350  175.3830  144.2150 C   0  0  0  0  0  2  0  0  0  0  0  0
  192.5410  175.9720  145.4970 C   0  0  0  0  0  3  0  0  0  0  0  0
  190.7680  176.6430  147.0150 C   0  0  0  0  0  0  0  0  0  0  0  0
  191.4310  176.3940  148.0570 O   0  0  0  0  0  0  0  0  0  0  0  0
  188.8640  176.3880  144.7490 C   0  0  0  0  0  2  0  0  0  0  0  0
  192.2810  176.0130  143.0510 C   0  0  0  0  0  2  0  0  0  0  0  0
  189.2340  177.5560  147.1540 S   0  0  0  0  0  0  0  0  0  0  0  0
  188.3240  176.3340  146.1720 C   0  0  1  0  0  3  0  0  0  0  0  0
  191.2350  176.1700  145.6990 C   0  0  0  0  0  0  0  0  0  0  0  0
  190.1980  174.7140  142.3040 C   0  0  2  0  0  3  0  0  0  0  0  0
  188.1220  172.6240  142.4170 C   0  0  0  0  0  2  0  0  0  0  0  0
  188.7700  174.9590  141.8430 C   0  0  0  0  0  0  0  0  0  0  0  0
  187.8490  173.9890  141.8570 C   0  0  0  0  0  3  0  0  0  0  0  0
  189.5960  172.2700  142.2860 C   0  0  0  0  0  2  0  0  0  0  0  0
  188.4220  176.1940  141.3100 O   0  0  0  0  0  1  0  0  0  0  0  0
  190.4140  173.3510  142.9760 C   0  0  0  0  0  2  0  0  0  0  0  0
  186.8740  176.6840  146.1820 C   0  0  0  0  0  3  0  0  0  0  0  0
  186.3440  177.4190  145.2040 C   0  0  0  0  0  3  0  0  0  0  0  0
  184.8900  177.7710  145.2100 C   0  0  1  0  0  3  0  0  0  0  0  0
  184.4960  178.2790  146.5830 C   0  0  0  0  0  1  0  0  0  0  0  0
  184.5840  178.8050  144.1760 C   0  0  0  0  0  0  0  0  0  0  0  0
  185.2200  180.0410  144.2010 O   0  0  0  0  0  1  0  0  0  0  0  0
  183.7420  178.5550  143.2740 O   0  0  0  0  0  0  0  0  0  0  0  0
  1  8  1  1  0  0  0
  1  2  1  0  0  0  0
  2  7  1  6  0  0  0
  2 11  1  0  0  0  0
  3  4  1  0  0  0  0
  4 11  2  0  0  0  0
  5  9  1  0  0  0  0
  5  6  2  0  0  0  0
  7 10  1  0  0  0  0
  8  3  1  0  0  0  0
 10 19  1  6  0  0  0
 10  9  1  0  0  0  0
 11  5  1  0  0  0  0
 12 18  1  1  0  0  0
 12  1  1  0  0  0  0
 14 15  2  0  0  0  0
 14 12  1  0  0  0  0
 15 13  1  0  0  0  0
 16 13  1  0  0  0  0
 16 18  1  0  0  0  0
 17 14  1  0  0  0  0
 20 21  1  0  0  0  0
 20 19  2  0  0  0  0
 21 22  1  1  0  0  0
 23 24  1  0  0  0  0
 23 21  1  0  0  0  0
 25 23  2  0  0  0  0
M  END
>  <MODEL>
3

>  <REMARK>
 VINA RESULT:      -6.8      2.080      4.606
  Name = 
  4 active torsions:
  status: ('A' for Active; 'I' for Inactive)
    1  A    between atoms: C_1  and  C_5
    2  A    between atoms: C_2  and  C_21
    3  A    between atoms: C_6  and  C_23
    4  A    between atoms: C_15  and  C_21
                            x       y       z     vdW  Elec       q    Type
                         _______ _______ _______ _____ _____    ______ ____

>  <TORSDO>
F 4

$$$$
=
 OpenBabel11052417273D

 25 27  0  0  1  0  0  0  0  0999 V2000
  186.6370  176.5260  145.0890 C   0  0  1  0  0  3  0  0  0  0  0  0
  187.9950  177.1830  145.4170 C   0  0  2  0  0  3  0  0  0  0  0  0
  185.7150  178.0500  146.8950 C   0  0  0  0  0  2  0  0  0  0  0  0
  187.0660  178.0560  147.5350 C   0  0  0  0  0  3  0  0  0  0  0  0
  189.4740  177.7430  147.4810 C   0  0  0  0  0  0  0  0  0  0  0  0
  189.7100  178.6520  148.3220 O   0  0  0  0  0  0  0  0  0  0  0  0
  189.1310  176.2910  144.9130 C   0  0  0  0  0  2  0  0  0  0  0  0
  185.5260  176.7420  146.1360 C   0  0  0  0  0  2  0  0  0  0  0  0
  190.7900  176.6210  147.0150 S   0  0  0  0  0  0  0  0  0  0  0  0
  190.4940  176.8810  145.2460 C   0  0  1  0  0  3  0  0  0  0  0  0
  188.1390  177.6170  146.8680 C   0  0  0  0  0  0  0  0  0  0  0  0
  186.1840  176.8440  143.6590 C   0  0  2  0  0  3  0  0  0  0  0  0
  187.3040  178.0090  141.1930 C   0  0  0  0  0  2  0  0  0  0  0  0
  186.8740  175.9990  142.5980 C   0  0  0  0  0  0  0  0  0  0  0  0
  187.3380  176.5340  141.4640 C   0  0  0  0  0  3  0  0  0  0  0  0
  186.1420  178.6680  141.9240 C   0  0  0  0  0  2  0  0  0  0  0  0
  186.9550  174.6230  142.7630 O   0  0  0  0  0  1  0  0  0  0  0  0
  186.2690  178.3560  143.4070 C   0  0  0  0  0  2  0  0  0  0  0  0
  191.5580  176.1820  144.4670 C   0  0  0  0  0  3  0  0  0  0  0  0
  192.8420  176.3090  144.8010 C   0  0  0  0  0  3  0  0  0  0  0  0
  193.9100  175.6090  144.0220 C   0  0  1  0  0  3  0  0  0  0  0  0
  193.8460  176.0410  142.5710 C   0  0  0  0  0  1  0  0  0  0  0  0
  195.2640  175.9030  144.5830 C   0  0  0  0  0  0  0  0  0  0  0  0
  195.6900  175.2960  145.7600 O   0  0  0  0  0  1  0  0  0  0  0  0
  196.0250  176.7070  143.9850 O   0  0  0  0  0  0  0  0  0  0  0  0
  1  2  1  0  0  0  0
  1  8  1  1  0  0  0
  2  7  1  1  0  0  0
  2 11  1  0  0  0  0
  3  4  1  0  0  0  0
  5  6  2  0  0  0  0
  7 10  1  0  0  0  0
  8  3  1  0  0  0  0
  9  5  1  0  0  0  0
 10 19  1  6  0  0  0
 10  9  1  0  0  0  0
 11  5  1  0  0  0  0
 11  4  2  0  0  0  0
 12 18  1  6  0  0  0
 12  1  1  0  0  0  0
 13 15  1  0  0  0  0
 13 16  1  0  0  0  0
 14 17  1  0  0  0  0
 14 12  1  0  0  0  0
 15 14  2  0  0  0  0
 16 18  1  0  0  0  0
 19 20  2  0  0  0  0
 21 22  1  6  0  0  0
 21 23  1  0  0  0  0
 21 20  1  0  0  0  0
 23 24  1  0  0  0  0
 25 23  2  0  0  0  0
M  END
>  <MODEL>
4

>  <REMARK>
 VINA RESULT:      -6.6      3.344      7.391
  Name = 
  4 active torsions:
  status: ('A' for Active; 'I' for Inactive)
    1  A    between atoms: C_1  and  C_5
    2  A    between atoms: C_2  and  C_21
    3  A    between atoms: C_6  and  C_23
    4  A    between atoms: C_15  and  C_21
                            x       y       z     vdW  Elec       q    Type
                         _______ _______ _______ _____ _____    ______ ____

>  <TORSDO>
F 4

$$$$
=
 OpenBabel11052417273D

 25 27  0  0  1  0  0  0  0  0999 V2000
  187.7130  177.9320  143.7800 C   0  0  1  0  0  3  0  0  0  0  0  0
  188.5700  176.6480  143.7610 C   0  0  2  0  0  3  0  0  0  0  0  0
  186.2440  176.7090  142.1110 C   0  0  0  0  0  2  0  0  0  0  0  0
  187.4390  175.9180  141.6880 C   0  0  0  0  0  3  0  0  0  0  0  0
  189.6700  175.0300  142.0490 C   0  0  0  0  0  0  0  0  0  0  0  0
  189.4600  173.9690  141.4010 O   0  0  0  0  0  0  0  0  0  0  0  0
  189.9730  176.9620  144.2850 C   0  0  0  0  0  2  0  0  0  0  0  0
  186.7000  178.0700  142.6250 C   0  0  0  0  0  2  0  0  0  0  0  0
  191.3460  175.4430  142.5260 S   0  0  0  0  0  0  0  0  0  0  0  0
  190.8690  175.7310  144.2510 C   0  0  1  0  0  3  0  0  0  0  0  0
  188.5510  175.9090  142.4300 C   0  0  0  0  0  0  0  0  0  0  0  0
  187.0880  178.1760  145.1580 C   0  0  2  0  0  3  0  0  0  0  0  0
  184.4770  177.8590  146.4900 C   0  0  0  0  0  2  0  0  0  0  0  0
  186.6930  176.8990  145.8830 C   0  0  0  0  0  0  0  0  0  0  0  0
  185.5230  176.7840  146.5210 C   0  0  0  0  0  3  0  0  0  0  0  0
  185.1140  179.2300  146.3110 C   0  0  0  0  0  2  0  0  0  0  0  0
  187.5970  175.8470  145.9640 O   0  0  0  0  0  1  0  0  0  0  0  0
  185.9570  179.2070  145.0450 C   0  0  0  0  0  2  0  0  0  0  0  0
  192.0980  175.9720  145.0630 C   0  0  0  0  0  3  0  0  0  0  0  0
  193.0850  176.7340  144.5940 C   0  0  0  0  0  3  0  0  0  0  0  0
  194.3180  176.9780  145.4050 C   0  0  1  0  0  3  0  0  0  0  0  0
  193.9960  176.8190  146.8780 C   0  0  0  0  0  1  0  0  0  0  0  0
  195.4110  176.0360  145.0170 C   0  0  0  0  0  0  0  0  0  0  0  0
  196.1670  176.2620  143.8720 O   0  0  0  0  0  0  0  0  0  0  0  0
  195.6510  175.0290  145.7330 O   0  0  0  0  0  1  0  0  0  0  0  0
  1  8  1  6  0  0  0
  1 12  1  0  0  0  0
  2  1  1  0  0  0  0
  2  7  1  6  0  0  0
  3  8  1  0  0  0  0
  4  3  1  0  0  0  0
  4 11  2  0  0  0  0
  5 11  1  0  0  0  0
  5  9  1  0  0  0  0
  6  5  2  0  0  0  0
  9 10  1  0  0  0  0
 10  7  1  0  0  0  0
 10 19  1  1  0  0  0
 11  2  1  0  0  0  0
 12 18  1  6  0  0  0
 12 14  1  0  0  0  0
 13 15  1  0  0  0  0
 14 17  1  0  0  0  0
 14 15  2  0  0  0  0
 16 13  1  0  0  0  0
 18 16  1  0  0  0  0
 20 19  2  0  0  0  0
 20 21  1  0  0  0  0
 21 22  1  1  0  0  0
 23 21  1  0  0  0  0
 23 25  1  0  0  0  0
 24 23  2  0  0  0  0
M  END
>  <MODEL>
5

>  <REMARK>
 VINA RESULT:      -6.5      2.837      6.620
  Name = 
  4 active torsions:
  status: ('A' for Active; 'I' for Inactive)
    1  A    between atoms: C_1  and  C_5
    2  A    between atoms: C_2  and  C_21
    3  A    between atoms: C_6  and  C_23
    4  A    between atoms: C_15  and  C_21
                            x       y       z     vdW  Elec       q    Type
                         _______ _______ _______ _____ _____    ______ ____

>  <TORSDO>
F 4

$$$$
=
 OpenBabel11052417273D

 25 27  0  0  1  0  0  0  0  0999 V2000
  191.7720  174.6220  143.8660 C   0  0  1  0  0  3  0  0  0  0  0  0
  190.8720  174.9100  145.0870 C   0  0  2  0  0  3  0  0  0  0  0  0
  193.5330  174.0140  145.5880 C   0  0  0  0  0  2  0  0  0  0  0  0
  192.8610  174.9370  146.5530 C   0  0  0  0  0  3  0  0  0  0  0  0
  190.9480  176.2100  147.3360 C   0  0  0  0  0  0  0  0  0  0  0  0
  191.2340  176.0770  148.5570 O   0  0  0  0  0  0  0  0  0  0  0  0
  189.7120  175.8140  144.6650 C   0  0  0  0  0  2  0  0  0  0  0  0
  193.2800  174.5030  144.1670 C   0  0  0  0  0  2  0  0  0  0  0  0
  189.6810  177.3830  146.8600 S   0  0  0  0  0  0  0  0  0  0  0  0
  188.8140  176.1570  145.8460 C   0  0  1  0  0  3  0  0  0  0  0  0
  191.6290  175.3960  146.3140 C   0  0  0  0  0  0  0  0  0  0  0  0
  191.2350  173.4550  143.0280 C   0  0  2  0  0  3  0  0  0  0  0  0
  188.7290  172.6630  141.6910 C   0  0  0  0  0  2  0  0  0  0  0  0
  190.9260  173.8310  141.5870 C   0  0  0  0  0  0  0  0  0  0  0  0
  189.8060  173.4280  140.9780 C   0  0  0  0  0  3  0  0  0  0  0  0
  189.3130  171.8410  142.8310 C   0  0  0  0  0  2  0  0  0  0  0  0
  191.8630  174.5400  140.8470 O   0  0  0  0  0  1  0  0  0  0  0  0
  190.0700  172.7770  143.7620 C   0  0  0  0  0  2  0  0  0  0  0  0
  187.5320  176.7460  145.3590 C   0  0  0  0  0  3  0  0  0  0  0  0
  187.2180  178.0120  145.6300 C   0  0  0  0  0  3  0  0  0  0  0  0
  185.9350  178.6050  145.1420 C   0  0  1  0  0  3  0  0  0  0  0  0
  185.4090  177.7920  143.9760 C   0  0  0  0  0  1  0  0  0  0  0  0
  184.9150  178.6500  146.2340 C   0  0  0  0  0  0  0  0  0  0  0  0
  185.3070  178.6610  147.5690 O   0  0  0  0  0  1  0  0  0  0  0  0
  183.6910  178.6780  145.9430 O   0  0  0  0  0  0  0  0  0  0  0  0
  1  8  1  1  0  0  0
  1  2  1  0  0  0  0
  2  7  1  6  0  0  0
  2 11  1  0  0  0  0
  3  4  1  0  0  0  0
  5  6  2  0  0  0  0
  7 10  1  0  0  0  0
  8  3  1  0  0  0  0
  9  5  1  0  0  0  0
 10 19  1  6  0  0  0
 10  9  1  0  0  0  0
 11  4  2  0  0  0  0
 11  5  1  0  0  0  0
 12 18  1  1  0  0  0
 12  1  1  0  0  0  0
 13 16  1  0  0  0  0
 14 12  1  0  0  0  0
 15 14  2  0  0  0  0
 15 13  1  0  0  0  0
 16 18  1  0  0  0  0
 17 14  1  0  0  0  0
 19 20  2  0  0  0  0
 21 22  1  6  0  0  0
 21 20  1  0  0  0  0
 21 23  1  0  0  0  0
 23 24  1  0  0  0  0
 25 23  2  0  0  0  0
M  END
>  <MODEL>
6

>  <REMARK>
 VINA RESULT:      -6.3      1.867      4.577
  Name = 
  4 active torsions:
  status: ('A' for Active; 'I' for Inactive)
    1  A    between atoms: C_1  and  C_5
    2  A    between atoms: C_2  and  C_21
    3  A    between atoms: C_6  and  C_23
    4  A    between atoms: C_15  and  C_21
                            x       y       z     vdW  Elec       q    Type
                         _______ _______ _______ _____ _____    ______ ____

>  <TORSDO>
F 4

$$$$
=
 OpenBabel11052417273D

 25 27  0  0  1  0  0  0  0  0999 V2000
  188.6720  177.1700  142.9030 C   0  0  1  0  0  3  0  0  0  0  0  0
  188.8440  175.6380  142.8270 C   0  0  2  0  0  3  0  0  0  0  0  0
  187.0590  176.8620  140.9690 C   0  0  0  0  0  2  0  0  0  0  0  0
  187.8100  175.6290  140.5820 C   0  0  0  0  0  3  0  0  0  0  0  0
  189.3160  173.7860  141.0630 C   0  0  0  0  0  0  0  0  0  0  0  0
  188.7390  172.9810  140.2830 O   0  0  0  0  0  0  0  0  0  0  0  0
  190.1460  175.2340  143.5210 C   0  0  0  0  0  2  0  0  0  0  0  0
  188.0060  177.8240  141.6750 C   0  0  0  0  0  2  0  0  0  0  0  0
  190.9100  173.3450  141.7500 S   0  0  0  0  0  0  0  0  0  0  0  0
  190.3780  173.7310  143.4390 C   0  0  1  0  0  3  0  0  0  0  0  0
  188.6780  175.0640  141.4270 C   0  0  0  0  0  0  0  0  0  0  0  0
  188.0400  177.6040  144.2300 C   0  0  2  0  0  3  0  0  0  0  0  0
  187.3830  176.4310  146.8540 C   0  0  0  0  0  2  0  0  0  0  0  0
  189.0160  177.6160  145.3960 C   0  0  0  0  0  0  0  0  0  0  0  0
  188.6900  177.1210  146.5940 C   0  0  0  0  0  3  0  0  0  0  0  0
  186.2960  176.9630  145.9300 C   0  0  0  0  0  2  0  0  0  0  0  0
  190.2530  178.2310  145.2490 O   0  0  0  0  0  1  0  0  0  0  0  0
  186.7630  176.7930  144.4920 C   0  0  0  0  0  2  0  0  0  0  0  0
  191.4540  173.3280  144.3920 C   0  0  0  0  0  3  0  0  0  0  0  0
  192.3630  174.2110  144.8050 C   0  0  0  0  0  3  0  0  0  0  0  0
  193.4420  173.8110  145.7610 C   0  0  1  0  0  3  0  0  0  0  0  0
  193.9710  172.4410  145.3850 C   0  0  0  0  0  1  0  0  0  0  0  0
  194.5570  174.8060  145.7600 C   0  0  0  0  0  0  0  0  0  0  0  0
  195.6750  174.6150  144.9550 O   0  0  0  0  0  0  0  0  0  0  0  0
  194.4840  175.8260  146.4940 O   0  0  0  0  0  1  0  0  0  0  0  0
  1  8  1  6  0  0  0
  1 12  1  0  0  0  0
  2  1  1  0  0  0  0
  2  7  1  6  0  0  0
  3  8  1  0  0  0  0
  4  3  1  0  0  0  0
  4 11  2  0  0  0  0
  5 11  1  0  0  0  0
  5  9  1  0  0  0  0
  6  5  2  0  0  0  0
  9 10  1  0  0  0  0
 10  7  1  0  0  0  0
 10 19  1  1  0  0  0
 11  2  1  0  0  0  0
 12 18  1  1  0  0  0
 12 14  1  0  0  0  0
 14 15  2  0  0  0  0
 15 13  1  0  0  0  0
 16 13  1  0  0  0  0
 17 14  1  0  0  0  0
 18 16  1  0  0  0  0
 19 20  2  0  0  0  0
 20 21  1  0  0  0  0
 21 22  1  6  0  0  0
 23 21  1  0  0  0  0
 23 25  1  0  0  0  0
 24 23  2  0  0  0  0
M  END
>  <MODEL>
7

>  <REMARK>
 VINA RESULT:      -6.3      2.800      6.301
  Name = 
  4 active torsions:
  status: ('A' for Active; 'I' for Inactive)
    1  A    between atoms: C_1  and  C_5
    2  A    between atoms: C_2  and  C_21
    3  A    between atoms: C_6  and  C_23
    4  A    between atoms: C_15  and  C_21
                            x       y       z     vdW  Elec       q    Type
                         _______ _______ _______ _____ _____    ______ ____

>  <TORSDO>
F 4

$$$$
=
 OpenBabel11052417273D

 25 27  0  0  1  0  0  0  0  0999 V2000
  187.8430  176.1330  145.4730 C   0  0  1  0  0  3  0  0  0  0  0  0
  188.8040  176.3250  144.2800 C   0  0  2  0  0  3  0  0  0  0  0  0
  189.5150  177.5410  146.7610 C   0  0  0  0  0  2  0  0  0  0  0  0
  190.5830  177.0670  145.8280 C   0  0  0  0  0  3  0  0  0  0  0  0
  191.3350  176.1120  143.7260 C   0  0  0  0  0  0  0  0  0  0  0  0
  192.4090  176.7700  143.6970 O   0  0  0  0  0  0  0  0  0  0  0  0
  188.5380  175.2460  143.2290 C   0  0  0  0  0  2  0  0  0  0  0  0
  188.4280  176.4780  146.8580 C   0  0  0  0  0  2  0  0  0  0  0  0
  191.1100  174.7580  142.5740 S   0  0  0  0  0  0  0  0  0  0  0  0
  189.4890  175.3720  142.0460 C   0  0  1  0  0  3  0  0  0  0  0  0
  190.2660  176.4620  144.6780 C   0  0  0  0  0  0  0  0  0  0  0  0
  186.4820  176.7910  145.2160 C   0  0  2  0  0  3  0  0  0  0  0  0
  184.9460  179.1300  146.1450 C   0  0  0  0  0  2  0  0  0  0  0  0
  186.5800  178.1510  144.5420 C   0  0  0  0  0  0  0  0  0  0  0  0
  185.8450  179.1920  144.9450 C   0  0  0  0  0  3  0  0  0  0  0  0
  184.4450  177.7110  146.3740 C   0  0  0  0  0  2  0  0  0  0  0  0
  187.3890  178.3050  143.4230 O   0  0  0  0  0  1  0  0  0  0  0  0
  185.6490  176.7900  146.5050 C   0  0  0  0  0  2  0  0  0  0  0  0
  189.0000  174.5410  140.9080 C   0  0  0  0  0  3  0  0  0  0  0  0
  189.3030  173.2450  140.8320 C   0  0  0  0  0  3  0  0  0  0  0  0
  188.8140  172.4090  139.6920 C   0  0  1  0  0  3  0  0  0  0  0  0
  188.1920  173.3020  138.6370 C   0  0  0  0  0  1  0  0  0  0  0  0
  189.9280  171.6120  139.0940 C   0  0  0  0  0  0  0  0  0  0  0  0
  189.6910  170.3430  138.5750 O   0  0  0  0  0  0  0  0  0  0  0  0
  191.0900  172.0940  139.0580 O   0  0  0  0  0  1  0  0  0  0  0  0
  1  8  1  1  0  0  0
  2  7  1  6  0  0  0
  2 11  1  0  0  0  0
  2  1  1  0  0  0  0
  3  8  1  0  0  0  0
  4  3  1  0  0  0  0
  5 11  1  0  0  0  0
  6  5  2  0  0  0  0
  9  5  1  0  0  0  0
 10 19  1  6  0  0  0
 10  9  1  0  0  0  0
 10  7  1  0  0  0  0
 11  4  2  0  0  0  0
 12  1  1  0  0  0  0
 12 18  1  1  0  0  0
 13 16  1  0  0  0  0
 14 15  2  0  0  0  0
 14 12  1  0  0  0  0
 15 13  1  0  0  0  0
 16 18  1  0  0  0  0
 17 14  1  0  0  0  0
 20 19  2  0  0  0  0
 21 22  1  6  0  0  0
 21 20  1  0  0  0  0
 23 21  1  0  0  0  0
 24 23  2  0  0  0  0
 25 23  1  0  0  0  0
M  END
>  <MODEL>
8

>  <REMARK>
 VINA RESULT:      -6.2      2.688      6.871
  Name = 
  4 active torsions:
  status: ('A' for Active; 'I' for Inactive)
    1  A    between atoms: C_1  and  C_5
    2  A    between atoms: C_2  and  C_21
    3  A    between atoms: C_6  and  C_23
    4  A    between atoms: C_15  and  C_21
                            x       y       z     vdW  Elec       q    Type
                         _______ _______ _______ _____ _____    ______ ____

>  <TORSDO>
F 4

$$$$
=
 OpenBabel11052417273D

 25 27  0  0  1  0  0  0  0  0999 V2000
  191.2950  174.6150  144.2070 C   0  0  1  0  0  3  0  0  0  0  0  0
  190.3110  175.2900  143.2280 C   0  0  2  0  0  3  0  0  0  0  0  0
  192.1880  173.4350  142.1460 C   0  0  0  0  0  2  0  0  0  0  0  0
  190.8420  173.5900  141.5140 C   0  0  0  0  0  3  0  0  0  0  0  0
  188.6640  174.6470  141.3220 C   0  0  0  0  0  0  0  0  0  0  0  0
  188.5940  174.5000  140.0720 O   0  0  0  0  0  0  0  0  0  0  0  0
  189.1130  175.8390  144.0050 C   0  0  0  0  0  2  0  0  0  0  0  0
  192.0260  173.3710  143.6600 C   0  0  0  0  0  2  0  0  0  0  0  0
  187.2030  175.1550  142.2250 S   0  0  0  0  0  0  0  0  0  0  0  0
  188.0940  176.4850  143.0750 C   0  0  1  0  0  3  0  0  0  0  0  0
  189.9370  174.4280  142.0310 C   0  0  0  0  0  0  0  0  0  0  0  0
  192.2440  175.6330  144.8500 C   0  0  2  0  0  3  0  0  0  0  0  0
  195.0910  175.8460  145.5860 C   0  0  0  0  0  2  0  0  0  0  0  0
  193.2940  176.1760  143.8940 C   0  0  0  0  0  0  0  0  0  0  0  0
  194.5750  176.3090  144.2560 C   0  0  0  0  0  3  0  0  0  0  0  0
  193.9940  175.8980  146.6410 C   0  0  0  0  0  2  0  0  0  0  0  0
  192.9110  176.6280  142.6380 O   0  0  0  0  0  1  0  0  0  0  0  0
  192.8190  175.0630  146.1540 C   0  0  0  0  0  2  0  0  0  0  0  0
  187.1210  177.2930  143.8670 C   0  0  0  0  0  3  0  0  0  0  0  0
  187.4260  177.7170  145.0930 C   0  0  0  0  0  3  0  0  0  0  0  0
  186.4530  178.5280  145.8880 C   0  0  1  0  0  3  0  0  0  0  0  0
  185.6280  179.3910  144.9550 C   0  0  0  0  0  1  0  0  0  0  0  0
  185.5550  177.6490  146.6970 C   0  0  0  0  0  0  0  0  0  0  0  0
  186.0760  176.8360  147.6990 O   0  0  0  0  0  1  0  0  0  0  0  0
  184.3170  177.6440  146.4710 O   0  0  0  0  0  0  0  0  0  0  0  0
  1  8  1  6  0  0  0
  1 12  1  0  0  0  0
  2  7  1  1  0  0  0
  2  1  1  0  0  0  0
  3  8  1  0  0  0  0
  4 11  2  0  0  0  0
  4  3  1  0  0  0  0
  5 11  1  0  0  0  0
  5  9  1  0  0  0  0
  6  5  2  0  0  0  0
  9 10  1  0  0  0  0
 10 19  1  1  0  0  0
 10  7  1  0  0  0  0
 11  2  1  0  0  0  0
 12 18  1  1  0  0  0
 13 16  1  0  0  0  0
 14 15  2  0  0  0  0
 14 12  1  0  0  0  0
 15 13  1  0  0  0  0
 17 14  1  0  0  0  0
 18 16  1  0  0  0  0
 19 20  2  0  0  0  0
 20 21  1  0  0  0  0
 21 22  1  6  0  0  0
 21 23  1  0  0  0  0
 23 24  1  0  0  0  0
 25 23  2  0  0  0  0
M  END
>  <MODEL>
9

>  <REMARK>
 VINA RESULT:      -6.1      1.793      2.465
  Name = 
  4 active torsions:
  status: ('A' for Active; 'I' for Inactive)
    1  A    between atoms: C_1  and  C_5
    2  A    between atoms: C_2  and  C_21
    3  A    between atoms: C_6  and  C_23
    4  A    between atoms: C_15  and  C_21
                            x       y       z     vdW  Elec       q    Type
                         _______ _______ _______ _____ _____    ______ ____

>  <TORSDO>
F 4

$$$$
