=
 OpenBabel11052418513D

 34 38  0  0  1  0  0  0  0  0999 V2000
  191.3930  171.6820  141.3770 C   0  0  0  0  0  0  0  0  0  0  0  0
  189.8790  171.8870  139.4970 C   0  0  0  0  0  3  0  0  0  0  0  0
  189.8910  173.6050  141.2690 C   0  0  0  0  0  0  0  0  0  0  0  0
  188.2500  175.5170  141.3730 N   0  0  0  0  0  0  0  0  0  0  0  0
  191.3850  169.9960  139.6400 C   0  0  0  0  0  3  0  0  0  0  0  0
  189.8380  170.1680  137.6880 C   0  0  0  0  0  1  0  0  0  0  0  0
  188.5310  174.2780  139.4170 O   0  0  0  0  0  0  0  0  0  0  0  0
  190.3780  172.4020  140.7040 C   0  0  0  0  0  0  0  0  0  0  0  0
  191.8910  170.4900  140.8430 C   0  0  0  0  0  3  0  0  0  0  0  0
  190.4190  174.0320  142.5090 C   0  0  0  0  0  0  0  0  0  0  0  0
  191.9010  172.1680  142.5780 C   0  0  0  0  0  3  0  0  0  0  0  0
  190.3780  170.6930  138.9670 C   0  0  0  0  0  0  0  0  0  0  0  0
  188.4920  175.6160  142.8080 C   0  0  0  0  0  2  0  0  0  0  0  0
  189.9620  175.3420  143.1210 C   0  0  1  0  0  3  0  0  0  0  0  0
  188.8520  174.4520  140.6220 C   0  0  0  0  0  0  0  0  0  0  0  0
  191.4150  173.3190  143.1060 N   0  0  0  0  0  0  0  0  0  0  0  0
  189.6330  174.7910  146.8780 C   0  0  0  0  0  0  0  0  0  0  0  0
  190.6940  175.5680  147.3540 C   0  0  0  0  0  3  0  0  0  0  0  0
  190.2020  175.4150  144.6010 C   0  0  0  0  0  0  0  0  0  0  0  0
  191.5080  176.2660  146.4580 C   0  0  0  0  0  3  0  0  0  0  0  0
  189.3860  174.7140  145.5040 C   0  0  0  0  0  3  0  0  0  0  0  0
  191.2620  176.1890  145.0840 C   0  0  0  0  0  3  0  0  0  0  0  0
  188.8450  174.1150  147.7460 F   0  0  0  0  0  0  0  0  0  0  0  0
  187.4230  176.5200  140.7110 C   0  0  0  0  0  2  0  0  0  0  0  0
  187.3230  177.7820  141.5600 C   0  0  0  0  0  2  0  0  0  0  0  0
  185.9320  177.9500  142.1510 C   0  0  0  0  0  2  0  0  0  0  0  0
  185.9580  178.9440  143.3020 C   0  0  0  0  0  2  0  0  0  0  0  0
  184.0930  179.0070  145.7260 N   0  0  0  0  0  1  0  0  0  0  0  0
  186.0480  178.2510  144.5790 N   0  0  0  0  0  0  0  0  0  0  0  0
  184.8100  177.8340  145.2520 C   0  0  1  0  0  3  0  0  0  0  0  0
  186.2970  176.8100  146.9590 C   0  0  0  0  0  3  0  0  0  0  0  0
  187.4440  177.5370  146.3960 C   0  0  0  0  0  3  0  0  0  0  0  0
  187.3120  178.2140  145.2570 C   0  0  0  0  0  3  0  0  0  0  0  0
  185.0830  176.9160  146.4150 C   0  0  0  0  0  3  0  0  0  0  0  0
  1 11  1  0  0  0  0
  2  8  1  0  0  0  0
  3 10  2  0  0  0  0
  4 13  1  0  0  0  0
  5  9  2  0  0  0  0
  6 12  1  0  0  0  0
  7 15  2  0  0  0  0
  8  3  1  0  0  0  0
  8  1  2  0  0  0  0
  9  1  1  0  0  0  0
 10 16  1  0  0  0  0
 10 14  1  0  0  0  0
 11 16  2  0  0  0  0
 12  2  2  0  0  0  0
 12  5  1  0  0  0  0
 13 14  1  0  0  0  0
 14 19  1  1  0  0  0
 15  3  1  0  0  0  0
 15  4  1  0  0  0  0
 17 18  1  0  0  0  0
 17 23  1  0  0  0  0
 19 22  2  0  0  0  0
 19 21  1  0  0  0  0
 20 18  2  0  0  0  0
 21 17  2  0  0  0  0
 22 20  1  0  0  0  0
 24  4  1  0  0  0  0
 24 25  1  0  0  0  0
 25 26  1  0  0  0  0
 26 27  1  0  0  0  0
 27 29  1  0  0  0  0
 29 30  1  0  0  0  0
 29 33  1  0  0  0  0
 30 28  1  1  0  0  0
 30 34  1  0  0  0  0
 32 31  1  0  0  0  0
 33 32  2  0  0  0  0
 34 31  2  0  0  0  0
M  END
>  <MODEL>
1

>  <REMARK>
 VINA RESULT:      -8.1      0.000      0.000
  Name = 
  6 active torsions:
  status: ('A' for Active; 'I' for Inactive)
    1  A    between atoms: C_3  and  N_13
    2  A    between atoms: C_3  and  C_17
    3  A    between atoms: N_5  and  C_18
    4  A    between atoms: C_12  and  C_28
    5  A    between atoms: C_17  and  C_29
    6  A    between atoms: C_18  and  C_29
                            x       y       z     vdW  Elec       q    Type
                         _______ _______ _______ _____ _____    ______ ____

>  <TORSDO>
F 6

$$$$
=
 OpenBabel11052418513D

 34 38  0  0  1  0  0  0  0  0999 V2000
  186.4170  176.9240  142.9900 C   0  0  0  0  0  0  0  0  0  0  0  0
  186.0790  177.4730  145.3250 C   0  0  0  0  0  3  0  0  0  0  0  0
  188.0840  176.2150  144.6270 C   0  0  0  0  0  0  0  0  0  0  0  0
  189.7640  175.2540  146.2440 N   0  0  0  0  0  0  0  0  0  0  0  0
  184.4500  178.1590  143.6710 C   0  0  0  0  0  3  0  0  0  0  0  0
  184.0620  178.7410  146.0680 C   0  0  0  0  0  1  0  0  0  0  0  0
  188.2280  176.8700  146.9260 O   0  0  0  0  0  0  0  0  0  0  0  0
  186.8670  176.8730  144.3300 C   0  0  0  0  0  0  0  0  0  0  0  0
  185.2170  177.5660  142.6680 C   0  0  0  0  0  3  0  0  0  0  0  0
  188.7970  175.6020  143.5710 C   0  0  0  0  0  0  0  0  0  0  0  0
  187.1770  176.3330  141.9850 C   0  0  0  0  0  3  0  0  0  0  0  0
  184.8790  178.1120  144.9990 C   0  0  0  0  0  0  0  0  0  0  0  0
  190.1580  174.2870  145.2250 C   0  0  0  0  0  2  0  0  0  0  0  0
  190.1310  174.9330  143.8400 C   0  0  1  0  0  3  0  0  0  0  0  0
  188.6610  176.1380  145.9970 C   0  0  0  0  0  0  0  0  0  0  0  0
  188.3360  175.7000  142.2930 N   0  0  0  0  0  0  0  0  0  0  0  0
  190.4750  171.6660  141.9070 C   0  0  0  0  0  0  0  0  0  0  0  0
  191.2180  172.0890  140.8000 C   0  0  0  0  0  3  0  0  0  0  0  0
  190.5070  173.9280  142.7900 C   0  0  0  0  0  0  0  0  0  0  0  0
  191.6040  173.4280  140.6870 C   0  0  0  0  0  3  0  0  0  0  0  0
  190.1200  172.5820  142.9010 C   0  0  0  0  0  3  0  0  0  0  0  0
  191.2490  174.3450  141.6800 C   0  0  0  0  0  3  0  0  0  0  0  0
  190.1010  170.3700  142.0160 F   0  0  0  0  0  0  0  0  0  0  0  0
  190.5160  175.3300  147.4920 C   0  0  0  0  0  2  0  0  0  0  0  0
  192.0060  175.1360  147.2370 C   0  0  0  0  0  2  0  0  0  0  0  0
  192.6570  176.4110  146.7230 C   0  0  0  0  0  2  0  0  0  0  0  0
  194.1480  176.2010  146.5090 C   0  0  0  0  0  2  0  0  0  0  0  0
  196.3430  174.1910  145.8050 N   0  0  0  0  0  1  0  0  0  0  0  0
  194.3940  175.4670  145.2770 N   0  0  0  0  0  0  0  0  0  0  0  0
  194.9630  174.1150  145.3550 C   0  0  1  0  0  3  0  0  0  0  0  0
  194.7160  174.0650  142.8830 C   0  0  0  0  0  3  0  0  0  0  0  0
  194.4660  175.5130  142.8780 C   0  0  0  0  0  3  0  0  0  0  0  0
  194.3080  176.1680  144.0270 C   0  0  0  0  0  3  0  0  0  0  0  0
  194.9130  173.4060  144.0270 C   0  0  0  0  0  3  0  0  0  0  0  0
  1  8  1  0  0  0  0
  3 15  1  0  0  0  0
  4 24  1  0  0  0  0
  5 12  2  0  0  0  0
  8  3  1  0  0  0  0
  8  2  2  0  0  0  0
  9  1  2  0  0  0  0
  9  5  1  0  0  0  0
 10 14  1  0  0  0  0
 10  3  2  0  0  0  0
 11 16  2  0  0  0  0
 11  1  1  0  0  0  0
 12  2  1  0  0  0  0
 12  6  1  0  0  0  0
 13  4  1  0  0  0  0
 14 19  1  6  0  0  0
 14 13  1  0  0  0  0
 15  4  1  0  0  0  0
 15  7  2  0  0  0  0
 16 10  1  0  0  0  0
 17 23  1  0  0  0  0
 17 21  1  0  0  0  0
 18 17  2  0  0  0  0
 19 21  2  0  0  0  0
 20 18  1  0  0  0  0
 20 22  2  0  0  0  0
 22 19  1  0  0  0  0
 25 24  1  0  0  0  0
 26 25  1  0  0  0  0
 27 26  1  0  0  0  0
 29 30  1  0  0  0  0
 29 27  1  0  0  0  0
 30 28  1  6  0  0  0
 31 34  2  0  0  0  0
 32 31  1  0  0  0  0
 32 33  2  0  0  0  0
 33 29  1  0  0  0  0
 34 30  1  0  0  0  0
M  END
>  <MODEL>
2

>  <REMARK>
 VINA RESULT:      -8.0      2.916      7.869
  Name = 
  6 active torsions:
  status: ('A' for Active; 'I' for Inactive)
    1  A    between atoms: C_3  and  N_13
    2  A    between atoms: C_3  and  C_17
    3  A    between atoms: N_5  and  C_18
    4  A    between atoms: C_12  and  C_28
    5  A    between atoms: C_17  and  C_29
    6  A    between atoms: C_18  and  C_29
                            x       y       z     vdW  Elec       q    Type
                         _______ _______ _______ _____ _____    ______ ____

>  <TORSDO>
F 6

$$$$
=
 OpenBabel11052418513D

 34 38  0  0  1  0  0  0  0  0999 V2000
  186.6850  177.8930  146.1500 C   0  0  0  0  0  0  0  0  0  0  0  0
  185.4230  177.8690  144.0820 C   0  0  0  0  0  3  0  0  0  0  0  0
  187.5920  176.7000  144.2220 C   0  0  0  0  0  0  0  0  0  0  0  0
  188.7240  175.6130  142.2480 N   0  0  0  0  0  0  0  0  0  0  0  0
  184.5580  179.0400  146.0160 C   0  0  0  0  0  3  0  0  0  0  0  0
  183.2270  179.0420  143.9030 C   0  0  0  0  0  1  0  0  0  0  0  0
  186.4690  176.2010  142.1670 O   0  0  0  0  0  0  0  0  0  0  0  0
  186.5640  177.4790  144.8030 C   0  0  0  0  0  0  0  0  0  0  0  0
  185.6860  178.6660  146.7490 C   0  0  0  0  0  3  0  0  0  0  0  0
  188.7270  176.3850  145.0050 C   0  0  0  0  0  0  0  0  0  0  0  0
  187.8080  177.5250  146.8850 C   0  0  0  0  0  3  0  0  0  0  0  0
  184.4260  178.6430  144.6830 C   0  0  0  0  0  0  0  0  0  0  0  0
  190.0030  175.7440  142.9380 C   0  0  0  0  0  2  0  0  0  0  0  0
  189.8250  175.5080  144.4380 C   0  0  1  0  0  3  0  0  0  0  0  0
  187.5420  176.1850  142.8270 C   0  0  0  0  0  0  0  0  0  0  0  0
  188.7860  176.7850  146.3070 N   0  0  0  0  0  0  0  0  0  0  0  0
  193.3110  176.7290  145.3770 C   0  0  0  0  0  0  0  0  0  0  0  0
  193.5640  175.9600  146.5160 C   0  0  0  0  0  3  0  0  0  0  0  0
  191.1360  175.6730  145.1490 C   0  0  0  0  0  0  0  0  0  0  0  0
  192.6070  175.0500  146.9730 C   0  0  0  0  0  3  0  0  0  0  0  0
  192.1000  176.5870  144.6930 C   0  0  0  0  0  3  0  0  0  0  0  0
  191.3960  174.9070  146.2910 C   0  0  0  0  0  3  0  0  0  0  0  0
  194.2390  177.6110  144.9350 F   0  0  0  0  0  0  0  0  0  0  0  0
  188.6580  174.8760  140.9910 C   0  0  0  0  0  2  0  0  0  0  0  0
  188.7870  173.3770  141.2370 C   0  0  0  0  0  2  0  0  0  0  0  0
  190.0240  172.8040  140.5610 C   0  0  0  0  0  2  0  0  0  0  0  0
  190.5790  171.6390  141.3650 C   0  0  0  0  0  2  0  0  0  0  0  0
  190.3670  172.0450  144.3890 N   0  0  0  0  0  1  0  0  0  0  0  0
  191.5700  172.1010  142.3250 N   0  0  0  0  0  0  0  0  0  0  0  0
  191.5450  171.5570  143.6900 C   0  0  1  0  0  3  0  0  0  0  0  0
  193.5800  172.9290  144.0790 C   0  0  0  0  0  3  0  0  0  0  0  0
  193.3350  173.6500  142.8220 C   0  0  0  0  0  3  0  0  0  0  0  0
  192.3770  173.2400  141.9920 C   0  0  0  0  0  3  0  0  0  0  0  0
  192.7760  171.9380  144.4700 C   0  0  0  0  0  3  0  0  0  0  0  0
  1  9  1  0  0  0  0
  1 11  1  0  0  0  0
  2 12  2  0  0  0  0
  2  8  1  0  0  0  0
  3  8  1  0  0  0  0
  3 10  2  0  0  0  0
  4 15  1  0  0  0  0
  4 13  1  0  0  0  0
  5  9  2  0  0  0  0
  6 12  1  0  0  0  0
  7 15  2  0  0  0  0
  8  1  2  0  0  0  0
 10 16  1  0  0  0  0
 12  5  1  0  0  0  0
 13 14  1  0  0  0  0
 14 10  1  0  0  0  0
 14 19  1  1  0  0  0
 15  3  1  0  0  0  0
 16 11  2  0  0  0  0
 17 18  1  0  0  0  0
 18 20  2  0  0  0  0
 19 22  2  0  0  0  0
 21 19  1  0  0  0  0
 21 17  2  0  0  0  0
 22 20  1  0  0  0  0
 23 17  1  0  0  0  0
 24 25  1  0  0  0  0
 24  4  1  0  0  0  0
 26 25  1  0  0  0  0
 26 27  1  0  0  0  0
 27 29  1  0  0  0  0
 29 30  1  0  0  0  0
 30 28  1  1  0  0  0
 30 34  1  0  0  0  0
 31 34  2  0  0  0  0
 32 31  1  0  0  0  0
 33 29  1  0  0  0  0
 33 32  2  0  0  0  0
M  END
>  <MODEL>
3

>  <REMARK>
 VINA RESULT:      -8.0      2.320      7.206
  Name = 
  6 active torsions:
  status: ('A' for Active; 'I' for Inactive)
    1  A    between atoms: C_3  and  N_13
    2  A    between atoms: C_3  and  C_17
    3  A    between atoms: N_5  and  C_18
    4  A    between atoms: C_12  and  C_28
    5  A    between atoms: C_17  and  C_29
    6  A    between atoms: C_18  and  C_29
                            x       y       z     vdW  Elec       q    Type
                         _______ _______ _______ _____ _____    ______ ____

>  <TORSDO>
F 6

$$$$
=
 OpenBabel11052418513D

 34 38  0  0  1  0  0  0  0  0999 V2000
  188.5900  174.6510  141.0820 C   0  0  0  0  0  0  0  0  0  0  0  0
  190.5140  173.5770  142.0880 C   0  0  0  0  0  3  0  0  0  0  0  0
  188.9430  174.8640  143.4900 C   0  0  0  0  0  0  0  0  0  0  0  0
  189.3120  175.3260  145.9410 N   0  0  0  0  0  0  0  0  0  0  0  0
  190.1290  173.3880  139.7050 C   0  0  0  0  0  3  0  0  0  0  0  0
  192.1260  172.2690  140.7020 C   0  0  0  0  0  1  0  0  0  0  0  0
  190.5250  173.6710  144.8330 O   0  0  0  0  0  0  0  0  0  0  0  0
  189.3560  174.3570  142.2340 C   0  0  0  0  0  0  0  0  0  0  0  0
  188.9760  174.1660  139.8300 C   0  0  0  0  0  3  0  0  0  0  0  0
  187.7860  175.6760  143.5430 C   0  0  0  0  0  0  0  0  0  0  0  0
  187.4410  175.4270  141.1990 C   0  0  0  0  0  3  0  0  0  0  0  0
  190.8980  173.0950  140.8330 C   0  0  0  0  0  0  0  0  0  0  0  0
  188.4360  176.4880  145.8310 C   0  0  0  0  0  2  0  0  0  0  0  0
  187.2800  176.1940  144.8750 C   0  0  1  0  0  3  0  0  0  0  0  0
  189.6580  174.5820  144.7640 C   0  0  0  0  0  0  0  0  0  0  0  0
  187.0660  175.9100  142.4100 N   0  0  0  0  0  0  0  0  0  0  0  0
  184.4370  178.6810  145.3810 C   0  0  0  0  0  0  0  0  0  0  0  0
  184.7890  179.6780  144.4660 C   0  0  0  0  0  3  0  0  0  0  0  0
  186.3980  177.4010  144.7400 C   0  0  0  0  0  0  0  0  0  0  0  0
  185.9430  179.5390  143.6900 C   0  0  0  0  0  3  0  0  0  0  0  0
  185.2380  177.5440  145.5190 C   0  0  0  0  0  3  0  0  0  0  0  0
  186.7460  178.4030  143.8270 C   0  0  0  0  0  3  0  0  0  0  0  0
  183.3190  178.8160  146.1330 F   0  0  0  0  0  0  0  0  0  0  0  0
  189.8010  174.9160  147.2530 C   0  0  0  0  0  2  0  0  0  0  0  0
  190.9390  175.8200  147.7120 C   0  0  0  0  0  2  0  0  0  0  0  0
  192.2900  175.2990  147.2470 C   0  0  0  0  0  2  0  0  0  0  0  0
  193.1020  176.4160  146.6100 C   0  0  0  0  0  2  0  0  0  0  0  0
  195.3140  176.3460  144.4990 N   0  0  0  0  0  1  0  0  0  0  0  0
  193.0180  176.3520  145.1590 N   0  0  0  0  0  0  0  0  0  0  0  0
  194.0550  175.6230  144.4170 C   0  0  1  0  0  3  0  0  0  0  0  0
  192.7230  176.1550  142.3880 C   0  0  0  0  0  3  0  0  0  0  0  0
  191.9300  177.1200  143.1620 C   0  0  0  0  0  3  0  0  0  0  0  0
  192.0760  177.1980  144.4840 C   0  0  0  0  0  3  0  0  0  0  0  0
  193.6860  175.4350  142.9690 C   0  0  0  0  0  3  0  0  0  0  0  0
  1 11  2  0  0  0  0
  1  8  1  0  0  0  0
  2  8  1  0  0  0  0
  3 10  1  0  0  0  0
  3 15  1  0  0  0  0
  4 24  1  0  0  0  0
  5  9  2  0  0  0  0
  5 12  1  0  0  0  0
  6 12  1  0  0  0  0
  8  3  2  0  0  0  0
  9  1  1  0  0  0  0
 10 14  1  0  0  0  0
 11 16  1  0  0  0  0
 12  2  2  0  0  0  0
 13  4  1  0  0  0  0
 14 19  1  6  0  0  0
 14 13  1  0  0  0  0
 15  7  2  0  0  0  0
 15  4  1  0  0  0  0
 16 10  2  0  0  0  0
 17 21  1  0  0  0  0
 17 23  1  0  0  0  0
 18 17  2  0  0  0  0
 19 21  2  0  0  0  0
 20 22  2  0  0  0  0
 20 18  1  0  0  0  0
 22 19  1  0  0  0  0
 24 25  1  0  0  0  0
 26 25  1  0  0  0  0
 27 26  1  0  0  0  0
 29 27  1  0  0  0  0
 30 28  1  6  0  0  0
 30 29  1  0  0  0  0
 31 34  2  0  0  0  0
 31 32  1  0  0  0  0
 32 33  2  0  0  0  0
 33 29  1  0  0  0  0
 34 30  1  0  0  0  0
M  END
>  <MODEL>
4

>  <REMARK>
 VINA RESULT:      -8.0      2.543      6.137
  Name = 
  6 active torsions:
  status: ('A' for Active; 'I' for Inactive)
    1  A    between atoms: C_3  and  N_13
    2  A    between atoms: C_3  and  C_17
    3  A    between atoms: N_5  and  C_18
    4  A    between atoms: C_12  and  C_28
    5  A    between atoms: C_17  and  C_29
    6  A    between atoms: C_18  and  C_29
                            x       y       z     vdW  Elec       q    Type
                         _______ _______ _______ _____ _____    ______ ____

>  <TORSDO>
F 6

$$$$
=
 OpenBabel11052418513D

 34 38  0  0  1  0  0  0  0  0999 V2000
  186.3210  176.8800  142.9190 C   0  0  0  0  0  0  0  0  0  0  0  0
  186.0040  177.5940  145.2120 C   0  0  0  0  0  3  0  0  0  0  0  0
  187.9230  176.1610  144.6170 C   0  0  0  0  0  0  0  0  0  0  0  0
  189.5200  175.1890  146.3090 N   0  0  0  0  0  0  0  0  0  0  0  0
  184.4390  178.2860  143.4990 C   0  0  0  0  0  3  0  0  0  0  0  0
  184.0730  179.0410  145.8510 C   0  0  0  0  0  1  0  0  0  0  0  0
  188.0940  176.9460  146.8720 O   0  0  0  0  0  0  0  0  0  0  0  0
  186.7570  176.8810  144.2640 C   0  0  0  0  0  0  0  0  0  0  0  0
  185.1710  177.5800  142.5430 C   0  0  0  0  0  3  0  0  0  0  0  0
  188.6000  175.4360  143.6090 C   0  0  0  0  0  0  0  0  0  0  0  0
  187.0460  176.1760  141.9610 C   0  0  0  0  0  3  0  0  0  0  0  0
  184.8530  178.2920  144.8330 C   0  0  0  0  0  0  0  0  0  0  0  0
  189.8540  174.1360  145.3550 C   0  0  0  0  0  2  0  0  0  0  0  0
  189.8830  174.6950  143.9340 C   0  0  1  0  0  3  0  0  0  0  0  0
  188.4830  176.1300  145.9950 C   0  0  0  0  0  0  0  0  0  0  0  0
  188.1570  175.4860  142.3210 N   0  0  0  0  0  0  0  0  0  0  0  0
  191.1890  172.8390  140.8720 C   0  0  0  0  0  0  0  0  0  0  0  0
  190.7740  171.5340  141.1550 C   0  0  0  0  0  3  0  0  0  0  0  0
  190.1960  173.6040  142.9520 C   0  0  0  0  0  0  0  0  0  0  0  0
  190.0720  171.2630  142.3330 C   0  0  0  0  0  3  0  0  0  0  0  0
  190.9010  173.8730  141.7680 C   0  0  0  0  0  3  0  0  0  0  0  0
  189.7850  172.2960  143.2300 C   0  0  0  0  0  3  0  0  0  0  0  0
  191.8690  173.1010  139.7310 F   0  0  0  0  0  0  0  0  0  0  0  0
  190.2660  175.2910  147.5590 C   0  0  0  0  0  2  0  0  0  0  0  0
  191.4100  176.2900  147.4250 C   0  0  0  0  0  2  0  0  0  0  0  0
  192.6850  175.6190  146.9380 C   0  0  0  0  0  2  0  0  0  0  0  0
  193.2770  176.3860  145.7660 C   0  0  0  0  0  2  0  0  0  0  0  0
  192.7520  176.5870  142.7590 N   0  0  0  0  0  1  0  0  0  0  0  0
  193.6350  175.4800  144.6840 N   0  0  0  0  0  0  0  0  0  0  0  0
  193.9560  176.0410  143.3650 C   0  0  1  0  0  3  0  0  0  0  0  0
  194.4420  173.6990  142.6900 C   0  0  0  0  0  3  0  0  0  0  0  0
  193.8000  173.2110  143.9190 C   0  0  0  0  0  3  0  0  0  0  0  0
  193.4260  174.0730  144.8640 C   0  0  0  0  0  3  0  0  0  0  0  0
  194.5480  175.0070  142.4430 C   0  0  0  0  0  3  0  0  0  0  0  0
  1  8  1  0  0  0  0
  3 15  1  0  0  0  0
  4 24  1  0  0  0  0
  5 12  2  0  0  0  0
  8  3  1  0  0  0  0
  8  2  2  0  0  0  0
  9  1  2  0  0  0  0
  9  5  1  0  0  0  0
 10 14  1  0  0  0  0
 10  3  2  0  0  0  0
 11 16  2  0  0  0  0
 11  1  1  0  0  0  0
 12  2  1  0  0  0  0
 12  6  1  0  0  0  0
 13  4  1  0  0  0  0
 14 19  1  6  0  0  0
 14 13  1  0  0  0  0
 15  4  1  0  0  0  0
 15  7  2  0  0  0  0
 16 10  1  0  0  0  0
 17 18  2  0  0  0  0
 17 21  1  0  0  0  0
 18 20  1  0  0  0  0
 19 22  1  0  0  0  0
 20 22  2  0  0  0  0
 21 19  2  0  0  0  0
 23 17  1  0  0  0  0
 25 24  1  0  0  0  0
 26 25  1  0  0  0  0
 27 26  1  0  0  0  0
 29 33  1  0  0  0  0
 29 27  1  0  0  0  0
 30 28  1  6  0  0  0
 30 29  1  0  0  0  0
 31 32  1  0  0  0  0
 32 33  2  0  0  0  0
 34 31  2  0  0  0  0
 34 30  1  0  0  0  0
M  END
>  <MODEL>
5

>  <REMARK>
 VINA RESULT:      -7.9      2.885      7.683
  Name = 
  6 active torsions:
  status: ('A' for Active; 'I' for Inactive)
    1  A    between atoms: C_3  and  N_13
    2  A    between atoms: C_3  and  C_17
    3  A    between atoms: N_5  and  C_18
    4  A    between atoms: C_12  and  C_28
    5  A    between atoms: C_17  and  C_29
    6  A    between atoms: C_18  and  C_29
                            x       y       z     vdW  Elec       q    Type
                         _______ _______ _______ _____ _____    ______ ____

>  <TORSDO>
F 6

$$$$
=
 OpenBabel11052418513D

 34 38  0  0  1  0  0  0  0  0999 V2000
  186.4650  176.7950  144.0540 C   0  0  0  0  0  0  0  0  0  0  0  0
  186.9620  177.5330  146.3070 C   0  0  0  0  0  3  0  0  0  0  0  0
  188.6410  176.2570  145.0230 C   0  0  0  0  0  0  0  0  0  0  0  0
  190.8330  175.4670  145.9880 N   0  0  0  0  0  0  0  0  0  0  0  0
  184.8170  178.0470  145.3090 C   0  0  0  0  0  3  0  0  0  0  0  0
  185.2890  178.8230  147.6350 C   0  0  0  0  0  1  0  0  0  0  0  0
  189.5690  177.1070  147.0600 O   0  0  0  0  0  0  0  0  0  0  0  0
  187.3680  176.8660  145.1390 C   0  0  0  0  0  0  0  0  0  0  0  0
  185.2010  177.3850  144.1420 C   0  0  0  0  0  3  0  0  0  0  0  0
  188.9560  175.5700  143.8280 C   0  0  0  0  0  0  0  0  0  0  0  0
  186.8410  176.1350  142.8880 C   0  0  0  0  0  3  0  0  0  0  0  0
  185.6970  178.1200  146.3920 C   0  0  0  0  0  0  0  0  0  0  0  0
  190.8800  174.4240  144.9670 C   0  0  0  0  0  2  0  0  0  0  0  0
  190.3270  174.9510  143.6440 C   0  0  1  0  0  3  0  0  0  0  0  0
  189.6750  176.3070  146.0930 C   0  0  0  0  0  0  0  0  0  0  0  0
  188.0620  175.5510  142.7990 N   0  0  0  0  0  0  0  0  0  0  0  0
  190.7440  173.1130  140.3310 C   0  0  0  0  0  0  0  0  0  0  0  0
  190.3880  171.8130  140.7010 C   0  0  0  0  0  3  0  0  0  0  0  0
  190.3480  173.8680  142.6040 C   0  0  0  0  0  0  0  0  0  0  0  0
  190.0130  171.5390  142.0190 C   0  0  0  0  0  3  0  0  0  0  0  0
  190.7240  174.1400  141.2790 C   0  0  0  0  0  3  0  0  0  0  0  0
  189.9930  172.5640  142.9690 C   0  0  0  0  0  3  0  0  0  0  0  0
  191.1080  173.3780  139.0540 F   0  0  0  0  0  0  0  0  0  0  0  0
  191.9790  175.6620  146.8700 C   0  0  0  0  0  2  0  0  0  0  0  0
  193.0910  176.4160  146.1510 C   0  0  0  0  0  2  0  0  0  0  0  0
  194.4630  175.8680  146.5130 C   0  0  0  0  0  2  0  0  0  0  0  0
  195.2540  175.5360  145.2570 C   0  0  0  0  0  2  0  0  0  0  0  0
  195.9070  172.5800  145.6880 N   0  0  0  0  0  1  0  0  0  0  0  0
  194.7180  174.3490  144.6080 N   0  0  0  0  0  0  0  0  0  0  0  0
  194.5870  173.1110  145.3880 C   0  0  1  0  0  3  0  0  0  0  0  0
  193.5600  172.1450  143.3420 C   0  0  0  0  0  3  0  0  0  0  0  0
  194.0230  173.3030  142.5630 C   0  0  0  0  0  3  0  0  0  0  0  0
  194.5670  174.3490  143.1820 C   0  0  0  0  0  3  0  0  0  0  0  0
  193.7880  172.0650  144.6550 C   0  0  0  0  0  3  0  0  0  0  0  0
  1  9  2  0  0  0  0
  1  8  1  0  0  0  0
  2 12  1  0  0  0  0
  3  8  1  0  0  0  0
  3 15  1  0  0  0  0
  4 15  1  0  0  0  0
  4 24  1  0  0  0  0
  5 12  2  0  0  0  0
  8  2  2  0  0  0  0
  9  5  1  0  0  0  0
 10  3  2  0  0  0  0
 11  1  1  0  0  0  0
 12  6  1  0  0  0  0
 13  4  1  0  0  0  0
 14 19  1  6  0  0  0
 14 10  1  0  0  0  0
 14 13  1  0  0  0  0
 15  7  2  0  0  0  0
 16 11  2  0  0  0  0
 16 10  1  0  0  0  0
 17 18  2  0  0  0  0
 17 21  1  0  0  0  0
 18 20  1  0  0  0  0
 19 22  1  0  0  0  0
 20 22  2  0  0  0  0
 21 19  2  0  0  0  0
 23 17  1  0  0  0  0
 25 26  1  0  0  0  0
 25 24  1  0  0  0  0
 27 26  1  0  0  0  0
 29 27  1  0  0  0  0
 29 30  1  0  0  0  0
 30 28  1  6  0  0  0
 31 34  2  0  0  0  0
 32 33  2  0  0  0  0
 32 31  1  0  0  0  0
 33 29  1  0  0  0  0
 34 30  1  0  0  0  0
M  END
>  <MODEL>
6

>  <REMARK>
 VINA RESULT:      -7.9      3.037      8.240
  Name = 
  6 active torsions:
  status: ('A' for Active; 'I' for Inactive)
    1  A    between atoms: C_3  and  N_13
    2  A    between atoms: C_3  and  C_17
    3  A    between atoms: N_5  and  C_18
    4  A    between atoms: C_12  and  C_28
    5  A    between atoms: C_17  and  C_29
    6  A    between atoms: C_18  and  C_29
                            x       y       z     vdW  Elec       q    Type
                         _______ _______ _______ _____ _____    ______ ____

>  <TORSDO>
F 6

$$$$
=
 OpenBabel11052418513D

 34 38  0  0  1  0  0  0  0  0999 V2000
  186.4740  176.8460  144.1530 C   0  0  0  0  0  0  0  0  0  0  0  0
  186.9860  177.7290  146.3500 C   0  0  0  0  0  3  0  0  0  0  0  0
  188.6830  176.4350  145.1100 C   0  0  0  0  0  0  0  0  0  0  0  0
  190.9170  175.7710  146.0750 N   0  0  0  0  0  0  0  0  0  0  0  0
  184.8080  178.1160  145.3670 C   0  0  0  0  0  3  0  0  0  0  0  0
  185.2950  179.0390  147.6350 C   0  0  0  0  0  1  0  0  0  0  0  0
  189.6190  177.4300  147.0760 O   0  0  0  0  0  0  0  0  0  0  0  0
  187.3940  177.0080  145.2150 C   0  0  0  0  0  0  0  0  0  0  0  0
  185.1930  177.4000  144.2320 C   0  0  0  0  0  3  0  0  0  0  0  0
  188.9990  175.6900  143.9500 C   0  0  0  0  0  0  0  0  0  0  0  0
  186.8500  176.1320  143.0200 C   0  0  0  0  0  3  0  0  0  0  0  0
  185.7040  178.2790  146.4260 C   0  0  0  0  0  0  0  0  0  0  0  0
  190.9790  174.6730  145.1150 C   0  0  0  0  0  2  0  0  0  0  0  0
  190.3860  175.1040  143.7740 C   0  0  1  0  0  3  0  0  0  0  0  0
  189.7330  176.5790  146.1550 C   0  0  0  0  0  0  0  0  0  0  0  0
  188.0880  175.5830  142.9420 N   0  0  0  0  0  0  0  0  0  0  0  0
  190.8690  173.0800  140.5810 C   0  0  0  0  0  0  0  0  0  0  0  0
  190.4950  171.8050  141.0160 C   0  0  0  0  0  3  0  0  0  0  0  0
  190.4250  173.9640  142.7990 C   0  0  0  0  0  0  0  0  0  0  0  0
  190.0870  171.6080  142.3380 C   0  0  0  0  0  3  0  0  0  0  0  0
  190.8340  174.1590  141.4700 C   0  0  0  0  0  3  0  0  0  0  0  0
  190.0530  172.6850  143.2280 C   0  0  0  0  0  3  0  0  0  0  0  0
  191.2640  173.2710  139.3010 F   0  0  0  0  0  0  0  0  0  0  0  0
  192.0700  176.0530  146.9220 C   0  0  0  0  0  2  0  0  0  0  0  0
  193.2670  175.2070  146.5030 C   0  0  0  0  0  2  0  0  0  0  0  0
  194.4630  176.0720  146.1370 C   0  0  0  0  0  2  0  0  0  0  0  0
  195.4410  175.2910  145.2730 C   0  0  0  0  0  2  0  0  0  0  0  0
  194.2100  173.8800  142.8540 N   0  0  0  0  0  1  0  0  0  0  0  0
  195.3500  175.7110  143.8820 N   0  0  0  0  0  0  0  0  0  0  0  0
  194.1760  175.3140  143.0950 C   0  0  1  0  0  3  0  0  0  0  0  0
  195.1750  176.6620  141.2620 C   0  0  0  0  0  3  0  0  0  0  0  0
  196.4410  176.7330  142.0050 C   0  0  0  0  0  3  0  0  0  0  0  0
  196.5080  176.2820  143.2560 C   0  0  0  0  0  3  0  0  0  0  0  0
  194.1130  176.0360  141.7740 C   0  0  0  0  0  3  0  0  0  0  0  0
  1  9  2  0  0  0  0
  1  8  1  0  0  0  0
  2 12  1  0  0  0  0
  3  8  1  0  0  0  0
  3 15  1  0  0  0  0
  4 15  1  0  0  0  0
  4 24  1  0  0  0  0
  5 12  2  0  0  0  0
  8  2  2  0  0  0  0
  9  5  1  0  0  0  0
 10  3  2  0  0  0  0
 11  1  1  0  0  0  0
 12  6  1  0  0  0  0
 13  4  1  0  0  0  0
 14 19  1  6  0  0  0
 14 10  1  0  0  0  0
 14 13  1  0  0  0  0
 15  7  2  0  0  0  0
 16 11  2  0  0  0  0
 16 10  1  0  0  0  0
 17 18  2  0  0  0  0
 17 21  1  0  0  0  0
 18 20  1  0  0  0  0
 19 22  1  0  0  0  0
 20 22  2  0  0  0  0
 21 19  2  0  0  0  0
 23 17  1  0  0  0  0
 25 24  1  0  0  0  0
 26 25  1  0  0  0  0
 27 26  1  0  0  0  0
 29 27  1  0  0  0  0
 30 28  1  6  0  0  0
 30 29  1  0  0  0  0
 31 34  2  0  0  0  0
 31 32  1  0  0  0  0
 32 33  2  0  0  0  0
 33 29  1  0  0  0  0
 34 30  1  0  0  0  0
M  END
>  <MODEL>
7

>  <REMARK>
 VINA RESULT:      -7.7      3.396      8.290
  Name = 
  6 active torsions:
  status: ('A' for Active; 'I' for Inactive)
    1  A    between atoms: C_3  and  N_13
    2  A    between atoms: C_3  and  C_17
    3  A    between atoms: N_5  and  C_18
    4  A    between atoms: C_12  and  C_28
    5  A    between atoms: C_17  and  C_29
    6  A    between atoms: C_18  and  C_29
                            x       y       z     vdW  Elec       q    Type
                         _______ _______ _______ _____ _____    ______ ____

>  <TORSDO>
F 6

$$$$
=
 OpenBabel11052418513D

 34 38  0  0  1  0  0  0  0  0999 V2000
  187.3630  177.3280  146.7200 C   0  0  0  0  0  0  0  0  0  0  0  0
  185.7790  177.7330  144.9330 C   0  0  0  0  0  3  0  0  0  0  0  0
  187.8340  176.4380  144.4950 C   0  0  0  0  0  0  0  0  0  0  0  0
  188.5280  175.6480  142.2020 N   0  0  0  0  0  0  0  0  0  0  0  0
  185.3480  178.5970  147.1520 C   0  0  0  0  0  3  0  0  0  0  0  0
  183.6920  179.0400  145.3370 C   0  0  0  0  0  1  0  0  0  0  0  0
  186.3480  176.3660  142.6190 O   0  0  0  0  0  0  0  0  0  0  0  0
  186.9860  177.1610  145.3670 C   0  0  0  0  0  0  0  0  0  0  0  0
  186.5460  178.0390  147.6030 C   0  0  0  0  0  3  0  0  0  0  0  0
  189.0520  175.9290  145.0040 C   0  0  0  0  0  0  0  0  0  0  0  0
  188.5570  176.7760  147.1750 C   0  0  0  0  0  3  0  0  0  0  0  0
  184.9650  178.4460  145.8180 C   0  0  0  0  0  0  0  0  0  0  0  0
  189.9100  175.5860  142.6670 C   0  0  0  0  0  2  0  0  0  0  0  0
  189.9620  175.1030  144.1170 C   0  0  1  0  0  3  0  0  0  0  0  0
  187.5100  176.1760  143.0660 C   0  0  0  0  0  0  0  0  0  0  0  0
  189.3600  176.0930  146.3210 N   0  0  0  0  0  0  0  0  0  0  0  0
  193.5710  176.0940  144.8390 C   0  0  0  0  0  0  0  0  0  0  0  0
  194.0210  174.9690  145.5370 C   0  0  0  0  0  3  0  0  0  0  0  0
  191.3830  175.0690  144.6010 C   0  0  0  0  0  0  0  0  0  0  0  0
  193.1560  173.8960  145.7680 C   0  0  0  0  0  3  0  0  0  0  0  0
  192.2550  176.1460  144.3710 C   0  0  0  0  0  3  0  0  0  0  0  0
  191.8390  173.9470  145.3010 C   0  0  0  0  0  3  0  0  0  0  0  0
  194.4100  177.1330  144.6160 F   0  0  0  0  0  0  0  0  0  0  0  0
  188.1910  175.1440  140.8760 C   0  0  0  0  0  2  0  0  0  0  0  0
  188.5550  173.6700  140.7490 C   0  0  0  0  0  2  0  0  0  0  0  0
  189.4460  173.4140  139.5430 C   0  0  0  0  0  2  0  0  0  0  0  0
  190.3140  172.1870  139.7710 C   0  0  0  0  0  2  0  0  0  0  0  0
  190.6720  171.7290  142.7740 N   0  0  0  0  0  1  0  0  0  0  0  0
  191.4340  172.5030  140.6460 N   0  0  0  0  0  0  0  0  0  0  0  0
  191.7250  171.6130  141.7780 C   0  0  1  0  0  3  0  0  0  0  0  0
  193.6750  173.0930  142.2040 C   0  0  0  0  0  3  0  0  0  0  0  0
  193.1260  174.0860  141.2700 C   0  0  0  0  0  3  0  0  0  0  0  0
  192.0600  173.7880  140.5290 C   0  0  0  0  0  3  0  0  0  0  0  0
  193.0500  171.9330  142.4190 C   0  0  0  0  0  3  0  0  0  0  0  0
  1 11  1  0  0  0  0
  1  9  2  0  0  0  0
  2  8  2  0  0  0  0
  2 12  1  0  0  0  0
  3 10  2  0  0  0  0
  3  8  1  0  0  0  0
  4 13  1  0  0  0  0
  4 15  1  0  0  0  0
  5  9  1  0  0  0  0
  6 12  1  0  0  0  0
  7 15  2  0  0  0  0
  8  1  1  0  0  0  0
 10 16  1  0  0  0  0
 12  5  2  0  0  0  0
 13 14  1  0  0  0  0
 14 19  1  1  0  0  0
 14 10  1  0  0  0  0
 15  3  1  0  0  0  0
 16 11  2  0  0  0  0
 17 18  1  0  0  0  0
 18 20  2  0  0  0  0
 19 22  2  0  0  0  0
 21 19  1  0  0  0  0
 21 17  2  0  0  0  0
 22 20  1  0  0  0  0
 23 17  1  0  0  0  0
 24  4  1  0  0  0  0
 25 24  1  0  0  0  0
 26 27  1  0  0  0  0
 26 25  1  0  0  0  0
 27 29  1  0  0  0  0
 29 30  1  0  0  0  0
 30 34  1  0  0  0  0
 30 28  1  1  0  0  0
 31 34  2  0  0  0  0
 32 31  1  0  0  0  0
 33 29  1  0  0  0  0
 33 32  2  0  0  0  0
M  END
>  <MODEL>
8

>  <REMARK>
 VINA RESULT:      -7.7      2.436      7.336
  Name = 
  6 active torsions:
  status: ('A' for Active; 'I' for Inactive)
    1  A    between atoms: C_3  and  N_13
    2  A    between atoms: C_3  and  C_17
    3  A    between atoms: N_5  and  C_18
    4  A    between atoms: C_12  and  C_28
    5  A    between atoms: C_17  and  C_29
    6  A    between atoms: C_18  and  C_29
                            x       y       z     vdW  Elec       q    Type
                         _______ _______ _______ _____ _____    ______ ____

>  <TORSDO>
F 6

$$$$
=
 OpenBabel11052418513D

 34 38  0  0  1  0  0  0  0  0999 V2000
  188.6410  174.6460  141.3500 C   0  0  0  0  0  0  0  0  0  0  0  0
  190.9870  174.1440  141.6800 C   0  0  0  0  0  3  0  0  0  0  0  0
  189.6680  175.1470  143.5080 C   0  0  0  0  0  0  0  0  0  0  0  0
  190.6620  175.8960  145.7020 N   0  0  0  0  0  0  0  0  0  0  0  0
  189.9320  173.6620  139.5550 C   0  0  0  0  0  3  0  0  0  0  0  0
  192.3530  173.1310  139.8530 C   0  0  0  0  0  1  0  0  0  0  0  0
  191.8370  174.4800  144.2700 O   0  0  0  0  0  0  0  0  0  0  0  0
  189.7780  174.6420  142.1910 C   0  0  0  0  0  0  0  0  0  0  0  0
  188.7210  174.1560  140.0430 C   0  0  0  0  0  3  0  0  0  0  0  0
  188.4230  175.6680  143.9310 C   0  0  0  0  0  0  0  0  0  0  0  0
  187.4310  175.1400  141.8300 C   0  0  0  0  0  3  0  0  0  0  0  0
  191.0650  173.6560  140.3720 C   0  0  0  0  0  0  0  0  0  0  0  0
  189.5350  176.8080  145.8750 C   0  0  0  0  0  2  0  0  0  0  0  0
  188.2490  176.1690  145.3510 C   0  0  1  0  0  3  0  0  0  0  0  0
  190.7940  175.1530  144.4810 C   0  0  0  0  0  0  0  0  0  0  0  0
  187.3490  175.6270  143.0930 N   0  0  0  0  0  0  0  0  0  0  0  0
  185.9300  179.1570  144.8840 C   0  0  0  0  0  0  0  0  0  0  0  0
  184.9240  178.8600  145.8080 C   0  0  0  0  0  3  0  0  0  0  0  0
  187.0980  177.1200  145.5030 C   0  0  0  0  0  0  0  0  0  0  0  0
  185.0030  177.6960  146.5780 C   0  0  0  0  0  3  0  0  0  0  0  0
  187.0160  178.2900  144.7310 C   0  0  0  0  0  3  0  0  0  0  0  0
  186.0870  176.8280  146.4250 C   0  0  0  0  0  3  0  0  0  0  0  0
  185.8530  180.2850  144.1380 F   0  0  0  0  0  0  0  0  0  0  0  0
  191.6250  175.7290  146.7850 C   0  0  0  0  0  2  0  0  0  0  0  0
  192.7470  176.7540  146.6730 C   0  0  0  0  0  2  0  0  0  0  0  0
  194.1030  176.0850  146.5130 C   0  0  0  0  0  2  0  0  0  0  0  0
  194.8410  176.6540  145.3110 C   0  0  0  0  0  2  0  0  0  0  0  0
  197.0020  174.5410  144.8470 N   0  0  0  0  0  1  0  0  0  0  0  0
  194.9700  175.6530  144.2630 N   0  0  0  0  0  0  0  0  0  0  0  0
  195.5830  174.3580  144.5880 C   0  0  1  0  0  3  0  0  0  0  0  0
  195.0650  173.7290  142.2400 C   0  0  0  0  0  3  0  0  0  0  0  0
  194.7740  175.1360  141.9270 C   0  0  0  0  0  3  0  0  0  0  0  0
  194.7250  176.0410  142.9030 C   0  0  0  0  0  3  0  0  0  0  0  0
  195.4070  173.3570  143.4760 C   0  0  0  0  0  3  0  0  0  0  0  0
  1 11  2  0  0  0  0
  1  8  1  0  0  0  0
  2  8  1  0  0  0  0
  3 10  1  0  0  0  0
  3 15  1  0  0  0  0
  4 13  1  0  0  0  0
  4 24  1  0  0  0  0
  5  9  2  0  0  0  0
  5 12  1  0  0  0  0
  6 12  1  0  0  0  0
  7 15  2  0  0  0  0
  8  3  2  0  0  0  0
  9  1  1  0  0  0  0
 10 14  1  0  0  0  0
 11 16  1  0  0  0  0
 12  2  2  0  0  0  0
 14 19  1  6  0  0  0
 14 13  1  0  0  0  0
 15  4  1  0  0  0  0
 16 10  2  0  0  0  0
 17 18  1  0  0  0  0
 18 20  2  0  0  0  0
 19 22  2  0  0  0  0
 21 17  2  0  0  0  0
 21 19  1  0  0  0  0
 22 20  1  0  0  0  0
 23 17  1  0  0  0  0
 25 24  1  0  0  0  0
 26 25  1  0  0  0  0
 27 26  1  0  0  0  0
 29 30  1  0  0  0  0
 29 27  1  0  0  0  0
 30 28  1  6  0  0  0
 31 34  2  0  0  0  0
 32 31  1  0  0  0  0
 32 33  2  0  0  0  0
 33 29  1  0  0  0  0
 34 30  1  0  0  0  0
M  END
>  <MODEL>
9

>  <REMARK>
 VINA RESULT:      -7.7      2.990      6.847
  Name = 
  6 active torsions:
  status: ('A' for Active; 'I' for Inactive)
    1  A    between atoms: C_3  and  N_13
    2  A    between atoms: C_3  and  C_17
    3  A    between atoms: N_5  and  C_18
    4  A    between atoms: C_12  and  C_28
    5  A    between atoms: C_17  and  C_29
    6  A    between atoms: C_18  and  C_29
                            x       y       z     vdW  Elec       q    Type
                         _______ _______ _______ _____ _____    ______ ____

>  <TORSDO>
F 6

$$$$
