=
 OpenBabel11052418393D

 34 38  0  0  1  0  0  0  0  0999 V2000
  192.2640  173.1410  142.0260 C   0  0  0  0  0  0  0  0  0  0  0  0
  189.8960  172.2710  142.0310 C   0  0  0  0  0  0  0  0  0  0  0  0
  190.3130  174.6510  142.3810 C   0  0  0  0  0  0  0  0  0  0  0  0
  189.0700  177.1630  141.8220 O   0  0  0  0  0  0  0  0  0  0  0  0
  193.2350  174.5190  140.2250 C   0  0  0  0  0  1  0  0  0  0  0  0
  190.3330  170.9680  141.8270 O   0  0  0  0  0  1  0  0  0  0  0  0
  188.0760  173.7860  142.2670 N   0  0  0  0  0  0  0  0  0  0  0  0
  190.8010  173.3410  142.1550 C   0  0  0  0  0  0  0  0  0  0  0  0
  188.3070  176.2370  142.5370 C   0  0  2  0  0  3  0  0  0  0  0  0
  192.7820  171.9970  142.1180 O   0  0  0  0  0  0  0  0  0  0  0  0
  191.3050  175.7560  142.6250 C   0  0  0  0  0  0  0  0  0  0  0  0
  193.1390  174.3180  141.7260 C   0  0  1  0  0  3  0  0  0  0  0  0
  188.5310  172.5210  142.1010 C   0  0  0  0  0  3  0  0  0  0  0  0
  189.8010  177.8580  142.7920 C   0  0  0  0  0  2  0  0  0  0  0  0
  190.9650  177.0320  143.3580 C   0  0  1  0  0  3  0  0  0  0  0  0
  188.9080  174.8580  142.3830 C   0  0  0  0  0  0  0  0  0  0  0  0
  192.6050  175.5630  142.3700 C   0  0  0  0  0  3  0  0  0  0  0  0
  191.5460  175.7650  146.8990 C   0  0  0  0  0  0  0  0  0  0  0  0
  190.6260  176.5530  147.5930 C   0  0  0  0  0  3  0  0  0  0  0  0
  190.8630  176.8390  144.8400 C   0  0  0  0  0  0  0  0  0  0  0  0
  189.8550  177.4510  146.9210 N   0  0  0  0  0  0  0  0  0  0  0  0
  191.6640  175.9110  145.5170 C   0  0  0  0  0  3  0  0  0  0  0  0
  189.9550  177.6080  145.5720 C   0  0  0  0  0  3  0  0  0  0  0  0
  192.3160  174.8700  147.5610 F   0  0  0  0  0  0  0  0  0  0  0  0
  186.8610  176.3130  142.0640 C   0  0  0  0  0  2  0  0  0  0  0  0
  185.9500  176.6540  143.2310 C   0  0  0  0  0  2  0  0  0  0  0  0
  186.1300  178.1080  143.6360 C   0  0  0  0  0  2  0  0  0  0  0  0
  184.0520  178.6890  145.6500 O   0  0  0  0  0  1  0  0  0  0  0  0
  186.3650  178.2330  145.1360 C   0  0  1  0  0  3  0  0  0  0  0  0
  185.3530  179.1740  145.8080 C   0  0  2  0  0  3  0  0  0  0  0  0
  186.4830  178.2180  147.9130 C   0  0  0  0  0  2  0  0  0  0  0  0
  186.1020  176.8760  147.2960 C   0  0  0  0  0  2  0  0  0  0  0  0
  186.3900  176.8430  145.7890 C   0  0  0  0  0  2  0  0  0  0  0  0
  185.6550  179.3580  147.3030 C   0  0  0  0  0  2  0  0  0  0  0  0
  1 10  2  0  0  0  0
  1  8  1  0  0  0  0
  2 13  2  0  0  0  0
  2  8  1  0  0  0  0
  3 16  1  0  0  0  0
  3 11  1  0  0  0  0
  4  9  1  0  0  0  0
  4 14  1  0  0  0  0
  6  2  1  0  0  0  0
  7 16  2  0  0  0  0
  8  3  2  0  0  0  0
  9 25  1  6  0  0  0
 11 15  1  0  0  0  0
 12  5  1  6  0  0  0
 12  1  1  0  0  0  0
 12 17  1  0  0  0  0
 13  7  1  0  0  0  0
 14 15  1  0  0  0  0
 15 20  1  1  0  0  0
 16  9  1  0  0  0  0
 17 11  2  0  0  0  0
 18 24  1  0  0  0  0
 18 19  1  0  0  0  0
 20 22  1  0  0  0  0
 20 23  2  0  0  0  0
 21 19  2  0  0  0  0
 22 18  2  0  0  0  0
 23 21  1  0  0  0  0
 25 26  1  0  0  0  0
 26 27  1  0  0  0  0
 29 27  1  6  0  0  0
 29 33  1  0  0  0  0
 29 30  1  0  0  0  0
 30 28  1  1  0  0  0
 30 34  1  0  0  0  0
 32 31  1  0  0  0  0
 33 32  1  0  0  0  0
 34 31  1  0  0  0  0
M  END
>  <MODEL>
1

>  <REMARK>
 VINA RESULT:      -8.4      0.000      0.000
  Name = 
  5 active torsions:
  status: ('A' for Active; 'I' for Inactive)
    1  A    between atoms: C_3  and  C_13
    2  A    between atoms: C_3  and  C_17
    3  A    between atoms: C_12  and  C_28
    4  A    between atoms: C_17  and  C_29
    5  A    between atoms: C_18  and  C_29
                            x       y       z     vdW  Elec       q    Type
                         _______ _______ _______ _____ _____    ______ ____

>  <TORSDO>
F 5

$$$$
=
 OpenBabel11052418393D

 34 38  0  0  1  0  0  0  0  0999 V2000
  193.5520  174.1660  142.0000 C   0  0  0  0  0  0  0  0  0  0  0  0
  191.3330  173.3050  141.1630 C   0  0  0  0  0  0  0  0  0  0  0  0
  191.4260  175.4000  142.4140 C   0  0  0  0  0  0  0  0  0  0  0  0
  190.0730  177.9150  142.5100 O   0  0  0  0  0  0  0  0  0  0  0  0
  194.7220  176.1270  141.0700 C   0  0  0  0  0  1  0  0  0  0  0  0
  191.9330  172.1760  140.6170 O   0  0  0  0  0  1  0  0  0  0  0  0
  189.3580  174.5890  141.4990 N   0  0  0  0  0  0  0  0  0  0  0  0
  192.0800  174.2740  141.8580 C   0  0  0  0  0  0  0  0  0  0  0  0
  189.2790  176.7760  142.6600 C   0  0  2  0  0  3  0  0  0  0  0  0
  194.1540  173.0780  141.7980 O   0  0  0  0  0  0  0  0  0  0  0  0
  192.2300  176.3590  143.2490 C   0  0  0  0  0  0  0  0  0  0  0  0
  194.3450  175.3890  142.3410 C   0  0  1  0  0  3  0  0  0  0  0  0
  189.9640  173.4820  141.0060 C   0  0  0  0  0  3  0  0  0  0  0  0
  190.5170  178.2220  143.8010 C   0  0  0  0  0  2  0  0  0  0  0  0
  191.6200  177.2700  144.2870 C   0  0  1  0  0  3  0  0  0  0  0  0
  190.0360  175.5620  142.1700 C   0  0  0  0  0  0  0  0  0  0  0  0
  193.5670  176.3000  143.2440 C   0  0  0  0  0  3  0  0  0  0  0  0
  189.6040  175.4770  146.9710 C   0  0  0  0  0  0  0  0  0  0  0  0
  190.6190  175.1910  147.8860 C   0  0  0  0  0  3  0  0  0  0  0  0
  191.2390  176.5450  145.5420 C   0  0  0  0  0  0  0  0  0  0  0  0
  191.8980  175.5740  147.6260 N   0  0  0  0  0  0  0  0  0  0  0  0
  189.9180  176.1560  145.7940 C   0  0  0  0  0  3  0  0  0  0  0  0
  192.2250  176.2390  146.4840 C   0  0  0  0  0  3  0  0  0  0  0  0
  188.3290  175.0980  147.2220 F   0  0  0  0  0  0  0  0  0  0  0  0
  187.9590  176.9890  141.9310 C   0  0  0  0  0  2  0  0  0  0  0  0
  187.4030  178.3650  142.2540 C   0  0  0  0  0  2  0  0  0  0  0  0
  186.0540  178.2420  142.9440 C   0  0  0  0  0  2  0  0  0  0  0  0
  183.9940  178.9650  144.9300 O   0  0  0  0  0  1  0  0  0  0  0  0
  186.2200  178.1650  144.4570 C   0  0  1  0  0  3  0  0  0  0  0  0
  185.3470  179.1940  145.1920 C   0  0  2  0  0  3  0  0  0  0  0  0
  186.1730  177.8380  147.2160 C   0  0  0  0  0  2  0  0  0  0  0  0
  185.6040  176.6560  146.4370 C   0  0  0  0  0  2  0  0  0  0  0  0
  185.9690  176.7320  144.9490 C   0  0  0  0  0  2  0  0  0  0  0  0
  185.5890  179.1630  146.7090 C   0  0  0  0  0  2  0  0  0  0  0  0
  1 12  1  0  0  0  0
  2  8  1  0  0  0  0
  3 11  1  0  0  0  0
  4  9  1  0  0  0  0
  4 14  1  0  0  0  0
  6  2  1  0  0  0  0
  7 16  2  0  0  0  0
  8  1  1  0  0  0  0
  8  3  2  0  0  0  0
  9 25  1  6  0  0  0
 10  1  2  0  0  0  0
 11 15  1  0  0  0  0
 12  5  1  6  0  0  0
 12 17  1  0  0  0  0
 13  2  2  0  0  0  0
 13  7  1  0  0  0  0
 14 15  1  0  0  0  0
 15 20  1  1  0  0  0
 16  3  1  0  0  0  0
 16  9  1  0  0  0  0
 17 11  2  0  0  0  0
 18 24  1  0  0  0  0
 18 19  1  0  0  0  0
 20 22  1  0  0  0  0
 20 23  2  0  0  0  0
 21 19  2  0  0  0  0
 22 18  2  0  0  0  0
 23 21  1  0  0  0  0
 25 26  1  0  0  0  0
 26 27  1  0  0  0  0
 29 27  1  6  0  0  0
 29 33  1  0  0  0  0
 29 30  1  0  0  0  0
 30 28  1  1  0  0  0
 30 34  1  0  0  0  0
 32 31  1  0  0  0  0
 33 32  1  0  0  0  0
 34 31  1  0  0  0  0
M  END
>  <MODEL>
2

>  <REMARK>
 VINA RESULT:      -8.0      1.488      1.729
  Name = 
  5 active torsions:
  status: ('A' for Active; 'I' for Inactive)
    1  A    between atoms: C_3  and  C_13
    2  A    between atoms: C_3  and  C_17
    3  A    between atoms: C_12  and  C_28
    4  A    between atoms: C_17  and  C_29
    5  A    between atoms: C_18  and  C_29
                            x       y       z     vdW  Elec       q    Type
                         _______ _______ _______ _____ _____    ______ ____

>  <TORSDO>
F 5

$$$$
=
 OpenBabel11052418393D

 34 38  0  0  1  0  0  0  0  0999 V2000
  191.2720  174.9170  145.3840 C   0  0  0  0  0  0  0  0  0  0  0  0
  191.4070  177.1220  144.1640 C   0  0  0  0  0  0  0  0  0  0  0  0
  189.8140  175.4250  143.4270 C   0  0  0  0  0  0  0  0  0  0  0  0
  187.2150  175.2760  142.2480 O   0  0  0  0  0  0  0  0  0  0  0  0
  189.3960  174.2470  146.8380 C   0  0  0  0  0  1  0  0  0  0  0  0
  192.4300  177.5640  144.9950 O   0  0  0  0  0  1  0  0  0  0  0  0
  189.9100  177.5810  142.3730 N   0  0  0  0  0  0  0  0  0  0  0  0
  190.8410  175.8420  144.3070 C   0  0  0  0  0  0  0  0  0  0  0  0
  188.1710  176.0190  141.5530 C   0  0  2  0  0  3  0  0  0  0  0  0
  192.3540  175.0900  146.0050 O   0  0  0  0  0  0  0  0  0  0  0  0
  189.3080  174.0110  143.5290 C   0  0  0  0  0  0  0  0  0  0  0  0
  190.3760  173.7840  145.7750 C   0  0  1  0  0  3  0  0  0  0  0  0
  190.9270  177.9730  143.1760 C   0  0  0  0  0  3  0  0  0  0  0  0
  187.3800  173.9600  141.8010 C   0  0  0  0  0  2  0  0  0  0  0  0
  188.6280  173.2880  142.3920 C   0  0  1  0  0  3  0  0  0  0  0  0
  189.3200  176.3570  142.4760 C   0  0  0  0  0  0  0  0  0  0  0  0
  189.6240  173.2580  144.5890 C   0  0  0  0  0  3  0  0  0  0  0  0
  190.7500  173.1500  139.2360 C   0  0  0  0  0  0  0  0  0  0  0  0
  191.3980  171.9290  139.4330 C   0  0  0  0  0  3  0  0  0  0  0  0
  189.5890  172.8340  141.3360 C   0  0  0  0  0  0  0  0  0  0  0  0
  191.1420  171.1950  140.5490 N   0  0  0  0  0  0  0  0  0  0  0  0
  189.8420  173.6030  140.1940 C   0  0  0  0  0  3  0  0  0  0  0  0
  190.2600  171.6190  141.4950 C   0  0  0  0  0  3  0  0  0  0  0  0
  191.0000  173.8870  138.1280 F   0  0  0  0  0  0  0  0  0  0  0  0
  187.5050  177.2510  140.9540 C   0  0  0  0  0  2  0  0  0  0  0  0
  186.1960  177.5350  141.6710 C   0  0  0  0  0  2  0  0  0  0  0  0
  186.3930  178.6090  142.7290 C   0  0  0  0  0  2  0  0  0  0  0  0
  187.9000  177.9090  145.1690 O   0  0  0  0  0  1  0  0  0  0  0  0
  185.7760  178.1870  144.0570 C   0  0  1  0  0  3  0  0  0  0  0  0
  186.7010  177.2600  144.8600 C   0  0  2  0  0  3  0  0  0  0  0  0
  184.8960  177.6810  146.6440 C   0  0  0  0  0  2  0  0  0  0  0  0
  185.2110  179.1480  146.3660 C   0  0  0  0  0  2  0  0  0  0  0  0
  185.3490  179.4230  144.8630 C   0  0  0  0  0  2  0  0  0  0  0  0
  186.0330  176.7730  146.1550 C   0  0  0  0  0  2  0  0  0  0  0  0
  1 12  1  0  0  0  0
  1 10  2  0  0  0  0
  2  8  1  0  0  0  0
  2  6  1  0  0  0  0
  3 11  1  0  0  0  0
  3  8  2  0  0  0  0
  7 16  2  0  0  0  0
  7 13  1  0  0  0  0
  8  1  1  0  0  0  0
  9 25  1  1  0  0  0
  9  4  1  0  0  0  0
  9 16  1  0  0  0  0
 11 17  2  0  0  0  0
 12  5  1  1  0  0  0
 13  2  2  0  0  0  0
 14  4  1  0  0  0  0
 14 15  1  0  0  0  0
 15 20  1  6  0  0  0
 15 11  1  0  0  0  0
 16  3  1  0  0  0  0
 17 12  1  0  0  0  0
 18 19  2  0  0  0  0
 18 22  1  0  0  0  0
 19 21  1  0  0  0  0
 20 23  1  0  0  0  0
 21 23  2  0  0  0  0
 22 20  2  0  0  0  0
 24 18  1  0  0  0  0
 25 26  1  0  0  0  0
 26 27  1  0  0  0  0
 29 27  1  6  0  0  0
 29 30  1  0  0  0  0
 29 33  1  0  0  0  0
 30 28  1  1  0  0  0
 30 34  1  0  0  0  0
 32 31  1  0  0  0  0
 33 32  1  0  0  0  0
 34 31  1  0  0  0  0
M  END
>  <MODEL>
3

>  <REMARK>
 VINA RESULT:      -8.0      2.907      5.042
  Name = 
  5 active torsions:
  status: ('A' for Active; 'I' for Inactive)
    1  A    between atoms: C_3  and  C_13
    2  A    between atoms: C_3  and  C_17
    3  A    between atoms: C_12  and  C_28
    4  A    between atoms: C_17  and  C_29
    5  A    between atoms: C_18  and  C_29
                            x       y       z     vdW  Elec       q    Type
                         _______ _______ _______ _____ _____    ______ ____

>  <TORSDO>
F 5

$$$$
=
 OpenBabel11052418393D

 34 38  0  0  1  0  0  0  0  0999 V2000
  194.4450  173.4810  143.9130 C   0  0  0  0  0  0  0  0  0  0  0  0
  194.3630  175.9480  144.4390 C   0  0  0  0  0  0  0  0  0  0  0  0
  192.3950  174.5580  144.8350 C   0  0  0  0  0  0  0  0  0  0  0  0
  190.1950  174.4060  146.6520 O   0  0  0  0  0  0  0  0  0  0  0  0
  194.4940  171.6980  145.6170 C   0  0  0  0  0  1  0  0  0  0  0  0
  195.6690  176.1250  143.9970 O   0  0  0  0  0  1  0  0  0  0  0  0
  192.4090  176.8880  145.4180 N   0  0  0  0  0  0  0  0  0  0  0  0
  193.7330  174.6910  144.3910 C   0  0  0  0  0  0  0  0  0  0  0  0
  190.3590  175.6160  145.9740 C   0  0  2  0  0  3  0  0  0  0  0  0
  195.5080  173.5660  143.2430 O   0  0  0  0  0  0  0  0  0  0  0  0
  191.7080  173.2300  144.6650 C   0  0  0  0  0  0  0  0  0  0  0  0
  193.9180  172.1290  144.2810 C   0  0  1  0  0  3  0  0  0  0  0  0
  193.6720  177.0390  144.9500 C   0  0  0  0  0  3  0  0  0  0  0  0
  189.4130  173.6150  145.8010 C   0  0  0  0  0  2  0  0  0  0  0  0
  190.2080  173.0720  144.6050 C   0  0  1  0  0  3  0  0  0  0  0  0
  191.7570  175.6930  145.4040 C   0  0  0  0  0  0  0  0  0  0  0  0
  192.4190  172.1390  144.3560 C   0  0  0  0  0  3  0  0  0  0  0  0
  188.3940  175.0630  141.9170 C   0  0  0  0  0  0  0  0  0  0  0  0
  188.6100  174.2350  140.8140 C   0  0  0  0  0  3  0  0  0  0  0  0
  189.6320  173.5010  143.2910 C   0  0  0  0  0  0  0  0  0  0  0  0
  189.3160  173.0810  140.9580 N   0  0  0  0  0  0  0  0  0  0  0  0
  188.9090  174.6930  143.1600 C   0  0  0  0  0  3  0  0  0  0  0  0
  189.8260  172.7020  142.1610 C   0  0  0  0  0  3  0  0  0  0  0  0
  187.6930  176.2140  141.7830 F   0  0  0  0  0  0  0  0  0  0  0  0
  190.0380  176.7640  146.9220 C   0  0  0  0  0  2  0  0  0  0  0  0
  188.8230  177.5270  146.4220 C   0  0  0  0  0  2  0  0  0  0  0  0
  187.5480  176.7710  146.7590 C   0  0  0  0  0  2  0  0  0  0  0  0
  185.9580  179.1530  147.4760 O   0  0  0  0  0  1  0  0  0  0  0  0
  186.3650  177.3160  145.9660 C   0  0  1  0  0  3  0  0  0  0  0  0
  185.3560  178.0540  146.8600 C   0  0  2  0  0  3  0  0  0  0  0  0
  184.3850  178.6600  144.5560 C   0  0  0  0  0  2  0  0  0  0  0  0
  185.7980  179.1680  144.2870 C   0  0  0  0  0  2  0  0  0  0  0  0
  186.8590  178.1880  144.8030 C   0  0  0  0  0  2  0  0  0  0  0  0
  184.1280  178.5210  146.0630 C   0  0  0  0  0  2  0  0  0  0  0  0
  1 12  1  0  0  0  0
  1  8  1  0  0  0  0
  2 13  1  0  0  0  0
  3 16  2  0  0  0  0
  6  2  1  0  0  0  0
  8  2  2  0  0  0  0
  8  3  1  0  0  0  0
  9  4  1  0  0  0  0
  9 25  1  1  0  0  0
 10  1  2  0  0  0  0
 11  3  1  0  0  0  0
 12 17  1  0  0  0  0
 12  5  1  1  0  0  0
 13  7  2  0  0  0  0
 14  4  1  0  0  0  0
 15 20  1  6  0  0  0
 15 11  1  0  0  0  0
 15 14  1  0  0  0  0
 16  7  1  0  0  0  0
 16  9  1  0  0  0  0
 17 11  2  0  0  0  0
 18 22  1  0  0  0  0
 19 21  1  0  0  0  0
 19 18  2  0  0  0  0
 21 23  2  0  0  0  0
 22 20  2  0  0  0  0
 23 20  1  0  0  0  0
 24 18  1  0  0  0  0
 26 27  1  0  0  0  0
 26 25  1  0  0  0  0
 29 27  1  1  0  0  0
 29 30  1  0  0  0  0
 30 28  1  6  0  0  0
 31 34  1  0  0  0  0
 32 31  1  0  0  0  0
 32 33  1  0  0  0  0
 33 29  1  0  0  0  0
 34 30  1  0  0  0  0
M  END
>  <MODEL>
4

>  <REMARK>
 VINA RESULT:      -8.0      2.768      4.879
  Name = 
  5 active torsions:
  status: ('A' for Active; 'I' for Inactive)
    1  A    between atoms: C_3  and  C_13
    2  A    between atoms: C_3  and  C_17
    3  A    between atoms: C_12  and  C_28
    4  A    between atoms: C_17  and  C_29
    5  A    between atoms: C_18  and  C_29
                            x       y       z     vdW  Elec       q    Type
                         _______ _______ _______ _____ _____    ______ ____

>  <TORSDO>
F 5

$$$$
=
 OpenBabel11052418393D

 34 38  0  0  1  0  0  0  0  0999 V2000
  194.0260  175.3590  143.0370 C   0  0  0  0  0  0  0  0  0  0  0  0
  193.6520  176.4280  145.2920 C   0  0  0  0  0  0  0  0  0  0  0  0
  191.8830  175.0840  144.2800 C   0  0  0  0  0  0  0  0  0  0  0  0
  189.7670  173.3430  145.0910 O   0  0  0  0  0  0  0  0  0  0  0  0
  194.3410  172.9390  142.6820 C   0  0  0  0  0  1  0  0  0  0  0  0
  194.9140  177.0110  145.2680 O   0  0  0  0  0  1  0  0  0  0  0  0
  191.6230  176.0340  146.4700 N   0  0  0  0  0  0  0  0  0  0  0  0
  193.1820  175.6440  144.2220 C   0  0  0  0  0  0  0  0  0  0  0  0
  189.7620  174.6260  145.6410 C   0  0  2  0  0  3  0  0  0  0  0  0
  195.0520  176.0430  142.7810 O   0  0  0  0  0  0  0  0  0  0  0  0
  191.3620  174.3490  143.0740 C   0  0  0  0  0  0  0  0  0  0  0  0
  193.6800  174.2000  142.1550 C   0  0  1  0  0  3  0  0  0  0  0  0
  192.8440  176.6170  146.4060 C   0  0  0  0  0  3  0  0  0  0  0  0
  189.0680  173.4610  143.8840 C   0  0  0  0  0  2  0  0  0  0  0  0
  189.8930  174.1550  142.7900 C   0  0  1  0  0  3  0  0  0  0  0  0
  191.1240  175.2590  145.4680 C   0  0  0  0  0  0  0  0  0  0  0  0
  192.1950  174.0010  142.0860 C   0  0  0  0  0  3  0  0  0  0  0  0
  189.0070  177.8060  142.1850 C   0  0  0  0  0  0  0  0  0  0  0  0
  187.9700  177.6540  141.2630 C   0  0  0  0  0  3  0  0  0  0  0  0
  189.2330  175.3980  142.2760 C   0  0  0  0  0  0  0  0  0  0  0  0
  187.5860  176.4100  140.8680 N   0  0  0  0  0  0  0  0  0  0  0  0
  189.6410  176.6710  142.6910 C   0  0  0  0  0  3  0  0  0  0  0  0
  188.1910  175.2910  141.3510 C   0  0  0  0  0  3  0  0  0  0  0  0
  189.3950  179.0410  142.5810 F   0  0  0  0  0  0  0  0  0  0  0  0
  189.3260  174.5410  147.0980 C   0  0  0  0  0  2  0  0  0  0  0  0
  188.1770  175.5000  147.3540 C   0  0  0  0  0  2  0  0  0  0  0  0
  188.1440  176.5840  146.2890 C   0  0  0  0  0  2  0  0  0  0  0  0
  187.0540  178.7390  147.9850 O   0  0  0  0  0  1  0  0  0  0  0  0
  186.7490  177.1860  146.1640 C   0  0  1  0  0  3  0  0  0  0  0  0
  186.2250  177.7220  147.5060 C   0  0  2  0  0  3  0  0  0  0  0  0
  184.3870  178.6350  145.9540 C   0  0  0  0  0  2  0  0  0  0  0  0
  185.5660  179.2490  145.2060 C   0  0  0  0  0  2  0  0  0  0  0  0
  186.7250  178.2540  145.0620 C   0  0  0  0  0  2  0  0  0  0  0  0
  184.7860  178.2460  147.3840 C   0  0  0  0  0  2  0  0  0  0  0  0
  1  8  1  0  0  0  0
  2 13  1  0  0  0  0
  3 16  2  0  0  0  0
  4  9  1  0  0  0  0
  6  2  1  0  0  0  0
  8  3  1  0  0  0  0
  8  2  2  0  0  0  0
  9 25  1  1  0  0  0
 10  1  2  0  0  0  0
 11  3  1  0  0  0  0
 12  5  1  1  0  0  0
 12  1  1  0  0  0  0
 13  7  2  0  0  0  0
 14  4  1  0  0  0  0
 15 20  1  1  0  0  0
 15 11  1  0  0  0  0
 15 14  1  0  0  0  0
 16  9  1  0  0  0  0
 16  7  1  0  0  0  0
 17 12  1  0  0  0  0
 17 11  2  0  0  0  0
 18 24  1  0  0  0  0
 18 22  1  0  0  0  0
 19 18  2  0  0  0  0
 20 22  2  0  0  0  0
 21 19  1  0  0  0  0
 21 23  2  0  0  0  0
 23 20  1  0  0  0  0
 25 26  1  0  0  0  0
 27 26  1  0  0  0  0
 29 27  1  1  0  0  0
 29 30  1  0  0  0  0
 30 28  1  6  0  0  0
 31 34  1  0  0  0  0
 32 31  1  0  0  0  0
 33 32  1  0  0  0  0
 33 29  1  0  0  0  0
 34 30  1  0  0  0  0
M  END
>  <MODEL>
5

>  <REMARK>
 VINA RESULT:      -7.9      2.542      4.524
  Name = 
  5 active torsions:
  status: ('A' for Active; 'I' for Inactive)
    1  A    between atoms: C_3  and  C_13
    2  A    between atoms: C_3  and  C_17
    3  A    between atoms: C_12  and  C_28
    4  A    between atoms: C_17  and  C_29
    5  A    between atoms: C_18  and  C_29
                            x       y       z     vdW  Elec       q    Type
                         _______ _______ _______ _____ _____    ______ ____

>  <TORSDO>
F 5

$$$$
=
 OpenBabel11052418393D

 34 38  0  0  1  0  0  0  0  0999 V2000
  185.3180  178.0400  144.2520 C   0  0  0  0  0  0  0  0  0  0  0  0
  185.7140  177.1050  146.5620 C   0  0  0  0  0  0  0  0  0  0  0  0
  187.5870  177.3480  145.0150 C   0  0  0  0  0  0  0  0  0  0  0  0
  190.3870  177.9160  145.0930 O   0  0  0  0  0  0  0  0  0  0  0  0
  186.0490  180.2760  143.5130 C   0  0  0  0  0  1  0  0  0  0  0  0
  184.3630  177.2010  146.8750 O   0  0  0  0  0  1  0  0  0  0  0  0
  187.9230  176.5670  147.2620 N   0  0  0  0  0  0  0  0  0  0  0  0
  186.2060  177.4780  145.2980 C   0  0  0  0  0  0  0  0  0  0  0  0
  189.9500  176.8360  145.8630 C   0  0  2  0  0  3  0  0  0  0  0  0
  184.0660  177.9150  144.3160 O   0  0  0  0  0  0  0  0  0  0  0  0
  188.0680  177.6440  143.6200 C   0  0  0  0  0  0  0  0  0  0  0  0
  185.9190  178.8160  143.1210 C   0  0  1  0  0  3  0  0  0  0  0  0
  186.5970  176.6400  147.5280 C   0  0  0  0  0  3  0  0  0  0  0  0
  190.6360  177.3800  143.8240 C   0  0  0  0  0  2  0  0  0  0  0  0
  189.3460  177.0840  143.0450 C   0  0  1  0  0  3  0  0  0  0  0  0
  188.4530  176.9250  146.0590 C   0  0  0  0  0  0  0  0  0  0  0  0
  187.2660  178.2690  142.7500 C   0  0  0  0  0  3  0  0  0  0  0  0
  189.8270  173.3110  142.9260 C   0  0  0  0  0  0  0  0  0  0  0  0
  188.9330  172.9850  141.9050 C   0  0  0  0  0  3  0  0  0  0  0  0
  189.2260  175.6410  142.6620 C   0  0  0  0  0  0  0  0  0  0  0  0
  188.2140  173.9630  141.2900 N   0  0  0  0  0  0  0  0  0  0  0  0
  189.9720  174.6450  143.3060 C   0  0  0  0  0  3  0  0  0  0  0  0
  188.3410  175.2710  141.6450 C   0  0  0  0  0  3  0  0  0  0  0  0
  190.5440  172.3430  143.5420 F   0  0  0  0  0  0  0  0  0  0  0  0
  190.7220  176.8170  147.1770 C   0  0  0  0  0  2  0  0  0  0  0  0
  191.7640  175.7110  147.1510 C   0  0  0  0  0  2  0  0  0  0  0  0
  193.0540  176.2130  146.5230 C   0  0  0  0  0  2  0  0  0  0  0  0
  195.6770  174.9150  146.1370 O   0  0  0  0  0  1  0  0  0  0  0  0
  193.4480  175.3570  145.3250 C   0  0  1  0  0  3  0  0  0  0  0  0
  194.9580  175.4080  145.0450 C   0  0  2  0  0  3  0  0  0  0  0  0
  194.3000  173.5350  143.4080 C   0  0  0  0  0  2  0  0  0  0  0  0
  193.6970  172.8940  144.6550 C   0  0  0  0  0  2  0  0  0  0  0  0
  192.9380  173.9200  145.5070 C   0  0  0  0  0  2  0  0  0  0  0  0
  195.3280  174.6100  143.7850 C   0  0  0  0  0  2  0  0  0  0  0  0
  1 10  2  0  0  0  0
  1  8  1  0  0  0  0
  2  6  1  0  0  0  0
  2 13  1  0  0  0  0
  3  8  1  0  0  0  0
  3 16  2  0  0  0  0
  4  9  1  0  0  0  0
  7 13  2  0  0  0  0
  8  2  2  0  0  0  0
  9 16  1  0  0  0  0
  9 25  1  1  0  0  0
 11  3  1  0  0  0  0
 12  5  1  1  0  0  0
 12  1  1  0  0  0  0
 14  4  1  0  0  0  0
 15 20  1  1  0  0  0
 15 11  1  0  0  0  0
 15 14  1  0  0  0  0
 16  7  1  0  0  0  0
 17 12  1  0  0  0  0
 17 11  2  0  0  0  0
 18 22  1  0  0  0  0
 18 24  1  0  0  0  0
 19 18  2  0  0  0  0
 20 22  2  0  0  0  0
 21 23  2  0  0  0  0
 21 19  1  0  0  0  0
 23 20  1  0  0  0  0
 26 25  1  0  0  0  0
 27 26  1  0  0  0  0
 29 33  1  0  0  0  0
 29 27  1  1  0  0  0
 30 29  1  0  0  0  0
 30 28  1  1  0  0  0
 31 34  1  0  0  0  0
 31 32  1  0  0  0  0
 32 33  1  0  0  0  0
 34 30  1  0  0  0  0
M  END
>  <MODEL>
6

>  <REMARK>
 VINA RESULT:      -7.6      2.471      7.265
  Name = 
  5 active torsions:
  status: ('A' for Active; 'I' for Inactive)
    1  A    between atoms: C_3  and  C_13
    2  A    between atoms: C_3  and  C_17
    3  A    between atoms: C_12  and  C_28
    4  A    between atoms: C_17  and  C_29
    5  A    between atoms: C_18  and  C_29
                            x       y       z     vdW  Elec       q    Type
                         _______ _______ _______ _____ _____    ______ ____

>  <TORSDO>
F 5

$$$$
=
 OpenBabel11052418393D

 34 38  0  0  1  0  0  0  0  0999 V2000
  185.6870  177.6530  143.9840 C   0  0  0  0  0  0  0  0  0  0  0  0
  186.1600  176.8220  146.3190 C   0  0  0  0  0  0  0  0  0  0  0  0
  187.9890  177.0390  144.7170 C   0  0  0  0  0  0  0  0  0  0  0  0
  190.7770  177.6670  144.7010 O   0  0  0  0  0  0  0  0  0  0  0  0
  186.3520  179.8730  143.1380 C   0  0  0  0  0  1  0  0  0  0  0  0
  184.8150  176.9020  146.6610 O   0  0  0  0  0  1  0  0  0  0  0  0
  188.3960  176.3580  146.9830 N   0  0  0  0  0  0  0  0  0  0  0  0
  186.6130  177.1530  145.0290 C   0  0  0  0  0  0  0  0  0  0  0  0
  190.3820  176.6110  145.5250 C   0  0  2  0  0  3  0  0  0  0  0  0
  184.4410  177.5060  144.0850 O   0  0  0  0  0  0  0  0  0  0  0  0
  188.4290  177.2890  143.2990 C   0  0  0  0  0  0  0  0  0  0  0  0
  186.2430  178.3950  142.8080 C   0  0  1  0  0  3  0  0  0  0  0  0
  187.0760  176.4140  147.2800 C   0  0  0  0  0  3  0  0  0  0  0  0
  191.0060  177.0860  143.4490 C   0  0  0  0  0  2  0  0  0  0  0  0
  189.7040  176.7320  142.7150 C   0  0  1  0  0  3  0  0  0  0  0  0
  188.8890  176.6770  145.7540 C   0  0  0  0  0  0  0  0  0  0  0  0
  187.5920  177.8620  142.4250 C   0  0  0  0  0  3  0  0  0  0  0  0
  188.3180  173.2590  142.0100 C   0  0  0  0  0  0  0  0  0  0  0  0
  189.5070  172.5660  141.7750 C   0  0  0  0  0  3  0  0  0  0  0  0
  189.6060  175.2720  142.3930 C   0  0  0  0  0  0  0  0  0  0  0  0
  190.7000  173.2160  141.8490 N   0  0  0  0  0  0  0  0  0  0  0  0
  188.3700  174.6180  142.3190 C   0  0  0  0  0  3  0  0  0  0  0  0
  190.7720  174.5420  142.1500 C   0  0  0  0  0  3  0  0  0  0  0  0
  187.1270  172.6190  141.9370 F   0  0  0  0  0  0  0  0  0  0  0  0
  191.1860  176.6610  146.8180 C   0  0  0  0  0  2  0  0  0  0  0  0
  191.7610  175.2890  147.1250 C   0  0  0  0  0  2  0  0  0  0  0  0
  192.2510  174.6210  145.8500 C   0  0  0  0  0  2  0  0  0  0  0  0
  193.7890  173.1350  143.8160 O   0  0  0  0  0  1  0  0  0  0  0  0
  193.7100  174.2000  145.9790 C   0  0  1  0  0  3  0  0  0  0  0  0
  194.0220  172.9270  145.1780 C   0  0  2  0  0  3  0  0  0  0  0  0
  196.4160  173.5830  145.8520 C   0  0  0  0  0  2  0  0  0  0  0  0
  196.0480  174.9150  145.2050 C   0  0  0  0  0  2  0  0  0  0  0  0
  194.6370  175.3660  145.6040 C   0  0  0  0  0  2  0  0  0  0  0  0
  195.4720  172.4660  145.3860 C   0  0  0  0  0  2  0  0  0  0  0  0
  1 10  2  0  0  0  0
  1  8  1  0  0  0  0
  2  6  1  0  0  0  0
  2 13  1  0  0  0  0
  3  8  1  0  0  0  0
  3 16  2  0  0  0  0
  4  9  1  0  0  0  0
  7 13  2  0  0  0  0
  8  2  2  0  0  0  0
  9 16  1  0  0  0  0
  9 25  1  1  0  0  0
 11  3  1  0  0  0  0
 12  5  1  1  0  0  0
 12  1  1  0  0  0  0
 14  4  1  0  0  0  0
 15 20  1  1  0  0  0
 15 11  1  0  0  0  0
 15 14  1  0  0  0  0
 16  7  1  0  0  0  0
 17 12  1  0  0  0  0
 17 11  2  0  0  0  0
 18 22  1  0  0  0  0
 19 21  1  0  0  0  0
 19 18  2  0  0  0  0
 21 23  2  0  0  0  0
 22 20  2  0  0  0  0
 23 20  1  0  0  0  0
 24 18  1  0  0  0  0
 25 26  1  0  0  0  0
 27 26  1  0  0  0  0
 29 27  1  6  0  0  0
 30 28  1  6  0  0  0
 30 34  1  0  0  0  0
 30 29  1  0  0  0  0
 32 33  1  0  0  0  0
 32 31  1  0  0  0  0
 33 29  1  0  0  0  0
 34 31  1  0  0  0  0
M  END
>  <MODEL>
7

>  <REMARK>
 VINA RESULT:      -7.6      2.572      7.363
  Name = 
  5 active torsions:
  status: ('A' for Active; 'I' for Inactive)
    1  A    between atoms: C_3  and  C_13
    2  A    between atoms: C_3  and  C_17
    3  A    between atoms: C_12  and  C_28
    4  A    between atoms: C_17  and  C_29
    5  A    between atoms: C_18  and  C_29
                            x       y       z     vdW  Elec       q    Type
                         _______ _______ _______ _____ _____    ______ ____

>  <TORSDO>
F 5

$$$$
=
 OpenBabel11052418393D

 34 38  0  0  1  0  0  0  0  0999 V2000
  186.8950  178.0110  144.6040 C   0  0  0  0  0  0  0  0  0  0  0  0
  187.1440  177.3530  142.1810 C   0  0  0  0  0  0  0  0  0  0  0  0
  188.2280  176.0210  143.9160 C   0  0  0  0  0  0  0  0  0  0  0  0
  188.9360  173.2980  144.4150 O   0  0  0  0  0  0  0  0  0  0  0  0
  185.5460  176.7650  146.2510 C   0  0  0  0  0  1  0  0  0  0  0  0
  186.3810  178.4390  141.7670 O   0  0  0  0  0  1  0  0  0  0  0  0
  188.3400  175.3800  141.6040 N   0  0  0  0  0  0  0  0  0  0  0  0
  187.4320  177.1300  143.5400 C   0  0  0  0  0  0  0  0  0  0  0  0
  189.4230  173.8600  143.2330 C   0  0  2  0  0  3  0  0  0  0  0  0
  186.4380  179.1550  144.3420 O   0  0  0  0  0  0  0  0  0  0  0  0
  188.6170  175.8710  145.3620 C   0  0  0  0  0  0  0  0  0  0  0  0
  186.8470  177.5100  146.0140 C   0  0  1  0  0  3  0  0  0  0  0  0
  187.6220  176.4640  141.2270 C   0  0  0  0  0  3  0  0  0  0  0  0
  189.8890  173.6160  145.3890 C   0  0  0  0  0  2  0  0  0  0  0  0
  189.8220  175.0880  145.8220 C   0  0  1  0  0  3  0  0  0  0  0  0
  188.6390  175.1110  142.9050 C   0  0  0  0  0  0  0  0  0  0  0  0
  188.0080  176.6050  146.3020 C   0  0  0  0  0  3  0  0  0  0  0  0
  193.4190  176.2900  146.1340 C   0  0  0  0  0  0  0  0  0  0  0  0
  193.4670  177.1910  145.0690 C   0  0  0  0  0  3  0  0  0  0  0  0
  191.1100  175.8150  145.5850 C   0  0  0  0  0  0  0  0  0  0  0  0
  192.3660  177.3890  144.2950 N   0  0  0  0  0  0  0  0  0  0  0  0
  192.2350  175.5990  146.3910 C   0  0  0  0  0  3  0  0  0  0  0  0
  191.2010  176.7260  144.5290 C   0  0  0  0  0  3  0  0  0  0  0  0
  194.5110  176.0870  146.9090 F   0  0  0  0  0  0  0  0  0  0  0  0
  189.3680  172.8160  142.1260 C   0  0  0  0  0  2  0  0  0  0  0  0
  190.6970  172.0860  142.0330 C   0  0  0  0  0  2  0  0  0  0  0  0
  191.8460  173.0810  142.0010 C   0  0  0  0  0  2  0  0  0  0  0  0
  193.9300  171.0660  142.5560 O   0  0  0  0  0  1  0  0  0  0  0  0
  192.6760  172.9970  143.2770 C   0  0  1  0  0  3  0  0  0  0  0  0
  193.1250  171.5600  143.5860 C   0  0  2  0  0  3  0  0  0  0  0  0
  194.5020  172.8100  145.3630 C   0  0  0  0  0  2  0  0  0  0  0  0
  195.0040  173.6080  144.1630 C   0  0  0  0  0  2  0  0  0  0  0  0
  193.8590  173.9740  143.2090 C   0  0  0  0  0  2  0  0  0  0  0  0
  193.8860  171.4770  144.9180 C   0  0  0  0  0  2  0  0  0  0  0  0
  1 12  1  0  0  0  0
  2  8  1  0  0  0  0
  3 11  1  0  0  0  0
  4 14  1  0  0  0  0
  6  2  1  0  0  0  0
  7 16  2  0  0  0  0
  8  3  2  0  0  0  0
  8  1  1  0  0  0  0
  9 25  1  6  0  0  0
  9  4  1  0  0  0  0
 10  1  2  0  0  0  0
 11 15  1  0  0  0  0
 11 17  2  0  0  0  0
 12  5  1  6  0  0  0
 12 17  1  0  0  0  0
 13  7  1  0  0  0  0
 13  2  2  0  0  0  0
 14 15  1  0  0  0  0
 15 20  1  6  0  0  0
 16  9  1  0  0  0  0
 16  3  1  0  0  0  0
 18 22  1  0  0  0  0
 18 24  1  0  0  0  0
 19 18  2  0  0  0  0
 20 22  2  0  0  0  0
 21 23  2  0  0  0  0
 21 19  1  0  0  0  0
 23 20  1  0  0  0  0
 26 25  1  0  0  0  0
 27 26  1  0  0  0  0
 29 27  1  6  0  0  0
 29 30  1  0  0  0  0
 30 28  1  6  0  0  0
 30 34  1  0  0  0  0
 32 31  1  0  0  0  0
 33 29  1  0  0  0  0
 33 32  1  0  0  0  0
 34 31  1  0  0  0  0
M  END
>  <MODEL>
8

>  <REMARK>
 VINA RESULT:      -7.3      2.097      6.726
  Name = 
  5 active torsions:
  status: ('A' for Active; 'I' for Inactive)
    1  A    between atoms: C_3  and  C_13
    2  A    between atoms: C_3  and  C_17
    3  A    between atoms: C_12  and  C_28
    4  A    between atoms: C_17  and  C_29
    5  A    between atoms: C_18  and  C_29
                            x       y       z     vdW  Elec       q    Type
                         _______ _______ _______ _____ _____    ______ ____

>  <TORSDO>
F 5

$$$$
=
 OpenBabel11052418393D

 34 38  0  0  1  0  0  0  0  0999 V2000
  187.0390  177.9290  144.6130 C   0  0  0  0  0  0  0  0  0  0  0  0
  187.3400  177.2570  142.1990 C   0  0  0  0  0  0  0  0  0  0  0  0
  188.4010  175.9450  143.9640 C   0  0  0  0  0  0  0  0  0  0  0  0
  189.1210  173.2310  144.4950 O   0  0  0  0  0  0  0  0  0  0  0  0
  185.6690  176.6830  146.2410 C   0  0  0  0  0  1  0  0  0  0  0  0
  186.5770  178.3340  141.7640 O   0  0  0  0  0  1  0  0  0  0  0  0
  188.5630  175.2890  141.6590 N   0  0  0  0  0  0  0  0  0  0  0  0
  187.6040  177.0450  143.5650 C   0  0  0  0  0  0  0  0  0  0  0  0
  189.6260  173.7890  143.3190 C   0  0  2  0  0  3  0  0  0  0  0  0
  186.5790  179.0670  144.3340 O   0  0  0  0  0  0  0  0  0  0  0  0
  188.7620  175.8080  145.4180 C   0  0  0  0  0  0  0  0  0  0  0  0
  186.9680  177.4370  146.0250 C   0  0  1  0  0  3  0  0  0  0  0  0
  187.8440  176.3650  141.2600 C   0  0  0  0  0  3  0  0  0  0  0  0
  190.0520  173.5630  145.4850 C   0  0  0  0  0  2  0  0  0  0  0  0
  189.9650  175.0370  145.9070 C   0  0  1  0  0  3  0  0  0  0  0  0
  188.8380  175.0310  142.9680 C   0  0  0  0  0  0  0  0  0  0  0  0
  188.1300  176.5420  146.3410 C   0  0  0  0  0  3  0  0  0  0  0  0
  193.6060  176.1210  146.1320 C   0  0  0  0  0  0  0  0  0  0  0  0
  193.6010  177.1770  145.2190 C   0  0  0  0  0  3  0  0  0  0  0  0
  191.2520  175.7730  145.6900 C   0  0  0  0  0  0  0  0  0  0  0  0
  192.4530  177.5100  144.5690 N   0  0  0  0  0  0  0  0  0  0  0  0
  192.4250  175.4160  146.3660 C   0  0  0  0  0  3  0  0  0  0  0  0
  191.2910  176.8360  144.7840 C   0  0  0  0  0  3  0  0  0  0  0  0
  194.7440  175.7820  146.7820 F   0  0  0  0  0  0  0  0  0  0  0  0
  189.6010  172.7370  142.2180 C   0  0  0  0  0  2  0  0  0  0  0  0
  190.5850  171.6260  142.5380 C   0  0  0  0  0  2  0  0  0  0  0  0
  191.8620  171.8000  141.7310 C   0  0  0  0  0  2  0  0  0  0  0  0
  192.8180  174.3570  142.8550 O   0  0  0  0  0  1  0  0  0  0  0  0
  193.0690  171.9660  142.6480 C   0  0  1  0  0  3  0  0  0  0  0  0
  193.7210  173.3500  142.5060 C   0  0  2  0  0  3  0  0  0  0  0  0
  195.0300  172.4870  144.5460 C   0  0  0  0  0  2  0  0  0  0  0  0
  193.6370  172.2700  145.1300 C   0  0  0  0  0  2  0  0  0  0  0  0
  192.6820  171.6510  144.1000 C   0  0  0  0  0  2  0  0  0  0  0  0
  194.9860  173.4720  143.3700 C   0  0  0  0  0  2  0  0  0  0  0  0
  1 12  1  0  0  0  0
  2  8  1  0  0  0  0
  3 11  1  0  0  0  0
  4 14  1  0  0  0  0
  6  2  1  0  0  0  0
  7 16  2  0  0  0  0
  8  3  2  0  0  0  0
  8  1  1  0  0  0  0
  9 25  1  6  0  0  0
  9  4  1  0  0  0  0
 10  1  2  0  0  0  0
 11 15  1  0  0  0  0
 11 17  2  0  0  0  0
 12  5  1  6  0  0  0
 12 17  1  0  0  0  0
 13  7  1  0  0  0  0
 13  2  2  0  0  0  0
 14 15  1  0  0  0  0
 15 20  1  6  0  0  0
 16  9  1  0  0  0  0
 16  3  1  0  0  0  0
 18 22  1  0  0  0  0
 18 24  1  0  0  0  0
 19 18  2  0  0  0  0
 20 22  2  0  0  0  0
 21 23  2  0  0  0  0
 21 19  1  0  0  0  0
 23 20  1  0  0  0  0
 25 26  1  0  0  0  0
 27 26  1  0  0  0  0
 29 27  1  6  0  0  0
 29 33  1  0  0  0  0
 30 29  1  0  0  0  0
 30 28  1  1  0  0  0
 30 34  1  0  0  0  0
 31 32  1  0  0  0  0
 33 32  1  0  0  0  0
 34 31  1  0  0  0  0
M  END
>  <MODEL>
9

>  <REMARK>
 VINA RESULT:      -7.3      2.096      6.624
  Name = 
  5 active torsions:
  status: ('A' for Active; 'I' for Inactive)
    1  A    between atoms: C_3  and  C_13
    2  A    between atoms: C_3  and  C_17
    3  A    between atoms: C_12  and  C_28
    4  A    between atoms: C_17  and  C_29
    5  A    between atoms: C_18  and  C_29
                            x       y       z     vdW  Elec       q    Type
                         _______ _______ _______ _____ _____    ______ ____

>  <TORSDO>
F 5

$$$$
