=
 OpenBabel11052420033D

 37 40  0  0  1  0  0  0  0  0999 V2000
  191.7290  174.1020  144.2790 C   0  0  0  0  0  2  0  0  0  0  0  0
  189.5490  177.8510  144.2720 C   0  0  0  0  0  2  0  0  0  0  0  0
  188.7910  173.2070  140.8670 C   0  0  0  0  0  2  0  0  0  0  0  0
  191.0730  175.4110  143.8270 C   0  0  2  0  0  3  0  0  0  0  0  0
  189.3870  173.6050  142.1860 C   0  0  0  0  0  0  0  0  0  0  0  0
  191.6930  176.5860  144.4590 N   0  0  0  0  0  0  0  0  0  0  0  0
  190.2620  172.7940  142.7010 N   0  0  0  0  0  0  0  0  0  0  0  0
  188.8080  174.8560  142.8630 C   0  0  2  0  0  3  0  0  0  0  0  0
  187.9330  175.5570  140.5980 C   0  0  0  0  0  2  0  0  0  0  0  0
  190.8880  172.8390  144.0110 C   0  0  2  0  0  3  0  0  0  0  0  0
  188.6900  175.9980  141.8430 C   0  0  0  0  0  2  0  0  0  0  0  0
  191.0430  177.7830  143.9220 C   0  0  0  0  0  2  0  0  0  0  0  0
  189.5670  175.3360  144.1110 C   0  0  2  0  0  3  0  0  0  0  0  0
  188.6850  174.4090  139.9290 C   0  0  2  0  0  3  0  0  0  0  0  0
  188.9910  176.5590  144.8910 C   0  0  1  0  0  0  0  0  0  0  0  0
  188.0680  174.0400  138.6730 N   0  0  0  0  0  0  0  0  0  0  0  0
  188.7560  173.6820  137.6470 C   0  0  0  0  0  2  0  0  0  0  0  0
  189.2350  171.5090  145.0500 O   0  0  0  0  0  0  0  0  0  0  0  0
  189.9140  172.5210  145.1030 C   0  0  0  0  0  3  0  0  0  0  0  0
  189.4130  176.5300  146.2460 O   0  0  0  0  0  0  0  0  0  0  0  0
  188.7100  175.5390  146.9550 C   0  0  0  0  0  2  0  0  0  0  0  0
  190.7750  175.5270  147.7260 C   0  0  0  0  0  1  0  0  0  0  0  0
  189.6090  174.7660  147.6870 O   0  0  0  0  0  0  0  0  0  0  0  0
  187.4500  176.6070  144.7950 C   0  0  0  0  0  2  0  0  0  0  0  0
  186.9100  178.0300  144.7850 C   0  0  0  0  0  2  0  0  0  0  0  0
  186.4320  178.3750  146.1110 N   0  0  0  0  0  2  0  0  0  0  0  0
  184.0120  178.4760  146.1750 C   0  0  0  0  0  1  0  0  0  0  0  0
  185.2310  177.5920  146.3390 C   0  0  0  0  0  2  0  0  0  0  0  0
  193.0770  176.6720  144.0130 C   0  0  0  0  0  2  0  0  0  0  0  0
  193.9950  176.7780  145.2170 C   0  0  0  0  0  2  0  0  0  0  0  0
  196.0220  176.1300  143.9020 C   0  0  0  0  0  3  0  0  0  0  0  0
  195.1980  175.9270  145.0150 C   0  0  0  0  0  0  0  0  0  0  0  0
  195.4910  174.9020  145.9200 C   0  0  0  0  0  3  0  0  0  0  0  0
  196.8920  173.0970  146.5960 F   0  0  0  0  0  0  0  0  0  0  0  0
  197.4350  174.2960  144.6100 C   0  0  0  0  0  3  0  0  0  0  0  0
  196.6100  174.0890  145.7190 C   0  0  0  0  0  0  0  0  0  0  0  0
  197.1410  175.3170  143.7020 C   0  0  0  0  0  3  0  0  0  0  0  0
  2 15  1  0  0  0  0
  3  5  1  0  0  0  0
  4 13  1  0  0  0  0
  4  1  1  1  0  0  0
  4  6  1  0  0  0  0
  5  7  2  0  0  0  0
  5  8  1  0  0  0  0
  7 10  1  0  0  0  0
  8 11  1  6  0  0  0
  8 13  1  0  0  0  0
  9 11  1  0  0  0  0
 10  1  1  0  0  0  0
 10 19  1  1  0  0  0
 12  2  1  0  0  0  0
 12  6  1  0  0  0  0
 13 15  1  0  0  0  0
 14  9  1  0  0  0  0
 14  3  1  0  0  0  0
 15 20  1  0  0  0  0
 16 14  1  0  0  0  0
 17 16  2  0  0  0  0
 18 19  2  0  0  0  0
 20 21  1  0  0  0  0
 21 23  1  0  0  0  0
 23 22  1  0  0  0  0
 24 15  1  0  0  0  0
 25 24  1  0  0  0  0
 25 26  1  0  0  0  0
 26 28  1  0  0  0  0
 27 28  1  0  0  0  0
 29  6  1  0  0  0  0
 29 30  1  0  0  0  0
 31 32  1  0  0  0  0
 32 30  1  0  0  0  0
 32 33  2  0  0  0  0
 35 36  2  0  0  0  0
 36 33  1  0  0  0  0
 36 34  1  0  0  0  0
 37 31  2  0  0  0  0
 37 35  1  0  0  0  0
M  END
>  <MODEL>
1

>  <REMARK>
 VINA RESULT:      -6.8      0.000      0.000
  Name = 
  12 active torsions:
  status: ('A' for Active; 'I' for Inactive)
    1  A    between atoms: O_1  and  C_5
    2  A    between atoms: O_1  and  C_36
    3  A    between atoms: N_3  and  C_32
    4  A    between atoms: C_5  and  O_23
    5  A    between atoms: C_6  and  C_31
    6  A    between atoms: N_14  and  C_37
    7  A    between atoms: C_17  and  N_26
    8  A    between atoms: C_17  and  C_33
    9  A    between atoms: CA_24  and  C_28
   10  A    between atoms: N_26  and  C_34
   11  A    between atoms: C_31  and  C_37
   12  A    between atoms: C_33  and  C_36
                            x       y       z     vdW  Elec       q    Type
                         _______ _______ _______ _____ _____    ______ ____

>  <TORSDO>
F 12

$$$$
=
 OpenBabel11052420033D

 37 40  0  0  1  0  0  0  0  0999 V2000
  190.2400  174.2320  145.7470 C   0  0  0  0  0  2  0  0  0  0  0  0
  188.7860  175.4370  141.8440 C   0  0  0  0  0  2  0  0  0  0  0  0
  186.8150  176.9810  147.0840 C   0  0  0  0  0  2  0  0  0  0  0  0
  189.3250  174.5110  144.5500 C   0  0  2  0  0  3  0  0  0  0  0  0
  188.0370  176.4270  146.4110 C   0  0  0  0  0  0  0  0  0  0  0  0
  189.6770  173.6850  143.3840 N   0  0  0  0  0  0  0  0  0  0  0  0
  188.9010  175.8220  147.1710 N   0  0  0  0  0  0  0  0  0  0  0  0
  188.2160  176.7470  144.9200 C   0  0  2  0  0  3  0  0  0  0  0  0
  185.7360  177.2210  144.8240 C   0  0  0  0  0  2  0  0  0  0  0  0
  190.2230  175.3240  146.8340 C   0  0  2  0  0  3  0  0  0  0  0  0
  186.9020  176.4940  144.1680 C   0  0  0  0  0  2  0  0  0  0  0  0
  188.7150  173.9770  142.3190 C   0  0  0  0  0  2  0  0  0  0  0  0
  189.3740  176.0090  144.2270 C   0  0  2  0  0  3  0  0  0  0  0  0
  185.5620  176.7090  146.2520 C   0  0  2  0  0  3  0  0  0  0  0  0
  189.6580  176.3420  142.7280 C   0  0  1  0  0  0  0  0  0  0  0  0
  184.3880  177.2820  146.8740 N   0  0  0  0  0  0  0  0  0  0  0  0
  183.9260  178.4360  146.5420 C   0  0  0  0  0  2  0  0  0  0  0  0
  192.3300  176.3770  147.0080 O   0  0  0  0  0  0  0  0  0  0  0  0
  191.1900  176.4400  146.5820 C   0  0  0  0  0  3  0  0  0  0  0  0
  191.0120  176.0620  142.4030 O   0  0  0  0  0  0  0  0  0  0  0  0
  191.8710  176.9180  143.1160 C   0  0  0  0  0  2  0  0  0  0  0  0
  193.1600  175.2050  143.6310 C   0  0  0  0  0  1  0  0  0  0  0  0
  193.1810  176.4540  143.0130 O   0  0  0  0  0  0  0  0  0  0  0  0
  189.3070  177.8110  142.4060 C   0  0  0  0  0  2  0  0  0  0  0  0
  188.2590  177.9340  141.3090 C   0  0  0  0  0  2  0  0  0  0  0  0
  187.1160  178.6730  141.8130 N   0  0  0  0  0  2  0  0  0  0  0  0
  186.4070  177.4820  139.8270 C   0  0  0  0  0  1  0  0  0  0  0  0
  185.9560  178.1950  141.0840 C   0  0  0  0  0  2  0  0  0  0  0  0
  189.4530  172.2870  143.7250 C   0  0  0  0  0  2  0  0  0  0  0  0
  190.2030  171.3980  142.7490 C   0  0  0  0  0  2  0  0  0  0  0  0
  192.5450  171.6660  141.9150 C   0  0  0  0  0  3  0  0  0  0  0  0
  191.6670  171.5000  142.9910 C   0  0  0  0  0  0  0  0  0  0  0  0
  192.1700  171.4010  144.2920 C   0  0  0  0  0  3  0  0  0  0  0  0
  194.0330  171.3820  145.7780 F   0  0  0  0  0  0  0  0  0  0  0  0
  194.4240  171.6480  143.4420 C   0  0  0  0  0  3  0  0  0  0  0  0
  193.5470  171.4770  144.5170 C   0  0  0  0  0  0  0  0  0  0  0  0
  193.9230  171.7420  142.1410 C   0  0  0  0  0  3  0  0  0  0  0  0
  1 10  1  0  0  0  0
  2 12  1  0  0  0  0
  2 15  1  0  0  0  0
  4  1  1  1  0  0  0
  5  3  1  0  0  0  0
  5  7  2  0  0  0  0
  6 29  1  0  0  0  0
  6  4  1  0  0  0  0
  8 11  1  6  0  0  0
  8  5  1  0  0  0  0
  9 14  1  0  0  0  0
 10 19  1  6  0  0  0
 10  7  1  0  0  0  0
 11  9  1  0  0  0  0
 12  6  1  0  0  0  0
 13  4  1  0  0  0  0
 13  8  1  0  0  0  0
 14 16  1  0  0  0  0
 14  3  1  0  0  0  0
 15 13  1  0  0  0  0
 17 16  2  0  0  0  0
 19 18  2  0  0  0  0
 20 15  1  0  0  0  0
 20 21  1  0  0  0  0
 23 21  1  0  0  0  0
 23 22  1  0  0  0  0
 24 15  1  0  0  0  0
 25 26  1  0  0  0  0
 25 24  1  0  0  0  0
 27 28  1  0  0  0  0
 28 26  1  0  0  0  0
 30 32  1  0  0  0  0
 30 29  1  0  0  0  0
 31 37  2  0  0  0  0
 31 32  1  0  0  0  0
 32 33  2  0  0  0  0
 33 36  1  0  0  0  0
 35 36  2  0  0  0  0
 36 34  1  0  0  0  0
 37 35  1  0  0  0  0
M  END
>  <MODEL>
2

>  <REMARK>
 VINA RESULT:      -6.5      2.595      5.298
  Name = 
  12 active torsions:
  status: ('A' for Active; 'I' for Inactive)
    1  A    between atoms: O_1  and  C_5
    2  A    between atoms: O_1  and  C_36
    3  A    between atoms: N_3  and  C_32
    4  A    between atoms: C_5  and  O_23
    5  A    between atoms: C_6  and  C_31
    6  A    between atoms: N_14  and  C_37
    7  A    between atoms: C_17  and  N_26
    8  A    between atoms: C_17  and  C_33
    9  A    between atoms: CA_24  and  C_28
   10  A    between atoms: N_26  and  C_34
   11  A    between atoms: C_31  and  C_37
   12  A    between atoms: C_33  and  C_36
                            x       y       z     vdW  Elec       q    Type
                         _______ _______ _______ _____ _____    ______ ____

>  <TORSDO>
F 12

$$$$
=
 OpenBabel11052420033D

 37 40  0  0  1  0  0  0  0  0999 V2000
  190.9710  177.4520  144.3190 C   0  0  0  0  0  2  0  0  0  0  0  0
  188.9230  174.1030  142.4770 C   0  0  0  0  0  2  0  0  0  0  0  0
  194.5370  175.5520  142.1400 C   0  0  0  0  0  2  0  0  0  0  0  0
  190.4500  176.4440  143.2890 C   0  0  2  0  0  3  0  0  0  0  0  0
  193.3230  175.7700  142.9950 C   0  0  0  0  0  0  0  0  0  0  0  0
  188.9870  176.5070  143.1490 N   0  0  0  0  0  0  0  0  0  0  0  0
  193.3470  176.7930  143.7950 N   0  0  0  0  0  0  0  0  0  0  0  0
  192.2310  174.6910  142.9420 C   0  0  2  0  0  3  0  0  0  0  0  0
  193.1980  173.9590  140.7250 C   0  0  0  0  0  2  0  0  0  0  0  0
  192.3960  177.1660  144.8290 C   0  0  2  0  0  3  0  0  0  0  0  0
  191.9290  174.3220  141.4820 C   0  0  0  0  0  2  0  0  0  0  0  0
  188.5920  175.5570  142.1070 C   0  0  0  0  0  2  0  0  0  0  0  0
  190.9290  175.0410  143.6810 C   0  0  2  0  0  3  0  0  0  0  0  0
  194.1420  175.1600  140.7160 C   0  0  2  0  0  3  0  0  0  0  0  0
  189.8030  173.9600  143.7290 C   0  0  1  0  0  0  0  0  0  0  0  0
  195.3090  174.9030  139.9010 N   0  0  0  0  0  0  0  0  0  0  0  0
  196.4810  175.3220  140.2260 C   0  0  0  0  0  2  0  0  0  0  0  0
  192.0440  176.5770  147.0890 O   0  0  0  0  0  0  0  0  0  0  0  0
  192.4420  176.2240  145.9920 C   0  0  0  0  0  3  0  0  0  0  0  0
  188.9630  174.1650  144.8550 O   0  0  0  0  0  0  0  0  0  0  0  0
  189.7110  174.0800  146.0430 C   0  0  0  0  0  2  0  0  0  0  0  0
  188.5630  175.8300  146.7350 C   0  0  0  0  0  1  0  0  0  0  0  0
  188.9440  174.5430  147.1100 O   0  0  0  0  0  0  0  0  0  0  0  0
  190.3980  172.5350  143.7380 C   0  0  0  0  0  2  0  0  0  0  0  0
  189.6900  171.6000  142.7680 C   0  0  0  0  0  2  0  0  0  0  0  0
  190.6560  170.6900  142.1810 N   0  0  0  0  0  2  0  0  0  0  0  0
  193.0580  170.4190  142.0250 C   0  0  0  0  0  1  0  0  0  0  0  0
  191.9080  170.8990  142.8850 C   0  0  0  0  0  2  0  0  0  0  0  0
  188.6290  177.8180  142.6240 C   0  0  0  0  0  2  0  0  0  0  0  0
  187.1690  177.8200  142.2090 C   0  0  0  0  0  2  0  0  0  0  0  0
  185.8540  179.4700  143.5510 C   0  0  0  0  0  3  0  0  0  0  0  0
  186.3100  178.1590  143.3750 C   0  0  0  0  0  0  0  0  0  0  0  0
  185.9830  177.1760  144.3130 C   0  0  0  0  0  3  0  0  0  0  0  0
  184.8770  176.5450  146.3270 F   0  0  0  0  0  0  0  0  0  0  0  0
  184.7330  178.8070  145.5930 C   0  0  0  0  0  3  0  0  0  0  0  0
  185.1930  177.4990  145.4200 C   0  0  0  0  0  0  0  0  0  0  0  0
  185.0630  179.7930  144.6590 C   0  0  0  0  0  3  0  0  0  0  0  0
  1 10  1  0  0  0  0
  2 15  1  0  0  0  0
  3  5  1  0  0  0  0
  4 13  1  0  0  0  0
  4  1  1  1  0  0  0
  5  7  2  0  0  0  0
  6  4  1  0  0  0  0
  7 10  1  0  0  0  0
  8 11  1  6  0  0  0
  8  5  1  0  0  0  0
  8 13  1  0  0  0  0
  9 11  1  0  0  0  0
 10 19  1  1  0  0  0
 12  2  1  0  0  0  0
 12  6  1  0  0  0  0
 13 15  1  0  0  0  0
 14  9  1  0  0  0  0
 14  3  1  0  0  0  0
 15 24  1  0  0  0  0
 15 20  1  0  0  0  0
 16 17  2  0  0  0  0
 16 14  1  0  0  0  0
 19 18  2  0  0  0  0
 20 21  1  0  0  0  0
 21 23  1  0  0  0  0
 22 23  1  0  0  0  0
 25 24  1  0  0  0  0
 26 25  1  0  0  0  0
 26 28  1  0  0  0  0
 27 28  1  0  0  0  0
 29  6  1  0  0  0  0
 30 29  1  0  0  0  0
 30 32  1  0  0  0  0
 31 37  1  0  0  0  0
 32 31  2  0  0  0  0
 32 33  1  0  0  0  0
 33 36  2  0  0  0  0
 36 35  1  0  0  0  0
 36 34  1  0  0  0  0
 37 35  2  0  0  0  0
M  END
>  <MODEL>
3

>  <REMARK>
 VINA RESULT:      -6.4      3.115      7.215
  Name = 
  12 active torsions:
  status: ('A' for Active; 'I' for Inactive)
    1  A    between atoms: O_1  and  C_5
    2  A    between atoms: O_1  and  C_36
    3  A    between atoms: N_3  and  C_32
    4  A    between atoms: C_5  and  O_23
    5  A    between atoms: C_6  and  C_31
    6  A    between atoms: N_14  and  C_37
    7  A    between atoms: C_17  and  N_26
    8  A    between atoms: C_17  and  C_33
    9  A    between atoms: CA_24  and  C_28
   10  A    between atoms: N_26  and  C_34
   11  A    between atoms: C_31  and  C_37
   12  A    between atoms: C_33  and  C_36
                            x       y       z     vdW  Elec       q    Type
                         _______ _______ _______ _____ _____    ______ ____

>  <TORSDO>
F 12

$$$$
=
 OpenBabel11052420033D

 37 40  0  0  1  0  0  0  0  0999 V2000
  189.6140  174.0850  143.6230 C   0  0  0  0  0  2  0  0  0  0  0  0
  192.9700  175.1350  146.1610 C   0  0  0  0  0  2  0  0  0  0  0  0
  192.2090  170.3600  142.9440 C   0  0  0  0  0  2  0  0  0  0  0  0
  190.7090  174.0360  144.6940 C   0  0  2  0  0  3  0  0  0  0  0  0
  191.7290  171.7770  143.0650 C   0  0  0  0  0  0  0  0  0  0  0  0
  190.5110  175.0590  145.7320 N   0  0  0  0  0  0  0  0  0  0  0  0
  190.6010  172.0640  142.4870 N   0  0  0  0  0  0  0  0  0  0  0  0
  192.6770  172.7790  143.7390 C   0  0  2  0  0  3  0  0  0  0  0  0
  193.8500  170.8060  144.7980 C   0  0  0  0  0  2  0  0  0  0  0  0
  189.9680  173.3600  142.3110 C   0  0  2  0  0  3  0  0  0  0  0  0
  193.2370  172.1790  145.0370 C   0  0  0  0  0  2  0  0  0  0  0  0
  191.5650  174.8930  146.7350 C   0  0  0  0  0  2  0  0  0  0  0  0
  192.0760  174.1670  144.0120 C   0  0  2  0  0  3  0  0  0  0  0  0
  192.7740  169.8580  144.2720 C   0  0  2  0  0  3  0  0  0  0  0  0
  193.0080  175.2580  144.6300 C   0  0  1  0  0  0  0  0  0  0  0  0
  193.2810  168.5090  144.1480 N   0  0  0  0  0  0  0  0  0  0  0  0
  194.4400  168.1660  144.5870 C   0  0  0  0  0  2  0  0  0  0  0  0
  191.1060  173.7470  140.2780 O   0  0  0  0  0  0  0  0  0  0  0  0
  190.7150  174.2150  141.3340 C   0  0  0  0  0  3  0  0  0  0  0  0
  192.5380  176.5580  144.3040 O   0  0  0  0  0  0  0  0  0  0  0  0
  192.4320  176.7010  142.9080 C   0  0  0  0  0  2  0  0  0  0  0  0
  190.9900  178.1190  143.7870 C   0  0  0  0  0  1  0  0  0  0  0  0
  191.2960  177.4490  142.6040 O   0  0  0  0  0  0  0  0  0  0  0  0
  194.4700  175.0690  144.1680 C   0  0  0  0  0  2  0  0  0  0  0  0
  195.4640  175.1950  145.3140 C   0  0  0  0  0  2  0  0  0  0  0  0
  196.6910  174.5000  144.9680 N   0  0  0  0  0  2  0  0  0  0  0  0
  196.9020  172.2850  145.9260 C   0  0  0  0  0  1  0  0  0  0  0  0
  197.1040  173.7690  146.1520 C   0  0  0  0  0  2  0  0  0  0  0  0
  189.2690  174.7690  146.4350 C   0  0  0  0  0  2  0  0  0  0  0  0
  188.7200  176.0450  147.0490 C   0  0  0  0  0  2  0  0  0  0  0  0
  187.7280  176.8170  144.8870 C   0  0  0  0  0  3  0  0  0  0  0  0
  187.5680  176.5380  146.2480 C   0  0  0  0  0  0  0  0  0  0  0  0
  186.3300  176.7530  146.8620 C   0  0  0  0  0  3  0  0  0  0  0  0
  184.0540  177.4420  146.7110 F   0  0  0  0  0  0  0  0  0  0  0  0
  185.4110  177.5080  144.7540 C   0  0  0  0  0  3  0  0  0  0  0  0
  185.2520  177.2350  146.1150 C   0  0  0  0  0  0  0  0  0  0  0  0
  186.6490  177.3000  144.1400 C   0  0  0  0  0  3  0  0  0  0  0  0
  2 12  1  0  0  0  0
  3  5  1  0  0  0  0
  3 14  1  0  0  0  0
  4  1  1  6  0  0  0
  4  6  1  0  0  0  0
  5  8  1  0  0  0  0
  6 29  1  0  0  0  0
  6 12  1  0  0  0  0
  7  5  2  0  0  0  0
  8 13  1  0  0  0  0
  8 11  1  1  0  0  0
  9 11  1  0  0  0  0
 10 19  1  6  0  0  0
 10  7  1  0  0  0  0
 10  1  1  0  0  0  0
 13 15  1  0  0  0  0
 13  4  1  0  0  0  0
 14  9  1  0  0  0  0
 15  2  1  0  0  0  0
 16 14  1  0  0  0  0
 16 17  2  0  0  0  0
 18 19  2  0  0  0  0
 20 15  1  0  0  0  0
 21 20  1  0  0  0  0
 23 21  1  0  0  0  0
 23 22  1  0  0  0  0
 24 15  1  0  0  0  0
 24 25  1  0  0  0  0
 26 25  1  0  0  0  0
 26 28  1  0  0  0  0
 27 28  1  0  0  0  0
 29 30  1  0  0  0  0
 31 32  1  0  0  0  0
 32 33  2  0  0  0  0
 32 30  1  0  0  0  0
 35 36  2  0  0  0  0
 36 34  1  0  0  0  0
 36 33  1  0  0  0  0
 37 35  1  0  0  0  0
 37 31  2  0  0  0  0
M  END
>  <MODEL>
4

>  <REMARK>
 VINA RESULT:      -6.4      3.396      7.615
  Name = 
  12 active torsions:
  status: ('A' for Active; 'I' for Inactive)
    1  A    between atoms: O_1  and  C_5
    2  A    between atoms: O_1  and  C_36
    3  A    between atoms: N_3  and  C_32
    4  A    between atoms: C_5  and  O_23
    5  A    between atoms: C_6  and  C_31
    6  A    between atoms: N_14  and  C_37
    7  A    between atoms: C_17  and  N_26
    8  A    between atoms: C_17  and  C_33
    9  A    between atoms: CA_24  and  C_28
   10  A    between atoms: N_26  and  C_34
   11  A    between atoms: C_31  and  C_37
   12  A    between atoms: C_33  and  C_36
                            x       y       z     vdW  Elec       q    Type
                         _______ _______ _______ _____ _____    ______ ____

>  <TORSDO>
F 12

$$$$
=
 OpenBabel11052420033D

 37 40  0  0  1  0  0  0  0  0999 V2000
  191.2490  175.0580  145.6830 C   0  0  0  0  0  2  0  0  0  0  0  0
  189.6330  177.8260  142.7610 C   0  0  0  0  0  2  0  0  0  0  0  0
  189.6700  172.0200  142.6250 C   0  0  0  0  0  2  0  0  0  0  0  0
  190.9450  175.7830  144.3670 C   0  0  2  0  0  3  0  0  0  0  0  0
  189.7870  173.1670  143.5860 C   0  0  0  0  0  0  0  0  0  0  0  0
  191.4160  177.1770  144.3840 N   0  0  0  0  0  0  0  0  0  0  0  0
  190.3240  172.9110  144.7410 N   0  0  0  0  0  0  0  0  0  0  0  0
  189.1380  174.4950  143.1660 C   0  0  2  0  0  3  0  0  0  0  0  0
  189.2240  173.6700  140.7790 C   0  0  0  0  0  2  0  0  0  0  0  0
  190.4340  173.7710  145.9070 C   0  0  2  0  0  3  0  0  0  0  0  0
  189.5210  174.8310  141.7180 C   0  0  0  0  0  2  0  0  0  0  0  0
  191.1360  177.7630  143.0720 C   0  0  0  0  0  2  0  0  0  0  0  0
  189.4400  175.6900  144.0860 C   0  0  2  0  0  3  0  0  0  0  0  0
  190.0410  172.4530  141.2070 C   0  0  2  0  0  3  0  0  0  0  0  0
  188.7540  177.0540  143.7590 C   0  0  1  0  0  0  0  0  0  0  0  0
  189.8850  171.3620  140.2700 N   0  0  0  0  0  0  0  0  0  0  0  0
  190.3930  171.3910  139.0880 C   0  0  0  0  0  2  0  0  0  0  0  0
  189.0280  174.5770  147.6260 O   0  0  0  0  0  0  0  0  0  0  0  0
  189.1020  174.0060  146.5510 C   0  0  0  0  0  3  0  0  0  0  0  0
  188.6510  177.8530  144.9280 O   0  0  0  0  0  0  0  0  0  0  0  0
  187.6150  177.3780  145.7530 C   0  0  0  0  0  2  0  0  0  0  0  0
  186.6640  178.1910  147.5680 C   0  0  0  0  0  1  0  0  0  0  0  0
  187.8810  177.7200  147.0770 O   0  0  0  0  0  0  0  0  0  0  0  0
  187.3670  176.8410  143.1140 C   0  0  0  0  0  2  0  0  0  0  0  0
  187.0410  177.8990  142.0690 C   0  0  0  0  0  2  0  0  0  0  0  0
  186.0520  178.8170  142.6030 N   0  0  0  0  0  2  0  0  0  0  0  0
  184.3160  178.7180  144.2900 C   0  0  0  0  0  1  0  0  0  0  0  0
  184.9670  178.0050  143.1230 C   0  0  0  0  0  2  0  0  0  0  0  0
  192.8680  177.1720  144.4970 C   0  0  0  0  0  2  0  0  0  0  0  0
  193.4720  176.4730  143.2930 C   0  0  0  0  0  2  0  0  0  0  0  0
  195.8280  175.8500  142.7340 C   0  0  0  0  0  3  0  0  0  0  0  0
  194.7800  175.8690  143.6610 C   0  0  0  0  0  0  0  0  0  0  0  0
  194.9560  175.2930  144.9220 C   0  0  0  0  0  3  0  0  0  0  0  0
  196.3470  174.1500  146.4830 F   0  0  0  0  0  0  0  0  0  0  0  0
  197.2270  174.6930  144.3370 C   0  0  0  0  0  3  0  0  0  0  0  0
  196.1790  174.7070  145.2610 C   0  0  0  0  0  0  0  0  0  0  0  0
  197.0520  175.2640  143.0730 C   0  0  0  0  0  3  0  0  0  0  0  0
  1 10  1  0  0  0  0
  2 12  1  0  0  0  0
  2 15  1  0  0  0  0
  3  5  1  0  0  0  0
  4  6  1  0  0  0  0
  4  1  1  1  0  0  0
  5  7  2  0  0  0  0
  6 29  1  0  0  0  0
  7 10  1  0  0  0  0
  8 11  1  6  0  0  0
  8  5  1  0  0  0  0
  8 13  1  0  0  0  0
  9 14  1  0  0  0  0
  9 11  1  0  0  0  0
 10 19  1  6  0  0  0
 12  6  1  0  0  0  0
 13  4  1  0  0  0  0
 14  3  1  0  0  0  0
 15 13  1  0  0  0  0
 15 20  1  0  0  0  0
 16 14  1  0  0  0  0
 17 16  2  0  0  0  0
 19 18  2  0  0  0  0
 20 21  1  0  0  0  0
 21 23  1  0  0  0  0
 23 22  1  0  0  0  0
 24 15  1  0  0  0  0
 25 26  1  0  0  0  0
 25 24  1  0  0  0  0
 26 28  1  0  0  0  0
 28 27  1  0  0  0  0
 30 32  1  0  0  0  0
 30 29  1  0  0  0  0
 31 37  2  0  0  0  0
 31 32  1  0  0  0  0
 32 33  2  0  0  0  0
 33 36  1  0  0  0  0
 35 36  2  0  0  0  0
 36 34  1  0  0  0  0
 37 35  1  0  0  0  0
M  END
>  <MODEL>
5

>  <REMARK>
 VINA RESULT:      -6.3      1.719      2.206
  Name = 
  12 active torsions:
  status: ('A' for Active; 'I' for Inactive)
    1  A    between atoms: O_1  and  C_5
    2  A    between atoms: O_1  and  C_36
    3  A    between atoms: N_3  and  C_32
    4  A    between atoms: C_5  and  O_23
    5  A    between atoms: C_6  and  C_31
    6  A    between atoms: N_14  and  C_37
    7  A    between atoms: C_17  and  N_26
    8  A    between atoms: C_17  and  C_33
    9  A    between atoms: CA_24  and  C_28
   10  A    between atoms: N_26  and  C_34
   11  A    between atoms: C_31  and  C_37
   12  A    between atoms: C_33  and  C_36
                            x       y       z     vdW  Elec       q    Type
                         _______ _______ _______ _____ _____    ______ ____

>  <TORSDO>
F 12

$$$$
=
 OpenBabel11052420033D

 37 40  0  0  1  0  0  0  0  0999 V2000
  190.9520  174.4460  142.4340 C   0  0  0  0  0  2  0  0  0  0  0  0
  190.1230  177.3000  145.5920 C   0  0  0  0  0  2  0  0  0  0  0  0
  187.0070  176.1570  140.8260 C   0  0  0  0  0  2  0  0  0  0  0  0
  190.6240  175.7400  143.1860 C   0  0  2  0  0  3  0  0  0  0  0  0
  188.0590  175.5510  141.7080 C   0  0  0  0  0  0  0  0  0  0  0  0
  191.7320  176.1700  144.0530 N   0  0  0  0  0  0  0  0  0  0  0  0
  188.7570  174.5780  141.2030 N   0  0  0  0  0  0  0  0  0  0  0  0
  188.1190  176.0440  143.1610 C   0  0  2  0  0  3  0  0  0  0  0  0
  186.8690  178.1080  142.4090 C   0  0  0  0  0  2  0  0  0  0  0  0
  189.7260  173.7140  141.8560 C   0  0  2  0  0  3  0  0  0  0  0  0
  188.0590  177.5780  143.1980 C   0  0  0  0  0  2  0  0  0  0  0  0
  191.3500  177.4380  144.6780 C   0  0  0  0  0  2  0  0  0  0  0  0
  189.3230  175.5410  143.9740 C   0  0  2  0  0  3  0  0  0  0  0  0
  187.0010  177.6810  140.9490 C   0  0  2  0  0  3  0  0  0  0  0  0
  189.4070  175.9450  145.4800 C   0  0  1  0  0  0  0  0  0  0  0  0
  185.9570  178.2670  140.1360 N   0  0  0  0  0  0  0  0  0  0  0  0
  184.7270  178.2950  140.5110 C   0  0  0  0  0  2  0  0  0  0  0  0
  189.7470  172.0350  143.5170 O   0  0  0  0  0  0  0  0  0  0  0  0
  189.0720  172.7770  142.8230 C   0  0  0  0  0  3  0  0  0  0  0  0
  190.1830  175.0030  146.2060 O   0  0  0  0  0  0  0  0  0  0  0  0
  190.1060  175.2680  147.5860 C   0  0  0  0  0  2  0  0  0  0  0  0
  192.2410  174.8990  147.1790 C   0  0  0  0  0  1  0  0  0  0  0  0
  191.3830  175.5260  148.0810 O   0  0  0  0  0  0  0  0  0  0  0  0
  187.9990  176.0910  146.0980 C   0  0  0  0  0  2  0  0  0  0  0  0
  187.7290  177.5010  146.6050 C   0  0  0  0  0  2  0  0  0  0  0  0
  186.3690  177.5810  147.1070 N   0  0  0  0  0  2  0  0  0  0  0  0
  184.9920  179.0230  145.7310 C   0  0  0  0  0  1  0  0  0  0  0  0
  185.4980  177.6110  145.9470 C   0  0  0  0  0  2  0  0  0  0  0  0
  192.8780  176.4890  143.2140 C   0  0  0  0  0  2  0  0  0  0  0  0
  194.1040  176.7040  144.0830 C   0  0  0  0  0  2  0  0  0  0  0  0
  194.6790  174.3780  143.3670 C   0  0  0  0  0  3  0  0  0  0  0  0
  194.8020  175.4100  144.3040 C   0  0  0  0  0  0  0  0  0  0  0  0
  195.5590  175.2120  145.4630 C   0  0  0  0  0  3  0  0  0  0  0  0
  196.9320  173.7990  146.8030 F   0  0  0  0  0  0  0  0  0  0  0  0
  196.0800  172.9600  144.7420 C   0  0  0  0  0  3  0  0  0  0  0  0
  196.1990  173.9890  145.6800 C   0  0  0  0  0  0  0  0  0  0  0  0
  195.3200  173.1540  143.5860 C   0  0  0  0  0  3  0  0  0  0  0  0
  3 14  1  0  0  0  0
  3  5  1  0  0  0  0
  4  1  1  1  0  0  0
  4 13  1  0  0  0  0
  4  6  1  0  0  0  0
  5  8  1  0  0  0  0
  6 12  1  0  0  0  0
  7  5  2  0  0  0  0
  7 10  1  0  0  0  0
  8 11  1  6  0  0  0
  8 13  1  0  0  0  0
  9 11  1  0  0  0  0
 10  1  1  0  0  0  0
 10 19  1  1  0  0  0
 12  2  1  0  0  0  0
 13 15  1  0  0  0  0
 14  9  1  0  0  0  0
 15  2  1  0  0  0  0
 15 24  1  0  0  0  0
 15 20  1  0  0  0  0
 16 17  2  0  0  0  0
 16 14  1  0  0  0  0
 19 18  2  0  0  0  0
 20 21  1  0  0  0  0
 21 23  1  0  0  0  0
 22 23  1  0  0  0  0
 24 25  1  0  0  0  0
 25 26  1  0  0  0  0
 27 28  1  0  0  0  0
 28 26  1  0  0  0  0
 29  6  1  0  0  0  0
 29 30  1  0  0  0  0
 30 32  1  0  0  0  0
 31 37  2  0  0  0  0
 31 32  1  0  0  0  0
 32 33  2  0  0  0  0
 33 36  1  0  0  0  0
 35 36  2  0  0  0  0
 36 34  1  0  0  0  0
 37 35  1  0  0  0  0
M  END
>  <MODEL>
6

>  <REMARK>
 VINA RESULT:      -6.3      1.781      2.298
  Name = 
  12 active torsions:
  status: ('A' for Active; 'I' for Inactive)
    1  A    between atoms: O_1  and  C_5
    2  A    between atoms: O_1  and  C_36
    3  A    between atoms: N_3  and  C_32
    4  A    between atoms: C_5  and  O_23
    5  A    between atoms: C_6  and  C_31
    6  A    between atoms: N_14  and  C_37
    7  A    between atoms: C_17  and  N_26
    8  A    between atoms: C_17  and  C_33
    9  A    between atoms: CA_24  and  C_28
   10  A    between atoms: N_26  and  C_34
   11  A    between atoms: C_31  and  C_37
   12  A    between atoms: C_33  and  C_36
                            x       y       z     vdW  Elec       q    Type
                         _______ _______ _______ _____ _____    ______ ____

>  <TORSDO>
F 12

$$$$
=
 OpenBabel11052420033D

 37 40  0  0  1  0  0  0  0  0999 V2000
  189.1300  177.0700  144.1720 C   0  0  0  0  0  2  0  0  0  0  0  0
  190.6650  174.9280  147.6160 C   0  0  0  0  0  2  0  0  0  0  0  0
  191.4140  173.7470  141.9790 C   0  0  0  0  0  2  0  0  0  0  0  0
  189.4730  175.9570  145.1680 C   0  0  2  0  0  3  0  0  0  0  0  0
  191.0450  174.8750  142.8980 C   0  0  0  0  0  0  0  0  0  0  0  0
  188.8220  176.1630  146.4710 N   0  0  0  0  0  0  0  0  0  0  0  0
  190.4270  175.8860  142.3650 N   0  0  0  0  0  0  0  0  0  0  0  0
  191.5520  174.7880  144.3450 C   0  0  2  0  0  3  0  0  0  0  0  0
  191.8320  172.3010  143.9950 C   0  0  0  0  0  2  0  0  0  0  0  0
  190.0800  177.1630  142.9640 C   0  0  2  0  0  3  0  0  0  0  0  0
  191.2850  173.3860  144.9110 C   0  0  0  0  0  2  0  0  0  0  0  0
  189.1590  175.0250  147.3280 C   0  0  0  0  0  2  0  0  0  0  0  0
  190.9980  175.8600  145.2980 C   0  0  2  0  0  3  0  0  0  0  0  0
  191.1430  172.3940  142.6350 C   0  0  2  0  0  3  0  0  0  0  0  0
  191.5270  175.8750  146.7670 C   0  0  1  0  0  0  0  0  0  0  0  0
  191.5410  171.3040  141.7710 N   0  0  0  0  0  0  0  0  0  0  0  0
  191.1690  171.2300  140.5420 C   0  0  0  0  0  2  0  0  0  0  0  0
  191.2230  178.9900  143.9320 O   0  0  0  0  0  0  0  0  0  0  0  0
  191.2930  178.0060  143.2150 C   0  0  0  0  0  3  0  0  0  0  0  0
  191.3980  177.1730  147.3300 O   0  0  0  0  0  0  0  0  0  0  0  0
  191.5900  177.1210  148.7220 C   0  0  0  0  0  2  0  0  0  0  0  0
  190.0300  178.6770  148.6600 C   0  0  0  0  0  1  0  0  0  0  0  0
  191.2290  178.3420  149.2870 O   0  0  0  0  0  0  0  0  0  0  0  0
  192.9910  175.3870  146.8380 C   0  0  0  0  0  2  0  0  0  0  0  0
  193.9720  176.3990  146.2620 C   0  0  0  0  0  2  0  0  0  0  0  0
  194.9900  175.7030  145.4970 N   0  0  0  0  0  2  0  0  0  0  0  0
  194.7200  175.4270  143.1060 C   0  0  0  0  0  1  0  0  0  0  0  0
  195.0900  176.3840  144.2190 C   0  0  0  0  0  2  0  0  0  0  0  0
  187.3790  176.0840  146.2840 C   0  0  0  0  0  2  0  0  0  0  0  0
  186.7080  177.2400  147.0020 C   0  0  0  0  0  2  0  0  0  0  0  0
  184.5300  178.3200  146.4100 C   0  0  0  0  0  3  0  0  0  0  0  0
  185.8430  177.9930  146.0540 C   0  0  0  0  0  0  0  0  0  0  0  0
  186.3310  178.3490  144.7930 C   0  0  0  0  0  3  0  0  0  0  0  0
  185.9880  179.3830  142.6740 F   0  0  0  0  0  0  0  0  0  0  0  0
  184.2030  179.3690  144.2530 C   0  0  0  0  0  3  0  0  0  0  0  0
  185.5130  179.0380  143.8940 C   0  0  0  0  0  0  0  0  0  0  0  0
  183.7120  179.0100  145.5110 C   0  0  0  0  0  3  0  0  0  0  0  0
  3 14  1  0  0  0  0
  3  5  1  0  0  0  0
  4  1  1  6  0  0  0
  4 13  1  0  0  0  0
  4  6  1  0  0  0  0
  5  8  1  0  0  0  0
  6 12  1  0  0  0  0
  7  5  2  0  0  0  0
  7 10  1  0  0  0  0
  8 11  1  1  0  0  0
  8 13  1  0  0  0  0
  9 11  1  0  0  0  0
 10 19  1  1  0  0  0
 10  1  1  0  0  0  0
 12  2  1  0  0  0  0
 13 15  1  0  0  0  0
 14  9  1  0  0  0  0
 15 24  1  0  0  0  0
 15 20  1  0  0  0  0
 15  2  1  0  0  0  0
 16 14  1  0  0  0  0
 17 16  2  0  0  0  0
 19 18  2  0  0  0  0
 20 21  1  0  0  0  0
 21 23  1  0  0  0  0
 22 23  1  0  0  0  0
 25 24  1  0  0  0  0
 26 25  1  0  0  0  0
 27 28  1  0  0  0  0
 28 26  1  0  0  0  0
 29  6  1  0  0  0  0
 29 30  1  0  0  0  0
 32 31  1  0  0  0  0
 32 30  1  0  0  0  0
 33 32  2  0  0  0  0
 34 36  1  0  0  0  0
 35 37  1  0  0  0  0
 36 35  2  0  0  0  0
 36 33  1  0  0  0  0
 37 31  2  0  0  0  0
M  END
>  <MODEL>
7

>  <REMARK>
 VINA RESULT:      -6.2      3.260      7.306
  Name = 
  12 active torsions:
  status: ('A' for Active; 'I' for Inactive)
    1  A    between atoms: O_1  and  C_5
    2  A    between atoms: O_1  and  C_36
    3  A    between atoms: N_3  and  C_32
    4  A    between atoms: C_5  and  O_23
    5  A    between atoms: C_6  and  C_31
    6  A    between atoms: N_14  and  C_37
    7  A    between atoms: C_17  and  N_26
    8  A    between atoms: C_17  and  C_33
    9  A    between atoms: CA_24  and  C_28
   10  A    between atoms: N_26  and  C_34
   11  A    between atoms: C_31  and  C_37
   12  A    between atoms: C_33  and  C_36
                            x       y       z     vdW  Elec       q    Type
                         _______ _______ _______ _____ _____    ______ ____

>  <TORSDO>
F 12

$$$$
=
 OpenBabel11052420033D

 37 40  0  0  1  0  0  0  0  0999 V2000
  189.7160  173.0620  144.2700 C   0  0  0  0  0  2  0  0  0  0  0  0
  192.4910  176.2850  145.1130 C   0  0  0  0  0  2  0  0  0  0  0  0
  193.5830  170.6070  144.5730 C   0  0  0  0  0  2  0  0  0  0  0  0
  190.8040  173.9210  144.9220 C   0  0  2  0  0  3  0  0  0  0  0  0
  192.5600  171.6410  144.2030 C   0  0  0  0  0  0  0  0  0  0  0  0
  190.2700  175.1910  145.4360 N   0  0  0  0  0  0  0  0  0  0  0  0
  191.3770  171.2060  143.8850 N   0  0  0  0  0  0  0  0  0  0  0  0
  193.0440  173.0950  144.1040 C   0  0  2  0  0  3  0  0  0  0  0  0
  195.0130  172.4350  145.5440 C   0  0  0  0  0  2  0  0  0  0  0  0
  190.2460  171.9460  143.3510 C   0  0  2  0  0  3  0  0  0  0  0  0
  193.8970  173.4490  145.3300 C   0  0  0  0  0  2  0  0  0  0  0  0
  191.3650  175.9100  146.0900 C   0  0  0  0  0  2  0  0  0  0  0  0
  191.9350  174.1420  143.9100 C   0  0  2  0  0  3  0  0  0  0  0  0
  194.4030  171.0560  145.7830 C   0  0  2  0  0  3  0  0  0  0  0  0
  192.3620  175.6330  143.7280 C   0  0  1  0  0  0  0  0  0  0  0  0
  195.4210  170.0830  146.1140 N   0  0  0  0  0  0  0  0  0  0  0  0
  195.1830  169.0650  146.8630 C   0  0  0  0  0  2  0  0  0  0  0  0
  190.7930  171.5820  141.0820 O   0  0  0  0  0  0  0  0  0  0  0  0
  190.4890  172.3910  141.9420 C   0  0  0  0  0  3  0  0  0  0  0  0
  191.3650  176.3540  143.0190 O   0  0  0  0  0  0  0  0  0  0  0  0
  191.5510  177.7380  143.1900 C   0  0  0  0  0  2  0  0  0  0  0  0
  189.4820  177.7860  142.4300 C   0  0  0  0  0  1  0  0  0  0  0  0
  190.3160  178.3510  143.3930 O   0  0  0  0  0  0  0  0  0  0  0  0
  193.7290  175.7390  143.0170 C   0  0  0  0  0  2  0  0  0  0  0  0
  194.8110  176.3190  143.9170 C   0  0  0  0  0  2  0  0  0  0  0  0
  196.0780  176.3220  143.2090 N   0  0  0  0  0  2  0  0  0  0  0  0
  197.0930  174.1320  143.0110 C   0  0  0  0  0  1  0  0  0  0  0  0
  196.9340  175.3620  143.8810 C   0  0  0  0  0  2  0  0  0  0  0  0
  189.3200  174.8960  146.5000 C   0  0  0  0  0  2  0  0  0  0  0  0
  188.8640  176.1890  147.1510 C   0  0  0  0  0  2  0  0  0  0  0  0
  187.3540  176.4650  145.1770 C   0  0  0  0  0  3  0  0  0  0  0  0
  187.5800  176.6350  146.5470 C   0  0  0  0  0  0  0  0  0  0  0  0
  186.6100  177.2540  147.3410 C   0  0  0  0  0  3  0  0  0  0  0  0
  184.4740  178.2900  147.5410 F   0  0  0  0  0  0  0  0  0  0  0  0
  185.1840  177.5160  145.4030 C   0  0  0  0  0  3  0  0  0  0  0  0
  185.4120  177.6910  146.7700 C   0  0  0  0  0  0  0  0  0  0  0  0
  186.1550  176.9030  144.6060 C   0  0  0  0  0  3  0  0  0  0  0  0
  2 12  1  0  0  0  0
  3 14  1  0  0  0  0
  4  1  1  6  0  0  0
  4  6  1  0  0  0  0
  5  3  1  0  0  0  0
  6 12  1  0  0  0  0
  6 29  1  0  0  0  0
  7  5  2  0  0  0  0
  8  5  1  0  0  0  0
  8 11  1  1  0  0  0
  9 14  1  0  0  0  0
 10 19  1  6  0  0  0
 10  7  1  0  0  0  0
 10  1  1  0  0  0  0
 11  9  1  0  0  0  0
 13  8  1  0  0  0  0
 13  4  1  0  0  0  0
 14 16  1  0  0  0  0
 15 13  1  0  0  0  0
 15  2  1  0  0  0  0
 16 17  2  0  0  0  0
 18 19  2  0  0  0  0
 20 21  1  0  0  0  0
 20 15  1  0  0  0  0
 21 23  1  0  0  0  0
 22 23  1  0  0  0  0
 24 15  1  0  0  0  0
 24 25  1  0  0  0  0
 26 28  1  0  0  0  0
 26 25  1  0  0  0  0
 27 28  1  0  0  0  0
 29 30  1  0  0  0  0
 31 32  1  0  0  0  0
 32 30  1  0  0  0  0
 32 33  2  0  0  0  0
 35 36  2  0  0  0  0
 36 33  1  0  0  0  0
 36 34  1  0  0  0  0
 37 31  2  0  0  0  0
 37 35  1  0  0  0  0
M  END
>  <MODEL>
8

>  <REMARK>
 VINA RESULT:      -6.1      3.401      7.729
  Name = 
  12 active torsions:
  status: ('A' for Active; 'I' for Inactive)
    1  A    between atoms: O_1  and  C_5
    2  A    between atoms: O_1  and  C_36
    3  A    between atoms: N_3  and  C_32
    4  A    between atoms: C_5  and  O_23
    5  A    between atoms: C_6  and  C_31
    6  A    between atoms: N_14  and  C_37
    7  A    between atoms: C_17  and  N_26
    8  A    between atoms: C_17  and  C_33
    9  A    between atoms: CA_24  and  C_28
   10  A    between atoms: N_26  and  C_34
   11  A    between atoms: C_31  and  C_37
   12  A    between atoms: C_33  and  C_36
                            x       y       z     vdW  Elec       q    Type
                         _______ _______ _______ _____ _____    ______ ____

>  <TORSDO>
F 12

$$$$
=
 OpenBabel11052420033D

 37 40  0  0  1  0  0  0  0  0999 V2000
  189.1180  177.9340  144.4290 C   0  0  0  0  0  2  0  0  0  0  0  0
  190.2540  174.5350  146.8710 C   0  0  0  0  0  2  0  0  0  0  0  0
  188.9010  174.6540  141.2240 C   0  0  0  0  0  2  0  0  0  0  0  0
  189.1260  176.5630  145.1140 C   0  0  2  0  0  3  0  0  0  0  0  0
  189.3610  175.5520  142.3350 C   0  0  0  0  0  0  0  0  0  0  0  0
  189.0040  176.6760  146.5750 N   0  0  0  0  0  0  0  0  0  0  0  0
  189.1890  176.8290  142.1650 N   0  0  0  0  0  0  0  0  0  0  0  0
  190.1100  174.8910  143.5010 C   0  0  2  0  0  3  0  0  0  0  0  0
  189.0690  172.6980  142.7980 C   0  0  0  0  0  2  0  0  0  0  0  0
  189.6580  177.9310  142.9870 C   0  0  2  0  0  3  0  0  0  0  0  0
  189.3580  173.6340  143.9620 C   0  0  0  0  0  2  0  0  0  0  0  0
  188.9600  175.3220  147.1310 C   0  0  0  0  0  2  0  0  0  0  0  0
  190.3960  175.8090  144.7010 C   0  0  2  0  0  3  0  0  0  0  0  0
  188.1910  173.4180  141.7760 C   0  0  2  0  0  3  0  0  0  0  0  0
  191.2190  175.2210  145.8900 C   0  0  1  0  0  0  0  0  0  0  0  0
  187.7880  172.5270  140.7110 N   0  0  0  0  0  0  0  0  0  0  0  0
  188.2030  172.6670  139.5020 C   0  0  0  0  0  2  0  0  0  0  0  0
  191.7470  178.7270  143.7510 O   0  0  0  0  0  0  0  0  0  0  0  0
  191.1450  178.0950  142.9000 C   0  0  0  0  0  3  0  0  0  0  0  0
  191.8720  176.2590  146.6060 O   0  0  0  0  0  0  0  0  0  0  0  0
  193.2030  175.8980  146.8820 C   0  0  0  0  0  2  0  0  0  0  0  0
  194.5650  177.1710  145.7060 C   0  0  0  0  0  1  0  0  0  0  0  0
  193.9880  177.0460  146.9680 O   0  0  0  0  0  0  0  0  0  0  0  0
  192.2350  174.1670  145.3990 C   0  0  0  0  0  2  0  0  0  0  0  0
  192.8570  174.5360  144.0600 C   0  0  0  0  0  2  0  0  0  0  0  0
  194.1170  173.8330  143.9020 N   0  0  0  0  0  2  0  0  0  0  0  0
  192.9610  173.1210  141.8950 C   0  0  0  0  0  1  0  0  0  0  0  0
  193.8540  172.6940  143.0420 C   0  0  0  0  0  2  0  0  0  0  0  0
  187.7060  177.2580  146.8870 C   0  0  0  0  0  2  0  0  0  0  0  0
  186.6070  176.4160  146.2640 C   0  0  0  0  0  2  0  0  0  0  0  0
  184.9000  178.2390  146.1210 C   0  0  0  0  0  3  0  0  0  0  0  0
  185.6910  177.2830  145.4750 C   0  0  0  0  0  0  0  0  0  0  0  0
  185.5950  177.1210  144.0890 C   0  0  0  0  0  3  0  0  0  0  0  0
  184.6290  177.7640  142.0080 F   0  0  0  0  0  0  0  0  0  0  0  0
  183.9350  178.8800  143.9950 C   0  0  0  0  0  3  0  0  0  0  0  0
  184.7200  177.9210  143.3500 C   0  0  0  0  0  0  0  0  0  0  0  0
  184.0240  179.0390  145.3810 C   0  0  0  0  0  3  0  0  0  0  0  0
  2 12  1  0  0  0  0
  3 14  1  0  0  0  0
  3  5  1  0  0  0  0
  4  1  1  6  0  0  0
  4  6  1  0  0  0  0
  5  8  1  0  0  0  0
  6 29  1  0  0  0  0
  6 12  1  0  0  0  0
  7  5  2  0  0  0  0
  7 10  1  0  0  0  0
  8 11  1  1  0  0  0
  8 13  1  0  0  0  0
  9 11  1  0  0  0  0
 10 19  1  1  0  0  0
 10  1  1  0  0  0  0
 13  4  1  0  0  0  0
 13 15  1  0  0  0  0
 14  9  1  0  0  0  0
 15 20  1  0  0  0  0
 15  2  1  0  0  0  0
 16 14  1  0  0  0  0
 17 16  2  0  0  0  0
 19 18  2  0  0  0  0
 20 21  1  0  0  0  0
 21 23  1  0  0  0  0
 22 23  1  0  0  0  0
 24 15  1  0  0  0  0
 25 24  1  0  0  0  0
 26 25  1  0  0  0  0
 27 28  1  0  0  0  0
 28 26  1  0  0  0  0
 30 29  1  0  0  0  0
 32 31  1  0  0  0  0
 32 30  1  0  0  0  0
 33 32  2  0  0  0  0
 34 36  1  0  0  0  0
 35 37  1  0  0  0  0
 36 35  2  0  0  0  0
 36 33  1  0  0  0  0
 37 31  2  0  0  0  0
M  END
>  <MODEL>
9

>  <REMARK>
 VINA RESULT:      -6.1      3.191      7.210
  Name = 
  12 active torsions:
  status: ('A' for Active; 'I' for Inactive)
    1  A    between atoms: O_1  and  C_5
    2  A    between atoms: O_1  and  C_36
    3  A    between atoms: N_3  and  C_32
    4  A    between atoms: C_5  and  O_23
    5  A    between atoms: C_6  and  C_31
    6  A    between atoms: N_14  and  C_37
    7  A    between atoms: C_17  and  N_26
    8  A    between atoms: C_17  and  C_33
    9  A    between atoms: CA_24  and  C_28
   10  A    between atoms: N_26  and  C_34
   11  A    between atoms: C_31  and  C_37
   12  A    between atoms: C_33  and  C_36
                            x       y       z     vdW  Elec       q    Type
                         _______ _______ _______ _____ _____    ______ ____

>  <TORSDO>
F 12

$$$$
