=
 OpenBabel11052419563D

 37 42  0  0  1  0  0  0  0  0999 V2000
  193.8590  172.1880  143.4440 C   0  0  0  0  0  0  0  0  0  0  0  0
  192.2460  175.1960  142.9710 C   0  0  2  0  0  3  0  0  0  0  0  0
  194.4880  174.4790  144.5290 C   0  0  0  0  0  2  0  0  0  0  0  0
  191.2950  174.4220  143.9050 C   0  0  0  0  0  2  0  0  0  0  0  0
  193.2740  174.2780  142.2640 C   0  0  2  0  0  3  0  0  0  0  0  0
  189.8980  175.0500  143.9850 C   0  0  1  0  0  3  0  0  0  0  0  0
  195.3840  176.4160  143.4300 O   0  0  0  0  0  1  0  0  0  0  0  0
  192.7170  173.0900  141.4840 C   0  0  1  0  0  3  0  0  0  0  0  0
  193.3430  171.8740  144.8410 C   0  0  0  0  0  1  0  0  0  0  0  0
  192.1970  177.1660  144.6980 C   0  0  0  0  0  2  0  0  0  0  0  0
  194.3580  175.9810  144.2710 C   0  0  1  0  0  3  0  0  0  0  0  0
  192.7450  171.9110  142.4430 C   0  0  0  0  0  2  0  0  0  0  0  0
  192.9940  176.3640  143.6710 C   0  0  1  0  0  3  0  0  0  0  0  0
  194.2720  173.6580  143.2430 C   0  0  2  0  0  3  0  0  0  0  0  0
  189.8730  176.3430  144.8120 C   0  0  1  0  0  3  0  0  0  0  0  0
  195.0430  171.2920  143.1390 C   0  0  0  0  0  1  0  0  0  0  0  0
  190.7710  177.4440  144.2610 C   0  0  0  0  0  2  0  0  0  0  0  0
  190.6120  172.0040  140.6790 C   0  0  0  0  0  2  0  0  0  0  0  0
  190.9570  171.4950  139.2790 C   0  0  1  0  0  0  0  0  0  0  0  0
  189.2900  172.1580  137.6610 C   0  0  2  0  0  3  0  0  0  0  0  0
  189.6920  171.0250  138.5640 C   0  0  0  0  0  2  0  0  0  0  0  0
  190.5700  172.9290  137.4340 C   0  0  0  0  0  2  0  0  0  0  0  0
  191.5160  173.7910  139.4050 C   0  0  0  0  0  2  0  0  0  0  0  0
  191.4980  172.6300  138.5200 N   0  0  1  0  0  0  0  0  0  0  0  0
  188.3710  172.9740  138.3230 O   0  0  0  0  0  1  0  0  0  0  0  0
  191.3490  173.3100  140.8300 C   0  0  2  0  0  3  0  0  0  0  0  0
  191.9440  170.4790  139.3210 O   0  0  0  0  0  0  0  0  0  0  0  0
  191.4290  169.3300  139.9500 C   0  0  0  0  0  1  0  0  0  0  0  0
  187.7500  176.3310  146.1950 C   0  0  0  0  0  3  0  0  0  0  0  0
  188.4830  176.8230  145.1030 C   0  0  0  0  0  0  0  0  0  0  0  0
  187.9210  177.8090  144.2840 C   0  0  0  0  0  3  0  0  0  0  0  0
  185.9380  179.5220  143.5130 Cl  0  0  0  0  0  0  0  0  0  0  0  0
  185.9070  177.7940  145.6280 C   0  0  0  0  0  3  0  0  0  0  0  0
  186.6350  178.2910  144.5440 C   0  0  0  0  0  0  0  0  0  0  0  0
  186.4640  176.8140  146.4550 C   0  0  0  0  0  3  0  0  0  0  0  0
  189.2440  175.1990  142.6140 C   0  0  0  0  0  2  0  0  0  0  0  0
  188.1500  174.1640  142.4510 C   0  0  0  0  0  1  0  0  0  0  0  0
  1  9  1  0  0  0  0
  2 13  1  0  0  0  0
  2  4  1  1  0  0  0
  4  6  1  0  0  0  0
  5  2  1  0  0  0  0
  5 14  1  0  0  0  0
  6 15  1  0  0  0  0
  7 11  1  0  0  0  0
  8  5  1  0  0  0  0
  8 12  1  0  0  0  0
 11  3  1  0  0  0  0
 12  1  1  0  0  0  0
 13 11  1  0  0  0  0
 13 10  1  0  0  0  0
 14  1  1  0  0  0  0
 14  3  1  0  0  0  0
 15 30  1  0  0  0  0
 16  1  1  0  0  0  0
 17 10  1  0  0  0  0
 17 15  1  0  0  0  0
 18 26  1  0  0  0  0
 19 27  1  0  0  0  0
 19 18  1  0  0  0  0
 20 25  1  0  0  0  0
 20 21  1  0  0  0  0
 21 19  1  0  0  0  0
 22 20  1  0  0  0  0
 22 24  1  0  0  0  0
 23 26  1  0  0  0  0
 24 19  1  0  0  0  0
 24 23  1  0  0  0  0
 26  8  1  0  0  0  0
 27 28  1  0  0  0  0
 29 35  1  0  0  0  0
 30 29  2  0  0  0  0
 31 34  2  0  0  0  0
 31 30  1  0  0  0  0
 32 34  1  0  0  0  0
 33 35  2  0  0  0  0
 34 33  1  0  0  0  0
 36  6  1  0  0  0  0
 37 36  1  0  0  0  0
M  END
>  <MODEL>
1

>  <REMARK>
 VINA RESULT:      -7.5      0.000      0.000
  Name = 
  4 active torsions:
  status: ('A' for Active; 'I' for Inactive)
    1  A    between atoms: C_5  and  O_12
    2  A    between atoms: C_6  and  C_31
    3  A    between atoms: C_7  and  C_14
    4  A    between atoms: C_20  and  C_36
                            x       y       z     vdW  Elec       q    Type
                         _______ _______ _______ _____ _____    ______ ____

>  <TORSDO>
F 4

$$$$
=
 OpenBabel11052419563D

 37 42  0  0  1  0  0  0  0  0999 V2000
  194.6990  172.2330  144.2030 C   0  0  0  0  0  0  0  0  0  0  0  0
  192.8400  174.9970  143.3190 C   0  0  2  0  0  3  0  0  0  0  0  0
  195.1390  174.7030  144.9300 C   0  0  0  0  0  2  0  0  0  0  0  0
  191.9600  174.2950  144.3710 C   0  0  0  0  0  2  0  0  0  0  0  0
  193.9380  174.0710  142.7390 C   0  0  2  0  0  3  0  0  0  0  0  0
  190.5160  174.8120  144.3800 C   0  0  1  0  0  3  0  0  0  0  0  0
  195.8680  176.5230  143.5450 O   0  0  0  0  0  1  0  0  0  0  0  0
  193.4790  172.7400  142.1500 C   0  0  1  0  0  3  0  0  0  0  0  0
  194.2160  172.0880  145.6400 C   0  0  0  0  0  1  0  0  0  0  0  0
  192.6350  177.1890  144.7390 C   0  0  0  0  0  2  0  0  0  0  0  0
  194.8850  176.1350  144.4570 C   0  0  1  0  0  3  0  0  0  0  0  0
  193.6080  171.7220  143.2720 C   0  0  0  0  0  2  0  0  0  0  0  0
  193.4920  176.3120  143.8290 C   0  0  1  0  0  3  0  0  0  0  0  0
  194.9880  173.6860  143.7820 C   0  0  2  0  0  3  0  0  0  0  0  0
  190.3880  176.2060  145.0100 C   0  0  1  0  0  3  0  0  0  0  0  0
  195.9520  171.4020  144.0150 C   0  0  0  0  0  1  0  0  0  0  0  0
  191.1890  177.2830  144.2880 C   0  0  0  0  0  2  0  0  0  0  0  0
  191.4950  171.3660  141.4900 C   0  0  0  0  0  2  0  0  0  0  0  0
  191.8890  170.7490  140.1480 C   0  0  1  0  0  0  0  0  0  0  0  0
  190.1620  171.0620  138.4880 C   0  0  2  0  0  3  0  0  0  0  0  0
  190.6780  170.0790  139.5010 C   0  0  0  0  0  2  0  0  0  0  0  0
  191.3560  171.9310  138.1660 C   0  0  0  0  0  2  0  0  0  0  0  0
  192.2100  173.0890  140.0230 C   0  0  0  0  0  2  0  0  0  0  0  0
  192.3110  171.8450  139.2660 N   0  0  1  0  0  0  0  0  0  0  0  0
  189.1650  171.8460  139.0700 O   0  0  0  0  0  1  0  0  0  0  0  0
  192.0950  172.7490  141.4930 C   0  0  2  0  0  3  0  0  0  0  0  0
  192.9750  169.8480  140.2850 O   0  0  0  0  0  0  0  0  0  0  0  0
  192.6130  168.7780  141.1240 C   0  0  0  0  0  1  0  0  0  0  0  0
  188.2450  176.1410  146.3610 C   0  0  0  0  0  3  0  0  0  0  0  0
  188.9630  176.6090  145.2490 C   0  0  0  0  0  0  0  0  0  0  0  0
  188.3510  177.4980  144.3580 C   0  0  0  0  0  3  0  0  0  0  0  0
  186.2730  179.0190  143.4470 Cl  0  0  0  0  0  0  0  0  0  0  0  0
  186.3190  177.4360  145.6720 C   0  0  0  0  0  3  0  0  0  0  0  0
  187.0320  177.9080  144.5670 C   0  0  0  0  0  0  0  0  0  0  0  0
  186.9260  176.5520  146.5700 C   0  0  0  0  0  3  0  0  0  0  0  0
  189.8470  174.7030  143.0130 C   0  0  0  0  0  2  0  0  0  0  0  0
  188.8730  173.5420  143.0090 C   0  0  0  0  0  1  0  0  0  0  0  0
  1  9  1  0  0  0  0
  2 13  1  0  0  0  0
  2  4  1  1  0  0  0
  4  6  1  0  0  0  0
  5  2  1  0  0  0  0
  5 14  1  0  0  0  0
  6 15  1  0  0  0  0
  7 11  1  0  0  0  0
  8  5  1  0  0  0  0
  8 12  1  0  0  0  0
 11  3  1  0  0  0  0
 12  1  1  0  0  0  0
 13 11  1  0  0  0  0
 13 10  1  0  0  0  0
 14  1  1  0  0  0  0
 14  3  1  0  0  0  0
 15 30  1  0  0  0  0
 16  1  1  0  0  0  0
 17 10  1  0  0  0  0
 17 15  1  0  0  0  0
 18 26  1  0  0  0  0
 19 27  1  0  0  0  0
 19 18  1  0  0  0  0
 20 25  1  0  0  0  0
 20 21  1  0  0  0  0
 21 19  1  0  0  0  0
 22 20  1  0  0  0  0
 22 24  1  0  0  0  0
 23 26  1  0  0  0  0
 24 23  1  0  0  0  0
 24 19  1  0  0  0  0
 26  8  1  0  0  0  0
 27 28  1  0  0  0  0
 29 35  1  0  0  0  0
 30 29  2  0  0  0  0
 31 34  2  0  0  0  0
 31 30  1  0  0  0  0
 32 34  1  0  0  0  0
 33 35  2  0  0  0  0
 34 33  1  0  0  0  0
 36  6  1  0  0  0  0
 37 36  1  0  0  0  0
M  END
>  <MODEL>
2

>  <REMARK>
 VINA RESULT:      -7.3      0.960      1.048
  Name = 
  4 active torsions:
  status: ('A' for Active; 'I' for Inactive)
    1  A    between atoms: C_5  and  O_12
    2  A    between atoms: C_6  and  C_31
    3  A    between atoms: C_7  and  C_14
    4  A    between atoms: C_20  and  C_36
                            x       y       z     vdW  Elec       q    Type
                         _______ _______ _______ _____ _____    ______ ____

>  <TORSDO>
F 4

$$$$
=
 OpenBabel11052419563D

 37 42  0  0  1  0  0  0  0  0999 V2000
  190.1310  175.5070  146.0800 C   0  0  0  0  0  0  0  0  0  0  0  0
  190.3990  175.2280  142.6560 C   0  0  2  0  0  3  0  0  0  0  0  0
  188.2420  175.9450  144.3300 C   0  0  0  0  0  2  0  0  0  0  0  0
  190.3370  173.7640  143.1310 C   0  0  0  0  0  2  0  0  0  0  0  0
  190.7490  176.2160  143.7960 C   0  0  2  0  0  3  0  0  0  0  0  0
  190.7680  172.7680  142.0480 C   0  0  1  0  0  3  0  0  0  0  0  0
  188.1140  177.7410  142.7430 O   0  0  0  0  0  1  0  0  0  0  0  0
  192.0200  175.9300  144.5920 C   0  0  1  0  0  3  0  0  0  0  0  0
  189.3380  174.2350  146.3470 C   0  0  0  0  0  1  0  0  0  0  0  0
  188.4160  174.6920  141.0300 C   0  0  0  0  0  2  0  0  0  0  0  0
  188.0620  176.3520  142.8660 C   0  0  1  0  0  3  0  0  0  0  0  0
  191.5790  175.1250  145.8050 C   0  0  0  0  0  2  0  0  0  0  0  0
  189.1060  175.7060  141.9390 C   0  0  1  0  0  3  0  0  0  0  0  0
  189.6470  176.3020  144.8530 C   0  0  2  0  0  3  0  0  0  0  0  0
  189.7130  172.5940  140.9470 C   0  0  1  0  0  3  0  0  0  0  0  0
  190.0690  176.3970  147.3050 C   0  0  0  0  0  1  0  0  0  0  0  0
  189.3890  173.8800  140.1950 C   0  0  0  0  0  2  0  0  0  0  0  0
  194.0120  174.4220  144.7130 C   0  0  0  0  0  2  0  0  0  0  0  0
  195.1500  175.3310  145.1800 C   0  0  1  0  0  0  0  0  0  0  0  0
  197.1060  175.0900  143.7830 C   0  0  2  0  0  3  0  0  0  0  0  0
  196.4870  174.6020  145.0630 C   0  0  0  0  0  2  0  0  0  0  0  0
  196.4550  176.4320  143.5390 C   0  0  0  0  0  2  0  0  0  0  0  0
  194.1210  176.3210  143.2940 C   0  0  0  0  0  2  0  0  0  0  0  0
  195.1930  176.4840  144.2710 N   0  0  1  0  0  0  0  0  0  0  0  0
  196.7690  174.2200  142.7450 O   0  0  0  0  0  1  0  0  0  0  0  0
  193.1590  175.2720  143.8070 C   0  0  2  0  0  3  0  0  0  0  0  0
  194.9290  175.8120  146.4950 O   0  0  0  0  0  0  0  0  0  0  0  0
  194.6450  177.1900  146.4640 C   0  0  0  0  0  1  0  0  0  0  0  0
  190.4800  170.2170  140.5150 C   0  0  0  0  0  3  0  0  0  0  0  0
  190.0130  171.4480  140.0260 C   0  0  0  0  0  0  0  0  0  0  0  0
  189.7890  171.6040  138.6540 C   0  0  0  0  0  3  0  0  0  0  0  0
  189.7590  170.7510  136.0590 Cl  0  0  0  0  0  0  0  0  0  0  0  0
  190.5090  169.3250  138.2650 C   0  0  0  0  0  3  0  0  0  0  0  0
  190.0390  170.5470  137.7750 C   0  0  0  0  0  0  0  0  0  0  0  0
  190.7290  169.1600  139.6360 C   0  0  0  0  0  3  0  0  0  0  0  0
  192.1640  173.0610  141.5050 C   0  0  0  0  0  2  0  0  0  0  0  0
  193.1460  172.0340  142.0310 C   0  0  0  0  0  1  0  0  0  0  0  0
  1  9  1  0  0  0  0
  1 16  1  0  0  0  0
  2  4  1  1  0  0  0
  2  5  1  0  0  0  0
  3 14  1  0  0  0  0
  5  8  1  0  0  0  0
  5 14  1  0  0  0  0
  6  4  1  0  0  0  0
  7 11  1  0  0  0  0
  8 12  1  0  0  0  0
 10 13  1  0  0  0  0
 11  3  1  0  0  0  0
 12  1  1  0  0  0  0
 13  2  1  0  0  0  0
 13 11  1  0  0  0  0
 14  1  1  0  0  0  0
 15  6  1  0  0  0  0
 17 15  1  0  0  0  0
 17 10  1  0  0  0  0
 18 19  1  0  0  0  0
 19 27  1  0  0  0  0
 20 21  1  0  0  0  0
 21 19  1  0  0  0  0
 22 20  1  0  0  0  0
 22 24  1  0  0  0  0
 23 26  1  0  0  0  0
 23 24  1  0  0  0  0
 24 19  1  0  0  0  0
 25 20  1  0  0  0  0
 26  8  1  0  0  0  0
 26 18  1  0  0  0  0
 28 27  1  0  0  0  0
 30 29  1  0  0  0  0
 30 15  1  0  0  0  0
 31 30  2  0  0  0  0
 32 34  1  0  0  0  0
 33 35  1  0  0  0  0
 34 33  2  0  0  0  0
 34 31  1  0  0  0  0
 35 29  2  0  0  0  0
 36 37  1  0  0  0  0
 36  6  1  0  0  0  0
M  END
>  <MODEL>
3

>  <REMARK>
 VINA RESULT:      -7.2      3.266      7.453
  Name = 
  4 active torsions:
  status: ('A' for Active; 'I' for Inactive)
    1  A    between atoms: C_5  and  O_12
    2  A    between atoms: C_6  and  C_31
    3  A    between atoms: C_7  and  C_14
    4  A    between atoms: C_20  and  C_36
                            x       y       z     vdW  Elec       q    Type
                         _______ _______ _______ _____ _____    ______ ____

>  <TORSDO>
F 4

$$$$
=
 OpenBabel11052419563D

 37 42  0  0  1  0  0  0  0  0999 V2000
  188.2640  177.0930  143.1580 C   0  0  0  0  0  0  0  0  0  0  0  0
  190.3840  174.8320  144.6650 C   0  0  2  0  0  3  0  0  0  0  0  0
  188.8800  176.9880  145.6940 C   0  0  0  0  0  2  0  0  0  0  0  0
  191.3430  175.7930  143.9370 C   0  0  0  0  0  2  0  0  0  0  0  0
  188.9280  174.9280  144.1460 C   0  0  2  0  0  3  0  0  0  0  0  0
  192.7690  175.2370  143.8230 C   0  0  1  0  0  3  0  0  0  0  0  0
  188.2600  175.2930  147.2770 O   0  0  0  0  0  1  0  0  0  0  0  0
  188.7170  174.7490  142.6450 C   0  0  1  0  0  3  0  0  0  0  0  0
  189.1840  178.3060  143.1710 C   0  0  0  0  0  1  0  0  0  0  0  0
  191.7450  175.2780  146.8590 C   0  0  0  0  0  2  0  0  0  0  0  0
  189.3510  175.9900  146.7540 C   0  0  1  0  0  3  0  0  0  0  0  0
  188.7230  176.1500  142.0540 C   0  0  0  0  0  2  0  0  0  0  0  0
  190.3920  174.9960  146.2100 C   0  0  1  0  0  3  0  0  0  0  0  0
  188.2830  176.2770  144.4650 C   0  0  2  0  0  3  0  0  0  0  0  0
  193.5300  175.2750  145.1550 C   0  0  1  0  0  3  0  0  0  0  0  0
  186.8460  177.5470  142.8760 C   0  0  0  0  0  1  0  0  0  0  0  0
  192.8750  174.4580  146.2620 C   0  0  0  0  0  2  0  0  0  0  0  0
  190.1450  174.3570  140.6290 C   0  0  0  0  0  2  0  0  0  0  0  0
  189.1830  173.7940  139.5830 C   0  0  1  0  0  0  0  0  0  0  0  0
  190.0590  171.7860  138.5650 C   0  0  2  0  0  3  0  0  0  0  0  0
  189.9620  173.2740  138.3770 C   0  0  0  0  0  2  0  0  0  0  0  0
  188.8960  171.4450  139.4690 C   0  0  0  0  0  2  0  0  0  0  0  0
  188.9830  172.5100  141.5610 C   0  0  0  0  0  2  0  0  0  0  0  0
  188.4950  172.6470  140.1920 N   0  0  1  0  0  0  0  0  0  0  0  0
  191.2540  171.4790  139.2160 O   0  0  0  0  0  1  0  0  0  0  0  0
  189.6890  173.7910  141.9490 C   0  0  2  0  0  3  0  0  0  0  0  0
  188.2040  174.7470  139.2050 O   0  0  0  0  0  0  0  0  0  0  0  0
  187.8280  174.5480  137.8640 C   0  0  0  0  0  1  0  0  0  0  0  0
  195.6500  174.0790  145.8610 C   0  0  0  0  0  3  0  0  0  0  0  0
  194.9910  174.9720  145.0010 C   0  0  0  0  0  0  0  0  0  0  0  0
  195.7010  175.5710  143.9540 C   0  0  0  0  0  3  0  0  0  0  0  0
  197.9400  176.0460  142.4630 Cl  0  0  0  0  0  0  0  0  0  0  0  0
  197.7110  174.4060  144.6350 C   0  0  0  0  0  3  0  0  0  0  0  0
  197.0580  175.2910  143.7730 C   0  0  0  0  0  0  0  0  0  0  0  0
  197.0060  173.7990  145.6790 C   0  0  0  0  0  3  0  0  0  0  0  0
  192.8120  173.8720  143.1420 C   0  0  0  0  0  2  0  0  0  0  0  0
  193.4710  173.9960  141.7830 C   0  0  0  0  0  1  0  0  0  0  0  0
  1  9  1  0  0  0  0
  1 14  1  0  0  0  0
  2  4  1  6  0  0  0
  2 13  1  0  0  0  0
  3 11  1  0  0  0  0
  5 14  1  0  0  0  0
  5  2  1  0  0  0  0
  6  4  1  0  0  0  0
  6 15  1  0  0  0  0
  8  5  1  0  0  0  0
 11  7  1  0  0  0  0
 12  8  1  0  0  0  0
 12  1  1  0  0  0  0
 13 11  1  0  0  0  0
 13 10  1  0  0  0  0
 14  3  1  0  0  0  0
 15 17  1  0  0  0  0
 16  1  1  0  0  0  0
 17 10  1  0  0  0  0
 18 26  1  0  0  0  0
 19 24  1  0  0  0  0
 19 18  1  0  0  0  0
 20 25  1  0  0  0  0
 20 22  1  0  0  0  0
 21 20  1  0  0  0  0
 21 19  1  0  0  0  0
 22 24  1  0  0  0  0
 23 26  1  0  0  0  0
 24 23  1  0  0  0  0
 26  8  1  0  0  0  0
 27 19  1  0  0  0  0
 28 27  1  0  0  0  0
 30 15  1  0  0  0  0
 30 29  2  0  0  0  0
 31 30  1  0  0  0  0
 32 34  1  0  0  0  0
 33 35  2  0  0  0  0
 34 31  2  0  0  0  0
 34 33  1  0  0  0  0
 35 29  1  0  0  0  0
 36  6  1  0  0  0  0
 37 36  1  0  0  0  0
M  END
>  <MODEL>
4

>  <REMARK>
 VINA RESULT:      -7.2      3.033      6.307
  Name = 
  4 active torsions:
  status: ('A' for Active; 'I' for Inactive)
    1  A    between atoms: C_5  and  O_12
    2  A    between atoms: C_6  and  C_31
    3  A    between atoms: C_7  and  C_14
    4  A    between atoms: C_20  and  C_36
                            x       y       z     vdW  Elec       q    Type
                         _______ _______ _______ _____ _____    ______ ____

>  <TORSDO>
F 4

$$$$
=
 OpenBabel11052419563D

 37 42  0  0  1  0  0  0  0  0999 V2000
  192.3190  172.8680  139.0250 C   0  0  0  0  0  0  0  0  0  0  0  0
  191.6260  172.9160  142.4000 C   0  0  2  0  0  3  0  0  0  0  0  0
  190.6750  171.2880  140.2990 C   0  0  0  0  0  2  0  0  0  0  0  0
  190.8580  174.1370  141.8590 C   0  0  0  0  0  2  0  0  0  0  0  0
  192.7100  172.4050  141.4190 C   0  0  2  0  0  3  0  0  0  0  0  0
  190.4040  175.0940  142.9680 C   0  0  1  0  0  3  0  0  0  0  0  0
  191.2340  169.5790  141.8900 O   0  0  0  0  0  1  0  0  0  0  0  0
  193.7370  173.4230  140.9320 C   0  0  1  0  0  3  0  0  0  0  0  0
  191.0300  173.5040  138.5220 C   0  0  0  0  0  1  0  0  0  0  0  0
  189.3860  172.1010  143.4880 C   0  0  0  0  0  2  0  0  0  0  0  0
  190.4390  170.7100  141.6960 C   0  0  1  0  0  3  0  0  0  0  0  0
  193.1990  173.9610  139.6160 C   0  0  0  0  0  2  0  0  0  0  0  0
  190.7060  171.7340  142.8130 C   0  0  1  0  0  3  0  0  0  0  0  0
  192.1100  171.8240  140.1380 C   0  0  2  0  0  3  0  0  0  0  0  0
  189.2240  174.5460  143.7810 C   0  0  1  0  0  3  0  0  0  0  0  0
  193.0380  172.2170  137.8600 C   0  0  0  0  0  1  0  0  0  0  0  0
  189.5240  173.2310  144.4920 C   0  0  0  0  0  2  0  0  0  0  0  0
  194.6930  175.7170  141.2250 C   0  0  0  0  0  2  0  0  0  0  0  0
  196.2060  175.5000  141.2400 C   0  0  1  0  0  0  0  0  0  0  0  0
  197.2420  176.6120  143.1180 C   0  0  2  0  0  3  0  0  0  0  0  0
  196.9180  176.7840  141.6600 C   0  0  0  0  0  2  0  0  0  0  0  0
  197.2670  175.1150  143.3220 C   0  0  0  0  0  2  0  0  0  0  0  0
  195.2240  174.0610  142.8400 C   0  0  0  0  0  2  0  0  0  0  0  0
  196.4950  174.4810  142.2590 N   0  0  1  0  0  0  0  0  0  0  0  0
  196.2180  177.1650  143.8880 O   0  0  0  0  0  1  0  0  0  0  0  0
  194.1040  174.5240  141.9340 C   0  0  2  0  0  3  0  0  0  0  0  0
  196.6780  175.0230  139.9910 O   0  0  0  0  0  0  0  0  0  0  0  0
  197.8840  175.6650  139.6530 C   0  0  0  0  0  1  0  0  0  0  0  0
  188.8480  175.5470  146.0790 C   0  0  0  0  0  3  0  0  0  0  0  0
  188.6180  175.5700  144.6940 C   0  0  0  0  0  0  0  0  0  0  0  0
  187.8320  176.5880  144.1430 C   0  0  0  0  0  3  0  0  0  0  0  0
  186.2870  178.8370  144.2700 Cl  0  0  0  0  0  0  0  0  0  0  0  0
  187.4990  177.5390  146.3450 C   0  0  0  0  0  3  0  0  0  0  0  0
  187.2710  177.5680  144.9670 C   0  0  0  0  0  0  0  0  0  0  0  0
  188.2890  176.5280  146.9020 C   0  0  0  0  0  3  0  0  0  0  0  0
  191.5630  175.5750  143.8370 C   0  0  0  0  0  2  0  0  0  0  0  0
  191.8310  177.0420  143.5710 C   0  0  0  0  0  1  0  0  0  0  0  0
  1 12  1  0  0  0  0
  1 14  1  0  0  0  0
  2  4  1  6  0  0  0
  2 13  1  0  0  0  0
  3 11  1  0  0  0  0
  4  6  1  0  0  0  0
  5  2  1  0  0  0  0
  6 15  1  0  0  0  0
  6 36  1  0  0  0  0
  8  5  1  0  0  0  0
  8 26  1  0  0  0  0
  9  1  1  0  0  0  0
 10 17  1  0  0  0  0
 11  7  1  0  0  0  0
 11 13  1  0  0  0  0
 12  8  1  0  0  0  0
 13 10  1  0  0  0  0
 14  3  1  0  0  0  0
 14  5  1  0  0  0  0
 15 17  1  0  0  0  0
 15 30  1  0  0  0  0
 16  1  1  0  0  0  0
 18 19  1  0  0  0  0
 18 26  1  0  0  0  0
 19 21  1  0  0  0  0
 19 24  1  0  0  0  0
 20 22  1  0  0  0  0
 20 25  1  0  0  0  0
 21 20  1  0  0  0  0
 24 23  1  0  0  0  0
 24 22  1  0  0  0  0
 26 23  1  0  0  0  0
 27 19  1  0  0  0  0
 28 27  1  0  0  0  0
 29 35  1  0  0  0  0
 30 29  2  0  0  0  0
 31 30  1  0  0  0  0
 31 34  2  0  0  0  0
 32 34  1  0  0  0  0
 33 35  2  0  0  0  0
 34 33  1  0  0  0  0
 37 36  1  0  0  0  0
M  END
>  <MODEL>
5

>  <REMARK>
 VINA RESULT:      -7.1      2.339      5.512
  Name = 
  4 active torsions:
  status: ('A' for Active; 'I' for Inactive)
    1  A    between atoms: C_5  and  O_12
    2  A    between atoms: C_6  and  C_31
    3  A    between atoms: C_7  and  C_14
    4  A    between atoms: C_20  and  C_36
                            x       y       z     vdW  Elec       q    Type
                         _______ _______ _______ _____ _____    ______ ____

>  <TORSDO>
F 4

$$$$
=
 OpenBabel11052419563D

 37 42  0  0  1  0  0  0  0  0999 V2000
  194.1830  175.0170  144.7130 C   0  0  0  0  0  0  0  0  0  0  0  0
  192.2380  172.3760  143.6560 C   0  0  2  0  0  3  0  0  0  0  0  0
  194.9240  172.5210  144.5120 C   0  0  0  0  0  2  0  0  0  0  0  0
  192.5690  173.1230  142.3500 C   0  0  0  0  0  2  0  0  0  0  0  0
  192.4820  173.2380  144.9200 C   0  0  2  0  0  3  0  0  0  0  0  0
  191.6790  172.6950  141.1770 C   0  0  1  0  0  3  0  0  0  0  0  0
  194.1910  170.6690  145.8520 O   0  0  0  0  0  1  0  0  0  0  0  0
  191.7920  174.5980  144.9730 C   0  0  1  0  0  3  0  0  0  0  0  0
  195.0360  175.1820  143.4640 C   0  0  0  0  0  1  0  0  0  0  0  0
  193.1500  170.1910  142.5330 C   0  0  0  0  0  2  0  0  0  0  0  0
  194.3350  171.1100  144.5350 C   0  0  1  0  0  3  0  0  0  0  0  0
  192.8030  175.5990  144.4370 C   0  0  0  0  0  2  0  0  0  0  0  0
  192.9830  171.0210  143.8050 C   0  0  1  0  0  3  0  0  0  0  0  0
  193.9630  173.5520  145.1340 C   0  0  2  0  0  3  0  0  0  0  0  0
  192.0430  171.3070  140.6310 C   0  0  1  0  0  3  0  0  0  0  0  0
  194.8280  175.7730  145.8590 C   0  0  0  0  0  1  0  0  0  0  0  0
  191.9110  170.1880  141.6570 C   0  0  0  0  0  2  0  0  0  0  0  0
  190.3200  175.9380  143.4570 C   0  0  0  0  0  2  0  0  0  0  0  0
  189.6650  176.9690  144.3760 C   0  0  1  0  0  0  0  0  0  0  0  0
  187.2700  177.0390  144.0630 C   0  0  2  0  0  3  0  0  0  0  0  0
  188.5500  177.7020  143.6330 C   0  0  0  0  0  2  0  0  0  0  0  0
  187.6020  176.4150  145.3990 C   0  0  0  0  0  2  0  0  0  0  0  0
  189.3210  174.8160  145.2940 C   0  0  0  0  0  2  0  0  0  0  0  0
  189.0480  176.2370  145.4900 N   0  0  1  0  0  0  0  0  0  0  0  0
  186.9420  176.0340  143.1530 O   0  0  0  0  0  1  0  0  0  0  0  0
  190.4300  174.6760  144.2740 C   0  0  2  0  0  3  0  0  0  0  0  0
  190.6180  177.8710  144.9130 O   0  0  0  0  0  0  0  0  0  0  0  0
  191.1640  178.6660  143.8880 C   0  0  0  0  0  1  0  0  0  0  0  0
  190.4430  169.9240  139.2340 C   0  0  0  0  0  3  0  0  0  0  0  0
  191.3520  170.9890  139.3380 C   0  0  0  0  0  0  0  0  0  0  0  0
  191.5980  171.7960  138.2210 C   0  0  0  0  0  3  0  0  0  0  0  0
  191.2690  172.5490  135.6170 Cl  0  0  0  0  0  0  0  0  0  0  0  0
  190.0530  170.4720  136.9090 C   0  0  0  0  0  3  0  0  0  0  0  0
  190.9530  171.5370  137.0090 C   0  0  0  0  0  0  0  0  0  0  0  0
  189.7970  169.6660  138.0220 C   0  0  0  0  0  3  0  0  0  0  0  0
  190.1920  172.8520  141.4820 C   0  0  0  0  0  2  0  0  0  0  0  0
  189.5760  173.8580  140.5320 C   0  0  0  0  0  1  0  0  0  0  0  0
  1 14  1  0  0  0  0
  1 16  1  0  0  0  0
  2  4  1  6  0  0  0
  2 13  1  0  0  0  0
  2  5  1  0  0  0  0
  3 11  1  0  0  0  0
  3 14  1  0  0  0  0
  5  8  1  0  0  0  0
  5 14  1  0  0  0  0
  6 36  1  0  0  0  0
  6  4  1  0  0  0  0
  9  1  1  0  0  0  0
 10 13  1  0  0  0  0
 11  7  1  0  0  0  0
 12  1  1  0  0  0  0
 12  8  1  0  0  0  0
 13 11  1  0  0  0  0
 15  6  1  0  0  0  0
 15 17  1  0  0  0  0
 17 10  1  0  0  0  0
 18 26  1  0  0  0  0
 18 19  1  0  0  0  0
 19 27  1  0  0  0  0
 19 24  1  0  0  0  0
 20 22  1  0  0  0  0
 21 20  1  0  0  0  0
 21 19  1  0  0  0  0
 22 24  1  0  0  0  0
 23 24  1  0  0  0  0
 25 20  1  0  0  0  0
 26  8  1  0  0  0  0
 26 23  1  0  0  0  0
 28 27  1  0  0  0  0
 29 30  1  0  0  0  0
 30 15  1  0  0  0  0
 31 30  2  0  0  0  0
 32 34  1  0  0  0  0
 33 34  2  0  0  0  0
 33 35  1  0  0  0  0
 34 31  1  0  0  0  0
 35 29  2  0  0  0  0
 37 36  1  0  0  0  0
M  END
>  <MODEL>
6

>  <REMARK>
 VINA RESULT:      -6.4      3.200      7.080
  Name = 
  4 active torsions:
  status: ('A' for Active; 'I' for Inactive)
    1  A    between atoms: C_5  and  O_12
    2  A    between atoms: C_6  and  C_31
    3  A    between atoms: C_7  and  C_14
    4  A    between atoms: C_20  and  C_36
                            x       y       z     vdW  Elec       q    Type
                         _______ _______ _______ _____ _____    ______ ____

>  <TORSDO>
F 4

$$$$
=
 OpenBabel11052419563D

 37 42  0  0  1  0  0  0  0  0999 V2000
  193.6440  173.0750  139.0430 C   0  0  0  0  0  0  0  0  0  0  0  0
  191.3950  172.9080  141.6480 C   0  0  2  0  0  3  0  0  0  0  0  0
  191.2430  172.0510  138.9630 C   0  0  0  0  0  2  0  0  0  0  0  0
  191.3430  174.3880  141.2240 C   0  0  0  0  0  2  0  0  0  0  0  0
  192.6510  172.1740  141.1180 C   0  0  2  0  0  3  0  0  0  0  0  0
  190.6580  175.2820  142.2650 C   0  0  1  0  0  3  0  0  0  0  0  0
  190.4710  170.0550  140.0490 O   0  0  0  0  0  1  0  0  0  0  0  0
  194.0050  172.8000  141.4420 C   0  0  1  0  0  3  0  0  0  0  0  0
  192.9930  174.2040  138.2560 C   0  0  0  0  0  1  0  0  0  0  0  0
  188.7890  172.8320  141.3830 C   0  0  0  0  0  2  0  0  0  0  0  0
  190.2000  171.4140  139.8830 C   0  0  1  0  0  3  0  0  0  0  0  0
  194.3560  173.6740  140.2490 C   0  0  0  0  0  2  0  0  0  0  0  0
  190.1250  172.1030  141.2570 C   0  0  1  0  0  3  0  0  0  0  0  0
  192.6480  172.0380  139.5950 C   0  0  2  0  0  3  0  0  0  0  0  0
  189.1340  175.1000  142.2950 C   0  0  1  0  0  3  0  0  0  0  0  0
  194.6560  172.3720  138.1590 C   0  0  0  0  0  1  0  0  0  0  0  0
  188.6900  173.6820  142.6370 C   0  0  0  0  0  2  0  0  0  0  0  0
  195.2310  174.5210  142.7800 C   0  0  0  0  0  2  0  0  0  0  0  0
  196.4250  173.7690  143.3670 C   0  0  1  0  0  0  0  0  0  0  0  0
  196.6310  174.1510  145.7440 C   0  0  2  0  0  3  0  0  0  0  0  0
  197.1310  174.6330  144.4100 C   0  0  0  0  0  2  0  0  0  0  0  0
  196.1730  172.7340  145.4830 C   0  0  0  0  0  2  0  0  0  0  0  0
  194.4510  172.5760  143.8930 C   0  0  0  0  0  2  0  0  0  0  0  0
  195.9010  172.5820  144.0570 N   0  0  1  0  0  0  0  0  0  0  0  0
  195.5380  174.9240  146.1350 O   0  0  0  0  0  1  0  0  0  0  0  0
  194.0890  173.5380  142.7830 C   0  0  2  0  0  3  0  0  0  0  0  0
  197.3180  173.3340  142.3560 O   0  0  0  0  0  0  0  0  0  0  0  0
  197.7940  174.4380  141.6240 C   0  0  0  0  0  1  0  0  0  0  0  0
  188.0020  177.3510  142.5660 C   0  0  0  0  0  3  0  0  0  0  0  0
  188.4380  176.1380  143.1230 C   0  0  0  0  0  0  0  0  0  0  0  0
  188.1910  175.8730  144.4750 C   0  0  0  0  0  3  0  0  0  0  0  0
  187.2230  176.4750  146.9570 Cl  0  0  0  0  0  0  0  0  0  0  0  0
  187.0980  178.0210  144.7090 C   0  0  0  0  0  3  0  0  0  0  0  0
  187.5260  176.8130  145.2670 C   0  0  0  0  0  0  0  0  0  0  0  0
  187.3350  178.2900  143.3570 C   0  0  0  0  0  3  0  0  0  0  0  0
  191.3050  175.1770  143.6430 C   0  0  0  0  0  2  0  0  0  0  0  0
  192.0320  176.4650  143.9700 C   0  0  0  0  0  1  0  0  0  0  0  0
  1 14  1  0  0  0  0
  1 12  1  0  0  0  0
  2  4  1  6  0  0  0
  3 14  1  0  0  0  0
  3 11  1  0  0  0  0
  4  6  1  0  0  0  0
  5  8  1  0  0  0  0
  5  2  1  0  0  0  0
  6 15  1  0  0  0  0
  6 36  1  0  0  0  0
  8 26  1  0  0  0  0
  9  1  1  0  0  0  0
 10 17  1  0  0  0  0
 11  7  1  0  0  0  0
 11 13  1  0  0  0  0
 12  8  1  0  0  0  0
 13 10  1  0  0  0  0
 13  2  1  0  0  0  0
 14  5  1  0  0  0  0
 15 17  1  0  0  0  0
 15 30  1  0  0  0  0
 16  1  1  0  0  0  0
 18 26  1  0  0  0  0
 18 19  1  0  0  0  0
 19 24  1  0  0  0  0
 19 21  1  0  0  0  0
 20 25  1  0  0  0  0
 21 20  1  0  0  0  0
 22 20  1  0  0  0  0
 23 24  1  0  0  0  0
 24 22  1  0  0  0  0
 26 23  1  0  0  0  0
 27 19  1  0  0  0  0
 28 27  1  0  0  0  0
 29 30  2  0  0  0  0
 29 35  1  0  0  0  0
 30 31  1  0  0  0  0
 31 34  2  0  0  0  0
 33 34  1  0  0  0  0
 34 32  1  0  0  0  0
 35 33  2  0  0  0  0
 36 37  1  0  0  0  0
M  END
>  <MODEL>
7

>  <REMARK>
 VINA RESULT:      -6.3      2.305      5.826
  Name = 
  4 active torsions:
  status: ('A' for Active; 'I' for Inactive)
    1  A    between atoms: C_5  and  O_12
    2  A    between atoms: C_6  and  C_31
    3  A    between atoms: C_7  and  C_14
    4  A    between atoms: C_20  and  C_36
                            x       y       z     vdW  Elec       q    Type
                         _______ _______ _______ _____ _____    ______ ____

>  <TORSDO>
F 4

$$$$
=
 OpenBabel11052419563D

 37 42  0  0  1  0  0  0  0  0999 V2000
  196.2410  172.9250  145.1090 C   0  0  0  0  0  0  0  0  0  0  0  0
  193.4080  171.2060  144.1660 C   0  0  2  0  0  3  0  0  0  0  0  0
  195.9480  170.3310  145.0330 C   0  0  0  0  0  2  0  0  0  0  0  0
  193.9880  171.7020  142.8280 C   0  0  0  0  0  2  0  0  0  0  0  0
  193.9840  171.9620  145.3890 C   0  0  2  0  0  3  0  0  0  0  0  0
  192.9870  171.6000  141.6700 C   0  0  1  0  0  3  0  0  0  0  0  0
  194.5660  168.9770  146.4550 O   0  0  0  0  0  1  0  0  0  0  0  0
  193.8790  173.4840  145.3710 C   0  0  1  0  0  3  0  0  0  0  0  0
  197.0760  172.6850  143.8590 C   0  0  0  0  0  1  0  0  0  0  0  0
  193.3810  168.7880  143.1560 C   0  0  0  0  0  2  0  0  0  0  0  0
  194.8540  169.2640  145.1190 C   0  0  1  0  0  3  0  0  0  0  0  0
  195.1940  173.9860  144.7960 C   0  0  0  0  0  2  0  0  0  0  0  0
  193.5670  169.6760  144.3850 C   0  0  1  0  0  3  0  0  0  0  0  0
  195.4730  171.6830  145.5990 C   0  0  2  0  0  3  0  0  0  0  0  0
  192.7740  170.1570  141.1940 C   0  0  1  0  0  3  0  0  0  0  0  0
  197.1440  173.4220  146.2220 C   0  0  0  0  0  1  0  0  0  0  0  0
  192.2280  169.2270  142.2720 C   0  0  0  0  0  2  0  0  0  0  0  0
  192.9970  175.3200  143.9190 C   0  0  0  0  0  2  0  0  0  0  0  0
  192.6980  176.4630  144.8880 C   0  0  1  0  0  0  0  0  0  0  0  0
  190.4790  177.3560  144.5480 C   0  0  2  0  0  3  0  0  0  0  0  0
  191.9200  177.5680  144.1760 C   0  0  0  0  0  2  0  0  0  0  0  0
  190.5370  176.5880  145.8490 C   0  0  0  0  0  2  0  0  0  0  0  0
  191.6180  174.5100  145.6720 C   0  0  0  0  0  2  0  0  0  0  0  0
  191.8340  175.9270  145.9480 N   0  0  1  0  0  0  0  0  0  0  0  0
  189.8610  176.5700  143.5750 O   0  0  0  0  0  1  0  0  0  0  0  0
  192.6470  174.0560  144.6610 C   0  0  2  0  0  3  0  0  0  0  0  0
  193.8810  176.9600  145.4910 O   0  0  0  0  0  0  0  0  0  0  0  0
  193.8160  176.8010  146.8880 C   0  0  0  0  0  1  0  0  0  0  0  0
  190.7780  169.3810  139.8370 C   0  0  0  0  0  3  0  0  0  0  0  0
  191.9980  170.0740  139.9130 C   0  0  0  0  0  0  0  0  0  0  0  0
  192.4880  170.7310  138.7790 C   0  0  0  0  0  3  0  0  0  0  0  0
  192.3990  171.5110  136.1630 Cl  0  0  0  0  0  0  0  0  0  0  0  0
  190.5660  169.9930  137.5050 C   0  0  0  0  0  3  0  0  0  0  0  0
  191.7770  170.6880  137.5780 C   0  0  0  0  0  0  0  0  0  0  0  0
  190.0660  169.3400  138.6360 C   0  0  0  0  0  3  0  0  0  0  0  0
  191.6830  172.3400  141.9570 C   0  0  0  0  0  2  0  0  0  0  0  0
  191.5650  173.5460  141.0480 C   0  0  0  0  0  1  0  0  0  0  0  0
  1 14  1  0  0  0  0
  1 16  1  0  0  0  0
  2  4  1  6  0  0  0
  2 13  1  0  0  0  0
  2  5  1  0  0  0  0
  3 11  1  0  0  0  0
  3 14  1  0  0  0  0
  5 14  1  0  0  0  0
  6 36  1  0  0  0  0
  6  4  1  0  0  0  0
  8  5  1  0  0  0  0
  9  1  1  0  0  0  0
 10 13  1  0  0  0  0
 11  7  1  0  0  0  0
 12  1  1  0  0  0  0
 12  8  1  0  0  0  0
 13 11  1  0  0  0  0
 15  6  1  0  0  0  0
 15 17  1  0  0  0  0
 17 10  1  0  0  0  0
 18 26  1  0  0  0  0
 18 19  1  0  0  0  0
 19 27  1  0  0  0  0
 19 24  1  0  0  0  0
 20 22  1  0  0  0  0
 21 20  1  0  0  0  0
 21 19  1  0  0  0  0
 22 24  1  0  0  0  0
 23 24  1  0  0  0  0
 25 20  1  0  0  0  0
 26  8  1  0  0  0  0
 26 23  1  0  0  0  0
 27 28  1  0  0  0  0
 29 30  1  0  0  0  0
 30 15  1  0  0  0  0
 31 30  2  0  0  0  0
 32 34  1  0  0  0  0
 33 34  2  0  0  0  0
 33 35  1  0  0  0  0
 34 31  1  0  0  0  0
 35 29  2  0  0  0  0
 37 36  1  0  0  0  0
M  END
>  <MODEL>
8

>  <REMARK>
 VINA RESULT:      -6.3      3.630      7.562
  Name = 
  4 active torsions:
  status: ('A' for Active; 'I' for Inactive)
    1  A    between atoms: C_5  and  O_12
    2  A    between atoms: C_6  and  C_31
    3  A    between atoms: C_7  and  C_14
    4  A    between atoms: C_20  and  C_36
                            x       y       z     vdW  Elec       q    Type
                         _______ _______ _______ _____ _____    ______ ____

>  <TORSDO>
F 4

$$$$
=
 OpenBabel11052419563D

 37 42  0  0  1  0  0  0  0  0999 V2000
  186.4660  176.8720  146.3590 C   0  0  0  0  0  0  0  0  0  0  0  0
  187.8300  177.4970  143.2570 C   0  0  2  0  0  3  0  0  0  0  0  0
  185.3590  178.2200  144.4150 C   0  0  0  0  0  2  0  0  0  0  0  0
  187.4060  176.0190  143.1710 C   0  0  0  0  0  2  0  0  0  0  0  0
  187.9110  178.0160  144.7140 C   0  0  2  0  0  3  0  0  0  0  0  0
  188.0320  175.2890  141.9750 C   0  0  1  0  0  3  0  0  0  0  0  0
  186.0260  180.3610  143.5610 O   0  0  0  0  0  1  0  0  0  0  0  0
  188.7860  177.2230  145.6810 C   0  0  1  0  0  3  0  0  0  0  0  0
  185.4590  175.8060  145.9510 C   0  0  0  0  0  1  0  0  0  0  0  0
  186.4550  177.9270  141.0680 C   0  0  0  0  0  2  0  0  0  0  0  0
  185.7400  179.0470  143.1860 C   0  0  1  0  0  3  0  0  0  0  0  0
  187.8540  176.2440  146.3790 C   0  0  0  0  0  2  0  0  0  0  0  0
  186.9340  178.4520  142.4190 C   0  0  1  0  0  3  0  0  0  0  0  0
  186.5410  178.0680  145.3920 C   0  0  2  0  0  3  0  0  0  0  0  0
  187.3950  175.6860  140.6360 C   0  0  1  0  0  3  0  0  0  0  0  0
  186.1220  177.3750  147.7470 C   0  0  0  0  0  1  0  0  0  0  0  0
  187.5280  177.1690  140.3080 C   0  0  0  0  0  2  0  0  0  0  0  0
  190.4310  175.3480  145.8670 C   0  0  0  0  0  2  0  0  0  0  0  0
  191.4740  175.8530  146.8640 C   0  0  1  0  0  0  0  0  0  0  0  0
  193.7190  175.5580  146.0230 C   0  0  2  0  0  3  0  0  0  0  0  0
  192.6750  174.9110  146.8900 C   0  0  0  0  0  2  0  0  0  0  0  0
  193.3540  177.0250  146.0280 C   0  0  0  0  0  2  0  0  0  0  0  0
  191.2190  177.4710  145.1570 C   0  0  0  0  0  2  0  0  0  0  0  0
  191.9450  177.1580  146.3840 N   0  0  1  0  0  0  0  0  0  0  0  0
  193.6130  175.0610  144.7230 O   0  0  0  0  0  1  0  0  0  0  0  0
  190.0180  176.5540  145.0640 C   0  0  2  0  0  3  0  0  0  0  0  0
  190.9180  176.0300  148.1560 O   0  0  0  0  0  0  0  0  0  0  0  0
  191.4420  177.1930  148.7520 C   0  0  0  0  0  1  0  0  0  0  0  0
  188.1910  173.4650  139.7120 C   0  0  0  0  0  3  0  0  0  0  0  0
  187.8230  174.8030  139.5020 C   0  0  0  0  0  0  0  0  0  0  0  0
  187.8210  175.3210  138.2020 C   0  0  0  0  0  3  0  0  0  0  0  0
  188.1920  175.1730  135.5000 Cl  0  0  0  0  0  0  0  0  0  0  0  0
  188.5650  173.1860  137.3370 C   0  0  0  0  0  3  0  0  0  0  0  0
  188.1940  174.5160  137.1230 C   0  0  0  0  0  0  0  0  0  0  0  0
  188.5630  172.6600  138.6320 C   0  0  0  0  0  3  0  0  0  0  0  0
  189.5550  175.3760  141.9690 C   0  0  0  0  0  2  0  0  0  0  0  0
  190.1470  174.0730  142.4670 C   0  0  0  0  0  1  0  0  0  0  0  0
  1 12  1  0  0  0  0
  1 16  1  0  0  0  0
  2  4  1  1  0  0  0
  2  5  1  0  0  0  0
  3 14  1  0  0  0  0
  5 14  1  0  0  0  0
  5  8  1  0  0  0  0
  6  4  1  0  0  0  0
  8 12  1  0  0  0  0
  9  1  1  0  0  0  0
 10 13  1  0  0  0  0
 11  7  1  0  0  0  0
 11  3  1  0  0  0  0
 13 11  1  0  0  0  0
 13  2  1  0  0  0  0
 14  1  1  0  0  0  0
 15  6  1  0  0  0  0
 17 15  1  0  0  0  0
 17 10  1  0  0  0  0
 18 19  1  0  0  0  0
 19 21  1  0  0  0  0
 19 27  1  0  0  0  0
 20 22  1  0  0  0  0
 20 21  1  0  0  0  0
 22 24  1  0  0  0  0
 23 24  1  0  0  0  0
 24 19  1  0  0  0  0
 25 20  1  0  0  0  0
 26 23  1  0  0  0  0
 26  8  1  0  0  0  0
 26 18  1  0  0  0  0
 27 28  1  0  0  0  0
 30 29  1  0  0  0  0
 30 15  1  0  0  0  0
 31 30  2  0  0  0  0
 32 34  1  0  0  0  0
 33 35  1  0  0  0  0
 34 33  2  0  0  0  0
 34 31  1  0  0  0  0
 35 29  2  0  0  0  0
 36  6  1  0  0  0  0
 36 37  1  0  0  0  0
M  END
>  <MODEL>
9

>  <REMARK>
 VINA RESULT:      -6.1      3.673      8.023
  Name = 
  4 active torsions:
  status: ('A' for Active; 'I' for Inactive)
    1  A    between atoms: C_5  and  O_12
    2  A    between atoms: C_6  and  C_31
    3  A    between atoms: C_7  and  C_14
    4  A    between atoms: C_20  and  C_36
                            x       y       z     vdW  Elec       q    Type
                         _______ _______ _______ _____ _____    ______ ____

>  <TORSDO>
F 4

$$$$
