=
 OpenBabel11052421243D

 43 47  0  0  1  0  0  0  0  0999 V2000
  194.0630  173.8110  142.4480 C   0  0  1  0  0  3  0  0  0  0  0  0
  192.5500  176.0830  146.8220 C   0  0  0  0  0  0  0  0  0  0  0  0
  194.2380  175.9400  145.1320 C   0  0  0  0  0  0  0  0  0  0  0  0
  192.1650  174.7570  146.5280 C   0  0  0  0  0  3  0  0  0  0  0  0
  191.7130  176.9740  148.0720 Cl  0  0  0  0  0  0  0  0  0  0  0  0
  193.8550  174.6650  144.8320 C   0  0  0  0  0  0  0  0  0  0  0  0
  193.6070  176.6900  146.1220 C   0  0  0  0  0  3  0  0  0  0  0  0
  192.8270  174.0270  145.5240 C   0  0  0  0  0  3  0  0  0  0  0  0
  194.7720  174.1820  143.7590 C   0  0  2  0  0  3  0  0  0  0  0  0
  195.6310  175.3560  143.5530 N   0  0  0  0  0  0  0  0  0  0  0  0
  195.3270  176.3280  144.3210 N   0  0  0  0  0  0  0  0  0  0  0  0
  195.2920  173.8890  140.2440 N   0  0  0  0  0  2  0  0  0  0  0  0
  194.4910  174.5630  141.2190 C   0  0  0  0  0  0  0  0  0  0  0  0
  194.1580  175.7690  141.0640 O   0  0  0  0  0  0  0  0  0  0  0  0
  195.9060  175.3080  136.8240 C   0  0  0  0  0  0  0  0  0  0  0  0
  197.2500  175.6740  136.9370 C   0  0  0  0  0  0  0  0  0  0  0  0
  197.8950  176.2360  135.8850 F   0  0  0  0  0  0  0  0  0  0  0  0
  197.2790  174.8590  139.2160 C   0  0  0  0  0  3  0  0  0  0  0  0
  195.2510  174.7150  137.9070 C   0  0  0  0  0  3  0  0  0  0  0  0
  195.9350  174.4820  139.1100 C   0  0  0  0  0  0  0  0  0  0  0  0
  195.2320  175.5260  135.6680 F   0  0  0  0  0  0  0  0  0  0  0  0
  197.9360  175.4500  138.1330 C   0  0  0  0  0  3  0  0  0  0  0  0
  193.7040  172.4490  142.2860 O   0  0  0  0  0  0  0  0  0  0  0  0
  192.3860  172.3480  141.7990 C   0  0  1  0  0  3  0  0  0  0  0  0
  192.3860  171.6650  140.4420 C   0  0  0  0  0  1  0  0  0  0  0  0
  191.5070  171.5480  142.7630 C   0  0  2  0  0  3  0  0  0  0  0  0
  190.7240  170.4740  142.0300 C   0  0  0  0  0  1  0  0  0  0  0  0
  190.6080  172.4140  143.4820 N   0  0  0  0  0  0  0  0  0  0  0  0
  190.2170  173.4780  142.9670 N   0  0  0  0  0  0  0  0  0  0  0  0
  189.3110  174.3380  143.6820 C   0  0  0  0  0  2  0  0  0  0  0  0
  189.8990  175.7050  143.8450 C   0  0  0  0  0  0  0  0  0  0  0  0
  189.9870  177.8900  144.9020 C   0  0  0  0  0  3  0  0  0  0  0  0
  190.9190  176.0980  142.9720 C   0  0  0  0  0  3  0  0  0  0  0  0
  191.4700  177.3800  143.0630 C   0  0  0  0  0  3  0  0  0  0  0  0
  189.4390  176.6000  144.8310 C   0  0  0  0  0  0  0  0  0  0  0  0
  191.0000  178.2760  144.0250 C   0  0  0  0  0  3  0  0  0  0  0  0
  188.3500  176.2050  145.7870 C   0  0  0  0  0  2  0  0  0  0  0  0
  187.1320  177.0590  145.6280 C   0  0  0  0  0  0  0  0  0  0  0  0
  184.8510  178.6610  145.3650 C   0  0  0  0  0  3  0  0  0  0  0  0
  185.2220  177.7980  144.3310 C   0  0  0  0  0  3  0  0  0  0  0  0
  185.6200  178.7240  146.5310 C   0  0  0  0  0  3  0  0  0  0  0  0
  186.3630  177.0010  144.4590 C   0  0  0  0  0  3  0  0  0  0  0  0
  186.7580  177.9250  146.6620 C   0  0  0  0  0  3  0  0  0  0  0  0
  1 13  1  6  0  0  0
  2  5  1  0  0  0  0
  3  7  1  0  0  0  0
  4  2  1  0  0  0  0
  6  3  2  0  0  0  0
  6  8  1  0  0  0  0
  7  2  2  0  0  0  0
  8  4  2  0  0  0  0
  9  1  1  6  0  0  0
  9  6  1  0  0  0  0
 10  9  1  0  0  0  0
 10 11  2  0  0  0  0
 11  3  1  0  0  0  0
 12 13  1  0  0  0  0
 14 13  2  0  0  0  0
 15 16  2  0  0  0  0
 15 19  1  0  0  0  0
 16 22  1  0  0  0  0
 17 16  1  0  0  0  0
 19 20  2  0  0  0  0
 20 18  1  0  0  0  0
 20 12  1  0  0  0  0
 21 15  1  0  0  0  0
 22 18  2  0  0  0  0
 23  1  1  0  0  0  0
 24 25  1  6  0  0  0
 24 23  1  0  0  0  0
 24 26  1  0  0  0  0
 26 27  1  6  0  0  0
 26 28  1  0  0  0  0
 29 28  2  0  0  0  0
 29 30  1  0  0  0  0
 30 31  1  0  0  0  0
 31 35  1  0  0  0  0
 33 34  1  0  0  0  0
 33 31  2  0  0  0  0
 34 36  2  0  0  0  0
 35 32  2  0  0  0  0
 35 37  1  0  0  0  0
 36 32  1  0  0  0  0
 38 37  1  0  0  0  0
 38 43  1  0  0  0  0
 39 41  1  0  0  0  0
 40 42  1  0  0  0  0
 40 39  2  0  0  0  0
 41 43  2  0  0  0  0
 42 38  2  0  0  0  0
M  END
>  <MODEL>
1

>  <REMARK>
 VINA RESULT:      -7.3      0.000      0.000
  Name = 
  11 active torsions:
  status: ('A' for Active; 'I' for Inactive)
    1  A    between atoms: N_1  and  C_35
    2  A    between atoms: C_2  and  N_6
    3  A    between atoms: C_2  and  C_13
    4  A    between atoms: C_3  and  C_4
    5  A    between atoms: C_3  and  N_12
    6  A    between atoms: C_8  and  O_27
    7  A    between atoms: C_8  and  C_30
    8  A    between atoms: C_8  and  C_34
    9  A    between atoms: C_11  and  C_14
   10  A    between atoms: C_13  and  O_27
   11  A    between atoms: C_14  and  C_41
                            x       y       z     vdW  Elec       q    Type
                         _______ _______ _______ _____ _____    ______ ____

>  <TORSDO>
F 11

$$$$
=
 OpenBabel11052421243D

 43 47  0  0  1  0  0  0  0  0999 V2000
  188.1960  176.6250  141.4780 C   0  0  1  0  0  3  0  0  0  0  0  0
  184.7010  178.7000  144.6500 C   0  0  0  0  0  0  0  0  0  0  0  0
  185.2870  178.2020  142.3840 C   0  0  0  0  0  0  0  0  0  0  0  0
  186.0710  178.7000  144.9880 C   0  0  0  0  0  3  0  0  0  0  0  0
  183.5020  179.0170  145.8820 Cl  0  0  0  0  0  0  0  0  0  0  0  0
  186.6120  178.1810  142.7120 C   0  0  0  0  0  0  0  0  0  0  0  0
  184.2940  178.4540  143.3270 C   0  0  0  0  0  3  0  0  0  0  0  0
  187.0490  178.4450  144.0090 C   0  0  0  0  0  3  0  0  0  0  0  0
  187.3630  177.9150  141.4510 C   0  0  2  0  0  3  0  0  0  0  0  0
  186.2710  177.7900  140.4770 N   0  0  0  0  0  0  0  0  0  0  0  0
  185.1210  177.9510  141.0040 N   0  0  0  0  0  0  0  0  0  0  0  0
  188.9400  175.6620  143.6900 N   0  0  0  0  0  2  0  0  0  0  0  0
  189.2190  176.5110  142.5740 C   0  0  0  0  0  0  0  0  0  0  0  0
  190.2950  177.1660  142.5090 O   0  0  0  0  0  0  0  0  0  0  0  0
  190.4230  176.4270  147.0520 C   0  0  0  0  0  0  0  0  0  0  0  0
  191.2040  175.2850  147.2520 C   0  0  0  0  0  0  0  0  0  0  0  0
  191.9430  175.1530  148.3810 F   0  0  0  0  0  0  0  0  0  0  0  0
  190.4830  174.4180  145.1100 C   0  0  0  0  0  3  0  0  0  0  0  0
  189.6750  176.5640  145.8790 C   0  0  0  0  0  3  0  0  0  0  0  0
  189.7040  175.5610  144.8980 C   0  0  0  0  0  0  0  0  0  0  0  0
  190.3860  177.4040  147.9900 F   0  0  0  0  0  0  0  0  0  0  0  0
  191.2340  174.2810  146.2820 C   0  0  0  0  0  3  0  0  0  0  0  0
  187.5350  175.4360  141.0780 O   0  0  0  0  0  0  0  0  0  0  0  0
  188.4170  174.3400  141.1570 C   0  0  1  0  0  3  0  0  0  0  0  0
  187.6710  173.1110  141.6450 C   0  0  0  0  0  1  0  0  0  0  0  0
  189.0380  174.0400  139.7910 C   0  0  2  0  0  3  0  0  0  0  0  0
  188.2560  172.9670  139.0550 C   0  0  0  0  0  1  0  0  0  0  0  0
  190.4160  173.6430  139.9270 N   0  0  0  0  0  0  0  0  0  0  0  0
  191.0820  174.0170  140.9100 N   0  0  0  0  0  0  0  0  0  0  0  0
  192.4560  173.6120  141.0500 C   0  0  0  0  0  2  0  0  0  0  0  0
  192.6110  172.6600  142.1940 C   0  0  0  0  0  0  0  0  0  0  0  0
  193.7960  171.8200  144.1410 C   0  0  0  0  0  3  0  0  0  0  0  0
  191.6860  171.6190  142.3230 C   0  0  0  0  0  3  0  0  0  0  0  0
  191.8140  170.6830  143.3530 C   0  0  0  0  0  3  0  0  0  0  0  0
  193.6660  172.7750  143.1210 C   0  0  0  0  0  0  0  0  0  0  0  0
  192.8720  170.7820  144.2590 C   0  0  0  0  0  3  0  0  0  0  0  0
  194.6730  173.8850  143.0130 C   0  0  0  0  0  2  0  0  0  0  0  0
  194.4120  174.9720  144.0070 C   0  0  0  0  0  0  0  0  0  0  0  0
  193.9340  176.9860  145.8920 C   0  0  0  0  0  3  0  0  0  0  0  0
  193.2780  177.0120  144.6590 C   0  0  0  0  0  3  0  0  0  0  0  0
  194.8310  175.9540  146.1830 C   0  0  0  0  0  3  0  0  0  0  0  0
  193.5180  176.0100  143.7160 C   0  0  0  0  0  3  0  0  0  0  0  0
  195.0690  174.9480  145.2420 C   0  0  0  0  0  3  0  0  0  0  0  0
  1 23  1  1  0  0  0
  1 13  1  0  0  0  0
  2  4  1  0  0  0  0
  2  5  1  0  0  0  0
  3  6  2  0  0  0  0
  3  7  1  0  0  0  0
  6  8  1  0  0  0  0
  7  2  2  0  0  0  0
  8  4  2  0  0  0  0
  9  1  1  1  0  0  0
  9  6  1  0  0  0  0
 10 11  2  0  0  0  0
 10  9  1  0  0  0  0
 11  3  1  0  0  0  0
 12 20  1  0  0  0  0
 13 12  1  0  0  0  0
 14 13  2  0  0  0  0
 15 16  1  0  0  0  0
 15 21  1  0  0  0  0
 16 17  1  0  0  0  0
 18 22  1  0  0  0  0
 19 15  2  0  0  0  0
 20 18  2  0  0  0  0
 20 19  1  0  0  0  0
 22 16  2  0  0  0  0
 23 24  1  0  0  0  0
 24 25  1  6  0  0  0
 26 27  1  1  0  0  0
 26 28  1  0  0  0  0
 26 24  1  0  0  0  0
 28 29  2  0  0  0  0
 29 30  1  0  0  0  0
 30 31  1  0  0  0  0
 31 33  2  0  0  0  0
 31 35  1  0  0  0  0
 32 36  1  0  0  0  0
 33 34  1  0  0  0  0
 34 36  2  0  0  0  0
 35 32  2  0  0  0  0
 37 35  1  0  0  0  0
 37 38  1  0  0  0  0
 38 43  1  0  0  0  0
 39 41  1  0  0  0  0
 40 39  2  0  0  0  0
 42 38  2  0  0  0  0
 42 40  1  0  0  0  0
 43 41  2  0  0  0  0
M  END
>  <MODEL>
2

>  <REMARK>
 VINA RESULT:      -7.2      4.385      8.180
  Name = 
  11 active torsions:
  status: ('A' for Active; 'I' for Inactive)
    1  A    between atoms: N_1  and  C_35
    2  A    between atoms: C_2  and  N_6
    3  A    between atoms: C_2  and  C_13
    4  A    between atoms: C_3  and  C_4
    5  A    between atoms: C_3  and  N_12
    6  A    between atoms: C_8  and  O_27
    7  A    between atoms: C_8  and  C_30
    8  A    between atoms: C_8  and  C_34
    9  A    between atoms: C_11  and  C_14
   10  A    between atoms: C_13  and  O_27
   11  A    between atoms: C_14  and  C_41
                            x       y       z     vdW  Elec       q    Type
                         _______ _______ _______ _____ _____    ______ ____

>  <TORSDO>
F 11

$$$$
=
 OpenBabel11052421243D

 43 47  0  0  1  0  0  0  0  0999 V2000
  191.4510  173.7870  142.7220 C   0  0  1  0  0  3  0  0  0  0  0  0
  189.2840  173.9600  138.0470 C   0  0  0  0  0  0  0  0  0  0  0  0
  188.9180  173.9030  140.4120 C   0  0  0  0  0  0  0  0  0  0  0  0
  190.5320  173.3280  138.2410 C   0  0  0  0  0  3  0  0  0  0  0  0
  188.7620  174.3760  136.4310 Cl  0  0  0  0  0  0  0  0  0  0  0  0
  190.1330  173.3110  140.6040 C   0  0  0  0  0  0  0  0  0  0  0  0
  188.4550  174.2500  139.1450 C   0  0  0  0  0  3  0  0  0  0  0  0
  190.9670  172.9880  139.5340 C   0  0  0  0  0  3  0  0  0  0  0  0
  190.2640  173.0640  142.0690 C   0  0  2  0  0  3  0  0  0  0  0  0
  188.9980  173.6120  142.5760 N   0  0  0  0  0  0  0  0  0  0  0  0
  188.2570  174.0760  141.6480 N   0  0  0  0  0  0  0  0  0  0  0  0
  192.8660  172.5810  144.4310 N   0  0  0  0  0  2  0  0  0  0  0  0
  192.6450  172.9400  143.0640 C   0  0  0  0  0  0  0  0  0  0  0  0
  193.4400  172.5680  142.1590 O   0  0  0  0  0  0  0  0  0  0  0  0
  196.2670  172.0040  145.9090 C   0  0  0  0  0  0  0  0  0  0  0  0
  196.2570  170.6120  146.0360 C   0  0  0  0  0  0  0  0  0  0  0  0
  197.3380  169.9650  146.5370 F   0  0  0  0  0  0  0  0  0  0  0  0
  194.0240  170.5440  145.1040 C   0  0  0  0  0  3  0  0  0  0  0  0
  195.1550  172.6640  145.3780 C   0  0  0  0  0  3  0  0  0  0  0  0
  194.0280  171.9370  144.9680 C   0  0  0  0  0  0  0  0  0  0  0  0
  197.3500  172.7190  146.3000 F   0  0  0  0  0  0  0  0  0  0  0  0
  195.1360  169.8820  145.6330 C   0  0  0  0  0  3  0  0  0  0  0  0
  191.6960  175.1160  142.2950 O   0  0  0  0  0  0  0  0  0  0  0  0
  191.4180  176.0220  143.3370 C   0  0  1  0  0  3  0  0  0  0  0  0
  192.6920  176.3360  144.1030 C   0  0  0  0  0  1  0  0  0  0  0  0
  190.8290  177.3220  142.7880 C   0  0  2  0  0  3  0  0  0  0  0  0
  191.0890  178.4840  143.7290 C   0  0  0  0  0  1  0  0  0  0  0  0
  189.4160  177.1870  142.5460 N   0  0  0  0  0  0  0  0  0  0  0  0
  188.6300  178.0850  142.9020 N   0  0  0  0  0  0  0  0  0  0  0  0
  187.2190  177.9530  142.6520 C   0  0  0  0  0  2  0  0  0  0  0  0
  186.4390  178.1450  143.9150 C   0  0  0  0  0  0  0  0  0  0  0  0
  185.6890  177.4100  146.1060 C   0  0  0  0  0  3  0  0  0  0  0  0
  185.6290  179.2790  144.0310 C   0  0  0  0  0  3  0  0  0  0  0  0
  184.8540  179.4790  145.1760 C   0  0  0  0  0  3  0  0  0  0  0  0
  186.4850  177.2090  144.9680 C   0  0  0  0  0  0  0  0  0  0  0  0
  184.8800  178.5420  146.2110 C   0  0  0  0  0  3  0  0  0  0  0  0
  187.3490  175.9830  144.8760 C   0  0  0  0  0  2  0  0  0  0  0  0
  188.5290  176.0630  145.7910 C   0  0  0  0  0  0  0  0  0  0  0  0
  190.7330  176.1790  147.5130 C   0  0  0  0  0  3  0  0  0  0  0  0
  190.0350  177.3460  147.1930 C   0  0  0  0  0  3  0  0  0  0  0  0
  190.3320  174.9540  146.9720 C   0  0  0  0  0  3  0  0  0  0  0  0
  188.9360  177.2900  146.3310 C   0  0  0  0  0  3  0  0  0  0  0  0
  189.2310  174.8970  146.1130 C   0  0  0  0  0  3  0  0  0  0  0  0
  1 23  1  6  0  0  0
  1 13  1  0  0  0  0
  2  4  2  0  0  0  0
  2  7  1  0  0  0  0
  3  6  1  0  0  0  0
  3 11  1  0  0  0  0
  4  8  1  0  0  0  0
  5  2  1  0  0  0  0
  6  9  1  0  0  0  0
  7  3  2  0  0  0  0
  8  6  2  0  0  0  0
  9 10  1  0  0  0  0
  9  1  1  1  0  0  0
 11 10  2  0  0  0  0
 12 20  1  0  0  0  0
 13 12  1  0  0  0  0
 14 13  2  0  0  0  0
 15 16  1  0  0  0  0
 15 21  1  0  0  0  0
 16 17  1  0  0  0  0
 18 22  1  0  0  0  0
 19 15  2  0  0  0  0
 20 18  2  0  0  0  0
 20 19  1  0  0  0  0
 22 16  2  0  0  0  0
 23 24  1  0  0  0  0
 24 25  1  6  0  0  0
 26 24  1  0  0  0  0
 26 27  1  1  0  0  0
 28 26  1  0  0  0  0
 28 29  2  0  0  0  0
 30 29  1  0  0  0  0
 30 31  1  0  0  0  0
 31 33  2  0  0  0  0
 31 35  1  0  0  0  0
 32 36  1  0  0  0  0
 33 34  1  0  0  0  0
 34 36  2  0  0  0  0
 35 32  2  0  0  0  0
 37 35  1  0  0  0  0
 37 38  1  0  0  0  0
 38 43  2  0  0  0  0
 38 42  1  0  0  0  0
 40 39  1  0  0  0  0
 41 39  2  0  0  0  0
 42 40  2  0  0  0  0
 43 41  1  0  0  0  0
M  END
>  <MODEL>
3

>  <REMARK>
 VINA RESULT:      -7.2      4.285      6.848
  Name = 
  11 active torsions:
  status: ('A' for Active; 'I' for Inactive)
    1  A    between atoms: N_1  and  C_35
    2  A    between atoms: C_2  and  N_6
    3  A    between atoms: C_2  and  C_13
    4  A    between atoms: C_3  and  C_4
    5  A    between atoms: C_3  and  N_12
    6  A    between atoms: C_8  and  O_27
    7  A    between atoms: C_8  and  C_30
    8  A    between atoms: C_8  and  C_34
    9  A    between atoms: C_11  and  C_14
   10  A    between atoms: C_13  and  O_27
   11  A    between atoms: C_14  and  C_41
                            x       y       z     vdW  Elec       q    Type
                         _______ _______ _______ _____ _____    ______ ____

>  <TORSDO>
F 11

$$$$
=
 OpenBabel11052421243D

 43 47  0  0  1  0  0  0  0  0999 V2000
  190.7500  176.5090  144.7380 C   0  0  1  0  0  3  0  0  0  0  0  0
  190.2550  173.6240  140.4940 C   0  0  0  0  0  0  0  0  0  0  0  0
  191.7090  174.9900  141.8160 C   0  0  0  0  0  0  0  0  0  0  0  0
  189.1450  174.3120  141.0310 C   0  0  0  0  0  3  0  0  0  0  0  0
  190.0030  172.3440  139.3300 Cl  0  0  0  0  0  0  0  0  0  0  0  0
  190.6370  175.6430  142.3530 C   0  0  0  0  0  0  0  0  0  0  0  0
  191.5620  173.9670  140.8820 C   0  0  0  0  0  3  0  0  0  0  0  0
  189.3310  175.3430  141.9700 C   0  0  0  0  0  3  0  0  0  0  0  0
  191.1840  176.6800  143.2750 C   0  0  2  0  0  3  0  0  0  0  0  0
  192.6300  176.4560  143.1480 N   0  0  0  0  0  0  0  0  0  0  0  0
  192.9130  175.5150  142.3360 N   0  0  0  0  0  0  0  0  0  0  0  0
  188.5160  177.6780  144.5990 N   0  0  0  0  0  2  0  0  0  0  0  0
  189.2700  176.5330  145.0060 C   0  0  0  0  0  0  0  0  0  0  0  0
  188.7150  175.5630  145.5900 O   0  0  0  0  0  0  0  0  0  0  0  0
  184.8160  178.2250  144.2910 C   0  0  0  0  0  0  0  0  0  0  0  0
  184.4840  178.4830  145.6250 C   0  0  0  0  0  0  0  0  0  0  0  0
  183.2010  178.7540  145.9690 F   0  0  0  0  0  0  0  0  0  0  0  0
  186.8060  178.2090  146.2540 C   0  0  0  0  0  3  0  0  0  0  0  0
  186.1430  177.9620  143.9410 C   0  0  0  0  0  3  0  0  0  0  0  0
  187.1480  177.9560  144.9200 C   0  0  0  0  0  0  0  0  0  0  0  0
  183.8550  178.2280  143.3350 F   0  0  0  0  0  0  0  0  0  0  0  0
  185.4790  178.4750  146.6050 C   0  0  0  0  0  3  0  0  0  0  0  0
  191.5420  175.6460  145.5370 O   0  0  0  0  0  0  0  0  0  0  0  0
  192.1110  176.3610  146.6090 C   0  0  1  0  0  3  0  0  0  0  0  0
  191.4500  175.9520  147.9130 C   0  0  0  0  0  1  0  0  0  0  0  0
  193.6150  176.0960  146.7040 C   0  0  2  0  0  3  0  0  0  0  0  0
  194.4110  177.1890  146.0140 C   0  0  0  0  0  1  0  0  0  0  0  0
  193.9490  174.8110  146.1440 N   0  0  0  0  0  0  0  0  0  0  0  0
  195.1310  174.5370  145.8640 N   0  0  0  0  0  0  0  0  0  0  0  0
  195.4650  173.2500  145.3140 C   0  0  0  0  0  2  0  0  0  0  0  0
  195.4350  173.2920  143.8180 C   0  0  0  0  0  0  0  0  0  0  0  0
  194.8010  172.3790  141.6580 C   0  0  0  0  0  3  0  0  0  0  0  0
  196.1300  174.3170  143.1670 C   0  0  0  0  0  3  0  0  0  0  0  0
  196.1620  174.3730  141.7710 C   0  0  0  0  0  3  0  0  0  0  0  0
  194.7480  172.3240  143.0590 C   0  0  0  0  0  0  0  0  0  0  0  0
  195.5020  173.4010  141.0170 C   0  0  0  0  0  3  0  0  0  0  0  0
  193.9880  171.2140  143.7280 C   0  0  0  0  0  2  0  0  0  0  0  0
  192.5090  171.4210  143.6420 C   0  0  0  0  0  0  0  0  0  0  0  0
  189.7420  171.7970  143.4510 C   0  0  0  0  0  3  0  0  0  0  0  0
  190.4860  172.5400  144.3710 C   0  0  0  0  0  3  0  0  0  0  0  0
  190.3800  170.8660  142.6270 C   0  0  0  0  0  3  0  0  0  0  0  0
  191.8670  172.3510  144.4700 C   0  0  0  0  0  3  0  0  0  0  0  0
  191.7610  170.6790  142.7220 C   0  0  0  0  0  3  0  0  0  0  0  0
  1 13  1  6  0  0  0
  1 23  1  0  0  0  0
  2  7  2  0  0  0  0
  2  4  1  0  0  0  0
  3 11  1  0  0  0  0
  3  6  2  0  0  0  0
  4  8  2  0  0  0  0
  5  2  1  0  0  0  0
  6  9  1  0  0  0  0
  7  3  1  0  0  0  0
  8  6  1  0  0  0  0
  9  1  1  1  0  0  0
 10  9  1  0  0  0  0
 11 10  2  0  0  0  0
 12 20  1  0  0  0  0
 12 13  1  0  0  0  0
 13 14  2  0  0  0  0
 15 16  1  0  0  0  0
 16 17  1  0  0  0  0
 16 22  2  0  0  0  0
 18 22  1  0  0  0  0
 19 15  2  0  0  0  0
 19 20  1  0  0  0  0
 20 18  2  0  0  0  0
 21 15  1  0  0  0  0
 23 24  1  0  0  0  0
 24 26  1  0  0  0  0
 24 25  1  1  0  0  0
 26 27  1  6  0  0  0
 28 26  1  0  0  0  0
 29 28  2  0  0  0  0
 30 29  1  0  0  0  0
 31 30  1  0  0  0  0
 32 35  1  0  0  0  0
 33 31  1  0  0  0  0
 34 33  2  0  0  0  0
 35 37  1  0  0  0  0
 35 31  2  0  0  0  0
 36 32  2  0  0  0  0
 36 34  1  0  0  0  0
 38 37  1  0  0  0  0
 38 42  1  0  0  0  0
 39 40  1  0  0  0  0
 40 42  2  0  0  0  0
 41 43  1  0  0  0  0
 41 39  2  0  0  0  0
 43 38  2  0  0  0  0
M  END
>  <MODEL>
4

>  <REMARK>
 VINA RESULT:      -7.2      4.308      8.714
  Name = 
  11 active torsions:
  status: ('A' for Active; 'I' for Inactive)
    1  A    between atoms: N_1  and  C_35
    2  A    between atoms: C_2  and  N_6
    3  A    between atoms: C_2  and  C_13
    4  A    between atoms: C_3  and  C_4
    5  A    between atoms: C_3  and  N_12
    6  A    between atoms: C_8  and  O_27
    7  A    between atoms: C_8  and  C_30
    8  A    between atoms: C_8  and  C_34
    9  A    between atoms: C_11  and  C_14
   10  A    between atoms: C_13  and  O_27
   11  A    between atoms: C_14  and  C_41
                            x       y       z     vdW  Elec       q    Type
                         _______ _______ _______ _____ _____    ______ ____

>  <TORSDO>
F 11

$$$$
=
 OpenBabel11052421243D

 43 47  0  0  1  0  0  0  0  0999 V2000
  188.9970  176.0510  142.5110 C   0  0  1  0  0  3  0  0  0  0  0  0
  185.0640  178.5350  144.7330 C   0  0  0  0  0  0  0  0  0  0  0  0
  186.2180  178.0530  142.6930 C   0  0  0  0  0  0  0  0  0  0  0  0
  186.2550  178.2870  145.4480 C   0  0  0  0  0  3  0  0  0  0  0  0
  183.6130  178.9930  145.5950 Cl  0  0  0  0  0  0  0  0  0  0  0  0
  187.3660  177.7930  143.3820 C   0  0  0  0  0  0  0  0  0  0  0  0
  185.0370  178.4250  143.3310 C   0  0  0  0  0  3  0  0  0  0  0  0
  187.4300  177.9160  144.7700 C   0  0  0  0  0  3  0  0  0  0  0  0
  188.4100  177.4630  142.3700 C   0  0  2  0  0  3  0  0  0  0  0  0
  187.6520  177.5720  141.1160 N   0  0  0  0  0  0  0  0  0  0  0  0
  186.4340  177.9000  141.3050 N   0  0  0  0  0  0  0  0  0  0  0  0
  191.3910  176.1590  143.3060 N   0  0  0  0  0  2  0  0  0  0  0  0
  190.0230  175.8560  143.5930 C   0  0  0  0  0  0  0  0  0  0  0  0
  189.6780  175.4200  144.7240 O   0  0  0  0  0  0  0  0  0  0  0  0
  194.2830  176.5700  145.6620 C   0  0  0  0  0  0  0  0  0  0  0  0
  194.7090  175.2430  145.7770 C   0  0  0  0  0  0  0  0  0  0  0  0
  195.7760  174.9330  146.5540 F   0  0  0  0  0  0  0  0  0  0  0  0
  192.9500  174.5490  144.2650 C   0  0  0  0  0  3  0  0  0  0  0  0
  193.1920  176.8840  144.8470 C   0  0  0  0  0  3  0  0  0  0  0  0
  192.5200  175.8750  144.1400 C   0  0  0  0  0  0  0  0  0  0  0  0
  194.9230  177.5540  146.3390 F   0  0  0  0  0  0  0  0  0  0  0  0
  194.0430  174.2330  145.0780 C   0  0  0  0  0  3  0  0  0  0  0  0
  188.1180  174.9700  142.2460 O   0  0  0  0  0  0  0  0  0  0  0  0
  188.8530  173.8090  141.9380 C   0  0  1  0  0  3  0  0  0  0  0  0
  187.9550  172.5880  142.0360 C   0  0  0  0  0  1  0  0  0  0  0  0
  189.4370  173.8900  140.5260 C   0  0  2  0  0  3  0  0  0  0  0  0
  188.8620  172.8080  139.6300 C   0  0  0  0  0  1  0  0  0  0  0  0
  190.8740  173.7970  140.5570 N   0  0  0  0  0  0  0  0  0  0  0  0
  191.4320  172.6850  140.4970 N   0  0  0  0  0  0  0  0  0  0  0  0
  192.8670  172.5930  140.5170 C   0  0  0  0  0  2  0  0  0  0  0  0
  193.3360  171.9270  141.7730 C   0  0  0  0  0  0  0  0  0  0  0  0
  195.0820  171.2530  143.3210 C   0  0  0  0  0  3  0  0  0  0  0  0
  192.3940  171.2590  142.5630 C   0  0  0  0  0  3  0  0  0  0  0  0
  192.7930  170.5920  143.7240 C   0  0  0  0  0  3  0  0  0  0  0  0
  194.6900  171.9410  142.1630 C   0  0  0  0  0  0  0  0  0  0  0  0
  194.1370  170.5840  144.1000 C   0  0  0  0  0  3  0  0  0  0  0  0
  195.7240  172.6550  141.3400 C   0  0  0  0  0  2  0  0  0  0  0  0
  196.1050  173.9700  141.9410 C   0  0  0  0  0  0  0  0  0  0  0  0
  196.8040  176.4490  143.0400 C   0  0  0  0  0  3  0  0  0  0  0  0
  197.5230  175.3030  143.3870 C   0  0  0  0  0  3  0  0  0  0  0  0
  195.7340  176.3570  142.1440 C   0  0  0  0  0  3  0  0  0  0  0  0
  197.1730  174.0640  142.8420 C   0  0  0  0  0  3  0  0  0  0  0  0
  195.3860  175.1200  141.5950 C   0  0  0  0  0  3  0  0  0  0  0  0
  1 23  1  1  0  0  0
  1 13  1  0  0  0  0
  2  4  1  0  0  0  0
  2  5  1  0  0  0  0
  3  7  1  0  0  0  0
  3  6  2  0  0  0  0
  6  8  1  0  0  0  0
  7  2  2  0  0  0  0
  8  4  2  0  0  0  0
  9  1  1  1  0  0  0
  9  6  1  0  0  0  0
 10 11  2  0  0  0  0
 10  9  1  0  0  0  0
 11  3  1  0  0  0  0
 12 13  1  0  0  0  0
 12 20  1  0  0  0  0
 13 14  2  0  0  0  0
 15 16  1  0  0  0  0
 15 21  1  0  0  0  0
 16 17  1  0  0  0  0
 18 22  1  0  0  0  0
 19 15  2  0  0  0  0
 20 18  2  0  0  0  0
 20 19  1  0  0  0  0
 22 16  2  0  0  0  0
 24 25  1  6  0  0  0
 24 23  1  0  0  0  0
 26 27  1  6  0  0  0
 26 28  1  0  0  0  0
 26 24  1  0  0  0  0
 29 30  1  0  0  0  0
 29 28  2  0  0  0  0
 30 31  1  0  0  0  0
 31 35  2  0  0  0  0
 31 33  1  0  0  0  0
 32 36  2  0  0  0  0
 33 34  2  0  0  0  0
 34 36  1  0  0  0  0
 35 32  1  0  0  0  0
 37 38  1  0  0  0  0
 37 35  1  0  0  0  0
 38 42  1  0  0  0  0
 39 40  1  0  0  0  0
 41 39  2  0  0  0  0
 42 40  2  0  0  0  0
 43 38  2  0  0  0  0
 43 41  1  0  0  0  0
M  END
>  <MODEL>
5

>  <REMARK>
 VINA RESULT:      -7.2      3.761      7.947
  Name = 
  11 active torsions:
  status: ('A' for Active; 'I' for Inactive)
    1  A    between atoms: N_1  and  C_35
    2  A    between atoms: C_2  and  N_6
    3  A    between atoms: C_2  and  C_13
    4  A    between atoms: C_3  and  C_4
    5  A    between atoms: C_3  and  N_12
    6  A    between atoms: C_8  and  O_27
    7  A    between atoms: C_8  and  C_30
    8  A    between atoms: C_8  and  C_34
    9  A    between atoms: C_11  and  C_14
   10  A    between atoms: C_13  and  O_27
   11  A    between atoms: C_14  and  C_41
                            x       y       z     vdW  Elec       q    Type
                         _______ _______ _______ _____ _____    ______ ____

>  <TORSDO>
F 11

$$$$
=
 OpenBabel11052421243D

 43 47  0  0  1  0  0  0  0  0999 V2000
  193.8350  172.3760  141.8110 C   0  0  1  0  0  3  0  0  0  0  0  0
  188.8760  173.7700  142.0340 C   0  0  0  0  0  0  0  0  0  0  0  0
  190.4350  171.9550  141.9770 C   0  0  0  0  0  0  0  0  0  0  0  0
  189.8250  174.5850  141.3810 C   0  0  0  0  0  3  0  0  0  0  0  0
  187.3140  174.4280  142.4640 Cl  0  0  0  0  0  0  0  0  0  0  0  0
  191.3620  172.7460  141.3630 C   0  0  0  0  0  0  0  0  0  0  0  0
  189.1750  172.4300  142.3360 C   0  0  0  0  0  3  0  0  0  0  0  0
  191.0870  174.0710  141.0300 C   0  0  0  0  0  3  0  0  0  0  0  0
  192.5570  171.8910  141.1100 C   0  0  2  0  0  3  0  0  0  0  0  0
  192.1270  170.6060  141.6780 N   0  0  0  0  0  0  0  0  0  0  0  0
  190.9460  170.6510  142.1580 N   0  0  0  0  0  0  0  0  0  0  0  0
  194.3510  171.4850  144.1160 N   0  0  0  0  0  2  0  0  0  0  0  0
  194.5290  171.3830  142.7010 C   0  0  0  0  0  0  0  0  0  0  0  0
  195.2650  170.4890  142.2020 O   0  0  0  0  0  0  0  0  0  0  0  0
  195.1230  169.2100  146.9990 C   0  0  0  0  0  0  0  0  0  0  0  0
  196.5170  169.3200  147.0450 C   0  0  0  0  0  0  0  0  0  0  0  0
  197.2240  168.6430  147.9830 F   0  0  0  0  0  0  0  0  0  0  0  0
  196.4560  170.8510  145.1700 C   0  0  0  0  0  3  0  0  0  0  0  0
  194.3990  169.9220  146.0400 C   0  0  0  0  0  3  0  0  0  0  0  0
  195.0600  170.7510  145.1210 C   0  0  0  0  0  0  0  0  0  0  0  0
  194.4710  168.4140  147.8800 F   0  0  0  0  0  0  0  0  0  0  0  0
  197.1820  170.1410  146.1310 C   0  0  0  0  0  3  0  0  0  0  0  0
  194.6500  173.2810  141.0850 O   0  0  0  0  0  0  0  0  0  0  0  0
  195.0710  174.3340  141.9210 C   0  0  1  0  0  3  0  0  0  0  0  0
  196.5750  174.2650  142.1230 C   0  0  0  0  0  1  0  0  0  0  0  0
  194.7090  175.6910  141.3130 C   0  0  2  0  0  3  0  0  0  0  0  0
  195.9190  176.6050  141.2480 C   0  0  0  0  0  1  0  0  0  0  0  0
  193.6500  176.3240  142.0590 N   0  0  0  0  0  0  0  0  0  0  0  0
  193.5780  176.1780  143.2930 N   0  0  0  0  0  0  0  0  0  0  0  0
  192.5270  176.8180  144.0380 C   0  0  0  0  0  2  0  0  0  0  0  0
  191.5610  175.8040  144.5650 C   0  0  0  0  0  0  0  0  0  0  0  0
  189.4280  175.1800  145.5460 C   0  0  0  0  0  3  0  0  0  0  0  0
  191.9700  174.4680  144.6330 C   0  0  0  0  0  3  0  0  0  0  0  0
  191.1140  173.4930  145.1540 C   0  0  0  0  0  3  0  0  0  0  0  0
  190.2720  176.1630  145.0080 C   0  0  0  0  0  0  0  0  0  0  0  0
  189.8460  173.8500  145.6150 C   0  0  0  0  0  3  0  0  0  0  0  0
  189.8010  177.5880  144.9430 C   0  0  0  0  0  2  0  0  0  0  0  0
  188.7540  177.7820  143.8940 C   0  0  0  0  0  0  0  0  0  0  0  0
  186.8170  178.1570  141.9070 C   0  0  0  0  0  3  0  0  0  0  0  0
  186.4390  178.1090  143.2510 C   0  0  0  0  0  3  0  0  0  0  0  0
  188.1620  178.0170  141.5550 C   0  0  0  0  0  3  0  0  0  0  0  0
  187.4040  177.9180  144.2430 C   0  0  0  0  0  3  0  0  0  0  0  0
  189.1290  177.8300  142.5460 C   0  0  0  0  0  3  0  0  0  0  0  0
  1 23  1  6  0  0  0
  1 13  1  0  0  0  0
  2  7  1  0  0  0  0
  2  5  1  0  0  0  0
  3 11  1  0  0  0  0
  3  7  2  0  0  0  0
  4  2  2  0  0  0  0
  6  3  1  0  0  0  0
  8  6  2  0  0  0  0
  8  4  1  0  0  0  0
  9  6  1  0  0  0  0
  9 10  1  0  0  0  0
  9  1  1  1  0  0  0
 10 11  2  0  0  0  0
 12 20  1  0  0  0  0
 13 12  1  0  0  0  0
 14 13  2  0  0  0  0
 15 16  1  0  0  0  0
 15 21  1  0  0  0  0
 16 17  1  0  0  0  0
 18 22  1  0  0  0  0
 19 15  2  0  0  0  0
 20 18  2  0  0  0  0
 20 19  1  0  0  0  0
 22 16  2  0  0  0  0
 23 24  1  0  0  0  0
 24 25  1  6  0  0  0
 26 27  1  1  0  0  0
 26 24  1  0  0  0  0
 26 28  1  0  0  0  0
 28 29  2  0  0  0  0
 29 30  1  0  0  0  0
 30 31  1  0  0  0  0
 31 33  2  0  0  0  0
 31 35  1  0  0  0  0
 32 36  1  0  0  0  0
 33 34  1  0  0  0  0
 34 36  2  0  0  0  0
 35 32  2  0  0  0  0
 37 35  1  0  0  0  0
 38 42  1  0  0  0  0
 38 37  1  0  0  0  0
 39 40  1  0  0  0  0
 40 42  2  0  0  0  0
 41 39  2  0  0  0  0
 41 43  1  0  0  0  0
 43 38  2  0  0  0  0
M  END
>  <MODEL>
6

>  <REMARK>
 VINA RESULT:      -7.1      4.184      6.411
  Name = 
  11 active torsions:
  status: ('A' for Active; 'I' for Inactive)
    1  A    between atoms: N_1  and  C_35
    2  A    between atoms: C_2  and  N_6
    3  A    between atoms: C_2  and  C_13
    4  A    between atoms: C_3  and  C_4
    5  A    between atoms: C_3  and  N_12
    6  A    between atoms: C_8  and  O_27
    7  A    between atoms: C_8  and  C_30
    8  A    between atoms: C_8  and  C_34
    9  A    between atoms: C_11  and  C_14
   10  A    between atoms: C_13  and  O_27
   11  A    between atoms: C_14  and  C_41
                            x       y       z     vdW  Elec       q    Type
                         _______ _______ _______ _____ _____    ______ ____

>  <TORSDO>
F 11

$$$$
=
 OpenBabel11052421243D

 43 47  0  0  1  0  0  0  0  0999 V2000
  189.6870  175.4490  144.4340 C   0  0  1  0  0  3  0  0  0  0  0  0
  185.6030  178.5880  144.2210 C   0  0  0  0  0  0  0  0  0  0  0  0
  187.6570  177.9190  143.1920 C   0  0  0  0  0  0  0  0  0  0  0  0
  186.0910  178.1230  145.4610 C   0  0  0  0  0  3  0  0  0  0  0  0
  184.0060  179.2940  144.1250 Cl  0  0  0  0  0  0  0  0  0  0  0  0
  188.1240  177.4510  144.3850 C   0  0  0  0  0  0  0  0  0  0  0  0
  186.3950  178.4940  143.0630 C   0  0  0  0  0  3  0  0  0  0  0  0
  187.3720  177.5510  145.5550 C   0  0  0  0  0  3  0  0  0  0  0  0
  189.5050  176.9450  144.1380 C   0  0  2  0  0  3  0  0  0  0  0  0
  189.6590  177.1970  142.6990 N   0  0  0  0  0  0  0  0  0  0  0  0
  188.6270  177.7390  142.1810 N   0  0  0  0  0  0  0  0  0  0  0  0
  190.6600  173.8310  142.7570 N   0  0  0  0  0  2  0  0  0  0  0  0
  189.5110  174.5100  143.2730 C   0  0  0  0  0  0  0  0  0  0  0  0
  188.3720  174.3400  142.7600 O   0  0  0  0  0  0  0  0  0  0  0  0
  190.6050  170.9160  140.3930 C   0  0  0  0  0  0  0  0  0  0  0  0
  190.8250  171.5700  139.1770 C   0  0  0  0  0  0  0  0  0  0  0  0
  190.8920  170.8610  138.0230 F   0  0  0  0  0  0  0  0  0  0  0  0
  190.9340  173.6910  140.3380 C   0  0  0  0  0  3  0  0  0  0  0  0
  190.5520  171.6520  141.5800 C   0  0  0  0  0  3  0  0  0  0  0  0
  190.7210  173.0440  141.5610 C   0  0  0  0  0  0  0  0  0  0  0  0
  190.4410  169.5720  140.4270 F   0  0  0  0  0  0  0  0  0  0  0  0
  190.9890  172.9570  139.1500 C   0  0  0  0  0  3  0  0  0  0  0  0
  190.6640  175.1090  145.4030 O   0  0  0  0  0  0  0  0  0  0  0  0
  190.2720  175.5750  146.6740 C   0  0  1  0  0  3  0  0  0  0  0  0
  189.2370  174.6380  147.2710 C   0  0  0  0  0  1  0  0  0  0  0  0
  191.4730  175.6630  147.6170 C   0  0  2  0  0  3  0  0  0  0  0  0
  191.3990  176.9050  148.4870 C   0  0  0  0  0  1  0  0  0  0  0  0
  192.7110  175.6470  146.8800 N   0  0  0  0  0  0  0  0  0  0  0  0
  193.3250  176.7080  146.6630 N   0  0  0  0  0  0  0  0  0  0  0  0
  194.5660  176.6900  145.9360 C   0  0  0  0  0  2  0  0  0  0  0  0
  194.3730  176.0920  144.5770 C   0  0  0  0  0  0  0  0  0  0  0  0
  195.0120  174.5770  142.7890 C   0  0  0  0  0  3  0  0  0  0  0  0
  193.3490  176.5960  143.7690 C   0  0  0  0  0  3  0  0  0  0  0  0
  193.1570  176.0950  142.4780 C   0  0  0  0  0  3  0  0  0  0  0  0
  195.2020  175.0610  144.0930 C   0  0  0  0  0  0  0  0  0  0  0  0
  193.9910  175.0890  141.9880 C   0  0  0  0  0  3  0  0  0  0  0  0
  196.3060  174.4940  144.9380 C   0  0  0  0  0  2  0  0  0  0  0  0
  196.0720  173.0550  145.2710 C   0  0  0  0  0  0  0  0  0  0  0  0
  195.6640  170.3530  145.8790 C   0  0  0  0  0  3  0  0  0  0  0  0
  194.5710  171.2160  145.7630 C   0  0  0  0  0  3  0  0  0  0  0  0
  196.9610  170.8400  145.6920 C   0  0  0  0  0  3  0  0  0  0  0  0
  194.7740  172.5660  145.4630 C   0  0  0  0  0  3  0  0  0  0  0  0
  197.1640  172.1880  145.3880 C   0  0  0  0  0  3  0  0  0  0  0  0
  1 13  1  6  0  0  0
  1 23  1  0  0  0  0
  2  4  1  0  0  0  0
  3  6  2  0  0  0  0
  4  8  2  0  0  0  0
  5  2  1  0  0  0  0
  6  8  1  0  0  0  0
  7  3  1  0  0  0  0
  7  2  2  0  0  0  0
  9  6  1  0  0  0  0
  9  1  1  6  0  0  0
 10  9  1  0  0  0  0
 11 10  2  0  0  0  0
 11  3  1  0  0  0  0
 12 13  1  0  0  0  0
 14 13  2  0  0  0  0
 15 21  1  0  0  0  0
 15 19  1  0  0  0  0
 16 15  2  0  0  0  0
 17 16  1  0  0  0  0
 18 20  1  0  0  0  0
 20 19  2  0  0  0  0
 20 12  1  0  0  0  0
 22 16  1  0  0  0  0
 22 18  2  0  0  0  0
 23 24  1  0  0  0  0
 24 25  1  1  0  0  0
 24 26  1  0  0  0  0
 26 27  1  6  0  0  0
 28 26  1  0  0  0  0
 29 28  2  0  0  0  0
 30 29  1  0  0  0  0
 31 30  1  0  0  0  0
 32 35  2  0  0  0  0
 33 31  2  0  0  0  0
 34 33  1  0  0  0  0
 35 31  1  0  0  0  0
 35 37  1  0  0  0  0
 36 34  2  0  0  0  0
 36 32  1  0  0  0  0
 37 38  1  0  0  0  0
 38 43  2  0  0  0  0
 38 42  1  0  0  0  0
 40 39  1  0  0  0  0
 41 39  2  0  0  0  0
 42 40  2  0  0  0  0
 43 41  1  0  0  0  0
M  END
>  <MODEL>
7

>  <REMARK>
 VINA RESULT:      -7.1      3.497      7.618
  Name = 
  11 active torsions:
  status: ('A' for Active; 'I' for Inactive)
    1  A    between atoms: N_1  and  C_35
    2  A    between atoms: C_2  and  N_6
    3  A    between atoms: C_2  and  C_13
    4  A    between atoms: C_3  and  C_4
    5  A    between atoms: C_3  and  N_12
    6  A    between atoms: C_8  and  O_27
    7  A    between atoms: C_8  and  C_30
    8  A    between atoms: C_8  and  C_34
    9  A    between atoms: C_11  and  C_14
   10  A    between atoms: C_13  and  O_27
   11  A    between atoms: C_14  and  C_41
                            x       y       z     vdW  Elec       q    Type
                         _______ _______ _______ _____ _____    ______ ____

>  <TORSDO>
F 11

$$$$
=
 OpenBabel11052421243D

 43 47  0  0  1  0  0  0  0  0999 V2000
  188.9050  173.3870  140.9420 C   0  0  1  0  0  3  0  0  0  0  0  0
  190.2940  171.0200  136.5780 C   0  0  0  0  0  0  0  0  0  0  0  0
  189.2210  172.9210  137.5590 C   0  0  0  0  0  0  0  0  0  0  0  0
  190.0030  170.2750  137.7400 C   0  0  0  0  0  3  0  0  0  0  0  0
  191.1500  170.2650  135.2530 Cl  0  0  0  0  0  0  0  0  0  0  0  0
  188.9560  172.2090  138.6920 C   0  0  0  0  0  0  0  0  0  0  0  0
  189.8950  172.3640  136.4740 C   0  0  0  0  0  3  0  0  0  0  0  0
  189.3170  170.8680  138.8160 C   0  0  0  0  0  3  0  0  0  0  0  0
  188.2020  173.1180  139.6040 C   0  0  2  0  0  3  0  0  0  0  0  0
  188.1410  174.3510  138.8090 N   0  0  0  0  0  0  0  0  0  0  0  0
  188.7100  174.2330  137.6730 N   0  0  0  0  0  0  0  0  0  0  0  0
  187.3450  175.0100  142.0840 N   0  0  0  0  0  2  0  0  0  0  0  0
  188.6510  174.7270  141.5750 C   0  0  0  0  0  0  0  0  0  0  0  0
  189.5730  175.5850  141.6390 O   0  0  0  0  0  0  0  0  0  0  0  0
  185.5280  177.6300  144.0650 C   0  0  0  0  0  0  0  0  0  0  0  0
  186.0000  178.7910  143.4460 C   0  0  0  0  0  0  0  0  0  0  0  0
  185.5720  180.0080  143.8620 F   0  0  0  0  0  0  0  0  0  0  0  0
  187.3410  177.4450  141.9460 C   0  0  0  0  0  3  0  0  0  0  0  0
  185.9620  176.3780  143.6220 C   0  0  0  0  0  3  0  0  0  0  0  0
  186.8690  176.2770  142.5560 C   0  0  0  0  0  0  0  0  0  0  0  0
  184.6520  177.7120  145.0960 F   0  0  0  0  0  0  0  0  0  0  0  0
  186.9060  178.6980  142.3870 C   0  0  0  0  0  3  0  0  0  0  0  0
  189.0630  172.2770  141.8100 O   0  0  0  0  0  0  0  0  0  0  0  0
  190.1070  172.5180  142.7240 C   0  0  1  0  0  3  0  0  0  0  0  0
  189.7610  171.9150  144.0750 C   0  0  0  0  0  1  0  0  0  0  0  0
  191.4200  171.9120  142.2260 C   0  0  2  0  0  3  0  0  0  0  0  0
  191.8500  170.7420  143.0930 C   0  0  0  0  0  1  0  0  0  0  0  0
  192.4630  172.9050  142.1810 N   0  0  0  0  0  0  0  0  0  0  0  0
  192.2390  174.0670  142.5670 N   0  0  0  0  0  0  0  0  0  0  0  0
  193.2830  175.0560  142.5320 C   0  0  0  0  0  2  0  0  0  0  0  0
  193.6830  175.4510  143.9180 C   0  0  0  0  0  0  0  0  0  0  0  0
  193.4180  176.7890  145.9290 C   0  0  0  0  0  3  0  0  0  0  0  0
  194.8170  174.8540  144.4790 C   0  0  0  0  0  3  0  0  0  0  0  0
  195.2500  175.2210  145.7570 C   0  0  0  0  0  3  0  0  0  0  0  0
  192.9650  176.4150  144.6550 C   0  0  0  0  0  0  0  0  0  0  0  0
  194.5530  176.1920  146.4790 C   0  0  0  0  0  3  0  0  0  0  0  0
  191.7410  177.0710  144.0830 C   0  0  0  0  0  2  0  0  0  0  0  0
  190.5200  176.7780  144.8950 C   0  0  0  0  0  0  0  0  0  0  0  0
  188.2340  176.1980  146.4040 C   0  0  0  0  0  3  0  0  0  0  0  0
  188.5310  177.5200  146.0660 C   0  0  0  0  0  3  0  0  0  0  0  0
  189.0800  175.1650  145.9900 C   0  0  0  0  0  3  0  0  0  0  0  0
  189.6730  177.8110  145.3150 C   0  0  0  0  0  3  0  0  0  0  0  0
  190.2210  175.4540  145.2370 C   0  0  0  0  0  3  0  0  0  0  0  0
  1 13  1  1  0  0  0
  1 23  1  0  0  0  0
  2  4  1  0  0  0  0
  3 11  1  0  0  0  0
  3  6  2  0  0  0  0
  4  8  2  0  0  0  0
  5  2  1  0  0  0  0
  6  8  1  0  0  0  0
  6  9  1  0  0  0  0
  7  2  2  0  0  0  0
  7  3  1  0  0  0  0
  9  1  1  1  0  0  0
 10  9  1  0  0  0  0
 11 10  2  0  0  0  0
 12 20  1  0  0  0  0
 13 14  2  0  0  0  0
 13 12  1  0  0  0  0
 15 21  1  0  0  0  0
 16 17  1  0  0  0  0
 16 15  2  0  0  0  0
 18 22  2  0  0  0  0
 18 20  1  0  0  0  0
 19 15  1  0  0  0  0
 20 19  2  0  0  0  0
 22 16  1  0  0  0  0
 23 24  1  0  0  0  0
 24 25  1  1  0  0  0
 26 24  1  0  0  0  0
 26 27  1  1  0  0  0
 28 26  1  0  0  0  0
 28 29  2  0  0  0  0
 30 29  1  0  0  0  0
 30 31  1  0  0  0  0
 31 33  2  0  0  0  0
 31 35  1  0  0  0  0
 32 36  1  0  0  0  0
 33 34  1  0  0  0  0
 34 36  2  0  0  0  0
 35 32  2  0  0  0  0
 37 35  1  0  0  0  0
 37 38  1  0  0  0  0
 38 43  2  0  0  0  0
 38 42  1  0  0  0  0
 40 39  1  0  0  0  0
 41 39  2  0  0  0  0
 42 40  2  0  0  0  0
 43 41  1  0  0  0  0
M  END
>  <MODEL>
8

>  <REMARK>
 VINA RESULT:      -7.1      4.776      8.000
  Name = 
  11 active torsions:
  status: ('A' for Active; 'I' for Inactive)
    1  A    between atoms: N_1  and  C_35
    2  A    between atoms: C_2  and  N_6
    3  A    between atoms: C_2  and  C_13
    4  A    between atoms: C_3  and  C_4
    5  A    between atoms: C_3  and  N_12
    6  A    between atoms: C_8  and  O_27
    7  A    between atoms: C_8  and  C_30
    8  A    between atoms: C_8  and  C_34
    9  A    between atoms: C_11  and  C_14
   10  A    between atoms: C_13  and  O_27
   11  A    between atoms: C_14  and  C_41
                            x       y       z     vdW  Elec       q    Type
                         _______ _______ _______ _____ _____    ______ ____

>  <TORSDO>
F 11

$$$$
=
 OpenBabel11052421243D

 43 47  0  0  1  0  0  0  0  0999 V2000
  192.4540  172.0870  142.2540 C   0  0  1  0  0  3  0  0  0  0  0  0
  194.5080  169.2760  146.0570 C   0  0  0  0  0  0  0  0  0  0  0  0
  194.8800  170.9690  144.4060 C   0  0  0  0  0  0  0  0  0  0  0  0
  193.4510  168.7660  145.2730 C   0  0  0  0  0  3  0  0  0  0  0  0
  194.9120  168.5110  147.5760 Cl  0  0  0  0  0  0  0  0  0  0  0  0
  193.8460  170.4900  143.6560 C   0  0  0  0  0  0  0  0  0  0  0  0
  195.2440  170.3920  145.6200 C   0  0  0  0  0  3  0  0  0  0  0  0
  193.1130  169.3710  144.0490 C   0  0  0  0  0  3  0  0  0  0  0  0
  193.7800  171.3320  142.4270 C   0  0  2  0  0  3  0  0  0  0  0  0
  194.8760  172.2820  142.6600 N   0  0  0  0  0  0  0  0  0  0  0  0
  195.4820  172.0730  143.7620 N   0  0  0  0  0  0  0  0  0  0  0  0
  192.1430  173.1490  144.5240 N   0  0  0  0  0  2  0  0  0  0  0  0
  192.2640  173.3100  143.1080 C   0  0  0  0  0  0  0  0  0  0  0  0
  192.1990  174.4520  142.5770 O   0  0  0  0  0  0  0  0  0  0  0  0
  190.2030  175.2090  146.9890 C   0  0  0  0  0  0  0  0  0  0  0  0
  191.1660  176.1590  147.3410 C   0  0  0  0  0  0  0  0  0  0  0  0
  190.8660  177.1360  148.2320 F   0  0  0  0  0  0  0  0  0  0  0  0
  192.7470  175.1140  145.8350 C   0  0  0  0  0  3  0  0  0  0  0  0
  190.5130  174.2140  146.0580 C   0  0  0  0  0  3  0  0  0  0  0  0
  191.7860  174.1620  145.4720 C   0  0  0  0  0  0  0  0  0  0  0  0
  188.9680  175.2470  147.5470 F   0  0  0  0  0  0  0  0  0  0  0  0
  192.4370  176.1120  146.7640 C   0  0  0  0  0  3  0  0  0  0  0  0
  191.9060  172.1150  140.9470 O   0  0  0  0  0  0  0  0  0  0  0  0
  190.6300  171.5180  140.9410 C   0  0  1  0  0  3  0  0  0  0  0  0
  190.2220  171.1570  142.3590 C   0  0  0  0  0  1  0  0  0  0  0  0
  189.5870  172.4650  140.3440 C   0  0  2  0  0  3  0  0  0  0  0  0
  190.2410  173.5250  139.4760 C   0  0  0  0  0  1  0  0  0  0  0  0
  188.8030  173.0880  141.3800 N   0  0  0  0  0  0  0  0  0  0  0  0
  188.5710  174.3100  141.3410 N   0  0  0  0  0  0  0  0  0  0  0  0
  187.7800  174.9300  142.3710 C   0  0  0  0  0  2  0  0  0  0  0  0
  188.5570  176.0110  143.0560 C   0  0  0  0  0  0  0  0  0  0  0  0
  188.9070  177.5750  144.8810 C   0  0  0  0  0  3  0  0  0  0  0  0
  189.6820  176.5320  142.4090 C   0  0  0  0  0  3  0  0  0  0  0  0
  190.4160  177.5690  142.9930 C   0  0  0  0  0  3  0  0  0  0  0  0
  188.1740  176.5220  144.3120 C   0  0  0  0  0  0  0  0  0  0  0  0
  190.0250  178.0930  144.2260 C   0  0  0  0  0  3  0  0  0  0  0  0
  186.9750  175.9790  145.0350 C   0  0  0  0  0  2  0  0  0  0  0  0
  185.9090  177.0150  145.2030 C   0  0  0  0  0  0  0  0  0  0  0  0
  183.9050  178.9390  145.5460 C   0  0  0  0  0  3  0  0  0  0  0  0
  184.3760  178.6420  144.2650 C   0  0  0  0  0  3  0  0  0  0  0  0
  184.4360  178.2760  146.6570 C   0  0  0  0  0  3  0  0  0  0  0  0
  185.3790  177.6840  144.0920 C   0  0  0  0  0  3  0  0  0  0  0  0
  185.4360  177.3150  146.4850 C   0  0  0  0  0  3  0  0  0  0  0  0
  1 23  1  6  0  0  0
  1 13  1  0  0  0  0
  2  5  1  0  0  0  0
  3  7  2  0  0  0  0
  4  2  2  0  0  0  0
  6  8  2  0  0  0  0
  6  3  1  0  0  0  0
  7  2  1  0  0  0  0
  8  4  1  0  0  0  0
  9  1  1  1  0  0  0
  9 10  1  0  0  0  0
  9  6  1  0  0  0  0
 10 11  2  0  0  0  0
 11  3  1  0  0  0  0
 12 20  1  0  0  0  0
 13 12  1  0  0  0  0
 14 13  2  0  0  0  0
 15 16  1  0  0  0  0
 15 21  1  0  0  0  0
 16 17  1  0  0  0  0
 18 22  1  0  0  0  0
 19 15  2  0  0  0  0
 20 18  2  0  0  0  0
 20 19  1  0  0  0  0
 22 16  2  0  0  0  0
 24 23  1  0  0  0  0
 24 25  1  1  0  0  0
 26 27  1  1  0  0  0
 26 24  1  0  0  0  0
 26 28  1  0  0  0  0
 29 28  2  0  0  0  0
 29 30  1  0  0  0  0
 30 31  1  0  0  0  0
 31 35  1  0  0  0  0
 33 34  1  0  0  0  0
 33 31  2  0  0  0  0
 34 36  2  0  0  0  0
 35 32  2  0  0  0  0
 35 37  1  0  0  0  0
 36 32  1  0  0  0  0
 37 38  1  0  0  0  0
 38 43  1  0  0  0  0
 39 41  1  0  0  0  0
 40 39  2  0  0  0  0
 42 40  1  0  0  0  0
 42 38  2  0  0  0  0
 43 41  2  0  0  0  0
M  END
>  <MODEL>
9

>  <REMARK>
 VINA RESULT:      -7.1      4.387      5.790
  Name = 
  11 active torsions:
  status: ('A' for Active; 'I' for Inactive)
    1  A    between atoms: N_1  and  C_35
    2  A    between atoms: C_2  and  N_6
    3  A    between atoms: C_2  and  C_13
    4  A    between atoms: C_3  and  C_4
    5  A    between atoms: C_3  and  N_12
    6  A    between atoms: C_8  and  O_27
    7  A    between atoms: C_8  and  C_30
    8  A    between atoms: C_8  and  C_34
    9  A    between atoms: C_11  and  C_14
   10  A    between atoms: C_13  and  O_27
   11  A    between atoms: C_14  and  C_41
                            x       y       z     vdW  Elec       q    Type
                         _______ _______ _______ _____ _____    ______ ____

>  <TORSDO>
F 11

$$$$
