=
 OpenBabel11052419393D

 55 59  0  0  1  0  0  0  0  0999 V2000
  188.3310  173.2410  139.0660 C   0  0  0  0  0  2  0  0  0  0  0  0
  190.9120  172.3280  139.6420 C   0  0  2  0  0  3  0  0  0  0  0  0
  190.1370  173.1590  140.6700 C   0  0  0  0  0  2  0  0  0  0  0  0
  189.2310  172.4350  138.1300 C   0  0  0  0  0  2  0  0  0  0  0  0
  189.1580  174.0190  139.9940 N   0  0  0  0  0  0  0  0  0  0  0  0
  190.0170  171.5480  138.8850 O   0  0  0  0  0  0  0  0  0  0  0  0
  191.8700  171.4180  140.3900 C   0  0  0  0  0  2  0  0  0  0  0  0
  193.2420  171.4040  139.7440 C   0  0  2  0  0  3  0  0  0  0  0  0
  194.2640  171.0800  140.8180 C   0  0  0  0  0  1  0  0  0  0  0  0
  193.5290  172.7760  139.1470 C   0  0  0  0  0  2  0  0  0  0  0  0
  194.8650  173.3440  139.6200 C   0  0  0  0  0  2  0  0  0  0  0  0
  195.0110  174.8410  139.3380 C   0  0  2  0  0  3  0  0  0  0  0  0
  197.1690  174.1710  138.4910 O   0  0  0  0  0  1  0  0  0  0  0  0
  196.1590  175.1230  138.3570 C   0  0  1  0  0  3  0  0  0  0  0  0
  195.6640  175.0960  136.9200 C   0  0  0  0  0  1  0  0  0  0  0  0
  195.2730  175.5700  140.6540 C   0  0  0  0  0  2  0  0  0  0  0  0
  196.7020  174.6420  142.4470 C   0  0  2  0  0  3  0  0  0  0  0  0
  193.2840  173.9600  142.6040 O   0  0  0  0  0  1  0  0  0  0  0  0
  195.3810  174.6330  141.7830 N   0  0  0  0  0  0  0  0  0  0  0  0
  196.8510  172.6820  145.4750 C   0  0  0  0  0  3  0  0  0  0  0  0
  193.8970  176.1400  142.8770 O   0  0  0  0  0  1  0  0  0  0  0  0
  194.3620  174.8200  142.8400 C   0  0  0  0  0  0  0  0  0  0  0  0
  195.3930  172.4750  145.5500 C   0  0  0  0  0  3  0  0  0  0  0  0
  194.5460  173.2880  144.9080 C   0  0  0  0  0  3  0  0  0  0  0  0
  196.4610  174.3870  143.8490 N   0  0  0  0  0  0  0  0  0  0  0  0
  195.0500  174.5110  144.1740 C   0  0  1  0  0  3  0  0  0  0  0  0
  197.3540  173.5880  144.6340 C   0  0  0  0  0  3  0  0  0  0  0  0
  197.5140  175.9400  142.2830 C   0  0  0  0  0  2  0  0  0  0  0  0
  197.1890  176.8600  143.2820 O   0  0  0  0  0  1  0  0  0  0  0  0
  188.2980  174.6840  140.9830 C   0  0  0  0  0  2  0  0  0  0  0  0
  189.0300  175.6210  141.9090 C   0  0  0  0  0  3  0  0  0  0  0  0
  189.1730  175.3320  143.1600 N   0  0  0  0  0  0  0  0  0  0  0  0
  189.8610  176.1920  143.9910 O   0  0  0  0  0  0  0  0  0  0  0  0
  188.5910  175.5910  145.9180 C   0  0  0  0  0  2  0  0  0  0  0  0
  190.7510  176.0630  146.9940 C   0  0  1  0  0  3  0  0  0  0  0  0
  189.2630  176.7310  145.1770 C   0  0  1  0  0  0  0  0  0  0  0  0
  190.3160  177.2530  146.1540 C   0  0  0  0  0  2  0  0  0  0  0  0
  189.5600  175.1100  146.9850 C   0  0  0  0  0  2  0  0  0  0  0  0
  191.9200  175.4170  146.3920 N   0  0  0  0  0  0  0  0  0  0  0  0
  192.6010  174.7910  147.3830 O   0  0  0  0  0  1  0  0  0  0  0  0
  192.7350  176.3990  145.9350 O   0  0  0  0  0  1  0  0  0  0  0  0
  188.2800  177.7020  144.8760 O   0  0  0  0  0  0  0  0  0  0  0  0
  187.0210  177.2350  145.2930 C   0  0  0  0  0  2  0  0  0  0  0  0
  185.8990  177.8960  144.4910 C   0  0  1  0  0  3  0  0  0  0  0  0
  185.2680  180.3220  144.3050 C   0  0  0  0  0  1  0  0  0  0  0  0
  185.3010  179.1070  145.2200 C   0  0  0  0  0  3  0  0  0  0  0  0
  183.8850  178.8310  145.6980 C   0  0  0  0  0  1  0  0  0  0  0  0
  186.4110  178.3030  143.1110 C   0  0  0  0  0  2  0  0  0  0  0  0
  185.7620  177.4600  142.0240 C   0  0  0  0  0  2  0  0  0  0  0  0
  184.7560  178.2810  141.2350 C   0  0  0  0  0  2  0  0  0  0  0  0
  183.3550  178.1050  141.7960 C   0  0  0  0  0  2  0  0  0  0  0  0
  182.3180  178.2800  140.7020 C   0  0  0  0  0  2  0  0  0  0  0  0
  180.6860  179.3300  142.2220 C   0  0  0  0  0  2  0  0  0  0  0  0
  180.9250  178.1680  141.2800 C   0  0  0  0  0  3  0  0  0  0  0  0
  180.1040  179.3600  140.8270 C   0  0  0  0  0  2  0  0  0  0  0  0
  1  5  1  0  0  0  0
  2  7  1  1  0  0  0
  2  3  1  0  0  0  0
  4  6  1  0  0  0  0
  4  1  1  0  0  0  0
  5  3  1  0  0  0  0
  5 30  1  0  0  0  0
  6  2  1  0  0  0  0
  8  7  1  0  0  0  0
  8  9  1  1  0  0  0
 10 11  1  0  0  0  0
 10  8  1  0  0  0  0
 12 11  1  1  0  0  0
 12 16  1  0  0  0  0
 14 15  1  6  0  0  0
 14 13  1  0  0  0  0
 14 12  1  0  0  0  0
 16 19  1  0  0  0  0
 17 28  1  1  0  0  0
 17 25  1  0  0  0  0
 18 22  1  0  0  0  0
 19 17  1  0  0  0  0
 19 22  1  0  0  0  0
 20 23  1  0  0  0  0
 22 21  1  0  0  0  0
 22 26  1  0  0  0  0
 24 23  2  0  0  0  0
 25 26  1  0  0  0  0
 25 27  1  0  0  0  0
 26 24  1  6  0  0  0
 27 20  2  0  0  0  0
 28 29  1  0  0  0  0
 30 31  1  0  0  0  0
 31 32  2  0  0  0  0
 32 33  1  0  0  0  0
 34 38  1  0  0  0  0
 35 39  1  6  0  0  0
 36 33  1  6  0  0  0
 36 34  1  0  0  0  0
 36 37  1  0  0  0  0
 37 35  1  0  0  0  0
 38 35  1  0  0  0  0
 39 40  1  0  0  0  0
 41 39  1  0  0  0  0
 42 36  1  0  0  0  0
 42 43  1  0  0  0  0
 44 48  1  6  0  0  0
 44 46  1  0  0  0  0
 44 43  1  0  0  0  0
 45 46  1  0  0  0  0
 46 47  1  0  0  0  0
 49 48  1  0  0  0  0
 50 51  1  0  0  0  0
 50 49  1  0  0  0  0
 52 54  1  0  0  0  0
 52 51  1  0  0  0  0
 54 53  1  0  0  0  0
 55 54  1  0  0  0  0
 55 53  1  0  0  0  0
M  END
>  <MODEL>
1

>  <REMARK>
 VINA RESULT:      -6.3      0.000      0.000
  Name = 
  24 active torsions:
  status: ('A' for Active; 'I' for Inactive)
    1  A    between atoms: C_1  and  C_21
    2  A    between atoms: C_2  and  C_28
    3  A    between atoms: C_2  and  N_44
    4  A    between atoms: C_4  and  C_19
    5  A    between atoms: C_4  and  C_37
    6  A    between atoms: N_6  and  C_46
    7  A    between atoms: C_8  and  C_22
    8  A    between atoms: C_8  and  C_35
    9  A    between atoms: N_10  and  C_32
   10  A    between atoms: C_15  and  C_17
   11  A    between atoms: C_16  and  C_17
   12  A    between atoms: C_16  and  C_26
   13  A    between atoms: C_17  and  C_36
   14  A    between atoms: C_20  and  C_22
   15  A    between atoms: C_22  and  C_46
   16  A    between atoms: C_26  and  C_45
   17  A    between atoms: C_27  and  C_54
   18  A    between atoms: N_33  and  O_49
   19  A    between atoms: C_34  and  O_49
   20  A    between atoms: C_34  and  O_52
   21  A    between atoms: C_35  and  C_43
   22  A    between atoms: C_36  and  O_52
   23  A    between atoms: C_37  and  C_45
   24  A    between atoms: C_43  and  C_54
                            x       y       z     vdW  Elec       q    Type
                         _______ _______ _______ _____ _____    ______ ____

>  <TORSDO>
F 24

$$$$
=
 OpenBabel11052419393D

 55 59  0  0  1  0  0  0  0  0999 V2000
  188.3590  173.5220  138.4780 C   0  0  0  0  0  2  0  0  0  0  0  0
  191.0880  173.5550  137.8600 C   0  0  2  0  0  3  0  0  0  0  0  0
  190.6250  173.4120  139.3130 C   0  0  0  0  0  2  0  0  0  0  0  0
  188.9660  173.6920  137.0860 C   0  0  0  0  0  2  0  0  0  0  0  0
  189.3000  174.0200  139.4870 N   0  0  0  0  0  0  0  0  0  0  0  0
  190.1540  172.9480  136.9980 O   0  0  0  0  0  0  0  0  0  0  0  0
  192.4330  172.8660  137.7190 C   0  0  0  0  0  2  0  0  0  0  0  0
  193.5740  173.8650  137.7290 C   0  0  2  0  0  3  0  0  0  0  0  0
  193.0740  175.1560  137.1070 C   0  0  0  0  0  1  0  0  0  0  0  0
  194.7360  173.3090  136.9170 C   0  0  0  0  0  2  0  0  0  0  0  0
  195.9320  172.9450  137.7930 C   0  0  0  0  0  2  0  0  0  0  0  0
  195.9480  173.6990  139.1250 C   0  0  2  0  0  3  0  0  0  0  0  0
  197.1310  175.4580  137.9740 O   0  0  0  0  0  1  0  0  0  0  0  0
  197.0710  174.7450  139.1700 C   0  0  1  0  0  3  0  0  0  0  0  0
  196.8490  175.7310  140.3050 C   0  0  0  0  0  1  0  0  0  0  0  0
  196.1380  172.6940  140.2600 C   0  0  0  0  0  2  0  0  0  0  0  0
  193.9720  171.7950  141.0460 C   0  0  2  0  0  3  0  0  0  0  0  0
  195.7000  173.9310  143.1960 O   0  0  0  0  0  1  0  0  0  0  0  0
  195.0550  172.7810  141.2510 N   0  0  0  0  0  0  0  0  0  0  0  0
  191.5340  171.6980  143.7070 C   0  0  0  0  0  3  0  0  0  0  0  0
  196.6810  171.9180  142.7620 O   0  0  0  0  0  1  0  0  0  0  0  0
  195.4960  172.6560  142.6590 C   0  0  0  0  0  0  0  0  0  0  0  0
  192.3250  172.5450  144.6200 C   0  0  0  0  0  3  0  0  0  0  0  0
  193.6460  172.6880  144.4570 C   0  0  0  0  0  3  0  0  0  0  0  0
  193.4880  171.4350  142.3590 N   0  0  0  0  0  0  0  0  0  0  0  0
  194.3890  171.9000  143.4010 C   0  0  1  0  0  3  0  0  0  0  0  0
  192.0990  171.1900  142.6100 C   0  0  0  0  0  3  0  0  0  0  0  0
  194.3730  170.5270  140.2710 C   0  0  0  0  0  2  0  0  0  0  0  0
  193.3130  170.0640  139.4880 O   0  0  0  0  0  1  0  0  0  0  0  0
  188.7810  173.7310  140.8320 C   0  0  0  0  0  2  0  0  0  0  0  0
  189.6390  174.2570  141.9530 C   0  0  0  0  0  3  0  0  0  0  0  0
  189.1340  174.4730  143.1230 N   0  0  0  0  0  0  0  0  0  0  0  0
  189.9380  174.9390  144.1440 O   0  0  0  0  0  0  0  0  0  0  0  0
  189.4330  175.0510  146.4720 C   0  0  0  0  0  2  0  0  0  0  0  0
  191.3980  176.5270  146.4180 C   0  0  1  0  0  3  0  0  0  0  0  0
  189.4310  175.8120  145.1610 C   0  0  1  0  0  0  0  0  0  0  0  0
  190.3660  176.9970  145.4060 C   0  0  0  0  0  2  0  0  0  0  0  0
  190.7080  175.4200  147.2100 C   0  0  0  0  0  2  0  0  0  0  0  0
  192.5770  175.9960  145.7300 N   0  0  0  0  0  0  0  0  0  0  0  0
  193.3770  175.4250  146.6640 O   0  0  0  0  0  1  0  0  0  0  0  0
  193.2680  177.0520  145.2350 O   0  0  0  0  0  1  0  0  0  0  0  0
  188.1050  176.2210  144.8890 O   0  0  0  0  0  0  0  0  0  0  0  0
  187.9360  177.5560  145.3010 C   0  0  0  0  0  2  0  0  0  0  0  0
  186.5560  177.7650  145.9270 C   0  0  1  0  0  3  0  0  0  0  0  0
  186.1770  179.5180  147.6880 C   0  0  0  0  0  1  0  0  0  0  0  0
  186.6430  178.0950  147.4240 C   0  0  0  0  0  3  0  0  0  0  0  0
  185.7890  177.1520  148.2560 C   0  0  0  0  0  1  0  0  0  0  0  0
  185.8030  178.8640  145.1810 C   0  0  0  0  0  2  0  0  0  0  0  0
  184.4050  178.3990  144.8020 C   0  0  0  0  0  2  0  0  0  0  0  0
  183.9500  179.0580  143.5100 C   0  0  0  0  0  2  0  0  0  0  0  0
  184.0030  178.0740  142.3540 C   0  0  0  0  0  2  0  0  0  0  0  0
  185.2490  178.3010  141.5190 C   0  0  0  0  0  2  0  0  0  0  0  0
  187.1590  177.0290  140.6190 C   0  0  0  0  0  2  0  0  0  0  0  0
  186.2920  177.2530  141.8400 C   0  0  0  0  0  3  0  0  0  0  0  0
  187.6680  177.8830  141.7570 C   0  0  0  0  0  2  0  0  0  0  0  0
  1  5  1  0  0  0  0
  2  7  1  1  0  0  0
  2  3  1  0  0  0  0
  3  5  1  0  0  0  0
  4  1  1  0  0  0  0
  5 30  1  0  0  0  0
  6  4  1  0  0  0  0
  6  2  1  0  0  0  0
  7  8  1  0  0  0  0
  8  9  1  6  0  0  0
 10  8  1  0  0  0  0
 10 11  1  0  0  0  0
 12 11  1  6  0  0  0
 12 14  1  0  0  0  0
 12 16  1  0  0  0  0
 13 14  1  0  0  0  0
 14 15  1  1  0  0  0
 16 19  1  0  0  0  0
 17 28  1  1  0  0  0
 17 19  1  0  0  0  0
 17 25  1  0  0  0  0
 19 22  1  0  0  0  0
 20 23  1  0  0  0  0
 22 21  1  0  0  0  0
 22 18  1  0  0  0  0
 22 26  1  0  0  0  0
 24 23  2  0  0  0  0
 25 27  1  0  0  0  0
 25 26  1  0  0  0  0
 26 24  1  1  0  0  0
 27 20  2  0  0  0  0
 29 28  1  0  0  0  0
 30 31  1  0  0  0  0
 31 32  2  0  0  0  0
 32 33  1  0  0  0  0
 34 38  1  0  0  0  0
 35 39  1  6  0  0  0
 35 38  1  0  0  0  0
 36 33  1  6  0  0  0
 36 37  1  0  0  0  0
 36 34  1  0  0  0  0
 37 35  1  0  0  0  0
 39 40  1  0  0  0  0
 41 39  1  0  0  0  0
 42 36  1  0  0  0  0
 42 43  1  0  0  0  0
 43 44  1  0  0  0  0
 44 48  1  6  0  0  0
 44 46  1  0  0  0  0
 46 45  1  0  0  0  0
 46 47  1  0  0  0  0
 49 48  1  0  0  0  0
 50 49  1  0  0  0  0
 51 50  1  0  0  0  0
 52 54  1  0  0  0  0
 52 51  1  0  0  0  0
 53 55  1  0  0  0  0
 53 54  1  0  0  0  0
 55 54  1  0  0  0  0
M  END
>  <MODEL>
2

>  <REMARK>
 VINA RESULT:      -6.0      1.884      3.358
  Name = 
  24 active torsions:
  status: ('A' for Active; 'I' for Inactive)
    1  A    between atoms: C_1  and  C_21
    2  A    between atoms: C_2  and  C_28
    3  A    between atoms: C_2  and  N_44
    4  A    between atoms: C_4  and  C_19
    5  A    between atoms: C_4  and  C_37
    6  A    between atoms: N_6  and  C_46
    7  A    between atoms: C_8  and  C_22
    8  A    between atoms: C_8  and  C_35
    9  A    between atoms: N_10  and  C_32
   10  A    between atoms: C_15  and  C_17
   11  A    between atoms: C_16  and  C_17
   12  A    between atoms: C_16  and  C_26
   13  A    between atoms: C_17  and  C_36
   14  A    between atoms: C_20  and  C_22
   15  A    between atoms: C_22  and  C_46
   16  A    between atoms: C_26  and  C_45
   17  A    between atoms: C_27  and  C_54
   18  A    between atoms: N_33  and  O_49
   19  A    between atoms: C_34  and  O_49
   20  A    between atoms: C_34  and  O_52
   21  A    between atoms: C_35  and  C_43
   22  A    between atoms: C_36  and  O_52
   23  A    between atoms: C_37  and  C_45
   24  A    between atoms: C_43  and  C_54
                            x       y       z     vdW  Elec       q    Type
                         _______ _______ _______ _____ _____    ______ ____

>  <TORSDO>
F 24

$$$$
=
 OpenBabel11052419393D

 55 59  0  0  1  0  0  0  0  0999 V2000
  190.1360  171.1020  139.0590 C   0  0  0  0  0  2  0  0  0  0  0  0
  191.6240  172.8200  137.4280 C   0  0  2  0  0  3  0  0  0  0  0  0
  191.3980  173.1580  138.9050 C   0  0  0  0  0  2  0  0  0  0  0  0
  190.4140  170.9130  137.5680 C   0  0  0  0  0  2  0  0  0  0  0  0
  190.1600  172.5320  139.3860 N   0  0  0  0  0  0  0  0  0  0  0  0
  191.6860  171.4230  137.2600 O   0  0  0  0  0  0  0  0  0  0  0  0
  192.9390  173.4430  136.9940 C   0  0  0  0  0  2  0  0  0  0  0  0
  192.9080  174.9540  137.1210 C   0  0  2  0  0  3  0  0  0  0  0  0
  192.0970  175.5070  135.9640 C   0  0  0  0  0  1  0  0  0  0  0  0
  194.3320  175.4920  137.0650 C   0  0  0  0  0  2  0  0  0  0  0  0
  195.3450  174.5070  137.6430 C   0  0  0  0  0  2  0  0  0  0  0  0
  196.6100  175.1900  138.1690 C   0  0  2  0  0  3  0  0  0  0  0  0
  197.8530  173.4540  137.0450 O   0  0  0  0  0  1  0  0  0  0  0  0
  197.8430  174.8190  137.3320 C   0  0  1  0  0  3  0  0  0  0  0  0
  197.8590  175.5840  136.0190 C   0  0  0  0  0  1  0  0  0  0  0  0
  196.8310  174.7720  139.6210 C   0  0  0  0  0  2  0  0  0  0  0  0
  195.3670  173.4640  141.1250 C   0  0  2  0  0  3  0  0  0  0  0  0
  194.6270  176.8480  140.7070 O   0  0  0  0  0  1  0  0  0  0  0  0
  195.5670  174.7200  140.3710 N   0  0  0  0  0  0  0  0  0  0  0  0
  192.4950  173.4910  143.3120 C   0  0  0  0  0  3  0  0  0  0  0  0
  196.5910  176.3620  141.7590 O   0  0  0  0  0  1  0  0  0  0  0  0
  195.3690  175.8360  141.3240 C   0  0  0  0  0  0  0  0  0  0  0  0
  192.2550  174.9400  143.1690 C   0  0  0  0  0  3  0  0  0  0  0  0
  193.2270  175.7630  142.7610 C   0  0  0  0  0  3  0  0  0  0  0  0
  194.6460  173.8150  142.3270 N   0  0  0  0  0  0  0  0  0  0  0  0
  194.6330  175.2540  142.5360 C   0  0  1  0  0  3  0  0  0  0  0  0
  193.6400  172.9590  142.8810 C   0  0  0  0  0  3  0  0  0  0  0  0
  196.6540  172.7020  141.4900 C   0  0  0  0  0  2  0  0  0  0  0  0
  196.9190  172.7970  142.8580 O   0  0  0  0  0  1  0  0  0  0  0  0
  190.0330  172.7080  140.8390 C   0  0  0  0  0  2  0  0  0  0  0  0
  188.8160  173.4900  141.2630 C   0  0  0  0  0  3  0  0  0  0  0  0
  188.9390  174.6490  141.8220 N   0  0  0  0  0  0  0  0  0  0  0  0
  187.8140  175.3590  142.1890 O   0  0  0  0  0  0  0  0  0  0  0  0
  188.8520  177.5060  142.2250 C   0  0  0  0  0  2  0  0  0  0  0  0
  186.5420  178.1860  141.7310 C   0  0  1  0  0  3  0  0  0  0  0  0
  187.9050  176.5700  142.9510 C   0  0  1  0  0  0  0  0  0  0  0  0
  186.5740  177.3200  142.9790 C   0  0  0  0  0  2  0  0  0  0  0  0
  188.0050  178.4480  141.3870 C   0  0  0  0  0  2  0  0  0  0  0  0
  185.8850  177.4710  140.6340 N   0  0  0  0  0  0  0  0  0  0  0  0
  186.7220  177.4950  139.5680 O   0  0  0  0  0  1  0  0  0  0  0  0
  184.7950  178.1920  140.2750 O   0  0  0  0  0  1  0  0  0  0  0  0
  188.4200  176.3380  144.2470 O   0  0  0  0  0  0  0  0  0  0  0  0
  188.3910  177.5380  144.9800 C   0  0  0  0  0  2  0  0  0  0  0  0
  188.1060  177.2690  146.4590 C   0  0  1  0  0  3  0  0  0  0  0  0
  185.7180  177.0610  147.2170 C   0  0  0  0  0  1  0  0  0  0  0  0
  186.8660  178.0240  146.9570 C   0  0  0  0  0  3  0  0  0  0  0  0
  187.1510  178.7830  148.2430 C   0  0  0  0  0  1  0  0  0  0  0  0
  187.9480  175.7680  146.6970 C   0  0  0  0  0  2  0  0  0  0  0  0
  189.0980  175.2310  147.5350 C   0  0  0  0  0  2  0  0  0  0  0  0
  190.3160  176.1340  147.4200 C   0  0  0  0  0  2  0  0  0  0  0  0
  191.5910  175.3130  147.3320 C   0  0  0  0  0  2  0  0  0  0  0  0
  192.5220  175.8860  146.2800 C   0  0  0  0  0  2  0  0  0  0  0  0
  194.9770  175.7010  146.1730 C   0  0  0  0  0  2  0  0  0  0  0  0
  193.8190  176.3330  146.9170 C   0  0  0  0  0  3  0  0  0  0  0  0
  194.6110  177.1440  145.9100 C   0  0  0  0  0  2  0  0  0  0  0  0
  1  5  1  0  0  0  0
  2  7  1  1  0  0  0
  2  3  1  0  0  0  0
  3  5  1  0  0  0  0
  4  1  1  0  0  0  0
  5 30  1  0  0  0  0
  6  2  1  0  0  0  0
  6  4  1  0  0  0  0
  7  8  1  0  0  0  0
  8  9  1  6  0  0  0
 10  8  1  0  0  0  0
 10 11  1  0  0  0  0
 12 11  1  6  0  0  0
 12 16  1  0  0  0  0
 13 14  1  0  0  0  0
 14 15  1  6  0  0  0
 14 12  1  0  0  0  0
 16 19  1  0  0  0  0
 17 28  1  1  0  0  0
 17 25  1  0  0  0  0
 18 22  1  0  0  0  0
 19 17  1  0  0  0  0
 19 22  1  0  0  0  0
 22 21  1  0  0  0  0
 22 26  1  0  0  0  0
 23 20  1  0  0  0  0
 24 23  2  0  0  0  0
 25 26  1  0  0  0  0
 25 27  1  0  0  0  0
 26 24  1  6  0  0  0
 27 20  2  0  0  0  0
 28 29  1  0  0  0  0
 30 31  1  0  0  0  0
 31 32  2  0  0  0  0
 32 33  1  0  0  0  0
 34 36  1  0  0  0  0
 35 39  1  6  0  0  0
 35 37  1  0  0  0  0
 36 33  1  6  0  0  0
 36 37  1  0  0  0  0
 36 42  1  0  0  0  0
 38 35  1  0  0  0  0
 38 34  1  0  0  0  0
 40 39  1  0  0  0  0
 41 39  1  0  0  0  0
 42 43  1  0  0  0  0
 44 43  1  6  0  0  0
 44 48  1  0  0  0  0
 44 46  1  0  0  0  0
 46 45  1  0  0  0  0
 46 47  1  0  0  0  0
 48 49  1  0  0  0  0
 50 49  1  0  0  0  0
 51 50  1  0  0  0  0
 52 54  1  0  0  0  0
 52 51  1  0  0  0  0
 53 54  1  0  0  0  0
 55 53  1  0  0  0  0
 55 54  1  0  0  0  0
M  END
>  <MODEL>
3

>  <REMARK>
 VINA RESULT:      -5.9      2.736      5.821
  Name = 
  24 active torsions:
  status: ('A' for Active; 'I' for Inactive)
    1  A    between atoms: C_1  and  C_21
    2  A    between atoms: C_2  and  C_28
    3  A    between atoms: C_2  and  N_44
    4  A    between atoms: C_4  and  C_19
    5  A    between atoms: C_4  and  C_37
    6  A    between atoms: N_6  and  C_46
    7  A    between atoms: C_8  and  C_22
    8  A    between atoms: C_8  and  C_35
    9  A    between atoms: N_10  and  C_32
   10  A    between atoms: C_15  and  C_17
   11  A    between atoms: C_16  and  C_17
   12  A    between atoms: C_16  and  C_26
   13  A    between atoms: C_17  and  C_36
   14  A    between atoms: C_20  and  C_22
   15  A    between atoms: C_22  and  C_46
   16  A    between atoms: C_26  and  C_45
   17  A    between atoms: C_27  and  C_54
   18  A    between atoms: N_33  and  O_49
   19  A    between atoms: C_34  and  O_49
   20  A    between atoms: C_34  and  O_52
   21  A    between atoms: C_35  and  C_43
   22  A    between atoms: C_36  and  O_52
   23  A    between atoms: C_37  and  C_45
   24  A    between atoms: C_43  and  C_54
                            x       y       z     vdW  Elec       q    Type
                         _______ _______ _______ _____ _____    ______ ____

>  <TORSDO>
F 24

$$$$
=
 OpenBabel11052419393D

 55 59  0  0  1  0  0  0  0  0999 V2000
  190.1220  171.7790  141.4880 C   0  0  0  0  0  2  0  0  0  0  0  0
  191.4530  172.1730  139.0590 C   0  0  2  0  0  3  0  0  0  0  0  0
  190.7760  173.3490  139.7710 C   0  0  0  0  0  2  0  0  0  0  0  0
  190.8090  170.7000  140.6520 C   0  0  0  0  0  2  0  0  0  0  0  0
  189.6750  172.8670  140.6130 N   0  0  0  0  0  0  0  0  0  0  0  0
  191.9310  171.2500  140.0090 O   0  0  0  0  0  0  0  0  0  0  0  0
  192.6160  172.7140  138.2470 C   0  0  0  0  0  2  0  0  0  0  0  0
  192.4890  174.2090  138.0220 C   0  0  2  0  0  3  0  0  0  0  0  0
  191.8570  174.4270  136.6590 C   0  0  0  0  0  1  0  0  0  0  0  0
  193.8730  174.8420  138.0630 C   0  0  0  0  0  2  0  0  0  0  0  0
  194.6820  174.3860  139.2750 C   0  0  0  0  0  2  0  0  0  0  0  0
  195.9450  175.2220  139.5000 C   0  0  2  0  0  3  0  0  0  0  0  0
  196.9180  173.1920  138.6300 O   0  0  0  0  0  1  0  0  0  0  0  0
  197.1920  174.5250  138.9370 C   0  0  1  0  0  3  0  0  0  0  0  0
  197.6780  175.2170  137.6740 C   0  0  0  0  0  1  0  0  0  0  0  0
  196.1220  175.4570  140.9990 C   0  0  0  0  0  2  0  0  0  0  0  0
  196.4290  173.4670  142.4350 C   0  0  2  0  0  3  0  0  0  0  0  0
  193.2610  174.9270  142.3700 O   0  0  0  0  0  1  0  0  0  0  0  0
  195.4780  174.4010  141.7950 N   0  0  0  0  0  0  0  0  0  0  0  0
  194.9010  171.1460  144.7390 C   0  0  0  0  0  3  0  0  0  0  0  0
  194.9350  176.1780  143.2850 O   0  0  0  0  0  1  0  0  0  0  0  0
  194.5720  174.8950  142.8560 C   0  0  0  0  0  0  0  0  0  0  0  0
  193.5940  171.8310  144.7440 C   0  0  0  0  0  3  0  0  0  0  0  0
  193.4860  173.1120  144.3720 C   0  0  0  0  0  3  0  0  0  0  0  0
  195.8390  173.0780  143.6960 N   0  0  0  0  0  0  0  0  0  0  0  0
  194.7130  173.9310  144.0390 C   0  0  1  0  0  3  0  0  0  0  0  0
  195.9680  171.7470  144.2100 C   0  0  0  0  0  3  0  0  0  0  0  0
  197.8440  174.0260  142.6710 C   0  0  0  0  0  2  0  0  0  0  0  0
  197.9390  174.6340  143.9240 O   0  0  0  0  0  1  0  0  0  0  0  0
  189.1390  173.9670  141.4280 C   0  0  0  0  0  2  0  0  0  0  0  0
  189.3640  173.8060  142.9090 C   0  0  0  0  0  3  0  0  0  0  0  0
  189.2580  174.8190  143.7050 N   0  0  0  0  0  0  0  0  0  0  0  0
  189.4490  174.6510  145.0620 O   0  0  0  0  0  0  0  0  0  0  0  0
  189.4010  175.1510  147.3930 C   0  0  0  0  0  2  0  0  0  0  0  0
  191.1960  176.6770  146.6940 C   0  0  1  0  0  3  0  0  0  0  0  0
  189.0840  175.6680  146.0030 C   0  0  1  0  0  0  0  0  0  0  0  0
  189.9530  176.9160  145.8530 C   0  0  0  0  0  2  0  0  0  0  0  0
  190.7630  175.6990  147.7820 C   0  0  0  0  0  2  0  0  0  0  0  0
  192.2570  176.0850  145.8750 N   0  0  0  0  0  0  0  0  0  0  0  0
  193.4060  176.1340  146.5920 O   0  0  0  0  0  1  0  0  0  0  0  0
  192.4440  176.8960  144.8060 O   0  0  0  0  0  1  0  0  0  0  0  0
  187.7020  175.9650  145.9470 O   0  0  0  0  0  0  0  0  0  0  0  0
  187.2380  176.2650  147.2400 C   0  0  0  0  0  2  0  0  0  0  0  0
  186.2810  177.4580  147.2140 C   0  0  1  0  0  3  0  0  0  0  0  0
  188.2140  178.6670  148.2730 C   0  0  0  0  0  1  0  0  0  0  0  0
  186.6990  178.5590  148.1990 C   0  0  0  0  0  3  0  0  0  0  0  0
  186.1430  179.9150  147.7940 C   0  0  0  0  0  1  0  0  0  0  0  0
  186.1820  178.0200  145.7970 C   0  0  0  0  0  2  0  0  0  0  0  0
  184.7930  177.7920  145.2220 C   0  0  0  0  0  2  0  0  0  0  0  0
  184.7500  178.1710  143.7500 C   0  0  0  0  0  2  0  0  0  0  0  0
  185.8460  179.1680  143.4170 C   0  0  0  0  0  2  0  0  0  0  0  0
  186.7550  178.6170  142.3340 C   0  0  0  0  0  2  0  0  0  0  0  0
  185.4400  178.0720  140.3220 C   0  0  0  0  0  2  0  0  0  0  0  0
  186.0580  177.5040  141.5820 C   0  0  0  0  0  3  0  0  0  0  0  0
  186.7420  177.3090  140.2430 C   0  0  0  0  0  2  0  0  0  0  0  0
  2  7  1  1  0  0  0
  2  3  1  0  0  0  0
  2  6  1  0  0  0  0
  3  5  1  0  0  0  0
  4  1  1  0  0  0  0
  5 30  1  0  0  0  0
  5  1  1  0  0  0  0
  6  4  1  0  0  0  0
  8  9  1  6  0  0  0
  8 10  1  0  0  0  0
  8  7  1  0  0  0  0
 10 11  1  0  0  0  0
 12 11  1  1  0  0  0
 12 16  1  0  0  0  0
 13 14  1  0  0  0  0
 14 15  1  6  0  0  0
 14 12  1  0  0  0  0
 16 19  1  0  0  0  0
 17 28  1  1  0  0  0
 17 25  1  0  0  0  0
 18 22  1  0  0  0  0
 19 17  1  0  0  0  0
 19 22  1  0  0  0  0
 20 23  1  0  0  0  0
 22 21  1  0  0  0  0
 22 26  1  0  0  0  0
 24 23  2  0  0  0  0
 25 26  1  0  0  0  0
 25 27  1  0  0  0  0
 26 24  1  6  0  0  0
 27 20  2  0  0  0  0
 28 29  1  0  0  0  0
 30 31  1  0  0  0  0
 31 32  2  0  0  0  0
 32 33  1  0  0  0  0
 34 38  1  0  0  0  0
 35 39  1  6  0  0  0
 35 38  1  0  0  0  0
 36 33  1  6  0  0  0
 36 34  1  0  0  0  0
 37 36  1  0  0  0  0
 37 35  1  0  0  0  0
 39 40  1  0  0  0  0
 41 39  1  0  0  0  0
 42 36  1  0  0  0  0
 42 43  1  0  0  0  0
 44 48  1  6  0  0  0
 44 43  1  0  0  0  0
 44 46  1  0  0  0  0
 46 45  1  0  0  0  0
 47 46  1  0  0  0  0
 49 48  1  0  0  0  0
 50 49  1  0  0  0  0
 51 50  1  0  0  0  0
 52 51  1  0  0  0  0
 53 54  1  0  0  0  0
 54 52  1  0  0  0  0
 55 53  1  0  0  0  0
 55 54  1  0  0  0  0
M  END
>  <MODEL>
4

>  <REMARK>
 VINA RESULT:      -5.9      1.894      2.647
  Name = 
  24 active torsions:
  status: ('A' for Active; 'I' for Inactive)
    1  A    between atoms: C_1  and  C_21
    2  A    between atoms: C_2  and  C_28
    3  A    between atoms: C_2  and  N_44
    4  A    between atoms: C_4  and  C_19
    5  A    between atoms: C_4  and  C_37
    6  A    between atoms: N_6  and  C_46
    7  A    between atoms: C_8  and  C_22
    8  A    between atoms: C_8  and  C_35
    9  A    between atoms: N_10  and  C_32
   10  A    between atoms: C_15  and  C_17
   11  A    between atoms: C_16  and  C_17
   12  A    between atoms: C_16  and  C_26
   13  A    between atoms: C_17  and  C_36
   14  A    between atoms: C_20  and  C_22
   15  A    between atoms: C_22  and  C_46
   16  A    between atoms: C_26  and  C_45
   17  A    between atoms: C_27  and  C_54
   18  A    between atoms: N_33  and  O_49
   19  A    between atoms: C_34  and  O_49
   20  A    between atoms: C_34  and  O_52
   21  A    between atoms: C_35  and  C_43
   22  A    between atoms: C_36  and  O_52
   23  A    between atoms: C_37  and  C_45
   24  A    between atoms: C_43  and  C_54
                            x       y       z     vdW  Elec       q    Type
                         _______ _______ _______ _____ _____    ______ ____

>  <TORSDO>
F 24

$$$$
=
 OpenBabel11052419393D

 55 59  0  0  1  0  0  0  0  0999 V2000
  188.5940  173.0790  141.5760 C   0  0  0  0  0  2  0  0  0  0  0  0
  190.0140  171.9360  139.4540 C   0  0  2  0  0  3  0  0  0  0  0  0
  190.2580  171.4650  140.8910 C   0  0  0  0  0  2  0  0  0  0  0  0
  188.4810  173.4690  140.1030 C   0  0  0  0  0  2  0  0  0  0  0  0
  189.9310  172.5370  141.8390 N   0  0  0  0  0  0  0  0  0  0  0  0
  188.6710  172.3310  139.3010 O   0  0  0  0  0  0  0  0  0  0  0  0
  190.3130  170.7790  138.5170 C   0  0  0  0  0  2  0  0  0  0  0  0
  190.8650  171.2660  137.1910 C   0  0  2  0  0  3  0  0  0  0  0  0
  189.8520  170.9380  136.1100 C   0  0  0  0  0  1  0  0  0  0  0  0
  192.1820  170.5570  136.9050 C   0  0  0  0  0  2  0  0  0  0  0  0
  193.3790  171.5010  136.9960 C   0  0  0  0  0  2  0  0  0  0  0  0
  193.5820  172.0730  138.4010 C   0  0  2  0  0  3  0  0  0  0  0  0
  195.5290  173.5000  138.4010 O   0  0  0  0  0  1  0  0  0  0  0  0
  194.1350  173.5050  138.3530 C   0  0  1  0  0  3  0  0  0  0  0  0
  193.7020  174.2120  137.0790 C   0  0  0  0  0  1  0  0  0  0  0  0
  194.5530  171.1750  139.1660 C   0  0  0  0  0  2  0  0  0  0  0  0
  193.7980  169.7520  141.0430 C   0  0  2  0  0  3  0  0  0  0  0  0
  195.0870  172.8970  141.8290 O   0  0  0  0  0  1  0  0  0  0  0  0
  194.2120  171.0990  140.5950 N   0  0  0  0  0  0  0  0  0  0  0  0
  193.3840  169.4420  144.6160 C   0  0  0  0  0  3  0  0  0  0  0  0
  196.5510  171.3970  140.9300 O   0  0  0  0  0  1  0  0  0  0  0  0
  195.2860  171.5500  141.5090 C   0  0  0  0  0  0  0  0  0  0  0  0
  194.0020  170.7480  144.9170 C   0  0  0  0  0  3  0  0  0  0  0  0
  194.8130  171.3470  144.0380 C   0  0  0  0  0  3  0  0  0  0  0  0
  194.2660  169.6080  142.4020 N   0  0  0  0  0  0  0  0  0  0  0  0
  195.2100  170.6560  142.7510 C   0  0  1  0  0  3  0  0  0  0  0  0
  193.4980  168.9160  143.3950 C   0  0  0  0  0  3  0  0  0  0  0  0
  194.3150  168.5830  140.1850 C   0  0  0  0  0  2  0  0  0  0  0  0
  193.3600  168.1950  139.2430 O   0  0  0  0  0  1  0  0  0  0  0  0
  189.9960  172.0320  143.2190 C   0  0  0  0  0  2  0  0  0  0  0  0
  190.9510  172.7860  144.1080 C   0  0  0  0  0  3  0  0  0  0  0  0
  191.9100  173.4890  143.6000 N   0  0  0  0  0  0  0  0  0  0  0  0
  192.7650  174.1870  144.4280 O   0  0  0  0  0  0  0  0  0  0  0  0
  193.0840  176.1250  145.7810 C   0  0  0  0  0  2  0  0  0  0  0  0
  195.2500  176.0880  144.6180 C   0  0  1  0  0  3  0  0  0  0  0  0
  192.8680  175.6150  144.3690 C   0  0  1  0  0  0  0  0  0  0  0  0
  194.1160  176.0610  143.6070 C   0  0  0  0  0  2  0  0  0  0  0  0
  194.5780  176.3230  145.9680 C   0  0  0  0  0  2  0  0  0  0  0  0
  195.9560  174.8040  144.6220 N   0  0  0  0  0  0  0  0  0  0  0  0
  196.1060  174.4210  145.9140 O   0  0  0  0  0  1  0  0  0  0  0  0
  197.2050  175.0270  144.1460 O   0  0  0  0  0  1  0  0  0  0  0  0
  191.6880  176.2070  143.8620 O   0  0  0  0  0  0  0  0  0  0  0  0
  190.9520  176.7620  144.9240 C   0  0  0  0  0  2  0  0  0  0  0  0
  189.5010  176.2780  144.8950 C   0  0  1  0  0  3  0  0  0  0  0  0
  188.7350  175.1620  147.0130 C   0  0  0  0  0  1  0  0  0  0  0  0
  188.7970  176.4730  146.2450 C   0  0  0  0  0  3  0  0  0  0  0  0
  189.5150  177.4980  147.1090 C   0  0  0  0  0  1  0  0  0  0  0  0
  188.7330  176.9910  143.7840 C   0  0  0  0  0  2  0  0  0  0  0  0
  187.7510  176.0440  143.1120 C   0  0  0  0  0  2  0  0  0  0  0  0
  186.3370  176.5970  143.1780 C   0  0  0  0  0  2  0  0  0  0  0  0
  186.3090  177.9230  143.9190 C   0  0  0  0  0  2  0  0  0  0  0  0
  185.0420  178.0440  144.7450 C   0  0  0  0  0  2  0  0  0  0  0  0
  185.8430  178.7860  146.9550 C   0  0  0  0  0  2  0  0  0  0  0  0
  185.3030  177.6080  146.1700 C   0  0  0  0  0  3  0  0  0  0  0  0
  184.3920  178.3880  147.1000 C   0  0  0  0  0  2  0  0  0  0  0  0
  1  5  1  0  0  0  0
  2  7  1  6  0  0  0
  2  3  1  0  0  0  0
  3  5  1  0  0  0  0
  4  1  1  0  0  0  0
  5 30  1  0  0  0  0
  6  2  1  0  0  0  0
  6  4  1  0  0  0  0
  8  9  1  6  0  0  0
  8  7  1  0  0  0  0
 10 11  1  0  0  0  0
 10  8  1  0  0  0  0
 12 11  1  6  0  0  0
 12 16  1  0  0  0  0
 14 15  1  6  0  0  0
 14 12  1  0  0  0  0
 14 13  1  0  0  0  0
 16 19  1  0  0  0  0
 17 28  1  6  0  0  0
 17 25  1  0  0  0  0
 19 17  1  0  0  0  0
 19 22  1  0  0  0  0
 20 23  1  0  0  0  0
 21 22  1  0  0  0  0
 22 18  1  0  0  0  0
 22 26  1  0  0  0  0
 24 23  2  0  0  0  0
 25 26  1  0  0  0  0
 25 27  1  0  0  0  0
 26 24  1  1  0  0  0
 27 20  2  0  0  0  0
 29 28  1  0  0  0  0
 30 31  1  0  0  0  0
 32 31  2  0  0  0  0
 32 33  1  0  0  0  0
 34 38  1  0  0  0  0
 35 39  1  1  0  0  0
 35 38  1  0  0  0  0
 36 42  1  6  0  0  0
 36 33  1  0  0  0  0
 36 34  1  0  0  0  0
 37 36  1  0  0  0  0
 37 35  1  0  0  0  0
 39 40  1  0  0  0  0
 41 39  1  0  0  0  0
 42 43  1  0  0  0  0
 44 48  1  6  0  0  0
 44 43  1  0  0  0  0
 44 46  1  0  0  0  0
 46 45  1  0  0  0  0
 46 47  1  0  0  0  0
 49 50  1  0  0  0  0
 49 48  1  0  0  0  0
 50 51  1  0  0  0  0
 51 52  1  0  0  0  0
 52 54  1  0  0  0  0
 53 55  1  0  0  0  0
 54 53  1  0  0  0  0
 54 55  1  0  0  0  0
M  END
>  <MODEL>
5

>  <REMARK>
 VINA RESULT:      -5.8      2.538      4.546
  Name = 
  24 active torsions:
  status: ('A' for Active; 'I' for Inactive)
    1  A    between atoms: C_1  and  C_21
    2  A    between atoms: C_2  and  C_28
    3  A    between atoms: C_2  and  N_44
    4  A    between atoms: C_4  and  C_19
    5  A    between atoms: C_4  and  C_37
    6  A    between atoms: N_6  and  C_46
    7  A    between atoms: C_8  and  C_22
    8  A    between atoms: C_8  and  C_35
    9  A    between atoms: N_10  and  C_32
   10  A    between atoms: C_15  and  C_17
   11  A    between atoms: C_16  and  C_17
   12  A    between atoms: C_16  and  C_26
   13  A    between atoms: C_17  and  C_36
   14  A    between atoms: C_20  and  C_22
   15  A    between atoms: C_22  and  C_46
   16  A    between atoms: C_26  and  C_45
   17  A    between atoms: C_27  and  C_54
   18  A    between atoms: N_33  and  O_49
   19  A    between atoms: C_34  and  O_49
   20  A    between atoms: C_34  and  O_52
   21  A    between atoms: C_35  and  C_43
   22  A    between atoms: C_36  and  O_52
   23  A    between atoms: C_37  and  C_45
   24  A    between atoms: C_43  and  C_54
                            x       y       z     vdW  Elec       q    Type
                         _______ _______ _______ _____ _____    ______ ____

>  <TORSDO>
F 24

$$$$
=
 OpenBabel11052419393D

 55 59  0  0  1  0  0  0  0  0999 V2000
  188.4120  173.0780  139.5880 C   0  0  0  0  0  2  0  0  0  0  0  0
  190.8000  172.8380  138.1490 C   0  0  2  0  0  3  0  0  0  0  0  0
  190.6970  172.2900  139.5760 C   0  0  0  0  0  2  0  0  0  0  0  0
  188.6710  173.6050  138.1770 C   0  0  0  0  0  2  0  0  0  0  0  0
  189.6760  173.0250  140.3310 N   0  0  0  0  0  0  0  0  0  0  0  0
  189.5510  172.7380  137.5070 O   0  0  0  0  0  0  0  0  0  0  0  0
  191.8260  172.0120  137.3950 C   0  0  0  0  0  2  0  0  0  0  0  0
  193.0090  172.8570  136.9610 C   0  0  2  0  0  3  0  0  0  0  0  0
  193.6760  172.1650  135.7860 C   0  0  0  0  0  1  0  0  0  0  0  0
  193.9900  172.9800  138.1200 C   0  0  0  0  0  2  0  0  0  0  0  0
  194.9760  174.1290  137.9230 C   0  0  0  0  0  2  0  0  0  0  0  0
  195.4540  174.7390  139.2430 C   0  0  2  0  0  3  0  0  0  0  0  0
  197.3440  173.3560  138.6610 O   0  0  0  0  0  1  0  0  0  0  0  0
  196.8680  174.2630  139.6070 C   0  0  1  0  0  3  0  0  0  0  0  0
  197.8340  175.4340  139.6750 C   0  0  0  0  0  1  0  0  0  0  0  0
  194.4800  174.3450  140.3520 C   0  0  0  0  0  2  0  0  0  0  0  0
  195.0700  175.0690  142.6420 C   0  0  2  0  0  3  0  0  0  0  0  0
  195.6410  171.7280  141.8180 O   0  0  0  0  0  1  0  0  0  0  0  0
  195.1820  174.0230  141.6040 N   0  0  0  0  0  0  0  0  0  0  0  0
  196.4060  174.1160  145.8570 C   0  0  0  0  0  3  0  0  0  0  0  0
  193.4620  172.3990  141.8790 O   0  0  0  0  0  1  0  0  0  0  0  0
  194.7730  172.7440  142.2290 C   0  0  0  0  0  0  0  0  0  0  0  0
  196.5660  172.6930  145.4980 C   0  0  0  0  0  3  0  0  0  0  0  0
  195.8760  172.1560  144.4860 C   0  0  0  0  0  3  0  0  0  0  0  0
  195.0430  174.3870  143.9150 N   0  0  0  0  0  0  0  0  0  0  0  0
  194.8300  172.9590  143.7450 C   0  0  1  0  0  3  0  0  0  0  0  0
  195.6910  174.9250  145.0740 C   0  0  0  0  0  3  0  0  0  0  0  0
  193.8450  175.9930  142.5170 C   0  0  0  0  0  2  0  0  0  0  0  0
  192.7370  175.4430  143.1650 O   0  0  0  0  0  1  0  0  0  0  0  0
  189.4530  172.3900  141.6380 C   0  0  0  0  0  2  0  0  0  0  0  0
  190.0920  173.1140  142.7950 C   0  0  0  0  0  3  0  0  0  0  0  0
  189.3670  173.7530  143.6530 N   0  0  0  0  0  0  0  0  0  0  0  0
  189.9650  174.3970  144.7160 O   0  0  0  0  0  0  0  0  0  0  0  0
  189.1670  175.0180  146.8760 C   0  0  0  0  0  2  0  0  0  0  0  0
  191.0660  176.5670  146.6920 C   0  0  1  0  0  3  0  0  0  0  0  0
  189.3020  175.4490  145.4290 C   0  0  1  0  0  0  0  0  0  0  0  0
  190.1530  176.7170  145.4860 C   0  0  0  0  0  2  0  0  0  0  0  0
  190.3240  175.6340  147.6430 C   0  0  0  0  0  2  0  0  0  0  0  0
  192.3420  175.9700  146.2900 N   0  0  0  0  0  0  0  0  0  0  0  0
  192.4660  174.7870  146.9410 O   0  0  0  0  0  1  0  0  0  0  0  0
  193.3300  176.7660  146.7650 O   0  0  0  0  0  1  0  0  0  0  0  0
  188.0060  175.6940  144.9180 O   0  0  0  0  0  0  0  0  0  0  0  0
  188.1070  176.1280  143.5840 C   0  0  0  0  0  2  0  0  0  0  0  0
  187.2250  177.3540  143.3400 C   0  0  1  0  0  3  0  0  0  0  0  0
  189.2150  178.2950  142.1270 C   0  0  0  0  0  1  0  0  0  0  0  0
  187.6990  178.1800  142.1360 C   0  0  0  0  0  3  0  0  0  0  0  0
  187.2600  177.5560  140.8210 C   0  0  0  0  0  1  0  0  0  0  0  0
  185.7710  176.9250  143.1540 C   0  0  0  0  0  2  0  0  0  0  0  0
  184.8700  178.1360  142.9700 C   0  0  0  0  0  2  0  0  0  0  0  0
  185.0390  179.1130  144.1220 C   0  0  0  0  0  2  0  0  0  0  0  0
  184.0890  178.7790  145.2590 C   0  0  0  0  0  2  0  0  0  0  0  0
  184.8180  178.8180  146.5900 C   0  0  0  0  0  2  0  0  0  0  0  0
  187.0200  177.8950  147.2020 C   0  0  0  0  0  2  0  0  0  0  0  0
  185.6050  177.5420  146.7930 C   0  0  0  0  0  3  0  0  0  0  0  0
  186.0240  177.4460  148.2470 C   0  0  0  0  0  2  0  0  0  0  0  0
  1  5  1  0  0  0  0
  2  7  1  6  0  0  0
  2  3  1  0  0  0  0
  3  5  1  0  0  0  0
  4  1  1  0  0  0  0
  5 30  1  0  0  0  0
  6  2  1  0  0  0  0
  6  4  1  0  0  0  0
  8  9  1  6  0  0  0
  8  7  1  0  0  0  0
  8 10  1  0  0  0  0
 11 10  1  0  0  0  0
 12 11  1  6  0  0  0
 12 14  1  0  0  0  0
 12 16  1  0  0  0  0
 13 14  1  0  0  0  0
 14 15  1  6  0  0  0
 16 19  1  0  0  0  0
 17 28  1  6  0  0  0
 17 25  1  0  0  0  0
 18 22  1  0  0  0  0
 19 22  1  0  0  0  0
 19 17  1  0  0  0  0
 21 22  1  0  0  0  0
 22 26  1  0  0  0  0
 23 20  1  0  0  0  0
 24 23  2  0  0  0  0
 25 27  1  0  0  0  0
 26 25  1  0  0  0  0
 26 24  1  6  0  0  0
 27 20  2  0  0  0  0
 28 29  1  0  0  0  0
 30 31  1  0  0  0  0
 31 32  2  0  0  0  0
 32 33  1  0  0  0  0
 34 38  1  0  0  0  0
 35 39  1  6  0  0  0
 35 38  1  0  0  0  0
 36 33  1  6  0  0  0
 36 37  1  0  0  0  0
 36 34  1  0  0  0  0
 37 35  1  0  0  0  0
 39 41  1  0  0  0  0
 39 40  1  0  0  0  0
 42 36  1  0  0  0  0
 43 42  1  0  0  0  0
 44 48  1  6  0  0  0
 44 43  1  0  0  0  0
 45 46  1  0  0  0  0
 46 44  1  0  0  0  0
 47 46  1  0  0  0  0
 49 48  1  0  0  0  0
 49 50  1  0  0  0  0
 50 51  1  0  0  0  0
 51 52  1  0  0  0  0
 52 54  1  0  0  0  0
 53 55  1  0  0  0  0
 54 53  1  0  0  0  0
 54 55  1  0  0  0  0
M  END
>  <MODEL>
6

>  <REMARK>
 VINA RESULT:      -5.8      1.907      3.214
  Name = 
  24 active torsions:
  status: ('A' for Active; 'I' for Inactive)
    1  A    between atoms: C_1  and  C_21
    2  A    between atoms: C_2  and  C_28
    3  A    between atoms: C_2  and  N_44
    4  A    between atoms: C_4  and  C_19
    5  A    between atoms: C_4  and  C_37
    6  A    between atoms: N_6  and  C_46
    7  A    between atoms: C_8  and  C_22
    8  A    between atoms: C_8  and  C_35
    9  A    between atoms: N_10  and  C_32
   10  A    between atoms: C_15  and  C_17
   11  A    between atoms: C_16  and  C_17
   12  A    between atoms: C_16  and  C_26
   13  A    between atoms: C_17  and  C_36
   14  A    between atoms: C_20  and  C_22
   15  A    between atoms: C_22  and  C_46
   16  A    between atoms: C_26  and  C_45
   17  A    between atoms: C_27  and  C_54
   18  A    between atoms: N_33  and  O_49
   19  A    between atoms: C_34  and  O_49
   20  A    between atoms: C_34  and  O_52
   21  A    between atoms: C_35  and  C_43
   22  A    between atoms: C_36  and  O_52
   23  A    between atoms: C_37  and  C_45
   24  A    between atoms: C_43  and  C_54
                            x       y       z     vdW  Elec       q    Type
                         _______ _______ _______ _____ _____    ______ ____

>  <TORSDO>
F 24

$$$$
=
 OpenBabel11052419393D

 55 59  0  0  1  0  0  0  0  0999 V2000
  189.0030  172.3320  143.1990 C   0  0  0  0  0  2  0  0  0  0  0  0
  191.7080  172.3050  143.9120 C   0  0  2  0  0  3  0  0  0  0  0  0
  191.2850  172.7160  142.4990 C   0  0  0  0  0  2  0  0  0  0  0  0
  189.5740  171.9130  144.5540 C   0  0  0  0  0  2  0  0  0  0  0  0
  190.0020  172.0930  142.1510 N   0  0  0  0  0  0  0  0  0  0  0  0
  190.7160  172.6800  144.8380 O   0  0  0  0  0  0  0  0  0  0  0  0
  193.0080  173.0150  144.2450 C   0  0  0  0  0  2  0  0  0  0  0  0
  194.2090  172.1260  143.9840 C   0  0  2  0  0  3  0  0  0  0  0  0
  194.4030  171.2290  145.1930 C   0  0  0  0  0  1  0  0  0  0  0  0
  195.4420  172.9970  143.7780 C   0  0  0  0  0  2  0  0  0  0  0  0
  195.1390  174.2400  142.9450 C   0  0  0  0  0  2  0  0  0  0  0  0
  196.3490  174.7370  142.1510 C   0  0  2  0  0  3  0  0  0  0  0  0
  196.3370  177.0790  141.5670 O   0  0  0  0  0  1  0  0  0  0  0  0
  196.7360  176.1690  142.5460 C   0  0  1  0  0  3  0  0  0  0  0  0
  196.0830  176.5650  143.8600 C   0  0  0  0  0  1  0  0  0  0  0  0
  196.0170  174.6890  140.6610 C   0  0  0  0  0  2  0  0  0  0  0  0
  193.9460  173.9770  139.5110 C   0  0  2  0  0  3  0  0  0  0  0  0
  196.1000  171.4740  140.6360 O   0  0  0  0  0  1  0  0  0  0  0  0
  195.1030  173.5820  140.3430 N   0  0  0  0  0  0  0  0  0  0  0  0
  191.9370  171.2080  138.3560 C   0  0  0  0  0  3  0  0  0  0  0  0
  196.8860  172.8120  138.9650 O   0  0  0  0  0  1  0  0  0  0  0  0
  195.7440  172.4260  139.6760 C   0  0  0  0  0  0  0  0  0  0  0  0
  192.9050  170.1790  138.7800 C   0  0  0  0  0  3  0  0  0  0  0  0
  194.1920  170.4840  138.9830 C   0  0  0  0  0  3  0  0  0  0  0  0
  193.6460  172.8490  138.6580 N   0  0  0  0  0  0  0  0  0  0  0  0
  194.7200  171.8690  138.6810 C   0  0  1  0  0  3  0  0  0  0  0  0
  192.3000  172.4920  138.3250 C   0  0  0  0  0  3  0  0  0  0  0  0
  194.1510  175.2390  138.6540 C   0  0  0  0  0  2  0  0  0  0  0  0
  194.0600  174.9390  137.2930 O   0  0  0  0  0  1  0  0  0  0  0  0
  189.5100  172.6230  140.8710 C   0  0  0  0  0  2  0  0  0  0  0  0
  188.5770  173.7980  141.0050 C   0  0  0  0  0  3  0  0  0  0  0  0
  189.0420  174.9950  141.1540 N   0  0  0  0  0  0  0  0  0  0  0  0
  188.1750  176.0630  141.2580 O   0  0  0  0  0  0  0  0  0  0  0  0
  188.0620  178.0560  142.5630 C   0  0  0  0  0  2  0  0  0  0  0  0
  185.6690  177.7560  142.0840 C   0  0  1  0  0  3  0  0  0  0  0  0
  187.7570  176.5710  142.5310 C   0  0  1  0  0  0  0  0  0  0  0  0
  186.2390  176.4890  142.7020 C   0  0  0  0  0  2  0  0  0  0  0  0
  186.7860  178.7900  142.1870 C   0  0  0  0  0  2  0  0  0  0  0  0
  185.3230  177.5230  140.6800 N   0  0  0  0  0  0  0  0  0  0  0  0
  186.3520  177.9740  139.9220 O   0  0  0  0  0  1  0  0  0  0  0  0
  184.2630  178.3160  140.3870 O   0  0  0  0  0  1  0  0  0  0  0  0
  188.4510  175.9540  143.5980 O   0  0  0  0  0  0  0  0  0  0  0  0
  189.2930  176.8980  144.2120 C   0  0  0  0  0  2  0  0  0  0  0  0
  190.4460  176.2080  144.9440 C   0  0  1  0  0  3  0  0  0  0  0  0
  192.8540  176.3900  145.6400 C   0  0  0  0  0  1  0  0  0  0  0  0
  191.7960  176.8830  144.6660 C   0  0  0  0  0  3  0  0  0  0  0  0
  192.2820  176.6030  143.2520 C   0  0  0  0  0  1  0  0  0  0  0  0
  190.1660  176.1720  146.4450 C   0  0  0  0  0  2  0  0  0  0  0  0
  188.7430  175.7120  146.7180 C   0  0  0  0  0  2  0  0  0  0  0  0
  187.8650  176.8860  147.1180 C   0  0  0  0  0  2  0  0  0  0  0  0
  186.4300  176.4380  147.3380 C   0  0  0  0  0  2  0  0  0  0  0  0
  185.5640  176.8270  146.1550 C   0  0  0  0  0  2  0  0  0  0  0  0
  184.2740  178.6670  145.1430 C   0  0  0  0  0  2  0  0  0  0  0  0
  185.3980  178.3300  146.1000 C   0  0  0  0  0  3  0  0  0  0  0  0
  184.0270  178.6960  146.6340 C   0  0  0  0  0  2  0  0  0  0  0  0
  1  4  1  0  0  0  0
  2  7  1  1  0  0  0
  2  6  1  0  0  0  0
  3  2  1  0  0  0  0
  4  6  1  0  0  0  0
  5  3  1  0  0  0  0
  5  1  1  0  0  0  0
  8  7  1  0  0  0  0
  8  9  1  1  0  0  0
 10  8  1  0  0  0  0
 11 10  1  0  0  0  0
 12 16  1  6  0  0  0
 12 14  1  0  0  0  0
 12 11  1  0  0  0  0
 13 14  1  0  0  0  0
 14 15  1  1  0  0  0
 17 28  1  6  0  0  0
 17 19  1  0  0  0  0
 19 16  1  0  0  0  0
 20 23  1  0  0  0  0
 21 22  1  0  0  0  0
 22 19  1  0  0  0  0
 22 18  1  0  0  0  0
 23 24  2  0  0  0  0
 25 26  1  0  0  0  0
 25 17  1  0  0  0  0
 26 24  1  1  0  0  0
 26 22  1  0  0  0  0
 27 20  2  0  0  0  0
 27 25  1  0  0  0  0
 29 28  1  0  0  0  0
 30 31  1  0  0  0  0
 30  5  1  0  0  0  0
 31 32  2  0  0  0  0
 32 33  1  0  0  0  0
 35 39  1  6  0  0  0
 35 38  1  0  0  0  0
 35 37  1  0  0  0  0
 36 33  1  6  0  0  0
 36 34  1  0  0  0  0
 36 37  1  0  0  0  0
 36 42  1  0  0  0  0
 38 34  1  0  0  0  0
 40 39  1  0  0  0  0
 41 39  1  0  0  0  0
 42 43  1  0  0  0  0
 44 43  1  6  0  0  0
 44 48  1  0  0  0  0
 46 44  1  0  0  0  0
 46 45  1  0  0  0  0
 47 46  1  0  0  0  0
 48 49  1  0  0  0  0
 49 50  1  0  0  0  0
 50 51  1  0  0  0  0
 52 51  1  0  0  0  0
 53 54  1  0  0  0  0
 53 55  1  0  0  0  0
 54 52  1  0  0  0  0
 54 55  1  0  0  0  0
M  END
>  <MODEL>
7

>  <REMARK>
 VINA RESULT:      -5.7      2.477      5.760
  Name = 
  24 active torsions:
  status: ('A' for Active; 'I' for Inactive)
    1  A    between atoms: C_1  and  C_21
    2  A    between atoms: C_2  and  C_28
    3  A    between atoms: C_2  and  N_44
    4  A    between atoms: C_4  and  C_19
    5  A    between atoms: C_4  and  C_37
    6  A    between atoms: N_6  and  C_46
    7  A    between atoms: C_8  and  C_22
    8  A    between atoms: C_8  and  C_35
    9  A    between atoms: N_10  and  C_32
   10  A    between atoms: C_15  and  C_17
   11  A    between atoms: C_16  and  C_17
   12  A    between atoms: C_16  and  C_26
   13  A    between atoms: C_17  and  C_36
   14  A    between atoms: C_20  and  C_22
   15  A    between atoms: C_22  and  C_46
   16  A    between atoms: C_26  and  C_45
   17  A    between atoms: C_27  and  C_54
   18  A    between atoms: N_33  and  O_49
   19  A    between atoms: C_34  and  O_49
   20  A    between atoms: C_34  and  O_52
   21  A    between atoms: C_35  and  C_43
   22  A    between atoms: C_36  and  O_52
   23  A    between atoms: C_37  and  C_45
   24  A    between atoms: C_43  and  C_54
                            x       y       z     vdW  Elec       q    Type
                         _______ _______ _______ _____ _____    ______ ____

>  <TORSDO>
F 24

$$$$
=
 OpenBabel11052419393D

 55 59  0  0  1  0  0  0  0  0999 V2000
  193.7130  170.1630  143.8240 C   0  0  0  0  0  2  0  0  0  0  0  0
  191.5050  171.8380  144.2050 C   0  0  2  0  0  3  0  0  0  0  0  0
  192.9050  172.2950  144.6250 C   0  0  0  0  0  2  0  0  0  0  0  0
  192.2600  169.8290  143.4870 C   0  0  0  0  0  2  0  0  0  0  0  0
  193.7520  171.1340  144.9220 N   0  0  0  0  0  0  0  0  0  0  0  0
  191.5930  170.9970  143.0790 O   0  0  0  0  0  0  0  0  0  0  0  0
  190.6870  173.0680  143.8570 C   0  0  0  0  0  2  0  0  0  0  0  0
  190.2530  173.0540  142.4030 C   0  0  2  0  0  3  0  0  0  0  0  0
  191.3000  173.7960  141.5930 C   0  0  0  0  0  1  0  0  0  0  0  0
  188.9040  173.7490  142.2750 C   0  0  0  0  0  2  0  0  0  0  0  0
  189.0220  175.1230  141.6190 C   0  0  0  0  0  2  0  0  0  0  0  0
  187.9310  176.0970  142.0730 C   0  0  2  0  0  3  0  0  0  0  0  0
  187.2440  176.0830  139.7590 O   0  0  0  0  0  1  0  0  0  0  0  0
  187.3550  176.8900  140.8910 C   0  0  1  0  0  3  0  0  0  0  0  0
  185.9770  177.4380  141.2250 C   0  0  0  0  0  1  0  0  0  0  0  0
  188.5240  177.0620  143.0980 C   0  0  0  0  0  2  0  0  0  0  0  0
  190.8980  176.9240  143.7790 C   0  0  2  0  0  3  0  0  0  0  0  0
  188.5580  175.2670  145.7670 O   0  0  0  0  0  1  0  0  0  0  0  0
  189.5250  176.4030  143.9500 N   0  0  0  0  0  0  0  0  0  0  0  0
  193.2810  175.6340  146.1630 C   0  0  0  0  0  3  0  0  0  0  0  0
  188.4240  177.5440  145.7270 O   0  0  0  0  0  1  0  0  0  0  0  0
  189.2220  176.4420  145.3990 C   0  0  0  0  0  0  0  0  0  0  0  0
  192.2580  175.0060  147.0210 C   0  0  0  0  0  3  0  0  0  0  0  0
  190.9820  175.4040  146.9760 C   0  0  0  0  0  3  0  0  0  0  0  0
  191.5350  176.8440  145.0740 N   0  0  0  0  0  0  0  0  0  0  0  0
  190.5650  176.5830  146.1250 C   0  0  1  0  0  3  0  0  0  0  0  0
  192.9180  176.4980  145.2140 C   0  0  0  0  0  3  0  0  0  0  0  0
  190.9940  178.3630  143.2380 C   0  0  0  0  0  2  0  0  0  0  0  0
  191.7440  179.1700  144.0960 O   0  0  0  0  0  1  0  0  0  0  0  0
  195.1390  171.5620  145.1540 C   0  0  0  0  0  2  0  0  0  0  0  0
  195.9150  171.8540  143.8960 C   0  0  0  0  0  3  0  0  0  0  0  0
  196.1290  173.0730  143.5220 N   0  0  0  0  0  0  0  0  0  0  0  0
  196.8570  173.3240  142.3770 O   0  0  0  0  0  0  0  0  0  0  0  0
  194.8770  174.4310  141.6420 C   0  0  0  0  0  2  0  0  0  0  0  0
  196.3440  176.3830  141.9250 C   0  0  1  0  0  3  0  0  0  0  0  0
  196.2900  174.0320  141.2670 C   0  0  1  0  0  0  0  0  0  0  0  0
  197.0080  175.3590  141.0180 C   0  0  0  0  0  2  0  0  0  0  0  0
  194.9270  175.8630  142.1460 C   0  0  0  0  0  2  0  0  0  0  0  0
  197.0570  176.4670  143.2020 N   0  0  0  0  0  0  0  0  0  0  0  0
  196.1420  176.7210  144.1690 O   0  0  0  0  0  1  0  0  0  0  0  0
  197.8610  177.5570  143.1460 O   0  0  0  0  0  1  0  0  0  0  0  0
  196.2290  173.2280  140.1060 O   0  0  0  0  0  0  0  0  0  0  0  0
  194.8850  172.9380  139.8110 C   0  0  0  0  0  2  0  0  0  0  0  0
  194.7690  172.1520  138.5040 C   0  0  1  0  0  3  0  0  0  0  0  0
  193.0870  170.9330  139.9210 C   0  0  0  0  0  1  0  0  0  0  0  0
  193.9560  170.8610  138.6750 C   0  0  0  0  0  3  0  0  0  0  0  0
  193.0540  170.6040  137.4780 C   0  0  0  0  0  1  0  0  0  0  0  0
  194.1540  173.0300  137.4170 C   0  0  0  0  0  2  0  0  0  0  0  0
  193.5810  174.3060  138.0140 C   0  0  0  0  0  2  0  0  0  0  0  0
  192.4610  174.8520  137.1430 C   0  0  0  0  0  2  0  0  0  0  0  0
  191.4070  173.7890  136.8870 C   0  0  0  0  0  2  0  0  0  0  0  0
  190.3660  173.7960  137.9910 C   0  0  0  0  0  2  0  0  0  0  0  0
  189.6090  171.6170  138.8620 C   0  0  0  0  0  2  0  0  0  0  0  0
  189.3830  172.6640  137.7900 C   0  0  0  0  0  3  0  0  0  0  0  0
  188.4600  172.5910  138.9910 C   0  0  0  0  0  2  0  0  0  0  0  0
  1  5  1  0  0  0  0
  2  7  1  6  0  0  0
  2  3  1  0  0  0  0
  3  5  1  0  0  0  0
  4  1  1  0  0  0  0
  5 30  1  0  0  0  0
  6  4  1  0  0  0  0
  6  2  1  0  0  0  0
  8  9  1  6  0  0  0
  8  7  1  0  0  0  0
 10  8  1  0  0  0  0
 11 10  1  0  0  0  0
 12 11  1  6  0  0  0
 12 16  1  0  0  0  0
 13 14  1  0  0  0  0
 14 15  1  1  0  0  0
 14 12  1  0  0  0  0
 16 19  1  0  0  0  0
 17 28  1  1  0  0  0
 17 19  1  0  0  0  0
 17 25  1  0  0  0  0
 19 22  1  0  0  0  0
 20 23  1  0  0  0  0
 22 21  1  0  0  0  0
 22 18  1  0  0  0  0
 22 26  1  0  0  0  0
 24 23  2  0  0  0  0
 25 27  1  0  0  0  0
 25 26  1  0  0  0  0
 26 24  1  6  0  0  0
 27 20  2  0  0  0  0
 28 29  1  0  0  0  0
 31 30  1  0  0  0  0
 32 31  2  0  0  0  0
 33 32  1  0  0  0  0
 34 38  1  0  0  0  0
 35 38  1  0  0  0  0
 35 39  1  1  0  0  0
 36 42  1  6  0  0  0
 36 34  1  0  0  0  0
 36 33  1  0  0  0  0
 37 36  1  0  0  0  0
 37 35  1  0  0  0  0
 39 40  1  0  0  0  0
 41 39  1  0  0  0  0
 43 42  1  0  0  0  0
 44 48  1  6  0  0  0
 44 46  1  0  0  0  0
 44 43  1  0  0  0  0
 46 45  1  0  0  0  0
 47 46  1  0  0  0  0
 48 49  1  0  0  0  0
 50 49  1  0  0  0  0
 51 50  1  0  0  0  0
 51 52  1  0  0  0  0
 53 55  1  0  0  0  0
 54 52  1  0  0  0  0
 54 53  1  0  0  0  0
 54 55  1  0  0  0  0
M  END
>  <MODEL>
8

>  <REMARK>
 VINA RESULT:      -5.5      2.653      8.184
  Name = 
  24 active torsions:
  status: ('A' for Active; 'I' for Inactive)
    1  A    between atoms: C_1  and  C_21
    2  A    between atoms: C_2  and  C_28
    3  A    between atoms: C_2  and  N_44
    4  A    between atoms: C_4  and  C_19
    5  A    between atoms: C_4  and  C_37
    6  A    between atoms: N_6  and  C_46
    7  A    between atoms: C_8  and  C_22
    8  A    between atoms: C_8  and  C_35
    9  A    between atoms: N_10  and  C_32
   10  A    between atoms: C_15  and  C_17
   11  A    between atoms: C_16  and  C_17
   12  A    between atoms: C_16  and  C_26
   13  A    between atoms: C_17  and  C_36
   14  A    between atoms: C_20  and  C_22
   15  A    between atoms: C_22  and  C_46
   16  A    between atoms: C_26  and  C_45
   17  A    between atoms: C_27  and  C_54
   18  A    between atoms: N_33  and  O_49
   19  A    between atoms: C_34  and  O_49
   20  A    between atoms: C_34  and  O_52
   21  A    between atoms: C_35  and  C_43
   22  A    between atoms: C_36  and  O_52
   23  A    between atoms: C_37  and  C_45
   24  A    between atoms: C_43  and  C_54
                            x       y       z     vdW  Elec       q    Type
                         _______ _______ _______ _____ _____    ______ ____

>  <TORSDO>
F 24

$$$$
=
 OpenBabel11052419393D

 55 59  0  0  1  0  0  0  0  0999 V2000
  188.1830  174.1650  142.6100 C   0  0  0  0  0  2  0  0  0  0  0  0
  189.2030  172.8020  140.3900 C   0  0  2  0  0  3  0  0  0  0  0  0
  189.7480  174.1830  140.7680 C   0  0  0  0  0  2  0  0  0  0  0  0
  187.7150  172.8040  142.0950 C   0  0  0  0  0  2  0  0  0  0  0  0
  188.7310  174.9490  141.4980 N   0  0  0  0  0  0  0  0  0  0  0  0
  188.8080  172.1080  141.5500 O   0  0  0  0  0  0  0  0  0  0  0  0
  190.3060  172.0310  139.6880 C   0  0  0  0  0  2  0  0  0  0  0  0
  190.1450  172.0780  138.1810 C   0  0  2  0  0  3  0  0  0  0  0  0
  190.0040  170.6530  137.6770 C   0  0  0  0  0  1  0  0  0  0  0  0
  191.3770  172.7300  137.5650 C   0  0  0  0  0  2  0  0  0  0  0  0
  192.5530  172.7780  138.5380 C   0  0  0  0  0  2  0  0  0  0  0  0
  193.6420  171.7540  138.2090 C   0  0  2  0  0  3  0  0  0  0  0  0
  194.4340  171.9420  135.9380 O   0  0  0  0  0  1  0  0  0  0  0  0
  193.5360  171.2610  136.7590 C   0  0  1  0  0  3  0  0  0  0  0  0
  193.8370  169.7740  136.6670 C   0  0  0  0  0  1  0  0  0  0  0  0
  193.5100  170.5680  139.1640 C   0  0  0  0  0  2  0  0  0  0  0  0
  192.9680  170.5140  141.5760 C   0  0  2  0  0  3  0  0  0  0  0  0
  196.2340  171.3550  140.6840 O   0  0  0  0  0  1  0  0  0  0  0  0
  193.9290  170.9200  140.5290 N   0  0  0  0  0  0  0  0  0  0  0  0
  194.1710  170.9690  144.9490 C   0  0  0  0  0  3  0  0  0  0  0  0
  195.5710  169.2240  140.2140 O   0  0  0  0  0  1  0  0  0  0  0  0
  195.2530  170.3880  140.9240 C   0  0  0  0  0  0  0  0  0  0  0  0
  195.5600  171.2500  144.5390 C   0  0  0  0  0  3  0  0  0  0  0  0
  196.0170  170.8650  143.3420 C   0  0  0  0  0  3  0  0  0  0  0  0
  193.7490  170.1640  142.7410 N   0  0  0  0  0  0  0  0  0  0  0  0
  195.1590  170.0360  142.4130 C   0  0  1  0  0  3  0  0  0  0  0  0
  193.3030  170.4700  144.0670 C   0  0  0  0  0  3  0  0  0  0  0  0
  192.0380  169.3450  141.2000 C   0  0  0  0  0  2  0  0  0  0  0  0
  191.0280  169.1850  142.1520 O   0  0  0  0  0  1  0  0  0  0  0  0
  189.3080  176.1990  142.0130 C   0  0  0  0  0  2  0  0  0  0  0  0
  190.4590  176.0030  142.9650 C   0  0  0  0  0  3  0  0  0  0  0  0
  191.6760  176.2110  142.5790 N   0  0  0  0  0  0  0  0  0  0  0  0
  192.7180  176.0440  143.4680 O   0  0  0  0  0  0  0  0  0  0  0  0
  193.3250  173.9550  142.4910 C   0  0  0  0  0  2  0  0  0  0  0  0
  195.5650  174.8030  143.0460 C   0  0  1  0  0  3  0  0  0  0  0  0
  193.2380  174.7460  143.7820 C   0  0  1  0  0  0  0  0  0  0  0  0
  194.6800  174.8210  144.2820 C   0  0  0  0  0  2  0  0  0  0  0  0
  194.7510  174.0750  141.9810 C   0  0  0  0  0  2  0  0  0  0  0  0
  195.8560  176.1720  142.6120 N   0  0  0  0  0  0  0  0  0  0  0  0
  197.0510  176.1550  141.9710 O   0  0  0  0  0  1  0  0  0  0  0  0
  196.0360  176.9210  143.7270 O   0  0  0  0  0  1  0  0  0  0  0  0
  192.3950  174.0430  144.6740 O   0  0  0  0  0  0  0  0  0  0  0  0
  192.8090  174.2890  145.9950 C   0  0  0  0  0  2  0  0  0  0  0  0
  191.6820  174.9220  146.8130 C   0  0  1  0  0  3  0  0  0  0  0  0
  191.5310  176.7860  148.4920 C   0  0  0  0  0  1  0  0  0  0  0  0
  191.9210  176.4160  147.0700 C   0  0  0  0  0  3  0  0  0  0  0  0
  193.3790  176.7950  146.8610 C   0  0  0  0  0  1  0  0  0  0  0  0
  190.3420  174.7080  146.1120 C   0  0  0  0  0  2  0  0  0  0  0  0
  189.2050  175.3010  146.9290 C   0  0  0  0  0  2  0  0  0  0  0  0
  188.2380  176.0600  146.0360 C   0  0  0  0  0  2  0  0  0  0  0  0
  186.9700  176.4180  146.7920 C   0  0  0  0  0  2  0  0  0  0  0  0
  185.9250  176.9760  145.8440 C   0  0  0  0  0  2  0  0  0  0  0  0
  185.9510  179.0060  147.2410 C   0  0  0  0  0  2  0  0  0  0  0  0
  185.0590  177.9900  146.5580 C   0  0  0  0  0  3  0  0  0  0  0  0
  185.2780  179.3540  145.9330 C   0  0  0  0  0  2  0  0  0  0  0  0
  2  7  1  1  0  0  0
  2  3  1  0  0  0  0
  2  6  1  0  0  0  0
  3  5  1  0  0  0  0
  4  1  1  0  0  0  0
  5 30  1  0  0  0  0
  5  1  1  0  0  0  0
  6  4  1  0  0  0  0
  8  9  1  6  0  0  0
  8  7  1  0  0  0  0
 10  8  1  0  0  0  0
 10 11  1  0  0  0  0
 12 11  1  1  0  0  0
 12 16  1  0  0  0  0
 13 14  1  0  0  0  0
 14 15  1  1  0  0  0
 14 12  1  0  0  0  0
 16 19  1  0  0  0  0
 17 28  1  6  0  0  0
 17 25  1  0  0  0  0
 18 22  1  0  0  0  0
 19 22  1  0  0  0  0
 19 17  1  0  0  0  0
 21 22  1  0  0  0  0
 22 26  1  0  0  0  0
 23 20  1  0  0  0  0
 24 23  2  0  0  0  0
 25 27  1  0  0  0  0
 26 25  1  0  0  0  0
 26 24  1  1  0  0  0
 27 20  2  0  0  0  0
 28 29  1  0  0  0  0
 30 31  1  0  0  0  0
 32 31  2  0  0  0  0
 32 33  1  0  0  0  0
 34 36  1  0  0  0  0
 35 39  1  6  0  0  0
 35 37  1  0  0  0  0
 36 33  1  6  0  0  0
 36 37  1  0  0  0  0
 36 42  1  0  0  0  0
 38 34  1  0  0  0  0
 38 35  1  0  0  0  0
 39 41  1  0  0  0  0
 40 39  1  0  0  0  0
 42 43  1  0  0  0  0
 44 43  1  6  0  0  0
 44 46  1  0  0  0  0
 46 45  1  0  0  0  0
 47 46  1  0  0  0  0
 48 44  1  0  0  0  0
 48 49  1  0  0  0  0
 50 51  1  0  0  0  0
 50 49  1  0  0  0  0
 52 54  1  0  0  0  0
 52 51  1  0  0  0  0
 54 53  1  0  0  0  0
 55 54  1  0  0  0  0
 55 53  1  0  0  0  0
M  END
>  <MODEL>
9

>  <REMARK>
 VINA RESULT:      -5.4      2.879      5.460
  Name = 
  24 active torsions:
  status: ('A' for Active; 'I' for Inactive)
    1  A    between atoms: C_1  and  C_21
    2  A    between atoms: C_2  and  C_28
    3  A    between atoms: C_2  and  N_44
    4  A    between atoms: C_4  and  C_19
    5  A    between atoms: C_4  and  C_37
    6  A    between atoms: N_6  and  C_46
    7  A    between atoms: C_8  and  C_22
    8  A    between atoms: C_8  and  C_35
    9  A    between atoms: N_10  and  C_32
   10  A    between atoms: C_15  and  C_17
   11  A    between atoms: C_16  and  C_17
   12  A    between atoms: C_16  and  C_26
   13  A    between atoms: C_17  and  C_36
   14  A    between atoms: C_20  and  C_22
   15  A    between atoms: C_22  and  C_46
   16  A    between atoms: C_26  and  C_45
   17  A    between atoms: C_27  and  C_54
   18  A    between atoms: N_33  and  O_49
   19  A    between atoms: C_34  and  O_49
   20  A    between atoms: C_34  and  O_52
   21  A    between atoms: C_35  and  C_43
   22  A    between atoms: C_36  and  O_52
   23  A    between atoms: C_37  and  C_45
   24  A    between atoms: C_43  and  C_54
                            x       y       z     vdW  Elec       q    Type
                         _______ _______ _______ _____ _____    ______ ____

>  <TORSDO>
F 24

$$$$
