=
 OpenBabel11052418473D

 34 38  0  0  1  0  0  0  0  0999 V2000
  189.1200  174.5010  141.1200 C   0  0  0  0  0  0  0  0  0  0  0  0
  190.8820  173.6360  142.5620 C   0  0  0  0  0  0  0  0  0  0  0  0
  189.4180  175.6760  143.3060 C   0  0  2  0  0  3  0  0  0  0  0  0
  189.3180  175.9080  145.7670 C   0  0  0  0  0  0  0  0  0  0  0  0
  190.5410  172.6990  140.3520 C   0  0  0  0  0  3  0  0  0  0  0  0
  191.2290  172.7230  141.5630 C   0  0  0  0  0  3  0  0  0  0  0  0
  191.4440  175.8450  144.8860 N   0  0  0  0  0  0  0  0  0  0  0  0
  189.8350  174.5670  142.3420 C   0  0  0  0  0  0  0  0  0  0  0  0
  192.9080  176.3080  146.7480 C   0  0  0  0  0  2  0  0  0  0  0  0
  190.2330  176.0930  147.2980 S   0  0  0  0  0  0  0  0  0  0  0  0
  189.4810  173.5760  140.1380 C   0  0  0  0  0  3  0  0  0  0  0  0
  187.6280  176.3480  141.9930 C   0  0  0  0  0  2  0  0  0  0  0  0
  187.8770  175.3200  140.8880 C   0  0  0  0  0  2  0  0  0  0  0  0
  191.5460  173.5500  143.7360 F   0  0  0  0  0  0  0  0  0  0  0  0
  187.9500  176.2690  145.6540 N   0  0  0  0  0  2  0  0  0  0  0  0
  187.4160  176.6700  144.3540 C   0  0  1  0  0  3  0  0  0  0  0  0
  191.6910  176.0870  146.2640 C   0  0  0  0  0  0  0  0  0  0  0  0
  190.0450  175.6960  144.6820 C   0  0  0  0  0  0  0  0  0  0  0  0
  187.9400  175.7750  143.3010 N   0  0  2  0  0  0  0  0  0  0  0  0
  186.1180  179.5430  144.7610 C   0  0  0  0  0  2  0  0  0  0  0  0
  185.1050  179.2190  145.8520 C   0  0  0  0  0  2  0  0  0  0  0  0
  185.8660  176.6400  144.4020 C   0  0  2  0  0  3  0  0  0  0  0  0
  185.5640  177.9680  146.5840 C   0  0  0  0  0  2  0  0  0  0  0  0
  185.1670  177.6460  143.4750 C   0  0  0  0  0  2  0  0  0  0  0  0
  185.2410  176.6950  145.8040 C   0  0  0  0  0  2  0  0  0  0  0  0
  185.7690  178.9870  143.4470 N   0  0  0  0  0  2  0  0  0  0  0  0
  194.0490  176.3040  145.8950 N   0  0  0  0  0  0  0  0  0  0  0  0
  194.7610  175.2340  145.7750 C   0  0  0  0  0  3  0  0  0  0  0  0
  195.9530  175.2310  144.8820 C   0  0  0  0  0  2  0  0  0  0  0  0
  194.4520  174.7020  142.9490 C   0  0  0  0  0  1  0  0  0  0  0  0
  195.5470  175.4800  143.5080 N   0  0  0  0  0  0  0  0  0  0  0  0
  195.8050  176.7430  141.5560 O   0  0  0  0  0  0  0  0  0  0  0  0
  197.2100  177.2630  143.2860 O   0  0  0  0  0  1  0  0  0  0  0  0
  196.1780  176.5110  142.7370 C   0  0  0  0  0  0  0  0  0  0  0  0
  1  8  1  0  0  0  0
  2 14  1  0  0  0  0
  3  8  1  1  0  0  0
  3 18  1  0  0  0  0
  4 10  1  0  0  0  0
  5  6  2  0  0  0  0
  6  2  1  0  0  0  0
  7 17  2  0  0  0  0
  8  2  2  0  0  0  0
 11  5  1  0  0  0  0
 11  1  2  0  0  0  0
 13  1  1  0  0  0  0
 13 12  1  0  0  0  0
 15  4  1  0  0  0  0
 16 22  1  0  0  0  0
 16 15  1  1  0  0  0
 17  9  1  0  0  0  0
 17 10  1  0  0  0  0
 18  7  1  0  0  0  0
 18  4  2  0  0  0  0
 19 12  1  6  0  0  0
 19  3  1  0  0  0  0
 19 16  1  0  0  0  0
 20 21  1  0  0  0  0
 21 23  1  0  0  0  0
 22 24  1  6  0  0  0
 22 25  1  0  0  0  0
 25 23  1  0  0  0  0
 26 24  1  0  0  0  0
 26 20  1  0  0  0  0
 27  9  1  0  0  0  0
 28 27  2  0  0  0  0
 29 28  1  0  0  0  0
 30 31  1  0  0  0  0
 31 29  1  0  0  0  0
 32 34  2  0  0  0  0
 34 33  1  0  0  0  0
 34 31  1  0  0  0  0
M  END
>  <MODEL>
1

>  <REMARK>
 VINA RESULT:      -8.1      0.000      0.000
  Name = 
  4 active torsions:
  status: ('A' for Active; 'I' for Inactive)
    1  A    between atoms: N_3  and  C_17
    2  A    between atoms: C_12  and  C_28
    3  A    between atoms: C_13  and  C_33
    4  A    between atoms: N_14  and  C_33
                            x       y       z     vdW  Elec       q    Type
                         _______ _______ _______ _____ _____    ______ ____

>  <TORSDO>
F 4

$$$$
=
 OpenBabel11052418473D

 34 38  0  0  1  0  0  0  0  0999 V2000
  187.9340  177.5130  146.8590 C   0  0  0  0  0  0  0  0  0  0  0  0
  186.3160  176.8340  145.1690 C   0  0  0  0  0  0  0  0  0  0  0  0
  188.8880  176.6830  144.7030 C   0  0  2  0  0  3  0  0  0  0  0  0
  189.4290  174.9830  142.9890 C   0  0  0  0  0  0  0  0  0  0  0  0
  185.5640  177.7850  147.2700 C   0  0  0  0  0  3  0  0  0  0  0  0
  185.2830  177.2400  146.0190 C   0  0  0  0  0  3  0  0  0  0  0  0
  187.8880  176.5620  142.3320 N   0  0  0  0  0  0  0  0  0  0  0  0
  187.6670  176.9950  145.5660 C   0  0  0  0  0  0  0  0  0  0  0  0
  187.5090  176.1320  139.9880 C   0  0  0  0  0  2  0  0  0  0  0  0
  189.1600  174.3950  141.3160 S   0  0  0  0  0  0  0  0  0  0  0  0
  186.8850  177.9070  147.6930 C   0  0  0  0  0  3  0  0  0  0  0  0
  190.3960  177.1560  146.4000 C   0  0  0  0  0  2  0  0  0  0  0  0
  189.3280  177.5340  147.4280 C   0  0  0  0  0  2  0  0  0  0  0  0
  185.9630  176.2490  144.0040 F   0  0  0  0  0  0  0  0  0  0  0  0
  190.5770  174.6230  143.7420 N   0  0  0  0  0  2  0  0  0  0  0  0
  191.0660  175.5230  144.7850 C   0  0  1  0  0  3  0  0  0  0  0  0
  188.0780  175.8070  141.1440 C   0  0  0  0  0  0  0  0  0  0  0  0
  188.6630  175.9890  143.3770 C   0  0  0  0  0  0  0  0  0  0  0  0
  189.9250  176.0590  145.5560 N   0  0  2  0  0  0  0  0  0  0  0  0
  194.1100  176.0240  144.0220 C   0  0  0  0  0  2  0  0  0  0  0  0
  194.6250  174.5910  144.0520 C   0  0  0  0  0  2  0  0  0  0  0  0
  192.0590  174.7610  145.6990 C   0  0  2  0  0  3  0  0  0  0  0  0
  193.4510  173.6480  143.8450 C   0  0  0  0  0  2  0  0  0  0  0  0
  193.1890  175.6170  146.2900 C   0  0  0  0  0  2  0  0  0  0  0  0
  192.6340  173.4590  145.1210 C   0  0  0  0  0  2  0  0  0  0  0  0
  193.8020  176.5690  145.3510 N   0  0  0  0  0  2  0  0  0  0  0  0
  186.6580  177.2690  139.8830 N   0  0  0  0  0  0  0  0  0  0  0  0
  185.5610  177.3190  140.5610 C   0  0  0  0  0  3  0  0  0  0  0  0
  184.6720  178.5090  140.4510 C   0  0  0  0  0  2  0  0  0  0  0  0
  182.3670  178.1160  141.3460 C   0  0  0  0  0  1  0  0  0  0  0  0
  183.7410  178.5400  141.5680 N   0  0  0  0  0  0  0  0  0  0  0  0
  183.3810  178.9270  143.8460 O   0  0  0  0  0  1  0  0  0  0  0  0
  185.5030  179.3120  143.0820 O   0  0  0  0  0  0  0  0  0  0  0  0
  184.1830  178.9290  142.8740 C   0  0  0  0  0  0  0  0  0  0  0  0
  1 13  1  0  0  0  0
  1 11  1  0  0  0  0
  2  8  1  0  0  0  0
  2  6  2  0  0  0  0
  3 18  1  6  0  0  0
  3 19  1  0  0  0  0
  3  8  1  0  0  0  0
  4 18  2  0  0  0  0
  4 15  1  0  0  0  0
  5 11  2  0  0  0  0
  6  5  1  0  0  0  0
  7 18  1  0  0  0  0
  8  1  2  0  0  0  0
  9 17  1  0  0  0  0
 10  4  1  0  0  0  0
 12 13  1  0  0  0  0
 14  2  1  0  0  0  0
 16 15  1  6  0  0  0
 16 19  1  0  0  0  0
 16 22  1  0  0  0  0
 17 10  1  0  0  0  0
 17  7  2  0  0  0  0
 19 12  1  1  0  0  0
 20 21  1  0  0  0  0
 20 26  1  0  0  0  0
 22 25  1  6  0  0  0
 22 24  1  0  0  0  0
 23 21  1  0  0  0  0
 23 25  1  0  0  0  0
 26 24  1  0  0  0  0
 27  9  1  0  0  0  0
 27 28  2  0  0  0  0
 29 28  1  0  0  0  0
 29 31  1  0  0  0  0
 30 31  1  0  0  0  0
 31 34  1  0  0  0  0
 34 33  2  0  0  0  0
 34 32  1  0  0  0  0
M  END
>  <MODEL>
2

>  <REMARK>
 VINA RESULT:      -7.8      3.707      8.358
  Name = 
  4 active torsions:
  status: ('A' for Active; 'I' for Inactive)
    1  A    between atoms: N_3  and  C_17
    2  A    between atoms: C_12  and  C_28
    3  A    between atoms: C_13  and  C_33
    4  A    between atoms: N_14  and  C_33
                            x       y       z     vdW  Elec       q    Type
                         _______ _______ _______ _____ _____    ______ ____

>  <TORSDO>
F 4

$$$$
=
 OpenBabel11052418473D

 34 38  0  0  1  0  0  0  0  0999 V2000
  191.6080  176.3660  146.2040 C   0  0  0  0  0  0  0  0  0  0  0  0
  192.1500  175.9120  143.8730 C   0  0  0  0  0  0  0  0  0  0  0  0
  189.6600  176.1100  144.6590 C   0  0  2  0  0  3  0  0  0  0  0  0
  188.1470  176.7720  142.8170 C   0  0  0  0  0  0  0  0  0  0  0  0
  193.9130  176.0600  145.5310 C   0  0  0  0  0  3  0  0  0  0  0  0
  193.5050  175.8680  144.2130 C   0  0  0  0  0  3  0  0  0  0  0  0
  189.4300  174.9090  142.3920 N   0  0  0  0  0  0  0  0  0  0  0  0
  191.1720  176.1310  144.8760 C   0  0  0  0  0  0  0  0  0  0  0  0
  188.6230  174.0580  140.2830 C   0  0  0  0  0  2  0  0  0  0  0  0
  187.5280  176.4060  141.1740 S   0  0  0  0  0  0  0  0  0  0  0  0
  192.9680  176.3230  146.5190 C   0  0  0  0  0  3  0  0  0  0  0  0
  189.1880  176.7310  146.8430 C   0  0  0  0  0  2  0  0  0  0  0  0
  190.6510  176.7970  147.2850 C   0  0  0  0  0  2  0  0  0  0  0  0
  191.8380  175.7890  142.5640 F   0  0  0  0  0  0  0  0  0  0  0  0
  187.4340  177.5930  143.7300 N   0  0  0  0  0  2  0  0  0  0  0  0
  187.6180  177.4010  145.1670 C   0  0  1  0  0  3  0  0  0  0  0  0
  188.6070  174.9830  141.2370 C   0  0  0  0  0  0  0  0  0  0  0  0
  189.1450  176.0140  143.2390 C   0  0  0  0  0  0  0  0  0  0  0  0
  189.0510  177.1940  145.4630 N   0  0  2  0  0  0  0  0  0  0  0  0
  184.8580  176.8120  146.6290 C   0  0  0  0  0  2  0  0  0  0  0  0
  184.0700  178.0430  146.2020 C   0  0  0  0  0  2  0  0  0  0  0  0
  187.0540  178.6290  145.9270 C   0  0  2  0  0  3  0  0  0  0  0  0
  184.6850  178.5960  144.9270 C   0  0  0  0  0  2  0  0  0  0  0  0
  186.6440  178.3610  147.3830 C   0  0  0  0  0  2  0  0  0  0  0  0
  185.9470  179.4100  145.2040 C   0  0  0  0  0  2  0  0  0  0  0  0
  185.9210  177.0990  147.6020 N   0  0  0  0  0  2  0  0  0  0  0  0
  189.4880  172.9310  140.3680 N   0  0  0  0  0  0  0  0  0  0  0  0
  190.6090  172.9280  139.7280 C   0  0  0  0  0  3  0  0  0  0  0  0
  191.5150  171.7490  139.8170 C   0  0  0  0  0  2  0  0  0  0  0  0
  192.9030  172.6150  141.7120 C   0  0  0  0  0  1  0  0  0  0  0  0
  192.0070  171.6010  141.1780 N   0  0  0  0  0  0  0  0  0  0  0  0
  191.9790  170.3970  143.1830 O   0  0  0  0  0  1  0  0  0  0  0  0
  190.7000  169.5540  141.4840 O   0  0  0  0  0  0  0  0  0  0  0  0
  191.5730  170.5070  141.9950 C   0  0  0  0  0  0  0  0  0  0  0  0
  1 11  1  0  0  0  0
  1 13  1  0  0  0  0
  2  6  2  0  0  0  0
  2  8  1  0  0  0  0
  3 18  1  6  0  0  0
  3  8  1  0  0  0  0
  3 19  1  0  0  0  0
  4 18  2  0  0  0  0
  4 15  1  0  0  0  0
  5 11  2  0  0  0  0
  6  5  1  0  0  0  0
  7 18  1  0  0  0  0
  8  1  2  0  0  0  0
  9 27  1  0  0  0  0
  9 17  1  0  0  0  0
 10 17  1  0  0  0  0
 10  4  1  0  0  0  0
 12 13  1  0  0  0  0
 14  2  1  0  0  0  0
 16 15  1  6  0  0  0
 16 19  1  0  0  0  0
 16 22  1  0  0  0  0
 17  7  2  0  0  0  0
 19 12  1  1  0  0  0
 20 26  1  0  0  0  0
 21 20  1  0  0  0  0
 22 25  1  6  0  0  0
 22 24  1  0  0  0  0
 23 25  1  0  0  0  0
 23 21  1  0  0  0  0
 24 26  1  0  0  0  0
 28 29  1  0  0  0  0
 28 27  2  0  0  0  0
 29 31  1  0  0  0  0
 31 30  1  0  0  0  0
 31 34  1  0  0  0  0
 33 34  2  0  0  0  0
 34 32  1  0  0  0  0
M  END
>  <MODEL>
3

>  <REMARK>
 VINA RESULT:      -7.8      3.027      5.349
  Name = 
  4 active torsions:
  status: ('A' for Active; 'I' for Inactive)
    1  A    between atoms: N_3  and  C_17
    2  A    between atoms: C_12  and  C_28
    3  A    between atoms: C_13  and  C_33
    4  A    between atoms: N_14  and  C_33
                            x       y       z     vdW  Elec       q    Type
                         _______ _______ _______ _____ _____    ______ ____

>  <TORSDO>
F 4

$$$$
=
 OpenBabel11052418473D

 34 38  0  0  1  0  0  0  0  0999 V2000
  189.3000  173.1230  142.0400 C   0  0  0  0  0  0  0  0  0  0  0  0
  190.9440  172.7290  143.7940 C   0  0  0  0  0  0  0  0  0  0  0  0
  189.6390  174.9950  143.6610 C   0  0  2  0  0  3  0  0  0  0  0  0
  189.4950  176.1210  145.8600 C   0  0  0  0  0  0  0  0  0  0  0  0
  190.5830  171.0710  142.0610 C   0  0  0  0  0  3  0  0  0  0  0  0
  191.2390  171.4900  143.2170 C   0  0  0  0  0  3  0  0  0  0  0  0
  191.6300  175.5920  145.1820 N   0  0  0  0  0  0  0  0  0  0  0  0
  189.9870  173.5840  143.1920 C   0  0  0  0  0  0  0  0  0  0  0  0
  193.0790  176.6040  146.8250 C   0  0  0  0  0  2  0  0  0  0  0  0
  190.3820  176.7930  147.2660 S   0  0  0  0  0  0  0  0  0  0  0  0
  189.6070  171.8790  141.4850 C   0  0  0  0  0  3  0  0  0  0  0  0
  187.9480  175.2600  142.0960 C   0  0  0  0  0  2  0  0  0  0  0  0
  188.1380  173.8840  141.4570 C   0  0  0  0  0  2  0  0  0  0  0  0
  191.5680  173.0340  144.9530 F   0  0  0  0  0  0  0  0  0  0  0  0
  188.1660  176.5100  145.5470 N   0  0  0  0  0  2  0  0  0  0  0  0
  187.7020  176.4410  144.1630 C   0  0  1  0  0  3  0  0  0  0  0  0
  191.8610  176.3050  146.3880 C   0  0  0  0  0  0  0  0  0  0  0  0
  190.2300  175.4760  144.9680 C   0  0  0  0  0  0  0  0  0  0  0  0
  188.1760  175.1880  143.5390 N   0  0  2  0  0  0  0  0  0  0  0  0
  186.6430  179.3360  143.3870 C   0  0  0  0  0  2  0  0  0  0  0  0
  185.5790  179.5200  144.4610 C   0  0  0  0  0  2  0  0  0  0  0  0
  186.1550  176.5380  144.1320 C   0  0  2  0  0  3  0  0  0  0  0  0
  185.9100  178.6120  145.6340 C   0  0  0  0  0  2  0  0  0  0  0  0
  185.5660  177.1630  142.8580 C   0  0  0  0  0  2  0  0  0  0  0  0
  185.5010  177.1640  145.3740 C   0  0  0  0  0  2  0  0  0  0  0  0
  186.2810  178.3480  142.3610 N   0  0  0  0  0  2  0  0  0  0  0  0
  194.2370  176.2080  146.0970 N   0  0  0  0  0  0  0  0  0  0  0  0
  194.6390  176.9110  145.0910 C   0  0  0  0  0  3  0  0  0  0  0  0
  195.8510  176.4970  144.3300 C   0  0  0  0  0  2  0  0  0  0  0  0
  194.6800  175.0950  142.6180 C   0  0  0  0  0  1  0  0  0  0  0  0
  195.6320  175.1980  143.7130 N   0  0  0  0  0  0  0  0  0  0  0  0
  196.2100  172.9350  143.5840 O   0  0  0  0  0  0  0  0  0  0  0  0
  197.3050  174.1650  145.1730 O   0  0  0  0  0  1  0  0  0  0  0  0
  196.3820  174.0530  144.1400 C   0  0  0  0  0  0  0  0  0  0  0  0
  1  8  1  0  0  0  0
  2 14  1  0  0  0  0
  3  8  1  1  0  0  0
  3 18  1  0  0  0  0
  4 10  1  0  0  0  0
  5  6  2  0  0  0  0
  6  2  1  0  0  0  0
  7 17  2  0  0  0  0
  8  2  2  0  0  0  0
 11  1  2  0  0  0  0
 11  5  1  0  0  0  0
 13  1  1  0  0  0  0
 13 12  1  0  0  0  0
 15  4  1  0  0  0  0
 16 15  1  1  0  0  0
 17  9  1  0  0  0  0
 17 10  1  0  0  0  0
 18  7  1  0  0  0  0
 18  4  2  0  0  0  0
 19 12  1  6  0  0  0
 19  3  1  0  0  0  0
 19 16  1  0  0  0  0
 20 21  1  0  0  0  0
 21 23  1  0  0  0  0
 22 24  1  6  0  0  0
 22 16  1  0  0  0  0
 22 25  1  0  0  0  0
 25 23  1  0  0  0  0
 26 24  1  0  0  0  0
 26 20  1  0  0  0  0
 27  9  1  0  0  0  0
 28 27  2  0  0  0  0
 29 28  1  0  0  0  0
 30 31  1  0  0  0  0
 31 34  1  0  0  0  0
 31 29  1  0  0  0  0
 32 34  2  0  0  0  0
 34 33  1  0  0  0  0
M  END
>  <MODEL>
4

>  <REMARK>
 VINA RESULT:      -7.6      1.437      1.575
  Name = 
  4 active torsions:
  status: ('A' for Active; 'I' for Inactive)
    1  A    between atoms: N_3  and  C_17
    2  A    between atoms: C_12  and  C_28
    3  A    between atoms: C_13  and  C_33
    4  A    between atoms: N_14  and  C_33
                            x       y       z     vdW  Elec       q    Type
                         _______ _______ _______ _____ _____    ______ ____

>  <TORSDO>
F 4

$$$$
=
 OpenBabel11052418473D

 34 38  0  0  1  0  0  0  0  0999 V2000
  191.6390  176.4160  146.0740 C   0  0  0  0  0  0  0  0  0  0  0  0
  192.1400  175.9920  143.7280 C   0  0  0  0  0  0  0  0  0  0  0  0
  189.6640  176.1490  144.5660 C   0  0  2  0  0  3  0  0  0  0  0  0
  188.1060  176.8090  142.7610 C   0  0  0  0  0  0  0  0  0  0  0  0
  193.9340  176.1480  145.3530 C   0  0  0  0  0  3  0  0  0  0  0  0
  193.5020  175.9630  144.0410 C   0  0  0  0  0  3  0  0  0  0  0  0
  189.4050  174.9670  142.2920 N   0  0  0  0  0  0  0  0  0  0  0  0
  191.1790  176.1890  144.7520 C   0  0  0  0  0  0  0  0  0  0  0  0
  188.5660  174.1260  140.1910 C   0  0  0  0  0  2  0  0  0  0  0  0
  187.4590  176.4500  141.1270 S   0  0  0  0  0  0  0  0  0  0  0  0
  193.0050  176.3880  146.3620 C   0  0  0  0  0  3  0  0  0  0  0  0
  189.2280  176.7420  146.7650 C   0  0  0  0  0  2  0  0  0  0  0  0
  190.6980  176.8230  147.1780 C   0  0  0  0  0  2  0  0  0  0  0  0
  191.8030  175.8780  142.4250 F   0  0  0  0  0  0  0  0  0  0  0  0
  187.4000  177.6110  143.6960 N   0  0  0  0  0  2  0  0  0  0  0  0
  187.6160  177.4070  145.1270 C   0  0  1  0  0  3  0  0  0  0  0  0
  188.5580  175.0410  141.1550 C   0  0  0  0  0  0  0  0  0  0  0  0
  189.1220  176.0600  143.1560 C   0  0  0  0  0  0  0  0  0  0  0  0
  189.0570  177.2170  145.3930 N   0  0  2  0  0  0  0  0  0  0  0  0
  184.8540  176.7900  146.5750 C   0  0  0  0  0  2  0  0  0  0  0  0
  184.0660  178.0290  146.1710 C   0  0  0  0  0  2  0  0  0  0  0  0
  187.0510  178.6210  145.9100 C   0  0  2  0  0  3  0  0  0  0  0  0
  184.6830  178.6070  144.9070 C   0  0  0  0  0  2  0  0  0  0  0  0
  186.6400  178.3250  147.3610 C   0  0  0  0  0  2  0  0  0  0  0  0
  185.9450  179.4160  145.2020 C   0  0  0  0  0  2  0  0  0  0  0  0
  185.9160  177.0590  147.5540 N   0  0  0  0  0  2  0  0  0  0  0  0
  189.4480  173.0100  140.2480 N   0  0  0  0  0  0  0  0  0  0  0  0
  189.4580  172.1450  139.2890 C   0  0  0  0  0  3  0  0  0  0  0  0
  190.3810  170.9780  139.3480 C   0  0  0  0  0  2  0  0  0  0  0  0
  191.5800  171.2010  137.1620 C   0  0  0  0  0  1  0  0  0  0  0  0
  191.6020  171.2710  138.6150 N   0  0  0  0  0  0  0  0  0  0  0  0
  193.8380  171.9560  138.6680 O   0  0  0  0  0  0  0  0  0  0  0  0
  192.7960  171.7600  140.6960 O   0  0  0  0  0  1  0  0  0  0  0  0
  192.7890  171.6760  139.3090 C   0  0  0  0  0  0  0  0  0  0  0  0
  1 11  1  0  0  0  0
  1 13  1  0  0  0  0
  2  6  2  0  0  0  0
  2  8  1  0  0  0  0
  3 18  1  6  0  0  0
  3  8  1  0  0  0  0
  3 19  1  0  0  0  0
  4 18  2  0  0  0  0
  4 15  1  0  0  0  0
  5 11  2  0  0  0  0
  6  5  1  0  0  0  0
  7 18  1  0  0  0  0
  8  1  2  0  0  0  0
  9 27  1  0  0  0  0
  9 17  1  0  0  0  0
 10 17  1  0  0  0  0
 10  4  1  0  0  0  0
 12 13  1  0  0  0  0
 14  2  1  0  0  0  0
 16 15  1  6  0  0  0
 16 19  1  0  0  0  0
 16 22  1  0  0  0  0
 17  7  2  0  0  0  0
 19 12  1  1  0  0  0
 20 26  1  0  0  0  0
 21 20  1  0  0  0  0
 22 25  1  6  0  0  0
 22 24  1  0  0  0  0
 23 25  1  0  0  0  0
 23 21  1  0  0  0  0
 24 26  1  0  0  0  0
 28 29  1  0  0  0  0
 28 27  2  0  0  0  0
 30 31  1  0  0  0  0
 31 34  1  0  0  0  0
 31 29  1  0  0  0  0
 32 34  2  0  0  0  0
 34 33  1  0  0  0  0
M  END
>  <MODEL>
5

>  <REMARK>
 VINA RESULT:      -7.5      2.917      5.433
  Name = 
  4 active torsions:
  status: ('A' for Active; 'I' for Inactive)
    1  A    between atoms: N_3  and  C_17
    2  A    between atoms: C_12  and  C_28
    3  A    between atoms: C_13  and  C_33
    4  A    between atoms: N_14  and  C_33
                            x       y       z     vdW  Elec       q    Type
                         _______ _______ _______ _____ _____    ______ ____

>  <TORSDO>
F 4

$$$$
=
 OpenBabel11052418473D

 34 38  0  0  1  0  0  0  0  0999 V2000
  192.1430  175.7950  146.4880 C   0  0  0  0  0  0  0  0  0  0  0  0
  190.1440  174.6590  145.6810 C   0  0  0  0  0  0  0  0  0  0  0  0
  192.0630  175.3350  144.0330 C   0  0  2  0  0  3  0  0  0  0  0  0
  192.1000  173.9140  142.0070 C   0  0  0  0  0  0  0  0  0  0  0  0
  190.3290  175.2980  148.0130 C   0  0  0  0  0  3  0  0  0  0  0  0
  189.6140  174.7080  146.9730 C   0  0  0  0  0  3  0  0  0  0  0  0
  190.0810  174.9330  142.4380 N   0  0  0  0  0  0  0  0  0  0  0  0
  191.4110  175.2340  145.4100 C   0  0  0  0  0  0  0  0  0  0  0  0
  188.7050  174.4340  140.5200 C   0  0  0  0  0  2  0  0  0  0  0  0
  191.1940  173.2920  140.5900 S   0  0  0  0  0  0  0  0  0  0  0  0
  191.5950  175.8260  147.7730 C   0  0  0  0  0  3  0  0  0  0  0  0
  194.0300  176.2400  144.8640 C   0  0  0  0  0  2  0  0  0  0  0  0
  193.5690  176.2480  146.3230 C   0  0  0  0  0  2  0  0  0  0  0  0
  189.4240  174.0060  144.7430 F   0  0  0  0  0  0  0  0  0  0  0  0
  193.5190  173.9260  142.0530 N   0  0  0  0  0  2  0  0  0  0  0  0
  194.2040  174.9220  142.8750 C   0  0  1  0  0  3  0  0  0  0  0  0
  189.8400  174.2910  141.1940 C   0  0  0  0  0  0  0  0  0  0  0  0
  191.3970  174.6220  142.8760 C   0  0  0  0  0  0  0  0  0  0  0  0
  193.5120  175.0600  144.1730 N   0  0  2  0  0  0  0  0  0  0  0  0
  196.1950  176.4150  140.8970 C   0  0  0  0  0  2  0  0  0  0  0  0
  197.0230  175.2290  140.4180 C   0  0  0  0  0  2  0  0  0  0  0  0
  195.6850  174.5020  143.0650 C   0  0  2  0  0  3  0  0  0  0  0  0
  196.2080  173.9600  140.6060 C   0  0  0  0  0  2  0  0  0  0  0  0
  196.6770  175.6650  143.2140 C   0  0  0  0  0  2  0  0  0  0  0  0
  196.2220  173.4770  142.0550 C   0  0  0  0  0  2  0  0  0  0  0  0
  196.4570  176.7910  142.2930 N   0  0  0  0  0  2  0  0  0  0  0  0
  187.6490  175.2450  141.0240 N   0  0  0  0  0  0  0  0  0  0  0  0
  187.4410  176.4180  140.5280 C   0  0  0  0  0  3  0  0  0  0  0  0
  186.3360  177.2650  141.0560 C   0  0  0  0  0  2  0  0  0  0  0  0
  188.1550  178.2900  142.4380 C   0  0  0  0  0  1  0  0  0  0  0  0
  186.7550  177.9230  142.2830 N   0  0  0  0  0  0  0  0  0  0  0  0
  186.1580  178.8510  144.3460 O   0  0  0  0  0  1  0  0  0  0  0  0
  184.4580  177.9200  143.1300 O   0  0  0  0  0  0  0  0  0  0  0  0
  185.7970  178.2550  143.2960 C   0  0  0  0  0  0  0  0  0  0  0  0
  1 11  1  0  0  0  0
  2  6  2  0  0  0  0
  3 18  1  6  0  0  0
  3 19  1  0  0  0  0
  3  8  1  0  0  0  0
  4 15  1  0  0  0  0
  4 18  2  0  0  0  0
  6  5  1  0  0  0  0
  7 18  1  0  0  0  0
  8  2  1  0  0  0  0
  8  1  2  0  0  0  0
  9 27  1  0  0  0  0
  9 17  1  0  0  0  0
 10 17  1  0  0  0  0
 10  4  1  0  0  0  0
 11  5  2  0  0  0  0
 12 13  1  0  0  0  0
 13  1  1  0  0  0  0
 14  2  1  0  0  0  0
 16 15  1  6  0  0  0
 16 22  1  0  0  0  0
 16 19  1  0  0  0  0
 17  7  2  0  0  0  0
 19 12  1  6  0  0  0
 20 26  1  0  0  0  0
 21 23  1  0  0  0  0
 21 20  1  0  0  0  0
 22 25  1  6  0  0  0
 22 24  1  0  0  0  0
 23 25  1  0  0  0  0
 26 24  1  0  0  0  0
 28 27  2  0  0  0  0
 28 29  1  0  0  0  0
 29 31  1  0  0  0  0
 31 30  1  0  0  0  0
 31 34  1  0  0  0  0
 33 34  2  0  0  0  0
 34 32  1  0  0  0  0
M  END
>  <MODEL>
6

>  <REMARK>
 VINA RESULT:      -7.3      3.448      8.468
  Name = 
  4 active torsions:
  status: ('A' for Active; 'I' for Inactive)
    1  A    between atoms: N_3  and  C_17
    2  A    between atoms: C_12  and  C_28
    3  A    between atoms: C_13  and  C_33
    4  A    between atoms: N_14  and  C_33
                            x       y       z     vdW  Elec       q    Type
                         _______ _______ _______ _____ _____    ______ ____

>  <TORSDO>
F 4

$$$$
=
 OpenBabel11052418473D

 34 38  0  0  1  0  0  0  0  0999 V2000
  192.2610  176.1170  146.6210 C   0  0  0  0  0  0  0  0  0  0  0  0
  192.7720  174.9980  144.5180 C   0  0  0  0  0  0  0  0  0  0  0  0
  190.2940  175.3410  145.2900 C   0  0  2  0  0  3  0  0  0  0  0  0
  188.7160  175.3650  143.3840 C   0  0  0  0  0  0  0  0  0  0  0  0
  194.5620  175.7000  145.9960 C   0  0  0  0  0  3  0  0  0  0  0  0
  194.1350  175.1050  144.8110 C   0  0  0  0  0  3  0  0  0  0  0  0
  190.0660  173.5040  143.4990 N   0  0  0  0  0  0  0  0  0  0  0  0
  191.8070  175.4780  145.4400 C   0  0  0  0  0  0  0  0  0  0  0  0
  189.2500  172.0300  141.7710 C   0  0  0  0  0  2  0  0  0  0  0  0
  188.0780  174.4990  141.9490 S   0  0  0  0  0  0  0  0  0  0  0  0
  193.6280  176.2170  146.8890 C   0  0  0  0  0  3  0  0  0  0  0  0
  189.8420  176.5770  147.2000 C   0  0  0  0  0  2  0  0  0  0  0  0
  191.3110  176.8220  147.5520 C   0  0  0  0  0  2  0  0  0  0  0  0
  192.4370  174.4750  143.3180 F   0  0  0  0  0  0  0  0  0  0  0  0
  187.9880  176.3990  144.0310 N   0  0  0  0  0  2  0  0  0  0  0  0
  188.2100  176.6560  145.4520 C   0  0  1  0  0  3  0  0  0  0  0  0
  189.2160  173.1980  142.4030 C   0  0  0  0  0  0  0  0  0  0  0  0
  189.7530  174.8030  143.9820 C   0  0  0  0  0  0  0  0  0  0  0  0
  189.6570  176.5960  145.7500 N   0  0  2  0  0  0  0  0  0  0  0  0
  185.2390  176.4750  146.5670 C   0  0  0  0  0  2  0  0  0  0  0  0
  184.5910  177.5940  145.7610 C   0  0  0  0  0  2  0  0  0  0  0  0
  187.6120  178.0370  145.8250 C   0  0  2  0  0  3  0  0  0  0  0  0
  185.4150  177.8290  144.5050 C   0  0  0  0  0  2  0  0  0  0  0  0
  186.9810  178.1170  147.2240 C   0  0  0  0  0  2  0  0  0  0  0  0
  186.6670  178.6570  144.7860 C   0  0  0  0  0  2  0  0  0  0  0  0
  186.1640  176.9540  147.6030 N   0  0  0  0  0  2  0  0  0  0  0  0
  190.1640  171.0100  142.1630 N   0  0  0  0  0  0  0  0  0  0  0  0
  191.2830  170.8710  141.5360 C   0  0  0  0  0  3  0  0  0  0  0  0
  192.2390  169.8050  141.9470 C   0  0  0  0  0  2  0  0  0  0  0  0
  194.5910  170.3210  141.2620 C   0  0  0  0  0  1  0  0  0  0  0  0
  193.5340  170.3900  142.2590 N   0  0  0  0  0  0  0  0  0  0  0  0
  194.8600  171.5990  143.7580 O   0  0  0  0  0  0  0  0  0  0  0  0
  192.7230  171.1480  144.4410 O   0  0  0  0  0  1  0  0  0  0  0  0
  193.7450  171.0690  143.5030 C   0  0  0  0  0  0  0  0  0  0  0  0
  1 11  1  0  0  0  0
  1 13  1  0  0  0  0
  2  6  2  0  0  0  0
  2  8  1  0  0  0  0
  3 18  1  6  0  0  0
  3  8  1  0  0  0  0
  3 19  1  0  0  0  0
  4 18  2  0  0  0  0
  4 15  1  0  0  0  0
  5 11  2  0  0  0  0
  6  5  1  0  0  0  0
  7 18  1  0  0  0  0
  8  1  2  0  0  0  0
  9 27  1  0  0  0  0
  9 17  1  0  0  0  0
 10 17  1  0  0  0  0
 10  4  1  0  0  0  0
 12 13  1  0  0  0  0
 14  2  1  0  0  0  0
 16 15  1  6  0  0  0
 16 19  1  0  0  0  0
 16 22  1  0  0  0  0
 17  7  2  0  0  0  0
 19 12  1  1  0  0  0
 20 26  1  0  0  0  0
 21 20  1  0  0  0  0
 22 25  1  6  0  0  0
 22 24  1  0  0  0  0
 23 25  1  0  0  0  0
 23 21  1  0  0  0  0
 24 26  1  0  0  0  0
 28 29  1  0  0  0  0
 28 27  2  0  0  0  0
 29 31  1  0  0  0  0
 30 31  1  0  0  0  0
 31 34  1  0  0  0  0
 34 32  2  0  0  0  0
 34 33  1  0  0  0  0
M  END
>  <MODEL>
7

>  <REMARK>
 VINA RESULT:      -7.3      2.863      5.088
  Name = 
  4 active torsions:
  status: ('A' for Active; 'I' for Inactive)
    1  A    between atoms: N_3  and  C_17
    2  A    between atoms: C_12  and  C_28
    3  A    between atoms: C_13  and  C_33
    4  A    between atoms: N_14  and  C_33
                            x       y       z     vdW  Elec       q    Type
                         _______ _______ _______ _____ _____    ______ ____

>  <TORSDO>
F 4

$$$$
=
 OpenBabel11052418473D

 34 38  0  0  1  0  0  0  0  0999 V2000
  192.6440  176.2040  146.0370 C   0  0  0  0  0  0  0  0  0  0  0  0
  190.2620  175.7210  145.8770 C   0  0  0  0  0  0  0  0  0  0  0  0
  191.7690  175.7740  143.7360 C   0  0  2  0  0  3  0  0  0  0  0  0
  190.8400  174.3950  141.9040 C   0  0  0  0  0  0  0  0  0  0  0  0
  191.2530  176.2890  148.0160 C   0  0  0  0  0  3  0  0  0  0  0  0
  190.1420  175.9360  147.2530 C   0  0  0  0  0  3  0  0  0  0  0  0
  189.4000  175.9790  142.7490 N   0  0  0  0  0  0  0  0  0  0  0  0
  191.5180  175.8840  145.2390 C   0  0  0  0  0  0  0  0  0  0  0  0
  187.4690  175.9070  141.3020 C   0  0  0  0  0  2  0  0  0  0  0  0
  189.4430  174.0670  140.8290 S   0  0  0  0  0  0  0  0  0  0  0  0
  192.5010  176.4080  147.4120 C   0  0  0  0  0  3  0  0  0  0  0  0
  194.0630  176.0480  143.9490 C   0  0  0  0  0  2  0  0  0  0  0  0
  194.0400  176.2050  145.4700 C   0  0  0  0  0  2  0  0  0  0  0  0
  189.1570  175.3100  145.2170 F   0  0  0  0  0  0  0  0  0  0  0  0
  192.1590  173.9780  141.5810 N   0  0  0  0  0  2  0  0  0  0  0  0
  193.2990  174.7260  142.1060 C   0  0  1  0  0  3  0  0  0  0  0  0
  188.6540  175.4320  141.6710 C   0  0  0  0  0  0  0  0  0  0  0  0
  190.6370  175.2880  142.8580 C   0  0  0  0  0  0  0  0  0  0  0  0
  193.0580  175.0750  143.5220 N   0  0  2  0  0  0  0  0  0  0  0  0
  194.8370  175.2910  139.3820 C   0  0  0  0  0  2  0  0  0  0  0  0
  195.1070  173.8600  138.9350 C   0  0  0  0  0  2  0  0  0  0  0  0
  194.5880  173.8790  141.9450 C   0  0  2  0  0  3  0  0  0  0  0  0
  194.0940  172.9430  139.6010 C   0  0  0  0  0  2  0  0  0  0  0  0
  195.8460  174.6750  141.5650 C   0  0  0  0  0  2  0  0  0  0  0  0
  194.4620  172.6360  141.0510 C   0  0  0  0  0  2  0  0  0  0  0  0
  195.6400  175.7090  140.5390 N   0  0  0  0  0  2  0  0  0  0  0  0
  186.8720  177.0020  141.9890 N   0  0  0  0  0  0  0  0  0  0  0  0
  185.9280  176.7910  142.8440 C   0  0  0  0  0  3  0  0  0  0  0  0
  185.3040  177.9370  143.5620 C   0  0  0  0  0  2  0  0  0  0  0  0
  186.5630  177.0110  145.5180 C   0  0  0  0  0  1  0  0  0  0  0  0
  185.4200  177.7470  144.9990 N   0  0  0  0  0  0  0  0  0  0  0  0
  184.5740  178.1790  147.1360 O   0  0  0  0  0  1  0  0  0  0  0  0
  183.3780  179.0410  145.3870 O   0  0  0  0  0  0  0  0  0  0  0  0
  184.4560  178.3210  145.8900 C   0  0  0  0  0  0  0  0  0  0  0  0
  1 11  1  0  0  0  0
  2  6  2  0  0  0  0
  3 18  1  6  0  0  0
  3  8  1  0  0  0  0
  4 18  2  0  0  0  0
  6  5  1  0  0  0  0
  7 18  1  0  0  0  0
  8  2  1  0  0  0  0
  8  1  2  0  0  0  0
  9 17  1  0  0  0  0
  9 27  1  0  0  0  0
 10 17  1  0  0  0  0
 10  4  1  0  0  0  0
 11  5  2  0  0  0  0
 12 13  1  0  0  0  0
 13  1  1  0  0  0  0
 14  2  1  0  0  0  0
 15  4  1  0  0  0  0
 16 15  1  1  0  0  0
 16 19  1  0  0  0  0
 17  7  2  0  0  0  0
 19  3  1  0  0  0  0
 19 12  1  6  0  0  0
 20 26  1  0  0  0  0
 21 20  1  0  0  0  0
 21 23  1  0  0  0  0
 22 25  1  6  0  0  0
 22 16  1  0  0  0  0
 23 25  1  0  0  0  0
 24 22  1  0  0  0  0
 26 24  1  0  0  0  0
 27 28  2  0  0  0  0
 28 29  1  0  0  0  0
 29 31  1  0  0  0  0
 31 30  1  0  0  0  0
 31 34  1  0  0  0  0
 33 34  2  0  0  0  0
 34 32  1  0  0  0  0
M  END
>  <MODEL>
8

>  <REMARK>
 VINA RESULT:      -7.2      3.897      8.626
  Name = 
  4 active torsions:
  status: ('A' for Active; 'I' for Inactive)
    1  A    between atoms: N_3  and  C_17
    2  A    between atoms: C_12  and  C_28
    3  A    between atoms: C_13  and  C_33
    4  A    between atoms: N_14  and  C_33
                            x       y       z     vdW  Elec       q    Type
                         _______ _______ _______ _____ _____    ______ ____

>  <TORSDO>
F 4

$$$$
=
 OpenBabel11052418473D

 34 38  0  0  1  0  0  0  0  0999 V2000
  188.6040  177.3390  144.1490 C   0  0  0  0  0  0  0  0  0  0  0  0
  187.5610  175.5860  142.8180 C   0  0  0  0  0  0  0  0  0  0  0  0
  190.1620  175.6850  143.1080 C   0  0  2  0  0  3  0  0  0  0  0  0
  191.2210  173.4680  142.8140 C   0  0  0  0  0  0  0  0  0  0  0  0
  186.2100  177.3470  143.7930 C   0  0  0  0  0  3  0  0  0  0  0  0
  186.3160  176.1820  143.0360 C   0  0  0  0  0  3  0  0  0  0  0  0
  189.8930  174.1460  141.0610 N   0  0  0  0  0  0  0  0  0  0  0  0
  188.7360  176.1770  143.3480 C   0  0  0  0  0  0  0  0  0  0  0  0
  190.2190  172.4800  139.3460 C   0  0  0  0  0  2  0  0  0  0  0  0
  191.4630  172.0470  141.7480 S   0  0  0  0  0  0  0  0  0  0  0  0
  187.3490  177.9140  144.3590 C   0  0  0  0  0  3  0  0  0  0  0  0
  191.1020  177.2520  144.5360 C   0  0  0  0  0  2  0  0  0  0  0  0
  189.7730  177.9140  144.9050 C   0  0  0  0  0  2  0  0  0  0  0  0
  187.5760  174.4190  142.1370 F   0  0  0  0  0  0  0  0  0  0  0  0
  192.1130  173.7800  143.8750 N   0  0  0  0  0  2  0  0  0  0  0  0
  192.2540  175.1670  144.3120 C   0  0  1  0  0  3  0  0  0  0  0  0
  190.4380  172.9270  140.5780 C   0  0  0  0  0  0  0  0  0  0  0  0
  190.3490  174.3670  142.3880 C   0  0  0  0  0  0  0  0  0  0  0  0
  190.9250  175.8100  144.3720 N   0  0  2  0  0  0  0  0  0  0  0  0
  195.3850  175.6720  144.1030 C   0  0  0  0  0  2  0  0  0  0  0  0
  195.8870  174.5950  145.0560 C   0  0  0  0  0  2  0  0  0  0  0  0
  192.9620  175.2020  145.6920 C   0  0  2  0  0  3  0  0  0  0  0  0
  194.8260  173.5110  145.1650 C   0  0  0  0  0  2  0  0  0  0  0  0
  193.8730  176.4160  145.9250 C   0  0  0  0  0  2  0  0  0  0  0  0
  193.6880  173.9130  146.1010 C   0  0  0  0  0  2  0  0  0  0  0  0
  194.7140  176.7910  144.7770 N   0  0  0  0  0  2  0  0  0  0  0  0
  189.4040  173.2100  138.4340 N   0  0  0  0  0  0  0  0  0  0  0  0
  189.8440  173.4860  137.2530 C   0  0  0  0  0  3  0  0  0  0  0  0
  188.9910  174.2490  136.3000 C   0  0  0  0  0  2  0  0  0  0  0  0
  191.2130  175.1290  135.5550 C   0  0  0  0  0  1  0  0  0  0  0  0
  189.7710  175.2950  135.6590 N   0  0  0  0  0  0  0  0  0  0  0  0
  189.8020  177.3340  134.5130 O   0  0  0  0  0  0  0  0  0  0  0  0
  187.7460  176.5830  135.1780 O   0  0  0  0  0  1  0  0  0  0  0  0
  189.1250  176.4420  135.0920 C   0  0  0  0  0  0  0  0  0  0  0  0
  1 11  1  0  0  0  0
  1 13  1  0  0  0  0
  2  6  2  0  0  0  0
  2  8  1  0  0  0  0
  3 18  1  1  0  0  0
  3  8  1  0  0  0  0
  3 19  1  0  0  0  0
  4 15  1  0  0  0  0
  5 11  2  0  0  0  0
  6  5  1  0  0  0  0
  7 18  1  0  0  0  0
  8  1  2  0  0  0  0
  9 17  1  0  0  0  0
 10  4  1  0  0  0  0
 12 13  1  0  0  0  0
 14  2  1  0  0  0  0
 16 15  1  1  0  0  0
 16 19  1  0  0  0  0
 16 22  1  0  0  0  0
 17  7  2  0  0  0  0
 17 10  1  0  0  0  0
 18  4  2  0  0  0  0
 19 12  1  6  0  0  0
 20 26  1  0  0  0  0
 20 21  1  0  0  0  0
 21 23  1  0  0  0  0
 22 24  1  6  0  0  0
 22 25  1  0  0  0  0
 23 25  1  0  0  0  0
 26 24  1  0  0  0  0
 27  9  1  0  0  0  0
 28 27  2  0  0  0  0
 29 28  1  0  0  0  0
 30 31  1  0  0  0  0
 31 29  1  0  0  0  0
 32 34  2  0  0  0  0
 34 33  1  0  0  0  0
 34 31  1  0  0  0  0
M  END
>  <MODEL>
9

>  <REMARK>
 VINA RESULT:      -7.1      3.812      7.635
  Name = 
  4 active torsions:
  status: ('A' for Active; 'I' for Inactive)
    1  A    between atoms: N_3  and  C_17
    2  A    between atoms: C_12  and  C_28
    3  A    between atoms: C_13  and  C_33
    4  A    between atoms: N_14  and  C_33
                            x       y       z     vdW  Elec       q    Type
                         _______ _______ _______ _____ _____    ______ ____

>  <TORSDO>
F 4

$$$$
