=
 OpenBabel11052420093D

 37 38  0  0  1  0  0  0  0  0999 V2000
  190.6270  174.7230  145.6270 C   0  0  0  0  0  0  0  0  0  0  0  0
  189.4490  172.7870  143.4380 C   0  0  0  0  0  2  0  0  0  0  0  0
  190.1080  175.1090  144.2700 C   0  0  1  0  0  3  0  0  0  0  0  0
  192.0170  174.1470  145.7320 C   0  0  1  0  0  3  0  0  0  0  0  0
  190.3460  174.0000  143.2340 C   0  0  1  0  0  3  0  0  0  0  0  0
  192.7120  174.0700  144.3550 C   0  0  2  0  0  3  0  0  0  0  0  0
  191.3980  172.7780  140.5240 S   0  0  0  0  0  0  0  0  0  0  0  0
  189.2320  172.0180  142.1350 C   0  0  0  0  0  2  0  0  0  0  0  0
  189.9280  174.8330  146.6230 O   0  0  0  0  0  0  0  0  0  0  0  0
  191.7980  173.5020  143.2400 C   0  0  2  0  0  3  0  0  0  0  0  0
  190.5110  171.4850  141.4780 C   0  0  2  0  0  3  0  0  0  0  0  0
  192.4270  173.5550  141.8430 C   0  0  2  0  0  3  0  0  0  0  0  0
  191.3410  170.8150  142.3800 O   0  0  0  0  0  0  0  0  0  0  0  0
  191.0160  169.5460  142.2510 O   0  0  0  0  0  1  0  0  0  0  0  0
  193.9830  173.2730  144.4500 C   0  0  0  0  0  0  0  0  0  0  0  0
  193.9330  172.1020  144.7950 O   0  0  0  0  0  0  0  0  0  0  0  0
  195.3070  173.9040  144.1470 C   0  0  0  0  0  2  0  0  0  0  0  0
  196.2190  173.7460  145.2830 C   0  0  0  0  0  0  0  0  0  0  0  0
  196.9710  173.6150  146.2170 C   0  0  0  0  0  3  0  0  0  0  0  0
  188.1470  175.8500  142.8210 C   0  0  0  0  0  1  0  0  0  0  0  0
  188.7390  175.8150  144.2200 C   0  0  2  0  0  3  0  0  0  0  0  0
  188.8290  177.2320  144.7700 C   0  0  0  0  0  2  0  0  0  0  0  0
  187.5000  177.9530  144.6200 C   0  0  0  0  0  2  0  0  0  0  0  0
  185.9360  176.5410  145.7010 F   0  0  0  0  0  0  0  0  0  0  0  0
  186.6410  177.7240  145.8470 C   0  0  2  0  0  3  0  0  0  0  0  0
  185.6740  178.8860  145.9990 C   0  0  0  0  0  2  0  0  0  0  0  0
  184.2780  178.5070  145.5260 C   0  0  0  0  0  2  0  0  0  0  0  0
  184.2480  178.0060  143.1900 O   0  0  0  0  0  1  0  0  0  0  0  0
  184.0130  179.0200  144.1190 C   0  0  0  0  0  2  0  0  0  0  0  0
  192.7530  174.9950  141.4520 C   0  0  0  0  0  2  0  0  0  0  0  0
  194.0860  175.1070  140.7230 C   0  0  0  0  0  0  0  0  0  0  0  0
  193.8830  175.2970  139.3690 F   0  0  0  0  0  0  0  0  0  0  0  0
  194.8360  173.9630  140.9220 F   0  0  0  0  0  0  0  0  0  0  0  0
  194.8460  176.2950  141.2760 C   0  0  0  0  0  1  0  0  0  0  0  0
  192.8630  174.9840  146.6850 C   0  0  0  0  0  2  0  0  0  0  0  0
  193.2040  176.2930  146.0590 C   0  0  0  0  0  3  0  0  0  0  0  0
  194.2750  176.9650  146.4670 C   0  0  0  0  0  2  0  0  0  0  0  0
  1  4  1  0  0  0  0
  1  9  2  0  0  0  0
  3 21  1  1  0  0  0
  3  1  1  0  0  0  0
  4 35  1  1  0  0  0
  5 10  1  0  0  0  0
  5  2  1  1  0  0  0
  5  3  1  0  0  0  0
  6 15  1  1  0  0  0
  6  4  1  0  0  0  0
  7 11  1  0  0  0  0
  7 12  1  0  0  0  0
  8  2  1  0  0  0  0
 10  6  1  0  0  0  0
 11  8  1  0  0  0  0
 11 13  1  0  0  0  0
 12 10  1  0  0  0  0
 14 13  1  0  0  0  0
 15 16  2  0  0  0  0
 17 15  1  0  0  0  0
 17 18  1  0  0  0  0
 18 19  3  0  0  0  0
 20 21  1  0  0  0  0
 21 22  1  0  0  0  0
 23 22  1  0  0  0  0
 23 25  1  0  0  0  0
 24 25  1  0  0  0  0
 25 26  1  0  0  0  0
 27 26  1  0  0  0  0
 28 29  1  0  0  0  0
 29 27  1  0  0  0  0
 30 12  1  0  0  0  0
 31 33  1  0  0  0  0
 31 34  1  0  0  0  0
 31 30  1  0  0  0  0
 32 31  1  0  0  0  0
 36 37  2  0  0  0  0
 36 35  1  0  0  0  0
M  END
>  <MODEL>
1

>  <REMARK>
 VINA RESULT:      -5.9      0.000      0.000
  Name = 
  15 active torsions:
  status: ('A' for Active; 'I' for Inactive)
    1  A    between atoms: C_1  and  C_5
    2  A    between atoms: C_1  and  C_36
    3  A    between atoms: C_2  and  C_18
    4  A    between atoms: C_2  and  C_35
    5  A    between atoms: C_3  and  C_32
    6  A    between atoms: C_6  and  C_31
    7  A    between atoms: C_6  and  C_35
    8  A    between atoms: C_9  and  C_13
    9  A    between atoms: C_9  and  C_16
   10  A    between atoms: C_10  and  C_37
   11  A    between atoms: O_11  and  C_33
   12  A    between atoms: C_18  and  C_19
   13  A    between atoms: C_20  and  C_21
   14  A    between atoms: C_21  and  C_32
   15  A    between atoms: C_31  and  C_37
                            x       y       z     vdW  Elec       q    Type
                         _______ _______ _______ _____ _____    ______ ____

>  <TORSDO>
F 15

$$$$
=
 OpenBabel11052420093D

 37 38  0  0  1  0  0  0  0  0999 V2000
  190.2880  176.1620  144.0490 C   0  0  0  0  0  0  0  0  0  0  0  0
  193.0980  176.7920  145.3270 C   0  0  0  0  0  2  0  0  0  0  0  0
  190.8580  175.5670  145.3060 C   0  0  1  0  0  3  0  0  0  0  0  0
  190.7470  175.6180  142.7190 C   0  0  1  0  0  3  0  0  0  0  0  0
  192.3890  175.4490  145.2350 C   0  0  1  0  0  3  0  0  0  0  0  0
  191.7620  174.4670  142.8890 C   0  0  2  0  0  3  0  0  0  0  0  0
  195.1640  173.9600  145.3860 S   0  0  0  0  0  0  0  0  0  0  0  0
  194.5180  176.6460  145.8740 C   0  0  0  0  0  2  0  0  0  0  0  0
  189.4990  177.0940  144.0950 O   0  0  0  0  0  0  0  0  0  0  0  0
  192.8580  174.7690  143.9400 C   0  0  2  0  0  3  0  0  0  0  0  0
  195.4400  175.7430  145.0450 C   0  0  2  0  0  3  0  0  0  0  0  0
  193.7850  173.5810  144.2220 C   0  0  2  0  0  3  0  0  0  0  0  0
  195.4040  176.0430  143.6810 O   0  0  0  0  0  0  0  0  0  0  0  0
  196.5080  176.7260  143.4620 O   0  0  0  0  0  1  0  0  0  0  0  0
  192.3850  174.1140  141.5670 C   0  0  0  0  0  0  0  0  0  0  0  0
  193.0740  174.9400  140.9890 O   0  0  0  0  0  0  0  0  0  0  0  0
  192.1520  172.7720  140.9450 C   0  0  0  0  0  2  0  0  0  0  0  0
  191.3730  172.9090  139.7120 C   0  0  0  0  0  0  0  0  0  0  0  0
  190.7310  173.0200  138.6970 C   0  0  0  0  0  3  0  0  0  0  0  0
  191.0430  175.5520  147.8480 C   0  0  0  0  0  1  0  0  0  0  0  0
  190.2670  176.0570  146.6420 C   0  0  2  0  0  3  0  0  0  0  0  0
  188.8030  175.6590  146.7760 C   0  0  0  0  0  2  0  0  0  0  0  0
  187.9560  176.8520  147.1840 C   0  0  0  0  0  2  0  0  0  0  0  0
  186.7080  176.3960  145.2230 F   0  0  0  0  0  0  0  0  0  0  0  0
  186.5810  176.7560  146.5540 C   0  0  2  0  0  3  0  0  0  0  0  0
  185.8900  178.1050  146.6610 C   0  0  0  0  0  2  0  0  0  0  0  0
  184.4060  177.9900  146.3410 C   0  0  0  0  0  2  0  0  0  0  0  0
  184.3910  178.2390  143.9650 O   0  0  0  0  0  1  0  0  0  0  0  0
  184.0270  178.8660  145.1570 C   0  0  0  0  0  2  0  0  0  0  0  0
  192.9890  172.3880  144.7490 C   0  0  0  0  0  2  0  0  0  0  0  0
  193.3940  171.0820  144.0780 C   0  0  0  0  0  0  0  0  0  0  0  0
  194.2540  171.3260  143.0240 F   0  0  0  0  0  0  0  0  0  0  0  0
  192.2740  170.4170  143.6160 F   0  0  0  0  0  0  0  0  0  0  0  0
  194.1000  170.2100  145.0950 C   0  0  0  0  0  1  0  0  0  0  0  0
  189.5510  175.1300  141.9090 C   0  0  0  0  0  2  0  0  0  0  0  0
  188.8260  174.0600  142.6520 C   0  0  0  0  0  3  0  0  0  0  0  0
  188.4880  172.9340  142.0320 C   0  0  0  0  0  2  0  0  0  0  0  0
  1  9  2  0  0  0  0
  1  3  1  0  0  0  0
  2  8  1  0  0  0  0
  3 21  1  1  0  0  0
  4 35  1  1  0  0  0
  4  6  1  0  0  0  0
  4  1  1  0  0  0  0
  5  3  1  0  0  0  0
  5  2  1  6  0  0  0
  6 15  1  6  0  0  0
  6 10  1  0  0  0  0
 10 12  1  0  0  0  0
 10  5  1  0  0  0  0
 11  7  1  0  0  0  0
 11  8  1  0  0  0  0
 12 30  1  0  0  0  0
 12  7  1  0  0  0  0
 13 11  1  0  0  0  0
 14 13  1  0  0  0  0
 16 15  2  0  0  0  0
 17 15  1  0  0  0  0
 18 17  1  0  0  0  0
 19 18  3  0  0  0  0
 21 22  1  0  0  0  0
 21 20  1  0  0  0  0
 22 23  1  0  0  0  0
 24 25  1  0  0  0  0
 25 26  1  0  0  0  0
 25 23  1  0  0  0  0
 27 26  1  0  0  0  0
 28 29  1  0  0  0  0
 29 27  1  0  0  0  0
 31 30  1  0  0  0  0
 31 34  1  0  0  0  0
 32 31  1  0  0  0  0
 33 31  1  0  0  0  0
 35 36  1  0  0  0  0
 37 36  2  0  0  0  0
M  END
>  <MODEL>
2

>  <REMARK>
 VINA RESULT:      -5.8      2.557      5.033
  Name = 
  15 active torsions:
  status: ('A' for Active; 'I' for Inactive)
    1  A    between atoms: C_1  and  C_5
    2  A    between atoms: C_1  and  C_36
    3  A    between atoms: C_2  and  C_18
    4  A    between atoms: C_2  and  C_35
    5  A    between atoms: C_3  and  C_32
    6  A    between atoms: C_6  and  C_31
    7  A    between atoms: C_6  and  C_35
    8  A    between atoms: C_9  and  C_13
    9  A    between atoms: C_9  and  C_16
   10  A    between atoms: C_10  and  C_37
   11  A    between atoms: O_11  and  C_33
   12  A    between atoms: C_18  and  C_19
   13  A    between atoms: C_20  and  C_21
   14  A    between atoms: C_21  and  C_32
   15  A    between atoms: C_31  and  C_37
                            x       y       z     vdW  Elec       q    Type
                         _______ _______ _______ _____ _____    ______ ____

>  <TORSDO>
F 15

$$$$
=
 OpenBabel11052420093D

 37 38  0  0  1  0  0  0  0  0999 V2000
  190.4310  175.7160  143.8950 C   0  0  0  0  0  0  0  0  0  0  0  0
  193.0700  177.0420  144.9930 C   0  0  0  0  0  2  0  0  0  0  0  0
  191.0490  175.5030  145.2490 C   0  0  1  0  0  3  0  0  0  0  0  0
  191.0070  174.9780  142.7130 C   0  0  1  0  0  3  0  0  0  0  0  0
  192.5800  175.6160  145.1980 C   0  0  1  0  0  3  0  0  0  0  0  0
  192.1840  174.0660  143.1240 C   0  0  2  0  0  3  0  0  0  0  0  0
  195.5470  174.6520  145.6550 S   0  0  0  0  0  0  0  0  0  0  0  0
  194.4790  177.2430  145.5510 C   0  0  0  0  0  2  0  0  0  0  0  0
  189.5050  176.5000  143.7420 O   0  0  0  0  0  0  0  0  0  0  0  0
  193.1880  174.7570  144.0790 C   0  0  2  0  0  3  0  0  0  0  0  0
  195.5540  176.3400  144.9340 C   0  0  2  0  0  3  0  0  0  0  0  0
  194.2790  173.8190  144.6080 C   0  0  2  0  0  3  0  0  0  0  0  0
  195.5120  176.3300  143.5370 O   0  0  0  0  0  0  0  0  0  0  0  0
  196.6020  176.9690  143.1680 O   0  0  0  0  0  1  0  0  0  0  0  0
  192.8920  173.5390  141.9070 C   0  0  0  0  0  0  0  0  0  0  0  0
  192.8550  172.3430  141.6620 O   0  0  0  0  0  0  0  0  0  0  0  0
  193.6560  174.4610  141.0070 C   0  0  0  0  0  2  0  0  0  0  0  0
  195.0690  174.0750  140.9630 C   0  0  0  0  0  0  0  0  0  0  0  0
  196.2310  173.7570  140.9290 C   0  0  0  0  0  3  0  0  0  0  0  0
  191.3180  176.5420  147.5610 C   0  0  0  0  0  1  0  0  0  0  0  0
  190.3490  176.1700  146.4490 C   0  0  2  0  0  3  0  0  0  0  0  0
  189.2490  175.2790  147.0100 C   0  0  0  0  0  2  0  0  0  0  0  0
  187.8860  175.9210  146.8150 C   0  0  0  0  0  2  0  0  0  0  0  0
  187.9180  178.1120  147.7150 F   0  0  0  0  0  0  0  0  0  0  0  0
  188.0410  177.4010  146.5330 C   0  0  2  0  0  3  0  0  0  0  0  0
  186.9630  177.8360  145.5540 C   0  0  0  0  0  2  0  0  0  0  0  0
  185.7130  176.9780  145.6960 C   0  0  0  0  0  2  0  0  0  0  0  0
  184.6500  179.0780  146.1070 O   0  0  0  0  0  1  0  0  0  0  0  0
  184.6120  177.7220  146.4350 C   0  0  0  0  0  2  0  0  0  0  0  0
  193.6630  172.6560  145.3850 C   0  0  0  0  0  2  0  0  0  0  0  0
  194.0650  171.3020  144.8150 C   0  0  0  0  0  0  0  0  0  0  0  0
  194.9670  171.4620  143.7810 F   0  0  0  0  0  0  0  0  0  0  0  0
  192.9480  170.6290  144.3540 F   0  0  0  0  0  0  0  0  0  0  0  0
  194.7150  170.4850  145.9110 C   0  0  0  0  0  1  0  0  0  0  0  0
  189.9270  174.1450  142.0340 C   0  0  0  0  0  2  0  0  0  0  0  0
  189.3590  173.1550  142.9940 C   0  0  0  0  0  3  0  0  0  0  0  0
  189.3910  171.8580  142.7050 C   0  0  0  0  0  2  0  0  0  0  0  0
  1  3  1  0  0  0  0
  2  8  1  0  0  0  0
  3 21  1  1  0  0  0
  4 35  1  1  0  0  0
  4  6  1  0  0  0  0
  4  1  1  0  0  0  0
  5  2  1  6  0  0  0
  5  3  1  0  0  0  0
  6 15  1  6  0  0  0
  6 10  1  0  0  0  0
  9  1  2  0  0  0  0
 10 12  1  0  0  0  0
 10  5  1  0  0  0  0
 11  8  1  0  0  0  0
 11  7  1  0  0  0  0
 12 30  1  0  0  0  0
 12  7  1  0  0  0  0
 13 11  1  0  0  0  0
 14 13  1  0  0  0  0
 16 15  2  0  0  0  0
 17 15  1  0  0  0  0
 18 17  1  0  0  0  0
 19 18  3  0  0  0  0
 21 22  1  0  0  0  0
 21 20  1  0  0  0  0
 23 22  1  0  0  0  0
 25 23  1  0  0  0  0
 25 24  1  0  0  0  0
 26 27  1  0  0  0  0
 26 25  1  0  0  0  0
 27 29  1  0  0  0  0
 28 29  1  0  0  0  0
 31 30  1  0  0  0  0
 31 34  1  0  0  0  0
 32 31  1  0  0  0  0
 33 31  1  0  0  0  0
 35 36  1  0  0  0  0
 37 36  2  0  0  0  0
M  END
>  <MODEL>
3

>  <REMARK>
 VINA RESULT:      -5.8      2.574      4.868
  Name = 
  15 active torsions:
  status: ('A' for Active; 'I' for Inactive)
    1  A    between atoms: C_1  and  C_5
    2  A    between atoms: C_1  and  C_36
    3  A    between atoms: C_2  and  C_18
    4  A    between atoms: C_2  and  C_35
    5  A    between atoms: C_3  and  C_32
    6  A    between atoms: C_6  and  C_31
    7  A    between atoms: C_6  and  C_35
    8  A    between atoms: C_9  and  C_13
    9  A    between atoms: C_9  and  C_16
   10  A    between atoms: C_10  and  C_37
   11  A    between atoms: O_11  and  C_33
   12  A    between atoms: C_18  and  C_19
   13  A    between atoms: C_20  and  C_21
   14  A    between atoms: C_21  and  C_32
   15  A    between atoms: C_31  and  C_37
                            x       y       z     vdW  Elec       q    Type
                         _______ _______ _______ _____ _____    ______ ____

>  <TORSDO>
F 15

$$$$
=
 OpenBabel11052420093D

 37 38  0  0  1  0  0  0  0  0999 V2000
  189.7850  175.9000  144.7310 C   0  0  0  0  0  0  0  0  0  0  0  0
  189.3810  173.1830  143.1870 C   0  0  0  0  0  2  0  0  0  0  0  0
  189.7400  175.7100  143.2400 C   0  0  1  0  0  3  0  0  0  0  0  0
  191.0620  175.5710  145.4640 C   0  0  1  0  0  3  0  0  0  0  0  0
  190.3000  174.3410  142.8250 C   0  0  1  0  0  3  0  0  0  0  0  0
  192.1690  175.0910  144.5000 C   0  0  2  0  0  3  0  0  0  0  0  0
  192.1770  172.3690  141.2360 S   0  0  0  0  0  0  0  0  0  0  0  0
  189.6000  171.9790  142.2710 C   0  0  0  0  0  2  0  0  0  0  0  0
  188.7980  176.2740  145.3480 O   0  0  0  0  0  0  0  0  0  0  0  0
  191.6690  174.0570  143.4610 C   0  0  2  0  0  3  0  0  0  0  0  0
  191.0220  171.4050  142.2870 C   0  0  2  0  0  3  0  0  0  0  0  0
  192.7200  173.6820  142.4100 C   0  0  2  0  0  3  0  0  0  0  0  0
  191.5080  171.2060  143.5820 O   0  0  0  0  0  0  0  0  0  0  0  0
  192.4120  170.2570  143.4550 O   0  0  0  0  0  1  0  0  0  0  0  0
  193.3360  174.5400  145.2710 C   0  0  0  0  0  0  0  0  0  0  0  0
  193.2640  173.4170  145.7470 O   0  0  0  0  0  0  0  0  0  0  0  0
  194.5730  175.3580  145.4770 C   0  0  0  0  0  2  0  0  0  0  0  0
  195.7210  174.4880  145.7440 C   0  0  0  0  0  0  0  0  0  0  0  0
  196.6670  173.7730  145.9620 C   0  0  0  0  0  3  0  0  0  0  0  0
  188.2330  175.4510  141.2020 C   0  0  0  0  0  1  0  0  0  0  0  0
  188.4650  176.1820  142.5140 C   0  0  2  0  0  3  0  0  0  0  0  0
  188.4980  177.6830  142.2610 C   0  0  0  0  0  2  0  0  0  0  0  0
  187.0900  178.2360  142.1220 C   0  0  0  0  0  2  0  0  0  0  0  0
  185.2410  177.0000  142.9350 F   0  0  0  0  0  0  0  0  0  0  0  0
  186.2570  177.8540  143.3290 C   0  0  2  0  0  3  0  0  0  0  0  0
  185.6670  179.1120  143.9430 C   0  0  0  0  0  2  0  0  0  0  0  0
  184.2300  178.8840  144.3910 C   0  0  0  0  0  2  0  0  0  0  0  0
  185.3190  179.1720  146.4990 O   0  0  0  0  0  1  0  0  0  0  0  0
  184.1410  178.7230  145.9010 C   0  0  0  0  0  2  0  0  0  0  0  0
  193.1620  174.9150  141.6240 C   0  0  0  0  0  2  0  0  0  0  0  0
  194.6620  175.1590  141.7270 C   0  0  0  0  0  0  0  0  0  0  0  0
  195.2750  174.1240  142.4090 F   0  0  0  0  0  0  0  0  0  0  0  0
  194.9070  176.3530  142.3820 F   0  0  0  0  0  0  0  0  0  0  0  0
  195.2410  175.2360  140.3300 C   0  0  0  0  0  1  0  0  0  0  0  0
  191.5520  176.7890  146.2400 C   0  0  0  0  0  2  0  0  0  0  0  0
  191.5330  176.5090  147.7040 C   0  0  0  0  0  3  0  0  0  0  0  0
  191.1360  175.3210  148.1480 C   0  0  0  0  0  2  0  0  0  0  0  0
  1  9  2  0  0  0  0
  1  4  1  0  0  0  0
  3 21  1  1  0  0  0
  3  1  1  0  0  0  0
  4 35  1  6  0  0  0
  5  2  1  1  0  0  0
  5  3  1  0  0  0  0
  5 10  1  0  0  0  0
  6 15  1  1  0  0  0
  6  4  1  0  0  0  0
  7 11  1  0  0  0  0
  7 12  1  0  0  0  0
  8 11  1  0  0  0  0
  8  2  1  0  0  0  0
 10  6  1  0  0  0  0
 11 13  1  0  0  0  0
 12 10  1  0  0  0  0
 14 13  1  0  0  0  0
 15 17  1  0  0  0  0
 15 16  2  0  0  0  0
 17 18  1  0  0  0  0
 18 19  3  0  0  0  0
 20 21  1  0  0  0  0
 22 21  1  0  0  0  0
 23 22  1  0  0  0  0
 23 25  1  0  0  0  0
 24 25  1  0  0  0  0
 25 26  1  0  0  0  0
 26 27  1  0  0  0  0
 27 29  1  0  0  0  0
 29 28  1  0  0  0  0
 30 31  1  0  0  0  0
 30 12  1  0  0  0  0
 31 33  1  0  0  0  0
 31 32  1  0  0  0  0
 34 31  1  0  0  0  0
 35 36  1  0  0  0  0
 36 37  2  0  0  0  0
M  END
>  <MODEL>
4

>  <REMARK>
 VINA RESULT:      -5.7      1.600      1.952
  Name = 
  15 active torsions:
  status: ('A' for Active; 'I' for Inactive)
    1  A    between atoms: C_1  and  C_5
    2  A    between atoms: C_1  and  C_36
    3  A    between atoms: C_2  and  C_18
    4  A    between atoms: C_2  and  C_35
    5  A    between atoms: C_3  and  C_32
    6  A    between atoms: C_6  and  C_31
    7  A    between atoms: C_6  and  C_35
    8  A    between atoms: C_9  and  C_13
    9  A    between atoms: C_9  and  C_16
   10  A    between atoms: C_10  and  C_37
   11  A    between atoms: O_11  and  C_33
   12  A    between atoms: C_18  and  C_19
   13  A    between atoms: C_20  and  C_21
   14  A    between atoms: C_21  and  C_32
   15  A    between atoms: C_31  and  C_37
                            x       y       z     vdW  Elec       q    Type
                         _______ _______ _______ _____ _____    ______ ____

>  <TORSDO>
F 15

$$$$
=
 OpenBabel11052420093D

 37 38  0  0  1  0  0  0  0  0999 V2000
  189.9470  175.0350  145.6810 C   0  0  0  0  0  0  0  0  0  0  0  0
  189.4150  173.4180  143.0290 C   0  0  0  0  0  2  0  0  0  0  0  0
  189.8330  175.5980  144.2910 C   0  0  1  0  0  3  0  0  0  0  0  0
  191.2460  174.3920  146.0960 C   0  0  1  0  0  3  0  0  0  0  0  0
  190.3430  174.6070  143.2330 C   0  0  1  0  0  3  0  0  0  0  0  0
  192.2990  174.4450  144.9680 C   0  0  2  0  0  3  0  0  0  0  0  0
  192.1050  173.6650  140.7940 S   0  0  0  0  0  0  0  0  0  0  0  0
  189.5660  172.8160  141.6320 C   0  0  0  0  0  2  0  0  0  0  0  0
  188.9960  175.0580  146.4490 O   0  0  0  0  0  0  0  0  0  0  0  0
  191.7310  174.0500  143.5820 C   0  0  2  0  0  3  0  0  0  0  0  0
  190.9740  172.3090  141.2960 C   0  0  2  0  0  3  0  0  0  0  0  0
  192.7270  174.2380  142.4330 C   0  0  2  0  0  3  0  0  0  0  0  0
  191.5110  171.5030  142.3040 O   0  0  0  0  0  0  0  0  0  0  0  0
  190.9130  170.3400  142.1540 O   0  0  0  0  0  1  0  0  0  0  0  0
  193.4850  173.5890  145.3140 C   0  0  0  0  0  0  0  0  0  0  0  0
  193.3440  172.3790  145.4090 O   0  0  0  0  0  0  0  0  0  0  0  0
  194.8280  174.2040  145.5610 C   0  0  0  0  0  2  0  0  0  0  0  0
  194.7200  175.6650  145.6040 C   0  0  0  0  0  0  0  0  0  0  0  0
  194.6300  176.8660  145.6420 C   0  0  0  0  0  3  0  0  0  0  0  0
  188.3770  176.6070  142.4590 C   0  0  0  0  0  1  0  0  0  0  0  0
  188.5390  176.3630  143.9510 C   0  0  2  0  0  3  0  0  0  0  0  0
  188.4720  177.6900  144.6940 C   0  0  0  0  0  2  0  0  0  0  0  0
  187.1520  177.8260  145.4340 C   0  0  0  0  0  2  0  0  0  0  0  0
  186.0020  179.8940  145.3300 F   0  0  0  0  0  0  0  0  0  0  0  0
  186.2010  178.7060  144.6480 C   0  0  2  0  0  3  0  0  0  0  0  0
  184.8780  177.9800  144.4780 C   0  0  0  0  0  2  0  0  0  0  0  0
  184.2350  178.3120  143.1390 C   0  0  0  0  0  2  0  0  0  0  0  0
  185.3090  178.5720  141.0200 O   0  0  0  0  0  1  0  0  0  0  0  0
  184.9630  177.6310  141.9910 C   0  0  0  0  0  2  0  0  0  0  0  0
  193.1630  175.6980  142.3280 C   0  0  0  0  0  2  0  0  0  0  0  0
  194.5780  175.8410  141.7800 C   0  0  0  0  0  0  0  0  0  0  0  0
  195.2580  176.8390  142.4530 F   0  0  0  0  0  0  0  0  0  0  0  0
  194.5380  176.1390  140.4310 F   0  0  0  0  0  0  0  0  0  0  0  0
  195.3110  174.5310  141.9740 C   0  0  0  0  0  1  0  0  0  0  0  0
  191.7970  175.0750  147.3430 C   0  0  0  0  0  2  0  0  0  0  0  0
  191.4980  176.5350  147.3050 C   0  0  0  0  0  3  0  0  0  0  0  0
  191.3590  177.2130  148.4400 C   0  0  0  0  0  2  0  0  0  0  0  0
  1  4  1  0  0  0  0
  1  9  2  0  0  0  0
  3 21  1  6  0  0  0
  3  1  1  0  0  0  0
  4 35  1  1  0  0  0
  5  2  1  1  0  0  0
  5 10  1  0  0  0  0
  5  3  1  0  0  0  0
  6 15  1  1  0  0  0
  6  4  1  0  0  0  0
  7 11  1  0  0  0  0
  7 12  1  0  0  0  0
  8  2  1  0  0  0  0
 10  6  1  0  0  0  0
 11  8  1  0  0  0  0
 11 13  1  0  0  0  0
 12 10  1  0  0  0  0
 14 13  1  0  0  0  0
 15 16  2  0  0  0  0
 15 17  1  0  0  0  0
 17 18  1  0  0  0  0
 18 19  3  0  0  0  0
 20 21  1  0  0  0  0
 21 22  1  0  0  0  0
 22 23  1  0  0  0  0
 25 24  1  0  0  0  0
 25 23  1  0  0  0  0
 26 25  1  0  0  0  0
 27 26  1  0  0  0  0
 28 29  1  0  0  0  0
 29 27  1  0  0  0  0
 30 12  1  0  0  0  0
 31 34  1  0  0  0  0
 31 30  1  0  0  0  0
 31 32  1  0  0  0  0
 33 31  1  0  0  0  0
 36 35  1  0  0  0  0
 36 37  2  0  0  0  0
M  END
>  <MODEL>
5

>  <REMARK>
 VINA RESULT:      -5.7      1.507      1.805
  Name = 
  15 active torsions:
  status: ('A' for Active; 'I' for Inactive)
    1  A    between atoms: C_1  and  C_5
    2  A    between atoms: C_1  and  C_36
    3  A    between atoms: C_2  and  C_18
    4  A    between atoms: C_2  and  C_35
    5  A    between atoms: C_3  and  C_32
    6  A    between atoms: C_6  and  C_31
    7  A    between atoms: C_6  and  C_35
    8  A    between atoms: C_9  and  C_13
    9  A    between atoms: C_9  and  C_16
   10  A    between atoms: C_10  and  C_37
   11  A    between atoms: O_11  and  C_33
   12  A    between atoms: C_18  and  C_19
   13  A    between atoms: C_20  and  C_21
   14  A    between atoms: C_21  and  C_32
   15  A    between atoms: C_31  and  C_37
                            x       y       z     vdW  Elec       q    Type
                         _______ _______ _______ _____ _____    ______ ____

>  <TORSDO>
F 15

$$$$
=
 OpenBabel11052420093D

 37 38  0  0  1  0  0  0  0  0999 V2000
  188.2200  174.8930  141.2270 C   0  0  0  0  0  0  0  0  0  0  0  0
  189.3730  177.7000  142.0760 C   0  0  0  0  0  2  0  0  0  0  0  0
  187.6020  175.8640  142.1940 C   0  0  1  0  0  3  0  0  0  0  0  0
  189.3500  174.0160  141.7050 C   0  0  1  0  0  3  0  0  0  0  0  0
  188.6700  176.6710  142.9500 C   0  0  1  0  0  3  0  0  0  0  0  0
  189.6800  174.2660  143.1930 C   0  0  2  0  0  3  0  0  0  0  0  0
  190.1420  177.8090  145.4950 S   0  0  0  0  0  0  0  0  0  0  0  0
  189.9270  178.8600  142.9030 C   0  0  0  0  0  2  0  0  0  0  0  0
  187.8470  174.8390  140.0640 O   0  0  0  0  0  0  0  0  0  0  0  0
  189.7540  175.7690  143.5590 C   0  0  2  0  0  3  0  0  0  0  0  0
  190.9450  178.4590  143.9780 C   0  0  2  0  0  3  0  0  0  0  0  0
  189.9370  176.0290  145.0580 C   0  0  2  0  0  3  0  0  0  0  0  0
  191.9400  177.6090  143.4880 O   0  0  0  0  0  0  0  0  0  0  0  0
  192.8260  177.5390  144.4590 O   0  0  0  0  0  1  0  0  0  0  0  0
  190.9560  173.5680  143.5740 C   0  0  0  0  0  0  0  0  0  0  0  0
  190.9030  172.5150  144.1900 O   0  0  0  0  0  0  0  0  0  0  0  0
  192.2860  174.1600  143.2240 C   0  0  0  0  0  2  0  0  0  0  0  0
  193.1770  174.1360  144.3880 C   0  0  0  0  0  0  0  0  0  0  0  0
  193.9080  174.1150  145.3460 C   0  0  0  0  0  3  0  0  0  0  0  0
  186.7180  177.7310  140.7020 C   0  0  0  0  0  1  0  0  0  0  0  0
  186.3670  176.6460  141.7060 C   0  0  2  0  0  3  0  0  0  0  0  0
  185.6070  177.2600  142.8740 C   0  0  0  0  0  2  0  0  0  0  0  0
  185.5750  178.7750  142.7580 C   0  0  0  0  0  2  0  0  0  0  0  0
  186.7340  178.9640  144.8150 F   0  0  0  0  0  0  0  0  0  0  0  0
  185.6100  179.4050  144.1350 C   0  0  2  0  0  3  0  0  0  0  0  0
  184.3570  179.0070  144.8960 C   0  0  0  0  0  2  0  0  0  0  0  0
  184.6770  178.6640  146.3440 C   0  0  0  0  0  2  0  0  0  0  0  0
  186.0000  176.8820  147.2300 O   0  0  0  0  0  1  0  0  0  0  0  0
  184.8210  177.1630  146.5370 C   0  0  0  0  0  2  0  0  0  0  0  0
  188.7740  175.4410  145.8550 C   0  0  0  0  0  2  0  0  0  0  0  0
  189.2450  174.4960  146.9530 C   0  0  0  0  0  0  0  0  0  0  0  0
  189.3120  173.2000  146.4800 F   0  0  0  0  0  0  0  0  0  0  0  0
  188.3810  174.5510  148.0310 F   0  0  0  0  0  0  0  0  0  0  0  0
  190.6250  174.9250  147.4070 C   0  0  0  0  0  1  0  0  0  0  0  0
  188.9990  172.5470  141.4990 C   0  0  0  0  0  2  0  0  0  0  0  0
  189.9820  171.9060  140.5790 C   0  0  0  0  0  3  0  0  0  0  0  0
  189.8470  172.0420  139.2640 C   0  0  0  0  0  2  0  0  0  0  0  0
  1  4  1  0  0  0  0
  1  3  1  0  0  0  0
  2  8  1  0  0  0  0
  3 21  1  6  0  0  0
  3  5  1  0  0  0  0
  4 35  1  1  0  0  0
  4  6  1  0  0  0  0
  5  2  1  6  0  0  0
  5 10  1  0  0  0  0
  6 10  1  0  0  0  0
  6 15  1  6  0  0  0
  8 11  1  0  0  0  0
  9  1  2  0  0  0  0
 10 12  1  0  0  0  0
 11  7  1  0  0  0  0
 12  7  1  0  0  0  0
 12 30  1  0  0  0  0
 13 11  1  0  0  0  0
 13 14  1  0  0  0  0
 15 16  2  0  0  0  0
 17 15  1  0  0  0  0
 17 18  1  0  0  0  0
 18 19  3  0  0  0  0
 20 21  1  0  0  0  0
 21 22  1  0  0  0  0
 23 22  1  0  0  0  0
 23 25  1  0  0  0  0
 25 24  1  0  0  0  0
 25 26  1  0  0  0  0
 26 27  1  0  0  0  0
 27 29  1  0  0  0  0
 29 28  1  0  0  0  0
 30 31  1  0  0  0  0
 31 34  1  0  0  0  0
 31 33  1  0  0  0  0
 32 31  1  0  0  0  0
 36 35  1  0  0  0  0
 37 36  2  0  0  0  0
M  END
>  <MODEL>
6

>  <REMARK>
 VINA RESULT:      -5.7      3.116      5.527
  Name = 
  15 active torsions:
  status: ('A' for Active; 'I' for Inactive)
    1  A    between atoms: C_1  and  C_5
    2  A    between atoms: C_1  and  C_36
    3  A    between atoms: C_2  and  C_18
    4  A    between atoms: C_2  and  C_35
    5  A    between atoms: C_3  and  C_32
    6  A    between atoms: C_6  and  C_31
    7  A    between atoms: C_6  and  C_35
    8  A    between atoms: C_9  and  C_13
    9  A    between atoms: C_9  and  C_16
   10  A    between atoms: C_10  and  C_37
   11  A    between atoms: O_11  and  C_33
   12  A    between atoms: C_18  and  C_19
   13  A    between atoms: C_20  and  C_21
   14  A    between atoms: C_21  and  C_32
   15  A    between atoms: C_31  and  C_37
                            x       y       z     vdW  Elec       q    Type
                         _______ _______ _______ _____ _____    ______ ____

>  <TORSDO>
F 15

$$$$
=
 OpenBabel11052420093D

 37 38  0  0  1  0  0  0  0  0999 V2000
  191.7510  175.6780  146.2890 C   0  0  0  0  0  0  0  0  0  0  0  0
  189.9640  173.4030  145.0410 C   0  0  0  0  0  2  0  0  0  0  0  0
  190.8390  175.8010  145.1000 C   0  0  1  0  0  3  0  0  0  0  0  0
  193.1090  175.0490  146.0970 C   0  0  1  0  0  3  0  0  0  0  0  0
  190.7500  174.4840  144.3140 C   0  0  1  0  0  3  0  0  0  0  0  0
  193.3460  174.6370  144.6270 C   0  0  2  0  0  3  0  0  0  0  0  0
  190.9240  172.6510  141.7550 S   0  0  0  0  0  0  0  0  0  0  0  0
  189.3590  172.3910  144.0680 C   0  0  0  0  0  2  0  0  0  0  0  0
  191.3920  176.0420  147.3990 O   0  0  0  0  0  0  0  0  0  0  0  0
  192.1370  173.9060  143.9940 C   0  0  2  0  0  3  0  0  0  0  0  0
  190.3770  171.6490  143.1930 C   0  0  2  0  0  3  0  0  0  0  0  0
  192.3050  173.6200  142.4970 C   0  0  2  0  0  3  0  0  0  0  0  0
  191.4460  171.1330  143.9290 O   0  0  0  0  0  0  0  0  0  0  0  0
  191.9590  170.1970  143.1580 O   0  0  0  0  0  1  0  0  0  0  0  0
  194.5880  173.7970  144.5110 C   0  0  0  0  0  0  0  0  0  0  0  0
  195.5610  174.2430  143.9220 O   0  0  0  0  0  0  0  0  0  0  0  0
  194.6370  172.4170  145.0900 C   0  0  0  0  0  2  0  0  0  0  0  0
  196.0220  172.0330  145.3770 C   0  0  0  0  0  0  0  0  0  0  0  0
  197.1610  171.7160  145.6120 C   0  0  0  0  0  3  0  0  0  0  0  0
  188.5870  175.8750  146.2920 C   0  0  0  0  0  1  0  0  0  0  0  0
  189.5180  176.5680  145.3090 C   0  0  2  0  0  3  0  0  0  0  0  0
  188.7930  176.7860  143.9890 C   0  0  0  0  0  2  0  0  0  0  0  0
  187.5070  177.5660  144.2030 C   0  0  0  0  0  2  0  0  0  0  0  0
  187.9120  178.5870  142.1040 F   0  0  0  0  0  0  0  0  0  0  0  0
  186.9240  177.9890  142.8700 C   0  0  2  0  0  3  0  0  0  0  0  0
  185.7920  178.9730  143.1130 C   0  0  0  0  0  2  0  0  0  0  0  0
  185.6290  179.2690  144.5970 C   0  0  0  0  0  2  0  0  0  0  0  0
  184.1640  178.1450  146.1130 O   0  0  0  0  0  1  0  0  0  0  0  0
  184.1950  179.0490  145.0510 C   0  0  0  0  0  2  0  0  0  0  0  0
  192.4910  174.9200  141.7170 C   0  0  0  0  0  2  0  0  0  0  0  0
  193.7600  174.9130  140.8750 C   0  0  0  0  0  0  0  0  0  0  0  0
  193.4490  174.9560  139.5290 F   0  0  0  0  0  0  0  0  0  0  0  0
  194.5020  173.7770  141.1420 F   0  0  0  0  0  0  0  0  0  0  0  0
  194.5860  176.1330  141.2270 C   0  0  0  0  0  1  0  0  0  0  0  0
  194.2030  176.0120  146.5410 C   0  0  0  0  0  2  0  0  0  0  0  0
  194.2150  177.2200  145.6670 C   0  0  0  0  0  3  0  0  0  0  0  0
  195.3180  177.9540  145.5640 C   0  0  0  0  0  2  0  0  0  0  0  0
  1  9  2  0  0  0  0
  3 21  1  1  0  0  0
  3  1  1  0  0  0  0
  4  1  1  0  0  0  0
  4 35  1  6  0  0  0
  5  2  1  1  0  0  0
  5  3  1  0  0  0  0
  6 15  1  1  0  0  0
  6  4  1  0  0  0  0
  7 12  1  0  0  0  0
  7 11  1  0  0  0  0
  8  2  1  0  0  0  0
 10  5  1  0  0  0  0
 10  6  1  0  0  0  0
 11 13  1  0  0  0  0
 11  8  1  0  0  0  0
 12 10  1  0  0  0  0
 14 13  1  0  0  0  0
 15 17  1  0  0  0  0
 16 15  2  0  0  0  0
 17 18  1  0  0  0  0
 18 19  3  0  0  0  0
 21 20  1  0  0  0  0
 22 23  1  0  0  0  0
 22 21  1  0  0  0  0
 24 25  1  0  0  0  0
 25 26  1  0  0  0  0
 25 23  1  0  0  0  0
 26 27  1  0  0  0  0
 27 29  1  0  0  0  0
 29 28  1  0  0  0  0
 30 12  1  0  0  0  0
 31 33  1  0  0  0  0
 31 34  1  0  0  0  0
 31 30  1  0  0  0  0
 32 31  1  0  0  0  0
 36 35  1  0  0  0  0
 37 36  2  0  0  0  0
M  END
>  <MODEL>
7

>  <REMARK>
 VINA RESULT:      -5.4      1.564      1.842
  Name = 
  15 active torsions:
  status: ('A' for Active; 'I' for Inactive)
    1  A    between atoms: C_1  and  C_5
    2  A    between atoms: C_1  and  C_36
    3  A    between atoms: C_2  and  C_18
    4  A    between atoms: C_2  and  C_35
    5  A    between atoms: C_3  and  C_32
    6  A    between atoms: C_6  and  C_31
    7  A    between atoms: C_6  and  C_35
    8  A    between atoms: C_9  and  C_13
    9  A    between atoms: C_9  and  C_16
   10  A    between atoms: C_10  and  C_37
   11  A    between atoms: O_11  and  C_33
   12  A    between atoms: C_18  and  C_19
   13  A    between atoms: C_20  and  C_21
   14  A    between atoms: C_21  and  C_32
   15  A    between atoms: C_31  and  C_37
                            x       y       z     vdW  Elec       q    Type
                         _______ _______ _______ _____ _____    ______ ____

>  <TORSDO>
F 15

$$$$
=
 OpenBabel11052420093D

 37 38  0  0  1  0  0  0  0  0999 V2000
  190.3730  174.5680  144.6220 C   0  0  0  0  0  0  0  0  0  0  0  0
  191.7110  171.7370  144.2750 C   0  0  0  0  0  2  0  0  0  0  0  0
  190.5390  173.8030  143.3390 C   0  0  1  0  0  3  0  0  0  0  0  0
  191.5570  175.3260  145.1700 C   0  0  1  0  0  3  0  0  0  0  0  0
  191.8110  172.9420  143.3510 C   0  0  1  0  0  3  0  0  0  0  0  0
  192.7950  175.1950  144.2560 C   0  0  2  0  0  3  0  0  0  0  0  0
  194.5770  171.8910  142.2620 S   0  0  0  0  0  0  0  0  0  0  0  0
  192.6420  170.6070  143.8340 C   0  0  0  0  0  2  0  0  0  0  0  0
  189.3160  174.5480  145.2360 O   0  0  0  0  0  0  0  0  0  0  0  0
  193.0500  173.7450  143.7770 C   0  0  2  0  0  3  0  0  0  0  0  0
  194.1300  170.9760  143.7890 C   0  0  2  0  0  3  0  0  0  0  0  0
  194.1870  173.6250  142.7560 C   0  0  2  0  0  3  0  0  0  0  0  0
  194.5600  171.6210  144.9510 O   0  0  0  0  0  0  0  0  0  0  0  0
  195.2520  170.7090  145.6010 O   0  0  0  0  0  1  0  0  0  0  0  0
  194.0150  175.7450  144.9400 C   0  0  0  0  0  0  0  0  0  0  0  0
  194.5350  176.7640  144.5110 O   0  0  0  0  0  0  0  0  0  0  0  0
  194.6090  175.0480  146.1250 C   0  0  0  0  0  2  0  0  0  0  0  0
  195.9580  174.5690  145.8120 C   0  0  0  0  0  0  0  0  0  0  0  0
  197.0680  174.1750  145.5560 C   0  0  0  0  0  3  0  0  0  0  0  0
  189.5710  172.2980  141.5240 C   0  0  0  0  0  1  0  0  0  0  0  0
  189.2740  173.1530  142.7450 C   0  0  2  0  0  3  0  0  0  0  0  0
  188.2300  174.2030  142.3890 C   0  0  0  0  0  2  0  0  0  0  0  0
  188.8680  175.3650  141.6470 C   0  0  0  0  0  2  0  0  0  0  0  0
  188.7880  177.7330  141.6830 F   0  0  0  0  0  0  0  0  0  0  0  0
  187.9960  176.6000  141.7630 C   0  0  2  0  0  3  0  0  0  0  0  0
  187.2700  176.5700  143.0970 C   0  0  0  0  0  2  0  0  0  0  0  0
  187.4750  177.8690  143.8640 C   0  0  0  0  0  2  0  0  0  0  0  0
  185.9230  179.2520  145.0440 O   0  0  0  0  0  1  0  0  0  0  0  0
  186.5030  177.9830  145.0290 C   0  0  0  0  0  2  0  0  0  0  0  0
  193.8820  174.4520  141.5080 C   0  0  0  0  0  2  0  0  0  0  0  0
  194.9610  175.4890  141.2250 C   0  0  0  0  0  0  0  0  0  0  0  0
  196.0020  175.3630  142.1250 F   0  0  0  0  0  0  0  0  0  0  0  0
  194.4300  176.7630  141.3070 F   0  0  0  0  0  0  0  0  0  0  0  0
  195.4950  175.2680  139.8250 C   0  0  0  0  0  1  0  0  0  0  0  0
  191.2040  176.7990  145.3440 C   0  0  0  0  0  2  0  0  0  0  0  0
  190.9980  177.4420  144.0150 C   0  0  0  0  0  3  0  0  0  0  0  0
  191.2010  178.7470  143.8710 C   0  0  0  0  0  2  0  0  0  0  0  0
  1  4  1  0  0  0  0
  1  9  2  0  0  0  0
  3 21  1  1  0  0  0
  3  5  1  0  0  0  0
  3  1  1  0  0  0  0
  4 35  1  6  0  0  0
  5 10  1  0  0  0  0
  5  2  1  1  0  0  0
  6 15  1  1  0  0  0
  6  4  1  0  0  0  0
  7 12  1  0  0  0  0
  7 11  1  0  0  0  0
  8  2  1  0  0  0  0
 10  6  1  0  0  0  0
 11  8  1  0  0  0  0
 11 13  1  0  0  0  0
 12 10  1  0  0  0  0
 13 14  1  0  0  0  0
 15 17  1  0  0  0  0
 16 15  2  0  0  0  0
 18 17  1  0  0  0  0
 19 18  3  0  0  0  0
 20 21  1  0  0  0  0
 22 21  1  0  0  0  0
 23 25  1  0  0  0  0
 23 22  1  0  0  0  0
 24 25  1  0  0  0  0
 25 26  1  0  0  0  0
 26 27  1  0  0  0  0
 27 29  1  0  0  0  0
 29 28  1  0  0  0  0
 30 12  1  0  0  0  0
 31 33  1  0  0  0  0
 31 30  1  0  0  0  0
 31 32  1  0  0  0  0
 34 31  1  0  0  0  0
 36 35  1  0  0  0  0
 37 36  2  0  0  0  0
M  END
>  <MODEL>
8

>  <REMARK>
 VINA RESULT:      -5.4      2.070      3.173
  Name = 
  15 active torsions:
  status: ('A' for Active; 'I' for Inactive)
    1  A    between atoms: C_1  and  C_5
    2  A    between atoms: C_1  and  C_36
    3  A    between atoms: C_2  and  C_18
    4  A    between atoms: C_2  and  C_35
    5  A    between atoms: C_3  and  C_32
    6  A    between atoms: C_6  and  C_31
    7  A    between atoms: C_6  and  C_35
    8  A    between atoms: C_9  and  C_13
    9  A    between atoms: C_9  and  C_16
   10  A    between atoms: C_10  and  C_37
   11  A    between atoms: O_11  and  C_33
   12  A    between atoms: C_18  and  C_19
   13  A    between atoms: C_20  and  C_21
   14  A    between atoms: C_21  and  C_32
   15  A    between atoms: C_31  and  C_37
                            x       y       z     vdW  Elec       q    Type
                         _______ _______ _______ _____ _____    ______ ____

>  <TORSDO>
F 15

$$$$
=
 OpenBabel11052420093D

 37 38  0  0  1  0  0  0  0  0999 V2000
  190.5570  174.1180  144.1410 C   0  0  0  0  0  0  0  0  0  0  0  0
  192.9220  176.1740  144.4680 C   0  0  0  0  0  2  0  0  0  0  0  0
  191.3520  174.3830  145.3890 C   0  0  1  0  0  3  0  0  0  0  0  0
  191.1550  173.2320  143.0760 C   0  0  1  0  0  3  0  0  0  0  0  0
  192.8010  174.7790  145.0650 C   0  0  1  0  0  3  0  0  0  0  0  0
  192.5480  172.7060  143.4850 C   0  0  2  0  0  3  0  0  0  0  0  0
  195.9420  174.5690  145.2370 S   0  0  0  0  0  0  0  0  0  0  0  0
  194.2980  176.7850  144.7290 C   0  0  0  0  0  2  0  0  0  0  0  0
  189.4640  174.6380  143.9680 O   0  0  0  0  0  0  0  0  0  0  0  0
  193.4640  173.8010  144.0840 C   0  0  2  0  0  3  0  0  0  0  0  0
  195.4790  175.9840  144.1640 C   0  0  2  0  0  3  0  0  0  0  0  0
  194.7940  173.2630  144.6240 C   0  0  2  0  0  3  0  0  0  0  0  0
  195.2870  175.6110  142.8310 O   0  0  0  0  0  0  0  0  0  0  0  0
  195.9800  176.4900  142.1370 O   0  0  0  0  0  1  0  0  0  0  0  0
  193.2210  172.0370  142.3180 C   0  0  0  0  0  0  0  0  0  0  0  0
  193.3900  170.8280  142.3360 O   0  0  0  0  0  0  0  0  0  0  0  0
  193.7000  172.8400  141.1480 C   0  0  0  0  0  2  0  0  0  0  0  0
  195.1510  172.7000  140.9940 C   0  0  0  0  0  0  0  0  0  0  0  0
  196.3440  172.5840  140.8670 C   0  0  0  0  0  3  0  0  0  0  0  0
  191.5150  175.3260  147.7500 C   0  0  0  0  0  1  0  0  0  0  0  0
  190.6540  175.1820  146.5060 C   0  0  2  0  0  3  0  0  0  0  0  0
  189.3190  174.5520  146.8820 C   0  0  0  0  0  2  0  0  0  0  0  0
  188.2760  175.6220  147.1510 C   0  0  0  0  0  2  0  0  0  0  0  0
  188.8800  177.8940  147.4430 F   0  0  0  0  0  0  0  0  0  0  0  0
  188.6750  176.9210  146.4800 C   0  0  2  0  0  3  0  0  0  0  0  0
  187.5650  177.3530  145.5360 C   0  0  0  0  0  2  0  0  0  0  0  0
  188.1190  177.7280  144.1690 C   0  0  0  0  0  2  0  0  0  0  0  0
  190.1560  177.8920  142.9300 O   0  0  0  0  0  1  0  0  0  0  0  0
  189.6250  177.9320  144.2200 C   0  0  0  0  0  2  0  0  0  0  0  0
  194.5520  172.2390  145.7320 C   0  0  0  0  0  2  0  0  0  0  0  0
  195.6240  171.1570  145.7620 C   0  0  0  0  0  0  0  0  0  0  0  0
  195.1150  169.9870  146.2930 F   0  0  0  0  0  0  0  0  0  0  0  0
  196.7030  171.5770  146.5190 F   0  0  0  0  0  0  0  0  0  0  0  0
  196.0890  170.8910  144.3460 C   0  0  0  0  0  1  0  0  0  0  0  0
  190.2280  172.0570  142.7870 C   0  0  0  0  0  2  0  0  0  0  0  0
  189.6130  172.2040  141.4370 C   0  0  0  0  0  3  0  0  0  0  0  0
  189.9980  173.1920  140.6360 C   0  0  0  0  0  2  0  0  0  0  0  0
  1  3  1  0  0  0  0
  2  8  1  0  0  0  0
  3 21  1  6  0  0  0
  4 35  1  1  0  0  0
  4  6  1  0  0  0  0
  4  1  1  0  0  0  0
  5  2  1  6  0  0  0
  5  3  1  0  0  0  0
  6 15  1  6  0  0  0
  6 10  1  0  0  0  0
  9  1  2  0  0  0  0
 10 12  1  0  0  0  0
 10  5  1  0  0  0  0
 11  8  1  0  0  0  0
 11  7  1  0  0  0  0
 12  7  1  0  0  0  0
 12 30  1  0  0  0  0
 13 11  1  0  0  0  0
 14 13  1  0  0  0  0
 15 16  2  0  0  0  0
 17 15  1  0  0  0  0
 18 17  1  0  0  0  0
 19 18  3  0  0  0  0
 21 22  1  0  0  0  0
 21 20  1  0  0  0  0
 22 23  1  0  0  0  0
 25 23  1  0  0  0  0
 25 24  1  0  0  0  0
 26 25  1  0  0  0  0
 27 29  1  0  0  0  0
 27 26  1  0  0  0  0
 28 29  1  0  0  0  0
 30 31  1  0  0  0  0
 31 32  1  0  0  0  0
 31 33  1  0  0  0  0
 34 31  1  0  0  0  0
 36 35  1  0  0  0  0
 37 36  2  0  0  0  0
M  END
>  <MODEL>
9

>  <REMARK>
 VINA RESULT:      -5.3      3.002      5.140
  Name = 
  15 active torsions:
  status: ('A' for Active; 'I' for Inactive)
    1  A    between atoms: C_1  and  C_5
    2  A    between atoms: C_1  and  C_36
    3  A    between atoms: C_2  and  C_18
    4  A    between atoms: C_2  and  C_35
    5  A    between atoms: C_3  and  C_32
    6  A    between atoms: C_6  and  C_31
    7  A    between atoms: C_6  and  C_35
    8  A    between atoms: C_9  and  C_13
    9  A    between atoms: C_9  and  C_16
   10  A    between atoms: C_10  and  C_37
   11  A    between atoms: O_11  and  C_33
   12  A    between atoms: C_18  and  C_19
   13  A    between atoms: C_20  and  C_21
   14  A    between atoms: C_21  and  C_32
   15  A    between atoms: C_31  and  C_37
                            x       y       z     vdW  Elec       q    Type
                         _______ _______ _______ _____ _____    ______ ____

>  <TORSDO>
F 15

$$$$
