=
 OpenBabel11052418323D

 27 30  0  0  1  0  0  0  0  0999 V2000
  189.2720  177.1720  144.6050 C   0  0  2  0  0  3  0  0  0  0  0  0
  188.4470  178.0310  143.8530 O   0  0  0  0  0  0  0  0  0  0  0  0
  189.2090  176.2650  142.4950 N   0  0  2  0  0  0  0  0  0  0  0  0
  190.8040  174.0730  142.9250 C   0  0  0  0  0  0  0  0  0  0  0  0
  187.5430  174.4050  142.1950 C   0  0  0  0  0  1  0  0  0  0  0  0
  191.6880  173.2370  143.0150 O   0  0  0  0  0  0  0  0  0  0  0  0
  189.3430  175.8700  143.8680 C   0  0  1  0  0  3  0  0  0  0  0  0
  188.3880  177.4870  142.5430 C   0  0  1  0  0  3  0  0  0  0  0  0
  189.9600  174.0930  141.6580 C   0  0  0  0  0  2  0  0  0  0  0  0
  190.6150  174.4350  145.2770 O   0  0  0  0  0  1  0  0  0  0  0  0
  190.6370  175.0880  144.0430 C   0  0  1  0  0  3  0  0  0  0  0  0
  188.8030  175.1050  141.6830 C   0  0  2  0  0  3  0  0  0  0  0  0
  184.4750  177.8250  142.3750 C   0  0  0  0  0  2  0  0  0  0  0  0
  184.5120  177.7870  140.8410 C   0  0  0  0  0  2  0  0  0  0  0  0
  185.6040  178.5320  140.3640 O   0  0  0  0  0  0  0  0  0  0  0  0
  186.9320  177.3280  142.0630 C   0  0  2  0  0  3  0  0  0  0  0  0
  186.7680  177.7630  140.5880 C   0  0  0  0  0  2  0  0  0  0  0  0
  185.8790  177.9940  142.9740 C   0  0  1  0  0  3  0  0  0  0  0  0
  185.1880  180.0650  144.1880 C   0  0  0  0  0  1  0  0  0  0  0  0
  186.1780  179.4730  143.2030 C   0  0  0  0  0  2  0  0  0  0  0  0
  188.8010  176.9990  145.9910 N   0  0  0  0  0  2  0  0  0  0  0  0
  184.9110  178.3410  147.1520 C   0  0  0  0  0  2  0  0  0  0  0  0
  187.4560  177.5210  146.2800 C   0  0  0  0  0  3  0  0  0  0  0  0
  186.3820  176.4300  146.2500 C   0  0  0  0  0  2  0  0  0  0  0  0
  184.9700  177.0170  146.3790 C   0  0  0  0  0  2  0  0  0  0  0  0
  186.0200  178.4290  148.1950 C   0  0  0  0  0  2  0  0  0  0  0  0
  187.3980  178.4210  147.5270 C   0  0  0  0  0  2  0  0  0  0  0  0
  1 21  1  1  0  0  0
  2  1  1  0  0  0  0
  3  8  1  0  0  0  0
  3  7  1  0  0  0  0
  4  6  2  0  0  0  0
  4 11  1  0  0  0  0
  7 11  1  0  0  0  0
  7  1  1  0  0  0  0
  8  2  1  0  0  0  0
  9 12  1  0  0  0  0
  9  4  1  0  0  0  0
 11 10  1  0  0  0  0
 12  5  1  0  0  0  0
 12  3  1  0  0  0  0
 13 18  1  0  0  0  0
 14 13  1  0  0  0  0
 15 17  1  0  0  0  0
 15 14  1  0  0  0  0
 16  8  1  0  0  0  0
 16 18  1  0  0  0  0
 17 16  1  0  0  0  0
 18 20  1  0  0  0  0
 20 19  1  0  0  0  0
 21 23  1  0  0  0  0
 22 26  1  0  0  0  0
 23 27  1  0  0  0  0
 24 23  1  0  0  0  0
 24 25  1  0  0  0  0
 25 22  1  0  0  0  0
 27 26  1  0  0  0  0
M  END
>  <MODEL>
1

>  <REMARK>
 VINA RESULT:      -7.1      0.000      0.000
  Name = 
  4 active torsions:
  status: ('A' for Active; 'I' for Inactive)
    1  A    between atoms: C_1  and  N_15
    2  A    between atoms: C_9  and  N_15
    3  A    between atoms: C_14  and  C_19
    4  A    between atoms: C_17  and  C_21
                            x       y       z     vdW  Elec       q    Type
                         _______ _______ _______ _____ _____    ______ ____

>  <TORSDO>
F 4

$$$$
=
 OpenBabel11052418323D

 27 30  0  0  1  0  0  0  0  0999 V2000
  187.5610  177.2420  142.3820 C   0  0  2  0  0  3  0  0  0  0  0  0
  188.7760  177.0540  143.0710 O   0  0  0  0  0  0  0  0  0  0  0  0
  187.2350  178.1670  144.4600 N   0  0  2  0  0  0  0  0  0  0  0  0
  184.6360  178.9930  144.1550 C   0  0  0  0  0  0  0  0  0  0  0  0
  186.0710  176.6690  146.1100 C   0  0  0  0  0  1  0  0  0  0  0  0
  183.5810  179.5790  143.9760 O   0  0  0  0  0  0  0  0  0  0  0  0
  186.5070  177.5110  143.4120 C   0  0  1  0  0  3  0  0  0  0  0  0
  188.5980  177.6150  144.3620 C   0  0  1  0  0  3  0  0  0  0  0  0
  185.2000  178.9450  145.5690 C   0  0  0  0  0  2  0  0  0  0  0  0
  184.4740  177.6560  142.1840 O   0  0  0  0  0  1  0  0  0  0  0  0
  185.3630  178.4060  142.9580 C   0  0  1  0  0  3  0  0  0  0  0  0
  186.4700  178.0930  145.7160 C   0  0  2  0  0  3  0  0  0  0  0  0
  190.0790  174.4400  146.1450 C   0  0  0  0  0  2  0  0  0  0  0  0
  190.4160  175.2670  147.3940 C   0  0  0  0  0  2  0  0  0  0  0  0
  190.9100  176.5290  147.0210 O   0  0  0  0  0  0  0  0  0  0  0  0
  188.9900  176.6160  145.4690 C   0  0  2  0  0  3  0  0  0  0  0  0
  189.8070  177.3000  146.5900 C   0  0  0  0  0  2  0  0  0  0  0  0
  189.6810  175.3330  144.9620 C   0  0  1  0  0  3  0  0  0  0  0  0
  191.7750  174.4120  143.9580 C   0  0  0  0  0  1  0  0  0  0  0  0
  190.9060  175.6470  144.1060 C   0  0  0  0  0  2  0  0  0  0  0  0
  187.2140  176.0990  141.5180 N   0  0  0  0  0  2  0  0  0  0  0  0
  189.7340  172.6490  141.3460 C   0  0  0  0  0  2  0  0  0  0  0  0
  188.1630  174.9750  141.5300 C   0  0  0  0  0  3  0  0  0  0  0  0
  187.6710  173.7970  142.3750 C   0  0  0  0  0  2  0  0  0  0  0  0
  188.7460  172.7100  142.5180 C   0  0  0  0  0  2  0  0  0  0  0  0
  189.0850  173.1050  140.0430 C   0  0  0  0  0  2  0  0  0  0  0  0
  188.6640  174.5750  140.1300 C   0  0  0  0  0  2  0  0  0  0  0  0
  1 21  1  1  0  0  0
  1  2  1  0  0  0  0
  1  7  1  0  0  0  0
  2  8  1  0  0  0  0
  3 12  1  0  0  0  0
  4  9  1  0  0  0  0
  6  4  2  0  0  0  0
  7  3  1  0  0  0  0
  8  3  1  0  0  0  0
  8 16  1  0  0  0  0
  9 12  1  0  0  0  0
 10 11  1  0  0  0  0
 11  7  1  0  0  0  0
 11  4  1  0  0  0  0
 12  5  1  0  0  0  0
 13 14  1  0  0  0  0
 15 14  1  0  0  0  0
 16 17  1  0  0  0  0
 17 15  1  0  0  0  0
 18 16  1  0  0  0  0
 18 13  1  0  0  0  0
 19 20  1  0  0  0  0
 20 18  1  0  0  0  0
 21 23  1  0  0  0  0
 22 25  1  0  0  0  0
 23 24  1  0  0  0  0
 24 25  1  0  0  0  0
 26 27  1  0  0  0  0
 26 22  1  0  0  0  0
 27 23  1  0  0  0  0
M  END
>  <MODEL>
2

>  <REMARK>
 VINA RESULT:      -6.9      1.850      6.737
  Name = 
  4 active torsions:
  status: ('A' for Active; 'I' for Inactive)
    1  A    between atoms: C_1  and  N_15
    2  A    between atoms: C_9  and  N_15
    3  A    between atoms: C_14  and  C_19
    4  A    between atoms: C_17  and  C_21
                            x       y       z     vdW  Elec       q    Type
                         _______ _______ _______ _____ _____    ______ ____

>  <TORSDO>
F 4

$$$$
=
 OpenBabel11052418323D

 27 30  0  0  1  0  0  0  0  0999 V2000
  188.6470  176.2250  144.6200 C   0  0  2  0  0  3  0  0  0  0  0  0
  189.5780  175.8470  145.6090 O   0  0  0  0  0  0  0  0  0  0  0  0
  190.0080  174.6690  143.6160 N   0  0  2  0  0  0  0  0  0  0  0  0
  188.8610  174.6470  141.1230 C   0  0  0  0  0  0  0  0  0  0  0  0
  191.8730  175.6350  142.2330 C   0  0  0  0  0  1  0  0  0  0  0  0
  188.2380  174.4360  140.0950 O   0  0  0  0  0  0  0  0  0  0  0  0
  189.2240  175.8280  143.2960 C   0  0  1  0  0  3  0  0  0  0  0  0
  190.4340  174.8870  145.0090 C   0  0  1  0  0  3  0  0  0  0  0  0
  190.2380  174.0130  141.2720 C   0  0  0  0  0  2  0  0  0  0  0  0
  187.6750  176.6410  141.6840 O   0  0  0  0  0  1  0  0  0  0  0  0
  188.2080  175.4680  142.2210 C   0  0  1  0  0  3  0  0  0  0  0  0
  190.9910  174.4250  142.5460 C   0  0  2  0  0  3  0  0  0  0  0  0
  193.6910  176.5490  146.4530 C   0  0  0  0  0  2  0  0  0  0  0  0
  194.5130  175.3000  146.1060 C   0  0  0  0  0  2  0  0  0  0  0  0
  193.7730  174.1390  146.3850 O   0  0  0  0  0  0  0  0  0  0  0  0
  191.9180  175.2600  145.1980 C   0  0  2  0  0  3  0  0  0  0  0  0
  192.8040  174.0030  145.3640 C   0  0  0  0  0  2  0  0  0  0  0  0
  192.1840  176.2960  146.3110 C   0  0  1  0  0  3  0  0  0  0  0  0
  191.4650  177.0440  148.5840 C   0  0  0  0  0  1  0  0  0  0  0  0
  191.5970  175.8550  147.6500 C   0  0  0  0  0  2  0  0  0  0  0  0
  188.3130  177.6590  144.6720 N   0  0  0  0  0  2  0  0  0  0  0  0
  184.4830  178.3670  146.4380 C   0  0  0  0  0  2  0  0  0  0  0  0
  187.0470  177.9980  145.3430 C   0  0  0  0  0  3  0  0  0  0  0  0
  186.0210  178.6130  144.3880 C   0  0  0  0  0  2  0  0  0  0  0  0
  184.7790  179.1190  145.1340 C   0  0  0  0  0  2  0  0  0  0  0  0
  184.9640  176.9220  146.3710 C   0  0  0  0  0  2  0  0  0  0  0  0
  186.4860  176.8610  146.2150 C   0  0  0  0  0  2  0  0  0  0  0  0
  1 21  1  6  0  0  0
  1  2  1  0  0  0  0
  3  8  1  0  0  0  0
  4  9  1  0  0  0  0
  4 11  1  0  0  0  0
  5 12  1  0  0  0  0
  6  4  2  0  0  0  0
  7  3  1  0  0  0  0
  7  1  1  0  0  0  0
  8 16  1  0  0  0  0
  8  2  1  0  0  0  0
  9 12  1  0  0  0  0
 10 11  1  0  0  0  0
 11  7  1  0  0  0  0
 12  3  1  0  0  0  0
 14 15  1  0  0  0  0
 14 13  1  0  0  0  0
 16 17  1  0  0  0  0
 16 18  1  0  0  0  0
 17 15  1  0  0  0  0
 18 13  1  0  0  0  0
 18 20  1  0  0  0  0
 20 19  1  0  0  0  0
 21 23  1  0  0  0  0
 23 27  1  0  0  0  0
 24 25  1  0  0  0  0
 24 23  1  0  0  0  0
 25 22  1  0  0  0  0
 26 22  1  0  0  0  0
 27 26  1  0  0  0  0
M  END
>  <MODEL>
3

>  <REMARK>
 VINA RESULT:      -6.7      2.399      5.477
  Name = 
  4 active torsions:
  status: ('A' for Active; 'I' for Inactive)
    1  A    between atoms: C_1  and  N_15
    2  A    between atoms: C_9  and  N_15
    3  A    between atoms: C_14  and  C_19
    4  A    between atoms: C_17  and  C_21
                            x       y       z     vdW  Elec       q    Type
                         _______ _______ _______ _____ _____    ______ ____

>  <TORSDO>
F 4

$$$$
=
 OpenBabel11052418323D

 27 30  0  0  1  0  0  0  0  0999 V2000
  188.0590  177.1520  142.1370 C   0  0  2  0  0  3  0  0  0  0  0  0
  189.4210  176.9780  142.4540 O   0  0  0  0  0  0  0  0  0  0  0  0
  188.2620  177.7940  144.3340 N   0  0  2  0  0  0  0  0  0  0  0  0
  185.6430  178.4460  144.8310 C   0  0  0  0  0  0  0  0  0  0  0  0
  187.6490  176.0240  146.0120 C   0  0  0  0  0  1  0  0  0  0  0  0
  184.5540  178.9640  145.0130 O   0  0  0  0  0  0  0  0  0  0  0  0
  187.3090  177.2130  143.4320 C   0  0  1  0  0  3  0  0  0  0  0  0
  189.5710  177.3650  143.8110 C   0  0  1  0  0  3  0  0  0  0  0  0
  186.5660  178.2730  146.0290 C   0  0  0  0  0  2  0  0  0  0  0  0
  185.0170  177.3440  142.8070 O   0  0  0  0  0  1  0  0  0  0  0  0
  186.0470  178.0640  143.4170 C   0  0  1  0  0  3  0  0  0  0  0  0
  187.8650  177.5110  145.7240 C   0  0  2  0  0  3  0  0  0  0  0  0
  191.7100  174.1890  144.6990 C   0  0  0  0  0  2  0  0  0  0  0  0
  192.2210  174.8600  145.9810 C   0  0  0  0  0  2  0  0  0  0  0  0
  192.4950  176.2170  145.7430 O   0  0  0  0  0  0  0  0  0  0  0  0
  190.2890  176.2760  144.6320 C   0  0  2  0  0  3  0  0  0  0  0  0
  191.2540  176.8900  145.6730 C   0  0  0  0  0  2  0  0  0  0  0  0
  190.9810  175.1850  143.7870 C   0  0  1  0  0  3  0  0  0  0  0  0
  192.3560  174.7400  141.7500 C   0  0  0  0  0  1  0  0  0  0  0  0
  191.9560  175.7830  142.7760 C   0  0  0  0  0  2  0  0  0  0  0  0
  187.5430  176.0970  141.2470 N   0  0  0  0  0  2  0  0  0  0  0  0
  189.6160  172.3760  140.8660 C   0  0  0  0  0  2  0  0  0  0  0  0
  188.3580  174.8730  141.1620 C   0  0  0  0  0  3  0  0  0  0  0  0
  187.9460  173.8190  142.1920 C   0  0  0  0  0  2  0  0  0  0  0  0
  188.9140  172.6280  142.2070 C   0  0  0  0  0  2  0  0  0  0  0  0
  188.7510  172.8160  139.6900 C   0  0  0  0  0  2  0  0  0  0  0  0
  188.5040  174.3270  139.7310 C   0  0  0  0  0  2  0  0  0  0  0  0
  1 21  1  6  0  0  0
  1  2  1  0  0  0  0
  1  7  1  0  0  0  0
  2  8  1  0  0  0  0
  3 12  1  0  0  0  0
  4  6  2  0  0  0  0
  4  9  1  0  0  0  0
  7  3  1  0  0  0  0
  8  3  1  0  0  0  0
  8 16  1  0  0  0  0
 10 11  1  0  0  0  0
 11  7  1  0  0  0  0
 11  4  1  0  0  0  0
 12  5  1  0  0  0  0
 12  9  1  0  0  0  0
 13 14  1  0  0  0  0
 15 14  1  0  0  0  0
 16 17  1  0  0  0  0
 17 15  1  0  0  0  0
 18 16  1  0  0  0  0
 18 13  1  0  0  0  0
 19 20  1  0  0  0  0
 20 18  1  0  0  0  0
 22 25  1  0  0  0  0
 23 21  1  0  0  0  0
 23 24  1  0  0  0  0
 24 25  1  0  0  0  0
 26 27  1  0  0  0  0
 26 22  1  0  0  0  0
 27 23  1  0  0  0  0
M  END
>  <MODEL>
4

>  <REMARK>
 VINA RESULT:      -6.4      1.904      6.759
  Name = 
  4 active torsions:
  status: ('A' for Active; 'I' for Inactive)
    1  A    between atoms: C_1  and  N_15
    2  A    between atoms: C_9  and  N_15
    3  A    between atoms: C_14  and  C_19
    4  A    between atoms: C_17  and  C_21
                            x       y       z     vdW  Elec       q    Type
                         _______ _______ _______ _____ _____    ______ ____

>  <TORSDO>
F 4

$$$$
=
 OpenBabel11052418323D

 27 30  0  0  1  0  0  0  0  0999 V2000
  191.3990  174.4530  142.7120 C   0  0  2  0  0  3  0  0  0  0  0  0
  190.6130  175.6200  142.7890 O   0  0  0  0  0  0  0  0  0  0  0  0
  189.7460  174.1810  141.1380 N   0  0  2  0  0  0  0  0  0  0  0  0
  190.4570  171.7020  140.1990 C   0  0  0  0  0  0  0  0  0  0  0  0
  187.7810  172.8100  141.8990 C   0  0  0  0  0  1  0  0  0  0  0  0
  190.8780  170.7260  139.6000 O   0  0  0  0  0  0  0  0  0  0  0  0
  190.5750  173.4100  142.0210 C   0  0  1  0  0  3  0  0  0  0  0  0
  189.5800  175.4730  141.8260 C   0  0  1  0  0  3  0  0  0  0  0  0
  189.0690  172.2200  139.8450 C   0  0  0  0  0  2  0  0  0  0  0  0
  191.9070  171.4390  142.0770 O   0  0  0  0  0  1  0  0  0  0  0  0
  191.3590  172.3880  141.2110 C   0  0  1  0  0  3  0  0  0  0  0  0
  188.5820  173.3800  140.7260 C   0  0  2  0  0  3  0  0  0  0  0  0
  186.7880  176.6440  144.3340 C   0  0  0  0  0  2  0  0  0  0  0  0
  185.8200  176.9070  143.1730 C   0  0  0  0  0  2  0  0  0  0  0  0
  186.5040  177.4890  142.0930 O   0  0  0  0  0  0  0  0  0  0  0  0
  188.1910  175.7200  142.4480 C   0  0  2  0  0  3  0  0  0  0  0  0
  187.2530  176.4650  141.4700 C   0  0  0  0  0  2  0  0  0  0  0  0
  188.2190  176.3930  143.8370 C   0  0  1  0  0  3  0  0  0  0  0  0
  189.7020  177.9160  145.1490 C   0  0  0  0  0  1  0  0  0  0  0  0
  189.0050  177.7020  143.8180 C   0  0  0  0  0  2  0  0  0  0  0  0
  191.8740  174.0000  144.0310 N   0  0  0  0  0  2  0  0  0  0  0  0
  190.1610  175.5730  147.6190 C   0  0  0  0  0  2  0  0  0  0  0  0
  191.2320  174.6310  145.1960 C   0  0  0  0  0  3  0  0  0  0  0  0
  190.0830  173.7920  145.7610 C   0  0  0  0  0  2  0  0  0  0  0  0
  189.3160  174.5430  146.8590 C   0  0  0  0  0  2  0  0  0  0  0  0
  191.6300  175.1650  147.6680 C   0  0  0  0  0  2  0  0  0  0  0  0
  192.2300  175.1220  146.2590 C   0  0  0  0  0  2  0  0  0  0  0  0
  1  2  1  0  0  0  0
  1 21  1  1  0  0  0
  3  8  1  0  0  0  0
  3  7  1  0  0  0  0
  4 11  1  0  0  0  0
  6  4  2  0  0  0  0
  7  1  1  0  0  0  0
  8 16  1  0  0  0  0
  8  2  1  0  0  0  0
  9  4  1  0  0  0  0
  9 12  1  0  0  0  0
 11  7  1  0  0  0  0
 11 10  1  0  0  0  0
 12  3  1  0  0  0  0
 12  5  1  0  0  0  0
 14 13  1  0  0  0  0
 15 14  1  0  0  0  0
 16 18  1  0  0  0  0
 17 15  1  0  0  0  0
 17 16  1  0  0  0  0
 18 13  1  0  0  0  0
 20 18  1  0  0  0  0
 20 19  1  0  0  0  0
 21 23  1  0  0  0  0
 22 26  1  0  0  0  0
 23 24  1  0  0  0  0
 23 27  1  0  0  0  0
 24 25  1  0  0  0  0
 25 22  1  0  0  0  0
 27 26  1  0  0  0  0
M  END
>  <MODEL>
5

>  <REMARK>
 VINA RESULT:      -6.3      2.425      3.924
  Name = 
  4 active torsions:
  status: ('A' for Active; 'I' for Inactive)
    1  A    between atoms: C_1  and  N_15
    2  A    between atoms: C_9  and  N_15
    3  A    between atoms: C_14  and  C_19
    4  A    between atoms: C_17  and  C_21
                            x       y       z     vdW  Elec       q    Type
                         _______ _______ _______ _____ _____    ______ ____

>  <TORSDO>
F 4

$$$$
=
 OpenBabel11052418323D

 27 30  0  0  1  0  0  0  0  0999 V2000
  192.8000  176.4180  144.4710 C   0  0  2  0  0  3  0  0  0  0  0  0
  191.8110  176.2400  143.4820 O   0  0  0  0  0  0  0  0  0  0  0  0
  193.6400  174.8230  143.0460 N   0  0  2  0  0  0  0  0  0  0  0  0
  196.0320  174.3460  144.3050 C   0  0  0  0  0  0  0  0  0  0  0  0
  193.3060  172.4490  143.8060 C   0  0  0  0  0  1  0  0  0  0  0  0
  197.1870  174.2850  144.6960 O   0  0  0  0  0  0  0  0  0  0  0  0
  193.6910  175.2150  144.4260 C   0  0  1  0  0  3  0  0  0  0  0  0
  192.3070  175.2530  142.5910 C   0  0  1  0  0  3  0  0  0  0  0  0
  195.5730  173.3400  143.2590 C   0  0  0  0  0  2  0  0  0  0  0  0
  195.2230  175.5200  146.2200 O   0  0  0  0  0  1  0  0  0  0  0  0
  195.1390  175.4580  144.8280 C   0  0  1  0  0  3  0  0  0  0  0  0
  194.0780  173.4230  142.9130 C   0  0  2  0  0  3  0  0  0  0  0  0
  188.9480  173.2130  142.7050 C   0  0  0  0  0  2  0  0  0  0  0  0
  189.2490  172.5930  141.3330 C   0  0  0  0  0  2  0  0  0  0  0  0
  189.8080  173.5570  140.4770 O   0  0  0  0  0  0  0  0  0  0  0  0
  191.2820  174.1220  142.3760 C   0  0  2  0  0  3  0  0  0  0  0  0
  191.1480  173.7520  140.8810 C   0  0  0  0  0  2  0  0  0  0  0  0
  189.9050  174.3690  143.0280 C   0  0  1  0  0  3  0  0  0  0  0  0
  187.8110  175.7240  142.8940 C   0  0  0  0  0  1  0  0  0  0  0  0
  189.2960  175.6960  142.5830 C   0  0  0  0  0  2  0  0  0  0  0  0
  192.2300  176.6370  145.8120 N   0  0  0  0  0  2  0  0  0  0  0  0
  188.1110  175.7890  146.5860 C   0  0  0  0  0  2  0  0  0  0  0  0
  190.8120  176.2770  145.9730 C   0  0  0  0  0  3  0  0  0  0  0  0
  190.5810  175.2960  147.1250 C   0  0  0  0  0  2  0  0  0  0  0  0
  189.1290  174.7980  147.1670 C   0  0  0  0  0  2  0  0  0  0  0  0
  188.5720  177.2310  146.7630 C   0  0  0  0  0  2  0  0  0  0  0  0
  189.8650  177.4900  145.9850 C   0  0  0  0  0  2  0  0  0  0  0  0
  1 21  1  1  0  0  0
  2  1  1  0  0  0  0
  3  7  1  0  0  0  0
  4  6  2  0  0  0  0
  4 11  1  0  0  0  0
  7  1  1  0  0  0  0
  7 11  1  0  0  0  0
  8  3  1  0  0  0  0
  8  2  1  0  0  0  0
  9  4  1  0  0  0  0
 11 10  1  0  0  0  0
 12  3  1  0  0  0  0
 12  9  1  0  0  0  0
 12  5  1  0  0  0  0
 13 18  1  0  0  0  0
 14 13  1  0  0  0  0
 15 17  1  0  0  0  0
 15 14  1  0  0  0  0
 16  8  1  0  0  0  0
 16 18  1  0  0  0  0
 17 16  1  0  0  0  0
 20 19  1  0  0  0  0
 20 18  1  0  0  0  0
 21 23  1  0  0  0  0
 22 26  1  0  0  0  0
 22 25  1  0  0  0  0
 23 27  1  0  0  0  0
 23 24  1  0  0  0  0
 24 25  1  0  0  0  0
 27 26  1  0  0  0  0
M  END
>  <MODEL>
6

>  <REMARK>
 VINA RESULT:      -6.1      3.161      5.044
  Name = 
  4 active torsions:
  status: ('A' for Active; 'I' for Inactive)
    1  A    between atoms: C_1  and  N_15
    2  A    between atoms: C_9  and  N_15
    3  A    between atoms: C_14  and  C_19
    4  A    between atoms: C_17  and  C_21
                            x       y       z     vdW  Elec       q    Type
                         _______ _______ _______ _____ _____    ______ ____

>  <TORSDO>
F 4

$$$$
=
 OpenBabel11052418323D

 27 30  0  0  1  0  0  0  0  0999 V2000
  189.0730  175.2680  144.0340 C   0  0  2  0  0  3  0  0  0  0  0  0
  187.8070  175.5880  144.5650 O   0  0  0  0  0  0  0  0  0  0  0  0
  189.4060  175.5260  146.2930 N   0  0  2  0  0  0  0  0  0  0  0  0
  192.1060  175.0440  146.3830 C   0  0  0  0  0  0  0  0  0  0  0  0
  190.2630  177.7870  146.9820 C   0  0  0  0  0  1  0  0  0  0  0  0
  193.2400  174.6050  146.4930 O   0  0  0  0  0  0  0  0  0  0  0  0
  190.0950  175.6880  145.0450 C   0  0  1  0  0  3  0  0  0  0  0  0
  187.9890  175.7560  145.9630 C   0  0  1  0  0  3  0  0  0  0  0  0
  191.4640  175.6890  147.6040 C   0  0  0  0  0  2  0  0  0  0  0  0
  192.1940  175.2640  144.0080 O   0  0  0  0  0  1  0  0  0  0  0  0
  191.3740  174.8640  145.0640 C   0  0  1  0  0  3  0  0  0  0  0  0
  190.0830  176.3100  147.3390 C   0  0  2  0  0  3  0  0  0  0  0  0
  186.0940  179.2010  145.9600 C   0  0  0  0  0  2  0  0  0  0  0  0
  185.6760  179.0010  147.4230 C   0  0  0  0  0  2  0  0  0  0  0  0
  185.3190  177.6610  147.6470 O   0  0  0  0  0  0  0  0  0  0  0  0
  187.4040  177.0970  146.4490 C   0  0  2  0  0  3  0  0  0  0  0  0
  186.5150  176.9100  147.7010 C   0  0  0  0  0  2  0  0  0  0  0  0
  186.6860  177.9190  145.3570 C   0  0  1  0  0  3  0  0  0  0  0  0
  184.5570  178.0380  144.0560 C   0  0  0  0  0  1  0  0  0  0  0  0
  185.5920  177.1100  144.6640 C   0  0  0  0  0  2  0  0  0  0  0  0
  189.3090  175.8850  142.7160 N   0  0  0  0  0  2  0  0  0  0  0  0
  186.1370  177.8430  140.6220 C   0  0  0  0  0  2  0  0  0  0  0  0
  188.1430  176.5310  142.0920 C   0  0  0  0  0  3  0  0  0  0  0  0
  188.2620  178.0560  142.0610 C   0  0  0  0  0  2  0  0  0  0  0  0
  186.9670  178.7190  141.5700 C   0  0  0  0  0  2  0  0  0  0  0  0
  187.0210  176.8940  139.8200 C   0  0  0  0  0  2  0  0  0  0  0  0
  187.7390  175.9070  140.7450 C   0  0  0  0  0  2  0  0  0  0  0  0
  1 21  1  6  0  0  0
  1  2  1  0  0  0  0
  1  7  1  0  0  0  0
  2  8  1  0  0  0  0
  3 12  1  0  0  0  0
  4  6  2  0  0  0  0
  4  9  1  0  0  0  0
  5 12  1  0  0  0  0
  7 11  1  0  0  0  0
  7  3  1  0  0  0  0
  8  3  1  0  0  0  0
  8 16  1  0  0  0  0
 10 11  1  0  0  0  0
 11  4  1  0  0  0  0
 12  9  1  0  0  0  0
 13 14  1  0  0  0  0
 14 15  1  0  0  0  0
 15 17  1  0  0  0  0
 16 17  1  0  0  0  0
 18 13  1  0  0  0  0
 18 16  1  0  0  0  0
 19 20  1  0  0  0  0
 20 18  1  0  0  0  0
 22 25  1  0  0  0  0
 23 21  1  0  0  0  0
 24 23  1  0  0  0  0
 25 24  1  0  0  0  0
 26 22  1  0  0  0  0
 26 27  1  0  0  0  0
 27 23  1  0  0  0  0
M  END
>  <MODEL>
7

>  <REMARK>
 VINA RESULT:      -6.1      2.059      4.943
  Name = 
  4 active torsions:
  status: ('A' for Active; 'I' for Inactive)
    1  A    between atoms: C_1  and  N_15
    2  A    between atoms: C_9  and  N_15
    3  A    between atoms: C_14  and  C_19
    4  A    between atoms: C_17  and  C_21
                            x       y       z     vdW  Elec       q    Type
                         _______ _______ _______ _____ _____    ______ ____

>  <TORSDO>
F 4

$$$$
=
 OpenBabel11052418323D

 27 30  0  0  1  0  0  0  0  0999 V2000
  189.1990  175.0330  143.9220 C   0  0  2  0  0  3  0  0  0  0  0  0
  190.1170  174.8330  144.9730 O   0  0  0  0  0  0  0  0  0  0  0  0
  190.9500  173.8740  142.9900 N   0  0  2  0  0  0  0  0  0  0  0  0
  190.0240  173.7050  140.4120 C   0  0  0  0  0  0  0  0  0  0  0  0
  192.6390  175.3000  141.7900 C   0  0  0  0  0  1  0  0  0  0  0  0
  189.5420  173.4050  139.3320 O   0  0  0  0  0  0  0  0  0  0  0  0
  189.9460  174.8380  142.6390 C   0  0  1  0  0  3  0  0  0  0  0  0
  191.2120  174.1200  144.4190 C   0  0  1  0  0  3  0  0  0  0  0  0
  191.4950  173.3940  140.6550 C   0  0  0  0  0  2  0  0  0  0  0  0
  188.3730  175.3500  140.9290 O   0  0  0  0  0  1  0  0  0  0  0  0
  189.1220  174.3060  141.4760 C   0  0  1  0  0  3  0  0  0  0  0  0
  192.0380  173.9080  141.9970 C   0  0  2  0  0  3  0  0  0  0  0  0
  193.8850  176.4140  146.1640 C   0  0  0  0  0  2  0  0  0  0  0  0
  194.9950  175.4000  145.8550 C   0  0  0  0  0  2  0  0  0  0  0  0
  194.5220  174.0910  146.0440 O   0  0  0  0  0  0  0  0  0  0  0  0
  192.5530  174.8110  144.7380 C   0  0  2  0  0  3  0  0  0  0  0  0
  193.6890  173.7820  144.9450 C   0  0  0  0  0  2  0  0  0  0  0  0
  192.4910  175.8320  145.8930 C   0  0  1  0  0  3  0  0  0  0  0  0
  191.1550  176.2540  147.9610 C   0  0  0  0  0  1  0  0  0  0  0  0
  191.9230  175.2140  147.1690 C   0  0  0  0  0  2  0  0  0  0  0  0
  188.5410  176.3510  143.9860 N   0  0  0  0  0  2  0  0  0  0  0  0
  185.1720  176.9850  146.5420 C   0  0  0  0  0  2  0  0  0  0  0  0
  187.3840  176.4460  144.8920 C   0  0  0  0  0  3  0  0  0  0  0  0
  187.7170  177.1720  146.1970 C   0  0  0  0  0  2  0  0  0  0  0  0
  186.5540  177.1080  147.1970 C   0  0  0  0  0  2  0  0  0  0  0  0
  185.1430  177.6510  145.1700 C   0  0  0  0  0  2  0  0  0  0  0  0
  186.1030  176.9510  144.2040 C   0  0  0  0  0  2  0  0  0  0  0  0
  1 21  1  6  0  0  0
  1  2  1  0  0  0  0
  3  8  1  0  0  0  0
  4  9  1  0  0  0  0
  4 11  1  0  0  0  0
  5 12  1  0  0  0  0
  6  4  2  0  0  0  0
  7  3  1  0  0  0  0
  7  1  1  0  0  0  0
  8 16  1  0  0  0  0
  8  2  1  0  0  0  0
  9 12  1  0  0  0  0
 10 11  1  0  0  0  0
 11  7  1  0  0  0  0
 12  3  1  0  0  0  0
 14 15  1  0  0  0  0
 14 13  1  0  0  0  0
 16 17  1  0  0  0  0
 16 18  1  0  0  0  0
 17 15  1  0  0  0  0
 18 13  1  0  0  0  0
 18 20  1  0  0  0  0
 20 19  1  0  0  0  0
 21 23  1  0  0  0  0
 22 25  1  0  0  0  0
 23 24  1  0  0  0  0
 24 25  1  0  0  0  0
 26 22  1  0  0  0  0
 27 23  1  0  0  0  0
 27 26  1  0  0  0  0
M  END
>  <MODEL>
8

>  <REMARK>
 VINA RESULT:      -6.1      2.577      5.742
  Name = 
  4 active torsions:
  status: ('A' for Active; 'I' for Inactive)
    1  A    between atoms: C_1  and  N_15
    2  A    between atoms: C_9  and  N_15
    3  A    between atoms: C_14  and  C_19
    4  A    between atoms: C_17  and  C_21
                            x       y       z     vdW  Elec       q    Type
                         _______ _______ _______ _____ _____    ______ ____

>  <TORSDO>
F 4

$$$$
=
 OpenBabel11052418323D

 27 30  0  0  1  0  0  0  0  0999 V2000
  190.2100  176.9310  145.0030 C   0  0  2  0  0  3  0  0  0  0  0  0
  189.6150  176.6440  143.7580 O   0  0  0  0  0  0  0  0  0  0  0  0
  191.7460  175.6480  143.8740 N   0  0  2  0  0  0  0  0  0  0  0  0
  193.7070  175.5470  145.7920 C   0  0  0  0  0  0  0  0  0  0  0  0
  191.7080  173.2020  144.4550 C   0  0  0  0  0  1  0  0  0  0  0  0
  194.6820  175.6810  146.5130 O   0  0  0  0  0  0  0  0  0  0  0  0
  191.3060  175.9320  145.2100 C   0  0  1  0  0  3  0  0  0  0  0  0
  190.5460  175.8470  143.0420 C   0  0  1  0  0  3  0  0  0  0  0  0
  193.7970  174.5570  144.6380 C   0  0  0  0  0  2  0  0  0  0  0  0
  192.1450  176.3850  147.3900 O   0  0  0  0  0  1  0  0  0  0  0  0
  192.4870  176.4190  146.0370 C   0  0  1  0  0  3  0  0  0  0  0  0
  192.4870  174.3760  143.8560 C   0  0  2  0  0  3  0  0  0  0  0  0
  187.8170  173.3240  141.7610 C   0  0  0  0  0  2  0  0  0  0  0  0
  188.8320  172.6660  140.8170 C   0  0  0  0  0  2  0  0  0  0  0  0
  189.6490  173.6430  140.2250 O   0  0  0  0  0  0  0  0  0  0  0  0
  189.8910  174.5580  142.5070 C   0  0  2  0  0  3  0  0  0  0  0  0
  190.5720  174.0700  141.2070 C   0  0  0  0  0  2  0  0  0  0  0  0
  188.3570  174.6330  142.3540 C   0  0  1  0  0  3  0  0  0  0  0  0
  186.6400  176.4160  142.0170 C   0  0  0  0  0  1  0  0  0  0  0  0
  187.9290  175.8170  141.4880 C   0  0  0  0  0  2  0  0  0  0  0  0
  189.2390  176.9270  146.1120 N   0  0  0  0  0  2  0  0  0  0  0  0
  185.1150  177.5540  145.1710 C   0  0  0  0  0  2  0  0  0  0  0  0
  187.8230  177.0350  145.7240 C   0  0  0  0  0  3  0  0  0  0  0  0
  186.8710  176.8110  146.9020 C   0  0  0  0  0  2  0  0  0  0  0  0
  185.4060  176.7530  146.4470 C   0  0  0  0  0  2  0  0  0  0  0  0
  186.0510  178.7500  145.0370 C   0  0  0  0  0  2  0  0  0  0  0  0
  187.5040  178.2910  144.8930 C   0  0  0  0  0  2  0  0  0  0  0  0
  1  7  1  0  0  0  0
  1 21  1  1  0  0  0
  2  1  1  0  0  0  0
  3  7  1  0  0  0  0
  4 11  1  0  0  0  0
  4  6  2  0  0  0  0
  7 11  1  0  0  0  0
  8  2  1  0  0  0  0
  8  3  1  0  0  0  0
  9  4  1  0  0  0  0
 11 10  1  0  0  0  0
 12  3  1  0  0  0  0
 12  5  1  0  0  0  0
 12  9  1  0  0  0  0
 13 18  1  0  0  0  0
 14 13  1  0  0  0  0
 15 14  1  0  0  0  0
 15 17  1  0  0  0  0
 16  8  1  0  0  0  0
 17 16  1  0  0  0  0
 18 16  1  0  0  0  0
 20 19  1  0  0  0  0
 20 18  1  0  0  0  0
 22 25  1  0  0  0  0
 23 21  1  0  0  0  0
 23 24  1  0  0  0  0
 25 24  1  0  0  0  0
 26 22  1  0  0  0  0
 27 26  1  0  0  0  0
 27 23  1  0  0  0  0
M  END
>  <MODEL>
9

>  <REMARK>
 VINA RESULT:      -6.0      2.107      3.857
  Name = 
  4 active torsions:
  status: ('A' for Active; 'I' for Inactive)
    1  A    between atoms: C_1  and  N_15
    2  A    between atoms: C_9  and  N_15
    3  A    between atoms: C_14  and  C_19
    4  A    between atoms: C_17  and  C_21
                            x       y       z     vdW  Elec       q    Type
                         _______ _______ _______ _____ _____    ______ ____

>  <TORSDO>
F 4

$$$$
