=
 OpenBabel11052419183D

 32 34  0  0  1  0  0  0  0  0999 V2000
  189.8440  176.0750  142.7580 C   0  0  0  0  0  3  0  0  0  0  0  0
  191.1720  175.6770  142.5920 C   0  0  0  0  0  0  0  0  0  0  0  0
  188.8050  175.3400  142.1740 C   0  0  0  0  0  0  0  0  0  0  0  0
  189.1210  174.1900  141.4080 C   0  0  0  0  0  0  0  0  0  0  0  0
  190.4660  173.8390  141.2610 C   0  0  0  0  0  3  0  0  0  0  0  0
  191.4480  174.5730  141.8460 N   0  0  0  0  0  0  0  0  0  0  0  0
  187.4020  175.8360  142.3500 C   0  0  2  0  0  3  0  0  0  0  0  0
  187.1610  177.1180  141.5450 C   0  0  0  0  0  2  0  0  0  0  0  0
  184.8790  177.8780  146.0250 C   0  0  0  0  0  3  0  0  0  0  0  0
  187.0970  176.0240  143.7730 N   0  0  0  0  0  0  0  0  0  0  0  0
  184.5140  178.5460  143.6950 C   0  0  0  0  0  3  0  0  0  0  0  0
  185.4480  177.7080  143.2370 C   0  0  0  0  0  0  0  0  0  0  0  0
  185.7310  177.6080  141.7700 C   0  0  0  0  0  2  0  0  0  0  0  0
  186.1770  176.8420  144.1890 C   0  0  0  0  0  0  0  0  0  0  0  0
  184.2200  178.6380  145.1420 C   0  0  0  0  0  3  0  0  0  0  0  0
  185.8870  176.9570  145.5850 N   0  0  0  0  0  2  0  0  0  0  0  0
  192.2710  176.4460  143.2000 C   0  0  0  0  0  0  0  0  0  0  0  0
  193.4190  176.4130  142.6830 O   0  0  0  0  0  0  0  0  0  0  0  0
  192.0600  177.2490  144.4470 C   0  0  0  0  0  2  0  0  0  0  0  0
  190.7970  176.4290  146.4560 C   0  0  0  0  0  0  0  0  0  0  0  0
  190.0520  177.4450  146.4390 O   0  0  0  0  0  0  0  0  0  0  0  0
  191.9550  176.3680  145.6040 N   0  0  0  0  0  0  0  0  0  0  0  0
  190.4240  175.2770  147.3270 C   0  0  0  0  0  2  0  0  0  0  0  0
  189.2680  174.5190  146.7050 C   0  0  0  0  0  1  0  0  0  0  0  0
  192.9810  175.3480  145.7890 C   0  0  0  0  0  2  0  0  0  0  0  0
  193.8700  177.1020  147.1110 F   0  0  0  0  0  0  0  0  0  0  0  0
  195.1730  176.2470  145.4690 O   0  0  0  0  0  1  0  0  0  0  0  0
  194.2190  175.9450  146.4410 C   0  0  2  0  0  3  0  0  0  0  0  0
  188.1740  173.3760  140.7640 O   0  0  0  0  0  0  0  0  0  0  0  0
  188.2980  172.8480  139.4480 C   0  0  0  0  0  2  0  0  0  0  0  0
  189.3650  173.8840  137.4520 C   0  0  0  0  0  1  0  0  0  0  0  0
  188.1960  173.9570  138.4140 C   0  0  0  0  0  2  0  0  0  0  0  0
  2  1  1  0  0  0  0
  2 17  1  0  0  0  0
  3  1  2  0  0  0  0
  4  3  1  0  0  0  0
  5  4  2  0  0  0  0
  5  6  1  0  0  0  0
  6  2  2  0  0  0  0
  7  3  1  1  0  0  0
  7 10  1  0  0  0  0
  8 13  1  0  0  0  0
  8  7  1  0  0  0  0
 10 14  2  0  0  0  0
 11 15  1  0  0  0  0
 12 11  2  0  0  0  0
 12 14  1  0  0  0  0
 13 12  1  0  0  0  0
 14 16  1  0  0  0  0
 15  9  2  0  0  0  0
 16  9  1  0  0  0  0
 17 19  1  0  0  0  0
 18 17  2  0  0  0  0
 19 22  1  0  0  0  0
 20 23  1  0  0  0  0
 21 20  2  0  0  0  0
 22 25  1  0  0  0  0
 22 20  1  0  0  0  0
 24 23  1  0  0  0  0
 25 28  1  0  0  0  0
 28 27  1  6  0  0  0
 28 26  1  0  0  0  0
 29  4  1  0  0  0  0
 30 29  1  0  0  0  0
 31 32  1  0  0  0  0
 32 30  1  0  0  0  0
M  END
>  <MODEL>
1

>  <REMARK>
 VINA RESULT:      -6.8      0.000      0.000
  Name = 
  10 active torsions:
  status: ('A' for Active; 'I' for Inactive)
    1  A    between atoms: C_2  and  C_5
    2  A    between atoms: C_3  and  C_22
    3  A    between atoms: C_4  and  C_24
    4  A    between atoms: C_13  and  O_18
    5  A    between atoms: C_13  and  C_29
    6  A    between atoms: C_14  and  O_18
    7  A    between atoms: C_15  and  N_20
    8  A    between atoms: C_15  and  C_26
    9  A    between atoms: C_16  and  N_20
   10  A    between atoms: C_16  and  C_24
                            x       y       z     vdW  Elec       q    Type
                         _______ _______ _______ _____ _____    ______ ____

>  <TORSDO>
F 10

$$$$
=
 OpenBabel11052419183D

 32 34  0  0  1  0  0  0  0  0999 V2000
  188.8860  175.5430  142.8590 C   0  0  0  0  0  3  0  0  0  0  0  0
  189.6240  174.8390  141.9050 C   0  0  0  0  0  0  0  0  0  0  0  0
  189.5370  176.2530  143.8750 C   0  0  0  0  0  0  0  0  0  0  0  0
  190.9540  176.2430  143.9250 C   0  0  0  0  0  0  0  0  0  0  0  0
  191.6470  175.5140  142.9540 C   0  0  0  0  0  3  0  0  0  0  0  0
  190.9820  174.8390  141.9800 N   0  0  0  0  0  0  0  0  0  0  0  0
  188.6960  176.9560  144.8970 C   0  0  2  0  0  3  0  0  0  0  0  0
  188.1570  175.9760  145.9430 C   0  0  0  0  0  2  0  0  0  0  0  0
  184.2810  179.0900  144.8800 C   0  0  0  0  0  3  0  0  0  0  0  0
  187.6130  177.7030  144.2460 N   0  0  0  0  0  0  0  0  0  0  0  0
  185.0970  177.8510  146.8310 C   0  0  0  0  0  3  0  0  0  0  0  0
  186.2460  177.5280  146.2310 C   0  0  0  0  0  0  0  0  0  0  0  0
  187.2830  176.7220  146.9500 C   0  0  0  0  0  2  0  0  0  0  0  0
  186.5090  178.0100  144.8570 C   0  0  0  0  0  0  0  0  0  0  0  0
  184.0750  178.6580  146.1310 C   0  0  0  0  0  3  0  0  0  0  0  0
  185.5010  178.7770  144.1930 N   0  0  0  0  0  2  0  0  0  0  0  0
  188.9480  174.0860  140.8340 C   0  0  0  0  0  0  0  0  0  0  0  0
  188.5240  174.6920  139.8140 O   0  0  0  0  0  0  0  0  0  0  0  0
  188.7220  172.6100  140.9460 C   0  0  0  0  0  2  0  0  0  0  0  0
  190.5590  171.1310  141.8100 C   0  0  0  0  0  0  0  0  0  0  0  0
  190.2200  171.3570  143.0020 O   0  0  0  0  0  0  0  0  0  0  0  0
  189.9730  171.8890  140.7370 N   0  0  0  0  0  0  0  0  0  0  0  0
  191.5280  170.0320  141.5320 C   0  0  0  0  0  2  0  0  0  0  0  0
  190.8140  168.6950  141.5830 C   0  0  0  0  0  1  0  0  0  0  0  0
  190.5290  171.8530  139.3880 C   0  0  0  0  0  2  0  0  0  0  0  0
  189.5790  169.8330  138.5940 F   0  0  0  0  0  0  0  0  0  0  0  0
  189.9020  171.5100  137.1070 O   0  0  0  0  0  1  0  0  0  0  0  0
  189.5500  171.2040  138.4220 C   0  0  2  0  0  3  0  0  0  0  0  0
  191.7220  176.9040  144.8970 O   0  0  0  0  0  0  0  0  0  0  0  0
  192.6020  176.2750  145.8230 C   0  0  0  0  0  2  0  0  0  0  0  0
  191.2690  176.3840  147.9220 C   0  0  0  0  0  1  0  0  0  0  0  0
  191.8170  175.4700  146.8450 C   0  0  0  0  0  2  0  0  0  0  0  0
  1  3  1  0  0  0  0
  2  6  1  0  0  0  0
  2  1  2  0  0  0  0
  3  4  2  0  0  0  0
  4 29  1  0  0  0  0
  5  4  1  0  0  0  0
  6  5  2  0  0  0  0
  7  3  1  6  0  0  0
  7  8  1  0  0  0  0
  8 13  1  0  0  0  0
  9 15  2  0  0  0  0
 10 14  2  0  0  0  0
 10  7  1  0  0  0  0
 12 11  2  0  0  0  0
 12 13  1  0  0  0  0
 14 12  1  0  0  0  0
 15 11  1  0  0  0  0
 16 14  1  0  0  0  0
 16  9  1  0  0  0  0
 17 19  1  0  0  0  0
 17  2  1  0  0  0  0
 18 17  2  0  0  0  0
 20 21  2  0  0  0  0
 22 19  1  0  0  0  0
 22 20  1  0  0  0  0
 23 24  1  0  0  0  0
 23 20  1  0  0  0  0
 25 22  1  0  0  0  0
 28 27  1  6  0  0  0
 28 26  1  0  0  0  0
 28 25  1  0  0  0  0
 29 30  1  0  0  0  0
 30 32  1  0  0  0  0
 32 31  1  0  0  0  0
M  END
>  <MODEL>
2

>  <REMARK>
 VINA RESULT:      -6.5      3.083      6.252
  Name = 
  10 active torsions:
  status: ('A' for Active; 'I' for Inactive)
    1  A    between atoms: C_2  and  C_5
    2  A    between atoms: C_3  and  C_22
    3  A    between atoms: C_4  and  C_24
    4  A    between atoms: C_13  and  O_18
    5  A    between atoms: C_13  and  C_29
    6  A    between atoms: C_14  and  O_18
    7  A    between atoms: C_15  and  N_20
    8  A    between atoms: C_15  and  C_26
    9  A    between atoms: C_16  and  N_20
   10  A    between atoms: C_16  and  C_24
                            x       y       z     vdW  Elec       q    Type
                         _______ _______ _______ _____ _____    ______ ____

>  <TORSDO>
F 10

$$$$
=
 OpenBabel11052419183D

 32 34  0  0  1  0  0  0  0  0999 V2000
  188.9150  175.8370  142.2410 C   0  0  0  0  0  3  0  0  0  0  0  0
  188.0300  176.0710  141.1850 C   0  0  0  0  0  0  0  0  0  0  0  0
  189.7960  174.7520  142.1990 C   0  0  0  0  0  0  0  0  0  0  0  0
  189.7760  173.8890  141.0740 C   0  0  0  0  0  0  0  0  0  0  0  0
  188.8650  174.1570  140.0490 C   0  0  0  0  0  3  0  0  0  0  0  0
  188.0260  175.2230  140.1210 N   0  0  0  0  0  0  0  0  0  0  0  0
  190.6950  174.5240  143.3780 C   0  0  2  0  0  3  0  0  0  0  0  0
  189.9560  174.7770  144.6960 C   0  0  0  0  0  2  0  0  0  0  0  0
  194.5570  176.8570  145.2950 C   0  0  0  0  0  3  0  0  0  0  0  0
  191.9060  175.3460  143.2670 N   0  0  0  0  0  0  0  0  0  0  0  0
  192.8970  175.7480  146.7160 C   0  0  0  0  0  3  0  0  0  0  0  0
  192.1580  175.3640  145.6710 C   0  0  0  0  0  0  0  0  0  0  0  0
  190.9090  174.5640  145.8710 C   0  0  0  0  0  2  0  0  0  0  0  0
  192.6080  175.6980  144.3020 C   0  0  0  0  0  0  0  0  0  0  0  0
  194.1400  176.5250  146.5230 C   0  0  0  0  0  3  0  0  0  0  0  0
  193.8050  176.4630  144.1390 N   0  0  0  0  0  2  0  0  0  0  0  0
  187.0960  177.2090  141.2220 C   0  0  0  0  0  0  0  0  0  0  0  0
  186.2170  177.3270  140.3270 O   0  0  0  0  0  0  0  0  0  0  0  0
  187.1880  178.2550  142.2900 C   0  0  0  0  0  2  0  0  0  0  0  0
  187.2760  177.8550  144.7680 C   0  0  0  0  0  0  0  0  0  0  0  0
  188.5300  177.9880  144.7740 O   0  0  0  0  0  0  0  0  0  0  0  0
  186.5650  177.7790  143.5200 N   0  0  0  0  0  0  0  0  0  0  0  0
  186.5470  177.8390  146.0690 C   0  0  0  0  0  2  0  0  0  0  0  0
  187.0090  176.6570  146.8990 C   0  0  0  0  0  1  0  0  0  0  0  0
  185.1700  177.3550  143.4650 C   0  0  0  0  0  2  0  0  0  0  0  0
  183.6370  178.9030  144.3960 F   0  0  0  0  0  0  0  0  0  0  0  0
  183.2870  178.2130  142.2680 O   0  0  0  0  0  1  0  0  0  0  0  0
  184.2570  178.5450  143.2140 C   0  0  2  0  0  3  0  0  0  0  0  0
  190.6000  172.7620  140.9180 O   0  0  0  0  0  0  0  0  0  0  0  0
  190.1810  171.4080  141.0500 C   0  0  0  0  0  2  0  0  0  0  0  0
  191.8890  171.0630  142.8280 C   0  0  0  0  0  1  0  0  0  0  0  0
  190.4250  170.9080  142.4640 C   0  0  0  0  0  2  0  0  0  0  0  0
  2 17  1  0  0  0  0
  2  1  2  0  0  0  0
  3  1  1  0  0  0  0
  4  3  2  0  0  0  0
  5  6  2  0  0  0  0
  5  4  1  0  0  0  0
  6  2  1  0  0  0  0
  7  3  1  6  0  0  0
  7  8  1  0  0  0  0
  8 13  1  0  0  0  0
  9 15  2  0  0  0  0
 10  7  1  0  0  0  0
 10 14  2  0  0  0  0
 12 13  1  0  0  0  0
 12 11  2  0  0  0  0
 14 12  1  0  0  0  0
 15 11  1  0  0  0  0
 16 14  1  0  0  0  0
 16  9  1  0  0  0  0
 17 19  1  0  0  0  0
 18 17  2  0  0  0  0
 19 22  1  0  0  0  0
 20 21  2  0  0  0  0
 20 23  1  0  0  0  0
 22 20  1  0  0  0  0
 23 24  1  0  0  0  0
 25 22  1  0  0  0  0
 28 27  1  6  0  0  0
 28 25  1  0  0  0  0
 28 26  1  0  0  0  0
 29 30  1  0  0  0  0
 29  4  1  0  0  0  0
 30 32  1  0  0  0  0
 32 31  1  0  0  0  0
M  END
>  <MODEL>
3

>  <REMARK>
 VINA RESULT:      -6.5      2.997      6.508
  Name = 
  10 active torsions:
  status: ('A' for Active; 'I' for Inactive)
    1  A    between atoms: C_2  and  C_5
    2  A    between atoms: C_3  and  C_22
    3  A    between atoms: C_4  and  C_24
    4  A    between atoms: C_13  and  O_18
    5  A    between atoms: C_13  and  C_29
    6  A    between atoms: C_14  and  O_18
    7  A    between atoms: C_15  and  N_20
    8  A    between atoms: C_15  and  C_26
    9  A    between atoms: C_16  and  N_20
   10  A    between atoms: C_16  and  C_24
                            x       y       z     vdW  Elec       q    Type
                         _______ _______ _______ _____ _____    ______ ____

>  <TORSDO>
F 10

$$$$
=
 OpenBabel11052419183D

 32 34  0  0  1  0  0  0  0  0999 V2000
  189.2160  175.5780  142.9570 C   0  0  0  0  0  3  0  0  0  0  0  0
  190.0260  174.8830  142.0560 C   0  0  0  0  0  0  0  0  0  0  0  0
  189.7850  176.2740  144.0300 C   0  0  0  0  0  0  0  0  0  0  0  0
  191.1930  176.2590  144.1920 C   0  0  0  0  0  0  0  0  0  0  0  0
  191.9600  175.5400  143.2710 C   0  0  0  0  0  3  0  0  0  0  0  0
  191.3740  174.8800  142.2390 N   0  0  0  0  0  0  0  0  0  0  0  0
  188.8660  176.9670  144.9900 C   0  0  2  0  0  3  0  0  0  0  0  0
  188.2000  175.9680  145.9410 C   0  0  0  0  0  2  0  0  0  0  0  0
  184.5350  179.2360  144.6220 C   0  0  0  0  0  3  0  0  0  0  0  0
  187.8740  177.7690  144.2650 N   0  0  0  0  0  0  0  0  0  0  0  0
  185.1190  177.9040  146.5950 C   0  0  0  0  0  3  0  0  0  0  0  0
  186.3130  177.5670  146.0990 C   0  0  0  0  0  0  0  0  0  0  0  0
  187.2510  176.7050  146.8850 C   0  0  0  0  0  2  0  0  0  0  0  0
  186.7230  178.0880  144.7770 C   0  0  0  0  0  0  0  0  0  0  0  0
  184.1940  178.7670  145.8290 C   0  0  0  0  0  3  0  0  0  0  0  0
  185.8080  178.9090  144.0460 N   0  0  0  0  0  2  0  0  0  0  0  0
  189.4360  174.1460  140.9260 C   0  0  0  0  0  0  0  0  0  0  0  0
  188.1890  173.9720  140.8740 O   0  0  0  0  0  0  0  0  0  0  0  0
  190.2940  173.5650  139.8440 C   0  0  0  0  0  2  0  0  0  0  0  0
  189.5250  171.5930  138.4940 C   0  0  0  0  0  0  0  0  0  0  0  0
  188.9440  172.3470  137.6690 O   0  0  0  0  0  0  0  0  0  0  0  0
  190.0510  172.1330  139.7190 N   0  0  0  0  0  0  0  0  0  0  0  0
  189.7060  170.1530  138.1500 C   0  0  0  0  0  2  0  0  0  0  0  0
  190.4720  170.0300  136.8470 C   0  0  0  0  0  1  0  0  0  0  0  0
  190.4790  171.2640  140.8100 C   0  0  0  0  0  2  0  0  0  0  0  0
  192.5270  170.1530  140.3780 F   0  0  0  0  0  0  0  0  0  0  0  0
  192.3440  171.3300  142.3040 O   0  0  0  0  0  1  0  0  0  0  0  0
  191.9930  171.2900  140.9540 C   0  0  2  0  0  3  0  0  0  0  0  0
  191.8830  176.9070  145.2310 O   0  0  0  0  0  0  0  0  0  0  0  0
  192.7890  176.2830  146.1350 C   0  0  0  0  0  2  0  0  0  0  0  0
  191.2350  175.8020  148.0190 C   0  0  0  0  0  1  0  0  0  0  0  0
  192.0890  175.1910  146.9250 C   0  0  0  0  0  2  0  0  0  0  0  0
  1  3  1  0  0  0  0
  2  6  1  0  0  0  0
  2  1  2  0  0  0  0
  3  4  2  0  0  0  0
  4 29  1  0  0  0  0
  5  4  1  0  0  0  0
  6  5  2  0  0  0  0
  7  3  1  6  0  0  0
  7  8  1  0  0  0  0
  8 13  1  0  0  0  0
  9 15  2  0  0  0  0
 10 14  2  0  0  0  0
 10  7  1  0  0  0  0
 12 11  2  0  0  0  0
 12 13  1  0  0  0  0
 14 12  1  0  0  0  0
 15 11  1  0  0  0  0
 16  9  1  0  0  0  0
 16 14  1  0  0  0  0
 17  2  1  0  0  0  0
 18 17  2  0  0  0  0
 19 17  1  0  0  0  0
 20 22  1  0  0  0  0
 21 20  2  0  0  0  0
 22 19  1  0  0  0  0
 22 25  1  0  0  0  0
 23 20  1  0  0  0  0
 24 23  1  0  0  0  0
 25 28  1  0  0  0  0
 28 26  1  1  0  0  0
 28 27  1  0  0  0  0
 29 30  1  0  0  0  0
 30 32  1  0  0  0  0
 32 31  1  0  0  0  0
M  END
>  <MODEL>
4

>  <REMARK>
 VINA RESULT:      -6.4      2.758      6.311
  Name = 
  10 active torsions:
  status: ('A' for Active; 'I' for Inactive)
    1  A    between atoms: C_2  and  C_5
    2  A    between atoms: C_3  and  C_22
    3  A    between atoms: C_4  and  C_24
    4  A    between atoms: C_13  and  O_18
    5  A    between atoms: C_13  and  C_29
    6  A    between atoms: C_14  and  O_18
    7  A    between atoms: C_15  and  N_20
    8  A    between atoms: C_15  and  C_26
    9  A    between atoms: C_16  and  N_20
   10  A    between atoms: C_16  and  C_24
                            x       y       z     vdW  Elec       q    Type
                         _______ _______ _______ _____ _____    ______ ____

>  <TORSDO>
F 10

$$$$
=
 OpenBabel11052419183D

 32 34  0  0  1  0  0  0  0  0999 V2000
  189.4160  175.2940  142.1360 C   0  0  0  0  0  3  0  0  0  0  0  0
  188.3030  175.4770  141.3120 C   0  0  0  0  0  0  0  0  0  0  0  0
  190.4030  174.3610  141.7970 C   0  0  0  0  0  0  0  0  0  0  0  0
  190.2540  173.6010  140.6090 C   0  0  0  0  0  0  0  0  0  0  0  0
  189.1170  173.8110  139.8250 C   0  0  0  0  0  3  0  0  0  0  0  0
  188.1810  174.7290  140.1820 N   0  0  0  0  0  0  0  0  0  0  0  0
  191.5550  174.1760  142.7380 C   0  0  2  0  0  3  0  0  0  0  0  0
  191.1230  173.4300  144.0040 C   0  0  0  0  0  2  0  0  0  0  0  0
  194.2050  177.1460  145.6010 C   0  0  0  0  0  3  0  0  0  0  0  0
  192.1730  175.4690  143.0540 N   0  0  0  0  0  0  0  0  0  0  0  0
  193.6520  174.8600  146.2910 C   0  0  0  0  0  3  0  0  0  0  0  0
  192.9540  174.6190  145.1770 C   0  0  0  0  0  0  0  0  0  0  0  0
  192.3140  173.2850  144.9500 C   0  0  0  0  0  2  0  0  0  0  0  0
  192.8530  175.6710  144.1420 C   0  0  0  0  0  0  0  0  0  0  0  0
  194.2990  176.1710  146.5140 C   0  0  0  0  0  3  0  0  0  0  0  0
  193.4740  176.9360  144.3850 N   0  0  0  0  0  2  0  0  0  0  0  0
  187.2580  176.4540  141.6630 C   0  0  0  0  0  0  0  0  0  0  0  0
  187.1210  177.4990  140.9720 O   0  0  0  0  0  0  0  0  0  0  0  0
  186.3690  176.2480  142.8500 C   0  0  0  0  0  2  0  0  0  0  0  0
  185.2850  178.1910  144.0140 C   0  0  0  0  0  0  0  0  0  0  0  0
  184.2990  178.1470  143.2310 O   0  0  0  0  0  0  0  0  0  0  0  0
  186.4520  177.3930  143.7500 N   0  0  0  0  0  0  0  0  0  0  0  0
  185.1940  179.0350  145.2400 C   0  0  0  0  0  2  0  0  0  0  0  0
  184.4140  178.2990  146.3110 C   0  0  0  0  0  1  0  0  0  0  0  0
  187.7040  177.6180  144.4650 C   0  0  0  0  0  2  0  0  0  0  0  0
  187.4520  176.5760  146.5780 F   0  0  0  0  0  0  0  0  0  0  0  0
  189.4260  176.3230  145.5000 O   0  0  0  0  0  1  0  0  0  0  0  0
  188.0440  176.4210  145.3390 C   0  0  2  0  0  3  0  0  0  0  0  0
  191.1650  172.6280  140.1660 O   0  0  0  0  0  0  0  0  0  0  0  0
  190.9380  171.2220  140.1640 C   0  0  0  0  0  2  0  0  0  0  0  0
  191.5880  170.0520  142.2630 C   0  0  0  0  0  1  0  0  0  0  0  0
  190.4630  170.7560  141.5300 C   0  0  0  0  0  2  0  0  0  0  0  0
  2 17  1  0  0  0  0
  2  1  2  0  0  0  0
  3  1  1  0  0  0  0
  4  3  2  0  0  0  0
  5  6  2  0  0  0  0
  5  4  1  0  0  0  0
  6  2  1  0  0  0  0
  7  3  1  6  0  0  0
  7 10  1  0  0  0  0
  7  8  1  0  0  0  0
  8 13  1  0  0  0  0
  9 15  2  0  0  0  0
 10 14  2  0  0  0  0
 11 15  1  0  0  0  0
 12 11  2  0  0  0  0
 13 12  1  0  0  0  0
 14 16  1  0  0  0  0
 14 12  1  0  0  0  0
 16  9  1  0  0  0  0
 17 19  1  0  0  0  0
 18 17  2  0  0  0  0
 19 22  1  0  0  0  0
 20 23  1  0  0  0  0
 21 20  2  0  0  0  0
 22 20  1  0  0  0  0
 22 25  1  0  0  0  0
 23 24  1  0  0  0  0
 25 28  1  0  0  0  0
 28 27  1  1  0  0  0
 28 26  1  0  0  0  0
 29  4  1  0  0  0  0
 30 29  1  0  0  0  0
 30 32  1  0  0  0  0
 32 31  1  0  0  0  0
M  END
>  <MODEL>
5

>  <REMARK>
 VINA RESULT:      -6.4      2.565      6.150
  Name = 
  10 active torsions:
  status: ('A' for Active; 'I' for Inactive)
    1  A    between atoms: C_2  and  C_5
    2  A    between atoms: C_3  and  C_22
    3  A    between atoms: C_4  and  C_24
    4  A    between atoms: C_13  and  O_18
    5  A    between atoms: C_13  and  C_29
    6  A    between atoms: C_14  and  O_18
    7  A    between atoms: C_15  and  N_20
    8  A    between atoms: C_15  and  C_26
    9  A    between atoms: C_16  and  N_20
   10  A    between atoms: C_16  and  C_24
                            x       y       z     vdW  Elec       q    Type
                         _______ _______ _______ _____ _____    ______ ____

>  <TORSDO>
F 10

$$$$
=
 OpenBabel11052419183D

 32 34  0  0  1  0  0  0  0  0999 V2000
  189.0670  174.7440  143.1090 C   0  0  0  0  0  3  0  0  0  0  0  0
  190.1260  173.8340  143.1000 C   0  0  0  0  0  0  0  0  0  0  0  0
  188.3770  175.0400  141.9280 C   0  0  0  0  0  0  0  0  0  0  0  0
  188.7720  174.4070  140.7220 C   0  0  0  0  0  0  0  0  0  0  0  0
  189.8450  173.5120  140.7620 C   0  0  0  0  0  3  0  0  0  0  0  0
  190.4890  173.2460  141.9280 N   0  0  0  0  0  0  0  0  0  0  0  0
  187.2760  176.0550  141.9860 C   0  0  2  0  0  3  0  0  0  0  0  0
  187.7890  177.4530  141.6260 C   0  0  0  0  0  2  0  0  0  0  0  0
  184.6620  178.1330  145.5770 C   0  0  0  0  0  3  0  0  0  0  0  0
  186.6300  176.0380  143.3040 N   0  0  0  0  0  0  0  0  0  0  0  0
  185.3220  179.3920  143.5800 C   0  0  0  0  0  3  0  0  0  0  0  0
  185.9750  178.3510  143.0560 C   0  0  0  0  0  0  0  0  0  0  0  0
  186.6480  178.4640  141.7230 C   0  0  0  0  0  2  0  0  0  0  0  0
  185.9940  177.0640  143.7840 C   0  0  0  0  0  0  0  0  0  0  0  0
  184.6430  179.2810  144.8890 C   0  0  0  0  0  3  0  0  0  0  0  0
  185.3440  176.9840  145.0550 N   0  0  0  0  0  2  0  0  0  0  0  0
  190.8590  173.5200  144.3390 C   0  0  0  0  0  0  0  0  0  0  0  0
  191.5950  172.4980  144.3880 O   0  0  0  0  0  0  0  0  0  0  0  0
  190.7250  174.3760  145.5590 C   0  0  0  0  0  2  0  0  0  0  0  0
  193.0230  175.3840  145.6400 C   0  0  0  0  0  0  0  0  0  0  0  0
  193.4830  174.3620  146.2170 O   0  0  0  0  0  0  0  0  0  0  0  0
  191.6040  175.5360  145.4640 N   0  0  0  0  0  0  0  0  0  0  0  0
  193.9770  176.3950  145.0970 C   0  0  0  0  0  2  0  0  0  0  0  0
  194.5440  177.2250  146.2320 C   0  0  0  0  0  1  0  0  0  0  0  0
  191.0210  176.8100  145.0570 C   0  0  0  0  0  2  0  0  0  0  0  0
  188.9250  177.9130  144.9900 F   0  0  0  0  0  0  0  0  0  0  0  0
  189.8700  177.5540  147.0150 O   0  0  0  0  0  1  0  0  0  0  0  0
  189.6790  177.0280  145.7380 C   0  0  2  0  0  3  0  0  0  0  0  0
  188.1690  174.6260  139.4720 O   0  0  0  0  0  0  0  0  0  0  0  0
  188.1750  173.7120  138.3800 C   0  0  0  0  0  2  0  0  0  0  0  0
  190.2360  173.9320  137.0010 C   0  0  0  0  0  1  0  0  0  0  0  0
  188.7880  174.3560  137.1470 C   0  0  0  0  0  2  0  0  0  0  0  0
  2  1  1  0  0  0  0
  2 17  1  0  0  0  0
  3  1  2  0  0  0  0
  4  5  2  0  0  0  0
  4  3  1  0  0  0  0
  5  6  1  0  0  0  0
  6  2  2  0  0  0  0
  7  3  1  1  0  0  0
  7 10  1  0  0  0  0
  8 13  1  0  0  0  0
  8  7  1  0  0  0  0
 10 14  2  0  0  0  0
 11 15  1  0  0  0  0
 12 11  2  0  0  0  0
 12 14  1  0  0  0  0
 13 12  1  0  0  0  0
 14 16  1  0  0  0  0
 15  9  2  0  0  0  0
 16  9  1  0  0  0  0
 17 18  2  0  0  0  0
 17 19  1  0  0  0  0
 20 21  2  0  0  0  0
 22 19  1  0  0  0  0
 22 20  1  0  0  0  0
 23 20  1  0  0  0  0
 23 24  1  0  0  0  0
 25 22  1  0  0  0  0
 25 28  1  0  0  0  0
 28 26  1  6  0  0  0
 28 27  1  0  0  0  0
 29  4  1  0  0  0  0
 30 29  1  0  0  0  0
 31 32  1  0  0  0  0
 32 30  1  0  0  0  0
M  END
>  <MODEL>
6

>  <REMARK>
 VINA RESULT:      -6.4      1.759      2.766
  Name = 
  10 active torsions:
  status: ('A' for Active; 'I' for Inactive)
    1  A    between atoms: C_2  and  C_5
    2  A    between atoms: C_3  and  C_22
    3  A    between atoms: C_4  and  C_24
    4  A    between atoms: C_13  and  O_18
    5  A    between atoms: C_13  and  C_29
    6  A    between atoms: C_14  and  O_18
    7  A    between atoms: C_15  and  N_20
    8  A    between atoms: C_15  and  C_26
    9  A    between atoms: C_16  and  N_20
   10  A    between atoms: C_16  and  C_24
                            x       y       z     vdW  Elec       q    Type
                         _______ _______ _______ _____ _____    ______ ____

>  <TORSDO>
F 10

$$$$
=
 OpenBabel11052419183D

 32 34  0  0  1  0  0  0  0  0999 V2000
  191.1400  176.5440  145.6530 C   0  0  0  0  0  3  0  0  0  0  0  0
  192.2300  175.9720  144.9930 C   0  0  0  0  0  0  0  0  0  0  0  0
  189.8470  176.4080  145.1350 C   0  0  0  0  0  0  0  0  0  0  0  0
  189.6610  175.6850  143.9290 C   0  0  0  0  0  0  0  0  0  0  0  0
  190.7840  175.1410  143.3000 C   0  0  0  0  0  3  0  0  0  0  0  0
  192.0240  175.2900  143.8340 N   0  0  0  0  0  0  0  0  0  0  0  0
  188.7200  177.0780  145.8600 C   0  0  2  0  0  3  0  0  0  0  0  0
  187.8360  176.0540  146.5800 C   0  0  0  0  0  2  0  0  0  0  0  0
  184.6200  179.4010  144.5060 C   0  0  0  0  0  3  0  0  0  0  0  0
  187.9410  177.9140  144.9390 N   0  0  0  0  0  0  0  0  0  0  0  0
  184.6930  177.9980  146.5140 C   0  0  0  0  0  3  0  0  0  0  0  0
  185.9720  177.6660  146.3190 C   0  0  0  0  0  0  0  0  0  0  0  0
  186.6840  176.7690  147.2830 C   0  0  0  0  0  2  0  0  0  0  0  0
  186.6990  178.2270  145.1600 C   0  0  0  0  0  0  0  0  0  0  0  0
  183.9890  178.8960  145.5730 C   0  0  0  0  0  3  0  0  0  0  0  0
  185.9950  179.0810  144.2540 N   0  0  0  0  0  2  0  0  0  0  0  0
  193.5950  176.1130  145.5300 C   0  0  0  0  0  0  0  0  0  0  0  0
  193.8040  175.9460  146.7610 O   0  0  0  0  0  0  0  0  0  0  0  0
  194.7430  176.4850  144.6440 C   0  0  0  0  0  2  0  0  0  0  0  0
  195.3470  175.4580  142.4330 C   0  0  0  0  0  0  0  0  0  0  0  0
  194.8150  176.4160  141.8100 O   0  0  0  0  0  0  0  0  0  0  0  0
  195.1680  175.3340  143.8550 N   0  0  0  0  0  0  0  0  0  0  0  0
  196.2070  174.4990  141.6810 C   0  0  0  0  0  2  0  0  0  0  0  0
  197.3350  175.2480  141.0010 C   0  0  0  0  0  1  0  0  0  0  0  0
  195.5290  174.1100  144.5620 C   0  0  0  0  0  2  0  0  0  0  0  0
  197.8640  173.7150  144.5000 F   0  0  0  0  0  0  0  0  0  0  0  0
  196.8280  173.6370  146.5120 O   0  0  0  0  0  1  0  0  0  0  0  0
  196.8640  174.2750  145.2720 C   0  0  2  0  0  3  0  0  0  0  0  0
  188.4190  175.4870  143.3020 O   0  0  0  0  0  0  0  0  0  0  0  0
  188.2010  175.4440  141.8960 C   0  0  0  0  0  2  0  0  0  0  0  0
  188.1910  177.9170  141.6070 C   0  0  0  0  0  1  0  0  0  0  0  0
  187.3840  176.6440  141.4450 C   0  0  0  0  0  2  0  0  0  0  0  0
  2 17  1  0  0  0  0
  2  1  2  0  0  0  0
  3  1  1  0  0  0  0
  4  3  2  0  0  0  0
  5  6  2  0  0  0  0
  5  4  1  0  0  0  0
  6  2  1  0  0  0  0
  7  3  1  6  0  0  0
  7  8  1  0  0  0  0
  8 13  1  0  0  0  0
  9 15  2  0  0  0  0
 10 14  2  0  0  0  0
 10  7  1  0  0  0  0
 12 11  2  0  0  0  0
 12 13  1  0  0  0  0
 14 12  1  0  0  0  0
 15 11  1  0  0  0  0
 16  9  1  0  0  0  0
 16 14  1  0  0  0  0
 17 18  2  0  0  0  0
 19 17  1  0  0  0  0
 20 22  1  0  0  0  0
 21 20  2  0  0  0  0
 22 25  1  0  0  0  0
 22 19  1  0  0  0  0
 23 20  1  0  0  0  0
 24 23  1  0  0  0  0
 25 28  1  0  0  0  0
 28 26  1  6  0  0  0
 28 27  1  0  0  0  0
 29  4  1  0  0  0  0
 30 29  1  0  0  0  0
 32 31  1  0  0  0  0
 32 30  1  0  0  0  0
M  END
>  <MODEL>
7

>  <REMARK>
 VINA RESULT:      -6.3      2.584      4.313
  Name = 
  10 active torsions:
  status: ('A' for Active; 'I' for Inactive)
    1  A    between atoms: C_2  and  C_5
    2  A    between atoms: C_3  and  C_22
    3  A    between atoms: C_4  and  C_24
    4  A    between atoms: C_13  and  O_18
    5  A    between atoms: C_13  and  C_29
    6  A    between atoms: C_14  and  O_18
    7  A    between atoms: C_15  and  N_20
    8  A    between atoms: C_15  and  C_26
    9  A    between atoms: C_16  and  N_20
   10  A    between atoms: C_16  and  C_24
                            x       y       z     vdW  Elec       q    Type
                         _______ _______ _______ _____ _____    ______ ____

>  <TORSDO>
F 10

$$$$
=
 OpenBabel11052419183D

 32 34  0  0  1  0  0  0  0  0999 V2000
  189.5270  174.5340  142.8250 C   0  0  0  0  0  3  0  0  0  0  0  0
  190.6090  173.6660  142.6650 C   0  0  0  0  0  0  0  0  0  0  0  0
  188.6250  174.7420  141.7750 C   0  0  0  0  0  0  0  0  0  0  0  0
  188.8300  174.0650  140.5460 C   0  0  0  0  0  0  0  0  0  0  0  0
  189.9350  173.2170  140.4310 C   0  0  0  0  0  3  0  0  0  0  0  0
  190.7870  173.0350  141.4730 N   0  0  0  0  0  0  0  0  0  0  0  0
  187.5050  175.7160  141.9860 C   0  0  2  0  0  3  0  0  0  0  0  0
  187.7270  177.0010  141.1820 C   0  0  0  0  0  2  0  0  0  0  0  0
  186.0040  178.5170  145.7200 C   0  0  0  0  0  3  0  0  0  0  0  0
  187.3290  175.9940  143.4160 N   0  0  0  0  0  0  0  0  0  0  0  0
  185.8450  179.2850  143.3970 C   0  0  0  0  0  3  0  0  0  0  0  0
  186.3950  178.1670  142.9180 C   0  0  0  0  0  0  0  0  0  0  0  0
  186.5820  177.9780  141.4440 C   0  0  0  0  0  2  0  0  0  0  0  0
  186.7830  177.0890  143.8530 C   0  0  0  0  0  0  0  0  0  0  0  0
  185.6440  179.4700  144.8510 C   0  0  0  0  0  3  0  0  0  0  0  0
  186.5940  177.2940  145.2560 N   0  0  0  0  0  2  0  0  0  0  0  0
  191.5650  173.4430  143.7640 C   0  0  0  0  0  0  0  0  0  0  0  0
  191.2490  172.6930  144.7260 O   0  0  0  0  0  0  0  0  0  0  0  0
  192.9010  174.1190  143.7800 C   0  0  0  0  0  2  0  0  0  0  0  0
  192.3820  176.5640  143.5400 C   0  0  0  0  0  0  0  0  0  0  0  0
  192.4640  176.4880  142.2850 O   0  0  0  0  0  0  0  0  0  0  0  0
  192.7880  175.4530  144.3580 N   0  0  0  0  0  0  0  0  0  0  0  0
  191.8040  177.7960  144.1510 C   0  0  0  0  0  2  0  0  0  0  0  0
  190.4620  178.1010  143.5150 C   0  0  0  0  0  1  0  0  0  0  0  0
  192.9670  175.5960  145.7990 C   0  0  0  0  0  2  0  0  0  0  0  0
  195.1380  175.2110  146.6660 F   0  0  0  0  0  0  0  0  0  0  0  0
  194.1990  177.2410  147.0210 O   0  0  0  0  0  1  0  0  0  0  0  0
  194.3310  176.1890  146.1140 C   0  0  2  0  0  3  0  0  0  0  0  0
  188.0060  174.1970  139.4160 O   0  0  0  0  0  0  0  0  0  0  0  0
  188.3150  173.7260  138.1080 C   0  0  0  0  0  2  0  0  0  0  0  0
  186.9570  175.6640  137.3340 C   0  0  0  0  0  1  0  0  0  0  0  0
  188.2180  174.8550  137.0960 C   0  0  0  0  0  2  0  0  0  0  0  0
  2  1  1  0  0  0  0
  2 17  1  0  0  0  0
  3  1  2  0  0  0  0
  4  3  1  0  0  0  0
  5  4  2  0  0  0  0
  5  6  1  0  0  0  0
  6  2  2  0  0  0  0
  7  3  1  1  0  0  0
  7 10  1  0  0  0  0
  8 13  1  0  0  0  0
  8  7  1  0  0  0  0
 10 14  2  0  0  0  0
 11 15  1  0  0  0  0
 12 11  2  0  0  0  0
 12 14  1  0  0  0  0
 13 12  1  0  0  0  0
 14 16  1  0  0  0  0
 15  9  2  0  0  0  0
 16  9  1  0  0  0  0
 17 19  1  0  0  0  0
 17 18  2  0  0  0  0
 19 22  1  0  0  0  0
 20 23  1  0  0  0  0
 20 22  1  0  0  0  0
 21 20  2  0  0  0  0
 22 25  1  0  0  0  0
 24 23  1  0  0  0  0
 25 28  1  0  0  0  0
 28 26  1  1  0  0  0
 28 27  1  0  0  0  0
 29  4  1  0  0  0  0
 30 29  1  0  0  0  0
 32 31  1  0  0  0  0
 32 30  1  0  0  0  0
M  END
>  <MODEL>
8

>  <REMARK>
 VINA RESULT:      -6.2      1.689      2.337
  Name = 
  10 active torsions:
  status: ('A' for Active; 'I' for Inactive)
    1  A    between atoms: C_2  and  C_5
    2  A    between atoms: C_3  and  C_22
    3  A    between atoms: C_4  and  C_24
    4  A    between atoms: C_13  and  O_18
    5  A    between atoms: C_13  and  C_29
    6  A    between atoms: C_14  and  O_18
    7  A    between atoms: C_15  and  N_20
    8  A    between atoms: C_15  and  C_26
    9  A    between atoms: C_16  and  N_20
   10  A    between atoms: C_16  and  C_24
                            x       y       z     vdW  Elec       q    Type
                         _______ _______ _______ _____ _____    ______ ____

>  <TORSDO>
F 10

$$$$
=
 OpenBabel11052419183D

 32 34  0  0  1  0  0  0  0  0999 V2000
  189.3070  176.0020  144.9500 C   0  0  0  0  0  3  0  0  0  0  0  0
  188.5850  176.8670  145.7750 C   0  0  0  0  0  0  0  0  0  0  0  0
  190.6100  175.6220  145.2890 C   0  0  0  0  0  0  0  0  0  0  0  0
  191.1890  176.1320  146.4790 C   0  0  0  0  0  0  0  0  0  0  0  0
  190.4310  177.0040  147.2650 C   0  0  0  0  0  3  0  0  0  0  0  0
  189.1670  177.3480  146.9060 N   0  0  0  0  0  0  0  0  0  0  0  0
  191.3540  174.7250  144.3470 C   0  0  2  0  0  3  0  0  0  0  0  0
  191.9120  175.5100  143.1560 C   0  0  0  0  0  2  0  0  0  0  0  0
  190.0840  171.1880  141.1970 C   0  0  0  0  0  3  0  0  0  0  0  0
  190.4990  173.6140  143.9130 N   0  0  0  0  0  0  0  0  0  0  0  0
  191.9220  172.7350  140.7120 C   0  0  0  0  0  3  0  0  0  0  0  0
  191.7490  173.4060  141.8540 C   0  0  0  0  0  0  0  0  0  0  0  0
  192.6380  174.5600  142.2050 C   0  0  0  0  0  2  0  0  0  0  0  0
  190.6960  172.9740  142.7990 C   0  0  0  0  0  0  0  0  0  0  0  0
  191.0570  171.5860  140.3680 C   0  0  0  0  0  3  0  0  0  0  0  0
  189.8620  171.8700  142.4400 N   0  0  0  0  0  2  0  0  0  0  0  0
  187.2140  177.2750  145.4230 C   0  0  0  0  0  0  0  0  0  0  0  0
  186.2320  176.6980  145.9610 O   0  0  0  0  0  0  0  0  0  0  0  0
  186.9590  178.3480  144.4090 C   0  0  0  0  0  2  0  0  0  0  0  0
  187.6400  177.5250  142.1370 C   0  0  0  0  0  0  0  0  0  0  0  0
  188.7410  178.1340  142.2140 O   0  0  0  0  0  0  0  0  0  0  0  0
  186.6170  177.7560  143.1210 N   0  0  0  0  0  0  0  0  0  0  0  0
  187.4460  176.5250  141.0470 C   0  0  0  0  0  2  0  0  0  0  0  0
  188.3180  175.3120  141.3030 C   0  0  0  0  0  1  0  0  0  0  0  0
  185.2490  177.2890  142.9180 C   0  0  0  0  0  2  0  0  0  0  0  0
  183.7350  178.4710  144.3060 F   0  0  0  0  0  0  0  0  0  0  0  0
  183.2340  178.2860  142.1050 O   0  0  0  0  0  1  0  0  0  0  0  0
  184.2670  178.4440  143.0300 C   0  0  2  0  0  3  0  0  0  0  0  0
  192.4890  175.8370  146.9240 O   0  0  0  0  0  0  0  0  0  0  0  0
  193.6760  176.5000  146.5040 C   0  0  0  0  0  2  0  0  0  0  0  0
  195.3070  176.0590  144.6750 C   0  0  0  0  0  1  0  0  0  0  0  0
  194.6730  175.5040  145.9350 C   0  0  0  0  0  2  0  0  0  0  0  0
  1  3  2  0  0  0  0
  1  2  1  0  0  0  0
  2  6  2  0  0  0  0
  3  4  1  0  0  0  0
  4 29  1  0  0  0  0
  4  5  2  0  0  0  0
  6  5  1  0  0  0  0
  7  3  1  1  0  0  0
  8  7  1  0  0  0  0
  9 16  1  0  0  0  0
 10  7  1  0  0  0  0
 11 12  2  0  0  0  0
 12 13  1  0  0  0  0
 12 14  1  0  0  0  0
 13  8  1  0  0  0  0
 14 10  2  0  0  0  0
 15 11  1  0  0  0  0
 15  9  2  0  0  0  0
 16 14  1  0  0  0  0
 17  2  1  0  0  0  0
 17 18  2  0  0  0  0
 19 17  1  0  0  0  0
 20 21  2  0  0  0  0
 20 22  1  0  0  0  0
 22 19  1  0  0  0  0
 23 24  1  0  0  0  0
 23 20  1  0  0  0  0
 25 28  1  0  0  0  0
 25 22  1  0  0  0  0
 28 27  1  6  0  0  0
 28 26  1  0  0  0  0
 30 29  1  0  0  0  0
 31 32  1  0  0  0  0
 32 30  1  0  0  0  0
M  END
>  <MODEL>
9

>  <REMARK>
 VINA RESULT:      -6.2      3.043      7.570
  Name = 
  10 active torsions:
  status: ('A' for Active; 'I' for Inactive)
    1  A    between atoms: C_2  and  C_5
    2  A    between atoms: C_3  and  C_22
    3  A    between atoms: C_4  and  C_24
    4  A    between atoms: C_13  and  O_18
    5  A    between atoms: C_13  and  C_29
    6  A    between atoms: C_14  and  O_18
    7  A    between atoms: C_15  and  N_20
    8  A    between atoms: C_15  and  C_26
    9  A    between atoms: C_16  and  N_20
   10  A    between atoms: C_16  and  C_24
                            x       y       z     vdW  Elec       q    Type
                         _______ _______ _______ _____ _____    ______ ____

>  <TORSDO>
F 10

$$$$
