=
 OpenBabel11052417183D

 30 32  0  0  1  0  0  0  0  0999 V2000
  187.9870  177.2610  143.4980 C   0  0  0  0  0  2  0  0  0  0  0  0
  186.3660  176.8290  141.5540 N   0  0  0  0  0  0  0  0  0  0  0  0
  184.6270  178.7330  145.8790 C   0  0  0  0  0  2  0  0  0  0  0  0
  188.0750  177.1580  145.0300 C   0  0  2  0  0  3  0  0  0  0  0  0
  184.7980  178.5420  147.3890 C   0  0  0  0  0  2  0  0  0  0  0  0
  185.8300  178.0520  140.9540 C   0  0  0  0  0  2  0  0  0  0  0  0
  187.5960  176.4850  140.8540 C   0  0  0  0  0  1  0  0  0  0  0  0
  185.6030  177.7960  145.1700 C   0  0  2  0  0  3  0  0  0  0  0  0
  184.4200  178.3540  141.5020 C   0  0  0  0  0  2  0  0  0  0  0  0
  186.5560  176.9740  143.0270 C   0  0  2  0  0  3  0  0  0  0  0  0
  187.0170  178.0620  145.7080 C   0  0  1  0  0  3  0  0  0  0  0  0
  186.1130  178.8720  147.7770 O   0  0  0  0  0  0  0  0  0  0  0  0
  186.9700  177.8970  147.2290 C   0  0  0  0  0  2  0  0  0  0  0  0
  184.2570  177.9470  142.9730 C   0  0  0  0  0  2  0  0  0  0  0  0
  185.6150  178.0060  143.6600 C   0  0  1  0  0  3  0  0  0  0  0  0
  189.5290  177.4260  145.4650 C   0  0  1  0  0  3  0  0  0  0  0  0
  190.6370  177.0030  147.5600 O   0  0  0  0  0  0  0  0  0  0  0  0
  189.9960  176.5260  146.5830 C   0  0  0  0  0  0  0  0  0  0  0  0
  188.8650  174.5590  147.2490 O   0  0  0  0  0  0  0  0  0  0  0  0
  189.7550  175.0780  146.5210 C   0  0  0  0  0  0  0  0  0  0  0  0
  190.5150  174.2790  145.6580 O   0  0  0  0  0  0  0  0  0  0  0  0
  189.4810  173.8870  143.5170 C   0  0  0  0  0  1  0  0  0  0  0  0
  189.9170  173.2810  144.8400 C   0  0  0  0  0  2  0  0  0  0  0  0
  190.4890  177.3850  144.2780 C   0  0  0  0  0  2  0  0  0  0  0  0
  191.8140  177.5350  144.7140 O   0  0  0  0  0  0  0  0  0  0  0  0
  192.5640  176.6420  143.9430 C   0  0  0  0  0  2  0  0  0  0  0  0
  193.7880  176.3190  144.5970 O   0  0  0  0  0  0  0  0  0  0  0  0
  194.5230  177.3810  146.6530 O   0  0  0  0  0  0  0  0  0  0  0  0
  193.9190  176.3170  145.9920 C   0  0  0  0  0  0  0  0  0  0  0  0
  193.4620  175.3520  146.6580 O   0  0  0  0  0  1  0  0  0  0  0  0
  1  4  1  0  0  0  0
  2 10  1  0  0  0  0
  3  5  1  0  0  0  0
  4 16  1  1  0  0  0
  4 11  1  0  0  0  0
  5 12  1  0  0  0  0
  6  9  1  0  0  0  0
  6  2  1  0  0  0  0
  7  2  1  0  0  0  0
  8 11  1  0  0  0  0
  8  3  1  1  0  0  0
  9 14  1  0  0  0  0
 10  1  1  6  0  0  0
 10 15  1  0  0  0  0
 11 13  1  1  0  0  0
 13 12  1  0  0  0  0
 15 14  1  6  0  0  0
 15  8  1  0  0  0  0
 16 24  1  6  0  0  0
 16 18  1  0  0  0  0
 18 17  2  0  0  0  0
 20 18  1  0  0  0  0
 20 19  2  0  0  0  0
 21 20  1  0  0  0  0
 22 23  1  0  0  0  0
 23 21  1  0  0  0  0
 24 25  1  0  0  0  0
 26 27  1  0  0  0  0
 26 25  1  0  0  0  0
 27 29  1  0  0  0  0
 29 28  2  0  0  0  0
 29 30  1  0  0  0  0
M  END
>  <MODEL>
1

>  <REMARK>
 VINA RESULT:      -6.9      0.000      0.000
  Name = 
  10 active torsions:
  status: ('A' for Active; 'I' for Inactive)
    1  A    between atoms: C_4  and  C_13
    2  A    between atoms: O_5  and  C_12
    3  A    between atoms: O_5  and  C_21
    4  A    between atoms: O_7  and  C_15
    5  A    between atoms: O_7  and  C_16
    6  A    between atoms: C_8  and  C_12
    7  A    between atoms: C_8  and  C_13
    8  A    between atoms: C_13  and  C_27
    9  A    between atoms: C_16  and  O_30
   10  A    between atoms: C_27  and  O_30
                            x       y       z     vdW  Elec       q    Type
                         _______ _______ _______ _____ _____    ______ ____

>  <TORSDO>
F 10

$$$$
=
 OpenBabel11052417183D

 30 32  0  0  1  0  0  0  0  0999 V2000
  187.7280  177.5720  145.0520 C   0  0  0  0  0  2  0  0  0  0  0  0
  186.1170  178.7480  146.6690 N   0  0  0  0  0  0  0  0  0  0  0  0
  184.8200  178.1580  141.8390 C   0  0  0  0  0  2  0  0  0  0  0  0
  188.2430  177.6500  143.6060 C   0  0  2  0  0  3  0  0  0  0  0  0
  185.4430  178.2670  140.4440 C   0  0  0  0  0  2  0  0  0  0  0  0
  184.9040  177.9790  146.9510 C   0  0  0  0  0  2  0  0  0  0  0  0
  187.1270  178.3720  147.6500 C   0  0  0  0  0  1  0  0  0  0  0  0
  185.9180  178.4200  142.8680 C   0  0  2  0  0  3  0  0  0  0  0  0
  183.7290  178.4820  146.0870 C   0  0  0  0  0  2  0  0  0  0  0  0
  186.5750  178.5610  145.2620 C   0  0  2  0  0  3  0  0  0  0  0  0
  187.0870  177.4590  142.5950 C   0  0  1  0  0  3  0  0  0  0  0  0
  186.4570  177.3000  140.2860 O   0  0  0  0  0  0  0  0  0  0  0  0
  187.5180  177.6610  141.1410 C   0  0  0  0  0  2  0  0  0  0  0  0
  184.1740  178.9500  144.6950 C   0  0  0  0  0  2  0  0  0  0  0  0
  185.4380  178.1980  144.2980 C   0  0  1  0  0  3  0  0  0  0  0  0
  189.4160  176.6640  143.4390 C   0  0  1  0  0  3  0  0  0  0  0  0
  191.2980  178.1080  143.8510 O   0  0  0  0  0  0  0  0  0  0  0  0
  190.6570  177.0760  144.1930 C   0  0  0  0  0  0  0  0  0  0  0  0
  192.0600  175.3930  145.0830 O   0  0  0  0  0  0  0  0  0  0  0  0
  191.1620  176.2520  145.3000 C   0  0  0  0  0  0  0  0  0  0  0  0
  190.6420  176.4190  146.5890 O   0  0  0  0  0  0  0  0  0  0  0  0
  189.1340  174.7050  147.3600 C   0  0  0  0  0  1  0  0  0  0  0  0
  190.5130  175.3290  147.4920 C   0  0  0  0  0  2  0  0  0  0  0  0
  189.0040  175.2350  143.7830 C   0  0  0  0  0  2  0  0  0  0  0  0
  189.4820  174.3400  142.8140 O   0  0  0  0  0  0  0  0  0  0  0  0
  188.3440  173.8420  142.1720 C   0  0  0  0  0  2  0  0  0  0  0  0
  188.1970  174.4320  140.8830 O   0  0  0  0  0  0  0  0  0  0  0  0
  189.2860  172.5830  139.7480 O   0  0  0  0  0  1  0  0  0  0  0  0
  188.5610  173.7690  139.7040 C   0  0  0  0  0  0  0  0  0  0  0  0
  188.2080  174.2390  138.5920 O   0  0  0  0  0  0  0  0  0  0  0  0
  2  6  1  0  0  0  0
  2  7  1  0  0  0  0
  4 16  1  1  0  0  0
  4  1  1  0  0  0  0
  5  3  1  0  0  0  0
  8  3  1  6  0  0  0
  8 15  1  0  0  0  0
  9  6  1  0  0  0  0
 10  1  1  1  0  0  0
 10  2  1  0  0  0  0
 11 13  1  6  0  0  0
 11  8  1  0  0  0  0
 11  4  1  0  0  0  0
 12  5  1  0  0  0  0
 12 13  1  0  0  0  0
 14  9  1  0  0  0  0
 15 14  1  1  0  0  0
 15 10  1  0  0  0  0
 16 24  1  1  0  0  0
 16 18  1  0  0  0  0
 17 18  2  0  0  0  0
 18 20  1  0  0  0  0
 19 20  2  0  0  0  0
 20 21  1  0  0  0  0
 21 23  1  0  0  0  0
 22 23  1  0  0  0  0
 25 24  1  0  0  0  0
 26 25  1  0  0  0  0
 27 26  1  0  0  0  0
 29 28  1  0  0  0  0
 29 27  1  0  0  0  0
 30 29  2  0  0  0  0
M  END
>  <MODEL>
2

>  <REMARK>
 VINA RESULT:      -6.6      2.879      5.107
  Name = 
  10 active torsions:
  status: ('A' for Active; 'I' for Inactive)
    1  A    between atoms: C_4  and  C_13
    2  A    between atoms: O_5  and  C_12
    3  A    between atoms: O_5  and  C_21
    4  A    between atoms: O_7  and  C_15
    5  A    between atoms: O_7  and  C_16
    6  A    between atoms: C_8  and  C_12
    7  A    between atoms: C_8  and  C_13
    8  A    between atoms: C_13  and  C_27
    9  A    between atoms: C_16  and  O_30
   10  A    between atoms: C_27  and  O_30
                            x       y       z     vdW  Elec       q    Type
                         _______ _______ _______ _____ _____    ______ ____

>  <TORSDO>
F 10

$$$$
=
 OpenBabel11052417183D

 30 32  0  0  1  0  0  0  0  0999 V2000
  188.0290  177.1780  143.5920 C   0  0  0  0  0  2  0  0  0  0  0  0
  186.4540  176.7710  141.6050 N   0  0  0  0  0  0  0  0  0  0  0  0
  184.6390  178.7410  145.8680 C   0  0  0  0  0  2  0  0  0  0  0  0
  188.0720  177.0820  145.1250 C   0  0  2  0  0  3  0  0  0  0  0  0
  184.7640  178.5550  147.3840 C   0  0  0  0  0  2  0  0  0  0  0  0
  185.9640  178.0020  140.9830 C   0  0  0  0  0  2  0  0  0  0  0  0
  187.6950  176.3940  140.9410 C   0  0  0  0  0  1  0  0  0  0  0  0
  185.6120  177.7780  145.1920 C   0  0  2  0  0  3  0  0  0  0  0  0
  184.5460  178.3390  141.4900 C   0  0  0  0  0  2  0  0  0  0  0  0
  186.6060  176.9200  143.0820 C   0  0  2  0  0  3  0  0  0  0  0  0
  187.0170  178.0140  145.7690 C   0  0  1  0  0  3  0  0  0  0  0  0
  186.0740  178.8580  147.8060 O   0  0  0  0  0  0  0  0  0  0  0  0
  186.9240  177.8600  147.2880 C   0  0  0  0  0  2  0  0  0  0  0  0
  184.3330  177.9450  142.9570 C   0  0  0  0  0  2  0  0  0  0  0  0
  185.6720  177.9780  143.6820 C   0  0  1  0  0  3  0  0  0  0  0  0
  189.5190  177.3190  145.6000 C   0  0  1  0  0  3  0  0  0  0  0  0
  189.5070  175.0730  146.4640 O   0  0  0  0  0  0  0  0  0  0  0  0
  190.0550  176.2090  146.4710 C   0  0  0  0  0  0  0  0  0  0  0  0
  191.0530  177.2360  148.3530 O   0  0  0  0  0  0  0  0  0  0  0  0
  191.1890  176.4540  147.3720 C   0  0  0  0  0  0  0  0  0  0  0  0
  192.4170  175.8230  147.1380 O   0  0  0  0  0  0  0  0  0  0  0  0
  194.6340  175.6140  146.2180 C   0  0  0  0  0  1  0  0  0  0  0  0
  193.5780  176.5570  146.7710 C   0  0  0  0  0  2  0  0  0  0  0  0
  190.4560  177.6110  144.4290 C   0  0  0  0  0  2  0  0  0  0  0  0
  191.2920  176.5110  144.1850 O   0  0  0  0  0  0  0  0  0  0  0  0
  191.4970  176.4980  142.8020 C   0  0  0  0  0  2  0  0  0  0  0  0
  190.9800  175.3000  142.2300 O   0  0  0  0  0  0  0  0  0  0  0  0
  189.2420  173.9910  143.3080 O   0  0  0  0  0  0  0  0  0  0  0  0
  190.5830  174.2040  143.0070 C   0  0  0  0  0  0  0  0  0  0  0  0
  191.4480  173.3880  143.4180 O   0  0  0  0  0  1  0  0  0  0  0  0
  1  4  1  0  0  0  0
  2 10  1  0  0  0  0
  3  5  1  0  0  0  0
  4 16  1  1  0  0  0
  4 11  1  0  0  0  0
  5 12  1  0  0  0  0
  6  9  1  0  0  0  0
  6  2  1  0  0  0  0
  7  2  1  0  0  0  0
  8 11  1  0  0  0  0
  8  3  1  1  0  0  0
  9 14  1  0  0  0  0
 10  1  1  6  0  0  0
 10 15  1  0  0  0  0
 11 13  1  1  0  0  0
 13 12  1  0  0  0  0
 15 14  1  6  0  0  0
 15  8  1  0  0  0  0
 16 24  1  6  0  0  0
 16 18  1  0  0  0  0
 17 18  2  0  0  0  0
 18 20  1  0  0  0  0
 20 19  2  0  0  0  0
 21 20  1  0  0  0  0
 22 23  1  0  0  0  0
 23 21  1  0  0  0  0
 25 24  1  0  0  0  0
 26 25  1  0  0  0  0
 27 26  1  0  0  0  0
 27 29  1  0  0  0  0
 29 28  2  0  0  0  0
 29 30  1  0  0  0  0
M  END
>  <MODEL>
3

>  <REMARK>
 VINA RESULT:      -6.5      1.145      2.642
  Name = 
  10 active torsions:
  status: ('A' for Active; 'I' for Inactive)
    1  A    between atoms: C_4  and  C_13
    2  A    between atoms: O_5  and  C_12
    3  A    between atoms: O_5  and  C_21
    4  A    between atoms: O_7  and  C_15
    5  A    between atoms: O_7  and  C_16
    6  A    between atoms: C_8  and  C_12
    7  A    between atoms: C_8  and  C_13
    8  A    between atoms: C_13  and  C_27
    9  A    between atoms: C_16  and  O_30
   10  A    between atoms: C_27  and  O_30
                            x       y       z     vdW  Elec       q    Type
                         _______ _______ _______ _____ _____    ______ ____

>  <TORSDO>
F 10

$$$$
=
 OpenBabel11052417183D

 30 32  0  0  1  0  0  0  0  0999 V2000
  187.6400  177.1550  144.3470 C   0  0  0  0  0  2  0  0  0  0  0  0
  186.5480  178.2190  146.4140 N   0  0  0  0  0  0  0  0  0  0  0  0
  184.1290  178.2850  141.9980 C   0  0  0  0  0  2  0  0  0  0  0  0
  187.8120  177.3770  142.8350 C   0  0  2  0  0  3  0  0  0  0  0  0
  184.4200  178.5240  140.5130 C   0  0  0  0  0  2  0  0  0  0  0  0
  185.3740  177.4920  146.8960 C   0  0  0  0  0  2  0  0  0  0  0  0
  187.7230  177.6730  147.0810 C   0  0  0  0  0  1  0  0  0  0  0  0
  185.4520  178.3590  142.7570 C   0  0  2  0  0  3  0  0  0  0  0  0
  184.0770  178.1610  146.3940 C   0  0  0  0  0  2  0  0  0  0  0  0
  186.6530  178.1760  144.9260 C   0  0  2  0  0  3  0  0  0  0  0  0
  186.4420  177.3740  142.1150 C   0  0  1  0  0  3  0  0  0  0  0  0
  185.2860  177.5270  140.0190 O   0  0  0  0  0  0  0  0  0  0  0  0
  186.5420  177.7230  140.6290 C   0  0  0  0  0  2  0  0  0  0  0  0
  184.2270  178.7650  144.9910 C   0  0  0  0  0  2  0  0  0  0  0  0
  185.2980  177.9960  144.2290 C   0  0  1  0  0  3  0  0  0  0  0  0
  188.8290  176.3530  142.2940 C   0  0  1  0  0  3  0  0  0  0  0  0
  190.6690  177.8040  142.8450 O   0  0  0  0  0  0  0  0  0  0  0  0
  190.2460  176.6200  142.7410 C   0  0  0  0  0  0  0  0  0  0  0  0
  191.6620  174.8550  142.0530 O   0  0  0  0  0  0  0  0  0  0  0  0
  191.1610  175.5030  143.0130 C   0  0  0  0  0  0  0  0  0  0  0  0
  191.4710  175.1590  144.3350 O   0  0  0  0  0  0  0  0  0  0  0  0
  189.8520  174.6010  146.0290 C   0  0  0  0  0  1  0  0  0  0  0  0
  190.7400  175.6820  145.4360 C   0  0  0  0  0  2  0  0  0  0  0  0
  188.4060  174.9190  142.6060 C   0  0  0  0  0  2  0  0  0  0  0  0
  188.0320  174.2510  141.4310 O   0  0  0  0  0  0  0  0  0  0  0  0
  188.3950  172.9150  141.6290 C   0  0  0  0  0  2  0  0  0  0  0  0
  189.0950  172.7630  142.8600 O   0  0  0  0  0  0  0  0  0  0  0  0
  190.9800  171.8770  144.1070 O   0  0  0  0  0  1  0  0  0  0  0  0
  190.0790  171.7850  143.0520 C   0  0  0  0  0  0  0  0  0  0  0  0
  190.1340  170.7970  142.2740 O   0  0  0  0  0  0  0  0  0  0  0  0
  2  6  1  0  0  0  0
  2  7  1  0  0  0  0
  4 16  1  6  0  0  0
  4  1  1  0  0  0  0
  5  3  1  0  0  0  0
  8  3  1  6  0  0  0
  8 15  1  0  0  0  0
  9  6  1  0  0  0  0
 10  1  1  1  0  0  0
 10  2  1  0  0  0  0
 11 13  1  6  0  0  0
 11  8  1  0  0  0  0
 11  4  1  0  0  0  0
 12  5  1  0  0  0  0
 12 13  1  0  0  0  0
 14  9  1  0  0  0  0
 15 10  1  0  0  0  0
 15 14  1  1  0  0  0
 16 24  1  1  0  0  0
 16 18  1  0  0  0  0
 18 17  2  0  0  0  0
 18 20  1  0  0  0  0
 19 20  2  0  0  0  0
 20 21  1  0  0  0  0
 21 23  1  0  0  0  0
 23 22  1  0  0  0  0
 25 26  1  0  0  0  0
 25 24  1  0  0  0  0
 26 27  1  0  0  0  0
 27 29  1  0  0  0  0
 29 28  1  0  0  0  0
 30 29  2  0  0  0  0
M  END
>  <MODEL>
4

>  <REMARK>
 VINA RESULT:      -6.5      2.679      4.881
  Name = 
  10 active torsions:
  status: ('A' for Active; 'I' for Inactive)
    1  A    between atoms: C_4  and  C_13
    2  A    between atoms: O_5  and  C_12
    3  A    between atoms: O_5  and  C_21
    4  A    between atoms: O_7  and  C_15
    5  A    between atoms: O_7  and  C_16
    6  A    between atoms: C_8  and  C_12
    7  A    between atoms: C_8  and  C_13
    8  A    between atoms: C_13  and  C_27
    9  A    between atoms: C_16  and  O_30
   10  A    between atoms: C_27  and  O_30
                            x       y       z     vdW  Elec       q    Type
                         _______ _______ _______ _____ _____    ______ ____

>  <TORSDO>
F 10

$$$$
=
 OpenBabel11052417183D

 30 32  0  0  1  0  0  0  0  0999 V2000
  187.7630  177.6140  145.6690 C   0  0  0  0  0  2  0  0  0  0  0  0
  185.9170  178.9840  146.8130 N   0  0  0  0  0  0  0  0  0  0  0  0
  185.5230  177.8590  141.9210 C   0  0  0  0  0  2  0  0  0  0  0  0
  188.5400  177.5220  144.3450 C   0  0  2  0  0  3  0  0  0  0  0  0
  186.3970  177.8010  140.6640 C   0  0  0  0  0  2  0  0  0  0  0  0
  184.6490  178.2650  146.9450 C   0  0  0  0  0  2  0  0  0  0  0  0
  186.7150  178.7130  148.0020 C   0  0  0  0  0  1  0  0  0  0  0  0
  186.4180  178.2250  143.1030 C   0  0  2  0  0  3  0  0  0  0  0  0
  183.6720  178.6780  145.8260 C   0  0  0  0  0  2  0  0  0  0  0  0
  186.6230  178.6320  145.5470 C   0  0  2  0  0  3  0  0  0  0  0  0
  187.5870  177.2280  143.1620 C   0  0  1  0  0  3  0  0  0  0  0  0
  187.3930  176.8120  140.8080 O   0  0  0  0  0  0  0  0  0  0  0  0
  188.2870  177.2580  141.8020 C   0  0  0  0  0  2  0  0  0  0  0  0
  184.3830  178.9790  144.4990 C   0  0  0  0  0  2  0  0  0  0  0  0
  185.6740  178.1740  144.4330 C   0  0  1  0  0  3  0  0  0  0  0  0
  189.6920  176.5110  144.5130 C   0  0  1  0  0  3  0  0  0  0  0  0
  191.3540  178.1280  143.8640 O   0  0  0  0  0  0  0  0  0  0  0  0
  190.9630  176.9290  143.8140 C   0  0  0  0  0  0  0  0  0  0  0  0
  192.9780  175.8540  143.2000 O   0  0  0  0  0  0  0  0  0  0  0  0
  191.7320  175.9560  143.0270 C   0  0  0  0  0  0  0  0  0  0  0  0
  191.0820  175.1480  142.0860 O   0  0  0  0  0  0  0  0  0  0  0  0
  189.4010  173.4850  142.5480 C   0  0  0  0  0  1  0  0  0  0  0  0
  190.8760  173.7580  142.3070 C   0  0  0  0  0  2  0  0  0  0  0  0
  189.9460  176.1840  145.9820 C   0  0  0  0  0  2  0  0  0  0  0  0
  190.7750  175.0580  146.0980 O   0  0  0  0  0  0  0  0  0  0  0  0
  191.7990  175.4370  146.9720 C   0  0  0  0  0  2  0  0  0  0  0  0
  193.0600  174.9750  146.4950 O   0  0  0  0  0  0  0  0  0  0  0  0
  194.1350  177.1210  146.8680 O   0  0  0  0  0  1  0  0  0  0  0  0
  194.2000  175.7890  146.4720 C   0  0  0  0  0  0  0  0  0  0  0  0
  195.3030  175.3030  146.1110 O   0  0  0  0  0  0  0  0  0  0  0  0
  2  6  1  0  0  0  0
  2  7  1  0  0  0  0
  4 16  1  1  0  0  0
  4  1  1  0  0  0  0
  5 12  1  0  0  0  0
  5  3  1  0  0  0  0
  8  3  1  6  0  0  0
  8 11  1  0  0  0  0
  8 15  1  0  0  0  0
  9  6  1  0  0  0  0
 10  1  1  1  0  0  0
 10  2  1  0  0  0  0
 11 13  1  6  0  0  0
 11  4  1  0  0  0  0
 12 13  1  0  0  0  0
 14  9  1  0  0  0  0
 15 14  1  6  0  0  0
 15 10  1  0  0  0  0
 16 24  1  1  0  0  0
 18 17  2  0  0  0  0
 18 16  1  0  0  0  0
 20 19  2  0  0  0  0
 20 18  1  0  0  0  0
 21 23  1  0  0  0  0
 21 20  1  0  0  0  0
 23 22  1  0  0  0  0
 24 25  1  0  0  0  0
 25 26  1  0  0  0  0
 27 26  1  0  0  0  0
 29 27  1  0  0  0  0
 29 28  1  0  0  0  0
 30 29  2  0  0  0  0
M  END
>  <MODEL>
5

>  <REMARK>
 VINA RESULT:      -6.2      1.971      3.937
  Name = 
  10 active torsions:
  status: ('A' for Active; 'I' for Inactive)
    1  A    between atoms: C_4  and  C_13
    2  A    between atoms: O_5  and  C_12
    3  A    between atoms: O_5  and  C_21
    4  A    between atoms: O_7  and  C_15
    5  A    between atoms: O_7  and  C_16
    6  A    between atoms: C_8  and  C_12
    7  A    between atoms: C_8  and  C_13
    8  A    between atoms: C_13  and  C_27
    9  A    between atoms: C_16  and  O_30
   10  A    between atoms: C_27  and  O_30
                            x       y       z     vdW  Elec       q    Type
                         _______ _______ _______ _____ _____    ______ ____

>  <TORSDO>
F 10

$$$$
=
 OpenBabel11052417183D

 30 32  0  0  1  0  0  0  0  0999 V2000
  187.9500  176.7940  143.5540 C   0  0  0  0  0  2  0  0  0  0  0  0
  186.4730  176.5080  141.4720 N   0  0  0  0  0  0  0  0  0  0  0  0
  184.5820  178.6960  145.5950 C   0  0  0  0  0  2  0  0  0  0  0  0
  187.8860  176.7160  145.0880 C   0  0  2  0  0  3  0  0  0  0  0  0
  184.5920  178.5200  147.1160 C   0  0  0  0  0  2  0  0  0  0  0  0
  186.1410  177.7700  140.8110 C   0  0  0  0  0  2  0  0  0  0  0  0
  187.7140  176.0080  140.8940 C   0  0  0  0  0  1  0  0  0  0  0  0
  185.5020  177.6370  144.9900 C   0  0  2  0  0  3  0  0  0  0  0  0
  184.7320  178.2440  141.2220 C   0  0  0  0  0  2  0  0  0  0  0  0
  186.5450  176.6620  142.9550 C   0  0  2  0  0  3  0  0  0  0  0  0
  186.8840  177.7500  145.6550 C   0  0  1  0  0  3  0  0  0  0  0  0
  185.8960  178.7060  147.6200 O   0  0  0  0  0  0  0  0  0  0  0  0
  186.6790  177.6260  147.1660 C   0  0  0  0  0  2  0  0  0  0  0  0
  184.3890  177.8920  142.6760 C   0  0  0  0  0  2  0  0  0  0  0  0
  185.6760  177.8100  143.4850 C   0  0  1  0  0  3  0  0  0  0  0  0
  189.3150  176.8240  145.6530 C   0  0  1  0  0  3  0  0  0  0  0  0
  188.7600  174.9370  147.0410 O   0  0  0  0  0  0  0  0  0  0  0  0
  189.6060  175.8260  146.7480 C   0  0  0  0  0  0  0  0  0  0  0  0
  191.4580  174.8550  147.8520 O   0  0  0  0  0  0  0  0  0  0  0  0
  190.8540  175.9110  147.5180 C   0  0  0  0  0  0  0  0  0  0  0  0
  191.3660  177.1630  147.8840 O   0  0  0  0  0  0  0  0  0  0  0  0
  191.6100  178.3620  149.9590 C   0  0  0  0  0  1  0  0  0  0  0  0
  190.6890  178.0100  148.8030 C   0  0  0  0  0  2  0  0  0  0  0  0
  190.3660  176.7580  144.5470 C   0  0  0  0  0  2  0  0  0  0  0  0
  190.8050  175.4380  144.3650 O   0  0  0  0  0  0  0  0  0  0  0  0
  192.1620  175.5360  144.0450 C   0  0  0  0  0  2  0  0  0  0  0  0
  192.7460  176.6700  144.6810 O   0  0  0  0  0  0  0  0  0  0  0  0
  194.2450  176.8160  146.5860 O   0  0  0  0  0  1  0  0  0  0  0  0
  194.0390  176.6470  145.2210 C   0  0  0  0  0  0  0  0  0  0  0  0
  195.0250  176.4480  144.4650 O   0  0  0  0  0  0  0  0  0  0  0  0
  1  4  1  0  0  0  0
  2 10  1  0  0  0  0
  3  5  1  0  0  0  0
  4 16  1  1  0  0  0
  4 11  1  0  0  0  0
  5 12  1  0  0  0  0
  6  9  1  0  0  0  0
  6  2  1  0  0  0  0
  7  2  1  0  0  0  0
  8  3  1  1  0  0  0
  8 11  1  0  0  0  0
  9 14  1  0  0  0  0
 10 15  1  0  0  0  0
 10  1  1  6  0  0  0
 11 13  1  1  0  0  0
 13 12  1  0  0  0  0
 15 14  1  6  0  0  0
 15  8  1  0  0  0  0
 16 24  1  6  0  0  0
 16 18  1  0  0  0  0
 18 17  2  0  0  0  0
 18 20  1  0  0  0  0
 20 19  2  0  0  0  0
 20 21  1  0  0  0  0
 21 23  1  0  0  0  0
 23 22  1  0  0  0  0
 25 24  1  0  0  0  0
 26 25  1  0  0  0  0
 26 27  1  0  0  0  0
 27 29  1  0  0  0  0
 29 28  1  0  0  0  0
 30 29  2  0  0  0  0
M  END
>  <MODEL>
6

>  <REMARK>
 VINA RESULT:      -6.1      1.229      2.297
  Name = 
  10 active torsions:
  status: ('A' for Active; 'I' for Inactive)
    1  A    between atoms: C_4  and  C_13
    2  A    between atoms: O_5  and  C_12
    3  A    between atoms: O_5  and  C_21
    4  A    between atoms: O_7  and  C_15
    5  A    between atoms: O_7  and  C_16
    6  A    between atoms: C_8  and  C_12
    7  A    between atoms: C_8  and  C_13
    8  A    between atoms: C_13  and  C_27
    9  A    between atoms: C_16  and  O_30
   10  A    between atoms: C_27  and  O_30
                            x       y       z     vdW  Elec       q    Type
                         _______ _______ _______ _____ _____    ______ ____

>  <TORSDO>
F 10

$$$$
=
 OpenBabel11052417183D

 30 32  0  0  1  0  0  0  0  0999 V2000
  189.6680  176.4280  143.7960 C   0  0  0  0  0  2  0  0  0  0  0  0
  191.7590  176.5610  145.2810 N   0  0  0  0  0  0  0  0  0  0  0  0
  187.1870  176.7120  147.3860 C   0  0  0  0  0  2  0  0  0  0  0  0
  188.2540  177.0170  143.6630 C   0  0  2  0  0  3  0  0  0  0  0  0
  185.8160  177.3540  147.1500 C   0  0  0  0  0  2  0  0  0  0  0  0
  191.9600  175.3780  146.1180 C   0  0  0  0  0  2  0  0  0  0  0  0
  192.4420  176.3380  144.0130 C   0  0  0  0  0  1  0  0  0  0  0  0
  188.0920  177.0870  146.2140 C   0  0  2  0  0  3  0  0  0  0  0  0
  191.4470  175.6320  147.5510 C   0  0  0  0  0  2  0  0  0  0  0  0
  190.3110  176.8800  145.1130 C   0  0  2  0  0  3  0  0  0  0  0  0
  187.3950  176.6820  144.9060 C   0  0  1  0  0  3  0  0  0  0  0  0
  185.2460  176.8630  145.9580 O   0  0  0  0  0  0  0  0  0  0  0  0
  186.0210  177.3560  144.8890 C   0  0  0  0  0  2  0  0  0  0  0  0
  190.2090  176.5380  147.5850 C   0  0  0  0  0  2  0  0  0  0  0  0
  189.4440  176.3840  146.2770 C   0  0  1  0  0  3  0  0  0  0  0  0
  187.6500  176.5650  142.3190 C   0  0  1  0  0  3  0  0  0  0  0  0
  188.4970  178.5520  141.2570 O   0  0  0  0  0  0  0  0  0  0  0  0
  187.6040  177.6610  141.2830 C   0  0  0  0  0  0  0  0  0  0  0  0
  186.4660  176.9510  139.3340 O   0  0  0  0  0  0  0  0  0  0  0  0
  186.4910  177.7320  140.3260 C   0  0  0  0  0  0  0  0  0  0  0  0
  185.4650  178.6660  140.5130 O   0  0  0  0  0  0  0  0  0  0  0  0
  183.7140  178.2880  142.1240 C   0  0  0  0  0  1  0  0  0  0  0  0
  184.1080  178.2700  140.6560 C   0  0  0  0  0  2  0  0  0  0  0  0
  188.3460  175.3170  141.7800 C   0  0  0  0  0  2  0  0  0  0  0  0
  187.5900  174.1710  142.0680 O   0  0  0  0  0  0  0  0  0  0  0  0
  188.4150  173.0890  141.7450 C   0  0  0  0  0  2  0  0  0  0  0  0
  189.7140  173.2650  142.3040 O   0  0  0  0  0  0  0  0  0  0  0  0
  191.4780  172.6080  143.8370 O   0  0  0  0  0  0  0  0  0  0  0  0
  190.1460  172.5680  143.4400 C   0  0  0  0  0  0  0  0  0  0  0  0
  189.3150  171.9160  144.1230 O   0  0  0  0  0  1  0  0  0  0  0  0
  2  6  1  0  0  0  0
  4 16  1  6  0  0  0
  4  1  1  0  0  0  0
  4 11  1  0  0  0  0
  5  3  1  0  0  0  0
  6  9  1  0  0  0  0
  7  2  1  0  0  0  0
  8 15  1  0  0  0  0
  8  3  1  1  0  0  0
  9 14  1  0  0  0  0
 10  1  1  6  0  0  0
 10  2  1  0  0  0  0
 10 15  1  0  0  0  0
 11 13  1  6  0  0  0
 11  8  1  0  0  0  0
 12  5  1  0  0  0  0
 13 12  1  0  0  0  0
 15 14  1  1  0  0  0
 16 24  1  6  0  0  0
 17 18  2  0  0  0  0
 18 16  1  0  0  0  0
 19 20  2  0  0  0  0
 20 21  1  0  0  0  0
 20 18  1  0  0  0  0
 21 23  1  0  0  0  0
 23 22  1  0  0  0  0
 24 25  1  0  0  0  0
 26 25  1  0  0  0  0
 26 27  1  0  0  0  0
 27 29  1  0  0  0  0
 29 28  2  0  0  0  0
 29 30  1  0  0  0  0
M  END
>  <MODEL>
7

>  <REMARK>
 VINA RESULT:      -6.0      3.010      5.900
  Name = 
  10 active torsions:
  status: ('A' for Active; 'I' for Inactive)
    1  A    between atoms: C_4  and  C_13
    2  A    between atoms: O_5  and  C_12
    3  A    between atoms: O_5  and  C_21
    4  A    between atoms: O_7  and  C_15
    5  A    between atoms: O_7  and  C_16
    6  A    between atoms: C_8  and  C_12
    7  A    between atoms: C_8  and  C_13
    8  A    between atoms: C_13  and  C_27
    9  A    between atoms: C_16  and  O_30
   10  A    between atoms: C_27  and  O_30
                            x       y       z     vdW  Elec       q    Type
                         _______ _______ _______ _____ _____    ______ ____

>  <TORSDO>
F 10

$$$$
=
 OpenBabel11052417183D

 30 32  0  0  1  0  0  0  0  0999 V2000
  187.7010  177.7060  145.0900 C   0  0  0  0  0  2  0  0  0  0  0  0
  186.0750  178.9240  146.6610 N   0  0  0  0  0  0  0  0  0  0  0  0
  184.8240  178.2120  141.8360 C   0  0  0  0  0  2  0  0  0  0  0  0
  188.2290  177.7470  143.6460 C   0  0  2  0  0  3  0  0  0  0  0  0
  185.4590  178.2840  140.4440 C   0  0  0  0  0  2  0  0  0  0  0  0
  184.8590  178.1630  146.9510 C   0  0  0  0  0  2  0  0  0  0  0  0
  187.0760  178.5730  147.6600 C   0  0  0  0  0  1  0  0  0  0  0  0
  185.9120  178.4990  142.8680 C   0  0  2  0  0  3  0  0  0  0  0  0
  183.6930  178.6450  146.0640 C   0  0  0  0  0  2  0  0  0  0  0  0
  186.5470  178.7010  145.2630 C   0  0  2  0  0  3  0  0  0  0  0  0
  187.0820  177.5310  142.6300 C   0  0  1  0  0  3  0  0  0  0  0  0
  186.4740  177.3140  140.3200 O   0  0  0  0  0  0  0  0  0  0  0  0
  187.5270  177.6960  141.1750 C   0  0  0  0  0  2  0  0  0  0  0  0
  184.1520  179.0770  144.6640 C   0  0  0  0  0  2  0  0  0  0  0  0
  185.4180  178.3140  144.2990 C   0  0  1  0  0  3  0  0  0  0  0  0
  189.4030  176.7570  143.5160 C   0  0  1  0  0  3  0  0  0  0  0  0
  191.1210  178.4180  143.8080 O   0  0  0  0  0  0  0  0  0  0  0  0
  190.6910  177.2710  144.1120 C   0  0  0  0  0  0  0  0  0  0  0  0
  191.3370  176.5240  146.2610 O   0  0  0  0  0  0  0  0  0  0  0  0
  191.4840  176.4230  145.0120 C   0  0  0  0  0  0  0  0  0  0  0  0
  192.4020  175.5080  144.4820 O   0  0  0  0  0  0  0  0  0  0  0  0
  193.6810  173.6890  145.4100 C   0  0  0  0  0  1  0  0  0  0  0  0
  192.3550  174.1250  144.8090 C   0  0  0  0  0  2  0  0  0  0  0  0
  189.0430  175.3800  144.0710 C   0  0  0  0  0  2  0  0  0  0  0  0
  188.4800  174.5790  143.0660 O   0  0  0  0  0  0  0  0  0  0  0  0
  189.3780  174.6340  141.9970 C   0  0  0  0  0  2  0  0  0  0  0  0
  188.7330  174.2650  140.7810 O   0  0  0  0  0  0  0  0  0  0  0  0
  188.2080  172.6630  139.0330 O   0  0  0  0  0  0  0  0  0  0  0  0
  188.8820  172.9980  140.2030 C   0  0  0  0  0  0  0  0  0  0  0  0
  189.6540  172.1590  140.7350 O   0  0  0  0  0  1  0  0  0  0  0  0
  2  6  1  0  0  0  0
  2  7  1  0  0  0  0
  4 16  1  1  0  0  0
  4  1  1  0  0  0  0
  5  3  1  0  0  0  0
  8  3  1  6  0  0  0
  8 15  1  0  0  0  0
  9  6  1  0  0  0  0
 10  1  1  1  0  0  0
 10  2  1  0  0  0  0
 11 13  1  6  0  0  0
 11  8  1  0  0  0  0
 11  4  1  0  0  0  0
 12  5  1  0  0  0  0
 12 13  1  0  0  0  0
 14  9  1  0  0  0  0
 15 14  1  1  0  0  0
 15 10  1  0  0  0  0
 16 24  1  1  0  0  0
 16 18  1  0  0  0  0
 17 18  2  0  0  0  0
 18 20  1  0  0  0  0
 20 19  2  0  0  0  0
 21 23  1  0  0  0  0
 21 20  1  0  0  0  0
 23 22  1  0  0  0  0
 25 24  1  0  0  0  0
 26 25  1  0  0  0  0
 27 26  1  0  0  0  0
 28 29  2  0  0  0  0
 29 30  1  0  0  0  0
 29 27  1  0  0  0  0
M  END
>  <MODEL>
8

>  <REMARK>
 VINA RESULT:      -6.0      2.892      5.016
  Name = 
  10 active torsions:
  status: ('A' for Active; 'I' for Inactive)
    1  A    between atoms: C_4  and  C_13
    2  A    between atoms: O_5  and  C_12
    3  A    between atoms: O_5  and  C_21
    4  A    between atoms: O_7  and  C_15
    5  A    between atoms: O_7  and  C_16
    6  A    between atoms: C_8  and  C_12
    7  A    between atoms: C_8  and  C_13
    8  A    between atoms: C_13  and  C_27
    9  A    between atoms: C_16  and  O_30
   10  A    between atoms: C_27  and  O_30
                            x       y       z     vdW  Elec       q    Type
                         _______ _______ _______ _____ _____    ______ ____

>  <TORSDO>
F 10

$$$$
=
 OpenBabel11052417183D

 30 32  0  0  1  0  0  0  0  0999 V2000
  187.6930  177.6950  145.2280 C   0  0  0  0  0  2  0  0  0  0  0  0
  186.0320  178.9170  146.7590 N   0  0  0  0  0  0  0  0  0  0  0  0
  184.9040  178.2170  141.9010 C   0  0  0  0  0  2  0  0  0  0  0  0
  188.2590  177.7360  143.7990 C   0  0  2  0  0  3  0  0  0  0  0  0
  185.5750  178.2890  140.5270 C   0  0  0  0  0  2  0  0  0  0  0  0
  184.8060  178.1610  147.0160 C   0  0  0  0  0  2  0  0  0  0  0  0
  187.0060  178.5610  147.7830 C   0  0  0  0  0  1  0  0  0  0  0  0
  185.9660  178.4980  142.9620 C   0  0  2  0  0  3  0  0  0  0  0  0
  183.6650  178.6490  146.1000 C   0  0  0  0  0  2  0  0  0  0  0  0
  186.5390  178.6940  145.3730 C   0  0  2  0  0  3  0  0  0  0  0  0
  187.1380  177.5260  142.7530 C   0  0  1  0  0  3  0  0  0  0  0  0
  186.5890  177.3150  140.4270 O   0  0  0  0  0  0  0  0  0  0  0  0
  187.6210  177.6910  141.3110 C   0  0  0  0  0  2  0  0  0  0  0  0
  184.1620  179.0810  144.7130 C   0  0  0  0  0  2  0  0  0  0  0  0
  185.4350  178.3140  144.3790 C   0  0  1  0  0  3  0  0  0  0  0  0
  189.4320  176.7410  143.6980 C   0  0  1  0  0  3  0  0  0  0  0  0
  191.3280  178.2190  143.8210 O   0  0  0  0  0  0  0  0  0  0  0  0
  190.7050  177.2480  144.3310 C   0  0  0  0  0  0  0  0  0  0  0  0
  190.7320  176.7730  146.6480 O   0  0  0  0  0  0  0  0  0  0  0  0
  191.2600  176.5830  145.5180 C   0  0  0  0  0  0  0  0  0  0  0  0
  192.3740  175.7430  145.3920 O   0  0  0  0  0  0  0  0  0  0  0  0
  194.6050  174.9180  145.7720 C   0  0  0  0  0  1  0  0  0  0  0  0
  193.5970  176.0180  146.0620 C   0  0  0  0  0  2  0  0  0  0  0  0
  189.0510  175.3640  144.2370 C   0  0  0  0  0  2  0  0  0  0  0  0
  188.9570  174.4350  143.1900 O   0  0  0  0  0  0  0  0  0  0  0  0
  189.6830  173.3190  143.6140 C   0  0  0  0  0  2  0  0  0  0  0  0
  191.0780  173.5160  143.3980 O   0  0  0  0  0  0  0  0  0  0  0  0
  191.6520  172.8990  141.1210 O   0  0  0  0  0  0  0  0  0  0  0  0
  191.6070  173.8420  142.1430 C   0  0  0  0  0  0  0  0  0  0  0  0
  192.0260  175.0090  141.9280 O   0  0  0  0  0  1  0  0  0  0  0  0
  2  6  1  0  0  0  0
  2  7  1  0  0  0  0
  4 16  1  1  0  0  0
  4  1  1  0  0  0  0
  5  3  1  0  0  0  0
  8  3  1  6  0  0  0
  8 15  1  0  0  0  0
  9  6  1  0  0  0  0
 10  1  1  1  0  0  0
 10  2  1  0  0  0  0
 11 13  1  6  0  0  0
 11  8  1  0  0  0  0
 11  4  1  0  0  0  0
 12  5  1  0  0  0  0
 12 13  1  0  0  0  0
 14  9  1  0  0  0  0
 15 14  1  1  0  0  0
 15 10  1  0  0  0  0
 16 24  1  1  0  0  0
 16 18  1  0  0  0  0
 17 18  2  0  0  0  0
 18 20  1  0  0  0  0
 20 19  2  0  0  0  0
 21 20  1  0  0  0  0
 21 23  1  0  0  0  0
 22 23  1  0  0  0  0
 25 26  1  0  0  0  0
 25 24  1  0  0  0  0
 27 26  1  0  0  0  0
 28 29  2  0  0  0  0
 29 27  1  0  0  0  0
 30 29  1  0  0  0  0
M  END
>  <MODEL>
9

>  <REMARK>
 VINA RESULT:      -6.0      2.308      4.493
  Name = 
  10 active torsions:
  status: ('A' for Active; 'I' for Inactive)
    1  A    between atoms: C_4  and  C_13
    2  A    between atoms: O_5  and  C_12
    3  A    between atoms: O_5  and  C_21
    4  A    between atoms: O_7  and  C_15
    5  A    between atoms: O_7  and  C_16
    6  A    between atoms: C_8  and  C_12
    7  A    between atoms: C_8  and  C_13
    8  A    between atoms: C_13  and  C_27
    9  A    between atoms: C_16  and  O_30
   10  A    between atoms: C_27  and  O_30
                            x       y       z     vdW  Elec       q    Type
                         _______ _______ _______ _____ _____    ______ ____

>  <TORSDO>
F 10

$$$$
