=
 OpenBabel11052420323D

 34 38  0  0  1  0  0  0  0  0999 V2000
  187.3300  176.8130  144.5110 C   0  0  0  0  0  0  0  0  0  0  0  0
  184.9770  177.8020  143.9510 C   0  0  0  0  0  0  0  0  0  0  0  0
  185.1130  177.2480  146.4360 C   0  0  0  0  0  2  0  0  0  0  0  0
  189.9230  176.7510  145.7280 C   0  0  0  0  0  2  0  0  0  0  0  0
  188.2890  176.0040  144.0300 C   0  0  0  0  0  3  0  0  0  0  0  0
  188.7520  177.3420  146.4550 C   0  0  0  0  0  0  0  0  0  0  0  0
  188.0260  179.0570  148.0860 C   0  0  0  0  0  2  0  0  0  0  0  0
  188.9770  177.8980  147.8290 C   0  0  0  0  0  2  0  0  0  0  0  0
  189.4780  175.7230  144.7840 N   0  0  0  0  0  0  0  0  0  0  0  0
  186.4120  177.8330  146.6720 N   0  0  0  0  0  0  0  0  0  0  0  0
  187.5230  177.3610  145.8920 C   0  0  0  0  0  0  0  0  0  0  0  0
  186.5930  178.5600  147.9320 C   0  0  0  0  0  2  0  0  0  0  0  0
  184.0950  178.2580  142.9630 C   0  0  0  0  0  3  0  0  0  0  0  0
  184.4110  178.1700  141.6050 C   0  0  0  0  0  0  0  0  0  0  0  0
  185.6250  177.6110  141.2230 C   0  0  0  0  0  3  0  0  0  0  0  0
  184.5020  177.8880  145.2950 N   0  0  0  0  0  2  0  0  0  0  0  0
  186.5210  177.1630  142.1920 C   0  0  0  0  0  3  0  0  0  0  0  0
  186.2370  177.2470  143.5720 C   0  0  0  0  0  0  0  0  0  0  0  0
  191.2790  172.3740  144.3170 C   0  0  0  0  0  2  0  0  0  0  0  0
  191.8890  175.3260  144.3750 C   0  0  0  0  0  2  0  0  0  0  0  0
  193.5670  172.0130  143.7380 O   0  0  0  0  0  1  0  0  0  0  0  0
  192.5510  172.9700  143.6950 C   0  0  2  0  0  3  0  0  0  0  0  0
  192.9900  174.2520  144.4110 C   0  0  1  0  0  3  0  0  0  0  0  0
  190.4610  174.7620  144.2700 C   0  0  1  0  0  3  0  0  0  0  0  0
  190.3770  173.4140  144.9910 C   0  0  0  0  0  2  0  0  0  0  0  0
  195.3240  175.1540  144.4950 C   0  0  0  0  0  0  0  0  0  0  0  0
  194.2430  174.8000  143.7950 C   0  0  0  0  0  3  0  0  0  0  0  0
  195.3630  175.0040  145.9840 C   0  0  0  0  0  1  0  0  0  0  0  0
  196.5020  175.6870  143.7910 C   0  0  0  0  0  0  0  0  0  0  0  0
  197.6070  175.0870  143.8560 O   0  0  0  0  0  1  0  0  0  0  0  0
  196.4090  176.8590  143.0480 O   0  0  0  0  0  0  0  0  0  0  0  0
  183.5060  178.6340  140.6000 N   0  0  0  0  0  2  0  0  0  0  0  0
  182.2030  178.0330  140.3730 C   0  0  0  0  0  2  0  0  0  0  0  0
  181.1190  179.0120  140.7730 C   0  0  0  0  0  1  0  0  0  0  0  0
  1 11  1  0  0  0  0
  2 16  1  0  0  0  0
  3 10  1  0  0  0  0
  4  6  1  0  0  0  0
  5  1  2  0  0  0  0
  5  9  1  0  0  0  0
  6  8  1  0  0  0  0
  8  7  1  0  0  0  0
  9  4  1  0  0  0  0
 10 12  1  0  0  0  0
 11  6  2  0  0  0  0
 11 10  1  0  0  0  0
 12  7  1  0  0  0  0
 13  2  2  0  0  0  0
 14 13  1  0  0  0  0
 15 14  2  0  0  0  0
 15 17  1  0  0  0  0
 16  3  1  0  0  0  0
 17 18  2  0  0  0  0
 18  2  1  0  0  0  0
 18  1  1  0  0  0  0
 19 25  1  0  0  0  0
 20 23  1  0  0  0  0
 22 21  1  1  0  0  0
 22 19  1  0  0  0  0
 22 23  1  0  0  0  0
 23 27  1  6  0  0  0
 24 20  1  1  0  0  0
 24  9  1  0  0  0  0
 24 25  1  0  0  0  0
 26 28  1  0  0  0  0
 27 26  2  0  0  0  0
 29 30  1  0  0  0  0
 29 26  1  0  0  0  0
 31 29  2  0  0  0  0
 32 14  1  0  0  0  0
 33 32  1  0  0  0  0
 33 34  1  0  0  0  0
M  END
>  <MODEL>
1

>  <REMARK>
 VINA RESULT:      -7.8      0.000      0.000
  Name = 
  5 active torsions:
  status: ('A' for Active; 'I' for Inactive)
    1  A    between atoms: N_3  and  C_13
    2  A    between atoms: N_3  and  C_25
    3  A    between atoms: C_7  and  C_11
    4  A    between atoms: N_18  and  C_30
    5  A    between atoms: C_26  and  C_28
                            x       y       z     vdW  Elec       q    Type
                         _______ _______ _______ _____ _____    ______ ____

>  <TORSDO>
F 5

$$$$
=
 OpenBabel11052420323D

 34 38  0  0  1  0  0  0  0  0999 V2000
  190.0060  175.2200  143.9220 C   0  0  0  0  0  0  0  0  0  0  0  0
  187.6500  176.3410  144.0670 C   0  0  0  0  0  0  0  0  0  0  0  0
  188.4310  176.2790  141.6400 C   0  0  0  0  0  2  0  0  0  0  0  0
  191.9100  173.2130  143.1790 C   0  0  0  0  0  2  0  0  0  0  0  0
  191.1870  175.1320  144.5580 C   0  0  0  0  0  3  0  0  0  0  0  0
  190.7780  173.5680  142.2610 C   0  0  0  0  0  0  0  0  0  0  0  0
  189.2120  172.7210  140.5410 C   0  0  0  0  0  2  0  0  0  0  0  0
  190.6710  172.8450  140.9530 C   0  0  0  0  0  2  0  0  0  0  0  0
  192.2680  174.3550  144.0220 N   0  0  0  0  0  0  0  0  0  0  0  0
  188.8870  174.9090  141.6400 N   0  0  0  0  0  0  0  0  0  0  0  0
  189.8850  174.5240  142.6000 C   0  0  0  0  0  0  0  0  0  0  0  0
  188.6110  174.1180  140.4370 C   0  0  0  0  0  2  0  0  0  0  0  0
  186.6160  176.8080  144.8870 C   0  0  0  0  0  3  0  0  0  0  0  0
  186.7370  176.8200  146.2790 C   0  0  0  0  0  0  0  0  0  0  0  0
  187.9140  176.3660  146.8640 C   0  0  0  0  0  3  0  0  0  0  0  0
  187.4230  176.4470  142.6600 N   0  0  0  0  0  2  0  0  0  0  0  0
  188.9490  175.8860  146.0650 C   0  0  0  0  0  3  0  0  0  0  0  0
  188.8540  175.8490  144.6570 C   0  0  0  0  0  0  0  0  0  0  0  0
  195.8860  175.3650  144.7750 C   0  0  0  0  0  2  0  0  0  0  0  0
  194.1170  172.9240  144.8420 C   0  0  0  0  0  2  0  0  0  0  0  0
  197.6080  174.0220  145.7420 O   0  0  0  0  0  1  0  0  0  0  0  0
  196.2210  174.1220  145.6130 C   0  0  2  0  0  3  0  0  0  0  0  0
  195.6470  172.8430  144.9920 C   0  0  1  0  0  3  0  0  0  0  0  0
  193.5730  174.3560  144.6930 C   0  0  1  0  0  3  0  0  0  0  0  0
  194.5950  175.2310  143.9610 C   0  0  0  0  0  2  0  0  0  0  0  0
  196.7880  170.6510  145.3930 C   0  0  0  0  0  0  0  0  0  0  0  0
  196.0040  171.6450  145.8200 C   0  0  0  0  0  3  0  0  0  0  0  0
  197.3910  170.6780  144.0240 C   0  0  0  0  0  1  0  0  0  0  0  0
  197.0730  169.5160  146.2860 C   0  0  0  0  0  0  0  0  0  0  0  0
  197.9410  168.6610  145.9710 O   0  0  0  0  0  0  0  0  0  0  0  0
  196.3840  169.3740  147.4880 O   0  0  0  0  0  1  0  0  0  0  0  0
  185.6810  177.3020  147.1130 N   0  0  0  0  0  2  0  0  0  0  0  0
  185.1460  178.6500  147.0120 C   0  0  0  0  0  2  0  0  0  0  0  0
  183.9760  178.6580  146.0510 C   0  0  0  0  0  1  0  0  0  0  0  0
  1  5  2  0  0  0  0
  1 18  1  0  0  0  0
  2 18  2  0  0  0  0
  2 13  1  0  0  0  0
  3 10  1  0  0  0  0
  3 16  1  0  0  0  0
  4  9  1  0  0  0  0
  6 11  2  0  0  0  0
  6  4  1  0  0  0  0
  7  8  1  0  0  0  0
  8  6  1  0  0  0  0
  9  5  1  0  0  0  0
  9 24  1  0  0  0  0
 10 11  1  0  0  0  0
 11  1  1  0  0  0  0
 12  7  1  0  0  0  0
 12 10  1  0  0  0  0
 13 14  2  0  0  0  0
 14 15  1  0  0  0  0
 14 32  1  0  0  0  0
 16  2  1  0  0  0  0
 17 15  2  0  0  0  0
 18 17  1  0  0  0  0
 19 22  1  0  0  0  0
 20 23  1  0  0  0  0
 22 21  1  6  0  0  0
 23 22  1  0  0  0  0
 23 27  1  1  0  0  0
 24 25  1  6  0  0  0
 24 20  1  0  0  0  0
 25 19  1  0  0  0  0
 26 27  2  0  0  0  0
 26 29  1  0  0  0  0
 28 26  1  0  0  0  0
 29 31  1  0  0  0  0
 30 29  2  0  0  0  0
 33 32  1  0  0  0  0
 34 33  1  0  0  0  0
M  END
>  <MODEL>
2

>  <REMARK>
 VINA RESULT:      -7.7      2.853      5.632
  Name = 
  5 active torsions:
  status: ('A' for Active; 'I' for Inactive)
    1  A    between atoms: N_3  and  C_13
    2  A    between atoms: N_3  and  C_25
    3  A    between atoms: C_7  and  C_11
    4  A    between atoms: N_18  and  C_30
    5  A    between atoms: C_26  and  C_28
                            x       y       z     vdW  Elec       q    Type
                         _______ _______ _______ _____ _____    ______ ____

>  <TORSDO>
F 5

$$$$
=
 OpenBabel11052420323D

 34 38  0  0  1  0  0  0  0  0999 V2000
  191.3190  175.7600  143.5280 C   0  0  0  0  0  0  0  0  0  0  0  0
  192.4210  174.5230  141.5080 C   0  0  0  0  0  0  0  0  0  0  0  0
  194.0340  176.2640  142.4420 C   0  0  0  0  0  2  0  0  0  0  0  0
  191.0060  176.5410  146.2670 C   0  0  0  0  0  2  0  0  0  0  0  0
  190.1480  176.2550  143.9670 C   0  0  0  0  0  3  0  0  0  0  0  0
  192.3720  176.3490  145.6790 C   0  0  0  0  0  0  0  0  0  0  0  0
  194.7070  175.6650  146.1390 C   0  0  0  0  0  2  0  0  0  0  0  0
  193.5630  176.5750  146.5610 C   0  0  0  0  0  2  0  0  0  0  0  0
  190.0480  176.9290  145.2290 N   0  0  0  0  0  0  0  0  0  0  0  0
  193.8540  175.9350  143.8360 N   0  0  0  0  0  0  0  0  0  0  0  0
  192.5270  175.9950  144.3840 C   0  0  0  0  0  0  0  0  0  0  0  0
  195.0510  175.9540  144.6820 C   0  0  0  0  0  2  0  0  0  0  0  0
  192.2720  173.5920  140.4720 C   0  0  0  0  0  3  0  0  0  0  0  0
  191.0390  172.9950  140.1990 C   0  0  0  0  0  0  0  0  0  0  0  0
  189.9320  173.3360  140.9680 C   0  0  0  0  0  3  0  0  0  0  0  0
  193.7180  175.1090  141.6350 N   0  0  0  0  0  2  0  0  0  0  0  0
  190.0640  174.2500  142.0110 C   0  0  0  0  0  3  0  0  0  0  0  0
  191.2970  174.8640  142.3200 C   0  0  0  0  0  0  0  0  0  0  0  0
  187.0490  177.7660  147.4620 C   0  0  0  0  0  2  0  0  0  0  0  0
  187.7020  177.3460  144.5480 C   0  0  0  0  0  2  0  0  0  0  0  0
  184.8370  178.3490  146.7790 O   0  0  0  0  0  1  0  0  0  0  0  0
  186.1570  178.2930  146.3280 C   0  0  2  0  0  3  0  0  0  0  0  0
  186.2570  177.4220  145.0700 C   0  0  1  0  0  3  0  0  0  0  0  0
  188.7760  177.5400  145.6340 C   0  0  1  0  0  3  0  0  0  0  0  0
  188.2740  176.9870  146.9710 C   0  0  0  0  0  2  0  0  0  0  0  0
  185.3830  177.5130  142.7260 C   0  0  0  0  0  0  0  0  0  0  0  0
  185.3630  177.9500  143.9890 C   0  0  0  0  0  3  0  0  0  0  0  0
  186.3160  176.4230  142.3020 C   0  0  0  0  0  1  0  0  0  0  0  0
  184.4640  178.1040  141.7390 C   0  0  0  0  0  0  0  0  0  0  0  0
  183.2530  178.2910  142.0290 O   0  0  0  0  0  1  0  0  0  0  0  0
  184.9220  178.4600  140.4740 O   0  0  0  0  0  0  0  0  0  0  0  0
  190.8910  172.0480  139.1390 N   0  0  0  0  0  2  0  0  0  0  0  0
  189.5970  171.6470  138.6130 C   0  0  0  0  0  2  0  0  0  0  0  0
  189.6910  170.2400  138.0590 C   0  0  0  0  0  1  0  0  0  0  0  0
  1  5  2  0  0  0  0
  1 11  1  0  0  0  0
  2 16  1  0  0  0  0
  2 18  1  0  0  0  0
  3 10  1  0  0  0  0
  5  9  1  0  0  0  0
  6  4  1  0  0  0  0
  6  8  1  0  0  0  0
  7  8  1  0  0  0  0
  9 24  1  0  0  0  0
  9  4  1  0  0  0  0
 10 11  1  0  0  0  0
 10 12  1  0  0  0  0
 11  6  2  0  0  0  0
 12  7  1  0  0  0  0
 13  2  2  0  0  0  0
 14 13  1  0  0  0  0
 14 15  2  0  0  0  0
 15 17  1  0  0  0  0
 16  3  1  0  0  0  0
 17 18  2  0  0  0  0
 18  1  1  0  0  0  0
 20 23  1  0  0  0  0
 22 21  1  1  0  0  0
 22 19  1  0  0  0  0
 23 27  1  6  0  0  0
 23 22  1  0  0  0  0
 24 20  1  6  0  0  0
 24 25  1  0  0  0  0
 25 19  1  0  0  0  0
 26 27  2  0  0  0  0
 28 26  1  0  0  0  0
 29 30  1  0  0  0  0
 29 26  1  0  0  0  0
 31 29  2  0  0  0  0
 32 14  1  0  0  0  0
 33 32  1  0  0  0  0
 34 33  1  0  0  0  0
M  END
>  <MODEL>
3

>  <REMARK>
 VINA RESULT:      -7.7      4.429      8.362
  Name = 
  5 active torsions:
  status: ('A' for Active; 'I' for Inactive)
    1  A    between atoms: N_3  and  C_13
    2  A    between atoms: N_3  and  C_25
    3  A    between atoms: C_7  and  C_11
    4  A    between atoms: N_18  and  C_30
    5  A    between atoms: C_26  and  C_28
                            x       y       z     vdW  Elec       q    Type
                         _______ _______ _______ _____ _____    ______ ____

>  <TORSDO>
F 5

$$$$
=
 OpenBabel11052420323D

 34 38  0  0  1  0  0  0  0  0999 V2000
  192.7480  175.1360  143.0190 C   0  0  0  0  0  0  0  0  0  0  0  0
  193.6480  174.6590  140.6140 C   0  0  0  0  0  0  0  0  0  0  0  0
  195.3080  176.1200  141.8840 C   0  0  0  0  0  2  0  0  0  0  0  0
  192.7260  175.0080  145.8820 C   0  0  0  0  0  2  0  0  0  0  0  0
  191.6210  175.3970  143.7050 C   0  0  0  0  0  3  0  0  0  0  0  0
  194.0210  175.0930  145.1310 C   0  0  0  0  0  0  0  0  0  0  0  0
  196.4110  174.4460  145.1190 C   0  0  0  0  0  2  0  0  0  0  0  0
  195.2970  175.1070  145.9170 C   0  0  0  0  0  2  0  0  0  0  0  0
  191.6460  175.6390  145.1190 N   0  0  0  0  0  0  0  0  0  0  0  0
  195.2960  175.3640  143.1150 N   0  0  0  0  0  0  0  0  0  0  0  0
  194.0380  175.1690  143.7820 C   0  0  0  0  0  0  0  0  0  0  0  0
  196.5800  175.1930  143.8010 C   0  0  0  0  0  2  0  0  0  0  0  0
  193.4090  174.0880  139.3580 C   0  0  0  0  0  3  0  0  0  0  0  0
  192.1700  173.5290  139.0340 C   0  0  0  0  0  0  0  0  0  0  0  0
  191.1490  173.5450  139.9760 C   0  0  0  0  0  3  0  0  0  0  0  0
  194.9340  175.2550  140.7900 N   0  0  0  0  0  2  0  0  0  0  0  0
  191.3720  174.0970  141.2360 C   0  0  0  0  0  3  0  0  0  0  0  0
  192.6140  174.6600  141.5990 C   0  0  0  0  0  0  0  0  0  0  0  0
  188.5920  175.2670  147.4030 C   0  0  0  0  0  2  0  0  0  0  0  0
  189.4020  176.6540  144.8510 C   0  0  0  0  0  2  0  0  0  0  0  0
  186.4960  176.3970  147.2350 O   0  0  0  0  0  1  0  0  0  0  0  0
  187.8330  176.4780  146.8410 C   0  0  2  0  0  3  0  0  0  0  0  0
  187.9370  176.5590  145.3130 C   0  0  1  0  0  3  0  0  0  0  0  0
  190.4120  176.0140  145.8200 C   0  0  1  0  0  3  0  0  0  0  0  0
  189.7700  174.8190  146.5310 C   0  0  0  0  0  2  0  0  0  0  0  0
  186.3000  177.6740  143.7820 C   0  0  0  0  0  0  0  0  0  0  0  0
  187.1720  177.7390  144.7920 C   0  0  0  0  0  3  0  0  0  0  0  0
  186.0090  176.3760  143.0960 C   0  0  0  0  0  1  0  0  0  0  0  0
  185.6040  178.8950  143.3440 C   0  0  0  0  0  0  0  0  0  0  0  0
  185.0180  178.9280  142.2310 O   0  0  0  0  0  0  0  0  0  0  0  0
  185.5880  180.0270  144.1540 O   0  0  0  0  0  1  0  0  0  0  0  0
  191.9290  172.9510  137.7490 N   0  0  0  0  0  2  0  0  0  0  0  0
  190.6740  173.1100  137.0340 C   0  0  0  0  0  2  0  0  0  0  0  0
  190.6550  174.4560  136.3410 C   0  0  0  0  0  1  0  0  0  0  0  0
  1  5  2  0  0  0  0
  1 11  1  0  0  0  0
  2 16  1  0  0  0  0
  2 18  1  0  0  0  0
  3 10  1  0  0  0  0
  5  9  1  0  0  0  0
  6  4  1  0  0  0  0
  6  8  1  0  0  0  0
  7  8  1  0  0  0  0
  9 24  1  0  0  0  0
  9  4  1  0  0  0  0
 10 11  1  0  0  0  0
 10 12  1  0  0  0  0
 11  6  2  0  0  0  0
 12  7  1  0  0  0  0
 13  2  2  0  0  0  0
 14 13  1  0  0  0  0
 14 15  2  0  0  0  0
 15 17  1  0  0  0  0
 16  3  1  0  0  0  0
 17 18  2  0  0  0  0
 18  1  1  0  0  0  0
 20 23  1  0  0  0  0
 22 21  1  6  0  0  0
 22 19  1  0  0  0  0
 23 27  1  1  0  0  0
 23 22  1  0  0  0  0
 24 20  1  6  0  0  0
 24 25  1  0  0  0  0
 25 19  1  0  0  0  0
 26 27  2  0  0  0  0
 28 26  1  0  0  0  0
 29 26  1  0  0  0  0
 29 31  1  0  0  0  0
 30 29  2  0  0  0  0
 32 14  1  0  0  0  0
 33 32  1  0  0  0  0
 34 33  1  0  0  0  0
M  END
>  <MODEL>
4

>  <REMARK>
 VINA RESULT:      -7.6      4.569      8.491
  Name = 
  5 active torsions:
  status: ('A' for Active; 'I' for Inactive)
    1  A    between atoms: N_3  and  C_13
    2  A    between atoms: N_3  and  C_25
    3  A    between atoms: C_7  and  C_11
    4  A    between atoms: N_18  and  C_30
    5  A    between atoms: C_26  and  C_28
                            x       y       z     vdW  Elec       q    Type
                         _______ _______ _______ _____ _____    ______ ____

>  <TORSDO>
F 5

$$$$
=
 OpenBabel11052420323D

 34 38  0  0  1  0  0  0  0  0999 V2000
  189.4600  174.9590  144.1690 C   0  0  0  0  0  0  0  0  0  0  0  0
  188.2030  176.7330  145.6180 C   0  0  0  0  0  0  0  0  0  0  0  0
  189.4210  175.0830  147.1340 C   0  0  0  0  0  2  0  0  0  0  0  0
  191.7370  173.5880  143.1000 C   0  0  0  0  0  2  0  0  0  0  0  0
  189.3490  174.2230  143.0500 C   0  0  0  0  0  3  0  0  0  0  0  0
  191.7430  174.0900  144.5130 C   0  0  0  0  0  0  0  0  0  0  0  0
  193.1420  174.9870  146.3470 C   0  0  0  0  0  2  0  0  0  0  0  0
  192.9670  173.8570  145.3440 C   0  0  0  0  0  2  0  0  0  0  0  0
  190.3710  173.2930  142.6630 N   0  0  0  0  0  0  0  0  0  0  0  0
  190.6750  175.0850  146.4190 N   0  0  0  0  0  0  0  0  0  0  0  0
  190.6660  174.7240  145.0280 C   0  0  0  0  0  0  0  0  0  0  0  0
  191.8990  175.0600  147.2260 C   0  0  0  0  0  2  0  0  0  0  0  0
  187.3310  177.8280  145.6460 C   0  0  0  0  0  3  0  0  0  0  0  0
  186.7010  178.2890  144.4880 C   0  0  0  0  0  0  0  0  0  0  0  0
  186.9380  177.6420  143.2800 C   0  0  0  0  0  3  0  0  0  0  0  0
  188.7270  176.3230  146.8830 N   0  0  0  0  0  2  0  0  0  0  0  0
  187.8120  176.5580  143.2300 C   0  0  0  0  0  3  0  0  0  0  0  0
  188.4730  176.0750  144.3800 C   0  0  0  0  0  0  0  0  0  0  0  0
  190.9880  170.4220  140.2020 C   0  0  0  0  0  2  0  0  0  0  0  0
  190.0390  173.2840  140.2070 C   0  0  0  0  0  2  0  0  0  0  0  0
  190.4870  170.3640  137.8680 O   0  0  0  0  0  1  0  0  0  0  0  0
  190.1620  171.0230  139.0550 C   0  0  2  0  0  3  0  0  0  0  0  0
  190.3950  172.5320  138.9130 C   0  0  1  0  0  3  0  0  0  0  0  0
  190.1750  172.4380  141.4860 C   0  0  1  0  0  3  0  0  0  0  0  0
  191.3060  171.4190  141.3210 C   0  0  0  0  0  2  0  0  0  0  0  0
  190.0790  173.9230  136.8560 C   0  0  0  0  0  0  0  0  0  0  0  0
  189.5900  173.0870  137.7760 C   0  0  0  0  0  3  0  0  0  0  0  0
  191.5110  174.3590  136.8920 C   0  0  0  0  0  1  0  0  0  0  0  0
  189.2010  174.4140  135.7810 C   0  0  0  0  0  0  0  0  0  0  0  0
  189.2990  173.9460  134.6160 O   0  0  0  0  0  0  0  0  0  0  0  0
  188.2550  175.4010  136.0390 O   0  0  0  0  0  1  0  0  0  0  0  0
  185.8080  179.4050  144.5210 N   0  0  0  0  0  2  0  0  0  0  0  0
  184.3620  179.2600  144.5470 C   0  0  0  0  0  2  0  0  0  0  0  0
  183.9360  178.6980  145.8870 C   0  0  0  0  0  1  0  0  0  0  0  0
  1 18  1  0  0  0  0
  1 11  1  0  0  0  0
  2 13  1  0  0  0  0
  2 16  1  0  0  0  0
  4  6  1  0  0  0  0
  5  1  2  0  0  0  0
  6 11  2  0  0  0  0
  6  8  1  0  0  0  0
  7 12  1  0  0  0  0
  8  7  1  0  0  0  0
  9  5  1  0  0  0  0
  9  4  1  0  0  0  0
 10  3  1  0  0  0  0
 10 12  1  0  0  0  0
 11 10  1  0  0  0  0
 14 32  1  0  0  0  0
 14 13  2  0  0  0  0
 15 14  1  0  0  0  0
 16  3  1  0  0  0  0
 17 15  2  0  0  0  0
 17 18  1  0  0  0  0
 18  2  2  0  0  0  0
 19 25  1  0  0  0  0
 22 21  1  6  0  0  0
 22 19  1  0  0  0  0
 23 27  1  6  0  0  0
 23 22  1  0  0  0  0
 23 20  1  0  0  0  0
 24 20  1  6  0  0  0
 24  9  1  0  0  0  0
 25 24  1  0  0  0  0
 26 28  1  0  0  0  0
 26 27  2  0  0  0  0
 29 31  1  0  0  0  0
 29 26  1  0  0  0  0
 30 29  2  0  0  0  0
 32 33  1  0  0  0  0
 33 34  1  0  0  0  0
M  END
>  <MODEL>
5

>  <REMARK>
 VINA RESULT:      -7.4      4.301      6.082
  Name = 
  5 active torsions:
  status: ('A' for Active; 'I' for Inactive)
    1  A    between atoms: N_3  and  C_13
    2  A    between atoms: N_3  and  C_25
    3  A    between atoms: C_7  and  C_11
    4  A    between atoms: N_18  and  C_30
    5  A    between atoms: C_26  and  C_28
                            x       y       z     vdW  Elec       q    Type
                         _______ _______ _______ _____ _____    ______ ____

>  <TORSDO>
F 5

$$$$
=
 OpenBabel11052420323D

 34 38  0  0  1  0  0  0  0  0999 V2000
  190.0290  174.8660  142.2110 C   0  0  0  0  0  0  0  0  0  0  0  0
  192.4530  174.1100  142.8260 C   0  0  0  0  0  0  0  0  0  0  0  0
  191.1590  172.1460  141.8400 C   0  0  0  0  0  2  0  0  0  0  0  0
  187.8300  175.4510  140.4700 C   0  0  0  0  0  2  0  0  0  0  0  0
  189.0130  175.6390  142.6320 C   0  0  0  0  0  3  0  0  0  0  0  0
  188.7620  174.3160  140.1670 C   0  0  0  0  0  0  0  0  0  0  0  0
  189.8290  172.9830  138.3750 C   0  0  0  0  0  2  0  0  0  0  0  0
  188.5130  173.5020  138.9340 C   0  0  0  0  0  2  0  0  0  0  0  0
  187.7730  175.7010  141.9120 N   0  0  0  0  0  0  0  0  0  0  0  0
  190.5880  172.8600  140.7220 N   0  0  0  0  0  0  0  0  0  0  0  0
  189.7930  174.0260  140.9920 C   0  0  0  0  0  0  0  0  0  0  0  0
  190.5190  172.1450  139.4440 C   0  0  0  0  0  2  0  0  0  0  0  0
  193.6810  174.4480  143.4090 C   0  0  0  0  0  3  0  0  0  0  0  0
  193.8690  175.6700  144.0580 C   0  0  0  0  0  0  0  0  0  0  0  0
  192.8120  176.5700  144.1350 C   0  0  0  0  0  3  0  0  0  0  0  0
  192.3760  172.8030  142.2540 N   0  0  0  0  0  2  0  0  0  0  0  0
  191.5870  176.2570  143.5500 C   0  0  0  0  0  3  0  0  0  0  0  0
  191.3670  175.0360  142.8770 C   0  0  0  0  0  0  0  0  0  0  0  0
  184.7060  177.9960  141.9140 C   0  0  0  0  0  2  0  0  0  0  0  0
  187.1130  177.3720  143.6190 C   0  0  0  0  0  2  0  0  0  0  0  0
  183.9800  179.4650  143.6510 O   0  0  0  0  0  1  0  0  0  0  0  0
  184.7750  178.3430  143.4080 C   0  0  2  0  0  3  0  0  0  0  0  0
  186.2150  178.5960  143.8700 C   0  0  1  0  0  3  0  0  0  0  0  0
  186.6530  176.4810  142.4500 C   0  0  1  0  0  3  0  0  0  0  0  0
  185.9790  177.3370  141.3740 C   0  0  0  0  0  2  0  0  0  0  0  0
  185.8720  178.1210  146.3040 C   0  0  0  0  0  0  0  0  0  0  0  0
  186.2500  178.9500  145.3270 C   0  0  0  0  0  3  0  0  0  0  0  0
  185.3900  176.7370  145.9990 C   0  0  0  0  0  1  0  0  0  0  0  0
  185.9410  178.5710  147.7040 C   0  0  0  0  0  0  0  0  0  0  0  0
  185.8050  177.7450  148.6450 O   0  0  0  0  0  1  0  0  0  0  0  0
  186.1550  179.9130  148.0040 O   0  0  0  0  0  0  0  0  0  0  0  0
  195.1220  176.0090  144.6560 N   0  0  0  0  0  2  0  0  0  0  0  0
  196.4020  175.6530  144.0650 C   0  0  0  0  0  2  0  0  0  0  0  0
  196.8130  176.7190  143.0720 C   0  0  0  0  0  1  0  0  0  0  0  0
  1  5  2  0  0  0  0
  1 18  1  0  0  0  0
  2 18  2  0  0  0  0
  2 13  1  0  0  0  0
  3 16  1  0  0  0  0
  4  9  1  0  0  0  0
  6  4  1  0  0  0  0
  6 11  2  0  0  0  0
  7  8  1  0  0  0  0
  7 12  1  0  0  0  0
  8  6  1  0  0  0  0
  9 24  1  0  0  0  0
  9  5  1  0  0  0  0
 10 11  1  0  0  0  0
 10  3  1  0  0  0  0
 11  1  1  0  0  0  0
 12 10  1  0  0  0  0
 13 14  2  0  0  0  0
 14 15  1  0  0  0  0
 14 32  1  0  0  0  0
 16  2  1  0  0  0  0
 17 15  2  0  0  0  0
 18 17  1  0  0  0  0
 19 22  1  0  0  0  0
 20 23  1  0  0  0  0
 22 21  1  6  0  0  0
 22 23  1  0  0  0  0
 23 27  1  1  0  0  0
 24 25  1  6  0  0  0
 24 20  1  0  0  0  0
 25 19  1  0  0  0  0
 26 29  1  0  0  0  0
 27 26  2  0  0  0  0
 28 26  1  0  0  0  0
 29 31  2  0  0  0  0
 29 30  1  0  0  0  0
 33 32  1  0  0  0  0
 34 33  1  0  0  0  0
M  END
>  <MODEL>
6

>  <REMARK>
 VINA RESULT:      -7.2      4.379      9.423
  Name = 
  5 active torsions:
  status: ('A' for Active; 'I' for Inactive)
    1  A    between atoms: N_3  and  C_13
    2  A    between atoms: N_3  and  C_25
    3  A    between atoms: C_7  and  C_11
    4  A    between atoms: N_18  and  C_30
    5  A    between atoms: C_26  and  C_28
                            x       y       z     vdW  Elec       q    Type
                         _______ _______ _______ _____ _____    ______ ____

>  <TORSDO>
F 5

$$$$
=
 OpenBabel11052420323D

 34 38  0  0  1  0  0  0  0  0999 V2000
  189.6750  174.9000  144.3090 C   0  0  0  0  0  0  0  0  0  0  0  0
  187.7320  176.1180  145.5610 C   0  0  0  0  0  0  0  0  0  0  0  0
  189.2470  174.9470  147.2460 C   0  0  0  0  0  2  0  0  0  0  0  0
  192.3910  174.4000  143.5440 C   0  0  0  0  0  2  0  0  0  0  0  0
  189.9520  174.1920  143.2010 C   0  0  0  0  0  3  0  0  0  0  0  0
  192.0600  174.8470  144.9370 C   0  0  0  0  0  0  0  0  0  0  0  0
  192.8480  176.1290  146.9030 C   0  0  0  0  0  2  0  0  0  0  0  0
  193.1840  175.0250  145.9110 C   0  0  0  0  0  2  0  0  0  0  0  0
  191.2660  173.6690  142.9570 N   0  0  0  0  0  0  0  0  0  0  0  0
  190.5030  175.3860  146.6830 N   0  0  0  0  0  0  0  0  0  0  0  0
  190.7800  175.0700  145.3080 C   0  0  0  0  0  0  0  0  0  0  0  0
  191.5590  175.7610  147.6270 C   0  0  0  0  0  2  0  0  0  0  0  0
  186.5450  176.8540  145.4630 C   0  0  0  0  0  3  0  0  0  0  0  0
  185.9370  177.0960  144.2280 C   0  0  0  0  0  0  0  0  0  0  0  0
  186.5190  176.5900  143.0720 C   0  0  0  0  0  3  0  0  0  0  0  0
  188.2100  175.8850  146.8870 N   0  0  0  0  0  2  0  0  0  0  0  0
  187.7060  175.8670  143.1490 C   0  0  0  0  0  3  0  0  0  0  0  0
  188.3520  175.6130  144.3780 C   0  0  0  0  0  0  0  0  0  0  0  0
  193.2090  171.4790  140.4850 C   0  0  0  0  0  2  0  0  0  0  0  0
  190.9440  173.4680  140.5080 C   0  0  0  0  0  2  0  0  0  0  0  0
  192.7680  171.1530  138.1620 O   0  0  0  0  0  1  0  0  0  0  0  0
  192.1740  171.5680  139.3550 C   0  0  2  0  0  3  0  0  0  0  0  0
  191.6100  172.9860  139.2070 C   0  0  1  0  0  3  0  0  0  0  0  0
  191.5100  172.8200  141.7840 C   0  0  1  0  0  3  0  0  0  0  0  0
  192.9980  172.5110  141.5980 C   0  0  0  0  0  2  0  0  0  0  0  0
  190.7810  173.7840  136.9840 C   0  0  0  0  0  0  0  0  0  0  0  0
  190.6160  173.0470  138.0860 C   0  0  0  0  0  3  0  0  0  0  0  0
  192.0150  174.6090  136.7840 C   0  0  0  0  0  1  0  0  0  0  0  0
  189.7400  173.7770  135.9430 C   0  0  0  0  0  0  0  0  0  0  0  0
  188.9030  174.7150  135.8740 O   0  0  0  0  0  1  0  0  0  0  0  0
  189.6680  172.7330  135.0250 O   0  0  0  0  0  0  0  0  0  0  0  0
  184.7230  177.8450  144.1330 N   0  0  0  0  0  2  0  0  0  0  0  0
  184.5020  179.0890  144.8510 C   0  0  0  0  0  2  0  0  0  0  0  0
  185.3860  180.1720  144.2680 C   0  0  0  0  0  1  0  0  0  0  0  0
  1 18  1  0  0  0  0
  1 11  1  0  0  0  0
  2 16  1  0  0  0  0
  4  6  1  0  0  0  0
  5  1  2  0  0  0  0
  6 11  2  0  0  0  0
  6  8  1  0  0  0  0
  7 12  1  0  0  0  0
  8  7  1  0  0  0  0
  9  5  1  0  0  0  0
  9  4  1  0  0  0  0
 10  3  1  0  0  0  0
 10 12  1  0  0  0  0
 11 10  1  0  0  0  0
 13  2  1  0  0  0  0
 14 13  2  0  0  0  0
 15 17  2  0  0  0  0
 15 14  1  0  0  0  0
 16  3  1  0  0  0  0
 17 18  1  0  0  0  0
 18  2  2  0  0  0  0
 19 25  1  0  0  0  0
 22 21  1  6  0  0  0
 22 19  1  0  0  0  0
 23 27  1  6  0  0  0
 23 22  1  0  0  0  0
 23 20  1  0  0  0  0
 24 20  1  6  0  0  0
 24  9  1  0  0  0  0
 25 24  1  0  0  0  0
 26 27  2  0  0  0  0
 28 26  1  0  0  0  0
 29 26  1  0  0  0  0
 30 29  1  0  0  0  0
 31 29  2  0  0  0  0
 32 14  1  0  0  0  0
 32 33  1  0  0  0  0
 34 33  1  0  0  0  0
M  END
>  <MODEL>
7

>  <REMARK>
 VINA RESULT:      -7.1      4.035      5.744
  Name = 
  5 active torsions:
  status: ('A' for Active; 'I' for Inactive)
    1  A    between atoms: N_3  and  C_13
    2  A    between atoms: N_3  and  C_25
    3  A    between atoms: C_7  and  C_11
    4  A    between atoms: N_18  and  C_30
    5  A    between atoms: C_26  and  C_28
                            x       y       z     vdW  Elec       q    Type
                         _______ _______ _______ _____ _____    ______ ____

>  <TORSDO>
F 5

$$$$
=
 OpenBabel11052420323D

 34 38  0  0  1  0  0  0  0  0999 V2000
  189.2940  174.8740  144.3070 C   0  0  0  0  0  0  0  0  0  0  0  0
  187.6270  176.8440  144.7130 C   0  0  0  0  0  0  0  0  0  0  0  0
  188.5800  176.0450  146.9390 C   0  0  0  0  0  2  0  0  0  0  0  0
  191.8400  173.5610  144.2780 C   0  0  0  0  0  2  0  0  0  0  0  0
  189.4870  173.7780  143.5530 C   0  0  0  0  0  3  0  0  0  0  0  0
  191.4940  174.5310  145.3680 C   0  0  0  0  0  0  0  0  0  0  0  0
  192.3810  176.2210  146.9450 C   0  0  0  0  0  2  0  0  0  0  0  0
  192.5130  174.7940  146.4350 C   0  0  0  0  0  2  0  0  0  0  0  0
  190.6310  172.9320  143.7440 N   0  0  0  0  0  0  0  0  0  0  0  0
  189.9600  175.9740  146.5200 N   0  0  0  0  0  0  0  0  0  0  0  0
  190.2890  175.1420  145.3960 C   0  0  0  0  0  0  0  0  0  0  0  0
  190.9700  176.4200  147.4850 C   0  0  0  0  0  2  0  0  0  0  0  0
  186.6990  177.7360  144.1610 C   0  0  0  0  0  3  0  0  0  0  0  0
  186.3160  177.6530  142.8200 C   0  0  0  0  0  0  0  0  0  0  0  0
  186.8610  176.6590  142.0160 C   0  0  0  0  0  3  0  0  0  0  0  0
  187.8780  176.9970  146.1110 N   0  0  0  0  0  2  0  0  0  0  0  0
  187.7950  175.7700  142.5440 C   0  0  0  0  0  3  0  0  0  0  0  0
  188.2120  175.8330  143.8920 C   0  0  0  0  0  0  0  0  0  0  0  0
  192.1160  169.5980  142.5800 C   0  0  0  0  0  2  0  0  0  0  0  0
  190.6330  171.9720  141.4600 C   0  0  0  0  0  2  0  0  0  0  0  0
  191.9480  168.5980  140.4180 O   0  0  0  0  0  1  0  0  0  0  0  0
  191.3460  169.5420  141.2520 C   0  0  2  0  0  3  0  0  0  0  0  0
  191.2960  170.9110  140.5640 C   0  0  1  0  0  3  0  0  0  0  0  0
  190.7620  171.6930  142.9680 C   0  0  1  0  0  3  0  0  0  0  0  0
  192.0820  170.9720  143.2560 C   0  0  0  0  0  2  0  0  0  0  0  0
  190.9890  171.3620  138.1200 C   0  0  0  0  0  0  0  0  0  0  0  0
  190.5550  170.8230  139.2630 C   0  0  0  0  0  3  0  0  0  0  0  0
  192.2920  172.0970  138.0600 C   0  0  0  0  0  1  0  0  0  0  0  0
  190.1810  171.2220  136.8980 C   0  0  0  0  0  0  0  0  0  0  0  0
  190.3420  170.2300  136.1400 O   0  0  0  0  0  0  0  0  0  0  0  0
  189.2310  172.1830  136.5660 O   0  0  0  0  0  1  0  0  0  0  0  0
  185.3660  178.5630  142.2610 N   0  0  0  0  0  2  0  0  0  0  0  0
  183.9880  178.1950  141.9830 C   0  0  0  0  0  2  0  0  0  0  0  0
  183.7310  178.2890  140.4930 C   0  0  0  0  0  1  0  0  0  0  0  0
  1 11  1  0  0  0  0
  2 16  1  0  0  0  0
  4  6  1  0  0  0  0
  5  9  1  0  0  0  0
  5  1  2  0  0  0  0
  6 11  2  0  0  0  0
  6  8  1  0  0  0  0
  7 12  1  0  0  0  0
  8  7  1  0  0  0  0
  9  4  1  0  0  0  0
 10  3  1  0  0  0  0
 10 12  1  0  0  0  0
 11 10  1  0  0  0  0
 13  2  1  0  0  0  0
 14 13  2  0  0  0  0
 15 17  2  0  0  0  0
 15 14  1  0  0  0  0
 16  3  1  0  0  0  0
 17 18  1  0  0  0  0
 18  1  1  0  0  0  0
 18  2  2  0  0  0  0
 19 25  1  0  0  0  0
 22 21  1  6  0  0  0
 22 19  1  0  0  0  0
 23 27  1  6  0  0  0
 23 22  1  0  0  0  0
 23 20  1  0  0  0  0
 24 20  1  6  0  0  0
 24 25  1  0  0  0  0
 24  9  1  0  0  0  0
 26 27  2  0  0  0  0
 28 26  1  0  0  0  0
 29 26  1  0  0  0  0
 30 29  2  0  0  0  0
 31 29  1  0  0  0  0
 32 14  1  0  0  0  0
 33 32  1  0  0  0  0
 34 33  1  0  0  0  0
M  END
>  <MODEL>
8

>  <REMARK>
 VINA RESULT:      -6.9      3.575      5.246
  Name = 
  5 active torsions:
  status: ('A' for Active; 'I' for Inactive)
    1  A    between atoms: N_3  and  C_13
    2  A    between atoms: N_3  and  C_25
    3  A    between atoms: C_7  and  C_11
    4  A    between atoms: N_18  and  C_30
    5  A    between atoms: C_26  and  C_28
                            x       y       z     vdW  Elec       q    Type
                         _______ _______ _______ _____ _____    ______ ____

>  <TORSDO>
F 5

$$$$
=
 OpenBabel11052420323D

 34 38  0  0  1  0  0  0  0  0999 V2000
  187.3270  176.5070  142.2200 C   0  0  0  0  0  0  0  0  0  0  0  0
  185.3250  177.6570  140.9970 C   0  0  0  0  0  0  0  0  0  0  0  0
  187.2230  177.2420  139.3460 C   0  0  0  0  0  2  0  0  0  0  0  0
  189.1740  174.3970  142.8070 C   0  0  0  0  0  2  0  0  0  0  0  0
  188.0080  176.5000  143.3790 C   0  0  0  0  0  3  0  0  0  0  0  0
  188.7000  174.6270  141.4040 C   0  0  0  0  0  0  0  0  0  0  0  0
  188.1630  173.5560  139.2370 C   0  0  0  0  0  2  0  0  0  0  0  0
  189.2150  173.7250  140.3230 C   0  0  0  0  0  2  0  0  0  0  0  0
  189.1440  175.6450  143.5730 N   0  0  0  0  0  0  0  0  0  0  0  0
  187.5030  175.8820  139.7430 N   0  0  0  0  0  0  0  0  0  0  0  0
  187.8390  175.6300  141.1180 C   0  0  0  0  0  0  0  0  0  0  0  0
  187.8150  174.9290  138.6740 C   0  0  0  0  0  2  0  0  0  0  0  0
  184.0580  178.2450  141.1060 C   0  0  0  0  0  3  0  0  0  0  0  0
  183.4550  178.4560  142.3480 C   0  0  0  0  0  0  0  0  0  0  0  0
  184.1290  178.0800  143.5050 C   0  0  0  0  0  3  0  0  0  0  0  0
  185.8540  177.5620  139.6740 N   0  0  0  0  0  2  0  0  0  0  0  0
  185.3840  177.4810  143.4160 C   0  0  0  0  0  3  0  0  0  0  0  0
  186.0160  177.2440  142.1770 C   0  0  0  0  0  0  0  0  0  0  0  0
  190.3790  177.0610  146.9120 C   0  0  0  0  0  2  0  0  0  0  0  0
  191.4210  175.5150  144.5420 C   0  0  0  0  0  2  0  0  0  0  0  0
  192.5230  176.7670  147.9210 O   0  0  0  0  0  1  0  0  0  0  0  0
  191.6600  176.2150  146.9730 C   0  0  2  0  0  3  0  0  0  0  0  0
  192.3500  176.1250  145.6070 C   0  0  1  0  0  3  0  0  0  0  0  0
  189.9220  175.7310  144.8150 C   0  0  1  0  0  3  0  0  0  0  0  0
  189.7080  177.0660  145.5340 C   0  0  0  0  0  2  0  0  0  0  0  0
  194.8100  175.7520  145.3280 C   0  0  0  0  0  0  0  0  0  0  0  0
  193.6050  175.3100  145.7000 C   0  0  0  0  0  3  0  0  0  0  0  0
  194.9920  177.1380  144.7930 C   0  0  0  0  0  1  0  0  0  0  0  0
  195.9790  174.8670  145.4570 C   0  0  0  0  0  0  0  0  0  0  0  0
  196.0760  174.0790  146.4340 O   0  0  0  0  0  1  0  0  0  0  0  0
  196.9910  174.8910  144.5010 O   0  0  0  0  0  0  0  0  0  0  0  0
  182.1650  179.0610  142.4550 N   0  0  0  0  0  2  0  0  0  0  0  0
  181.0090  178.5930  141.7080 C   0  0  0  0  0  2  0  0  0  0  0  0
  180.5510  179.6780  140.7550 C   0  0  0  0  0  1  0  0  0  0  0  0
  1  5  2  0  0  0  0
  2 13  2  0  0  0  0
  2 18  1  0  0  0  0
  3 16  1  0  0  0  0
  3 10  1  0  0  0  0
  4  9  1  0  0  0  0
  5  9  1  0  0  0  0
  6  4  1  0  0  0  0
  7  8  1  0  0  0  0
  8  6  1  0  0  0  0
 10 11  1  0  0  0  0
 11  6  2  0  0  0  0
 11  1  1  0  0  0  0
 12  7  1  0  0  0  0
 12 10  1  0  0  0  0
 13 14  1  0  0  0  0
 14 32  1  0  0  0  0
 14 15  2  0  0  0  0
 16  2  1  0  0  0  0
 17 15  1  0  0  0  0
 18  1  1  0  0  0  0
 18 17  2  0  0  0  0
 19 22  1  0  0  0  0
 20 24  1  0  0  0  0
 20 23  1  0  0  0  0
 22 21  1  1  0  0  0
 23 27  1  1  0  0  0
 23 22  1  0  0  0  0
 24  9  1  6  0  0  0
 24 25  1  0  0  0  0
 25 19  1  0  0  0  0
 26 29  1  0  0  0  0
 26 27  2  0  0  0  0
 28 26  1  0  0  0  0
 29 30  1  0  0  0  0
 31 29  2  0  0  0  0
 33 32  1  0  0  0  0
 34 33  1  0  0  0  0
M  END
>  <MODEL>
9

>  <REMARK>
 VINA RESULT:      -6.8      2.427      4.495
  Name = 
  5 active torsions:
  status: ('A' for Active; 'I' for Inactive)
    1  A    between atoms: N_3  and  C_13
    2  A    between atoms: N_3  and  C_25
    3  A    between atoms: C_7  and  C_11
    4  A    between atoms: N_18  and  C_30
    5  A    between atoms: C_26  and  C_28
                            x       y       z     vdW  Elec       q    Type
                         _______ _______ _______ _____ _____    ______ ____

>  <TORSDO>
F 5

$$$$
