=
 OpenBabel11052417303D

 25 28  0  0  1  0  0  0  0  0999 V2000
  186.4940  177.0570  143.8940 C   0  0  0  0  0  0  0  0  0  0  0  0
  187.5870  176.2280  143.5650 C   0  0  0  0  0  0  0  0  0  0  0  0
  185.9390  177.3440  141.5340 C   0  0  0  0  0  3  0  0  0  0  0  0
  186.0490  177.4560  145.1700 C   0  0  0  0  0  0  0  0  0  0  0  0
  184.8910  178.4380  147.4760 N   0  0  0  0  0  0  0  0  0  0  0  0
  187.0210  176.5230  141.1990 C   0  0  0  0  0  3  0  0  0  0  0  0
  184.9330  178.2830  145.1160 C   0  0  0  0  0  0  0  0  0  0  0  0
  184.3470  178.7800  146.2740 C   0  0  0  0  0  3  0  0  0  0  0  0
  188.9660  175.0930  141.8420 C   0  0  0  0  0  0  0  0  0  0  0  0
  189.2420  174.8600  140.6350 O   0  0  0  0  0  0  0  0  0  0  0  0
  188.4870  175.6600  144.6340 C   0  0  0  0  0  2  0  0  0  0  0  0
  185.9880  177.6270  147.5680 C   0  0  0  0  0  3  0  0  0  0  0  0
  185.6980  177.5940  142.8800 C   0  0  0  0  0  0  0  0  0  0  0  0
  184.4620  178.5460  143.5220 S   0  0  0  0  0  0  0  0  0  0  0  0
  189.7490  174.4880  142.8720 N   0  0  0  0  0  0  0  0  0  0  0  0
  186.5960  177.1140  146.4110 C   0  0  0  0  0  3  0  0  0  0  0  0
  189.5440  174.7060  144.1370 C   0  0  0  0  0  0  0  0  0  0  0  0
  187.8410  175.9670  142.2000 C   0  0  0  0  0  0  0  0  0  0  0  0
  190.5840  173.8900  145.3370 S   0  0  0  0  0  0  0  0  0  0  0  0
  189.9210  174.8910  146.7040 C   0  0  0  0  0  2  0  0  0  0  0  0
  191.0520  175.4190  147.5700 C   0  0  1  0  0  3  0  0  0  0  0  0
  192.3900  175.2260  146.8780 C   0  0  0  0  0  1  0  0  0  0  0  0
  190.8350  176.8640  147.8800 C   0  0  0  0  0  0  0  0  0  0  0  0
  191.5630  177.4630  148.8980 O   0  0  0  0  0  1  0  0  0  0  0  0
  189.9990  177.5430  147.2260 O   0  0  0  0  0  0  0  0  0  0  0  0
  1  4  1  0  0  0  0
  2  1  1  0  0  0  0
  2 11  1  0  0  0  0
  3 13  1  0  0  0  0
  4 16  1  0  0  0  0
  5 12  1  0  0  0  0
  6  3  2  0  0  0  0
  6 18  1  0  0  0  0
  7  4  2  0  0  0  0
  7  8  1  0  0  0  0
  8  5  2  0  0  0  0
  9 18  1  0  0  0  0
  9 15  1  0  0  0  0
 10  9  2  0  0  0  0
 13 14  1  0  0  0  0
 13  1  2  0  0  0  0
 14  7  1  0  0  0  0
 15 17  2  0  0  0  0
 16 12  2  0  0  0  0
 17 11  1  0  0  0  0
 17 19  1  0  0  0  0
 18  2  2  0  0  0  0
 19 20  1  0  0  0  0
 20 21  1  0  0  0  0
 21 22  1  6  0  0  0
 21 23  1  0  0  0  0
 23 24  1  0  0  0  0
 25 23  2  0  0  0  0
M  END
>  <MODEL>
1

>  <REMARK>
 VINA RESULT:      -7.2      0.000      0.000
  Name = 
  4 active torsions:
  status: ('A' for Active; 'I' for Inactive)
    1  A    between atoms: C_2  and  C_21
    2  A    between atoms: S_6  and  C_15
    3  A    between atoms: S_6  and  C_23
    4  A    between atoms: C_15  and  C_21
                            x       y       z     vdW  Elec       q    Type
                         _______ _______ _______ _____ _____    ______ ____

>  <TORSDO>
F 4

$$$$
=
 OpenBabel11052417303D

 25 28  0  0  1  0  0  0  0  0999 V2000
  187.4670  178.0050  144.4820 C   0  0  0  0  0  0  0  0  0  0  0  0
  188.8290  177.6430  144.5510 C   0  0  0  0  0  0  0  0  0  0  0  0
  187.6310  178.3440  142.0700 C   0  0  0  0  0  3  0  0  0  0  0  0
  186.5260  178.0820  145.5280 C   0  0  0  0  0  0  0  0  0  0  0  0
  184.4220  178.3450  147.2950 N   0  0  0  0  0  0  0  0  0  0  0  0
  188.9820  177.9870  142.1290 C   0  0  0  0  0  3  0  0  0  0  0  0
  185.2670  178.4770  145.0900 C   0  0  0  0  0  0  0  0  0  0  0  0
  184.2050  178.6100  145.9760 C   0  0  0  0  0  3  0  0  0  0  0  0
  190.9970  177.2490  143.4080 C   0  0  0  0  0  0  0  0  0  0  0  0
  191.7070  177.2600  142.3680 O   0  0  0  0  0  0  0  0  0  0  0  0
  189.4820  177.3040  145.8680 C   0  0  0  0  0  2  0  0  0  0  0  0
  185.6460  177.9550  147.7620 C   0  0  0  0  0  3  0  0  0  0  0  0
  186.8990  178.3450  143.2520 C   0  0  0  0  0  0  0  0  0  0  0  0
  185.2680  178.7380  143.4280 S   0  0  0  0  0  0  0  0  0  0  0  0
  191.5720  176.8380  144.6490 N   0  0  0  0  0  0  0  0  0  0  0  0
  186.7330  177.8140  146.8840 C   0  0  0  0  0  3  0  0  0  0  0  0
  190.9100  176.8310  145.7680 C   0  0  0  0  0  0  0  0  0  0  0  0
  189.5820  177.6380  143.3540 C   0  0  0  0  0  0  0  0  0  0  0  0
  191.7340  176.2930  147.2590 S   0  0  0  0  0  0  0  0  0  0  0  0
  193.3790  176.6330  146.5610 C   0  0  0  0  0  2  0  0  0  0  0  0
  194.1870  175.3510  146.4620 C   0  0  1  0  0  3  0  0  0  0  0  0
  193.2970  174.1890  146.0550 C   0  0  0  0  0  1  0  0  0  0  0  0
  195.3010  175.5160  145.4810 C   0  0  0  0  0  0  0  0  0  0  0  0
  195.3040  176.6100  144.6260 O   0  0  0  0  0  0  0  0  0  0  0  0
  196.2360  174.6730  145.4210 O   0  0  0  0  0  1  0  0  0  0  0  0
  1  2  1  0  0  0  0
  1  4  1  0  0  0  0
  2 11  1  0  0  0  0
  3  6  2  0  0  0  0
  3 13  1  0  0  0  0
  4 16  1  0  0  0  0
  5 12  1  0  0  0  0
  6 18  1  0  0  0  0
  7  4  2  0  0  0  0
  7  8  1  0  0  0  0
  8  5  2  0  0  0  0
  9 15  1  0  0  0  0
 10  9  2  0  0  0  0
 13 14  1  0  0  0  0
 13  1  2  0  0  0  0
 14  7  1  0  0  0  0
 15 17  2  0  0  0  0
 16 12  2  0  0  0  0
 17 11  1  0  0  0  0
 17 19  1  0  0  0  0
 18  9  1  0  0  0  0
 18  2  2  0  0  0  0
 20 19  1  0  0  0  0
 21 22  1  6  0  0  0
 21 20  1  0  0  0  0
 23 21  1  0  0  0  0
 24 23  2  0  0  0  0
 25 23  1  0  0  0  0
M  END
>  <MODEL>
2

>  <REMARK>
 VINA RESULT:      -7.1      2.665      3.051
  Name = 
  4 active torsions:
  status: ('A' for Active; 'I' for Inactive)
    1  A    between atoms: C_2  and  C_21
    2  A    between atoms: S_6  and  C_15
    3  A    between atoms: S_6  and  C_23
    4  A    between atoms: C_15  and  C_21
                            x       y       z     vdW  Elec       q    Type
                         _______ _______ _______ _____ _____    ______ ____

>  <TORSDO>
F 4

$$$$
=
 OpenBabel11052417303D

 25 28  0  0  1  0  0  0  0  0999 V2000
  185.6920  177.6060  143.6590 C   0  0  0  0  0  0  0  0  0  0  0  0
  186.3410  177.2110  144.8480 C   0  0  0  0  0  0  0  0  0  0  0  0
  183.9010  178.6680  144.9340 C   0  0  0  0  0  3  0  0  0  0  0  0
  186.0880  177.3760  142.3260 C   0  0  0  0  0  0  0  0  0  0  0  0
  186.5320  177.1280  139.6130 N   0  0  0  0  0  0  0  0  0  0  0  0
  184.5380  178.2800  146.1170 C   0  0  0  0  0  3  0  0  0  0  0  0
  185.1980  177.9130  141.4020 C   0  0  0  0  0  0  0  0  0  0  0  0
  185.4180  177.7900  140.0350 C   0  0  0  0  0  3  0  0  0  0  0  0
  186.4190  177.1670  147.3280 C   0  0  0  0  0  0  0  0  0  0  0  0
  185.9050  177.4340  148.4470 O   0  0  0  0  0  0  0  0  0  0  0  0
  187.6170  176.4070  144.8110 C   0  0  0  0  0  2  0  0  0  0  0  0
  187.4280  176.5880  140.4930 C   0  0  0  0  0  3  0  0  0  0  0  0
  184.4950  178.3210  143.7250 C   0  0  0  0  0  0  0  0  0  0  0  0
  183.9160  178.6750  142.1810 S   0  0  0  0  0  0  0  0  0  0  0  0
  187.6750  176.4900  147.2730 N   0  0  0  0  0  0  0  0  0  0  0  0
  187.2260  176.7000  141.8770 C   0  0  0  0  0  3  0  0  0  0  0  0
  188.2510  176.1550  146.1570 C   0  0  0  0  0  0  0  0  0  0  0  0
  185.7470  177.5580  146.0820 C   0  0  0  0  0  0  0  0  0  0  0  0
  189.8250  175.3140  146.2110 S   0  0  0  0  0  0  0  0  0  0  0  0
  190.7400  176.8480  145.8670 C   0  0  0  0  0  2  0  0  0  0  0  0
  191.1970  176.8790  144.4180 C   0  0  1  0  0  3  0  0  0  0  0  0
  190.7940  178.1880  143.7600 C   0  0  0  0  0  1  0  0  0  0  0  0
  192.6760  176.6950  144.3380 C   0  0  0  0  0  0  0  0  0  0  0  0
  193.4500  176.8570  145.4790 O   0  0  0  0  0  1  0  0  0  0  0  0
  193.2290  176.3940  143.2460 O   0  0  0  0  0  0  0  0  0  0  0  0
  1 13  1  0  0  0  0
  1  2  2  0  0  0  0
  2 18  1  0  0  0  0
  3  6  1  0  0  0  0
  4  1  1  0  0  0  0
  5  8  2  0  0  0  0
  5 12  1  0  0  0  0
  7 14  1  0  0  0  0
  7  4  2  0  0  0  0
  8  7  1  0  0  0  0
  9 10  2  0  0  0  0
 11  2  1  0  0  0  0
 11 17  1  0  0  0  0
 12 16  2  0  0  0  0
 13  3  2  0  0  0  0
 14 13  1  0  0  0  0
 15  9  1  0  0  0  0
 16  4  1  0  0  0  0
 17 19  1  0  0  0  0
 17 15  2  0  0  0  0
 18  6  2  0  0  0  0
 18  9  1  0  0  0  0
 20 19  1  0  0  0  0
 21 22  1  1  0  0  0
 21 20  1  0  0  0  0
 23 21  1  0  0  0  0
 23 24  1  0  0  0  0
 25 23  2  0  0  0  0
M  END
>  <MODEL>
3

>  <REMARK>
 VINA RESULT:      -7.1      2.464      4.665
  Name = 
  4 active torsions:
  status: ('A' for Active; 'I' for Inactive)
    1  A    between atoms: C_2  and  C_21
    2  A    between atoms: S_6  and  C_15
    3  A    between atoms: S_6  and  C_23
    4  A    between atoms: C_15  and  C_21
                            x       y       z     vdW  Elec       q    Type
                         _______ _______ _______ _____ _____    ______ ____

>  <TORSDO>
F 4

$$$$
=
 OpenBabel11052417303D

 25 28  0  0  1  0  0  0  0  0999 V2000
  186.9750  177.7470  143.9660 C   0  0  0  0  0  0  0  0  0  0  0  0
  188.2680  177.4650  144.4550 C   0  0  0  0  0  0  0  0  0  0  0  0
  186.1270  178.0300  146.2380 C   0  0  0  0  0  3  0  0  0  0  0  0
  186.5350  177.7970  142.6290 C   0  0  0  0  0  0  0  0  0  0  0  0
  185.3130  177.9870  140.1600 N   0  0  0  0  0  0  0  0  0  0  0  0
  187.4060  177.7520  146.7310 C   0  0  0  0  0  3  0  0  0  0  0  0
  185.1840  178.1060  142.5190 C   0  0  0  0  0  0  0  0  0  0  0  0
  184.5650  178.2030  141.2790 C   0  0  0  0  0  3  0  0  0  0  0  0
  189.8150  177.1940  146.3760 C   0  0  0  0  0  0  0  0  0  0  0  0
  190.0290  177.1620  147.6180 O   0  0  0  0  0  0  0  0  0  0  0  0
  189.4020  177.1290  143.5180 C   0  0  0  0  0  2  0  0  0  0  0  0
  186.6430  177.6810  140.2300 C   0  0  0  0  0  3  0  0  0  0  0  0
  185.9380  178.0220  144.8610 C   0  0  0  0  0  0  0  0  0  0  0  0
  184.4960  178.3250  144.0400 S   0  0  0  0  0  0  0  0  0  0  0  0
  190.8970  176.9730  145.4700 N   0  0  0  0  0  0  0  0  0  0  0  0
  187.2890  177.5780  141.4720 C   0  0  0  0  0  3  0  0  0  0  0  0
  190.7460  176.9600  144.1780 C   0  0  0  0  0  0  0  0  0  0  0  0
  188.4710  177.4700  145.8530 C   0  0  0  0  0  0  0  0  0  0  0  0
  192.1730  176.6770  143.1420 S   0  0  0  0  0  0  0  0  0  0  0  0
  193.0910  175.8800  144.4960 C   0  0  0  0  0  2  0  0  0  0  0  0
  194.2940  176.7210  144.8880 C   0  0  1  0  0  3  0  0  0  0  0  0
  194.3920  176.8390  146.3990 C   0  0  0  0  0  1  0  0  0  0  0  0
  195.5450  176.1230  144.3350 C   0  0  0  0  0  0  0  0  0  0  0  0
  195.9360  174.8540  144.7400 O   0  0  0  0  0  1  0  0  0  0  0  0
  196.2490  176.7580  143.5040 O   0  0  0  0  0  0  0  0  0  0  0  0
  1  2  2  0  0  0  0
  1 13  1  0  0  0  0
  2 18  1  0  0  0  0
  3  6  1  0  0  0  0
  4  1  1  0  0  0  0
  5 12  2  0  0  0  0
  5  8  1  0  0  0  0
  7  4  1  0  0  0  0
  7 14  1  0  0  0  0
  8  7  2  0  0  0  0
  9 10  2  0  0  0  0
 11 17  1  0  0  0  0
 11  2  1  0  0  0  0
 12 16  1  0  0  0  0
 13  3  2  0  0  0  0
 14 13  1  0  0  0  0
 15  9  1  0  0  0  0
 16  4  2  0  0  0  0
 17 15  2  0  0  0  0
 18  9  1  0  0  0  0
 18  6  2  0  0  0  0
 19 17  1  0  0  0  0
 19 20  1  0  0  0  0
 20 21  1  0  0  0  0
 21 22  1  1  0  0  0
 23 24  1  0  0  0  0
 23 21  1  0  0  0  0
 25 23  2  0  0  0  0
M  END
>  <MODEL>
4

>  <REMARK>
 VINA RESULT:      -7.1      3.075      4.673
  Name = 
  4 active torsions:
  status: ('A' for Active; 'I' for Inactive)
    1  A    between atoms: C_2  and  C_21
    2  A    between atoms: S_6  and  C_15
    3  A    between atoms: S_6  and  C_23
    4  A    between atoms: C_15  and  C_21
                            x       y       z     vdW  Elec       q    Type
                         _______ _______ _______ _____ _____    ______ ____

>  <TORSDO>
F 4

$$$$
=
 OpenBabel11052417303D

 25 28  0  0  1  0  0  0  0  0999 V2000
  185.6540  178.0350  143.7450 C   0  0  0  0  0  0  0  0  0  0  0  0
  186.5170  177.8530  144.8460 C   0  0  0  0  0  0  0  0  0  0  0  0
  183.8690  178.8210  145.2140 C   0  0  0  0  0  3  0  0  0  0  0  0
  185.9110  177.7930  142.3810 C   0  0  0  0  0  0  0  0  0  0  0  0
  186.0390  177.4480  139.6450 N   0  0  0  0  0  0  0  0  0  0  0  0
  184.7190  178.6440  146.3110 C   0  0  0  0  0  3  0  0  0  0  0  0
  184.8200  178.0850  141.5700 C   0  0  0  0  0  0  0  0  0  0  0  0
  184.8800  177.9130  140.1920 C   0  0  0  0  0  3  0  0  0  0  0  0
  186.9230  177.9960  147.2910 C   0  0  0  0  0  0  0  0  0  0  0  0
  186.5170  178.2370  148.4590 O   0  0  0  0  0  0  0  0  0  0  0  0
  187.9120  177.3070  144.6650 C   0  0  0  0  0  2  0  0  0  0  0  0
  187.1300  177.1500  140.4120 C   0  0  0  0  0  3  0  0  0  0  0  0
  184.3570  178.5120  143.9500 C   0  0  0  0  0  0  0  0  0  0  0  0
  183.5240  178.6420  142.4880 S   0  0  0  0  0  0  0  0  0  0  0  0
  188.2710  177.5690  147.0880 N   0  0  0  0  0  0  0  0  0  0  0  0
  187.0920  177.3170  141.8050 C   0  0  0  0  0  3  0  0  0  0  0  0
  188.7510  177.2730  145.9170 C   0  0  0  0  0  0  0  0  0  0  0  0
  186.0310  178.1650  146.1370 C   0  0  0  0  0  0  0  0  0  0  0  0
  190.4550  176.7530  145.7840 S   0  0  0  0  0  0  0  0  0  0  0  0
  190.1390  175.8610  144.2310 C   0  0  0  0  0  2  0  0  0  0  0  0
  190.2530  174.3610  144.4490 C   0  0  1  0  0  3  0  0  0  0  0  0
  189.7770  173.9870  145.8410 C   0  0  0  0  0  1  0  0  0  0  0  0
  189.4610  173.6270  143.4180 C   0  0  0  0  0  0  0  0  0  0  0  0
  188.9120  174.3240  142.3510 O   0  0  0  0  0  0  0  0  0  0  0  0
  189.2870  172.3820  143.5070 O   0  0  0  0  0  1  0  0  0  0  0  0
  1 13  1  0  0  0  0
  1  2  2  0  0  0  0
  2 18  1  0  0  0  0
  3  6  1  0  0  0  0
  4  1  1  0  0  0  0
  5  8  2  0  0  0  0
  5 12  1  0  0  0  0
  7  4  2  0  0  0  0
  7 14  1  0  0  0  0
  8  7  1  0  0  0  0
  9 10  2  0  0  0  0
 11  2  1  0  0  0  0
 11 17  1  0  0  0  0
 12 16  2  0  0  0  0
 13  3  2  0  0  0  0
 14 13  1  0  0  0  0
 15  9  1  0  0  0  0
 16  4  1  0  0  0  0
 17 15  2  0  0  0  0
 18  6  2  0  0  0  0
 18  9  1  0  0  0  0
 19 17  1  0  0  0  0
 20 21  1  0  0  0  0
 20 19  1  0  0  0  0
 21 22  1  1  0  0  0
 23 25  1  0  0  0  0
 23 21  1  0  0  0  0
 24 23  2  0  0  0  0
M  END
>  <MODEL>
5

>  <REMARK>
 VINA RESULT:      -7.1      2.399      4.994
  Name = 
  4 active torsions:
  status: ('A' for Active; 'I' for Inactive)
    1  A    between atoms: C_2  and  C_21
    2  A    between atoms: S_6  and  C_15
    3  A    between atoms: S_6  and  C_23
    4  A    between atoms: C_15  and  C_21
                            x       y       z     vdW  Elec       q    Type
                         _______ _______ _______ _____ _____    ______ ____

>  <TORSDO>
F 4

$$$$
=
 OpenBabel11052417303D

 25 28  0  0  1  0  0  0  0  0999 V2000
  185.9930  177.4610  143.9180 C   0  0  0  0  0  0  0  0  0  0  0  0
  186.9000  176.6970  143.1530 C   0  0  0  0  0  0  0  0  0  0  0  0
  184.9110  178.2920  141.8940 C   0  0  0  0  0  3  0  0  0  0  0  0
  185.9070  177.5730  145.3200 C   0  0  0  0  0  0  0  0  0  0  0  0
  185.4300  178.0390  147.9990 N   0  0  0  0  0  0  0  0  0  0  0  0
  185.8050  177.5380  141.1270 C   0  0  0  0  0  3  0  0  0  0  0  0
  184.8860  178.4220  145.7290 C   0  0  0  0  0  0  0  0  0  0  0  0
  184.6420  178.6600  147.0770 C   0  0  0  0  0  3  0  0  0  0  0  0
  187.7190  175.9440  140.9340 C   0  0  0  0  0  0  0  0  0  0  0  0
  187.6730  175.9830  139.6760 O   0  0  0  0  0  0  0  0  0  0  0  0
  187.9800  175.8760  143.8110 C   0  0  0  0  0  2  0  0  0  0  0  0
  186.4430  177.1970  147.6330 C   0  0  0  0  0  3  0  0  0  0  0  0
  185.0240  178.2370  143.2780 C   0  0  0  0  0  0  0  0  0  0  0  0
  184.0670  179.0540  144.4010 S   0  0  0  0  0  0  0  0  0  0  0  0
  188.6730  175.0980  141.5780 N   0  0  0  0  0  0  0  0  0  0  0  0
  186.7070  176.9430  146.2780 C   0  0  0  0  0  3  0  0  0  0  0  0
  188.8000  175.0290  142.8700 C   0  0  0  0  0  0  0  0  0  0  0  0
  186.7930  176.7450  141.7440 C   0  0  0  0  0  0  0  0  0  0  0  0
  190.0260  173.9310  143.5630 S   0  0  0  0  0  0  0  0  0  0  0  0
  190.6880  175.2340  144.6460 C   0  0  0  0  0  2  0  0  0  0  0  0
  190.9230  174.6920  146.0460 C   0  0  1  0  0  3  0  0  0  0  0  0
  192.3560  174.9430  146.4820 C   0  0  0  0  0  1  0  0  0  0  0  0
  189.9720  175.3200  147.0110 C   0  0  0  0  0  0  0  0  0  0  0  0
  188.9970  174.5400  147.6180 O   0  0  0  0  0  1  0  0  0  0  0  0
  190.0470  176.5480  147.2800 O   0  0  0  0  0  0  0  0  0  0  0  0
  1  4  1  0  0  0  0
  2 11  1  0  0  0  0
  2  1  1  0  0  0  0
  3 13  1  0  0  0  0
  4  7  2  0  0  0  0
  4 16  1  0  0  0  0
  6 18  1  0  0  0  0
  6  3  2  0  0  0  0
  7  8  1  0  0  0  0
  8  5  2  0  0  0  0
  9 15  1  0  0  0  0
  9 18  1  0  0  0  0
 10  9  2  0  0  0  0
 12  5  1  0  0  0  0
 13  1  2  0  0  0  0
 13 14  1  0  0  0  0
 14  7  1  0  0  0  0
 15 17  2  0  0  0  0
 16 12  2  0  0  0  0
 17 19  1  0  0  0  0
 17 11  1  0  0  0  0
 18  2  2  0  0  0  0
 19 20  1  0  0  0  0
 20 21  1  0  0  0  0
 21 22  1  1  0  0  0
 21 23  1  0  0  0  0
 23 25  2  0  0  0  0
 23 24  1  0  0  0  0
M  END
>  <MODEL>
6

>  <REMARK>
 VINA RESULT:      -7.0      1.220      1.546
  Name = 
  4 active torsions:
  status: ('A' for Active; 'I' for Inactive)
    1  A    between atoms: C_2  and  C_21
    2  A    between atoms: S_6  and  C_15
    3  A    between atoms: S_6  and  C_23
    4  A    between atoms: C_15  and  C_21
                            x       y       z     vdW  Elec       q    Type
                         _______ _______ _______ _____ _____    ______ ____

>  <TORSDO>
F 4

$$$$
=
 OpenBabel11052417303D

 25 28  0  0  1  0  0  0  0  0999 V2000
  186.8430  177.0080  144.1070 C   0  0  0  0  0  0  0  0  0  0  0  0
  188.0880  176.3440  144.1280 C   0  0  0  0  0  0  0  0  0  0  0  0
  186.7140  176.7890  141.6790 C   0  0  0  0  0  3  0  0  0  0  0  0
  186.1100  177.5300  145.1910 C   0  0  0  0  0  0  0  0  0  0  0  0
  184.4030  178.6630  147.0410 N   0  0  0  0  0  0  0  0  0  0  0  0
  187.9480  176.1300  141.6900 C   0  0  0  0  0  3  0  0  0  0  0  0
  184.9160  178.1230  144.7960 C   0  0  0  0  0  0  0  0  0  0  0  0
  184.0540  178.6940  145.7240 C   0  0  0  0  0  3  0  0  0  0  0  0
  189.9210  175.2000  142.9060 C   0  0  0  0  0  0  0  0  0  0  0  0
  190.4530  174.8200  141.8290 O   0  0  0  0  0  0  0  0  0  0  0  0
  188.8410  176.1340  145.4180 C   0  0  0  0  0  2  0  0  0  0  0  0
  185.5680  178.0880  147.4660 C   0  0  0  0  0  3  0  0  0  0  0  0
  186.1860  177.2150  142.8920 C   0  0  0  0  0  0  0  0  0  0  0  0
  184.7250  178.0260  143.1270 S   0  0  0  0  0  0  0  0  0  0  0  0
  190.5730  174.9270  144.1480 N   0  0  0  0  0  0  0  0  0  0  0  0
  186.4540  177.5050  146.5460 C   0  0  0  0  0  3  0  0  0  0  0  0
  190.1000  175.3140  145.2960 C   0  0  0  0  0  0  0  0  0  0  0  0
  188.6340  175.9060  142.8990 C   0  0  0  0  0  0  0  0  0  0  0  0
  191.0000  174.9110  146.7840 S   0  0  0  0  0  0  0  0  0  0  0  0
  192.0330  176.4020  146.6530 C   0  0  0  0  0  2  0  0  0  0  0  0
  193.4940  176.0220  146.4780 C   0  0  1  0  0  3  0  0  0  0  0  0
  193.6240  174.5470  146.1380 C   0  0  0  0  0  1  0  0  0  0  0  0
  194.1210  176.8540  145.4100 C   0  0  0  0  0  0  0  0  0  0  0  0
  194.9420  177.9170  145.7630 O   0  0  0  0  0  1  0  0  0  0  0  0
  193.9140  176.6020  144.1930 O   0  0  0  0  0  0  0  0  0  0  0  0
  1  2  1  0  0  0  0
  1  4  1  0  0  0  0
  2 11  1  0  0  0  0
  3  6  2  0  0  0  0
  3 13  1  0  0  0  0
  4 16  1  0  0  0  0
  5 12  1  0  0  0  0
  6 18  1  0  0  0  0
  7  4  2  0  0  0  0
  7  8  1  0  0  0  0
  8  5  2  0  0  0  0
  9 15  1  0  0  0  0
 10  9  2  0  0  0  0
 13 14  1  0  0  0  0
 13  1  2  0  0  0  0
 14  7  1  0  0  0  0
 15 17  2  0  0  0  0
 16 12  2  0  0  0  0
 17 11  1  0  0  0  0
 17 19  1  0  0  0  0
 18  9  1  0  0  0  0
 18  2  2  0  0  0  0
 20 19  1  0  0  0  0
 21 22  1  6  0  0  0
 21 20  1  0  0  0  0
 23 24  1  0  0  0  0
 23 21  1  0  0  0  0
 25 23  2  0  0  0  0
M  END
>  <MODEL>
7

>  <REMARK>
 VINA RESULT:      -6.9      1.782      2.008
  Name = 
  4 active torsions:
  status: ('A' for Active; 'I' for Inactive)
    1  A    between atoms: C_2  and  C_21
    2  A    between atoms: S_6  and  C_15
    3  A    between atoms: S_6  and  C_23
    4  A    between atoms: C_15  and  C_21
                            x       y       z     vdW  Elec       q    Type
                         _______ _______ _______ _____ _____    ______ ____

>  <TORSDO>
F 4

$$$$
=
 OpenBabel11052417303D

 25 28  0  0  1  0  0  0  0  0999 V2000
  187.0250  176.7990  144.1310 C   0  0  0  0  0  0  0  0  0  0  0  0
  188.1210  176.0340  144.5840 C   0  0  0  0  0  0  0  0  0  0  0  0
  186.2770  177.1710  146.4250 C   0  0  0  0  0  3  0  0  0  0  0  0
  186.6660  177.1160  142.8070 C   0  0  0  0  0  0  0  0  0  0  0  0
  185.6540  177.9390  140.3730 N   0  0  0  0  0  0  0  0  0  0  0  0
  187.3610  176.4130  146.8820 C   0  0  0  0  0  3  0  0  0  0  0  0
  185.5160  177.8950  142.7340 C   0  0  0  0  0  0  0  0  0  0  0  0
  185.0030  178.3110  141.5120 C   0  0  0  0  0  3  0  0  0  0  0  0
  189.4220  175.0660  146.4630 C   0  0  0  0  0  0  0  0  0  0  0  0
  189.5800  174.8550  147.6950 O   0  0  0  0  0  0  0  0  0  0  0  0
  189.0840  175.3970  143.6130 C   0  0  0  0  0  2  0  0  0  0  0  0
  186.7860  177.1740  140.4060 C   0  0  0  0  0  3  0  0  0  0  0  0
  186.1330  177.3480  145.0540 C   0  0  0  0  0  0  0  0  0  0  0  0
  184.9140  178.2140  144.2730 S   0  0  0  0  0  0  0  0  0  0  0  0
  190.3770  174.5530  145.5330 N   0  0  0  0  0  0  0  0  0  0  0  0
  187.3220  176.7430  141.6300 C   0  0  0  0  0  3  0  0  0  0  0  0
  190.2640  174.7040  144.2470 C   0  0  0  0  0  0  0  0  0  0  0  0
  188.2780  175.8470  145.9760 C   0  0  0  0  0  0  0  0  0  0  0  0
  191.5230  174.0210  143.1800 S   0  0  0  0  0  0  0  0  0  0  0  0
  190.6670  174.5930  141.6800 C   0  0  0  0  0  2  0  0  0  0  0  0
  190.2760  173.4100  140.8090 C   0  0  1  0  0  3  0  0  0  0  0  0
  190.5820  172.1020  141.5180 C   0  0  0  0  0  1  0  0  0  0  0  0
  188.8260  173.4810  140.4610 C   0  0  0  0  0  0  0  0  0  0  0  0
  187.8880  172.9160  141.3150 O   0  0  0  0  0  1  0  0  0  0  0  0
  188.4460  174.0480  139.4020 O   0  0  0  0  0  0  0  0  0  0  0  0
  1  2  2  0  0  0  0
  1 13  1  0  0  0  0
  2 18  1  0  0  0  0
  3  6  1  0  0  0  0
  4  1  1  0  0  0  0
  5 12  2  0  0  0  0
  5  8  1  0  0  0  0
  7  4  1  0  0  0  0
  7 14  1  0  0  0  0
  8  7  2  0  0  0  0
  9 10  2  0  0  0  0
 11 17  1  0  0  0  0
 11  2  1  0  0  0  0
 12 16  1  0  0  0  0
 13  3  2  0  0  0  0
 14 13  1  0  0  0  0
 15  9  1  0  0  0  0
 16  4  2  0  0  0  0
 17 15  2  0  0  0  0
 18  9  1  0  0  0  0
 18  6  2  0  0  0  0
 19 17  1  0  0  0  0
 20 19  1  0  0  0  0
 21 22  1  1  0  0  0
 21 20  1  0  0  0  0
 23 21  1  0  0  0  0
 23 24  1  0  0  0  0
 25 23  2  0  0  0  0
M  END
>  <MODEL>
8

>  <REMARK>
 VINA RESULT:      -6.8      2.239      5.229
  Name = 
  4 active torsions:
  status: ('A' for Active; 'I' for Inactive)
    1  A    between atoms: C_2  and  C_21
    2  A    between atoms: S_6  and  C_15
    3  A    between atoms: S_6  and  C_23
    4  A    between atoms: C_15  and  C_21
                            x       y       z     vdW  Elec       q    Type
                         _______ _______ _______ _____ _____    ______ ____

>  <TORSDO>
F 4

$$$$
=
 OpenBabel11052417303D

 25 28  0  0  1  0  0  0  0  0999 V2000
  192.0280  176.3580  145.0560 C   0  0  0  0  0  0  0  0  0  0  0  0
  190.6340  176.4210  144.8490 C   0  0  0  0  0  0  0  0  0  0  0  0
  191.7190  176.4120  147.4770 C   0  0  0  0  0  3  0  0  0  0  0  0
  193.0550  176.2950  144.0930 C   0  0  0  0  0  0  0  0  0  0  0  0
  195.3190  176.1620  142.5190 N   0  0  0  0  0  0  0  0  0  0  0  0
  190.3360  176.4740  147.2810 C   0  0  0  0  0  3  0  0  0  0  0  0
  194.3220  176.2450  144.6620 C   0  0  0  0  0  0  0  0  0  0  0  0
  195.4650  176.1790  143.8740 C   0  0  0  0  0  3  0  0  0  0  0  0
  188.3370  176.5290  145.7830 C   0  0  0  0  0  0  0  0  0  0  0  0
  187.5550  176.6100  146.7670 O   0  0  0  0  0  0  0  0  0  0  0  0
  190.0510  176.4610  143.4580 C   0  0  0  0  0  2  0  0  0  0  0  0
  194.0890  176.2100  141.9240 C   0  0  0  0  0  3  0  0  0  0  0  0
  192.5390  176.3550  146.3560 C   0  0  0  0  0  0  0  0  0  0  0  0
  194.2240  176.2760  146.3420 S   0  0  0  0  0  0  0  0  0  0  0  0
  187.8000  176.4690  144.4610 N   0  0  0  0  0  0  0  0  0  0  0  0
  192.9220  176.2780  142.7020 C   0  0  0  0  0  3  0  0  0  0  0  0
  188.5450  176.4160  143.3960 C   0  0  0  0  0  0  0  0  0  0  0  0
  189.7910  176.4790  145.9820 C   0  0  0  0  0  0  0  0  0  0  0  0
  187.7620  176.3410  141.7930 S   0  0  0  0  0  0  0  0  0  0  0  0
  186.1430  176.8060  142.4800 C   0  0  0  0  0  2  0  0  0  0  0  0
  185.7720  178.2160  142.0540 C   0  0  1  0  0  3  0  0  0  0  0  0
  184.9370  178.1880  140.7850 C   0  0  0  0  0  1  0  0  0  0  0  0
  185.0260  178.9080  143.1460 C   0  0  0  0  0  0  0  0  0  0  0  0
  185.6470  179.9180  143.8670 O   0  0  0  0  0  1  0  0  0  0  0  0
  183.8390  178.5840  143.4200 O   0  0  0  0  0  0  0  0  0  0  0  0
  1 13  1  0  0  0  0
  2  1  2  0  0  0  0
  2 18  1  0  0  0  0
  4  7  1  0  0  0  0
  4  1  1  0  0  0  0
  5  8  1  0  0  0  0
  6  3  1  0  0  0  0
  7 14  1  0  0  0  0
  8  7  2  0  0  0  0
  9 18  1  0  0  0  0
  9 10  2  0  0  0  0
 11  2  1  0  0  0  0
 12  5  2  0  0  0  0
 12 16  1  0  0  0  0
 13  3  2  0  0  0  0
 14 13  1  0  0  0  0
 15  9  1  0  0  0  0
 16  4  2  0  0  0  0
 17 11  1  0  0  0  0
 17 15  2  0  0  0  0
 18  6  2  0  0  0  0
 19 20  1  0  0  0  0
 19 17  1  0  0  0  0
 21 22  1  6  0  0  0
 21 20  1  0  0  0  0
 21 23  1  0  0  0  0
 23 25  2  0  0  0  0
 23 24  1  0  0  0  0
M  END
>  <MODEL>
9

>  <REMARK>
 VINA RESULT:      -6.6      3.393      7.514
  Name = 
  4 active torsions:
  status: ('A' for Active; 'I' for Inactive)
    1  A    between atoms: C_2  and  C_21
    2  A    between atoms: S_6  and  C_15
    3  A    between atoms: S_6  and  C_23
    4  A    between atoms: C_15  and  C_21
                            x       y       z     vdW  Elec       q    Type
                         _______ _______ _______ _____ _____    ______ ____

>  <TORSDO>
F 4

$$$$
