=
 OpenBabel11052420023D

 37 40  0  0  1  0  0  0  0  0999 V2000
  188.7350  174.8910  144.3180 N   0  0  0  0  0  2  0  0  0  0  0  0
  189.4020  173.8730  140.7560 C   0  0  0  0  0  2  0  0  0  0  0  0
  191.9720  176.1620  145.8180 C   0  0  0  0  0  3  0  0  0  0  0  0
  188.8570  175.6290  143.0620 C   0  0  2  0  0  3  0  0  0  0  0  0
  190.9760  175.8080  144.8920 C   0  0  0  0  0  0  0  0  0  0  0  0
  187.7430  175.2410  142.0850 C   0  0  2  0  0  3  0  0  0  0  0  0
  189.6060  174.5660  146.5540 C   0  0  0  0  0  1  0  0  0  0  0  0
  191.2980  175.8110  143.5120 C   0  0  0  0  0  0  0  0  0  0  0  0
  193.5730  176.4680  144.0310 C   0  0  0  0  0  3  0  0  0  0  0  0
  189.5520  175.5240  145.3700 C   0  0  2  0  0  0  0  0  0  0  0  0
  192.5940  176.1350  143.0940 C   0  0  0  0  0  3  0  0  0  0  0  0
  188.0090  173.9050  141.3850 C   0  0  0  0  0  2  0  0  0  0  0  0
  190.2670  175.4460  142.4830 C   0  0  1  0  0  3  0  0  0  0  0  0
  193.2650  176.4770  145.3930 C   0  0  0  0  0  0  0  0  0  0  0  0
  190.4880  174.0610  141.8230 C   0  0  1  0  0  3  0  0  0  0  0  0
  194.3070  176.8560  146.3880 C   0  0  0  0  0  2  0  0  0  0  0  0
  195.1740  177.9710  145.8370 C   0  0  0  0  0  1  0  0  0  0  0  0
  187.6450  176.6330  146.6460 C   0  0  0  0  0  1  0  0  0  0  0  0
  188.9070  176.8440  145.8200 C   0  0  0  0  0  2  0  0  0  0  0  0
  190.5300  172.8700  142.8160 C   0  0  2  0  0  3  0  0  0  0  0  0
  191.9500  172.4970  143.2400 C   0  0  0  0  0  2  0  0  0  0  0  0
  193.4390  172.7250  145.0180 C   0  0  0  0  0  1  0  0  0  0  0  0
  192.0450  172.4910  144.6890 N   0  0  0  0  0  2  0  0  0  0  0  0
  189.7870  171.6940  142.3370 N   0  0  0  0  0  2  0  0  0  0  0  0
  190.6910  170.6150  141.9320 C   0  0  0  0  0  2  0  0  0  0  0  0
  190.6750  170.4250  140.4220 C   0  0  0  0  0  2  0  0  0  0  0  0
  192.0050  168.2130  139.7300 C   0  0  0  0  0  3  0  0  0  0  0  0
  191.4020  169.2100  140.0450 C   0  0  0  0  0  0  0  0  0  0  0  0
  187.5040  176.3650  141.0850 C   0  0  0  0  0  2  0  0  0  0  0  0
  187.9990  177.9750  141.7840 S   0  0  0  0  0  0  0  0  0  0  0  0
  185.2280  178.0070  141.8390 C   0  0  0  0  0  3  0  0  0  0  0  0
  186.4050  178.2630  142.5490 C   0  0  0  0  0  0  0  0  0  0  0  0
  186.3380  178.7440  143.8600 C   0  0  0  0  0  3  0  0  0  0  0  0
  185.0350  179.4510  145.7260 F   0  0  0  0  0  0  0  0  0  0  0  0
  183.9210  178.7300  143.7460 C   0  0  0  0  0  3  0  0  0  0  0  0
  185.0970  178.9790  144.4590 C   0  0  0  0  0  0  0  0  0  0  0  0
  183.9860  178.2440  142.4380 C   0  0  0  0  0  3  0  0  0  0  0  0
  1 10  1  0  0  0  0
  2 12  1  0  0  0  0
  2 15  1  0  0  0  0
  4  1  1  1  0  0  0
  5 10  1  0  0  0  0
  5  3  2  0  0  0  0
  6 29  1  6  0  0  0
  6  4  1  0  0  0  0
  8  5  1  0  0  0  0
  9 14  2  0  0  0  0
 10 19  1  0  0  0  0
 10  7  1  1  0  0  0
 11  8  2  0  0  0  0
 11  9  1  0  0  0  0
 12  6  1  0  0  0  0
 13  4  1  0  0  0  0
 13  8  1  1  0  0  0
 14  3  1  0  0  0  0
 14 16  1  0  0  0  0
 15 13  1  0  0  0  0
 15 20  1  1  0  0  0
 17 16  1  0  0  0  0
 19 18  1  0  0  0  0
 20 21  1  6  0  0  0
 21 23  1  0  0  0  0
 23 22  1  0  0  0  0
 24 20  1  0  0  0  0
 25 24  1  0  0  0  0
 26 25  1  0  0  0  0
 27 28  3  0  0  0  0
 28 26  1  0  0  0  0
 29 30  1  0  0  0  0
 30 32  1  0  0  0  0
 31 37  2  0  0  0  0
 31 32  1  0  0  0  0
 32 33  2  0  0  0  0
 33 36  1  0  0  0  0
 35 36  2  0  0  0  0
 36 34  1  0  0  0  0
 37 35  1  0  0  0  0
M  END
>  <MODEL>
1

>  <REMARK>
 VINA RESULT:      -6.6      0.000      0.000
  Name = 
  12 active torsions:
  status: ('A' for Active; 'I' for Inactive)
    1  A    between atoms: C_1  and  C_5
    2  A    between atoms: C_1  and  N_33
    3  A    between atoms: C_1  and  C_36
    4  A    between atoms: C_3  and  C_32
    5  A    between atoms: C_5  and  N_23
    6  A    between atoms: C_6  and  S_31
    7  A    between atoms: C_14  and  C_37
    8  A    between atoms: C_17  and  C_26
    9  A    between atoms: C_17  and  N_33
   10  A    between atoms: C_24  and  C_28
   11  A    between atoms: C_26  and  C_34
   12  A    between atoms: S_31  and  C_37
                            x       y       z     vdW  Elec       q    Type
                         _______ _______ _______ _____ _____    ______ ____

>  <TORSDO>
F 12

$$$$
=
 OpenBabel11052420023D

 37 40  0  0  1  0  0  0  0  0999 V2000
  190.2860  176.6450  144.3500 N   0  0  0  0  0  2  0  0  0  0  0  0
  190.3210  175.1120  147.7880 C   0  0  0  0  0  2  0  0  0  0  0  0
  190.5480  173.8560  141.8010 C   0  0  0  0  0  3  0  0  0  0  0  0
  189.2720  175.9930  145.1760 C   0  0  2  0  0  3  0  0  0  0  0  0
  190.2920  174.5620  142.9900 C   0  0  0  0  0  0  0  0  0  0  0  0
  188.9960  176.7990  146.4490 C   0  0  2  0  0  3  0  0  0  0  0  0
  191.5180  176.6000  142.2660 C   0  0  0  0  0  1  0  0  0  0  0  0
  189.9650  173.8310  144.1580 C   0  0  0  0  0  0  0  0  0  0  0  0
  190.2000  171.7490  142.9370 C   0  0  0  0  0  3  0  0  0  0  0  0
  190.2740  176.0900  142.9840 C   0  0  2  0  0  0  0  0  0  0  0  0
  189.9260  172.4310  144.1240 C   0  0  0  0  0  3  0  0  0  0  0  0
  190.0720  176.5970  147.5210 C   0  0  0  0  0  2  0  0  0  0  0  0
  189.6780  174.5380  145.4510 C   0  0  1  0  0  3  0  0  0  0  0  0
  190.5150  172.4590  141.7770 C   0  0  0  0  0  0  0  0  0  0  0  0
  190.7960  174.4000  146.5150 C   0  0  1  0  0  3  0  0  0  0  0  0
  190.7820  171.7280  140.5070 C   0  0  0  0  0  2  0  0  0  0  0  0
  190.9090  172.7080  139.3570 C   0  0  0  0  0  1  0  0  0  0  0  0
  188.9660  178.0840  142.0860 C   0  0  0  0  0  1  0  0  0  0  0  0
  189.0250  176.5690  142.2280 C   0  0  0  0  0  2  0  0  0  0  0  0
  192.1890  174.9080  146.0580 C   0  0  2  0  0  3  0  0  0  0  0  0
  193.1830  173.7740  145.8050 C   0  0  0  0  0  2  0  0  0  0  0  0
  193.6790  172.2180  144.1430 C   0  0  0  0  0  1  0  0  0  0  0  0
  193.3990  173.6220  144.3760 N   0  0  0  0  0  2  0  0  0  0  0  0
  192.7560  175.9240  146.9590 N   0  0  0  0  0  2  0  0  0  0  0  0
  194.1350  176.2580  146.5950 C   0  0  0  0  0  2  0  0  0  0  0  0
  194.1740  177.1460  145.3590 C   0  0  0  0  0  2  0  0  0  0  0  0
  196.1000  176.3520  143.6840 C   0  0  0  0  0  3  0  0  0  0  0  0
  195.2290  176.7070  144.4400 C   0  0  0  0  0  0  0  0  0  0  0  0
  187.6040  176.4860  146.9810 C   0  0  0  0  0  2  0  0  0  0  0  0
  186.6940  178.0190  147.3660 S   0  0  0  0  0  0  0  0  0  0  0  0
  185.8380  179.5440  145.2160 C   0  0  0  0  0  3  0  0  0  0  0  0
  186.1600  178.2630  145.6740 C   0  0  0  0  0  0  0  0  0  0  0  0
  186.0660  177.1690  144.8080 C   0  0  0  0  0  3  0  0  0  0  0  0
  185.5440  176.2900  142.6560 F   0  0  0  0  0  0  0  0  0  0  0  0
  185.3120  178.6310  143.0340 C   0  0  0  0  0  3  0  0  0  0  0  0
  185.6410  177.3520  143.4890 C   0  0  0  0  0  0  0  0  0  0  0  0
  185.4120  179.7270  143.8960 C   0  0  0  0  0  3  0  0  0  0  0  0
  3  5  1  0  0  0  0
  4  1  1  1  0  0  0
  4 13  1  0  0  0  0
  4  6  1  0  0  0  0
  5  8  2  0  0  0  0
  6 29  1  1  0  0  0
  6 12  1  0  0  0  0
  9 11  2  0  0  0  0
 10  7  1  6  0  0  0
 10  5  1  0  0  0  0
 10  1  1  0  0  0  0
 11  8  1  0  0  0  0
 12  2  1  0  0  0  0
 13  8  1  6  0  0  0
 13 15  1  0  0  0  0
 14  3  2  0  0  0  0
 14  9  1  0  0  0  0
 15 20  1  6  0  0  0
 15  2  1  0  0  0  0
 16 14  1  0  0  0  0
 17 16  1  0  0  0  0
 18 19  1  0  0  0  0
 19 10  1  0  0  0  0
 20 21  1  1  0  0  0
 20 24  1  0  0  0  0
 22 23  1  0  0  0  0
 23 21  1  0  0  0  0
 25 24  1  0  0  0  0
 26 25  1  0  0  0  0
 27 28  3  0  0  0  0
 28 26  1  0  0  0  0
 29 30  1  0  0  0  0
 31 32  1  0  0  0  0
 32 30  1  0  0  0  0
 33 32  2  0  0  0  0
 34 36  1  0  0  0  0
 35 36  2  0  0  0  0
 35 37  1  0  0  0  0
 36 33  1  0  0  0  0
 37 31  2  0  0  0  0
M  END
>  <MODEL>
2

>  <REMARK>
 VINA RESULT:      -6.5      2.077      5.377
  Name = 
  12 active torsions:
  status: ('A' for Active; 'I' for Inactive)
    1  A    between atoms: C_1  and  C_5
    2  A    between atoms: C_1  and  N_33
    3  A    between atoms: C_1  and  C_36
    4  A    between atoms: C_3  and  C_32
    5  A    between atoms: C_5  and  N_23
    6  A    between atoms: C_6  and  S_31
    7  A    between atoms: C_14  and  C_37
    8  A    between atoms: C_17  and  C_26
    9  A    between atoms: C_17  and  N_33
   10  A    between atoms: C_24  and  C_28
   11  A    between atoms: C_26  and  C_34
   12  A    between atoms: S_31  and  C_37
                            x       y       z     vdW  Elec       q    Type
                         _______ _______ _______ _____ _____    ______ ____

>  <TORSDO>
F 12

$$$$
=
 OpenBabel11052420023D

 37 40  0  0  1  0  0  0  0  0999 V2000
  191.4500  174.3890  144.6610 N   0  0  0  0  0  2  0  0  0  0  0  0
  189.7230  174.1040  141.3280 C   0  0  0  0  0  2  0  0  0  0  0  0
  195.0100  175.5360  144.0620 C   0  0  0  0  0  3  0  0  0  0  0  0
  190.8310  175.3570  143.7580 C   0  0  2  0  0  3  0  0  0  0  0  0
  193.6320  175.3070  143.8960 C   0  0  0  0  0  0  0  0  0  0  0  0
  189.3280  175.0980  143.6190 C   0  0  2  0  0  3  0  0  0  0  0  0
  193.4810  173.6960  145.7830 C   0  0  0  0  0  1  0  0  0  0  0  0
  193.0430  175.5900  142.6400 C   0  0  0  0  0  0  0  0  0  0  0  0
  195.2000  176.2660  141.7630 C   0  0  0  0  0  3  0  0  0  0  0  0
  192.7830  174.8570  145.0830 C   0  0  2  0  0  0  0  0  0  0  0  0
  193.8310  176.0620  141.5830 C   0  0  0  0  0  3  0  0  0  0  0  0
  189.0130  173.9360  142.6720 C   0  0  0  0  0  2  0  0  0  0  0  0
  191.5750  175.3680  142.4140 C   0  0  1  0  0  3  0  0  0  0  0  0
  195.7910  176.0000  143.0000 C   0  0  0  0  0  0  0  0  0  0  0  0
  191.2450  174.1480  141.5160 C   0  0  1  0  0  3  0  0  0  0  0  0
  197.2470  176.2430  143.1950 C   0  0  0  0  0  2  0  0  0  0  0  0
  197.9410  174.9570  143.6020 C   0  0  0  0  0  1  0  0  0  0  0  0
  191.8240  175.6710  147.3010 C   0  0  0  0  0  1  0  0  0  0  0  0
  192.6460  176.0290  146.0680 C   0  0  0  0  0  2  0  0  0  0  0  0
  191.8000  172.7960  142.0340 C   0  0  2  0  0  3  0  0  0  0  0  0
  193.1770  172.4580  141.4630 C   0  0  0  0  0  2  0  0  0  0  0  0
  195.4250  172.4160  142.0750 C   0  0  0  0  0  1  0  0  0  0  0  0
  194.0850  172.1140  142.5430 N   0  0  0  0  0  2  0  0  0  0  0  0
  190.8580  171.6790  141.8540 N   0  0  0  0  0  2  0  0  0  0  0  0
  191.3000  170.7670  140.7960 C   0  0  0  0  0  2  0  0  0  0  0  0
  190.3520  170.8090  139.6060 C   0  0  0  0  0  2  0  0  0  0  0  0
  191.2250  172.5420  137.7680 C   0  0  0  0  0  3  0  0  0  0  0  0
  190.8320  171.7570  138.5950 C   0  0  0  0  0  0  0  0  0  0  0  0
  188.6090  176.3750  143.2050 C   0  0  0  0  0  2  0  0  0  0  0  0
  186.8770  176.0290  142.7500 S   0  0  0  0  0  0  0  0  0  0  0  0
  185.8280  176.7890  145.2000 C   0  0  0  0  0  3  0  0  0  0  0  0
  186.2130  177.2080  143.9230 C   0  0  0  0  0  0  0  0  0  0  0  0
  186.0790  178.5520  143.5610 C   0  0  0  0  0  3  0  0  0  0  0  0
  185.4190  180.7740  144.1130 F   0  0  0  0  0  0  0  0  0  0  0  0
  185.1620  179.0540  145.7430 C   0  0  0  0  0  3  0  0  0  0  0  0
  185.5530  179.4750  144.4690 C   0  0  0  0  0  0  0  0  0  0  0  0
  185.3010  177.7130  146.1090 C   0  0  0  0  0  3  0  0  0  0  0  0
  1 10  1  0  0  0  0
  2 15  1  0  0  0  0
  2 12  1  0  0  0  0
  4  1  1  1  0  0  0
  5  3  1  0  0  0  0
  5 10  1  0  0  0  0
  6 29  1  6  0  0  0
  6  4  1  0  0  0  0
  8  5  2  0  0  0  0
  9 14  1  0  0  0  0
 10  7  1  1  0  0  0
 10 19  1  0  0  0  0
 11  9  2  0  0  0  0
 11  8  1  0  0  0  0
 12  6  1  0  0  0  0
 13  8  1  1  0  0  0
 13  4  1  0  0  0  0
 14 16  1  0  0  0  0
 14  3  2  0  0  0  0
 15 20  1  1  0  0  0
 15 13  1  0  0  0  0
 16 17  1  0  0  0  0
 19 18  1  0  0  0  0
 20 21  1  6  0  0  0
 21 23  1  0  0  0  0
 22 23  1  0  0  0  0
 24 20  1  0  0  0  0
 25 24  1  0  0  0  0
 26 25  1  0  0  0  0
 27 28  3  0  0  0  0
 28 26  1  0  0  0  0
 30 29  1  0  0  0  0
 30 32  1  0  0  0  0
 31 37  1  0  0  0  0
 32 31  2  0  0  0  0
 33 32  1  0  0  0  0
 33 36  2  0  0  0  0
 34 36  1  0  0  0  0
 35 37  2  0  0  0  0
 36 35  1  0  0  0  0
M  END
>  <MODEL>
3

>  <REMARK>
 VINA RESULT:      -6.2      2.013      2.809
  Name = 
  12 active torsions:
  status: ('A' for Active; 'I' for Inactive)
    1  A    between atoms: C_1  and  C_5
    2  A    between atoms: C_1  and  N_33
    3  A    between atoms: C_1  and  C_36
    4  A    between atoms: C_3  and  C_32
    5  A    between atoms: C_5  and  N_23
    6  A    between atoms: C_6  and  S_31
    7  A    between atoms: C_14  and  C_37
    8  A    between atoms: C_17  and  C_26
    9  A    between atoms: C_17  and  N_33
   10  A    between atoms: C_24  and  C_28
   11  A    between atoms: C_26  and  C_34
   12  A    between atoms: S_31  and  C_37
                            x       y       z     vdW  Elec       q    Type
                         _______ _______ _______ _____ _____    ______ ____

>  <TORSDO>
F 12

$$$$
=
 OpenBabel11052420023D

 37 40  0  0  1  0  0  0  0  0999 V2000
  193.0240  174.7540  143.1670 N   0  0  0  0  0  2  0  0  0  0  0  0
  194.3270  176.2470  146.3680 C   0  0  0  0  0  2  0  0  0  0  0  0
  193.9920  171.0940  143.0800 C   0  0  0  0  0  3  0  0  0  0  0  0
  192.5520  174.7480  144.5500 C   0  0  2  0  0  3  0  0  0  0  0  0
  193.6770  172.3830  143.5430 C   0  0  0  0  0  0  0  0  0  0  0  0
  192.1920  176.1610  145.0150 C   0  0  2  0  0  3  0  0  0  0  0  0
  193.7630  173.4200  141.2860 C   0  0  0  0  0  1  0  0  0  0  0  0
  193.9080  172.6920  144.9060 C   0  0  0  0  0  0  0  0  0  0  0  0
  194.7880  170.4630  145.2760 C   0  0  0  0  0  3  0  0  0  0  0  0
  193.0070  173.3890  142.6090 C   0  0  2  0  0  0  0  0  0  0  0  0
  194.4660  171.7320  145.7600 C   0  0  0  0  0  3  0  0  0  0  0  0
  193.4230  176.9940  145.3870 C   0  0  0  0  0  2  0  0  0  0  0  0
  193.5830  174.0520  145.4510 C   0  0  1  0  0  3  0  0  0  0  0  0
  194.5560  170.1440  143.9360 C   0  0  0  0  0  0  0  0  0  0  0  0
  194.8240  174.9290  145.7590 C   0  0  1  0  0  3  0  0  0  0  0  0
  194.8780  168.7800  143.4310 C   0  0  0  0  0  2  0  0  0  0  0  0
  196.3220  168.4360  143.7420 C   0  0  0  0  0  1  0  0  0  0  0  0
  190.8050  173.8850  141.4240 C   0  0  0  0  0  1  0  0  0  0  0  0
  191.5600  172.9400  142.3510 C   0  0  0  0  0  2  0  0  0  0  0  0
  195.7600  175.1740  144.5460 C   0  0  2  0  0  3  0  0  0  0  0  0
  197.0930  174.4370  144.6640 C   0  0  0  0  0  2  0  0  0  0  0  0
  197.9040  172.2820  144.3030 C   0  0  0  0  0  1  0  0  0  0  0  0
  197.1440  173.3570  143.6940 N   0  0  0  0  0  2  0  0  0  0  0  0
  195.9620  176.6030  144.2540 N   0  0  0  0  0  2  0  0  0  0  0  0
  196.7670  176.7960  143.0450 C   0  0  0  0  0  2  0  0  0  0  0  0
  195.9470  176.5200  141.7920 C   0  0  0  0  0  2  0  0  0  0  0  0
  197.4130  175.2360  139.9640 C   0  0  0  0  0  3  0  0  0  0  0  0
  196.7530  175.8130  140.7920 C   0  0  0  0  0  0  0  0  0  0  0  0
  191.1870  176.1000  146.1590 C   0  0  0  0  0  2  0  0  0  0  0  0
  189.9070  174.8410  145.8340 S   0  0  0  0  0  0  0  0  0  0  0  0
  187.6990  176.1850  146.8330 C   0  0  0  0  0  3  0  0  0  0  0  0
  188.5820  176.0440  145.7580 C   0  0  0  0  0  0  0  0  0  0  0  0
  188.4290  176.8420  144.6200 C   0  0  0  0  0  3  0  0  0  0  0  0
  187.2420  178.5420  143.4460 F   0  0  0  0  0  0  0  0  0  0  0  0
  186.5050  177.9120  145.6230 C   0  0  0  0  0  3  0  0  0  0  0  0
  187.3910  177.7750  144.5520 C   0  0  0  0  0  0  0  0  0  0  0  0
  186.6590  177.1190  146.7640 C   0  0  0  0  0  3  0  0  0  0  0  0
  3  5  2  0  0  0  0
  3 14  1  0  0  0  0
  4  1  1  6  0  0  0
  4  6  1  0  0  0  0
  4 13  1  0  0  0  0
  5  8  1  0  0  0  0
  6 12  1  0  0  0  0
  6 29  1  1  0  0  0
  8 11  2  0  0  0  0
  9 11  1  0  0  0  0
 10  7  1  6  0  0  0
 10  1  1  0  0  0  0
 10  5  1  0  0  0  0
 12  2  1  0  0  0  0
 13  8  1  6  0  0  0
 13 15  1  0  0  0  0
 14  9  2  0  0  0  0
 15 20  1  6  0  0  0
 15  2  1  0  0  0  0
 16 17  1  0  0  0  0
 16 14  1  0  0  0  0
 18 19  1  0  0  0  0
 19 10  1  0  0  0  0
 20 21  1  1  0  0  0
 23 22  1  0  0  0  0
 23 21  1  0  0  0  0
 24 20  1  0  0  0  0
 25 24  1  0  0  0  0
 26 25  1  0  0  0  0
 27 28  3  0  0  0  0
 28 26  1  0  0  0  0
 30 29  1  0  0  0  0
 32 30  1  0  0  0  0
 32 31  2  0  0  0  0
 33 32  1  0  0  0  0
 34 36  1  0  0  0  0
 35 37  2  0  0  0  0
 36 33  2  0  0  0  0
 36 35  1  0  0  0  0
 37 31  1  0  0  0  0
M  END
>  <MODEL>
4

>  <REMARK>
 VINA RESULT:      -6.1      3.026      6.180
  Name = 
  12 active torsions:
  status: ('A' for Active; 'I' for Inactive)
    1  A    between atoms: C_1  and  C_5
    2  A    between atoms: C_1  and  N_33
    3  A    between atoms: C_1  and  C_36
    4  A    between atoms: C_3  and  C_32
    5  A    between atoms: C_5  and  N_23
    6  A    between atoms: C_6  and  S_31
    7  A    between atoms: C_14  and  C_37
    8  A    between atoms: C_17  and  C_26
    9  A    between atoms: C_17  and  N_33
   10  A    between atoms: C_24  and  C_28
   11  A    between atoms: C_26  and  C_34
   12  A    between atoms: S_31  and  C_37
                            x       y       z     vdW  Elec       q    Type
                         _______ _______ _______ _____ _____    ______ ____

>  <TORSDO>
F 12

$$$$
=
 OpenBabel11052420023D

 37 40  0  0  1  0  0  0  0  0999 V2000
  191.4240  174.2640  144.7500 N   0  0  0  0  0  2  0  0  0  0  0  0
  189.6130  174.0560  141.4560 C   0  0  0  0  0  2  0  0  0  0  0  0
  194.9380  175.5180  144.0980 C   0  0  0  0  0  3  0  0  0  0  0  0
  190.7580  175.2480  143.8990 C   0  0  2  0  0  3  0  0  0  0  0  0
  193.5630  175.2620  143.9610 C   0  0  0  0  0  0  0  0  0  0  0  0
  189.2590  174.9580  143.7910 C   0  0  2  0  0  3  0  0  0  0  0  0
  193.5010  173.5810  145.7920 C   0  0  0  0  0  1  0  0  0  0  0  0
  192.9320  175.5750  142.7320 C   0  0  0  0  0  0  0  0  0  0  0  0
  195.0480  176.3340  141.8240 C   0  0  0  0  0  3  0  0  0  0  0  0
  192.7570  174.7490  145.1540 C   0  0  2  0  0  0  0  0  0  0  0  0
  193.6800  176.1030  141.6720 C   0  0  0  0  0  3  0  0  0  0  0  0
  188.9450  173.8240  142.8110 C   0  0  0  0  0  2  0  0  0  0  0  0
  191.4650  175.3260  142.5370 C   0  0  1  0  0  3  0  0  0  0  0  0
  195.6790  176.0390  143.0340 C   0  0  0  0  0  0  0  0  0  0  0  0
  191.1390  174.1310  141.6050 C   0  0  1  0  0  3  0  0  0  0  0  0
  197.1340  176.3090  143.1980 C   0  0  0  0  0  2  0  0  0  0  0  0
  197.9400  175.4030  142.2880 C   0  0  0  0  0  1  0  0  0  0  0  0
  191.7830  175.4810  147.3920 C   0  0  0  0  0  1  0  0  0  0  0  0
  192.6190  175.8810  146.1840 C   0  0  0  0  0  2  0  0  0  0  0  0
  191.7390  172.7740  142.0580 C   0  0  2  0  0  3  0  0  0  0  0  0
  193.0440  172.4300  141.3410 C   0  0  0  0  0  2  0  0  0  0  0  0
  195.3380  172.5610  141.7280 C   0  0  0  0  0  1  0  0  0  0  0  0
  194.0800  172.1430  142.3170 N   0  0  0  0  0  2  0  0  0  0  0  0
  190.7760  171.6640  141.9810 N   0  0  0  0  0  2  0  0  0  0  0  0
  191.0640  170.7800  140.8480 C   0  0  0  0  0  2  0  0  0  0  0  0
  190.9340  169.3170  141.2490 C   0  0  0  0  0  2  0  0  0  0  0  0
  192.7540  168.6820  143.0990 C   0  0  0  0  0  3  0  0  0  0  0  0
  191.9290  168.9690  142.2670 C   0  0  0  0  0  0  0  0  0  0  0  0
  188.4980  176.2320  143.4430 C   0  0  0  0  0  2  0  0  0  0  0  0
  188.8920  177.5680  144.6200 S   0  0  0  0  0  0  0  0  0  0  0  0
  186.7650  176.8380  146.2400 C   0  0  0  0  0  3  0  0  0  0  0  0
  187.2100  177.6870  145.2230 C   0  0  0  0  0  0  0  0  0  0  0  0
  186.3380  178.6330  144.6730 C   0  0  0  0  0  3  0  0  0  0  0  0
  184.1780  179.6370  144.5950 F   0  0  0  0  0  0  0  0  0  0  0  0
  184.5750  177.8700  146.1450 C   0  0  0  0  0  3  0  0  0  0  0  0
  185.0210  178.7240  145.1330 C   0  0  0  0  0  0  0  0  0  0  0  0
  185.4470  176.9290  146.6990 C   0  0  0  0  0  3  0  0  0  0  0  0
  1 10  1  0  0  0  0
  2 15  1  0  0  0  0
  2 12  1  0  0  0  0
  4  1  1  1  0  0  0
  5  3  1  0  0  0  0
  5 10  1  0  0  0  0
  6 29  1  6  0  0  0
  6  4  1  0  0  0  0
  8  5  2  0  0  0  0
  9 14  1  0  0  0  0
 10  7  1  1  0  0  0
 10 19  1  0  0  0  0
 11  9  2  0  0  0  0
 11  8  1  0  0  0  0
 12  6  1  0  0  0  0
 13  8  1  1  0  0  0
 13  4  1  0  0  0  0
 14 16  1  0  0  0  0
 14  3  2  0  0  0  0
 15 20  1  1  0  0  0
 15 13  1  0  0  0  0
 17 16  1  0  0  0  0
 19 18  1  0  0  0  0
 20 21  1  6  0  0  0
 21 23  1  0  0  0  0
 22 23  1  0  0  0  0
 24 20  1  0  0  0  0
 25 26  1  0  0  0  0
 25 24  1  0  0  0  0
 26 28  1  0  0  0  0
 28 27  3  0  0  0  0
 29 30  1  0  0  0  0
 30 32  1  0  0  0  0
 31 37  1  0  0  0  0
 32 31  2  0  0  0  0
 33 36  2  0  0  0  0
 33 32  1  0  0  0  0
 34 36  1  0  0  0  0
 35 37  2  0  0  0  0
 36 35  1  0  0  0  0
M  END
>  <MODEL>
5

>  <REMARK>
 VINA RESULT:      -6.1      2.009      2.880
  Name = 
  12 active torsions:
  status: ('A' for Active; 'I' for Inactive)
    1  A    between atoms: C_1  and  C_5
    2  A    between atoms: C_1  and  N_33
    3  A    between atoms: C_1  and  C_36
    4  A    between atoms: C_3  and  C_32
    5  A    between atoms: C_5  and  N_23
    6  A    between atoms: C_6  and  S_31
    7  A    between atoms: C_14  and  C_37
    8  A    between atoms: C_17  and  C_26
    9  A    between atoms: C_17  and  N_33
   10  A    between atoms: C_24  and  C_28
   11  A    between atoms: C_26  and  C_34
   12  A    between atoms: S_31  and  C_37
                            x       y       z     vdW  Elec       q    Type
                         _______ _______ _______ _____ _____    ______ ____

>  <TORSDO>
F 12

$$$$
=
 OpenBabel11052420023D

 37 40  0  0  1  0  0  0  0  0999 V2000
  190.1960  176.6770  142.7140 N   0  0  0  0  0  2  0  0  0  0  0  0
  186.5680  175.6740  142.6190 C   0  0  0  0  0  2  0  0  0  0  0  0
  191.3830  176.5070  146.3060 C   0  0  0  0  0  3  0  0  0  0  0  0
  189.5030  175.3900  142.7280 C   0  0  2  0  0  3  0  0  0  0  0  0
  190.6500  176.2820  145.1280 C   0  0  0  0  0  0  0  0  0  0  0  0
  188.7360  175.1630  141.4220 C   0  0  2  0  0  3  0  0  0  0  0  0
  191.6960  178.1680  143.8920 C   0  0  0  0  0  1  0  0  0  0  0  0
  189.4350  175.5580  145.2110 C   0  0  0  0  0  0  0  0  0  0  0  0
  189.7040  175.3550  147.6120 C   0  0  0  0  0  3  0  0  0  0  0  0
  191.2140  176.7270  143.7790 C   0  0  2  0  0  0  0  0  0  0  0  0
  188.9690  175.1060  146.4510 C   0  0  0  0  0  3  0  0  0  0  0  0
  187.4130  175.9320  141.3710 C   0  0  0  0  0  2  0  0  0  0  0  0
  188.6190  175.2860  143.9800 C   0  0  1  0  0  3  0  0  0  0  0  0
  190.9080  176.0580  147.5410 C   0  0  0  0  0  0  0  0  0  0  0  0
  187.3140  176.1170  143.8840 C   0  0  1  0  0  3  0  0  0  0  0  0
  191.7000  176.3010  148.7790 C   0  0  0  0  0  2  0  0  0  0  0  0
  191.5650  177.7490  149.2100 C   0  0  0  0  0  1  0  0  0  0  0  0
  193.3240  176.4510  142.3760 C   0  0  0  0  0  1  0  0  0  0  0  0
  192.4050  175.8250  143.4170 C   0  0  0  0  0  2  0  0  0  0  0  0
  187.5210  177.6540  143.9200 C   0  0  2  0  0  3  0  0  0  0  0  0
  187.2080  178.2670  145.2850 C   0  0  0  0  0  2  0  0  0  0  0  0
  186.3960  177.8140  147.4220 C   0  0  0  0  0  1  0  0  0  0  0  0
  186.3560  177.3670  146.0430 N   0  0  0  0  0  2  0  0  0  0  0  0
  186.8080  178.3570  142.8410 N   0  0  0  0  0  2  0  0  0  0  0  0
  185.7170  179.1820  143.3660 C   0  0  0  0  0  2  0  0  0  0  0  0
  184.3670  178.5210  143.1230 C   0  0  0  0  0  2  0  0  0  0  0  0
  183.9710  178.0980  140.5150 C   0  0  0  0  0  3  0  0  0  0  0  0
  184.1530  178.2910  141.6910 C   0  0  0  0  0  0  0  0  0  0  0  0
  188.5320  173.6720  141.1830 C   0  0  0  0  0  2  0  0  0  0  0  0
  190.0620  172.7410  141.5310 S   0  0  0  0  0  0  0  0  0  0  0  0
  192.1360  173.7690  140.0060 C   0  0  0  0  0  3  0  0  0  0  0  0
  190.8450  173.2320  139.9970 C   0  0  0  0  0  0  0  0  0  0  0  0
  190.1620  173.0780  138.7860 C   0  0  0  0  0  3  0  0  0  0  0  0
  190.0990  173.3250  136.4160 F   0  0  0  0  0  0  0  0  0  0  0  0
  192.0520  174.0120  137.5970 C   0  0  0  0  0  3  0  0  0  0  0  0
  190.7650  173.4690  137.5860 C   0  0  0  0  0  0  0  0  0  0  0  0
  192.7380  174.1600  138.8060 C   0  0  0  0  0  3  0  0  0  0  0  0
  1 10  1  0  0  0  0
  2 15  1  0  0  0  0
  3 14  1  0  0  0  0
  4  1  1  6  0  0  0
  4 13  1  0  0  0  0
  5  8  1  0  0  0  0
  5  3  2  0  0  0  0
  6 29  1  1  0  0  0
  6  4  1  0  0  0  0
  8 11  2  0  0  0  0
 10  7  1  1  0  0  0
 10  5  1  0  0  0  0
 11  9  1  0  0  0  0
 12  6  1  0  0  0  0
 12  2  1  0  0  0  0
 13  8  1  1  0  0  0
 14  9  2  0  0  0  0
 14 16  1  0  0  0  0
 15 20  1  6  0  0  0
 15 13  1  0  0  0  0
 16 17  1  0  0  0  0
 18 19  1  0  0  0  0
 19 10  1  0  0  0  0
 20 21  1  1  0  0  0
 21 23  1  0  0  0  0
 23 22  1  0  0  0  0
 24 25  1  0  0  0  0
 24 20  1  0  0  0  0
 26 25  1  0  0  0  0
 27 28  3  0  0  0  0
 28 26  1  0  0  0  0
 29 30  1  0  0  0  0
 32 31  1  0  0  0  0
 32 30  1  0  0  0  0
 33 32  2  0  0  0  0
 34 36  1  0  0  0  0
 35 37  1  0  0  0  0
 36 35  2  0  0  0  0
 36 33  1  0  0  0  0
 37 31  2  0  0  0  0
M  END
>  <MODEL>
6

>  <REMARK>
 VINA RESULT:      -6.1      3.236      6.951
  Name = 
  12 active torsions:
  status: ('A' for Active; 'I' for Inactive)
    1  A    between atoms: C_1  and  C_5
    2  A    between atoms: C_1  and  N_33
    3  A    between atoms: C_1  and  C_36
    4  A    between atoms: C_3  and  C_32
    5  A    between atoms: C_5  and  N_23
    6  A    between atoms: C_6  and  S_31
    7  A    between atoms: C_14  and  C_37
    8  A    between atoms: C_17  and  C_26
    9  A    between atoms: C_17  and  N_33
   10  A    between atoms: C_24  and  C_28
   11  A    between atoms: C_26  and  C_34
   12  A    between atoms: S_31  and  C_37
                            x       y       z     vdW  Elec       q    Type
                         _______ _______ _______ _____ _____    ______ ____

>  <TORSDO>
F 12

$$$$
=
 OpenBabel11052420023D

 37 40  0  0  1  0  0  0  0  0999 V2000
  189.6280  174.7000  140.4340 N   0  0  0  0  0  2  0  0  0  0  0  0
  189.7330  175.6840  144.0660 C   0  0  0  0  0  2  0  0  0  0  0  0
  190.5420  171.0340  140.1680 C   0  0  0  0  0  3  0  0  0  0  0  0
  188.7000  174.5380  141.5510 C   0  0  2  0  0  3  0  0  0  0  0  0
  190.0920  172.2670  140.6710 C   0  0  0  0  0  0  0  0  0  0  0  0
  188.2080  175.8960  142.0600 C   0  0  2  0  0  3  0  0  0  0  0  0
  190.9720  173.5850  138.7560 C   0  0  0  0  0  1  0  0  0  0  0  0
  189.8320  172.3810  142.0590 C   0  0  0  0  0  0  0  0  0  0  0  0
  190.5120  170.0770  142.3890 C   0  0  0  0  0  3  0  0  0  0  0  0
  189.7990  173.4230  139.7160 C   0  0  2  0  0  0  0  0  0  0  0  0
  190.0490  171.2880  142.9070 C   0  0  0  0  0  3  0  0  0  0  0  0
  189.2360  176.6030  142.9490 C   0  0  0  0  0  2  0  0  0  0  0  0
  189.3450  173.6740  142.6450 C   0  0  1  0  0  3  0  0  0  0  0  0
  190.7620  169.9500  141.0210 C   0  0  0  0  0  0  0  0  0  0  0  0
  190.4040  174.4320  143.4860 C   0  0  1  0  0  3  0  0  0  0  0  0
  191.2330  168.6490  140.4690 C   0  0  0  0  0  2  0  0  0  0  0  0
  190.7100  168.4600  139.0590 C   0  0  0  0  0  1  0  0  0  0  0  0
  188.1880  174.1660  137.8850 C   0  0  0  0  0  1  0  0  0  0  0  0
  188.5320  173.0940  138.9120 C   0  0  0  0  0  2  0  0  0  0  0  0
  191.7080  174.7820  142.7210 C   0  0  2  0  0  3  0  0  0  0  0  0
  192.8660  173.8420  143.0560 C   0  0  0  0  0  2  0  0  0  0  0  0
  193.4470  171.9740  144.3210 C   0  0  0  0  0  1  0  0  0  0  0  0
  192.5860  173.1410  144.2970 N   0  0  0  0  0  2  0  0  0  0  0  0
  192.1020  176.1920  142.8690 N   0  0  0  0  0  2  0  0  0  0  0  0
  193.3570  176.3240  143.6130 C   0  0  0  0  0  2  0  0  0  0  0  0
  193.1630  177.1600  144.8700 C   0  0  0  0  0  2  0  0  0  0  0  0
  192.3310  175.6390  146.9030 C   0  0  0  0  0  3  0  0  0  0  0  0
  192.7050  176.3230  145.9830 C   0  0  0  0  0  0  0  0  0  0  0  0
  186.8650  175.7420  142.7630 C   0  0  0  0  0  2  0  0  0  0  0  0
  185.7830  177.1700  142.4200 S   0  0  0  0  0  0  0  0  0  0  0  0
  184.4850  178.4130  144.5300 C   0  0  0  0  0  3  0  0  0  0  0  0
  185.4650  177.4890  144.1540 C   0  0  0  0  0  0  0  0  0  0  0  0
  186.1990  176.8130  145.1330 C   0  0  0  0  0  3  0  0  0  0  0  0
  186.6790  176.4150  147.4330 F   0  0  0  0  0  0  0  0  0  0  0  0
  184.9870  177.9940  146.8630 C   0  0  0  0  0  3  0  0  0  0  0  0
  185.9620  177.0660  146.4870 C   0  0  0  0  0  0  0  0  0  0  0  0
  184.2480  178.6660  145.8850 C   0  0  0  0  0  3  0  0  0  0  0  0
  3  5  2  0  0  0  0
  3 14  1  0  0  0  0
  4  1  1  6  0  0  0
  4  6  1  0  0  0  0
  4 13  1  0  0  0  0
  5  8  1  0  0  0  0
  6 29  1  1  0  0  0
  6 12  1  0  0  0  0
  8 11  2  0  0  0  0
  9 11  1  0  0  0  0
 10  7  1  6  0  0  0
 10  1  1  0  0  0  0
 10  5  1  0  0  0  0
 12  2  1  0  0  0  0
 13  8  1  6  0  0  0
 13 15  1  0  0  0  0
 14  9  2  0  0  0  0
 15 20  1  6  0  0  0
 15  2  1  0  0  0  0
 16 14  1  0  0  0  0
 17 16  1  0  0  0  0
 18 19  1  0  0  0  0
 19 10  1  0  0  0  0
 20 24  1  0  0  0  0
 20 21  1  1  0  0  0
 21 23  1  0  0  0  0
 23 22  1  0  0  0  0
 24 25  1  0  0  0  0
 25 26  1  0  0  0  0
 26 28  1  0  0  0  0
 28 27  3  0  0  0  0
 30 29  1  0  0  0  0
 30 32  1  0  0  0  0
 31 37  1  0  0  0  0
 32 31  2  0  0  0  0
 32 33  1  0  0  0  0
 33 36  2  0  0  0  0
 36 35  1  0  0  0  0
 36 34  1  0  0  0  0
 37 35  2  0  0  0  0
M  END
>  <MODEL>
7

>  <REMARK>
 VINA RESULT:      -6.0      1.811      5.793
  Name = 
  12 active torsions:
  status: ('A' for Active; 'I' for Inactive)
    1  A    between atoms: C_1  and  C_5
    2  A    between atoms: C_1  and  N_33
    3  A    between atoms: C_1  and  C_36
    4  A    between atoms: C_3  and  C_32
    5  A    between atoms: C_5  and  N_23
    6  A    between atoms: C_6  and  S_31
    7  A    between atoms: C_14  and  C_37
    8  A    between atoms: C_17  and  C_26
    9  A    between atoms: C_17  and  N_33
   10  A    between atoms: C_24  and  C_28
   11  A    between atoms: C_26  and  C_34
   12  A    between atoms: S_31  and  C_37
                            x       y       z     vdW  Elec       q    Type
                         _______ _______ _______ _____ _____    ______ ____

>  <TORSDO>
F 12

$$$$
=
 OpenBabel11052420023D

 37 40  0  0  1  0  0  0  0  0999 V2000
  191.6660  173.4960  143.0720 N   0  0  0  0  0  2  0  0  0  0  0  0
  194.8640  175.4580  142.7650 C   0  0  0  0  0  2  0  0  0  0  0  0
  189.0350  175.7440  144.6110 C   0  0  0  0  0  3  0  0  0  0  0  0
  192.1570  174.4820  142.1130 C   0  0  2  0  0  3  0  0  0  0  0  0
  190.1790  175.2990  143.9260 C   0  0  0  0  0  0  0  0  0  0  0  0
  193.3860  173.9580  141.3640 C   0  0  2  0  0  3  0  0  0  0  0  0
  189.9550  172.9450  144.6950 C   0  0  0  0  0  1  0  0  0  0  0  0
  191.1630  176.2480  143.5580 C   0  0  0  0  0  0  0  0  0  0  0  0
  189.8670  178.0150  144.5950 C   0  0  0  0  0  3  0  0  0  0  0  0
  190.2970  173.8340  143.5050 C   0  0  2  0  0  0  0  0  0  0  0  0
  191.0030  177.5960  143.9000 C   0  0  0  0  0  3  0  0  0  0  0  0
  194.6700  174.0520  142.1960 C   0  0  0  0  0  2  0  0  0  0  0  0
  192.4000  175.8240  142.8200 C   0  0  1  0  0  3  0  0  0  0  0  0
  188.8850  177.0900  144.9540 C   0  0  0  0  0  0  0  0  0  0  0  0
  193.6920  175.8450  143.6760 C   0  0  1  0  0  3  0  0  0  0  0  0
  187.6640  177.5450  145.6750 C   0  0  0  0  0  2  0  0  0  0  0  0
  186.4480  176.7910  145.1710 C   0  0  0  0  0  1  0  0  0  0  0  0
  188.5300  172.2600  142.5600 C   0  0  0  0  0  1  0  0  0  0  0  0
  189.2990  173.5610  142.3690 C   0  0  0  0  0  2  0  0  0  0  0  0
  193.6380  174.9610  144.9500 C   0  0  2  0  0  3  0  0  0  0  0  0
  193.4050  175.7680  146.2260 C   0  0  0  0  0  2  0  0  0  0  0  0
  191.5750  176.4160  147.5170 C   0  0  0  0  0  1  0  0  0  0  0  0
  192.2280  175.2680  146.9150 N   0  0  0  0  0  2  0  0  0  0  0  0
  194.8040  174.0720  145.0840 N   0  0  0  0  0  2  0  0  0  0  0  0
  195.7160  174.5350  146.1330 C   0  0  0  0  0  2  0  0  0  0  0  0
  197.0410  173.7890  146.0740 C   0  0  0  0  0  2  0  0  0  0  0  0
  196.6260  171.1570  145.8730 C   0  0  0  0  0  3  0  0  0  0  0  0
  196.8170  172.3440  145.9640 C   0  0  0  0  0  0  0  0  0  0  0  0
  193.5290  174.6660  140.0230 C   0  0  0  0  0  2  0  0  0  0  0  0
  193.7240  173.4610  138.6680 S   0  0  0  0  0  0  0  0  0  0  0  0
  191.7600  171.5510  139.0900 C   0  0  0  0  0  3  0  0  0  0  0  0
  192.0310  172.8870  138.7820 C   0  0  0  0  0  0  0  0  0  0  0  0
  190.9760  173.7800  138.5620 C   0  0  0  0  0  3  0  0  0  0  0  0
  188.6350  174.2000  138.4210 F   0  0  0  0  0  0  0  0  0  0  0  0
  189.3840  171.9980  138.9420 C   0  0  0  0  0  3  0  0  0  0  0  0
  189.6530  173.3360  138.6410 C   0  0  0  0  0  0  0  0  0  0  0  0
  190.4360  171.1070  139.1670 C   0  0  0  0  0  3  0  0  0  0  0  0
  1 10  1  0  0  0  0
  2 15  1  0  0  0  0
  3 14  1  0  0  0  0
  4 13  1  0  0  0  0
  4  1  1  1  0  0  0
  5  3  2  0  0  0  0
  6 29  1  6  0  0  0
  6  4  1  0  0  0  0
  6 12  1  0  0  0  0
  8 11  2  0  0  0  0
  8  5  1  0  0  0  0
  9 14  2  0  0  0  0
 10  5  1  0  0  0  0
 10  7  1  1  0  0  0
 11  9  1  0  0  0  0
 12  2  1  0  0  0  0
 13  8  1  1  0  0  0
 13 15  1  0  0  0  0
 14 16  1  0  0  0  0
 15 20  1  1  0  0  0
 17 16  1  0  0  0  0
 19 18  1  0  0  0  0
 19 10  1  0  0  0  0
 20 24  1  0  0  0  0
 20 21  1  1  0  0  0
 21 23  1  0  0  0  0
 23 22  1  0  0  0  0
 24 25  1  0  0  0  0
 26 25  1  0  0  0  0
 27 28  3  0  0  0  0
 28 26  1  0  0  0  0
 30 32  1  0  0  0  0
 30 29  1  0  0  0  0
 31 37  1  0  0  0  0
 32 31  2  0  0  0  0
 33 36  2  0  0  0  0
 33 32  1  0  0  0  0
 34 36  1  0  0  0  0
 35 37  2  0  0  0  0
 36 35  1  0  0  0  0
M  END
>  <MODEL>
8

>  <REMARK>
 VINA RESULT:      -6.0      3.031      6.444
  Name = 
  12 active torsions:
  status: ('A' for Active; 'I' for Inactive)
    1  A    between atoms: C_1  and  C_5
    2  A    between atoms: C_1  and  N_33
    3  A    between atoms: C_1  and  C_36
    4  A    between atoms: C_3  and  C_32
    5  A    between atoms: C_5  and  N_23
    6  A    between atoms: C_6  and  S_31
    7  A    between atoms: C_14  and  C_37
    8  A    between atoms: C_17  and  C_26
    9  A    between atoms: C_17  and  N_33
   10  A    between atoms: C_24  and  C_28
   11  A    between atoms: C_26  and  C_34
   12  A    between atoms: S_31  and  C_37
                            x       y       z     vdW  Elec       q    Type
                         _______ _______ _______ _____ _____    ______ ____

>  <TORSDO>
F 12

$$$$
=
 OpenBabel11052420023D

 37 40  0  0  1  0  0  0  0  0999 V2000
  191.0640  175.9740  142.7460 N   0  0  0  0  0  2  0  0  0  0  0  0
  187.5150  174.8250  142.2320 C   0  0  0  0  0  2  0  0  0  0  0  0
  191.6880  176.2790  146.4680 C   0  0  0  0  0  3  0  0  0  0  0  0
  190.4030  174.6720  142.8140 C   0  0  2  0  0  3  0  0  0  0  0  0
  191.1500  175.8870  145.2300 C   0  0  0  0  0  0  0  0  0  0  0  0
  189.8520  174.2610  141.4460 C   0  0  2  0  0  3  0  0  0  0  0  0
  192.3340  177.6530  143.9420 C   0  0  0  0  0  1  0  0  0  0  0  0
  189.9520  175.1310  145.2190 C   0  0  0  0  0  0  0  0  0  0  0  0
  189.8520  175.2260  147.6390 C   0  0  0  0  0  3  0  0  0  0  0  0
  191.9050  176.1900  143.9370 C   0  0  2  0  0  0  0  0  0  0  0  0
  189.3100  174.8120  146.4210 C   0  0  0  0  0  3  0  0  0  0  0  0
  188.5360  174.9660  141.1020 C   0  0  0  0  0  2  0  0  0  0  0  0
  189.3400  174.6830  143.9230 C   0  0  1  0  0  3  0  0  0  0  0  0
  191.0380  175.9620  147.6640 C   0  0  0  0  0  0  0  0  0  0  0  0
  188.0480  175.4450  143.5300 C   0  0  1  0  0  3  0  0  0  0  0  0
  191.6250  176.3810  148.9670 C   0  0  0  0  0  2  0  0  0  0  0  0
  191.5030  177.8830  149.1370 C   0  0  0  0  0  1  0  0  0  0  0  0
  194.1380  175.7400  142.7930 C   0  0  0  0  0  1  0  0  0  0  0  0
  193.1550  175.2990  143.8710 C   0  0  0  0  0  2  0  0  0  0  0  0
  188.2160  176.9820  143.4070 C   0  0  2  0  0  3  0  0  0  0  0  0
  187.4790  177.7520  144.5020 C   0  0  0  0  0  2  0  0  0  0  0  0
  185.4310  177.4490  145.5720 C   0  0  0  0  0  1  0  0  0  0  0  0
  186.7190  176.8280  145.3250 N   0  0  0  0  0  2  0  0  0  0  0  0
  187.8740  177.4930  142.0700 N   0  0  0  0  0  2  0  0  0  0  0  0
  186.7950  178.4820  142.1320 C   0  0  0  0  0  2  0  0  0  0  0  0
  185.5790  178.0170  141.3420 C   0  0  0  0  0  2  0  0  0  0  0  0
  186.3090  177.1540  138.9210 C   0  0  0  0  0  3  0  0  0  0  0  0
  185.9770  177.5410  140.0140 C   0  0  0  0  0  0  0  0  0  0  0  0
  189.7180  172.7460  141.3650 C   0  0  0  0  0  2  0  0  0  0  0  0
  191.0960  172.0200  140.4170 S   0  0  0  0  0  0  0  0  0  0  0  0
  191.5940  171.3410  143.0580 C   0  0  0  0  0  3  0  0  0  0  0  0
  192.1360  171.8210  141.8620 C   0  0  0  0  0  0  0  0  0  0  0  0
  193.4940  172.1490  141.7940 C   0  0  0  0  0  3  0  0  0  0  0  0
  195.6210  172.3290  142.8540 F   0  0  0  0  0  0  0  0  0  0  0  0
  193.7640  171.5320  144.1180 C   0  0  0  0  0  3  0  0  0  0  0  0
  194.3080  172.0050  142.9210 C   0  0  0  0  0  0  0  0  0  0  0  0
  192.4090  171.1980  144.1860 C   0  0  0  0  0  3  0  0  0  0  0  0
  1 10  1  0  0  0  0
  2 15  1  0  0  0  0
  3 14  1  0  0  0  0
  4  1  1  6  0  0  0
  4 13  1  0  0  0  0
  5  3  2  0  0  0  0
  6 29  1  1  0  0  0
  6  4  1  0  0  0  0
  8  5  1  0  0  0  0
  8 11  2  0  0  0  0
  9 14  2  0  0  0  0
 10  7  1  1  0  0  0
 10  5  1  0  0  0  0
 11  9  1  0  0  0  0
 12  6  1  0  0  0  0
 12  2  1  0  0  0  0
 13  8  1  1  0  0  0
 14 16  1  0  0  0  0
 15 20  1  6  0  0  0
 15 13  1  0  0  0  0
 16 17  1  0  0  0  0
 18 19  1  0  0  0  0
 19 10  1  0  0  0  0
 20 21  1  1  0  0  0
 21 23  1  0  0  0  0
 23 22  1  0  0  0  0
 24 25  1  0  0  0  0
 24 20  1  0  0  0  0
 26 25  1  0  0  0  0
 27 28  3  0  0  0  0
 28 26  1  0  0  0  0
 30 29  1  0  0  0  0
 30 32  1  0  0  0  0
 31 37  1  0  0  0  0
 32 31  2  0  0  0  0
 33 32  1  0  0  0  0
 33 36  2  0  0  0  0
 34 36  1  0  0  0  0
 35 37  2  0  0  0  0
 36 35  1  0  0  0  0
M  END
>  <MODEL>
9

>  <REMARK>
 VINA RESULT:      -5.9      3.166      6.941
  Name = 
  12 active torsions:
  status: ('A' for Active; 'I' for Inactive)
    1  A    between atoms: C_1  and  C_5
    2  A    between atoms: C_1  and  N_33
    3  A    between atoms: C_1  and  C_36
    4  A    between atoms: C_3  and  C_32
    5  A    between atoms: C_5  and  N_23
    6  A    between atoms: C_6  and  S_31
    7  A    between atoms: C_14  and  C_37
    8  A    between atoms: C_17  and  C_26
    9  A    between atoms: C_17  and  N_33
   10  A    between atoms: C_24  and  C_28
   11  A    between atoms: C_26  and  C_34
   12  A    between atoms: S_31  and  C_37
                            x       y       z     vdW  Elec       q    Type
                         _______ _______ _______ _____ _____    ______ ____

>  <TORSDO>
F 12

$$$$
