=
 OpenBabel11052421133D

 43 48  0  0  1  0  0  0  0  0999 V2000
  188.7710  172.8750  140.1170 C   0  0  0  0  0  0  0  0  0  0  0  0
  192.7630  174.6860  142.7450 C   0  0  0  0  0  0  0  0  0  0  0  0
  191.8060  175.5710  145.2380 C   0  0  0  0  0  0  0  0  0  0  0  0
  190.9400  173.7680  140.7310 C   0  0  0  0  0  0  0  0  0  0  0  0
  188.3110  173.1150  141.5040 C   0  0  0  0  0  3  0  0  0  0  0  0
  187.9040  172.3050  139.1950 O   0  0  0  0  0  1  0  0  0  0  0  0
  190.3300  174.4770  141.9220 C   0  0  0  0  0  0  0  0  0  0  0  0
  190.0280  173.1540  139.7570 C   0  0  0  0  0  2  0  0  0  0  0  0
  189.0540  173.8140  142.3700 C   0  0  0  0  0  3  0  0  0  0  0  0
  190.9050  175.1650  144.1910 N   0  0  0  0  0  0  0  0  0  0  0  0
  191.3130  174.7320  143.0320 C   0  0  0  0  0  0  0  0  0  0  0  0
  193.2010  174.2190  141.5650 C   0  0  0  0  0  3  0  0  0  0  0  0
  193.6680  175.1180  143.7760 N   0  0  0  0  0  0  0  0  0  0  0  0
  193.1300  175.5530  145.0360 C   0  0  0  0  0  3  0  0  0  0  0  0
  192.2630  173.7110  140.5470 C   0  0  0  0  0  3  0  0  0  0  0  0
  191.2710  176.0010  146.5690 C   0  0  2  0  0  3  0  0  0  0  0  0
  191.7950  175.0770  147.6530 C   0  0  0  0  0  1  0  0  0  0  0  0
  189.8120  175.9580  146.5730 N   0  0  0  0  0  2  0  0  0  0  0  0
  188.9870  177.0340  146.1130 C   0  0  0  0  0  0  0  0  0  0  0  0
  189.4940  178.1570  145.8450 O   0  0  0  0  0  0  0  0  0  0  0  0
  187.6130  176.8470  145.9660 O   0  0  0  0  0  0  0  0  0  0  0  0
  186.6960  177.9130  146.1760 C   0  0  2  0  0  3  0  0  0  0  0  0
  184.2710  178.1460  146.2790 C   0  0  0  0  0  2  0  0  0  0  0  0
  186.2800  177.9700  147.6280 C   0  0  0  0  0  2  0  0  0  0  0  0
  185.4170  177.6780  145.3940 C   0  0  1  0  0  3  0  0  0  0  0  0
  184.8770  178.5370  147.6170 C   0  0  0  0  0  2  0  0  0  0  0  0
  185.9040  177.8200  142.9010 N   0  0  0  0  0  0  0  0  0  0  0  0
  185.4240  178.4390  144.1000 C   0  0  0  0  0  0  0  0  0  0  0  0
  186.4700  177.4260  140.8470 C   0  0  0  0  0  0  0  0  0  0  0  0
  186.7490  176.2910  141.5110 N   0  0  0  0  0  0  0  0  0  0  0  0
  186.6790  177.5920  139.4510 N   0  0  0  0  0  1  0  0  0  0  0  0
  186.3910  176.5660  142.7810 C   0  0  0  0  0  3  0  0  0  0  0  0
  185.9460  178.3850  141.6830 C   0  0  0  0  0  3  0  0  0  0  0  0
  184.9700  179.6160  144.0610 O   0  0  0  0  0  0  0  0  0  0  0  0
  195.1180  175.0610  143.6100 C   0  0  0  0  0  2  0  0  0  0  0  0
  196.0190  171.4520  144.3700 C   0  0  0  0  0  3  0  0  0  0  0  0
  196.7190  171.5830  145.5740 C   0  0  0  0  0  0  0  0  0  0  0  0
  196.3680  173.9900  145.4970 C   0  0  0  0  0  3  0  0  0  0  0  0
  195.4980  172.5820  143.7300 C   0  0  0  0  0  3  0  0  0  0  0  0
  195.6760  173.8520  144.2900 C   0  0  0  0  0  0  0  0  0  0  0  0
  196.8890  172.8600  146.1370 C   0  0  0  0  0  3  0  0  0  0  0  0
  196.4140  169.4990  146.8740 C   0  0  0  0  0  1  0  0  0  0  0  0
  197.2330  170.4330  146.1830 O   0  0  0  0  0  0  0  0  0  0  0  0
  1  5  2  0  0  0  0
  2 11  1  0  0  0  0
  2 13  1  0  0  0  0
  3 16  1  0  0  0  0
  4  7  1  0  0  0  0
  5  9  1  0  0  0  0
  6  1  1  0  0  0  0
  7  9  2  0  0  0  0
  7 11  1  0  0  0  0
  8  1  1  0  0  0  0
  8  4  1  0  0  0  0
 10  3  1  0  0  0  0
 11 10  2  0  0  0  0
 12  2  2  0  0  0  0
 13 14  1  0  0  0  0
 14  3  2  0  0  0  0
 15  4  2  0  0  0  0
 15 12  1  0  0  0  0
 16 18  1  0  0  0  0
 16 17  1  1  0  0  0
 19 18  1  0  0  0  0
 20 19  2  0  0  0  0
 21 19  1  0  0  0  0
 22 21  1  1  0  0  0
 22 24  1  0  0  0  0
 23 26  1  0  0  0  0
 25 28  1  6  0  0  0
 25 22  1  0  0  0  0
 25 23  1  0  0  0  0
 26 24  1  0  0  0  0
 27 28  1  0  0  0  0
 29 30  1  0  0  0  0
 29 33  2  0  0  0  0
 30 32  2  0  0  0  0
 31 29  1  0  0  0  0
 32 27  1  0  0  0  0
 33 27  1  0  0  0  0
 34 28  2  0  0  0  0
 35 13  1  0  0  0  0
 35 40  1  0  0  0  0
 36 37  1  0  0  0  0
 37 41  2  0  0  0  0
 37 43  1  0  0  0  0
 38 41  1  0  0  0  0
 39 40  1  0  0  0  0
 39 36  2  0  0  0  0
 40 38  2  0  0  0  0
 43 42  1  0  0  0  0
M  END
>  <MODEL>
1

>  <REMARK>
 VINA RESULT:      -8.6      0.000      0.000
  Name = 
  8 active torsions:
  status: ('A' for Active; 'I' for Inactive)
    1  A    between atoms: C_1  and  N_34
    2  A    between atoms: C_1  and  C_35
    3  A    between atoms: C_2  and  N_6
    4  A    between atoms: C_2  and  C_13
    5  A    between atoms: O_3  and  C_4
    6  A    between atoms: O_3  and  C_12
    7  A    between atoms: C_14  and  C_22
    8  A    between atoms: C_19  and  O_37
                            x       y       z     vdW  Elec       q    Type
                         _______ _______ _______ _____ _____    ______ ____

>  <TORSDO>
F 8

$$$$
=
 OpenBabel11052421133D

 43 48  0  0  1  0  0  0  0  0999 V2000
  185.2040  177.8040  146.2930 C   0  0  0  0  0  0  0  0  0  0  0  0
  188.7150  175.7710  143.1860 C   0  0  0  0  0  0  0  0  0  0  0  0
  191.1560  175.7170  144.5830 C   0  0  0  0  0  0  0  0  0  0  0  0
  186.4060  177.0200  144.3400 C   0  0  0  0  0  0  0  0  0  0  0  0
  186.4180  177.5570  147.1050 C   0  0  0  0  0  3  0  0  0  0  0  0
  184.0550  178.2860  146.9060 O   0  0  0  0  0  1  0  0  0  0  0  0
  187.7300  177.2770  145.0290 C   0  0  0  0  0  0  0  0  0  0  0  0
  185.1860  177.5190  144.9870 C   0  0  0  0  0  2  0  0  0  0  0  0
  187.5880  177.2580  146.5280 C   0  0  0  0  0  3  0  0  0  0  0  0
  190.0010  176.3930  145.1170 N   0  0  0  0  0  0  0  0  0  0  0  0
  188.8520  176.4220  144.5060 C   0  0  0  0  0  0  0  0  0  0  0  0
  187.5300  175.7690  142.5550 C   0  0  0  0  0  3  0  0  0  0  0  0
  189.8720  175.1190  142.6330 N   0  0  0  0  0  0  0  0  0  0  0  0
  191.0930  175.1120  143.3910 C   0  0  0  0  0  3  0  0  0  0  0  0
  186.3360  176.3780  143.1690 C   0  0  0  0  0  3  0  0  0  0  0  0
  192.4320  175.6710  145.3670 C   0  0  2  0  0  3  0  0  0  0  0  0
  192.2460  176.3940  146.6880 C   0  0  0  0  0  1  0  0  0  0  0  0
  193.5130  176.3110  144.6230 N   0  0  0  0  0  2  0  0  0  0  0  0
  194.8990  176.0360  144.8490 C   0  0  0  0  0  0  0  0  0  0  0  0
  195.2600  175.3470  145.8410 O   0  0  0  0  0  0  0  0  0  0  0  0
  195.8630  176.5360  143.9730 O   0  0  0  0  0  0  0  0  0  0  0  0
  196.2370  175.8240  142.8010 C   0  0  2  0  0  3  0  0  0  0  0  0
  195.0770  174.5270  141.0920 C   0  0  0  0  0  2  0  0  0  0  0  0
  196.0570  176.6930  141.5770 C   0  0  0  0  0  2  0  0  0  0  0  0
  195.3250  174.6290  142.5900 C   0  0  1  0  0  3  0  0  0  0  0  0
  195.7440  175.7330  140.4510 C   0  0  0  0  0  2  0  0  0  0  0  0
  195.1760  172.4180  143.8410 N   0  0  0  0  0  0  0  0  0  0  0  0
  195.9550  173.3680  143.1040 C   0  0  0  0  0  0  0  0  0  0  0  0
  194.5300  170.6760  144.9540 C   0  0  0  0  0  0  0  0  0  0  0  0
  193.4360  171.4520  144.8520 N   0  0  0  0  0  0  0  0  0  0  0  0
  194.5390  169.4130  145.6070 N   0  0  0  0  0  1  0  0  0  0  0  0
  193.8690  172.5260  144.1600 C   0  0  0  0  0  3  0  0  0  0  0  0
  195.6160  171.2500  144.3360 C   0  0  0  0  0  3  0  0  0  0  0  0
  197.1690  173.1240  142.8540 O   0  0  0  0  0  0  0  0  0  0  0  0
  189.8260  174.4030  141.3620 C   0  0  0  0  0  2  0  0  0  0  0  0
  192.3920  171.6340  140.9570 C   0  0  0  0  0  3  0  0  0  0  0  0
  191.8060  170.5960  141.6890 C   0  0  0  0  0  0  0  0  0  0  0  0
  189.9210  172.0470  142.2050 C   0  0  0  0  0  3  0  0  0  0  0  0
  191.7500  172.8730  140.8500 C   0  0  0  0  0  3  0  0  0  0  0  0
  190.5170  173.0820  141.4780 C   0  0  0  0  0  0  0  0  0  0  0  0
  190.5640  170.8080  142.3130 C   0  0  0  0  0  3  0  0  0  0  0  0
  192.3160  168.4900  142.8840 C   0  0  0  0  0  1  0  0  0  0  0  0
  192.4790  169.3730  141.7830 O   0  0  0  0  0  0  0  0  0  0  0  0
  1  6  1  0  0  0  0
  1  5  2  0  0  0  0
  2 11  1  0  0  0  0
  3 10  1  0  0  0  0
  3 16  1  0  0  0  0
  4  8  1  0  0  0  0
  4  7  1  0  0  0  0
  7  9  2  0  0  0  0
  8  1  1  0  0  0  0
  9  5  1  0  0  0  0
 11  7  1  0  0  0  0
 11 10  2  0  0  0  0
 12 15  1  0  0  0  0
 12  2  2  0  0  0  0
 13  2  1  0  0  0  0
 13 14  1  0  0  0  0
 14  3  2  0  0  0  0
 15  4  2  0  0  0  0
 16 17  1  1  0  0  0
 18 19  1  0  0  0  0
 18 16  1  0  0  0  0
 19 20  2  0  0  0  0
 21 19  1  0  0  0  0
 22 21  1  1  0  0  0
 23 25  1  0  0  0  0
 24 22  1  0  0  0  0
 25 22  1  0  0  0  0
 25 28  1  6  0  0  0
 26 23  1  0  0  0  0
 26 24  1  0  0  0  0
 27 32  1  0  0  0  0
 27 33  1  0  0  0  0
 28 27  1  0  0  0  0
 29 31  1  0  0  0  0
 30 29  1  0  0  0  0
 32 30  2  0  0  0  0
 33 29  2  0  0  0  0
 34 28  2  0  0  0  0
 35 40  1  0  0  0  0
 35 13  1  0  0  0  0
 36 37  1  0  0  0  0
 37 43  1  0  0  0  0
 37 41  2  0  0  0  0
 38 41  1  0  0  0  0
 39 36  2  0  0  0  0
 39 40  1  0  0  0  0
 40 38  2  0  0  0  0
 43 42  1  0  0  0  0
M  END
>  <MODEL>
2

>  <REMARK>
 VINA RESULT:      -8.0      2.730      8.079
  Name = 
  8 active torsions:
  status: ('A' for Active; 'I' for Inactive)
    1  A    between atoms: C_1  and  N_34
    2  A    between atoms: C_1  and  C_35
    3  A    between atoms: C_2  and  N_6
    4  A    between atoms: C_2  and  C_13
    5  A    between atoms: O_3  and  C_4
    6  A    between atoms: O_3  and  C_12
    7  A    between atoms: C_14  and  C_22
    8  A    between atoms: C_19  and  O_37
                            x       y       z     vdW  Elec       q    Type
                         _______ _______ _______ _____ _____    ______ ____

>  <TORSDO>
F 8

$$$$
=
 OpenBabel11052421133D

 43 48  0  0  1  0  0  0  0  0999 V2000
  196.5960  169.7580  146.3810 C   0  0  0  0  0  0  0  0  0  0  0  0
  192.6280  171.8730  143.9510 C   0  0  0  0  0  0  0  0  0  0  0  0
  193.0580  174.6520  143.8840 C   0  0  0  0  0  0  0  0  0  0  0  0
  194.4190  170.1600  145.3940 C   0  0  0  0  0  0  0  0  0  0  0  0
  196.9370  171.1790  146.1370 C   0  0  0  0  0  3  0  0  0  0  0  0
  197.5340  168.9170  146.9640 O   0  0  0  0  0  1  0  0  0  0  0  0
  194.5620  171.6470  145.6380 C   0  0  1  0  0  3  0  0  0  0  0  0
  195.4130  169.2640  146.0000 C   0  0  0  0  0  3  0  0  0  0  0  0
  196.0080  172.0560  145.7390 C   0  0  0  0  0  3  0  0  0  0  0  0
  193.9080  173.7810  144.6530 N   0  0  0  0  0  0  0  0  0  0  0  0
  193.7500  172.4890  144.6920 C   0  0  0  0  0  0  0  0  0  0  0  0
  192.4670  170.5400  143.9590 C   0  0  0  0  0  3  0  0  0  0  0  0
  191.7580  172.7400  143.2030 N   0  0  0  0  0  0  0  0  0  0  0  0
  192.0250  174.1520  143.1940 C   0  0  0  0  0  3  0  0  0  0  0  0
  193.4120  169.6590  144.6700 C   0  0  0  0  0  3  0  0  0  0  0  0
  193.3330  176.1240  143.8350 C   0  0  2  0  0  3  0  0  0  0  0  0
  194.7790  176.3860  144.2120 C   0  0  0  0  0  1  0  0  0  0  0  0
  192.4630  176.8390  144.7640 N   0  0  0  0  0  2  0  0  0  0  0  0
  191.2090  177.4170  144.3870 C   0  0  0  0  0  0  0  0  0  0  0  0
  190.8780  177.4900  143.1730 O   0  0  0  0  0  0  0  0  0  0  0  0
  190.3460  177.9130  145.3650 O   0  0  0  0  0  0  0  0  0  0  0  0
  189.9920  177.1350  146.5010 C   0  0  2  0  0  3  0  0  0  0  0  0
  189.2550  174.8440  146.8960 C   0  0  0  0  0  2  0  0  0  0  0  0
  191.1770  176.3240  146.9730 C   0  0  0  0  0  2  0  0  0  0  0  0
  188.9220  176.1220  146.1390 C   0  0  1  0  0  3  0  0  0  0  0  0
  190.5820  175.0810  147.5980 C   0  0  0  0  0  2  0  0  0  0  0  0
  186.8210  177.4650  145.6300 N   0  0  0  0  0  0  0  0  0  0  0  0
  187.5560  176.6150  146.5190 C   0  0  0  0  0  0  0  0  0  0  0  0
  185.2890  178.7050  144.7310 C   0  0  0  0  0  0  0  0  0  0  0  0
  186.2940  178.6880  143.8380 N   0  0  0  0  0  0  0  0  0  0  0  0
  184.0670  179.4010  144.5250 N   0  0  0  0  0  1  0  0  0  0  0  0
  187.2300  177.9140  144.4250 C   0  0  0  0  0  3  0  0  0  0  0  0
  185.5890  177.9560  145.8450 C   0  0  0  0  0  3  0  0  0  0  0  0
  187.0360  176.2490  147.6100 O   0  0  0  0  0  0  0  0  0  0  0  0
  190.6550  172.2250  142.3970 C   0  0  0  0  0  2  0  0  0  0  0  0
  188.5720  174.6880  140.3950 C   0  0  0  0  0  3  0  0  0  0  0  0
  187.9140  175.3920  141.4080 C   0  0  0  0  0  0  0  0  0  0  0  0
  189.0520  174.0270  143.0710 C   0  0  0  0  0  3  0  0  0  0  0  0
  189.4640  173.6580  140.7140 C   0  0  0  0  0  3  0  0  0  0  0  0
  189.7000  173.3230  142.0520 C   0  0  0  0  0  0  0  0  0  0  0  0
  188.1600  175.0570  142.7520 C   0  0  0  0  0  3  0  0  0  0  0  0
  187.4540  177.7210  140.7090 C   0  0  0  0  0  1  0  0  0  0  0  0
  187.0230  176.4110  141.0530 O   0  0  0  0  0  0  0  0  0  0  0  0
  1  6  1  0  0  0  0
  2 12  2  0  0  0  0
  2 11  1  0  0  0  0
  3 10  1  0  0  0  0
  4  7  1  0  0  0  0
  4  8  1  0  0  0  0
  5  1  1  0  0  0  0
  7  9  1  6  0  0  0
  8  1  2  0  0  0  0
  9  5  2  0  0  0  0
 10 11  2  0  0  0  0
 11  7  1  0  0  0  0
 12 15  1  0  0  0  0
 13  2  1  0  0  0  0
 14 13  1  0  0  0  0
 14  3  2  0  0  0  0
 15  4  2  0  0  0  0
 16  3  1  0  0  0  0
 16 17  1  1  0  0  0
 16 18  1  0  0  0  0
 19 18  1  0  0  0  0
 19 21  1  0  0  0  0
 20 19  2  0  0  0  0
 22 21  1  6  0  0  0
 22 24  1  0  0  0  0
 23 26  1  0  0  0  0
 24 26  1  0  0  0  0
 25 22  1  0  0  0  0
 25 28  1  1  0  0  0
 25 23  1  0  0  0  0
 27 33  1  0  0  0  0
 27 28  1  0  0  0  0
 28 34  2  0  0  0  0
 29 33  2  0  0  0  0
 30 32  2  0  0  0  0
 30 29  1  0  0  0  0
 31 29  1  0  0  0  0
 32 27  1  0  0  0  0
 35 13  1  0  0  0  0
 36 39  2  0  0  0  0
 36 37  1  0  0  0  0
 37 41  2  0  0  0  0
 39 40  1  0  0  0  0
 40 35  1  0  0  0  0
 40 38  2  0  0  0  0
 41 38  1  0  0  0  0
 42 43  1  0  0  0  0
 43 37  1  0  0  0  0
M  END
>  <MODEL>
3

>  <REMARK>
 VINA RESULT:      -7.9      2.036      6.600
  Name = 
  8 active torsions:
  status: ('A' for Active; 'I' for Inactive)
    1  A    between atoms: C_1  and  N_34
    2  A    between atoms: C_1  and  C_35
    3  A    between atoms: C_2  and  N_6
    4  A    between atoms: C_2  and  C_13
    5  A    between atoms: O_3  and  C_4
    6  A    between atoms: O_3  and  C_12
    7  A    between atoms: C_14  and  C_22
    8  A    between atoms: C_19  and  O_37
                            x       y       z     vdW  Elec       q    Type
                         _______ _______ _______ _____ _____    ______ ____

>  <TORSDO>
F 8

$$$$
=
 OpenBabel11052421133D

 43 48  0  0  1  0  0  0  0  0999 V2000
  195.9130  173.8220  145.8180 C   0  0  0  0  0  0  0  0  0  0  0  0
  191.8530  176.1350  143.7480 C   0  0  0  0  0  0  0  0  0  0  0  0
  190.4280  174.2000  142.2850 C   0  0  0  0  0  0  0  0  0  0  0  0
  194.3690  175.4810  144.9580 C   0  0  0  0  0  0  0  0  0  0  0  0
  195.0440  172.7630  145.2550 C   0  0  0  0  0  3  0  0  0  0  0  0
  197.0600  173.4700  146.5150 O   0  0  0  0  0  1  0  0  0  0  0  0
  193.8120  174.4770  143.9700 C   0  0  1  0  0  3  0  0  0  0  0  0
  195.5770  175.1120  145.7060 C   0  0  0  0  0  3  0  0  0  0  0  0
  194.0290  173.0620  144.4360 C   0  0  0  0  0  3  0  0  0  0  0  0
  191.7210  173.9110  142.8490 N   0  0  0  0  0  0  0  0  0  0  0  0
  192.4000  174.7760  143.5460 C   0  0  0  0  0  0  0  0  0  0  0  0
  192.5270  177.0300  144.4870 C   0  0  0  0  0  3  0  0  0  0  0  0
  190.5730  176.4390  143.1640 N   0  0  0  0  0  0  0  0  0  0  0  0
  189.8810  175.4130  142.4340 C   0  0  0  0  0  3  0  0  0  0  0  0
  193.8020  176.6780  145.1390 C   0  0  0  0  0  3  0  0  0  0  0  0
  189.6740  173.1380  141.5450 C   0  0  2  0  0  3  0  0  0  0  0  0
  188.9230  172.2630  142.5310 C   0  0  0  0  0  1  0  0  0  0  0  0
  190.5890  172.3040  140.7710 N   0  0  0  0  0  2  0  0  0  0  0  0
  191.0990  172.6720  139.4860 C   0  0  0  0  0  0  0  0  0  0  0  0
  190.6310  173.6700  138.8740 O   0  0  0  0  0  0  0  0  0  0  0  0
  192.1160  171.9200  138.8960 O   0  0  0  0  0  0  0  0  0  0  0  0
  193.0300  172.5050  137.9780 C   0  0  2  0  0  3  0  0  0  0  0  0
  195.4440  172.4600  137.6370 C   0  0  0  0  0  2  0  0  0  0  0  0
  193.3390  171.5410  136.8560 C   0  0  0  0  0  2  0  0  0  0  0  0
  194.3590  172.7830  138.6550 C   0  0  1  0  0  3  0  0  0  0  0  0
  194.7470  171.8800  136.4170 C   0  0  0  0  0  2  0  0  0  0  0  0
  195.2750  174.5790  140.2080 N   0  0  0  0  0  0  0  0  0  0  0  0
  194.4580  174.2170  139.0880 C   0  0  0  0  0  0  0  0  0  0  0  0
  196.3170  175.6880  141.7490 C   0  0  0  0  0  0  0  0  0  0  0  0
  196.6670  174.4050  141.9450 N   0  0  0  0  0  0  0  0  0  0  0  0
  196.7990  176.7640  142.5450 N   0  0  0  0  0  1  0  0  0  0  0  0
  196.0030  173.7410  140.9770 C   0  0  0  0  0  3  0  0  0  0  0  0
  195.4600  175.8220  140.6820 C   0  0  0  0  0  3  0  0  0  0  0  0
  193.8500  175.1130  138.4400 O   0  0  0  0  0  0  0  0  0  0  0  0
  189.9240  177.7330  143.3500 C   0  0  0  0  0  2  0  0  0  0  0  0
  186.3160  177.7380  144.5320 C   0  0  0  0  0  3  0  0  0  0  0  0
  186.4540  177.3420  145.8660 C   0  0  0  0  0  0  0  0  0  0  0  0
  188.8640  177.2050  145.5570 C   0  0  0  0  0  3  0  0  0  0  0  0
  187.4430  177.8660  143.7120 C   0  0  0  0  0  3  0  0  0  0  0  0
  188.7170  177.5940  144.2220 C   0  0  0  0  0  0  0  0  0  0  0  0
  187.7370  177.0770  146.3770 C   0  0  0  0  0  3  0  0  0  0  0  0
  184.2370  178.1530  146.6060 C   0  0  0  0  0  1  0  0  0  0  0  0
  185.3050  177.2170  146.6550 O   0  0  0  0  0  0  0  0  0  0  0  0
  1  6  1  0  0  0  0
  2 12  2  0  0  0  0
  3 14  2  0  0  0  0
  3 10  1  0  0  0  0
  4 15  2  0  0  0  0
  4  8  1  0  0  0  0
  5  1  1  0  0  0  0
  7  9  1  1  0  0  0
  7  4  1  0  0  0  0
  8  1  2  0  0  0  0
  9  5  2  0  0  0  0
 10 11  2  0  0  0  0
 11  2  1  0  0  0  0
 11  7  1  0  0  0  0
 12 15  1  0  0  0  0
 13 35  1  0  0  0  0
 13  2  1  0  0  0  0
 14 13  1  0  0  0  0
 16  3  1  0  0  0  0
 16 17  1  1  0  0  0
 18 16  1  0  0  0  0
 19 18  1  0  0  0  0
 20 19  2  0  0  0  0
 21 19  1  0  0  0  0
 22 25  1  0  0  0  0
 22 21  1  1  0  0  0
 23 25  1  0  0  0  0
 24 22  1  0  0  0  0
 25 28  1  6  0  0  0
 26 24  1  0  0  0  0
 26 23  1  0  0  0  0
 27 33  1  0  0  0  0
 27 32  1  0  0  0  0
 28 27  1  0  0  0  0
 29 30  1  0  0  0  0
 29 31  1  0  0  0  0
 32 30  2  0  0  0  0
 33 29  2  0  0  0  0
 34 28  2  0  0  0  0
 35 40  1  0  0  0  0
 36 37  1  0  0  0  0
 37 41  2  0  0  0  0
 37 43  1  0  0  0  0
 38 41  1  0  0  0  0
 39 40  1  0  0  0  0
 39 36  2  0  0  0  0
 40 38  2  0  0  0  0
 42 43  1  0  0  0  0
M  END
>  <MODEL>
4

>  <REMARK>
 VINA RESULT:      -7.8      2.709      9.402
  Name = 
  8 active torsions:
  status: ('A' for Active; 'I' for Inactive)
    1  A    between atoms: C_1  and  N_34
    2  A    between atoms: C_1  and  C_35
    3  A    between atoms: C_2  and  N_6
    4  A    between atoms: C_2  and  C_13
    5  A    between atoms: O_3  and  C_4
    6  A    between atoms: O_3  and  C_12
    7  A    between atoms: C_14  and  C_22
    8  A    between atoms: C_19  and  O_37
                            x       y       z     vdW  Elec       q    Type
                         _______ _______ _______ _____ _____    ______ ____

>  <TORSDO>
F 8

$$$$
=
 OpenBabel11052421133D

 43 48  0  0  1  0  0  0  0  0999 V2000
  196.2220  174.8650  144.3540 C   0  0  0  0  0  0  0  0  0  0  0  0
  191.2490  175.6050  145.2740 C   0  0  0  0  0  0  0  0  0  0  0  0
  189.8890  175.3680  142.8230 C   0  0  0  0  0  0  0  0  0  0  0  0
  194.1140  175.5130  145.3610 C   0  0  0  0  0  0  0  0  0  0  0  0
  195.4890  174.5060  143.1190 C   0  0  0  0  0  3  0  0  0  0  0  0
  197.5970  174.6860  144.4130 O   0  0  0  0  0  1  0  0  0  0  0  0
  193.4830  175.6560  143.9920 C   0  0  1  0  0  3  0  0  0  0  0  0
  195.5670  175.3130  145.4310 C   0  0  0  0  0  3  0  0  0  0  0  0
  194.1980  174.8220  142.9620 C   0  0  0  0  0  3  0  0  0  0  0  0
  191.3280  175.3870  142.8830 N   0  0  0  0  0  0  0  0  0  0  0  0
  191.9900  175.4760  144.0000 C   0  0  0  0  0  0  0  0  0  0  0  0
  191.9170  175.6710  146.4370 C   0  0  0  0  0  3  0  0  0  0  0  0
  189.8120  175.6150  145.2190 N   0  0  0  0  0  0  0  0  0  0  0  0
  189.1640  175.4820  143.9440 C   0  0  0  0  0  3  0  0  0  0  0  0
  193.3880  175.5850  146.4820 C   0  0  0  0  0  3  0  0  0  0  0  0
  189.1910  175.2020  141.5080 C   0  0  2  0  0  3  0  0  0  0  0  0
  187.8380  175.8870  141.5580 C   0  0  0  0  0  1  0  0  0  0  0  0
  188.9950  173.7860  141.2080 N   0  0  0  0  0  2  0  0  0  0  0  0
  189.1380  173.2290  139.8980 C   0  0  0  0  0  0  0  0  0  0  0  0
  189.2680  173.9810  138.8940 O   0  0  0  0  0  0  0  0  0  0  0  0
  189.1270  171.8450  139.7210 O   0  0  0  0  0  0  0  0  0  0  0  0
  190.1710  171.1810  139.0220 C   0  0  2  0  0  3  0  0  0  0  0  0
  191.0180  168.8980  138.8900 C   0  0  0  0  0  2  0  0  0  0  0  0
  189.6370  170.5420  137.7600 C   0  0  0  0  0  2  0  0  0  0  0  0
  190.7270  170.0400  139.8530 C   0  0  1  0  0  3  0  0  0  0  0  0
  190.5180  169.3350  137.5230 C   0  0  0  0  0  2  0  0  0  0  0  0
  191.9130  170.9370  141.9180 N   0  0  0  0  0  0  0  0  0  0  0  0
  191.9780  170.4510  140.5720 C   0  0  0  0  0  0  0  0  0  0  0  0
  192.4220  171.6990  143.8800 C   0  0  0  0  0  0  0  0  0  0  0  0
  191.0850  171.5630  143.8950 N   0  0  0  0  0  0  0  0  0  0  0  0
  193.1760  172.1640  144.9930 N   0  0  0  0  0  1  0  0  0  0  0  0
  190.7980  171.0920  142.6640 C   0  0  0  0  0  3  0  0  0  0  0  0
  192.9570  171.3180  142.6720 C   0  0  0  0  0  3  0  0  0  0  0  0
  193.0990  170.3320  140.0020 O   0  0  0  0  0  0  0  0  0  0  0  0
  188.9900  175.6840  146.4240 C   0  0  0  0  0  2  0  0  0  0  0  0
  186.6450  178.2840  144.9560 C   0  0  0  0  0  3  0  0  0  0  0  0
  185.5020  178.1100  145.7420 C   0  0  0  0  0  0  0  0  0  0  0  0
  186.6410  176.3510  146.9790 C   0  0  0  0  0  3  0  0  0  0  0  0
  187.7800  177.4960  145.1760 C   0  0  0  0  0  3  0  0  0  0  0  0
  187.7770  176.5250  146.1840 C   0  0  0  0  0  0  0  0  0  0  0  0
  185.5060  177.1390  146.7590 C   0  0  0  0  0  3  0  0  0  0  0  0
  183.9840  179.2800  144.1770 C   0  0  0  0  0  1  0  0  0  0  0  0
  184.3820  178.9100  145.4900 O   0  0  0  0  0  0  0  0  0  0  0  0
  1  6  1  0  0  0  0
  1  8  2  0  0  0  0
  2 12  2  0  0  0  0
  3 10  1  0  0  0  0
  3 14  2  0  0  0  0
  4  8  1  0  0  0  0
  4 15  2  0  0  0  0
  5  1  1  0  0  0  0
  7  9  1  6  0  0  0
  7 11  1  0  0  0  0
  7  4  1  0  0  0  0
  9  5  2  0  0  0  0
 10 11  2  0  0  0  0
 11  2  1  0  0  0  0
 12 15  1  0  0  0  0
 13  2  1  0  0  0  0
 13 35  1  0  0  0  0
 14 13  1  0  0  0  0
 16 17  1  1  0  0  0
 16  3  1  0  0  0  0
 18 16  1  0  0  0  0
 19 18  1  0  0  0  0
 20 19  2  0  0  0  0
 21 19  1  0  0  0  0
 22 21  1  1  0  0  0
 22 25  1  0  0  0  0
 23 25  1  0  0  0  0
 24 22  1  0  0  0  0
 25 28  1  6  0  0  0
 26 24  1  0  0  0  0
 26 23  1  0  0  0  0
 27 32  1  0  0  0  0
 27 33  1  0  0  0  0
 28 27  1  0  0  0  0
 29 30  1  0  0  0  0
 29 31  1  0  0  0  0
 32 30  2  0  0  0  0
 33 29  2  0  0  0  0
 34 28  2  0  0  0  0
 36 39  2  0  0  0  0
 36 37  1  0  0  0  0
 37 41  2  0  0  0  0
 39 40  1  0  0  0  0
 40 35  1  0  0  0  0
 40 38  2  0  0  0  0
 41 38  1  0  0  0  0
 42 43  1  0  0  0  0
 43 37  1  0  0  0  0
M  END
>  <MODEL>
5

>  <REMARK>
 VINA RESULT:      -7.8      2.522      9.188
  Name = 
  8 active torsions:
  status: ('A' for Active; 'I' for Inactive)
    1  A    between atoms: C_1  and  N_34
    2  A    between atoms: C_1  and  C_35
    3  A    between atoms: C_2  and  N_6
    4  A    between atoms: C_2  and  C_13
    5  A    between atoms: O_3  and  C_4
    6  A    between atoms: O_3  and  C_12
    7  A    between atoms: C_14  and  C_22
    8  A    between atoms: C_19  and  O_37
                            x       y       z     vdW  Elec       q    Type
                         _______ _______ _______ _____ _____    ______ ____

>  <TORSDO>
F 8

$$$$
=
 OpenBabel11052421133D

 43 48  0  0  1  0  0  0  0  0999 V2000
  193.7650  175.6880  145.6260 C   0  0  0  0  0  0  0  0  0  0  0  0
  189.7550  176.8920  142.6950 C   0  0  0  0  0  0  0  0  0  0  0  0
  188.9000  174.5360  141.4180 C   0  0  0  0  0  0  0  0  0  0  0  0
  192.1270  176.8930  144.3070 C   0  0  0  0  0  0  0  0  0  0  0  0
  193.1740  174.4180  145.1480 C   0  0  0  0  0  3  0  0  0  0  0  0
  194.8330  175.6580  146.5130 O   0  0  0  0  0  1  0  0  0  0  0  0
  191.8970  175.6710  143.4430 C   0  0  1  0  0  3  0  0  0  0  0  0
  193.2490  176.8650  145.2530 C   0  0  0  0  0  3  0  0  0  0  0  0
  192.2630  174.4030  144.1680 C   0  0  0  0  0  3  0  0  0  0  0  0
  190.1210  174.5740  142.1810 N   0  0  0  0  0  0  0  0  0  0  0  0
  190.5370  175.6420  142.8000 C   0  0  0  0  0  0  0  0  0  0  0  0
  190.1570  177.9940  143.3480 C   0  0  0  0  0  3  0  0  0  0  0  0
  188.5490  176.8690  141.9110 N   0  0  0  0  0  0  0  0  0  0  0  0
  188.1510  175.6380  141.2860 C   0  0  0  0  0  3  0  0  0  0  0  0
  191.3550  177.9810  144.2070 C   0  0  0  0  0  3  0  0  0  0  0  0
  188.4480  173.2580  140.7810 C   0  0  2  0  0  3  0  0  0  0  0  0
  187.5230  172.5150  141.7270 C   0  0  0  0  0  1  0  0  0  0  0  0
  189.5940  172.4070  140.4710 N   0  0  0  0  0  2  0  0  0  0  0  0
  190.4700  172.6330  139.3620 C   0  0  0  0  0  0  0  0  0  0  0  0
  190.1810  173.4890  138.4840 O   0  0  0  0  0  0  0  0  0  0  0  0
  191.6490  171.8970  139.2420 O   0  0  0  0  0  0  0  0  0  0  0  0
  192.7090  172.3330  138.4010 C   0  0  2  0  0  3  0  0  0  0  0  0
  195.1360  172.1010  138.3740 C   0  0  0  0  0  2  0  0  0  0  0  0
  193.0770  171.2490  137.4140 C   0  0  0  0  0  2  0  0  0  0  0  0
  193.9640  172.5880  139.2140 C   0  0  1  0  0  3  0  0  0  0  0  0
  194.5490  171.4540  137.1300 C   0  0  0  0  0  2  0  0  0  0  0  0
  194.7700  174.4600  140.7380 N   0  0  0  0  0  0  0  0  0  0  0  0
  194.1180  174.0470  139.5310 C   0  0  0  0  0  0  0  0  0  0  0  0
  195.6410  175.6400  142.3320 C   0  0  0  0  0  0  0  0  0  0  0  0
  195.8390  174.3610  142.6960 N   0  0  0  0  0  0  0  0  0  0  0  0
  196.0800  176.7520  143.1010 N   0  0  0  0  0  1  0  0  0  0  0  0
  195.2860  173.6530  141.6900 C   0  0  0  0  0  3  0  0  0  0  0  0
  194.9850  175.7280  141.1270 C   0  0  0  0  0  3  0  0  0  0  0  0
  193.7050  174.9160  138.7130 O   0  0  0  0  0  0  0  0  0  0  0  0
  187.6800  178.0360  141.7890 C   0  0  0  0  0  2  0  0  0  0  0  0
  185.6670  177.1170  144.8750 C   0  0  0  0  0  3  0  0  0  0  0  0
  185.0590  178.3370  145.1890 C   0  0  0  0  0  0  0  0  0  0  0  0
  186.1620  179.3600  143.2760 C   0  0  0  0  0  3  0  0  0  0  0  0
  186.5200  177.0170  143.7690 C   0  0  0  0  0  3  0  0  0  0  0  0
  186.7730  178.1400  142.9730 C   0  0  0  0  0  0  0  0  0  0  0  0
  185.3090  179.4600  144.3820 C   0  0  0  0  0  3  0  0  0  0  0  0
  184.7020  178.2900  147.6370 C   0  0  0  0  0  1  0  0  0  0  0  0
  184.2180  178.4030  146.3050 O   0  0  0  0  0  0  0  0  0  0  0  0
  1  6  1  0  0  0  0
  2 11  1  0  0  0  0
  2 12  2  0  0  0  0
  3 10  1  0  0  0  0
  4  8  1  0  0  0  0
  5  1  1  0  0  0  0
  7  9  1  1  0  0  0
  7  4  1  0  0  0  0
  8  1  2  0  0  0  0
  9  5  2  0  0  0  0
 10 11  2  0  0  0  0
 11  7  1  0  0  0  0
 12 15  1  0  0  0  0
 13  2  1  0  0  0  0
 14  3  2  0  0  0  0
 14 13  1  0  0  0  0
 15  4  2  0  0  0  0
 16  3  1  0  0  0  0
 16 17  1  1  0  0  0
 18 16  1  0  0  0  0
 19 18  1  0  0  0  0
 20 19  2  0  0  0  0
 21 19  1  0  0  0  0
 22 25  1  0  0  0  0
 22 21  1  1  0  0  0
 23 25  1  0  0  0  0
 24 22  1  0  0  0  0
 25 28  1  6  0  0  0
 26 24  1  0  0  0  0
 26 23  1  0  0  0  0
 27 33  1  0  0  0  0
 27 32  1  0  0  0  0
 28 27  1  0  0  0  0
 29 30  1  0  0  0  0
 29 31  1  0  0  0  0
 32 30  2  0  0  0  0
 33 29  2  0  0  0  0
 34 28  2  0  0  0  0
 35 13  1  0  0  0  0
 35 40  1  0  0  0  0
 36 37  1  0  0  0  0
 37 43  1  0  0  0  0
 38 41  1  0  0  0  0
 39 36  2  0  0  0  0
 40 38  2  0  0  0  0
 40 39  1  0  0  0  0
 41 37  2  0  0  0  0
 43 42  1  0  0  0  0
M  END
>  <MODEL>
6

>  <REMARK>
 VINA RESULT:      -7.8      2.742      9.594
  Name = 
  8 active torsions:
  status: ('A' for Active; 'I' for Inactive)
    1  A    between atoms: C_1  and  N_34
    2  A    between atoms: C_1  and  C_35
    3  A    between atoms: C_2  and  N_6
    4  A    between atoms: C_2  and  C_13
    5  A    between atoms: O_3  and  C_4
    6  A    between atoms: O_3  and  C_12
    7  A    between atoms: C_14  and  C_22
    8  A    between atoms: C_19  and  O_37
                            x       y       z     vdW  Elec       q    Type
                         _______ _______ _______ _____ _____    ______ ____

>  <TORSDO>
F 8

$$$$
=
 OpenBabel11052421133D

 43 48  0  0  1  0  0  0  0  0999 V2000
  184.4260  178.5390  143.9110 C   0  0  0  0  0  0  0  0  0  0  0  0
  188.6050  175.8300  145.0600 C   0  0  0  0  0  0  0  0  0  0  0  0
  189.4060  174.4750  142.7280 C   0  0  0  0  0  0  0  0  0  0  0  0
  186.1710  177.3450  145.0980 C   0  0  0  0  0  0  0  0  0  0  0  0
  184.9790  178.0230  142.6380 C   0  0  0  0  0  3  0  0  0  0  0  0
  183.3220  179.3800  143.8900 O   0  0  0  0  0  1  0  0  0  0  0  0
  186.3810  176.4330  143.9070 C   0  0  1  0  0  3  0  0  0  0  0  0
  185.0100  178.2450  145.0780 C   0  0  0  0  0  3  0  0  0  0  0  0
  185.9290  177.0810  142.6260 C   0  0  0  0  0  3  0  0  0  0  0  0
  188.1570  175.1900  142.7880 N   0  0  0  0  0  0  0  0  0  0  0  0
  187.7640  175.8430  143.8440 C   0  0  0  0  0  0  0  0  0  0  0  0
  188.2270  176.5200  146.1480 C   0  0  0  0  0  3  0  0  0  0  0  0
  189.8410  175.0950  145.0160 N   0  0  0  0  0  0  0  0  0  0  0  0
  190.2090  174.4270  143.7990 C   0  0  0  0  0  3  0  0  0  0  0  0
  186.9950  177.3290  146.1510 C   0  0  0  0  0  3  0  0  0  0  0  0
  189.8250  173.7950  141.4610 C   0  0  2  0  0  3  0  0  0  0  0  0
  188.5990  173.4450  140.6390 C   0  0  0  0  0  1  0  0  0  0  0  0
  190.5640  172.5710  141.7570 N   0  0  0  0  0  2  0  0  0  0  0  0
  191.7320  172.1590  141.0410 C   0  0  0  0  0  0  0  0  0  0  0  0
  192.0780  172.7570  139.9860 O   0  0  0  0  0  0  0  0  0  0  0  0
  192.4930  171.0850  141.5030 O   0  0  0  0  0  0  0  0  0  0  0  0
  193.3990  171.2340  142.5880 C   0  0  2  0  0  3  0  0  0  0  0  0
  194.0860  173.0520  144.0610 C   0  0  0  0  0  2  0  0  0  0  0  0
  192.6710  171.0870  143.9050 C   0  0  0  0  0  2  0  0  0  0  0  0
  193.9880  172.6330  142.6010 C   0  0  1  0  0  3  0  0  0  0  0  0
  193.4420  171.9470  144.8820 C   0  0  0  0  0  2  0  0  0  0  0  0
  195.7200  173.7470  141.1070 N   0  0  0  0  0  0  0  0  0  0  0  0
  195.3430  172.6570  141.9560 C   0  0  0  0  0  0  0  0  0  0  0  0
  196.8140  175.0790  139.7960 C   0  0  0  0  0  0  0  0  0  0  0  0
  195.6180  175.6660  139.9700 N   0  0  0  0  0  0  0  0  0  0  0  0
  197.8560  175.6380  139.0050 N   0  0  0  0  0  1  0  0  0  0  0  0
  194.9600  174.8160  140.7850 C   0  0  0  0  0  3  0  0  0  0  0  0
  196.9030  173.8940  140.4890 C   0  0  0  0  0  3  0  0  0  0  0  0
  196.1690  171.7320  142.1940 O   0  0  0  0  0  0  0  0  0  0  0  0
  190.7660  175.0640  146.1450 C   0  0  0  0  0  2  0  0  0  0  0  0
  193.4960  176.7900  144.1500 C   0  0  0  0  0  3  0  0  0  0  0  0
  194.5940  176.6640  145.0060 C   0  0  0  0  0  0  0  0  0  0  0  0
  193.1900  175.4870  146.6080 C   0  0  0  0  0  3  0  0  0  0  0  0
  192.2500  176.2700  144.5190 C   0  0  0  0  0  3  0  0  0  0  0  0
  192.0940  175.6230  145.7500 C   0  0  0  0  0  0  0  0  0  0  0  0
  194.4360  176.0070  146.2400 C   0  0  0  0  0  3  0  0  0  0  0  0
  196.5440  176.7200  143.4830 C   0  0  0  0  0  1  0  0  0  0  0  0
  195.8240  177.2020  144.6100 O   0  0  0  0  0  0  0  0  0  0  0  0
  1  8  2  0  0  0  0
  2 12  2  0  0  0  0
  3 10  1  0  0  0  0
  3 14  2  0  0  0  0
  4 15  2  0  0  0  0
  5  1  1  0  0  0  0
  6  1  1  0  0  0  0
  7  9  1  6  0  0  0
  7  4  1  0  0  0  0
  8  4  1  0  0  0  0
  9  5  2  0  0  0  0
 10 11  2  0  0  0  0
 11  7  1  0  0  0  0
 11  2  1  0  0  0  0
 12 15  1  0  0  0  0
 13  2  1  0  0  0  0
 13 35  1  0  0  0  0
 14 13  1  0  0  0  0
 16 17  1  6  0  0  0
 16 18  1  0  0  0  0
 16  3  1  0  0  0  0
 19 21  1  0  0  0  0
 19 18  1  0  0  0  0
 20 19  2  0  0  0  0
 22 21  1  6  0  0  0
 22 25  1  0  0  0  0
 22 24  1  0  0  0  0
 23 26  1  0  0  0  0
 24 26  1  0  0  0  0
 25 28  1  1  0  0  0
 25 23  1  0  0  0  0
 27 28  1  0  0  0  0
 28 34  2  0  0  0  0
 29 30  1  0  0  0  0
 29 33  2  0  0  0  0
 30 32  2  0  0  0  0
 31 29  1  0  0  0  0
 32 27  1  0  0  0  0
 33 27  1  0  0  0  0
 36 39  2  0  0  0  0
 36 37  1  0  0  0  0
 37 41  2  0  0  0  0
 39 40  1  0  0  0  0
 40 35  1  0  0  0  0
 40 38  2  0  0  0  0
 41 38  1  0  0  0  0
 42 43  1  0  0  0  0
 43 37  1  0  0  0  0
M  END
>  <MODEL>
7

>  <REMARK>
 VINA RESULT:      -7.8      2.685      7.996
  Name = 
  8 active torsions:
  status: ('A' for Active; 'I' for Inactive)
    1  A    between atoms: C_1  and  N_34
    2  A    between atoms: C_1  and  C_35
    3  A    between atoms: C_2  and  N_6
    4  A    between atoms: C_2  and  C_13
    5  A    between atoms: O_3  and  C_4
    6  A    between atoms: O_3  and  C_12
    7  A    between atoms: C_14  and  C_22
    8  A    between atoms: C_19  and  O_37
                            x       y       z     vdW  Elec       q    Type
                         _______ _______ _______ _____ _____    ______ ____

>  <TORSDO>
F 8

$$$$
=
 OpenBabel11052421133D

 43 48  0  0  1  0  0  0  0  0999 V2000
  186.2560  178.8810  143.5670 C   0  0  0  0  0  0  0  0  0  0  0  0
  188.2350  174.8700  141.0930 C   0  0  0  0  0  0  0  0  0  0  0  0
  189.5960  173.2940  142.9850 C   0  0  0  0  0  0  0  0  0  0  0  0
  187.1010  177.3930  141.8500 C   0  0  0  0  0  0  0  0  0  0  0  0
  186.7610  177.9380  144.5920 C   0  0  0  0  0  3  0  0  0  0  0  0
  185.5930  180.0340  143.9620 O   0  0  0  0  0  1  0  0  0  0  0  0
  188.0430  176.7490  142.8450 C   0  0  0  0  0  0  0  0  0  0  0  0
  186.3880  178.6080  142.2640 C   0  0  0  0  0  2  0  0  0  0  0  0
  187.5500  176.9100  144.2590 C   0  0  0  0  0  3  0  0  0  0  0  0
  189.0730  174.5910  143.3280 N   0  0  0  0  0  0  0  0  0  0  0  0
  188.4220  175.3390  142.4830 C   0  0  0  0  0  0  0  0  0  0  0  0
  187.5440  175.6170  140.2180 C   0  0  0  0  0  3  0  0  0  0  0  0
  188.7790  173.5870  140.7370 N   0  0  0  0  0  0  0  0  0  0  0  0
  189.4580  172.8160  141.7420 C   0  0  0  0  0  3  0  0  0  0  0  0
  186.9290  176.8950  140.6210 C   0  0  0  0  0  3  0  0  0  0  0  0
  190.2820  172.4590  144.0230 C   0  0  2  0  0  3  0  0  0  0  0  0
  189.3760  172.2960  145.2280 C   0  0  0  0  0  1  0  0  0  0  0  0
  191.5280  173.0920  144.4470 N   0  0  0  0  0  2  0  0  0  0  0  0
  192.7830  172.4060  144.5070 C   0  0  0  0  0  0  0  0  0  0  0  0
  192.8340  171.1550  144.3620 O   0  0  0  0  0  0  0  0  0  0  0  0
  193.9600  173.1200  144.7330 O   0  0  0  0  0  0  0  0  0  0  0  0
  194.3160  174.2320  143.9230 C   0  0  2  0  0  3  0  0  0  0  0  0
  195.4760  176.3510  144.2650 C   0  0  0  0  0  2  0  0  0  0  0  0
  195.7360  174.0880  143.4270 C   0  0  0  0  0  2  0  0  0  0  0  0
  194.2970  175.5120  144.7390 C   0  0  1  0  0  3  0  0  0  0  0  0
  196.2460  175.5040  143.2640 C   0  0  0  0  0  2  0  0  0  0  0  0
  192.0920  176.4150  145.6330 N   0  0  0  0  0  0  0  0  0  0  0  0
  193.0100  176.2600  144.5440 C   0  0  0  0  0  0  0  0  0  0  0  0
  190.3920  176.9650  146.8560 C   0  0  0  0  0  0  0  0  0  0  0  0
  191.1970  176.2640  147.6730 N   0  0  0  0  0  0  0  0  0  0  0  0
  189.1560  177.5330  147.2700 N   0  0  0  0  0  1  0  0  0  0  0  0
  192.2410  175.9340  146.8850 C   0  0  0  0  0  3  0  0  0  0  0  0
  190.9220  177.0740  145.5920 C   0  0  0  0  0  3  0  0  0  0  0  0
  192.7530  176.7900  143.4270 O   0  0  0  0  0  0  0  0  0  0  0  0
  188.6020  173.0110  139.4070 C   0  0  0  0  0  2  0  0  0  0  0  0
  192.0030  173.8860  137.9630 C   0  0  0  0  0  3  0  0  0  0  0  0
  191.6510  174.4450  136.7300 C   0  0  0  0  0  0  0  0  0  0  0  0
  189.3030  174.0700  137.2480 C   0  0  0  0  0  3  0  0  0  0  0  0
  191.0120  173.4200  138.8350 C   0  0  0  0  0  3  0  0  0  0  0  0
  189.6620  173.5060  138.4760 C   0  0  0  0  0  0  0  0  0  0  0  0
  190.2940  174.5360  136.3760 C   0  0  0  0  0  3  0  0  0  0  0  0
  193.0830  176.2530  135.8330 C   0  0  0  0  0  1  0  0  0  0  0  0
  192.6670  174.8940  135.8790 O   0  0  0  0  0  0  0  0  0  0  0  0
  1  6  1  0  0  0  0
  1  5  2  0  0  0  0
  2 11  1  0  0  0  0
  3 10  1  0  0  0  0
  3 16  1  0  0  0  0
  4  8  1  0  0  0  0
  4  7  1  0  0  0  0
  7  9  2  0  0  0  0
  8  1  1  0  0  0  0
  9  5  1  0  0  0  0
 11  7  1  0  0  0  0
 11 10  2  0  0  0  0
 12 15  1  0  0  0  0
 12  2  2  0  0  0  0
 13  2  1  0  0  0  0
 13 14  1  0  0  0  0
 14  3  2  0  0  0  0
 15  4  2  0  0  0  0
 16 18  1  0  0  0  0
 16 17  1  1  0  0  0
 18 19  1  0  0  0  0
 19 21  1  0  0  0  0
 20 19  2  0  0  0  0
 22 21  1  1  0  0  0
 22 25  1  0  0  0  0
 23 25  1  0  0  0  0
 24 22  1  0  0  0  0
 25 28  1  6  0  0  0
 26 24  1  0  0  0  0
 26 23  1  0  0  0  0
 27 32  1  0  0  0  0
 28 27  1  0  0  0  0
 29 31  1  0  0  0  0
 29 30  1  0  0  0  0
 32 30  2  0  0  0  0
 33 27  1  0  0  0  0
 33 29  2  0  0  0  0
 34 28  2  0  0  0  0
 35 13  1  0  0  0  0
 36 39  1  0  0  0  0
 37 36  2  0  0  0  0
 38 40  1  0  0  0  0
 40 39  2  0  0  0  0
 40 35  1  0  0  0  0
 41 37  1  0  0  0  0
 41 38  2  0  0  0  0
 42 43  1  0  0  0  0
 43 37  1  0  0  0  0
M  END
>  <MODEL>
8

>  <REMARK>
 VINA RESULT:      -7.7      2.707      7.849
  Name = 
  8 active torsions:
  status: ('A' for Active; 'I' for Inactive)
    1  A    between atoms: C_1  and  N_34
    2  A    between atoms: C_1  and  C_35
    3  A    between atoms: C_2  and  N_6
    4  A    between atoms: C_2  and  C_13
    5  A    between atoms: O_3  and  C_4
    6  A    between atoms: O_3  and  C_12
    7  A    between atoms: C_14  and  C_22
    8  A    between atoms: C_19  and  O_37
                            x       y       z     vdW  Elec       q    Type
                         _______ _______ _______ _____ _____    ______ ____

>  <TORSDO>
F 8

$$$$
=
 OpenBabel11052421133D

 43 48  0  0  1  0  0  0  0  0999 V2000
  197.0120  175.4620  140.3040 C   0  0  0  0  0  0  0  0  0  0  0  0
  193.7970  174.7730  144.2170 C   0  0  0  0  0  0  0  0  0  0  0  0
  192.7480  172.1710  144.0050 C   0  0  0  0  0  0  0  0  0  0  0  0
  195.4990  175.8250  142.1640 C   0  0  0  0  0  0  0  0  0  0  0  0
  196.6490  174.0260  140.3270 C   0  0  0  0  0  3  0  0  0  0  0  0
  197.9410  175.9210  139.3810 O   0  0  0  0  0  1  0  0  0  0  0  0
  194.7650  174.5410  141.8410 C   0  0  0  0  0  0  0  0  0  0  0  0
  196.4910  176.3120  141.1960 C   0  0  0  0  0  2  0  0  0  0  0  0
  195.6390  173.5780  141.0810 C   0  0  0  0  0  3  0  0  0  0  0  0
  193.5540  172.7410  142.9570 N   0  0  0  0  0  0  0  0  0  0  0  0
  194.0710  173.9350  143.0300 C   0  0  0  0  0  0  0  0  0  0  0  0
  194.3430  175.9950  144.3190 C   0  0  0  0  0  3  0  0  0  0  0  0
  192.9690  174.2190  145.2550 N   0  0  0  0  0  0  0  0  0  0  0  0
  192.4650  172.8820  145.1030 C   0  0  0  0  0  3  0  0  0  0  0  0
  195.2490  176.5170  143.2800 C   0  0  0  0  0  3  0  0  0  0  0  0
  192.2350  170.7690  143.8830 C   0  0  2  0  0  3  0  0  0  0  0  0
  193.3000  169.7930  144.3500 C   0  0  0  0  0  1  0  0  0  0  0  0
  191.8910  170.4680  142.4970 N   0  0  0  0  0  2  0  0  0  0  0  0
  190.6330  170.8040  141.9030 C   0  0  0  0  0  0  0  0  0  0  0  0
  189.6820  171.2250  142.6170 O   0  0  0  0  0  0  0  0  0  0  0  0
  190.4480  170.6610  140.5280 O   0  0  0  0  0  0  0  0  0  0  0  0
  190.8380  171.6830  139.6200 C   0  0  2  0  0  3  0  0  0  0  0  0
  192.0390  173.8000  139.7740 C   0  0  0  0  0  2  0  0  0  0  0  0
  192.2620  171.4630  139.1610 C   0  0  0  0  0  2  0  0  0  0  0  0
  190.8360  173.0360  140.3080 C   0  0  1  0  0  3  0  0  0  0  0  0
  192.8040  172.8460  138.8710 C   0  0  0  0  0  2  0  0  0  0  0  0
  188.9400  174.5620  141.0500 N   0  0  0  0  0  0  0  0  0  0  0  0
  189.5690  173.7870  140.0220 C   0  0  0  0  0  0  0  0  0  0  0  0
  187.5990  175.8590  142.1500 C   0  0  0  0  0  0  0  0  0  0  0  0
  188.5480  175.5080  143.0340 N   0  0  0  0  0  0  0  0  0  0  0  0
  186.5170  176.7290  142.4610 N   0  0  0  0  0  1  0  0  0  0  0  0
  189.3640  174.7010  142.3250 C   0  0  0  0  0  3  0  0  0  0  0  0
  187.8190  175.2900  140.9170 C   0  0  0  0  0  3  0  0  0  0  0  0
  189.0740  173.7680  138.8600 O   0  0  0  0  0  0  0  0  0  0  0  0
  192.6830  174.9450  146.4890 C   0  0  0  0  0  2  0  0  0  0  0  0
  189.8550  177.3690  145.7540 C   0  0  0  0  0  3  0  0  0  0  0  0
  188.7650  176.7170  146.3380 C   0  0  0  0  0  0  0  0  0  0  0  0
  190.2380  174.9060  147.0250 C   0  0  0  0  0  3  0  0  0  0  0  0
  191.1310  176.7950  145.8020 C   0  0  0  0  0  3  0  0  0  0  0  0
  191.3220  175.5600  146.4330 C   0  0  0  0  0  0  0  0  0  0  0  0
  188.9620  175.4810  146.9770 C   0  0  0  0  0  3  0  0  0  0  0  0
  186.4230  176.9360  147.1070 C   0  0  0  0  0  1  0  0  0  0  0  0
  187.5020  177.3170  146.2650 O   0  0  0  0  0  0  0  0  0  0  0  0
  1  5  2  0  0  0  0
  1  8  1  0  0  0  0
  2 12  2  0  0  0  0
  2 13  1  0  0  0  0
  3 14  2  0  0  0  0
  4 15  2  0  0  0  0
  5  9  1  0  0  0  0
  6  1  1  0  0  0  0
  7  4  1  0  0  0  0
  7 11  1  0  0  0  0
  8  4  1  0  0  0  0
  9  7  2  0  0  0  0
 10 11  2  0  0  0  0
 10  3  1  0  0  0  0
 11  2  1  0  0  0  0
 13 35  1  0  0  0  0
 14 13  1  0  0  0  0
 15 12  1  0  0  0  0
 16  3  1  0  0  0  0
 16 17  1  6  0  0  0
 18 16  1  0  0  0  0
 19 18  1  0  0  0  0
 19 20  2  0  0  0  0
 21 19  1  0  0  0  0
 22 25  1  0  0  0  0
 22 21  1  1  0  0  0
 23 25  1  0  0  0  0
 24 22  1  0  0  0  0
 25 28  1  6  0  0  0
 26 24  1  0  0  0  0
 26 23  1  0  0  0  0
 27 32  1  0  0  0  0
 28 27  1  0  0  0  0
 29 31  1  0  0  0  0
 29 30  1  0  0  0  0
 32 30  2  0  0  0  0
 33 27  1  0  0  0  0
 33 29  2  0  0  0  0
 34 28  2  0  0  0  0
 36 39  2  0  0  0  0
 36 37  1  0  0  0  0
 37 41  2  0  0  0  0
 39 40  1  0  0  0  0
 40 35  1  0  0  0  0
 40 38  2  0  0  0  0
 41 38  1  0  0  0  0
 43 37  1  0  0  0  0
 43 42  1  0  0  0  0
M  END
>  <MODEL>
9

>  <REMARK>
 VINA RESULT:      -7.7      2.652      7.303
  Name = 
  8 active torsions:
  status: ('A' for Active; 'I' for Inactive)
    1  A    between atoms: C_1  and  N_34
    2  A    between atoms: C_1  and  C_35
    3  A    between atoms: C_2  and  N_6
    4  A    between atoms: C_2  and  C_13
    5  A    between atoms: O_3  and  C_4
    6  A    between atoms: O_3  and  C_12
    7  A    between atoms: C_14  and  C_22
    8  A    between atoms: C_19  and  O_37
                            x       y       z     vdW  Elec       q    Type
                         _______ _______ _______ _____ _____    ______ ____

>  <TORSDO>
F 8

$$$$
