=
 OpenBabel11052418283D

 27 31  0  0  1  0  0  0  0  0999 V2000
  187.2780  176.9880  142.3620 N   0  0  0  0  0  2  0  0  0  0  0  0
  188.6660  176.5040  144.2820 C   0  0  0  0  0  0  0  0  0  0  0  0
  189.3420  174.7920  142.6030 N   0  0  0  0  0  2  0  0  0  0  0  0
  192.4240  176.3540  146.0530 C   0  0  0  0  0  3  0  0  0  0  0  0
  193.4060  175.4850  145.5710 C   0  0  0  0  0  0  0  0  0  0  0  0
  189.0020  177.2820  145.3500 N   0  0  0  0  0  0  0  0  0  0  0  0
  191.8800  174.6970  143.8620 C   0  0  0  0  0  3  0  0  0  0  0  0
  188.2030  174.4860  139.0850 C   0  0  0  0  0  0  0  0  0  0  0  0
  193.1340  174.6580  144.4770 C   0  0  0  0  0  3  0  0  0  0  0  0
  188.5170  173.4310  137.7240 Cl  0  0  0  0  0  0  0  0  0  0  0  0
  190.8850  175.5650  144.3410 C   0  0  0  0  0  0  0  0  0  0  0  0
  187.2720  176.5260  143.7360 C   0  0  1  0  0  3  0  0  0  0  0  0
  194.9780  175.4330  146.3370 Cl  0  0  0  0  0  0  0  0  0  0  0  0
  191.1680  176.3960  145.4430 C   0  0  0  0  0  0  0  0  0  0  0  0
  187.6920  176.1670  141.2710 C   0  0  0  0  0  0  0  0  0  0  0  0
  189.6230  175.6350  143.7330 C   0  0  0  0  0  0  0  0  0  0  0  0
  188.7990  174.2280  140.3200 C   0  0  0  0  0  3  0  0  0  0  0  0
  190.2110  177.2350  145.9080 N   0  0  0  0  0  0  0  0  0  0  0  0
  187.3800  175.5990  138.9300 C   0  0  0  0  0  3  0  0  0  0  0  0
  187.1240  176.4300  140.0190 C   0  0  0  0  0  3  0  0  0  0  0  0
  188.5680  175.0610  141.4220 C   0  0  0  0  0  0  0  0  0  0  0  0
  184.4820  178.8510  146.0430 C   0  0  0  0  0  3  0  0  0  0  0  0
  186.3080  177.3300  144.5600 C   0  0  0  0  0  0  0  0  0  0  0  0
  186.0370  178.6530  144.1970 C   0  0  0  0  0  3  0  0  0  0  0  0
  185.1270  179.4140  144.9380 C   0  0  0  0  0  3  0  0  0  0  0  0
  184.7440  177.5270  146.4070 C   0  0  0  0  0  3  0  0  0  0  0  0
  185.6530  176.7660  145.6670 C   0  0  0  0  0  3  0  0  0  0  0  0
  1 12  1  0  0  0  0
  2  6  1  0  0  0  0
  3 16  1  0  0  0  0
  5  4  1  0  0  0  0
  5 13  1  0  0  0  0
  6 18  2  0  0  0  0
  7 11  2  0  0  0  0
  7  9  1  0  0  0  0
  8 17  1  0  0  0  0
  9  5  2  0  0  0  0
 10  8  1  0  0  0  0
 11 14  1  0  0  0  0
 12  2  1  0  0  0  0
 12 23  1  1  0  0  0
 14 18  1  0  0  0  0
 14  4  2  0  0  0  0
 15 21  1  0  0  0  0
 15  1  1  0  0  0  0
 16  2  2  0  0  0  0
 16 11  1  0  0  0  0
 17 21  2  0  0  0  0
 19  8  2  0  0  0  0
 19 20  1  0  0  0  0
 20 15  2  0  0  0  0
 21  3  1  0  0  0  0
 22 26  1  0  0  0  0
 23 27  1  0  0  0  0
 24 23  2  0  0  0  0
 24 25  1  0  0  0  0
 25 22  2  0  0  0  0
 27 26  2  0  0  0  0
M  END
>  <MODEL>
1

>  <REMARK>
 VINA RESULT:      -8.2      0.000      0.000
  Name = 
  1 active torsions:
  status: ('A' for Active; 'I' for Inactive)
    1  A    between atoms: C_9  and  C_15
                            x       y       z     vdW  Elec       q    Type
                         _______ _______ _______ _____ _____    ______ ____

>  <TORSDO>
F 1

$$$$
=
 OpenBabel11052418283D

 27 31  0  0  1  0  0  0  0  0999 V2000
  188.7840  176.5730  145.8590 N   0  0  0  0  0  2  0  0  0  0  0  0
  188.2200  176.0450  143.5680 C   0  0  0  0  0  0  0  0  0  0  0  0
  190.7110  176.0550  143.5880 N   0  0  0  0  0  2  0  0  0  0  0  0
  188.1870  173.3470  140.4060 C   0  0  0  0  0  3  0  0  0  0  0  0
  189.3810  172.8930  139.8410 C   0  0  0  0  0  0  0  0  0  0  0  0
  187.0640  175.5650  143.0290 N   0  0  0  0  0  0  0  0  0  0  0  0
  190.6420  174.2430  141.4100 C   0  0  0  0  0  3  0  0  0  0  0  0
  192.9580  176.4820  146.5100 C   0  0  0  0  0  0  0  0  0  0  0  0
  190.6080  173.3410  140.3430 C   0  0  0  0  0  3  0  0  0  0  0  0
  194.6830  176.5110  146.8060 Cl  0  0  0  0  0  0  0  0  0  0  0  0
  189.4470  174.7060  141.9820 C   0  0  0  0  0  0  0  0  0  0  0  0
  188.1810  177.0840  144.6440 C   0  0  1  0  0  3  0  0  0  0  0  0
  189.3430  171.7640  138.5060 Cl  0  0  0  0  0  0  0  0  0  0  0  0
  188.2160  174.2500  141.4720 C   0  0  0  0  0  0  0  0  0  0  0  0
  190.1950  176.4480  146.0310 C   0  0  0  0  0  0  0  0  0  0  0  0
  189.4530  175.6000  143.0640 C   0  0  0  0  0  0  0  0  0  0  0  0
  192.4760  176.3610  145.2060 C   0  0  0  0  0  3  0  0  0  0  0  0
  187.0600  174.6940  142.0210 N   0  0  0  0  0  0  0  0  0  0  0  0
  192.0650  176.5530  147.5770 C   0  0  0  0  0  3  0  0  0  0  0  0
  190.6920  176.5410  147.3360 C   0  0  0  0  0  3  0  0  0  0  0  0
  191.1000  176.3290  144.9450 C   0  0  0  0  0  0  0  0  0  0  0  0
  184.2570  178.6260  145.5030 C   0  0  0  0  0  3  0  0  0  0  0  0
  186.8080  177.6230  144.9210 C   0  0  0  0  0  0  0  0  0  0  0  0
  186.0420  177.0490  145.9410 C   0  0  0  0  0  3  0  0  0  0  0  0
  184.7680  177.5480  146.2300 C   0  0  0  0  0  3  0  0  0  0  0  0
  185.0200  179.2080  144.4860 C   0  0  0  0  0  3  0  0  0  0  0  0
  186.2940  178.7110  144.1970 C   0  0  0  0  0  3  0  0  0  0  0  0
  1 15  1  0  0  0  0
  2 12  1  0  0  0  0
  3 21  1  0  0  0  0
  4 14  1  0  0  0  0
  5  9  1  0  0  0  0
  5  4  2  0  0  0  0
  6  2  2  0  0  0  0
  7 11  1  0  0  0  0
  8 10  1  0  0  0  0
  8 19  1  0  0  0  0
  9  7  2  0  0  0  0
 11 16  2  0  0  0  0
 12 23  1  1  0  0  0
 12  1  1  0  0  0  0
 13  5  1  0  0  0  0
 14 11  1  0  0  0  0
 14 18  2  0  0  0  0
 15 20  1  0  0  0  0
 16  2  1  0  0  0  0
 16  3  1  0  0  0  0
 17  8  2  0  0  0  0
 18  6  1  0  0  0  0
 20 19  2  0  0  0  0
 21 17  1  0  0  0  0
 21 15  2  0  0  0  0
 22 25  1  0  0  0  0
 23 24  1  0  0  0  0
 24 25  2  0  0  0  0
 26 22  2  0  0  0  0
 27 26  1  0  0  0  0
 27 23  2  0  0  0  0
M  END
>  <MODEL>
2

>  <REMARK>
 VINA RESULT:      -8.2      1.446      5.609
  Name = 
  1 active torsions:
  status: ('A' for Active; 'I' for Inactive)
    1  A    between atoms: C_9  and  C_15
                            x       y       z     vdW  Elec       q    Type
                         _______ _______ _______ _____ _____    ______ ____

>  <TORSDO>
F 1

$$$$
=
 OpenBabel11052418283D

 27 31  0  0  1  0  0  0  0  0999 V2000
  191.0510  174.2150  143.2830 N   0  0  0  0  0  2  0  0  0  0  0  0
  190.0230  175.9780  144.5790 C   0  0  0  0  0  0  0  0  0  0  0  0
  188.6740  175.9040  142.4860 N   0  0  0  0  0  2  0  0  0  0  0  0
  186.7670  177.4420  146.7090 C   0  0  0  0  0  3  0  0  0  0  0  0
  185.5480  177.6870  146.0720 C   0  0  0  0  0  0  0  0  0  0  0  0
  190.0840  176.2460  145.9150 N   0  0  0  0  0  0  0  0  0  0  0  0
  186.4900  176.9360  143.9690 C   0  0  0  0  0  3  0  0  0  0  0  0
  188.9690  173.4990  139.6760 C   0  0  0  0  0  0  0  0  0  0  0  0
  185.4100  177.4340  144.7030 C   0  0  0  0  0  3  0  0  0  0  0  0
  188.1680  173.2120  138.1470 Cl  0  0  0  0  0  0  0  0  0  0  0  0
  187.7190  176.6880  144.6000 C   0  0  0  0  0  0  0  0  0  0  0  0
  191.2470  175.5400  143.8370 C   0  0  1  0  0  3  0  0  0  0  0  0
  184.1940  178.3110  146.9860 Cl  0  0  0  0  0  0  0  0  0  0  0  0
  187.8500  176.9450  145.9790 C   0  0  0  0  0  0  0  0  0  0  0  0
  190.2590  173.9700  142.1220 C   0  0  0  0  0  0  0  0  0  0  0  0
  188.8150  176.1730  143.8910 C   0  0  0  0  0  0  0  0  0  0  0  0
  188.6030  174.5930  140.4610 C   0  0  0  0  0  3  0  0  0  0  0  0
  189.0340  176.7070  146.5930 N   0  0  0  0  0  0  0  0  0  0  0  0
  189.9540  172.6210  140.1240 C   0  0  0  0  0  3  0  0  0  0  0  0
  190.5970  172.8600  141.3380 C   0  0  0  0  0  3  0  0  0  0  0  0
  189.2250  174.8400  141.6910 C   0  0  0  0  0  0  0  0  0  0  0  0
  194.8760  175.6330  146.1460 C   0  0  0  0  0  3  0  0  0  0  0  0
  192.5060  175.5910  144.6530 C   0  0  0  0  0  0  0  0  0  0  0  0
  193.0090  174.4090  145.2060 C   0  0  0  0  0  3  0  0  0  0  0  0
  194.1920  174.4300  145.9540 C   0  0  0  0  0  3  0  0  0  0  0  0
  194.3810  176.8170  145.5910 C   0  0  0  0  0  3  0  0  0  0  0  0
  193.2000  176.7970  144.8440 C   0  0  0  0  0  3  0  0  0  0  0  0
  1 12  1  0  0  0  0
  2  6  1  0  0  0  0
  3 16  1  0  0  0  0
  5  4  1  0  0  0  0
  5 13  1  0  0  0  0
  6 18  2  0  0  0  0
  7 11  2  0  0  0  0
  7  9  1  0  0  0  0
  8 19  2  0  0  0  0
  8 17  1  0  0  0  0
  9  5  2  0  0  0  0
 10  8  1  0  0  0  0
 11 14  1  0  0  0  0
 12  2  1  0  0  0  0
 12 23  1  1  0  0  0
 14 18  1  0  0  0  0
 14  4  2  0  0  0  0
 15  1  1  0  0  0  0
 16  2  2  0  0  0  0
 16 11  1  0  0  0  0
 17 21  2  0  0  0  0
 19 20  1  0  0  0  0
 20 15  2  0  0  0  0
 21 15  1  0  0  0  0
 21  3  1  0  0  0  0
 23 27  2  0  0  0  0
 23 24  1  0  0  0  0
 24 25  2  0  0  0  0
 25 22  1  0  0  0  0
 26 22  2  0  0  0  0
 27 26  1  0  0  0  0
M  END
>  <MODEL>
3

>  <REMARK>
 VINA RESULT:      -8.0      2.528      5.915
  Name = 
  1 active torsions:
  status: ('A' for Active; 'I' for Inactive)
    1  A    between atoms: C_9  and  C_15
                            x       y       z     vdW  Elec       q    Type
                         _______ _______ _______ _____ _____    ______ ____

>  <TORSDO>
F 1

$$$$
=
 OpenBabel11052418283D

 27 31  0  0  1  0  0  0  0  0999 V2000
  187.9930  175.6090  140.9670 N   0  0  0  0  0  2  0  0  0  0  0  0
  189.0160  175.8720  143.1420 C   0  0  0  0  0  0  0  0  0  0  0  0
  189.8580  173.6670  142.3440 N   0  0  0  0  0  2  0  0  0  0  0  0
  192.4160  176.4060  145.4740 C   0  0  0  0  0  3  0  0  0  0  0  0
  193.4120  175.4270  145.5190 C   0  0  0  0  0  0  0  0  0  0  0  0
  189.2170  176.9900  143.8960 N   0  0  0  0  0  0  0  0  0  0  0  0
  192.1440  174.0570  143.9740 C   0  0  0  0  0  3  0  0  0  0  0  0
  189.2970  172.0830  139.0360 C   0  0  0  0  0  0  0  0  0  0  0  0
  193.2760  174.2530  144.7700 C   0  0  0  0  0  3  0  0  0  0  0  0
  189.7680  170.6040  138.2280 Cl  0  0  0  0  0  0  0  0  0  0  0  0
  191.1370  175.0330  143.9240 C   0  0  0  0  0  0  0  0  0  0  0  0
  187.7350  175.6840  142.3920 C   0  0  1  0  0  3  0  0  0  0  0  0
  194.8310  175.6690  146.5130 Cl  0  0  0  0  0  0  0  0  0  0  0  0
  191.2820  176.2130  144.6800 C   0  0  0  0  0  0  0  0  0  0  0  0
  188.5330  174.4470  140.3380 C   0  0  0  0  0  0  0  0  0  0  0  0
  189.9970  174.8680  143.1210 C   0  0  0  0  0  0  0  0  0  0  0  0
  189.6650  172.3000  140.3640 C   0  0  0  0  0  3  0  0  0  0  0  0
  190.3130  177.1590  144.6350 N   0  0  0  0  0  0  0  0  0  0  0  0
  188.5760  173.0560  138.3460 C   0  0  0  0  0  3  0  0  0  0  0  0
  188.1940  174.2280  138.9980 C   0  0  0  0  0  3  0  0  0  0  0  0
  189.3050  173.4790  141.0300 C   0  0  0  0  0  0  0  0  0  0  0  0
  184.7340  178.6660  143.1770 C   0  0  0  0  0  3  0  0  0  0  0  0
  186.6970  176.7280  142.6860 C   0  0  0  0  0  0  0  0  0  0  0  0
  186.3650  177.6590  141.6970 C   0  0  0  0  0  3  0  0  0  0  0  0
  185.3870  178.6280  141.9420 C   0  0  0  0  0  3  0  0  0  0  0  0
  185.0580  177.7340  144.1680 C   0  0  0  0  0  3  0  0  0  0  0  0
  186.0350  176.7650  143.9240 C   0  0  0  0  0  3  0  0  0  0  0  0
  1 12  1  0  0  0  0
  2  6  1  0  0  0  0
  3 16  1  0  0  0  0
  4  5  1  0  0  0  0
  5 13  1  0  0  0  0
  6 18  2  0  0  0  0
  7  9  1  0  0  0  0
  8 17  1  0  0  0  0
  9  5  2  0  0  0  0
 10  8  1  0  0  0  0
 11  7  2  0  0  0  0
 11 14  1  0  0  0  0
 12 23  1  6  0  0  0
 12  2  1  0  0  0  0
 14  4  2  0  0  0  0
 15  1  1  0  0  0  0
 15 21  1  0  0  0  0
 16  2  2  0  0  0  0
 16 11  1  0  0  0  0
 17 21  2  0  0  0  0
 18 14  1  0  0  0  0
 19 20  1  0  0  0  0
 19  8  2  0  0  0  0
 20 15  2  0  0  0  0
 21  3  1  0  0  0  0
 22 26  1  0  0  0  0
 23 27  1  0  0  0  0
 24 25  1  0  0  0  0
 24 23  2  0  0  0  0
 25 22  2  0  0  0  0
 27 26  2  0  0  0  0
M  END
>  <MODEL>
4

>  <REMARK>
 VINA RESULT:      -7.4      1.454      1.923
  Name = 
  1 active torsions:
  status: ('A' for Active; 'I' for Inactive)
    1  A    between atoms: C_9  and  C_15
                            x       y       z     vdW  Elec       q    Type
                         _______ _______ _______ _____ _____    ______ ____

>  <TORSDO>
F 1

$$$$
=
 OpenBabel11052418283D

 27 31  0  0  1  0  0  0  0  0999 V2000
  188.2210  177.5970  144.8080 N   0  0  0  0  0  2  0  0  0  0  0  0
  189.2930  175.6570  143.8420 C   0  0  0  0  0  0  0  0  0  0  0  0
  187.0700  175.7370  142.7220 N   0  0  0  0  0  2  0  0  0  0  0  0
  190.9600  173.7370  140.5530 C   0  0  0  0  0  3  0  0  0  0  0  0
  190.1780  173.4160  139.4410 C   0  0  0  0  0  0  0  0  0  0  0  0
  190.6100  175.3080  143.7890 N   0  0  0  0  0  0  0  0  0  0  0  0
  188.2390  174.3960  140.5150 C   0  0  0  0  0  3  0  0  0  0  0  0
  184.4490  178.3430  143.0550 C   0  0  0  0  0  0  0  0  0  0  0  0
  188.8180  173.7450  139.4230 C   0  0  0  0  0  3  0  0  0  0  0  0
  182.8580  178.6510  142.3940 Cl  0  0  0  0  0  0  0  0  0  0  0  0
  189.0170  174.7220  141.6370 C   0  0  0  0  0  0  0  0  0  0  0  0
  188.7190  176.2640  145.0840 C   0  0  1  0  0  3  0  0  0  0  0  0
  190.8980  172.6000  138.0720 Cl  0  0  0  0  0  0  0  0  0  0  0  0
  190.3850  174.3880  141.6480 C   0  0  0  0  0  0  0  0  0  0  0  0
  186.9940  177.8390  144.1210 C   0  0  0  0  0  0  0  0  0  0  0  0
  188.4640  175.3900  142.7410 C   0  0  0  0  0  0  0  0  0  0  0  0
  185.1260  177.1670  142.7260 C   0  0  0  0  0  3  0  0  0  0  0  0
  191.1400  174.7000  142.7290 N   0  0  0  0  0  0  0  0  0  0  0  0
  185.0530  179.2820  143.8880 C   0  0  0  0  0  3  0  0  0  0  0  0
  186.3160  179.0270  144.4200 C   0  0  0  0  0  3  0  0  0  0  0  0
  186.4020  176.9010  143.2370 C   0  0  0  0  0  0  0  0  0  0  0  0
  191.3960  176.3600  148.4510 C   0  0  0  0  0  3  0  0  0  0  0  0
  189.6670  176.2830  146.2480 C   0  0  0  0  0  0  0  0  0  0  0  0
  189.9600  177.5010  146.8690 C   0  0  0  0  0  3  0  0  0  0  0  0
  190.8240  177.5410  147.9680 C   0  0  0  0  0  3  0  0  0  0  0  0
  191.1020  175.1390  147.8370 C   0  0  0  0  0  3  0  0  0  0  0  0
  190.2380  175.0980  146.7390 C   0  0  0  0  0  3  0  0  0  0  0  0
  1 12  1  0  0  0  0
  2 12  1  0  0  0  0
  3 16  1  0  0  0  0
  3 21  1  0  0  0  0
  4 14  1  0  0  0  0
  5  4  2  0  0  0  0
  6  2  1  0  0  0  0
  7 11  1  0  0  0  0
  8 19  1  0  0  0  0
  9  5  1  0  0  0  0
  9  7  2  0  0  0  0
 10  8  1  0  0  0  0
 11 14  2  0  0  0  0
 11 16  1  0  0  0  0
 12 23  1  1  0  0  0
 13  5  1  0  0  0  0
 14 18  1  0  0  0  0
 15 20  1  0  0  0  0
 15  1  1  0  0  0  0
 16  2  2  0  0  0  0
 17  8  2  0  0  0  0
 17 21  1  0  0  0  0
 18  6  2  0  0  0  0
 19 20  2  0  0  0  0
 21 15  2  0  0  0  0
 23 27  2  0  0  0  0
 23 24  1  0  0  0  0
 24 25  2  0  0  0  0
 25 22  1  0  0  0  0
 26 22  2  0  0  0  0
 27 26  1  0  0  0  0
M  END
>  <MODEL>
5

>  <REMARK>
 VINA RESULT:      -7.4      2.676      5.429
  Name = 
  1 active torsions:
  status: ('A' for Active; 'I' for Inactive)
    1  A    between atoms: C_9  and  C_15
                            x       y       z     vdW  Elec       q    Type
                         _______ _______ _______ _____ _____    ______ ____

>  <TORSDO>
F 1

$$$$
=
 OpenBabel11052418283D

 27 31  0  0  1  0  0  0  0  0999 V2000
  191.0200  175.3160  144.3880 N   0  0  0  0  0  2  0  0  0  0  0  0
  188.7100  175.2750  143.6750 C   0  0  0  0  0  0  0  0  0  0  0  0
  188.6190  176.2750  145.9550 N   0  0  0  0  0  2  0  0  0  0  0  0
  185.2530  177.3010  142.5700 C   0  0  0  0  0  3  0  0  0  0  0  0
  184.5850  178.1240  143.4810 C   0  0  0  0  0  0  0  0  0  0  0  0
  188.1710  175.1730  142.4270 N   0  0  0  0  0  0  0  0  0  0  0  0
  186.2460  177.6110  145.1700 C   0  0  0  0  0  3  0  0  0  0  0  0
  191.4670  177.1690  148.1600 C   0  0  0  0  0  0  0  0  0  0  0  0
  185.0810  178.2780  144.7800 C   0  0  0  0  0  3  0  0  0  0  0  0
  191.6860  177.8780  149.7440 Cl  0  0  0  0  0  0  0  0  0  0  0  0
  186.9220  176.7810  144.2630 C   0  0  0  0  0  0  0  0  0  0  0  0
  189.9040  174.4540  144.0540 C   0  0  1  0  0  3  0  0  0  0  0  0
  183.1280  178.9610  142.9970 Cl  0  0  0  0  0  0  0  0  0  0  0  0
  186.4170  176.6320  142.9560 C   0  0  0  0  0  0  0  0  0  0  0  0
  191.1120  176.0210  145.6250 C   0  0  0  0  0  0  0  0  0  0  0  0
  188.1020  176.1120  144.6230 C   0  0  0  0  0  0  0  0  0  0  0  0
  190.1810  176.9170  147.6790 C   0  0  0  0  0  3  0  0  0  0  0  0
  187.0670  175.8320  142.0760 N   0  0  0  0  0  0  0  0  0  0  0  0
  192.5740  176.8800  147.3650 C   0  0  0  0  0  3  0  0  0  0  0  0
  192.3950  176.3050  146.1070 C   0  0  0  0  0  3  0  0  0  0  0  0
  189.9800  176.3570  146.4110 C   0  0  0  0  0  0  0  0  0  0  0  0
  191.1160  171.5840  141.0860 C   0  0  0  0  0  3  0  0  0  0  0  0
  190.3050  173.4460  143.0160 C   0  0  0  0  0  0  0  0  0  0  0  0
  191.2230  173.8130  142.0270 C   0  0  0  0  0  3  0  0  0  0  0  0
  191.6270  172.8850  141.0620 C   0  0  0  0  0  3  0  0  0  0  0  0
  190.2030  171.2100  142.0760 C   0  0  0  0  0  3  0  0  0  0  0  0
  189.7990  172.1370  143.0410 C   0  0  0  0  0  3  0  0  0  0  0  0
  1 15  1  0  0  0  0
  2 12  1  0  0  0  0
  2 16  1  0  0  0  0
  3 21  1  0  0  0  0
  4 14  1  0  0  0  0
  4  5  2  0  0  0  0
  5  9  1  0  0  0  0
  6  2  2  0  0  0  0
  8 10  1  0  0  0  0
  9  7  2  0  0  0  0
 11 16  2  0  0  0  0
 11  7  1  0  0  0  0
 12 23  1  6  0  0  0
 12  1  1  0  0  0  0
 13  5  1  0  0  0  0
 14 11  1  0  0  0  0
 15 20  2  0  0  0  0
 15 21  1  0  0  0  0
 16  3  1  0  0  0  0
 17  8  1  0  0  0  0
 18  6  1  0  0  0  0
 18 14  2  0  0  0  0
 19  8  2  0  0  0  0
 20 19  1  0  0  0  0
 21 17  2  0  0  0  0
 22 26  1  0  0  0  0
 23 27  1  0  0  0  0
 24 23  2  0  0  0  0
 25 22  2  0  0  0  0
 25 24  1  0  0  0  0
 26 27  2  0  0  0  0
M  END
>  <MODEL>
6

>  <REMARK>
 VINA RESULT:      -7.4      2.832      7.651
  Name = 
  1 active torsions:
  status: ('A' for Active; 'I' for Inactive)
    1  A    between atoms: C_9  and  C_15
                            x       y       z     vdW  Elec       q    Type
                         _______ _______ _______ _____ _____    ______ ____

>  <TORSDO>
F 1

$$$$
=
 OpenBabel11052418283D

 27 31  0  0  1  0  0  0  0  0999 V2000
  191.0000  175.3650  142.1270 N   0  0  0  0  0  2  0  0  0  0  0  0
  188.6590  175.3690  142.7290 C   0  0  0  0  0  0  0  0  0  0  0  0
  189.8340  175.8240  144.8780 N   0  0  0  0  0  2  0  0  0  0  0  0
  185.2930  177.4170  144.0540 C   0  0  0  0  0  3  0  0  0  0  0  0
  185.2560  177.9790  145.3330 C   0  0  0  0  0  0  0  0  0  0  0  0
  187.5460  175.5240  141.9560 N   0  0  0  0  0  0  0  0  0  0  0  0
  187.5050  177.1820  145.7540 C   0  0  0  0  0  3  0  0  0  0  0  0
  193.4690  176.3400  145.4150 C   0  0  0  0  0  0  0  0  0  0  0  0
  186.3600  177.8610  146.1820 C   0  0  0  0  0  3  0  0  0  0  0  0
  194.5280  176.6840  146.7660 Cl  0  0  0  0  0  0  0  0  0  0  0  0
  187.5510  176.6130  144.4720 C   0  0  0  0  0  0  0  0  0  0  0  0
  189.8100  174.5450  142.2430 C   0  0  1  0  0  3  0  0  0  0  0  0
  183.8250  178.8290  145.8720 Cl  0  0  0  0  0  0  0  0  0  0  0  0
  186.4340  176.7370  143.6220 C   0  0  0  0  0  0  0  0  0  0  0  0
  191.7700  175.7770  143.2550 C   0  0  0  0  0  0  0  0  0  0  0  0
  188.6930  175.9400  144.0110 C   0  0  0  0  0  0  0  0  0  0  0  0
  192.1050  176.1390  145.6320 C   0  0  0  0  0  3  0  0  0  0  0  0
  186.4740  176.1890  142.3830 N   0  0  0  0  0  0  0  0  0  0  0  0
  193.9810  176.2930  144.1200 C   0  0  0  0  0  3  0  0  0  0  0  0
  193.1350  176.0090  143.0490 C   0  0  0  0  0  3  0  0  0  0  0  0
  191.2360  175.8690  144.5660 C   0  0  0  0  0  0  0  0  0  0  0  0
  189.0980  172.4380  138.5600 C   0  0  0  0  0  3  0  0  0  0  0  0
  189.5410  173.8180  140.9580 C   0  0  0  0  0  0  0  0  0  0  0  0
  190.5110  173.8290  139.9510 C   0  0  0  0  0  3  0  0  0  0  0  0
  190.2900  173.1420  138.7530 C   0  0  0  0  0  3  0  0  0  0  0  0
  188.1270  172.4190  139.5650 C   0  0  0  0  0  3  0  0  0  0  0  0
  188.3470  173.1050  140.7630 C   0  0  0  0  0  3  0  0  0  0  0  0
  1 12  1  0  0  0  0
  1 15  1  0  0  0  0
  2 16  1  0  0  0  0
  4  5  2  0  0  0  0
  5 13  1  0  0  0  0
  5  9  1  0  0  0  0
  6 18  1  0  0  0  0
  6  2  2  0  0  0  0
  7  9  2  0  0  0  0
  8 17  1  0  0  0  0
  8 10  1  0  0  0  0
 11  7  1  0  0  0  0
 12 23  1  6  0  0  0
 12  2  1  0  0  0  0
 14  4  1  0  0  0  0
 14 11  1  0  0  0  0
 15 21  1  0  0  0  0
 16 11  2  0  0  0  0
 16  3  1  0  0  0  0
 18 14  2  0  0  0  0
 19  8  2  0  0  0  0
 20 15  2  0  0  0  0
 20 19  1  0  0  0  0
 21  3  1  0  0  0  0
 21 17  2  0  0  0  0
 22 25  2  0  0  0  0
 22 26  1  0  0  0  0
 24 23  2  0  0  0  0
 25 24  1  0  0  0  0
 26 27  2  0  0  0  0
 27 23  1  0  0  0  0
M  END
>  <MODEL>
7

>  <REMARK>
 VINA RESULT:      -7.3      2.604      6.996
  Name = 
  1 active torsions:
  status: ('A' for Active; 'I' for Inactive)
    1  A    between atoms: C_9  and  C_15
                            x       y       z     vdW  Elec       q    Type
                         _______ _______ _______ _____ _____    ______ ____

>  <TORSDO>
F 1

$$$$
=
 OpenBabel11052418283D

 27 31  0  0  1  0  0  0  0  0999 V2000
  191.2750  175.8640  144.8940 N   0  0  0  0  0  2  0  0  0  0  0  0
  189.9510  175.1360  143.0060 C   0  0  0  0  0  0  0  0  0  0  0  0
  192.2320  175.4500  142.0570 N   0  0  0  0  0  2  0  0  0  0  0  0
  189.0690  172.2710  140.1270 C   0  0  0  0  0  3  0  0  0  0  0  0
  190.0040  171.9330  139.1460 C   0  0  0  0  0  0  0  0  0  0  0  0
  188.7520  174.4880  142.9630 N   0  0  0  0  0  0  0  0  0  0  0  0
  191.5770  173.5160  140.0910 C   0  0  0  0  0  3  0  0  0  0  0  0
  195.3500  176.3190  143.8720 C   0  0  0  0  0  0  0  0  0  0  0  0
  191.2570  172.5550  139.1280 C   0  0  0  0  0  3  0  0  0  0  0  0
  197.0350  176.5740  143.4740 Cl  0  0  0  0  0  0  0  0  0  0  0  0
  190.6420  173.8640  141.0790 C   0  0  0  0  0  0  0  0  0  0  0  0
  190.1880  176.2250  144.0050 C   0  0  1  0  0  3  0  0  0  0  0  0
  189.6090  170.7300  137.9380 Cl  0  0  0  0  0  0  0  0  0  0  0  0
  189.3830  173.2320  141.0910 C   0  0  0  0  0  0  0  0  0  0  0  0
  192.6460  175.9210  144.5050 C   0  0  0  0  0  0  0  0  0  0  0  0
  190.9430  174.8150  142.0670 C   0  0  0  0  0  0  0  0  0  0  0  0
  194.4240  176.0630  142.8590 C   0  0  0  0  0  3  0  0  0  0  0  0
  188.4790  173.5640  142.0430 N   0  0  0  0  0  0  0  0  0  0  0  0
  194.9350  176.3440  145.2020 C   0  0  0  0  0  3  0  0  0  0  0  0
  193.5900  176.1510  145.5130 C   0  0  0  0  0  3  0  0  0  0  0  0
  193.0720  175.8490  143.1530 C   0  0  0  0  0  0  0  0  0  0  0  0
  186.7260  177.3270  146.3100 C   0  0  0  0  0  3  0  0  0  0  0  0
  188.9680  176.6090  144.7910 C   0  0  0  0  0  0  0  0  0  0  0  0
  188.7380  176.0070  146.0320 C   0  0  0  0  0  3  0  0  0  0  0  0
  187.6180  176.3640  146.7900 C   0  0  0  0  0  3  0  0  0  0  0  0
  186.9540  177.9360  145.0730 C   0  0  0  0  0  3  0  0  0  0  0  0
  188.0730  177.5810  144.3140 C   0  0  0  0  0  3  0  0  0  0  0  0
  2 12  1  0  0  0  0
  3 16  1  0  0  0  0
  3 21  1  0  0  0  0
  4 14  1  0  0  0  0
  5  4  2  0  0  0  0
  6  2  1  0  0  0  0
  7 11  1  0  0  0  0
  8 19  1  0  0  0  0
  9  5  1  0  0  0  0
  9  7  2  0  0  0  0
 10  8  1  0  0  0  0
 11 14  2  0  0  0  0
 11 16  1  0  0  0  0
 12 23  1  1  0  0  0
 12  1  1  0  0  0  0
 13  5  1  0  0  0  0
 14 18  1  0  0  0  0
 15  1  1  0  0  0  0
 15 20  1  0  0  0  0
 16  2  2  0  0  0  0
 17 21  1  0  0  0  0
 17  8  2  0  0  0  0
 18  6  2  0  0  0  0
 19 20  2  0  0  0  0
 21 15  2  0  0  0  0
 22 25  1  0  0  0  0
 23 24  1  0  0  0  0
 24 25  2  0  0  0  0
 26 22  2  0  0  0  0
 27 23  2  0  0  0  0
 27 26  1  0  0  0  0
M  END
>  <MODEL>
8

>  <REMARK>
 VINA RESULT:      -7.3      2.207      6.006
  Name = 
  1 active torsions:
  status: ('A' for Active; 'I' for Inactive)
    1  A    between atoms: C_9  and  C_15
                            x       y       z     vdW  Elec       q    Type
                         _______ _______ _______ _____ _____    ______ ____

>  <TORSDO>
F 1

$$$$
=
 OpenBabel11052418283D

 27 31  0  0  1  0  0  0  0  0999 V2000
  189.2780  174.2080  143.5210 N   0  0  0  0  0  2  0  0  0  0  0  0
  188.0080  176.2170  143.9670 C   0  0  0  0  0  0  0  0  0  0  0  0
  187.8500  175.9410  141.4960 N   0  0  0  0  0  2  0  0  0  0  0  0
  184.3690  178.2240  144.0470 C   0  0  0  0  0  3  0  0  0  0  0  0
  183.6600  178.4660  142.8680 C   0  0  0  0  0  0  0  0  0  0  0  0
  187.4500  176.6720  145.1250 N   0  0  0  0  0  0  0  0  0  0  0  0
  185.3890  177.3440  141.5930 C   0  0  0  0  0  3  0  0  0  0  0  0
  189.1320  173.1330  139.4360 C   0  0  0  0  0  0  0  0  0  0  0  0
  184.1700  178.0270  141.6420 C   0  0  0  0  0  3  0  0  0  0  0  0
  189.1430  172.6870  137.7440 Cl  0  0  0  0  0  0  0  0  0  0  0  0
  186.1090  177.0980  142.7720 C   0  0  0  0  0  0  0  0  0  0  0  0
  189.3630  175.5810  143.9780 C   0  0  1  0  0  3  0  0  0  0  0  0
  182.1350  179.3200  142.9240 Cl  0  0  0  0  0  0  0  0  0  0  0  0
  185.5880  177.5430  144.0030 C   0  0  0  0  0  0  0  0  0  0  0  0
  189.1230  173.8570  142.1460 C   0  0  0  0  0  0  0  0  0  0  0  0
  187.3270  176.4010  142.7540 C   0  0  0  0  0  0  0  0  0  0  0  0
  188.5870  174.3560  139.8320 C   0  0  0  0  0  3  0  0  0  0  0  0
  186.2790  177.3070  145.1450 N   0  0  0  0  0  0  0  0  0  0  0  0
  189.6410  172.2580  140.3930 C   0  0  0  0  0  3  0  0  0  0  0  0
  189.6400  172.6220  141.7380 C   0  0  0  0  0  3  0  0  0  0  0  0
  188.5610  174.7320  141.1810 C   0  0  0  0  0  0  0  0  0  0  0  0
  191.3570  175.7270  147.7870 C   0  0  0  0  0  3  0  0  0  0  0  0
  190.0610  175.6540  145.3050 C   0  0  0  0  0  0  0  0  0  0  0  0
  189.5760  174.8930  146.3740 C   0  0  0  0  0  3  0  0  0  0  0  0
  190.2220  174.9310  147.6140 C   0  0  0  0  0  3  0  0  0  0  0  0
  191.8500  176.4850  146.7210 C   0  0  0  0  0  3  0  0  0  0  0  0
  191.2060  176.4480  145.4810 C   0  0  0  0  0  3  0  0  0  0  0  0
  1 12  1  0  0  0  0
  2 12  1  0  0  0  0
  2  6  1  0  0  0  0
  3 16  1  0  0  0  0
  5 13  1  0  0  0  0
  5  4  2  0  0  0  0
  6 18  2  0  0  0  0
  7  9  2  0  0  0  0
  7 11  1  0  0  0  0
  8 17  2  0  0  0  0
  8 19  1  0  0  0  0
  9  5  1  0  0  0  0
 10  8  1  0  0  0  0
 11 14  2  0  0  0  0
 12 23  1  1  0  0  0
 14  4  1  0  0  0  0
 14 18  1  0  0  0  0
 15  1  1  0  0  0  0
 16 11  1  0  0  0  0
 16  2  2  0  0  0  0
 17 21  1  0  0  0  0
 19 20  2  0  0  0  0
 20 15  1  0  0  0  0
 21  3  1  0  0  0  0
 21 15  2  0  0  0  0
 23 27  2  0  0  0  0
 23 24  1  0  0  0  0
 24 25  2  0  0  0  0
 25 22  1  0  0  0  0
 26 22  2  0  0  0  0
 27 26  1  0  0  0  0
M  END
>  <MODEL>
9

>  <REMARK>
 VINA RESULT:      -7.3      2.629      5.901
  Name = 
  1 active torsions:
  status: ('A' for Active; 'I' for Inactive)
    1  A    between atoms: C_9  and  C_15
                            x       y       z     vdW  Elec       q    Type
                         _______ _______ _______ _____ _____    ______ ____

>  <TORSDO>
F 1

$$$$
