=
 OpenBabel11052420353D

 34 38  0  0  1  0  0  0  0  0999 V2000
  193.7120  174.4880  143.7220 C   0  0  1  0  0  3  0  0  0  0  0  0
  196.8450  172.5460  144.9300 C   0  0  0  0  0  2  0  0  0  0  0  0
  195.7170  169.6830  146.4720 C   0  0  0  0  0  0  0  0  0  0  0  0
  196.4870  174.8100  144.2400 O   0  0  0  0  0  0  0  0  0  0  0  0
  191.8430  174.7380  145.3200 N   0  0  0  0  0  0  0  0  0  0  0  0
  192.1960  174.3960  143.9400 C   0  0  0  0  0  2  0  0  0  0  0  0
  193.7040  176.3230  145.5100 C   0  0  2  0  0  3  0  0  0  0  0  0
  194.3280  175.6060  146.5370 O   0  0  0  0  0  1  0  0  0  0  0  0
  197.1050  169.2450  146.8040 C   0  0  0  0  0  1  0  0  0  0  0  0
  192.1930  176.1320  145.5950 C   0  0  0  0  0  2  0  0  0  0  0  0
  195.7090  175.9550  144.0530 C   0  0  0  0  0  0  0  0  0  0  0  0
  194.2160  175.8820  144.1260 C   0  0  1  0  0  3  0  0  0  0  0  0
  196.2720  177.0720  143.9090 O   0  0  0  0  0  0  0  0  0  0  0  0
  196.5830  171.0880  144.5870 C   0  0  0  0  0  2  0  0  0  0  0  0
  194.7650  169.2510  147.1750 O   0  0  0  0  0  0  0  0  0  0  0  0
  195.4630  170.5780  145.3770 N   0  0  0  0  0  0  0  0  0  0  0  0
  194.0780  170.9830  145.1060 C   0  0  0  0  0  2  0  0  0  0  0  0
  195.9830  173.4810  144.0900 C   0  0  2  0  0  3  0  0  0  0  0  0
  193.9520  172.0130  143.9880 C   0  0  0  0  0  2  0  0  0  0  0  0
  194.4850  173.3720  144.4400 C   0  0  2  0  0  3  0  0  0  0  0  0
  190.4140  174.5220  145.6070 C   0  0  0  0  0  2  0  0  0  0  0  0
  187.8780  177.2860  146.5710 C   0  0  0  0  0  2  0  0  0  0  0  0
  188.5700  175.6710  144.2230 C   0  0  0  0  0  2  0  0  0  0  0  0
  184.9470  178.2640  143.1310 N   0  0  0  0  0  0  0  0  0  0  0  0
  184.9610  178.5080  144.5450 C   0  0  0  0  0  0  0  0  0  0  0  0
  186.2520  178.5970  145.2900 C   0  0  0  0  0  2  0  0  0  0  0  0
  183.6960  178.2710  142.3920 C   0  0  0  0  0  1  0  0  0  0  0  0
  186.9410  177.2410  145.3630 C   0  0  1  0  0  3  0  0  0  0  0  0
  183.8810  178.6470  145.1770 O   0  0  0  0  0  0  0  0  0  0  0  0
  186.8270  176.7300  142.8630 C   0  0  0  0  0  2  0  0  0  0  0  0
  187.7370  176.9430  144.0700 C   0  0  2  0  0  3  0  0  0  0  0  0
  186.1810  178.0260  142.3960 C   0  0  0  0  0  2  0  0  0  0  0  0
  189.4690  175.7330  145.4550 C   0  0  1  0  0  3  0  0  0  0  0  0
  188.6530  175.9850  146.7160 C   0  0  0  0  0  2  0  0  0  0  0  0
  1  6  1  1  0  0  0
  1 12  1  0  0  0  0
  1 20  1  0  0  0  0
  3  9  1  0  0  0  0
  3 15  2  0  0  0  0
  5 10  1  0  0  0  0
  5 21  1  0  0  0  0
  6  5  1  0  0  0  0
  7 10  1  0  0  0  0
  7  8  1  1  0  0  0
 11  4  1  0  0  0  0
 12 11  1  1  0  0  0
 12  7  1  0  0  0  0
 13 11  2  0  0  0  0
 14  2  1  0  0  0  0
 14 16  1  0  0  0  0
 16  3  1  0  0  0  0
 17 16  1  0  0  0  0
 18  4  1  0  0  0  0
 18 20  1  0  0  0  0
 18  2  1  1  0  0  0
 19 17  1  0  0  0  0
 20 19  1  6  0  0  0
 22 34  1  0  0  0  0
 23 33  1  0  0  0  0
 24 25  1  0  0  0  0
 25 29  2  0  0  0  0
 25 26  1  0  0  0  0
 27 24  1  0  0  0  0
 28 26  1  6  0  0  0
 28 22  1  0  0  0  0
 31 30  1  6  0  0  0
 31 23  1  0  0  0  0
 31 28  1  0  0  0  0
 32 30  1  0  0  0  0
 32 24  1  0  0  0  0
 33 21  1  1  0  0  0
 33 34  1  0  0  0  0
M  END
>  <MODEL>
1

>  <REMARK>
 VINA RESULT:      -9.3      0.000      0.000
  Name = 
  2 active torsions:
  status: ('A' for Active; 'I' for Inactive)
    1  A    between atoms: N_8  and  C_18
    2  A    between atoms: C_18  and  C_30
                            x       y       z     vdW  Elec       q    Type
                         _______ _______ _______ _____ _____    ______ ____

>  <TORSDO>
F 2

$$$$
=
 OpenBabel11052420353D

 34 38  0  0  1  0  0  0  0  0999 V2000
  191.5800  176.7820  145.0100 C   0  0  1  0  0  3  0  0  0  0  0  0
  193.2250  174.4450  142.3890 C   0  0  0  0  0  2  0  0  0  0  0  0
  190.6690  172.8840  140.6920 C   0  0  0  0  0  0  0  0  0  0  0  0
  194.0480  175.5390  144.3520 O   0  0  0  0  0  0  0  0  0  0  0  0
  189.7380  175.8480  146.3700 N   0  0  0  0  0  0  0  0  0  0  0  0
  190.1690  177.0000  145.5740 C   0  0  0  0  0  2  0  0  0  0  0  0
  192.0300  175.3680  147.0990 C   0  0  2  0  0  3  0  0  0  0  0  0
  192.0560  174.1090  146.4880 O   0  0  0  0  0  1  0  0  0  0  0  0
  191.6250  172.1030  139.8520 C   0  0  0  0  0  1  0  0  0  0  0  0
  190.6060  175.6950  147.5390 C   0  0  0  0  0  2  0  0  0  0  0  0
  193.9090  176.1110  145.6190 C   0  0  0  0  0  0  0  0  0  0  0  0
  192.5570  176.4620  146.1530 C   0  0  1  0  0  3  0  0  0  0  0  0
  194.9240  176.2520  146.3520 O   0  0  0  0  0  0  0  0  0  0  0  0
  192.4200  174.6260  141.1130 C   0  0  0  0  0  2  0  0  0  0  0  0
  189.5060  172.4300  140.8610 O   0  0  0  0  0  0  0  0  0  0  0  0
  191.0580  174.1270  141.3000 N   0  0  0  0  0  0  0  0  0  0  0  0
  190.0790  174.8440  142.1250 C   0  0  0  0  0  2  0  0  0  0  0  0
  193.0490  175.6270  143.3340 C   0  0  2  0  0  3  0  0  0  0  0  0
  190.6440  176.0910  142.7970 C   0  0  0  0  0  2  0  0  0  0  0  0
  191.6210  175.7120  143.9090 C   0  0  2  0  0  3  0  0  0  0  0  0
  188.3350  175.9580  146.8070 C   0  0  0  0  0  2  0  0  0  0  0  0
  185.2870  178.2040  145.9900 C   0  0  0  0  0  2  0  0  0  0  0  0
  187.2610  176.5800  144.5510 C   0  0  0  0  0  2  0  0  0  0  0  0
  184.3080  178.2640  141.4710 N   0  0  0  0  0  0  0  0  0  0  0  0
  183.5940  178.6220  142.6630 C   0  0  0  0  0  0  0  0  0  0  0  0
  184.3280  179.0380  143.8950 C   0  0  0  0  0  2  0  0  0  0  0  0
  183.5920  177.9500  140.2460 C   0  0  0  0  0  1  0  0  0  0  0  0
  185.0780  177.8660  144.5130 C   0  0  1  0  0  3  0  0  0  0  0  0
  182.3350  178.5840  142.6860 O   0  0  0  0  0  0  0  0  0  0  0  0
  186.2750  177.1390  142.3770 C   0  0  0  0  0  2  0  0  0  0  0  0
  186.4380  177.6340  143.8110 C   0  0  2  0  0  3  0  0  0  0  0  0
  185.7640  178.2280  141.4470 C   0  0  0  0  0  2  0  0  0  0  0  0
  187.4230  176.9290  146.0280 C   0  0  1  0  0  3  0  0  0  0  0  0
  186.0690  177.1090  146.7000 C   0  0  0  0  0  2  0  0  0  0  0  0
  1  6  1  1  0  0  0
  1 12  1  0  0  0  0
  3 15  2  0  0  0  0
  3 16  1  0  0  0  0
  4 11  1  0  0  0  0
  5 21  1  0  0  0  0
  5 10  1  0  0  0  0
  6  5  1  0  0  0  0
  7  8  1  6  0  0  0
  7 10  1  0  0  0  0
  9  3  1  0  0  0  0
 11 13  2  0  0  0  0
 12 11  1  6  0  0  0
 12  7  1  0  0  0  0
 14 16  1  0  0  0  0
 14  2  1  0  0  0  0
 16 17  1  0  0  0  0
 17 19  1  0  0  0  0
 18  2  1  6  0  0  0
 18 20  1  0  0  0  0
 18  4  1  0  0  0  0
 20 19  1  6  0  0  0
 20  1  1  0  0  0  0
 22 34  1  0  0  0  0
 23 33  1  0  0  0  0
 24 25  1  0  0  0  0
 25 29  2  0  0  0  0
 25 26  1  0  0  0  0
 27 24  1  0  0  0  0
 28 26  1  6  0  0  0
 28 22  1  0  0  0  0
 31 30  1  6  0  0  0
 31 28  1  0  0  0  0
 31 23  1  0  0  0  0
 32 24  1  0  0  0  0
 32 30  1  0  0  0  0
 33 34  1  0  0  0  0
 33 21  1  1  0  0  0
M  END
>  <MODEL>
2

>  <REMARK>
 VINA RESULT:      -9.2      3.172      4.172
  Name = 
  2 active torsions:
  status: ('A' for Active; 'I' for Inactive)
    1  A    between atoms: N_8  and  C_18
    2  A    between atoms: C_18  and  C_30
                            x       y       z     vdW  Elec       q    Type
                         _______ _______ _______ _____ _____    ______ ____

>  <TORSDO>
F 2

$$$$
=
 OpenBabel11052420353D

 34 38  0  0  1  0  0  0  0  0999 V2000
  194.5560  175.3420  144.6160 C   0  0  1  0  0  3  0  0  0  0  0  0
  197.4210  174.9760  142.0270 C   0  0  0  0  0  2  0  0  0  0  0  0
  195.9790  175.1300  138.9060 C   0  0  0  0  0  0  0  0  0  0  0  0
  197.2580  174.5000  144.3670 O   0  0  0  0  0  0  0  0  0  0  0  0
  192.5180  173.9900  144.2560 N   0  0  0  0  0  0  0  0  0  0  0  0
  193.0220  175.3250  144.5850 C   0  0  0  0  0  2  0  0  0  0  0  0
  194.4150  172.8930  145.3580 C   0  0  2  0  0  3  0  0  0  0  0  0
  194.8730  172.2980  144.1760 O   0  0  0  0  0  1  0  0  0  0  0  0
  197.2930  174.9370  138.2250 C   0  0  0  0  0  1  0  0  0  0  0  0
  192.8970  173.0400  145.3030 C   0  0  0  0  0  2  0  0  0  0  0  0
  196.5640  174.1690  145.5340 C   0  0  0  0  0  0  0  0  0  0  0  0
  195.0720  174.2670  145.5860 C   0  0  1  0  0  3  0  0  0  0  0  0
  197.1920  173.7000  146.5190 O   0  0  0  0  0  0  0  0  0  0  0  0
  197.1350  176.0070  140.9480 C   0  0  0  0  0  2  0  0  0  0  0  0
  194.9280  174.8110  138.2880 O   0  0  0  0  0  0  0  0  0  0  0  0
  195.9030  175.6660  140.2370 N   0  0  0  0  0  0  0  0  0  0  0  0
  194.5830  175.8200  140.8600 C   0  0  0  0  0  2  0  0  0  0  0  0
  196.7140  175.3210  143.3320 C   0  0  2  0  0  3  0  0  0  0  0  0
  194.6450  176.2980  142.3070 C   0  0  0  0  0  2  0  0  0  0  0  0
  195.1810  175.1970  143.2200 C   0  0  2  0  0  3  0  0  0  0  0  0
  191.0560  173.9670  144.0740 C   0  0  0  0  0  2  0  0  0  0  0  0
  189.0410  175.7510  146.8600 C   0  0  0  0  0  2  0  0  0  0  0  0
  189.1350  175.6770  143.9290 C   0  0  0  0  0  2  0  0  0  0  0  0
  185.6790  178.4320  145.1580 N   0  0  0  0  0  0  0  0  0  0  0  0
  185.9650  177.8670  146.4460 C   0  0  0  0  0  0  0  0  0  0  0  0
  187.3680  177.5410  146.8410 C   0  0  0  0  0  2  0  0  0  0  0  0
  184.3270  178.8350  144.8120 C   0  0  0  0  0  1  0  0  0  0  0  0
  187.9090  176.3670  146.0360 C   0  0  1  0  0  3  0  0  0  0  0  0
  185.0330  177.6350  147.2600 O   0  0  0  0  0  0  0  0  0  0  0  0
  187.3070  177.2990  143.7360 C   0  0  0  0  0  2  0  0  0  0  0  0
  188.4300  176.8240  144.6530 C   0  0  2  0  0  3  0  0  0  0  0  0
  186.7340  178.6370  144.1750 C   0  0  0  0  0  2  0  0  0  0  0  0
  190.2360  175.0620  144.7900 C   0  0  1  0  0  3  0  0  0  0  0  0
  189.6840  174.5840  146.1260 C   0  0  0  0  0  2  0  0  0  0  0  0
  1  6  1  6  0  0  0
  1 12  1  0  0  0  0
  3 16  1  0  0  0  0
  4 11  1  0  0  0  0
  5  6  1  0  0  0  0
  5 10  1  0  0  0  0
  7  8  1  6  0  0  0
  7 12  1  0  0  0  0
  9  3  1  0  0  0  0
 10  7  1  0  0  0  0
 11 13  2  0  0  0  0
 12 11  1  6  0  0  0
 14  2  1  0  0  0  0
 15  3  2  0  0  0  0
 16 17  1  0  0  0  0
 16 14  1  0  0  0  0
 17 19  1  0  0  0  0
 18  2  1  6  0  0  0
 18  4  1  0  0  0  0
 20 19  1  6  0  0  0
 20 18  1  0  0  0  0
 20  1  1  0  0  0  0
 21  5  1  0  0  0  0
 23 31  1  0  0  0  0
 23 33  1  0  0  0  0
 24 25  1  0  0  0  0
 25 26  1  0  0  0  0
 25 29  2  0  0  0  0
 27 24  1  0  0  0  0
 28 26  1  1  0  0  0
 28 22  1  0  0  0  0
 30 32  1  0  0  0  0
 31 30  1  6  0  0  0
 31 28  1  0  0  0  0
 32 24  1  0  0  0  0
 33 21  1  6  0  0  0
 33 34  1  0  0  0  0
 34 22  1  0  0  0  0
M  END
>  <MODEL>
3

>  <REMARK>
 VINA RESULT:      -8.7      2.637      4.222
  Name = 
  2 active torsions:
  status: ('A' for Active; 'I' for Inactive)
    1  A    between atoms: N_8  and  C_18
    2  A    between atoms: C_18  and  C_30
                            x       y       z     vdW  Elec       q    Type
                         _______ _______ _______ _____ _____    ______ ____

>  <TORSDO>
F 2

$$$$
=
 OpenBabel11052420353D

 34 38  0  0  1  0  0  0  0  0999 V2000
  195.7010  175.6480  144.6160 C   0  0  1  0  0  3  0  0  0  0  0  0
  196.8240  173.4820  141.6020 C   0  0  0  0  0  2  0  0  0  0  0  0
  195.4810  174.9200  138.7770 C   0  0  0  0  0  0  0  0  0  0  0  0
  196.7630  173.0960  143.9630 O   0  0  0  0  0  0  0  0  0  0  0  0
  193.3200  176.3080  144.7190 N   0  0  0  0  0  0  0  0  0  0  0  0
  194.6990  176.7860  144.8540 C   0  0  0  0  0  2  0  0  0  0  0  0
  193.9060  174.0770  145.5510 C   0  0  2  0  0  3  0  0  0  0  0  0
  193.5530  173.4400  144.3550 O   0  0  0  0  0  1  0  0  0  0  0  0
  196.0640  173.8680  137.8930 C   0  0  0  0  0  1  0  0  0  0  0  0
  193.0330  175.3120  145.7510 C   0  0  0  0  0  2  0  0  0  0  0  0
  196.2690  173.2990  145.2540 C   0  0  0  0  0  0  0  0  0  0  0  0
  195.3930  174.4730  145.5580 C   0  0  1  0  0  3  0  0  0  0  0  0
  196.4900  172.4390  146.1460 O   0  0  0  0  0  0  0  0  0  0  0  0
  197.2270  174.4660  140.5150 C   0  0  0  0  0  2  0  0  0  0  0  0
  194.4630  175.5450  138.3780 O   0  0  0  0  0  0  0  0  0  0  0  0
  196.0600  175.2190  140.0580 N   0  0  0  0  0  0  0  0  0  0  0  0
  195.4350  176.2560  140.8890 C   0  0  0  0  0  2  0  0  0  0  0  0
  196.8510  174.1300  142.9810 C   0  0  2  0  0  3  0  0  0  0  0  0
  196.0790  176.4050  142.2630 C   0  0  0  0  0  2  0  0  0  0  0  0
  195.7560  175.2020  143.1470 C   0  0  2  0  0  3  0  0  0  0  0  0
  192.3340  177.4000  144.7970 C   0  0  0  0  0  2  0  0  0  0  0  0
  188.9290  177.0260  142.9890 C   0  0  0  0  0  2  0  0  0  0  0  0
  189.9290  177.4320  145.7170 C   0  0  0  0  0  2  0  0  0  0  0  0
  185.3450  177.5130  145.8690 N   0  0  0  0  0  0  0  0  0  0  0  0
  185.5080  177.5580  144.4450 C   0  0  0  0  0  0  0  0  0  0  0  0
  186.6200  176.8150  143.7810 C   0  0  0  0  0  2  0  0  0  0  0  0
  184.2090  178.1590  146.5040 C   0  0  0  0  0  1  0  0  0  0  0  0
  187.9710  177.4360  144.1080 C   0  0  1  0  0  3  0  0  0  0  0  0
  184.7150  178.2300  143.7340 O   0  0  0  0  0  0  0  0  0  0  0  0
  187.6590  177.4720  146.6430 C   0  0  0  0  0  2  0  0  0  0  0  0
  188.4980  176.9500  145.4800 C   0  0  2  0  0  3  0  0  0  0  0  0
  186.2960  176.8030  146.7140 C   0  0  0  0  0  2  0  0  0  0  0  0
  190.8520  177.0350  144.5680 C   0  0  1  0  0  3  0  0  0  0  0  0
  190.3300  177.5640  143.2390 C   0  0  0  0  0  2  0  0  0  0  0  0
  1  6  1  6  0  0  0
  1 12  1  0  0  0  0
  3 16  1  0  0  0  0
  4 11  1  0  0  0  0
  5 21  1  0  0  0  0
  5  6  1  0  0  0  0
  5 10  1  0  0  0  0
  7  8  1  6  0  0  0
  7 12  1  0  0  0  0
  7 10  1  0  0  0  0
  9  3  1  0  0  0  0
 11 13  2  0  0  0  0
 12 11  1  6  0  0  0
 14  2  1  0  0  0  0
 15  3  2  0  0  0  0
 16 14  1  0  0  0  0
 16 17  1  0  0  0  0
 17 19  1  0  0  0  0
 18  2  1  6  0  0  0
 18 20  1  0  0  0  0
 18  4  1  0  0  0  0
 20 19  1  6  0  0  0
 20  1  1  0  0  0  0
 22 34  1  0  0  0  0
 24 27  1  0  0  0  0
 24 32  1  0  0  0  0
 25 24  1  0  0  0  0
 26 28  1  0  0  0  0
 26 25  1  0  0  0  0
 28 22  1  6  0  0  0
 28 31  1  0  0  0  0
 29 25  2  0  0  0  0
 30 32  1  0  0  0  0
 31 23  1  1  0  0  0
 31 30  1  0  0  0  0
 33 21  1  1  0  0  0
 33 23  1  0  0  0  0
 34 33  1  0  0  0  0
M  END
>  <MODEL>
4

>  <REMARK>
 VINA RESULT:      -8.6      2.801      4.523
  Name = 
  2 active torsions:
  status: ('A' for Active; 'I' for Inactive)
    1  A    between atoms: N_8  and  C_18
    2  A    between atoms: C_18  and  C_30
                            x       y       z     vdW  Elec       q    Type
                         _______ _______ _______ _____ _____    ______ ____

>  <TORSDO>
F 2

$$$$
=
 OpenBabel11052420353D

 34 38  0  0  1  0  0  0  0  0999 V2000
  194.7830  174.9670  143.6040 C   0  0  1  0  0  3  0  0  0  0  0  0
  194.2160  171.1360  143.3920 C   0  0  0  0  0  2  0  0  0  0  0  0
  191.2210  170.6530  141.7650 C   0  0  0  0  0  0  0  0  0  0  0  0
  195.6560  172.5060  144.7240 O   0  0  0  0  0  0  0  0  0  0  0  0
  192.8760  176.3600  144.3330 N   0  0  0  0  0  0  0  0  0  0  0  0
  193.9500  176.2290  143.3450 C   0  0  0  0  0  2  0  0  0  0  0  0
  194.2160  175.2860  146.0830 C   0  0  2  0  0  3  0  0  0  0  0  0
  193.3310  174.2120  146.2270 O   0  0  0  0  0  1  0  0  0  0  0  0
  191.3250  169.1700  141.8910 C   0  0  0  0  0  1  0  0  0  0  0  0
  193.4440  176.5350  145.6700 C   0  0  0  0  0  2  0  0  0  0  0  0
  196.0140  173.6930  145.3680 C   0  0  0  0  0  0  0  0  0  0  0  0
  195.3130  174.9750  145.0470 C   0  0  1  0  0  3  0  0  0  0  0  0
  196.8710  173.6670  146.2900 O   0  0  0  0  0  0  0  0  0  0  0  0
  193.7070  170.8730  141.9830 C   0  0  0  0  0  2  0  0  0  0  0  0
  190.0790  171.1680  141.6280 O   0  0  0  0  0  0  0  0  0  0  0  0
  192.3920  171.4860  141.7990 N   0  0  0  0  0  0  0  0  0  0  0  0
  192.2270  172.9400  141.6830 C   0  0  0  0  0  2  0  0  0  0  0  0
  194.9560  172.4650  143.4790 C   0  0  2  0  0  3  0  0  0  0  0  0
  193.5310  173.7150  141.8380 C   0  0  0  0  0  2  0  0  0  0  0  0
  194.0180  173.6740  143.2850 C   0  0  2  0  0  3  0  0  0  0  0  0
  191.9660  177.4800  144.0320 C   0  0  0  0  0  2  0  0  0  0  0  0
  188.3930  177.2950  142.5490 C   0  0  0  0  0  2  0  0  0  0  0  0
  189.6630  177.5010  145.1840 C   0  0  0  0  0  2  0  0  0  0  0  0
  185.1200  177.6660  145.7930 N   0  0  0  0  0  0  0  0  0  0  0  0
  185.1440  177.8010  144.3650 C   0  0  0  0  0  0  0  0  0  0  0  0
  186.1660  177.0800  143.5490 C   0  0  0  0  0  2  0  0  0  0  0  0
  184.0680  178.2930  146.5760 C   0  0  0  0  0  1  0  0  0  0  0  0
  187.5600  177.6510  143.7800 C   0  0  1  0  0  3  0  0  0  0  0  0
  184.3040  178.5350  143.7800 O   0  0  0  0  0  0  0  0  0  0  0  0
  187.4960  177.5280  146.3310 C   0  0  0  0  0  2  0  0  0  0  0  0
  188.2030  177.0650  145.0600 C   0  0  2  0  0  3  0  0  0  0  0  0
  186.1280  176.8840  146.4930 C   0  0  0  0  0  2  0  0  0  0  0  0
  190.4590  177.1610  143.9270 C   0  0  1  0  0  3  0  0  0  0  0  0
  189.8250  177.7870  142.6920 C   0  0  0  0  0  2  0  0  0  0  0  0
  1  6  1  1  0  0  0
  1 12  1  0  0  0  0
  3 16  1  0  0  0  0
  3  9  1  0  0  0  0
  4 11  1  0  0  0  0
  5 10  1  0  0  0  0
  6  5  1  0  0  0  0
  7  8  1  6  0  0  0
 10  7  1  0  0  0  0
 11 13  2  0  0  0  0
 12 11  1  1  0  0  0
 12  7  1  0  0  0  0
 14  2  1  0  0  0  0
 15  3  2  0  0  0  0
 16 14  1  0  0  0  0
 17 16  1  0  0  0  0
 17 19  1  0  0  0  0
 18  2  1  1  0  0  0
 18  4  1  0  0  0  0
 20 19  1  6  0  0  0
 20 18  1  0  0  0  0
 20  1  1  0  0  0  0
 21  5  1  0  0  0  0
 22 34  1  0  0  0  0
 24 32  1  0  0  0  0
 24 27  1  0  0  0  0
 25 24  1  0  0  0  0
 26 28  1  0  0  0  0
 26 25  1  0  0  0  0
 28 22  1  6  0  0  0
 28 31  1  0  0  0  0
 29 25  2  0  0  0  0
 30 32  1  0  0  0  0
 31 23  1  1  0  0  0
 31 30  1  0  0  0  0
 33 21  1  1  0  0  0
 33 23  1  0  0  0  0
 34 33  1  0  0  0  0
M  END
>  <MODEL>
5

>  <REMARK>
 VINA RESULT:      -8.6      2.449      3.518
  Name = 
  2 active torsions:
  status: ('A' for Active; 'I' for Inactive)
    1  A    between atoms: N_8  and  C_18
    2  A    between atoms: C_18  and  C_30
                            x       y       z     vdW  Elec       q    Type
                         _______ _______ _______ _____ _____    ______ ____

>  <TORSDO>
F 2

$$$$
=
 OpenBabel11052420353D

 34 38  0  0  1  0  0  0  0  0999 V2000
  191.4400  173.0940  143.6490 C   0  0  1  0  0  3  0  0  0  0  0  0
  192.7380  175.3510  146.5220 C   0  0  0  0  0  2  0  0  0  0  0  0
  190.0580  177.2020  147.6340 C   0  0  0  0  0  0  0  0  0  0  0  0
  193.8320  174.1200  144.7860 O   0  0  0  0  0  0  0  0  0  0  0  0
  190.0170  174.1520  141.9260 N   0  0  0  0  0  0  0  0  0  0  0  0
  190.1590  172.9910  142.8090 C   0  0  0  0  0  2  0  0  0  0  0  0
  192.4450  174.3890  141.6790 C   0  0  2  0  0  3  0  0  0  0  0  0
  192.4710  175.6590  142.2660 O   0  0  0  0  0  1  0  0  0  0  0  0
  190.8940  177.9160  148.6430 C   0  0  0  0  0  1  0  0  0  0  0  0
  191.1160  174.1830  140.9600 C   0  0  0  0  0  2  0  0  0  0  0  0
  193.9000  173.5210  143.5260 C   0  0  0  0  0  0  0  0  0  0  0  0
  192.6570  173.2820  142.7280 C   0  0  1  0  0  3  0  0  0  0  0  0
  195.0230  173.2610  143.0200 O   0  0  0  0  0  0  0  0  0  0  0  0
  191.6750  175.2890  147.6070 C   0  0  0  0  0  2  0  0  0  0  0  0
  189.0050  177.7580  147.2230 O   0  0  0  0  0  0  0  0  0  0  0  0
  190.4370  175.9080  147.1360 N   0  0  0  0  0  0  0  0  0  0  0  0
  189.5810  175.2600  146.1350 C   0  0  0  0  0  2  0  0  0  0  0  0
  192.6430  174.1600  145.5780 C   0  0  2  0  0  3  0  0  0  0  0  0
  190.1450  173.9440  145.6120 C   0  0  0  0  0  2  0  0  0  0  0  0
  191.3610  174.1910  144.7210 C   0  0  2  0  0  3  0  0  0  0  0  0
  188.7290  174.1610  141.2090 C   0  0  0  0  0  2  0  0  0  0  0  0
  186.5250  177.3440  141.3130 C   0  0  0  0  0  2  0  0  0  0  0  0
  187.6720  175.4110  143.1970 C   0  0  0  0  0  2  0  0  0  0  0  0
  185.4970  178.6330  145.6330 N   0  0  0  0  0  0  0  0  0  0  0  0
  185.4570  179.2770  144.3510 C   0  0  0  0  0  0  0  0  0  0  0  0
  185.2920  178.4770  143.1010 C   0  0  0  0  0  2  0  0  0  0  0  0
  185.5640  179.4190  146.8530 C   0  0  0  0  0  1  0  0  0  0  0  0
  186.5310  177.6400  142.8130 C   0  0  1  0  0  3  0  0  0  0  0  0
  185.5670  180.5280  144.2640 O   0  0  0  0  0  0  0  0  0  0  0  0
  186.6900  176.5660  145.1240 C   0  0  0  0  0  2  0  0  0  0  0  0
  186.5240  176.3240  143.6270 C   0  0  2  0  0  3  0  0  0  0  0  0
  185.4480  177.1820  145.7480 C   0  0  0  0  0  2  0  0  0  0  0  0
  187.6570  175.1620  141.6910 C   0  0  1  0  0  3  0  0  0  0  0  0
  187.7080  176.4730  140.9190 C   0  0  0  0  0  2  0  0  0  0  0  0
  1  6  1  6  0  0  0
  1 20  1  0  0  0  0
  2 14  1  0  0  0  0
  3  9  1  0  0  0  0
  4 18  1  0  0  0  0
  5  6  1  0  0  0  0
  7  8  1  1  0  0  0
  7 12  1  0  0  0  0
 10  7  1  0  0  0  0
 10  5  1  0  0  0  0
 11  4  1  0  0  0  0
 12 11  1  1  0  0  0
 12  1  1  0  0  0  0
 13 11  2  0  0  0  0
 15  3  2  0  0  0  0
 16 14  1  0  0  0  0
 16  3  1  0  0  0  0
 17 16  1  0  0  0  0
 18  2  1  6  0  0  0
 19 17  1  0  0  0  0
 20 18  1  0  0  0  0
 20 19  1  1  0  0  0
 21  5  1  0  0  0  0
 24 32  1  0  0  0  0
 24 27  1  0  0  0  0
 25 24  1  0  0  0  0
 26 25  1  0  0  0  0
 28 22  1  6  0  0  0
 28 26  1  0  0  0  0
 28 31  1  0  0  0  0
 29 25  2  0  0  0  0
 30 32  1  0  0  0  0
 31 23  1  6  0  0  0
 31 30  1  0  0  0  0
 33 21  1  6  0  0  0
 33 23  1  0  0  0  0
 34 22  1  0  0  0  0
 34 33  1  0  0  0  0
M  END
>  <MODEL>
6

>  <REMARK>
 VINA RESULT:      -8.6      2.883      5.010
  Name = 
  2 active torsions:
  status: ('A' for Active; 'I' for Inactive)
    1  A    between atoms: N_8  and  C_18
    2  A    between atoms: C_18  and  C_30
                            x       y       z     vdW  Elec       q    Type
                         _______ _______ _______ _____ _____    ______ ____

>  <TORSDO>
F 2

$$$$
=
 OpenBabel11052420353D

 34 38  0  0  1  0  0  0  0  0999 V2000
  188.3850  175.6660  144.0290 C   0  0  1  0  0  3  0  0  0  0  0  0
  189.0100  174.1660  140.5080 C   0  0  0  0  0  2  0  0  0  0  0  0
  191.5180  171.8320  140.8430 C   0  0  0  0  0  0  0  0  0  0  0  0
  187.9030  176.1460  141.2710 O   0  0  0  0  0  0  0  0  0  0  0  0
  190.3650  176.3320  145.3500 N   0  0  0  0  0  0  0  0  0  0  0  0
  189.0830  175.6240  145.3950 C   0  0  0  0  0  2  0  0  0  0  0  0
  189.5410  177.9250  143.6780 C   0  0  2  0  0  3  0  0  0  0  0  0
  190.4700  177.5270  142.7100 O   0  0  0  0  0  1  0  0  0  0  0  0
  191.5000  171.5170  139.3840 C   0  0  0  0  0  1  0  0  0  0  0  0
  190.1430  177.7510  145.0690 C   0  0  0  0  0  2  0  0  0  0  0  0
  187.6780  177.1870  142.1750 C   0  0  0  0  0  0  0  0  0  0  0  0
  188.2320  177.1230  143.5630 C   0  0  1  0  0  3  0  0  0  0  0  0
  187.0790  178.2250  141.7910 O   0  0  0  0  0  0  0  0  0  0  0  0
  189.1590  172.6680  140.7200 C   0  0  0  0  0  2  0  0  0  0  0  0
  192.5710  171.6030  141.4950 O   0  0  0  0  0  0  0  0  0  0  0  0
  190.3650  172.3850  141.4980 N   0  0  0  0  0  0  0  0  0  0  0  0
  190.4460  172.6860  142.9330 C   0  0  0  0  0  2  0  0  0  0  0  0
  188.2700  174.8230  141.6670 C   0  0  2  0  0  3  0  0  0  0  0  0
  189.1970  173.3650  143.4850 C   0  0  0  0  0  2  0  0  0  0  0  0
  189.0890  174.8010  142.9740 C   0  0  2  0  0  3  0  0  0  0  0  0
  191.1320  176.1900  146.6010 C   0  0  0  0  0  2  0  0  0  0  0  0
  194.9410  175.6680  146.1380 C   0  0  0  0  0  2  0  0  0  0  0  0
  192.4580  174.1660  145.7170 C   0  0  0  0  0  2  0  0  0  0  0  0
  195.9370  171.5820  144.2160 N   0  0  0  0  0  0  0  0  0  0  0  0
  196.6540  172.8110  144.4030 C   0  0  0  0  0  0  0  0  0  0  0  0
  196.3110  173.7300  145.5290 C   0  0  0  0  0  2  0  0  0  0  0  0
  196.3340  170.6460  143.1780 C   0  0  0  0  0  1  0  0  0  0  0  0
  194.9500  174.3790  145.3160 C   0  0  1  0  0  3  0  0  0  0  0  0
  197.5820  173.1320  143.6150 O   0  0  0  0  0  0  0  0  0  0  0  0
  193.6710  172.2140  144.8660 C   0  0  0  0  0  2  0  0  0  0  0  0
  193.8030  173.4420  145.7630 C   0  0  2  0  0  3  0  0  0  0  0  0
  194.8120  171.2290  145.0700 C   0  0  0  0  0  2  0  0  0  0  0  0
  192.4920  175.4640  146.5200 C   0  0  1  0  0  3  0  0  0  0  0  0
  193.6030  176.3820  146.0280 C   0  0  0  0  0  2  0  0  0  0  0  0
  1  6  1  1  0  0  0
  2 14  1  0  0  0  0
  3 15  2  0  0  0  0
  3 16  1  0  0  0  0
  4 18  1  0  0  0  0
  4 11  1  0  0  0  0
  5  6  1  0  0  0  0
  5 21  1  0  0  0  0
  7  8  1  6  0  0  0
  7 10  1  0  0  0  0
  9  3  1  0  0  0  0
 10  5  1  0  0  0  0
 12 11  1  6  0  0  0
 12  7  1  0  0  0  0
 12  1  1  0  0  0  0
 13 11  2  0  0  0  0
 14 16  1  0  0  0  0
 16 17  1  0  0  0  0
 17 19  1  0  0  0  0
 18  2  1  6  0  0  0
 18 20  1  0  0  0  0
 20 19  1  1  0  0  0
 20  1  1  0  0  0  0
 23 31  1  0  0  0  0
 23 33  1  0  0  0  0
 24 25  1  0  0  0  0
 24 32  1  0  0  0  0
 25 26  1  0  0  0  0
 27 24  1  0  0  0  0
 28 26  1  1  0  0  0
 28 31  1  0  0  0  0
 28 22  1  0  0  0  0
 29 25  2  0  0  0  0
 30 32  1  0  0  0  0
 31 30  1  6  0  0  0
 33 21  1  6  0  0  0
 34 22  1  0  0  0  0
 34 33  1  0  0  0  0
M  END
>  <MODEL>
7

>  <REMARK>
 VINA RESULT:      -8.5      2.947      8.159
  Name = 
  2 active torsions:
  status: ('A' for Active; 'I' for Inactive)
    1  A    between atoms: N_8  and  C_18
    2  A    between atoms: C_18  and  C_30
                            x       y       z     vdW  Elec       q    Type
                         _______ _______ _______ _____ _____    ______ ____

>  <TORSDO>
F 2

$$$$
=
 OpenBabel11052420353D

 34 38  0  0  1  0  0  0  0  0999 V2000
  194.9280  174.9080  143.3090 C   0  0  1  0  0  3  0  0  0  0  0  0
  194.0980  171.5560  141.5430 C   0  0  0  0  0  2  0  0  0  0  0  0
  190.7730  171.6810  140.6640 C   0  0  0  0  0  0  0  0  0  0  0  0
  195.9010  172.2630  142.9500 O   0  0  0  0  0  0  0  0  0  0  0  0
  193.3450  175.7100  145.0290 N   0  0  0  0  0  0  0  0  0  0  0  0
  194.1340  176.1010  143.8580 C   0  0  0  0  0  2  0  0  0  0  0  0
  195.0070  174.0450  145.7200 C   0  0  2  0  0  3  0  0  0  0  0  0
  194.1220  172.9710  145.5780 O   0  0  0  0  0  1  0  0  0  0  0  0
  190.8150  170.3080  140.0800 C   0  0  0  0  0  1  0  0  0  0  0  0
  194.2330  175.2990  146.1160 C   0  0  0  0  0  2  0  0  0  0  0  0
  196.4760  173.0530  143.9490 C   0  0  0  0  0  0  0  0  0  0  0  0
  195.7950  174.2980  144.4220 C   0  0  1  0  0  3  0  0  0  0  0  0
  197.5300  172.6650  144.5180 O   0  0  0  0  0  0  0  0  0  0  0  0
  193.2450  171.9250  140.3400 C   0  0  0  0  0  2  0  0  0  0  0  0
  189.6650  172.1340  141.0580 O   0  0  0  0  0  0  0  0  0  0  0  0
  191.9640  172.4770  140.7800 N   0  0  0  0  0  0  0  0  0  0  0  0
  191.8630  173.8150  141.3750 C   0  0  0  0  0  2  0  0  0  0  0  0
  194.9160  172.7450  142.0340 C   0  0  2  0  0  3  0  0  0  0  0  0
  193.2090  174.5130  141.5370 C   0  0  0  0  0  2  0  0  0  0  0  0
  194.0330  173.8540  142.6410 C   0  0  2  0  0  3  0  0  0  0  0  0
  192.4580  176.7900  145.4970 C   0  0  0  0  0  2  0  0  0  0  0  0
  189.4890  177.7110  143.1870 C   0  0  0  0  0  2  0  0  0  0  0  0
  189.9390  176.9980  145.9960 C   0  0  0  0  0  2  0  0  0  0  0  0
  185.4790  177.9350  145.4790 N   0  0  0  0  0  0  0  0  0  0  0  0
  185.9410  178.4090  144.2060 C   0  0  0  0  0  0  0  0  0  0  0  0
  187.0580  177.7170  143.4950 C   0  0  0  0  0  2  0  0  0  0  0  0
  184.3330  178.5520  146.1250 C   0  0  0  0  0  1  0  0  0  0  0  0
  188.3820  177.9160  144.2210 C   0  0  1  0  0  3  0  0  0  0  0  0
  185.4130  179.4200  143.6730 O   0  0  0  0  0  0  0  0  0  0  0  0
  187.5530  177.1850  146.5240 C   0  0  0  0  0  2  0  0  0  0  0  0
  188.5380  176.9150  145.3910 C   0  0  2  0  0  3  0  0  0  0  0  0
  186.1270  176.8150  146.1460 C   0  0  0  0  0  2  0  0  0  0  0  0
  191.0210  176.8220  144.9330 C   0  0  1  0  0  3  0  0  0  0  0  0
  190.8650  177.8480  143.8190 C   0  0  0  0  0  2  0  0  0  0  0  0
  1  6  1  1  0  0  0
  1 12  1  0  0  0  0
  3 16  1  0  0  0  0
  3 15  2  0  0  0  0
  4 11  1  0  0  0  0
  5 21  1  0  0  0  0
  5 10  1  0  0  0  0
  6  5  1  0  0  0  0
  7  8  1  6  0  0  0
  7 10  1  0  0  0  0
  9  3  1  0  0  0  0
 11 13  2  0  0  0  0
 12 11  1  6  0  0  0
 12  7  1  0  0  0  0
 14 16  1  0  0  0  0
 14  2  1  0  0  0  0
 16 17  1  0  0  0  0
 17 19  1  0  0  0  0
 18  2  1  1  0  0  0
 18 20  1  0  0  0  0
 18  4  1  0  0  0  0
 20 19  1  6  0  0  0
 20  1  1  0  0  0  0
 22 34  1  0  0  0  0
 24 27  1  0  0  0  0
 24 32  1  0  0  0  0
 25 24  1  0  0  0  0
 26 25  1  0  0  0  0
 26 28  1  0  0  0  0
 28 22  1  6  0  0  0
 28 31  1  0  0  0  0
 29 25  2  0  0  0  0
 31 23  1  1  0  0  0
 31 30  1  0  0  0  0
 32 30  1  0  0  0  0
 33 21  1  1  0  0  0
 33 23  1  0  0  0  0
 34 33  1  0  0  0  0
M  END
>  <MODEL>
8

>  <REMARK>
 VINA RESULT:      -8.2      2.701      4.021
  Name = 
  2 active torsions:
  status: ('A' for Active; 'I' for Inactive)
    1  A    between atoms: N_8  and  C_18
    2  A    between atoms: C_18  and  C_30
                            x       y       z     vdW  Elec       q    Type
                         _______ _______ _______ _____ _____    ______ ____

>  <TORSDO>
F 2

$$$$
=
 OpenBabel11052420353D

 34 38  0  0  1  0  0  0  0  0999 V2000
  189.9440  172.3920  142.2910 C   0  0  1  0  0  3  0  0  0  0  0  0
  193.4630  172.4980  143.9170 C   0  0  0  0  0  2  0  0  0  0  0  0
  193.7180  175.5110  145.5620 C   0  0  0  0  0  0  0  0  0  0  0  0
  192.4980  171.1520  142.1900 O   0  0  0  0  0  0  0  0  0  0  0  0
  189.1970  174.4030  141.0640 N   0  0  0  0  0  0  0  0  0  0  0  0
  188.8030  173.3880  142.0450 C   0  0  0  0  0  2  0  0  0  0  0  0
  190.6460  172.8300  139.8660 C   0  0  2  0  0  3  0  0  0  0  0  0
  191.8080  173.5650  140.1220 O   0  0  0  0  0  1  0  0  0  0  0  0
  195.1130  175.2190  146.0030 C   0  0  0  0  0  1  0  0  0  0  0  0
  189.4520  173.7740  139.7680 C   0  0  0  0  0  2  0  0  0  0  0  0
  191.5970  170.9010  141.1520 C   0  0  0  0  0  0  0  0  0  0  0  0
  190.3970  171.7740  140.9580 C   0  0  1  0  0  3  0  0  0  0  0  0
  191.8440  169.9890  140.3210 O   0  0  0  0  0  0  0  0  0  0  0  0
  193.2540  173.0620  145.3140 C   0  0  0  0  0  2  0  0  0  0  0  0
  193.3520  176.7140  145.4790 O   0  0  0  0  0  0  0  0  0  0  0  0
  192.8050  174.4510  145.2350 N   0  0  0  0  0  0  0  0  0  0  0  0
  191.4480  174.8000  144.7950 C   0  0  0  0  0  2  0  0  0  0  0  0
  192.1720  171.9220  143.3490 C   0  0  2  0  0  3  0  0  0  0  0  0
  190.6130  173.5940  144.3790 C   0  0  0  0  0  2  0  0  0  0  0  0
  191.1200  173.0110  143.0610 C   0  0  2  0  0  3  0  0  0  0  0  0
  188.1820  175.4610  140.9100 C   0  0  0  0  0  2  0  0  0  0  0  0
  185.3960  177.0850  143.0550 C   0  0  0  0  0  2  0  0  0  0  0  0
  188.1710  176.1910  143.3790 C   0  0  0  0  0  2  0  0  0  0  0  0
  186.8310  178.0900  147.3340 N   0  0  0  0  0  0  0  0  0  0  0  0
  185.7220  178.4980  146.5200 C   0  0  0  0  0  0  0  0  0  0  0  0
  185.2010  177.6070  145.4410 C   0  0  0  0  0  2  0  0  0  0  0  0
  187.2770  178.9160  148.4430 C   0  0  0  0  0  1  0  0  0  0  0  0
  186.1960  177.4870  144.2950 C   0  0  1  0  0  3  0  0  0  0  0  0
  185.1760  179.6170  146.7030 O   0  0  0  0  0  0  0  0  0  0  0  0
  188.2140  176.8710  145.7340 C   0  0  0  0  0  2  0  0  0  0  0  0
  187.2870  176.4350  144.6030 C   0  0  2  0  0  3  0  0  0  0  0  0
  187.5240  176.8320  147.0890 C   0  0  0  0  0  2  0  0  0  0  0  0
  187.3410  175.8230  142.1520 C   0  0  1  0  0  3  0  0  0  0  0  0
  186.3050  176.8980  141.8500 C   0  0  0  0  0  2  0  0  0  0  0  0
  1  6  1  6  0  0  0
  1 20  1  0  0  0  0
  2 14  1  0  0  0  0
  3  9  1  0  0  0  0
  4 18  1  0  0  0  0
  5  6  1  0  0  0  0
  7  8  1  1  0  0  0
  7 12  1  0  0  0  0
 10  7  1  0  0  0  0
 10  5  1  0  0  0  0
 11  4  1  0  0  0  0
 12 11  1  1  0  0  0
 12  1  1  0  0  0  0
 13 11  2  0  0  0  0
 15  3  2  0  0  0  0
 16 14  1  0  0  0  0
 16  3  1  0  0  0  0
 17 16  1  0  0  0  0
 18  2  1  6  0  0  0
 19 17  1  0  0  0  0
 20 18  1  0  0  0  0
 20 19  1  1  0  0  0
 21  5  1  0  0  0  0
 24 27  1  0  0  0  0
 25 29  2  0  0  0  0
 25 24  1  0  0  0  0
 26 25  1  0  0  0  0
 28 22  1  6  0  0  0
 28 31  1  0  0  0  0
 28 26  1  0  0  0  0
 30 32  1  0  0  0  0
 31 23  1  6  0  0  0
 31 30  1  0  0  0  0
 32 24  1  0  0  0  0
 33 21  1  6  0  0  0
 33 23  1  0  0  0  0
 34 33  1  0  0  0  0
 34 22  1  0  0  0  0
M  END
>  <MODEL>
9

>  <REMARK>
 VINA RESULT:      -8.1      3.128      5.123
  Name = 
  2 active torsions:
  status: ('A' for Active; 'I' for Inactive)
    1  A    between atoms: N_8  and  C_18
    2  A    between atoms: C_18  and  C_30
                            x       y       z     vdW  Elec       q    Type
                         _______ _______ _______ _____ _____    ______ ____

>  <TORSDO>
F 2

$$$$
