=
 OpenBabel11052420413D

 43 48  0  0  1  0  0  0  0  0999 V2000
  184.8900  178.1210  145.8610 C   0  0  0  0  0  0  0  0  0  0  0  0
  188.8500  175.8930  143.7350 C   0  0  0  0  0  0  0  0  0  0  0  0
  190.9800  175.9730  145.5640 C   0  0  0  0  0  0  0  0  0  0  0  0
  186.3630  176.9840  144.3810 C   0  0  0  0  0  0  0  0  0  0  0  0
  185.8970  178.2120  146.8290 C   0  0  0  0  0  3  0  0  0  0  0  0
  183.5420  178.6900  146.1360 C   0  0  0  0  0  1  0  0  0  0  0  0
  187.4100  177.0460  145.3260 C   0  0  0  0  0  0  0  0  0  0  0  0
  185.1410  177.5150  144.6690 N   0  0  0  0  0  0  0  0  0  0  0  0
  187.1590  177.6720  146.5590 C   0  0  0  0  0  3  0  0  0  0  0  0
  189.7400  176.5250  145.9100 C   0  0  0  0  0  3  0  0  0  0  0  0
  188.6680  176.4900  145.0060 C   0  0  0  0  0  0  0  0  0  0  0  0
  187.8120  175.8540  142.8510 N   0  0  0  0  0  0  0  0  0  0  0  0
  190.0970  175.3480  143.3800 C   0  0  0  0  0  0  0  0  0  0  0  0
  191.1530  175.3980  144.3040 C   0  0  0  0  0  3  0  0  0  0  0  0
  186.5900  176.3790  143.1450 C   0  0  0  0  0  3  0  0  0  0  0  0
  192.1380  176.0060  146.5080 C   0  0  1  0  0  3  0  0  0  0  0  0
  191.8180  175.2320  147.7810 C   0  0  0  0  0  1  0  0  0  0  0  0
  193.3340  175.4700  145.8710 N   0  0  0  0  0  2  0  0  0  0  0  0
  194.5600  176.2040  145.8120 C   0  0  0  0  0  0  0  0  0  0  0  0
  194.6400  177.3590  146.3110 O   0  0  0  0  0  0  0  0  0  0  0  0
  195.7460  175.6150  145.1270 C   0  0  0  0  0  2  0  0  0  0  0  0
  195.5150  174.1390  144.8270 C   0  0  2  0  0  3  0  0  0  0  0  0
  197.1680  172.9300  143.5350 C   0  0  0  0  0  2  0  0  0  0  0  0
  195.9340  174.1670  141.0220 N   0  0  0  0  0  0  0  0  0  0  0  0
  195.2850  174.1120  142.3070 C   0  0  0  0  0  0  0  0  0  0  0  0
  196.3130  173.2810  145.7910 C   0  0  0  0  0  2  0  0  0  0  0  0
  196.0270  173.8240  143.5060 N   0  0  0  0  0  0  0  0  0  0  0  0
  195.8470  174.8160  138.7130 N   0  0  0  0  0  2  0  0  0  0  0  0
  197.9310  173.7950  139.6590 C   0  0  0  0  0  2  0  0  0  0  0  0
  197.0760  174.0690  138.4090 C   0  0  0  0  0  2  0  0  0  0  0  0
  197.3620  174.4460  140.9200 C   0  0  0  0  0  2  0  0  0  0  0  0
  195.1210  174.1570  139.7990 C   0  0  0  0  0  2  0  0  0  0  0  0
  194.0410  174.3250  142.3850 O   0  0  0  0  0  0  0  0  0  0  0  0
  197.4950  172.7240  145.0030 C   0  0  0  0  0  2  0  0  0  0  0  0
  190.2530  174.8020  142.0950 O   0  0  0  0  0  0  0  0  0  0  0  0
  191.3870  171.6950  140.3520 C   0  0  0  0  0  3  0  0  0  0  0  0
  190.8280  170.7240  141.1870 C   0  0  0  0  0  0  0  0  0  0  0  0
  189.9060  172.4700  142.5900 C   0  0  0  0  0  3  0  0  0  0  0  0
  191.2050  173.0530  140.6360 C   0  0  0  0  0  3  0  0  0  0  0  0
  190.4580  173.4510  141.7580 C   0  0  0  0  0  0  0  0  0  0  0  0
  190.0830  171.1140  142.3030 C   0  0  0  0  0  3  0  0  0  0  0  0
  192.3210  169.0490  140.3120 N   0  0  0  0  0  1  0  0  0  0  0  0
  191.0000  169.2760  140.8740 C   0  0  0  0  0  2  0  0  0  0  0  0
  1  6  1  0  0  0  0
  1  5  1  0  0  0  0
  2 11  1  0  0  0  0
  3 10  1  0  0  0  0
  3 16  1  0  0  0  0
  4  8  1  0  0  0  0
  4  7  2  0  0  0  0
  7  9  1  0  0  0  0
  8  1  2  0  0  0  0
  9  5  2  0  0  0  0
 11  7  1  0  0  0  0
 11 10  2  0  0  0  0
 12 15  2  0  0  0  0
 12  2  1  0  0  0  0
 13  2  2  0  0  0  0
 13 14  1  0  0  0  0
 14  3  2  0  0  0  0
 15  4  1  0  0  0  0
 16 17  1  1  0  0  0
 18 16  1  0  0  0  0
 19 18  1  0  0  0  0
 19 20  2  0  0  0  0
 21 19  1  0  0  0  0
 22 21  1  1  0  0  0
 22 26  1  0  0  0  0
 23 34  1  0  0  0  0
 24 25  1  0  0  0  0
 25 33  2  0  0  0  0
 25 27  1  0  0  0  0
 27 23  1  0  0  0  0
 27 22  1  0  0  0  0
 28 32  1  0  0  0  0
 29 31  1  0  0  0  0
 30 28  1  0  0  0  0
 30 29  1  0  0  0  0
 31 24  1  0  0  0  0
 32 24  1  0  0  0  0
 34 26  1  0  0  0  0
 35 13  1  0  0  0  0
 36 39  2  0  0  0  0
 36 37  1  0  0  0  0
 37 41  2  0  0  0  0
 39 40  1  0  0  0  0
 40 35  1  0  0  0  0
 40 38  2  0  0  0  0
 41 38  1  0  0  0  0
 42 43  1  0  0  0  0
 43 37  1  0  0  0  0
M  END
>  <MODEL>
1

>  <REMARK>
 VINA RESULT:      -7.9      0.000      0.000
  Name = 
  7 active torsions:
  status: ('A' for Active; 'I' for Inactive)
    1  A    between atoms: O_1  and  C_34
    2  A    between atoms: O_1  and  C_35
    3  A    between atoms: C_2  and  N_6
    4  A    between atoms: C_2  and  C_13
    5  A    between atoms: C_3  and  C_4
    6  A    between atoms: C_3  and  C_12
    7  A    between atoms: C_19  and  C_37
                            x       y       z     vdW  Elec       q    Type
                         _______ _______ _______ _____ _____    ______ ____

>  <TORSDO>
F 7

$$$$
=
 OpenBabel11052420413D

 43 48  0  0  1  0  0  0  0  0999 V2000
  190.1140  171.0910  137.1260 C   0  0  0  0  0  0  0  0  0  0  0  0
  188.4800  174.4520  140.4740 C   0  0  0  0  0  0  0  0  0  0  0  0
  189.2310  173.5680  143.0320 C   0  0  0  0  0  0  0  0  0  0  0  0
  189.1340  172.9740  138.1960 C   0  0  0  0  0  0  0  0  0  0  0  0
  190.5210  170.5730  138.3610 C   0  0  0  0  0  3  0  0  0  0  0  0
  190.4220  170.3500  135.8720 C   0  0  0  0  0  1  0  0  0  0  0  0
  189.5280  172.4970  139.4660 C   0  0  0  0  0  0  0  0  0  0  0  0
  189.4360  172.2700  137.0700 N   0  0  0  0  0  0  0  0  0  0  0  0
  190.2270  171.2790  139.5320 C   0  0  0  0  0  3  0  0  0  0  0  0
  189.5720  172.8110  141.9030 C   0  0  0  0  0  3  0  0  0  0  0  0
  189.2040  173.2430  140.6200 C   0  0  0  0  0  0  0  0  0  0  0  0
  188.1190  174.8780  139.2290 N   0  0  0  0  0  0  0  0  0  0  0  0
  188.1270  175.2060  141.6060 C   0  0  0  0  0  0  0  0  0  0  0  0
  188.5070  174.7510  142.8780 C   0  0  0  0  0  3  0  0  0  0  0  0
  188.4290  174.1740  138.1050 C   0  0  0  0  0  3  0  0  0  0  0  0
  189.6070  173.1240  144.4090 C   0  0  1  0  0  3  0  0  0  0  0  0
  189.7660  171.6100  144.4620 C   0  0  0  0  0  1  0  0  0  0  0  0
  190.8320  173.7820  144.8430 N   0  0  0  0  0  2  0  0  0  0  0  0
  190.9020  174.5380  146.0560 C   0  0  0  0  0  0  0  0  0  0  0  0
  189.8870  174.6630  146.7930 O   0  0  0  0  0  0  0  0  0  0  0  0
  192.1770  175.2100  146.4400 C   0  0  0  0  0  2  0  0  0  0  0  0
  192.2090  176.6390  145.9140 C   0  0  2  0  0  3  0  0  0  0  0  0
  192.1600  177.0130  143.5230 C   0  0  0  0  0  2  0  0  0  0  0  0
  195.1550  176.3790  143.4820 N   0  0  0  0  0  0  0  0  0  0  0  0
  194.4090  176.7230  144.6660 C   0  0  0  0  0  0  0  0  0  0  0  0
  190.8080  177.0930  145.5490 C   0  0  0  0  0  2  0  0  0  0  0  0
  192.9710  176.6880  144.6790 N   0  0  0  0  0  0  0  0  0  0  0  0
  197.2590  175.7930  142.4880 N   0  0  0  0  0  2  0  0  0  0  0  0
  195.1760  175.8470  141.0940 C   0  0  0  0  0  2  0  0  0  0  0  0
  196.7120  175.9440  141.1310 C   0  0  0  0  0  2  0  0  0  0  0  0
  194.5710  175.5190  142.4590 C   0  0  0  0  0  2  0  0  0  0  0  0
  196.5820  176.7140  143.4010 C   0  0  0  0  0  2  0  0  0  0  0  0
  195.0300  177.0600  145.7150 O   0  0  0  0  0  0  0  0  0  0  0  0
  190.7290  177.0830  144.0260 C   0  0  0  0  0  2  0  0  0  0  0  0
  187.3710  176.3780  141.4260 O   0  0  0  0  0  0  0  0  0  0  0  0
  186.4540  178.2940  144.5030 C   0  0  0  0  0  3  0  0  0  0  0  0
  185.0910  178.4950  144.2730 C   0  0  0  0  0  0  0  0  0  0  0  0
  185.2720  177.2920  142.1790 C   0  0  0  0  0  3  0  0  0  0  0  0
  187.2270  177.5920  143.5700 C   0  0  0  0  0  3  0  0  0  0  0  0
  186.6390  177.0810  142.4000 C   0  0  0  0  0  0  0  0  0  0  0  0
  184.5010  177.9880  143.1120 C   0  0  0  0  0  3  0  0  0  0  0  0
  184.2470  178.4850  146.5300 N   0  0  0  0  0  1  0  0  0  0  0  0
  184.2600  179.2220  145.2760 C   0  0  0  0  0  2  0  0  0  0  0  0
  1  5  1  0  0  0  0
  2 11  1  0  0  0  0
  2 13  1  0  0  0  0
  3 16  1  0  0  0  0
  4  7  1  0  0  0  0
  5  9  2  0  0  0  0
  6  1  1  0  0  0  0
  7  9  1  0  0  0  0
  7 11  2  0  0  0  0
  8  1  2  0  0  0  0
  8  4  1  0  0  0  0
 10  3  2  0  0  0  0
 11 10  1  0  0  0  0
 12  2  2  0  0  0  0
 13 14  2  0  0  0  0
 14  3  1  0  0  0  0
 15  4  2  0  0  0  0
 15 12  1  0  0  0  0
 16 17  1  6  0  0  0
 16 18  1  0  0  0  0
 18 19  1  0  0  0  0
 19 21  1  0  0  0  0
 19 20  2  0  0  0  0
 22 21  1  6  0  0  0
 23 34  1  0  0  0  0
 23 27  1  0  0  0  0
 24 25  1  0  0  0  0
 25 27  1  0  0  0  0
 25 33  2  0  0  0  0
 26 22  1  0  0  0  0
 27 22  1  0  0  0  0
 28 32  1  0  0  0  0
 29 30  1  0  0  0  0
 29 31  1  0  0  0  0
 30 28  1  0  0  0  0
 31 24  1  0  0  0  0
 32 24  1  0  0  0  0
 34 26  1  0  0  0  0
 35 13  1  0  0  0  0
 35 40  1  0  0  0  0
 37 36  1  0  0  0  0
 37 43  1  0  0  0  0
 38 40  2  0  0  0  0
 38 41  1  0  0  0  0
 39 36  2  0  0  0  0
 40 39  1  0  0  0  0
 41 37  2  0  0  0  0
 43 42  1  0  0  0  0
M  END
>  <MODEL>
2

>  <REMARK>
 VINA RESULT:      -7.8      2.489      7.127
  Name = 
  7 active torsions:
  status: ('A' for Active; 'I' for Inactive)
    1  A    between atoms: O_1  and  C_34
    2  A    between atoms: O_1  and  C_35
    3  A    between atoms: C_2  and  N_6
    4  A    between atoms: C_2  and  C_13
    5  A    between atoms: C_3  and  C_4
    6  A    between atoms: C_3  and  C_12
    7  A    between atoms: C_19  and  C_37
                            x       y       z     vdW  Elec       q    Type
                         _______ _______ _______ _____ _____    ______ ____

>  <TORSDO>
F 7

$$$$
=
 OpenBabel11052420413D

 43 48  0  0  1  0  0  0  0  0999 V2000
  196.2340  174.2450  144.9310 C   0  0  0  0  0  0  0  0  0  0  0  0
  191.3790  175.4350  145.3600 C   0  0  0  0  0  0  0  0  0  0  0  0
  189.9660  174.0620  143.3590 C   0  0  0  0  0  0  0  0  0  0  0  0
  194.1450  175.1490  145.6170 C   0  0  0  0  0  0  0  0  0  0  0  0
  195.6120  173.5290  143.9010 C   0  0  0  0  0  3  0  0  0  0  0  0
  197.7070  174.1450  145.1190 C   0  0  0  0  0  1  0  0  0  0  0  0
  193.4700  174.4440  144.5970 C   0  0  0  0  0  0  0  0  0  0  0  0
  195.4950  175.0320  145.7600 N   0  0  0  0  0  0  0  0  0  0  0  0
  194.2260  173.6300  143.7360 C   0  0  0  0  0  3  0  0  0  0  0  0
  191.3540  173.9010  143.4700 C   0  0  0  0  0  3  0  0  0  0  0  0
  192.0700  174.5810  144.4670 C   0  0  0  0  0  0  0  0  0  0  0  0
  192.0700  176.0980  146.3320 N   0  0  0  0  0  0  0  0  0  0  0  0
  189.9890  175.6060  145.2430 C   0  0  0  0  0  0  0  0  0  0  0  0
  189.2960  174.9160  144.2370 C   0  0  0  0  0  3  0  0  0  0  0  0
  193.4180  175.9720  146.4760 C   0  0  0  0  0  3  0  0  0  0  0  0
  189.1830  173.3540  142.3000 C   0  0  1  0  0  3  0  0  0  0  0  0
  187.8260  174.0170  142.0990 C   0  0  0  0  0  1  0  0  0  0  0  0
  189.9270  173.3230  141.0480 N   0  0  0  0  0  2  0  0  0  0  0  0
  190.5530  172.1320  140.5630 C   0  0  0  0  0  0  0  0  0  0  0  0
  190.4830  171.0580  141.2190 O   0  0  0  0  0  0  0  0  0  0  0  0
  191.3220  172.1640  139.2850 C   0  0  0  0  0  2  0  0  0  0  0  0
  191.3830  173.5820  138.7310 C   0  0  2  0  0  3  0  0  0  0  0  0
  193.1230  174.1500  137.1460 C   0  0  0  0  0  2  0  0  0  0  0  0
  195.0300  174.4400  139.5230 N   0  0  0  0  0  0  0  0  0  0  0  0
  193.5920  174.4340  139.6250 C   0  0  0  0  0  0  0  0  0  0  0  0
  190.7500  173.6320  137.3530 C   0  0  0  0  0  2  0  0  0  0  0  0
  192.7690  173.9720  138.5400 N   0  0  0  0  0  0  0  0  0  0  0  0
  197.1580  174.6030  140.6200 N   0  0  0  0  0  2  0  0  0  0  0  0
  197.0390  174.1680  138.1550 C   0  0  0  0  0  2  0  0  0  0  0  0
  197.8640  174.7130  139.3350 C   0  0  0  0  0  2  0  0  0  0  0  0
  195.7130  173.5470  138.5950 C   0  0  0  0  0  2  0  0  0  0  0  0
  195.8230  175.1900  140.5050 C   0  0  0  0  0  2  0  0  0  0  0  0
  193.0440  174.8380  140.6900 O   0  0  0  0  0  0  0  0  0  0  0  0
  191.8950  173.7440  136.3510 C   0  0  0  0  0  2  0  0  0  0  0  0
  189.3430  176.4950  146.1200 O   0  0  0  0  0  0  0  0  0  0  0  0
  185.7340  177.2130  146.7850 C   0  0  0  0  0  3  0  0  0  0  0  0
  185.4560  178.0840  145.7290 C   0  0  0  0  0  0  0  0  0  0  0  0
  187.7440  177.8780  144.9630 C   0  0  0  0  0  3  0  0  0  0  0  0
  187.0180  176.6740  146.9300 C   0  0  0  0  0  3  0  0  0  0  0  0
  188.0340  177.0000  146.0150 C   0  0  0  0  0  0  0  0  0  0  0  0
  186.4620  178.4110  144.8160 C   0  0  0  0  0  3  0  0  0  0  0  0
  183.9010  179.0890  144.1880 N   0  0  0  0  0  1  0  0  0  0  0  0
  184.0830  178.6410  145.5590 C   0  0  0  0  0  2  0  0  0  0  0  0
  1  6  1  0  0  0  0
  1  8  1  0  0  0  0
  2 12  1  0  0  0  0
  3 10  2  0  0  0  0
  3 14  1  0  0  0  0
  4  8  2  0  0  0  0
  4 15  1  0  0  0  0
  5  1  2  0  0  0  0
  7  4  1  0  0  0  0
  9  5  1  0  0  0  0
  9  7  2  0  0  0  0
 10 11  1  0  0  0  0
 11  7  1  0  0  0  0
 11  2  2  0  0  0  0
 12 15  2  0  0  0  0
 13  2  1  0  0  0  0
 13 35  1  0  0  0  0
 14 13  2  0  0  0  0
 16 17  1  6  0  0  0
 16  3  1  0  0  0  0
 18 16  1  0  0  0  0
 19 18  1  0  0  0  0
 19 20  2  0  0  0  0
 21 19  1  0  0  0  0
 22 21  1  6  0  0  0
 23 27  1  0  0  0  0
 24 25  1  0  0  0  0
 24 32  1  0  0  0  0
 25 33  2  0  0  0  0
 26 22  1  0  0  0  0
 27 22  1  0  0  0  0
 27 25  1  0  0  0  0
 29 31  1  0  0  0  0
 29 30  1  0  0  0  0
 30 28  1  0  0  0  0
 31 24  1  0  0  0  0
 32 28  1  0  0  0  0
 34 23  1  0  0  0  0
 34 26  1  0  0  0  0
 36 39  1  0  0  0  0
 37 36  2  0  0  0  0
 38 40  1  0  0  0  0
 40 35  1  0  0  0  0
 40 39  2  0  0  0  0
 41 38  2  0  0  0  0
 41 37  1  0  0  0  0
 42 43  1  0  0  0  0
 43 37  1  0  0  0  0
M  END
>  <MODEL>
3

>  <REMARK>
 VINA RESULT:      -7.7      2.003      7.555
  Name = 
  7 active torsions:
  status: ('A' for Active; 'I' for Inactive)
    1  A    between atoms: O_1  and  C_34
    2  A    between atoms: O_1  and  C_35
    3  A    between atoms: C_2  and  N_6
    4  A    between atoms: C_2  and  C_13
    5  A    between atoms: C_3  and  C_4
    6  A    between atoms: C_3  and  C_12
    7  A    between atoms: C_19  and  C_37
                            x       y       z     vdW  Elec       q    Type
                         _______ _______ _______ _____ _____    ______ ____

>  <TORSDO>
F 7

$$$$
=
 OpenBabel11052420413D

 43 48  0  0  1  0  0  0  0  0999 V2000
  195.7660  173.9270  145.6560 C   0  0  0  0  0  0  0  0  0  0  0  0
  191.3430  175.6820  144.0680 C   0  0  0  0  0  0  0  0  0  0  0  0
  189.9200  173.5490  142.9220 C   0  0  0  0  0  0  0  0  0  0  0  0
  193.8910  175.2950  145.1410 C   0  0  0  0  0  0  0  0  0  0  0  0
  195.1320  172.8100  145.0990 C   0  0  0  0  0  3  0  0  0  0  0  0
  197.1290  173.7930  146.2390 C   0  0  0  0  0  1  0  0  0  0  0  0
  193.2080  174.1990  144.5720 C   0  0  0  0  0  0  0  0  0  0  0  0
  195.1380  175.1350  145.6660 N   0  0  0  0  0  0  0  0  0  0  0  0
  193.8500  172.9480  144.5560 C   0  0  0  0  0  3  0  0  0  0  0  0
  191.1970  173.3310  143.4560 C   0  0  0  0  0  3  0  0  0  0  0  0
  191.9170  174.3890  144.0330 C   0  0  0  0  0  0  0  0  0  0  0  0
  192.0370  176.7150  144.6270 N   0  0  0  0  0  0  0  0  0  0  0  0
  190.0670  175.9060  143.5220 C   0  0  0  0  0  0  0  0  0  0  0  0
  189.3690  174.8310  142.9500 C   0  0  0  0  0  3  0  0  0  0  0  0
  193.2800  176.5480  145.1570 C   0  0  0  0  0  3  0  0  0  0  0  0
  189.1380  172.4390  142.2960 C   0  0  1  0  0  3  0  0  0  0  0  0
  187.7050  172.8770  142.0230 C   0  0  0  0  0  1  0  0  0  0  0  0
  189.7790  171.9920  141.0660 N   0  0  0  0  0  2  0  0  0  0  0  0
  190.5060  170.7630  140.9900 C   0  0  0  0  0  0  0  0  0  0  0  0
  190.6220  170.0220  142.0030 O   0  0  0  0  0  0  0  0  0  0  0  0
  191.1610  170.3660  139.7100 C   0  0  0  0  0  2  0  0  0  0  0  0
  190.5340  171.1040  138.5340 C   0  0  2  0  0  3  0  0  0  0  0  0
  191.7460  171.2250  136.4420 C   0  0  0  0  0  2  0  0  0  0  0  0
  193.3920  173.4990  137.6620 N   0  0  0  0  0  0  0  0  0  0  0  0
  192.1270  173.0380  138.1780 C   0  0  0  0  0  0  0  0  0  0  0  0
  189.8970  170.1150  137.5780 C   0  0  0  0  0  2  0  0  0  0  0  0
  191.5710  171.7760  137.7710 N   0  0  0  0  0  0  0  0  0  0  0  0
  195.2420  175.0170  137.8380 N   0  0  0  0  0  2  0  0  0  0  0  0
  195.2410  173.2280  136.0840 C   0  0  0  0  0  2  0  0  0  0  0  0
  195.7640  174.6060  136.5270 C   0  0  0  0  0  2  0  0  0  0  0  0
  194.3750  172.5530  137.1480 C   0  0  0  0  0  2  0  0  0  0  0  0
  193.7830  174.9020  137.8510 C   0  0  0  0  0  2  0  0  0  0  0  0
  191.4960  173.7540  139.0070 O   0  0  0  0  0  0  0  0  0  0  0  0
  190.8170  170.0260  136.3640 C   0  0  0  0  0  2  0  0  0  0  0  0
  189.5470  177.2120  143.5350 O   0  0  0  0  0  0  0  0  0  0  0  0
  186.6640  177.9380  145.8030 C   0  0  0  0  0  3  0  0  0  0  0  0
  185.7740  178.5180  144.8950 C   0  0  0  0  0  0  0  0  0  0  0  0
  187.3960  178.2160  143.1210 C   0  0  0  0  0  3  0  0  0  0  0  0
  187.9200  177.4970  145.3690 C   0  0  0  0  0  3  0  0  0  0  0  0
  188.2940  177.6290  144.0210 C   0  0  0  0  0  0  0  0  0  0  0  0
  186.1410  178.6510  143.5530 C   0  0  0  0  0  3  0  0  0  0  0  0
  184.0530  178.2530  146.5580 N   0  0  0  0  0  1  0  0  0  0  0  0
  184.4270  178.9670  145.3490 C   0  0  0  0  0  2  0  0  0  0  0  0
  1  8  1  0  0  0  0
  1  6  1  0  0  0  0
  2 12  1  0  0  0  0
  3 14  2  0  0  0  0
  3 10  1  0  0  0  0
  4 15  1  0  0  0  0
  4  8  2  0  0  0  0
  5  1  2  0  0  0  0
  7  4  1  0  0  0  0
  9  7  2  0  0  0  0
  9  5  1  0  0  0  0
 10 11  2  0  0  0  0
 11  2  1  0  0  0  0
 11  7  1  0  0  0  0
 12 15  2  0  0  0  0
 13 35  1  0  0  0  0
 13  2  2  0  0  0  0
 14 13  1  0  0  0  0
 16 17  1  6  0  0  0
 16  3  1  0  0  0  0
 18 16  1  0  0  0  0
 19 18  1  0  0  0  0
 19 20  2  0  0  0  0
 21 19  1  0  0  0  0
 22 21  1  1  0  0  0
 23 27  1  0  0  0  0
 24 32  1  0  0  0  0
 24 25  1  0  0  0  0
 25 33  2  0  0  0  0
 26 22  1  0  0  0  0
 27 25  1  0  0  0  0
 27 22  1  0  0  0  0
 28 32  1  0  0  0  0
 29 30  1  0  0  0  0
 29 31  1  0  0  0  0
 30 28  1  0  0  0  0
 31 24  1  0  0  0  0
 34 23  1  0  0  0  0
 34 26  1  0  0  0  0
 35 40  1  0  0  0  0
 37 43  1  0  0  0  0
 37 36  2  0  0  0  0
 38 41  2  0  0  0  0
 38 40  1  0  0  0  0
 39 36  1  0  0  0  0
 40 39  2  0  0  0  0
 41 37  1  0  0  0  0
 43 42  1  0  0  0  0
M  END
>  <MODEL>
4

>  <REMARK>
 VINA RESULT:      -7.6      2.413      7.741
  Name = 
  7 active torsions:
  status: ('A' for Active; 'I' for Inactive)
    1  A    between atoms: O_1  and  C_34
    2  A    between atoms: O_1  and  C_35
    3  A    between atoms: C_2  and  N_6
    4  A    between atoms: C_2  and  C_13
    5  A    between atoms: C_3  and  C_4
    6  A    between atoms: C_3  and  C_12
    7  A    between atoms: C_19  and  C_37
                            x       y       z     vdW  Elec       q    Type
                         _______ _______ _______ _____ _____    ______ ____

>  <TORSDO>
F 7

$$$$
=
 OpenBabel11052420413D

 43 48  0  0  1  0  0  0  0  0999 V2000
  190.7140  175.4370  146.9290 C   0  0  0  0  0  0  0  0  0  0  0  0
  188.0800  176.7850  142.8780 C   0  0  0  0  0  0  0  0  0  0  0  0
  188.5170  174.8640  140.8760 C   0  0  0  0  0  0  0  0  0  0  0  0
  189.2930  176.5500  145.3820 C   0  0  0  0  0  0  0  0  0  0  0  0
  190.9930  174.4390  145.9900 C   0  0  0  0  0  3  0  0  0  0  0  0
  191.3340  175.3780  148.2820 C   0  0  0  0  0  1  0  0  0  0  0  0
  189.5390  175.5650  144.4000 C   0  0  0  0  0  0  0  0  0  0  0  0
  189.8770  176.4620  146.6100 N   0  0  0  0  0  0  0  0  0  0  0  0
  190.4030  174.5040  144.7230 C   0  0  0  0  0  3  0  0  0  0  0  0
  189.1350  174.7240  142.1260 C   0  0  0  0  0  3  0  0  0  0  0  0
  188.9230  175.6770  143.1350 C   0  0  0  0  0  0  0  0  0  0  0  0
  187.8690  177.7140  143.8540 N   0  0  0  0  0  0  0  0  0  0  0  0
  187.4680  176.9330  141.6210 C   0  0  0  0  0  0  0  0  0  0  0  0
  187.6980  175.9670  140.6290 C   0  0  0  0  0  3  0  0  0  0  0  0
  188.4490  177.6190  145.0820 C   0  0  0  0  0  3  0  0  0  0  0  0
  188.7350  173.8660  139.7850 C   0  0  1  0  0  3  0  0  0  0  0  0
  188.0710  174.3260  138.4930 C   0  0  0  0  0  1  0  0  0  0  0  0
  190.1590  173.6400  139.5750 N   0  0  0  0  0  2  0  0  0  0  0  0
  190.8190  172.4570  140.0350 C   0  0  0  0  0  0  0  0  0  0  0  0
  190.1780  171.5640  140.6510 O   0  0  0  0  0  0  0  0  0  0  0  0
  192.2840  172.2890  139.8120 C   0  0  0  0  0  2  0  0  0  0  0  0
  192.9320  173.6260  139.4740 C   0  0  2  0  0  3  0  0  0  0  0  0
  195.2800  173.9510  139.9690 C   0  0  0  0  0  2  0  0  0  0  0  0
  194.4710  174.4880  142.8720 N   0  0  0  0  0  0  0  0  0  0  0  0
  193.5660  174.5290  141.7520 C   0  0  0  0  0  0  0  0  0  0  0  0
  193.6960  173.5190  138.1680 C   0  0  0  0  0  2  0  0  0  0  0  0
  193.9240  173.9550  140.4820 N   0  0  0  0  0  0  0  0  0  0  0  0
  194.8140  174.7350  145.2340 N   0  0  0  0  0  2  0  0  0  0  0  0
  196.6990  174.0010  143.7550 C   0  0  0  0  0  2  0  0  0  0  0  0
  196.2730  174.6680  145.0760 C   0  0  0  0  0  2  0  0  0  0  0  0
  195.5130  173.4710  142.9500 C   0  0  0  0  0  2  0  0  0  0  0  0
  194.2120  175.3350  144.0440 C   0  0  0  0  0  2  0  0  0  0  0  0
  192.4330  175.0750  141.8870 O   0  0  0  0  0  0  0  0  0  0  0  0
  195.1770  173.4790  138.5300 C   0  0  0  0  0  2  0  0  0  0  0  0
  186.6720  178.0680  141.3880 O   0  0  0  0  0  0  0  0  0  0  0  0
  183.1230  178.0510  140.2110 C   0  0  0  0  0  3  0  0  0  0  0  0
  182.4600  178.2670  141.4210 C   0  0  0  0  0  0  0  0  0  0  0  0
  184.5910  178.3490  142.5690 C   0  0  0  0  0  3  0  0  0  0  0  0
  184.5210  177.9840  140.1800 C   0  0  0  0  0  3  0  0  0  0  0  0
  185.2670  178.1370  141.3610 C   0  0  0  0  0  0  0  0  0  0  0  0
  183.1970  178.4210  142.5990 C   0  0  0  0  0  3  0  0  0  0  0  0
  180.5660  179.4050  142.3810 N   0  0  0  0  0  1  0  0  0  0  0  0
  180.9720  178.3620  141.4540 C   0  0  0  0  0  2  0  0  0  0  0  0
  1  6  1  0  0  0  0
  2 11  1  0  0  0  0
  2 12  1  0  0  0  0
  3 10  1  0  0  0  0
  4  8  2  0  0  0  0
  5  1  2  0  0  0  0
  7  9  2  0  0  0  0
  7  4  1  0  0  0  0
  8  1  1  0  0  0  0
  9  5  1  0  0  0  0
 10 11  2  0  0  0  0
 11  7  1  0  0  0  0
 12 15  2  0  0  0  0
 13  2  2  0  0  0  0
 14  3  2  0  0  0  0
 14 13  1  0  0  0  0
 15  4  1  0  0  0  0
 16 17  1  6  0  0  0
 16  3  1  0  0  0  0
 18 16  1  0  0  0  0
 18 19  1  0  0  0  0
 19 20  2  0  0  0  0
 21 19  1  0  0  0  0
 22 21  1  1  0  0  0
 22 27  1  0  0  0  0
 23 27  1  0  0  0  0
 24 31  1  0  0  0  0
 24 32  1  0  0  0  0
 25 33  2  0  0  0  0
 25 24  1  0  0  0  0
 26 34  1  0  0  0  0
 26 22  1  0  0  0  0
 27 25  1  0  0  0  0
 29 30  1  0  0  0  0
 30 28  1  0  0  0  0
 31 29  1  0  0  0  0
 32 28  1  0  0  0  0
 34 23  1  0  0  0  0
 35 13  1  0  0  0  0
 36 37  1  0  0  0  0
 37 43  1  0  0  0  0
 37 41  2  0  0  0  0
 38 41  1  0  0  0  0
 39 36  2  0  0  0  0
 39 40  1  0  0  0  0
 40 35  1  0  0  0  0
 40 38  2  0  0  0  0
 43 42  1  0  0  0  0
M  END
>  <MODEL>
5

>  <REMARK>
 VINA RESULT:      -7.6      2.727      6.904
  Name = 
  7 active torsions:
  status: ('A' for Active; 'I' for Inactive)
    1  A    between atoms: O_1  and  C_34
    2  A    between atoms: O_1  and  C_35
    3  A    between atoms: C_2  and  N_6
    4  A    between atoms: C_2  and  C_13
    5  A    between atoms: C_3  and  C_4
    6  A    between atoms: C_3  and  C_12
    7  A    between atoms: C_19  and  C_37
                            x       y       z     vdW  Elec       q    Type
                         _______ _______ _______ _____ _____    ______ ____

>  <TORSDO>
F 7

$$$$
=
 OpenBabel11052420413D

 43 48  0  0  1  0  0  0  0  0999 V2000
  189.9430  171.1950  137.5430 C   0  0  0  0  0  0  0  0  0  0  0  0
  188.5670  174.7860  140.7640 C   0  0  0  0  0  0  0  0  0  0  0  0
  189.7260  174.2110  143.2570 C   0  0  0  0  0  0  0  0  0  0  0  0
  188.9960  173.1220  138.5640 C   0  0  0  0  0  0  0  0  0  0  0  0
  190.5530  170.8280  138.7480 C   0  0  0  0  0  3  0  0  0  0  0  0
  190.1230  170.3480  136.3320 C   0  0  0  0  0  1  0  0  0  0  0  0
  189.5940  172.7990  139.8010 C   0  0  0  0  0  0  0  0  0  0  0  0
  189.1850  172.3240  137.4760 N   0  0  0  0  0  0  0  0  0  0  0  0
  190.3770  171.6340  139.8790 C   0  0  0  0  0  3  0  0  0  0  0  0
  189.9570  173.3620  142.1660 C   0  0  0  0  0  3  0  0  0  0  0  0
  189.3840  173.6400  140.9150 C   0  0  0  0  0  0  0  0  0  0  0  0
  188.0080  175.0630  139.5510 N   0  0  0  0  0  0  0  0  0  0  0  0
  188.3240  175.6330  141.8600 C   0  0  0  0  0  0  0  0  0  0  0  0
  188.9080  175.3310  143.1000 C   0  0  0  0  0  3  0  0  0  0  0  0
  188.2050  174.2660  138.4650 C   0  0  0  0  0  3  0  0  0  0  0  0
  190.3190  173.9300  144.6000 C   0  0  1  0  0  3  0  0  0  0  0  0
  190.0030  172.5080  145.0430 C   0  0  0  0  0  1  0  0  0  0  0  0
  191.7590  174.1510  144.5800 N   0  0  0  0  0  2  0  0  0  0  0  0
  192.3390  175.4230  144.8820 C   0  0  0  0  0  0  0  0  0  0  0  0
  191.6090  176.4080  145.1730 O   0  0  0  0  0  0  0  0  0  0  0  0
  193.8190  175.5970  144.8240 C   0  0  0  0  0  2  0  0  0  0  0  0
  194.5090  174.2560  144.6070 C   0  0  2  0  0  3  0  0  0  0  0  0
  196.7660  174.2250  143.7310 C   0  0  0  0  0  2  0  0  0  0  0  0
  195.5640  174.6430  140.9470 N   0  0  0  0  0  0  0  0  0  0  0  0
  194.8230  174.1910  142.0970 C   0  0  0  0  0  0  0  0  0  0  0  0
  195.4460  173.9600  145.7630 C   0  0  0  0  0  2  0  0  0  0  0  0
  195.3520  174.3270  143.4270 N   0  0  0  0  0  0  0  0  0  0  0  0
  195.5780  175.2110  138.6160 N   0  0  0  0  0  2  0  0  0  0  0  0
  197.6490  175.5000  139.9960 C   0  0  0  0  0  2  0  0  0  0  0  0
  197.0450  175.2900  138.5960 C   0  0  0  0  0  2  0  0  0  0  0  0
  196.5840  175.6770  141.0790 C   0  0  0  0  0  2  0  0  0  0  0  0
  195.1470  174.2220  139.6040 C   0  0  0  0  0  2  0  0  0  0  0  0
  193.6830  173.6680  141.9350 O   0  0  0  0  0  0  0  0  0  0  0  0
  196.8630  174.1870  145.2460 C   0  0  0  0  0  2  0  0  0  0  0  0
  187.4730  176.7370  141.6840 O   0  0  0  0  0  0  0  0  0  0  0  0
  184.4170  178.1060  143.3490 C   0  0  0  0  0  3  0  0  0  0  0  0
  184.9410  178.4240  144.6050 C   0  0  0  0  0  0  0  0  0  0  0  0
  187.1140  177.6240  143.8950 C   0  0  0  0  0  3  0  0  0  0  0  0
  185.2430  177.5470  142.3660 C   0  0  0  0  0  3  0  0  0  0  0  0
  186.6020  177.3060  142.6320 C   0  0  0  0  0  0  0  0  0  0  0  0
  186.2920  178.1870  144.8740 C   0  0  0  0  0  3  0  0  0  0  0  0
  184.4870  178.5930  146.9650 N   0  0  0  0  0  1  0  0  0  0  0  0
  184.0690  179.0410  145.6460 C   0  0  0  0  0  2  0  0  0  0  0  0
  1  5  1  0  0  0  0
  2 11  1  0  0  0  0
  2 13  1  0  0  0  0
  3 16  1  0  0  0  0
  4  7  1  0  0  0  0
  5  9  2  0  0  0  0
  6  1  1  0  0  0  0
  7  9  1  0  0  0  0
  7 11  2  0  0  0  0
  8  1  2  0  0  0  0
  8  4  1  0  0  0  0
 10  3  2  0  0  0  0
 11 10  1  0  0  0  0
 12  2  2  0  0  0  0
 13 14  2  0  0  0  0
 14  3  1  0  0  0  0
 15  4  2  0  0  0  0
 15 12  1  0  0  0  0
 16 17  1  6  0  0  0
 18 16  1  0  0  0  0
 18 19  1  0  0  0  0
 19 20  2  0  0  0  0
 21 19  1  0  0  0  0
 22 21  1  1  0  0  0
 22 26  1  0  0  0  0
 23 34  1  0  0  0  0
 24 31  1  0  0  0  0
 24 25  1  0  0  0  0
 25 27  1  0  0  0  0
 27 23  1  0  0  0  0
 27 22  1  0  0  0  0
 28 32  1  0  0  0  0
 29 31  1  0  0  0  0
 30 28  1  0  0  0  0
 30 29  1  0  0  0  0
 32 24  1  0  0  0  0
 33 25  2  0  0  0  0
 34 26  1  0  0  0  0
 35 13  1  0  0  0  0
 35 40  1  0  0  0  0
 36 37  1  0  0  0  0
 37 41  2  0  0  0  0
 37 43  1  0  0  0  0
 38 41  1  0  0  0  0
 39 40  1  0  0  0  0
 39 36  2  0  0  0  0
 40 38  2  0  0  0  0
 43 42  1  0  0  0  0
M  END
>  <MODEL>
6

>  <REMARK>
 VINA RESULT:      -7.6      2.133      6.396
  Name = 
  7 active torsions:
  status: ('A' for Active; 'I' for Inactive)
    1  A    between atoms: O_1  and  C_34
    2  A    between atoms: O_1  and  C_35
    3  A    between atoms: C_2  and  N_6
    4  A    between atoms: C_2  and  C_13
    5  A    between atoms: C_3  and  C_4
    6  A    between atoms: C_3  and  C_12
    7  A    between atoms: C_19  and  C_37
                            x       y       z     vdW  Elec       q    Type
                         _______ _______ _______ _____ _____    ______ ____

>  <TORSDO>
F 7

$$$$
=
 OpenBabel11052420413D

 43 48  0  0  1  0  0  0  0  0999 V2000
  186.2970  178.0660  146.2190 C   0  0  0  0  0  0  0  0  0  0  0  0
  188.5190  175.2290  142.7290 C   0  0  0  0  0  0  0  0  0  0  0  0
  190.4740  173.6600  143.9970 C   0  0  0  0  0  0  0  0  0  0  0  0
  186.9410  177.0110  144.1880 C   0  0  0  0  0  0  0  0  0  0  0  0
  187.2510  177.3300  146.9300 C   0  0  0  0  0  3  0  0  0  0  0  0
  185.4270  179.0410  146.9330 C   0  0  0  0  0  1  0  0  0  0  0  0
  187.9150  176.2420  144.8610 C   0  0  0  0  0  0  0  0  0  0  0  0
  186.1620  177.8930  144.8750 N   0  0  0  0  0  0  0  0  0  0  0  0
  188.0610  176.4160  146.2480 C   0  0  0  0  0  3  0  0  0  0  0  0
  189.6920  174.5470  144.7500 C   0  0  0  0  0  3  0  0  0  0  0  0
  188.7120  175.3350  144.1280 C   0  0  0  0  0  0  0  0  0  0  0  0
  187.5680  175.9910  142.1180 N   0  0  0  0  0  0  0  0  0  0  0  0
  189.3100  174.3490  141.9700 C   0  0  0  0  0  0  0  0  0  0  0  0
  190.2850  173.5730  142.6170 C   0  0  0  0  0  3  0  0  0  0  0  0
  186.7860  176.8660  142.8100 C   0  0  0  0  0  3  0  0  0  0  0  0
  191.5290  172.8180  144.6380 C   0  0  1  0  0  3  0  0  0  0  0  0
  191.5690  171.4320  144.0070 C   0  0  0  0  0  1  0  0  0  0  0  0
  192.8320  173.4630  144.5360 N   0  0  0  0  0  2  0  0  0  0  0  0
  193.3430  174.3150  145.5650 C   0  0  0  0  0  0  0  0  0  0  0  0
  192.6670  174.5400  146.6050 O   0  0  0  0  0  0  0  0  0  0  0  0
  194.6730  174.9670  145.3970 C   0  0  0  0  0  2  0  0  0  0  0  0
  194.5230  176.3270  144.7260 C   0  0  2  0  0  3  0  0  0  0  0  0
  193.3430  176.4720  142.6170 C   0  0  0  0  0  2  0  0  0  0  0  0
  195.9060  175.5030  141.2520 N   0  0  0  0  0  0  0  0  0  0  0  0
  195.8460  176.0420  142.5880 C   0  0  0  0  0  0  0  0  0  0  0  0
  193.1460  176.8980  145.0090 C   0  0  0  0  0  2  0  0  0  0  0  0
  194.5940  176.1700  143.2850 N   0  0  0  0  0  0  0  0  0  0  0  0
  197.2330  174.5910  139.4730 N   0  0  0  0  0  2  0  0  0  0  0  0
  194.7430  174.7460  139.2380 C   0  0  0  0  0  2  0  0  0  0  0  0
  196.1080  174.6710  138.5310 C   0  0  0  0  0  2  0  0  0  0  0  0
  194.8560  174.6210  140.7580 C   0  0  0  0  0  2  0  0  0  0  0  0
  197.1320  175.6660  140.4600 C   0  0  0  0  0  2  0  0  0  0  0  0
  196.9130  176.4050  143.1600 O   0  0  0  0  0  0  0  0  0  0  0  0
  192.3400  176.7520  143.7220 C   0  0  0  0  0  2  0  0  0  0  0  0
  189.1210  174.3020  140.5780 O   0  0  0  0  0  0  0  0  0  0  0  0
  191.5710  172.8360  138.1630 C   0  0  0  0  0  3  0  0  0  0  0  0
  190.9250  171.6380  137.8510 C   0  0  0  0  0  0  0  0  0  0  0  0
  189.1110  172.2340  139.3410 C   0  0  0  0  0  3  0  0  0  0  0  0
  190.9870  173.7330  139.0650 C   0  0  0  0  0  3  0  0  0  0  0  0
  189.7470  173.4400  139.6590 C   0  0  0  0  0  0  0  0  0  0  0  0
  189.6910  171.3410  138.4380 C   0  0  0  0  0  3  0  0  0  0  0  0
  190.7500  169.4670  136.8220 N   0  0  0  0  0  1  0  0  0  0  0  0
  191.5340  170.6900  136.8730 C   0  0  0  0  0  2  0  0  0  0  0  0
  1  5  1  0  0  0  0
  1  6  1  0  0  0  0
  2 11  1  0  0  0  0
  3 16  1  0  0  0  0
  3 10  1  0  0  0  0
  4  7  2  0  0  0  0
  4  8  1  0  0  0  0
  7  9  1  0  0  0  0
  8  1  2  0  0  0  0
  9  5  2  0  0  0  0
 11 10  2  0  0  0  0
 11  7  1  0  0  0  0
 12  2  1  0  0  0  0
 12 15  2  0  0  0  0
 13 14  1  0  0  0  0
 13  2  2  0  0  0  0
 14  3  2  0  0  0  0
 15  4  1  0  0  0  0
 16 17  1  6  0  0  0
 18 16  1  0  0  0  0
 18 19  1  0  0  0  0
 19 20  2  0  0  0  0
 21 19  1  0  0  0  0
 22 26  1  0  0  0  0
 22 21  1  1  0  0  0
 23 27  1  0  0  0  0
 23 34  1  0  0  0  0
 24 25  1  0  0  0  0
 25 33  2  0  0  0  0
 25 27  1  0  0  0  0
 27 22  1  0  0  0  0
 28 32  1  0  0  0  0
 29 31  1  0  0  0  0
 30 29  1  0  0  0  0
 30 28  1  0  0  0  0
 31 24  1  0  0  0  0
 32 24  1  0  0  0  0
 34 26  1  0  0  0  0
 35 13  1  0  0  0  0
 36 39  1  0  0  0  0
 37 36  2  0  0  0  0
 37 41  1  0  0  0  0
 38 40  1  0  0  0  0
 39 40  2  0  0  0  0
 40 35  1  0  0  0  0
 41 38  2  0  0  0  0
 42 43  1  0  0  0  0
 43 37  1  0  0  0  0
M  END
>  <MODEL>
7

>  <REMARK>
 VINA RESULT:      -7.6      2.063      2.879
  Name = 
  7 active torsions:
  status: ('A' for Active; 'I' for Inactive)
    1  A    between atoms: O_1  and  C_34
    2  A    between atoms: O_1  and  C_35
    3  A    between atoms: C_2  and  N_6
    4  A    between atoms: C_2  and  C_13
    5  A    between atoms: C_3  and  C_4
    6  A    between atoms: C_3  and  C_12
    7  A    between atoms: C_19  and  C_37
                            x       y       z     vdW  Elec       q    Type
                         _______ _______ _______ _____ _____    ______ ____

>  <TORSDO>
F 7

$$$$
=
 OpenBabel11052420413D

 43 48  0  0  1  0  0  0  0  0999 V2000
  185.1850  178.3630  144.2280 C   0  0  0  0  0  0  0  0  0  0  0  0
  189.3210  175.5870  144.8240 C   0  0  0  0  0  0  0  0  0  0  0  0
  189.6450  174.0040  142.5280 C   0  0  0  0  0  0  0  0  0  0  0  0
  187.1740  177.3570  145.0550 C   0  0  0  0  0  0  0  0  0  0  0  0
  185.2650  177.6080  143.0520 C   0  0  0  0  0  3  0  0  0  0  0  0
  184.0610  179.3200  144.4200 C   0  0  0  0  0  1  0  0  0  0  0  0
  187.3020  176.5760  143.8860 C   0  0  0  0  0  0  0  0  0  0  0  0
  186.1320  178.2240  145.1950 N   0  0  0  0  0  0  0  0  0  0  0  0
  186.3270  176.7130  142.8830 C   0  0  0  0  0  3  0  0  0  0  0  0
  188.5610  174.8860  142.6210 C   0  0  0  0  0  3  0  0  0  0  0  0
  188.3890  175.6840  143.7620 C   0  0  0  0  0  0  0  0  0  0  0  0
  189.1600  176.3600  145.9370 N   0  0  0  0  0  0  0  0  0  0  0  0
  190.4030  174.6940  144.7380 C   0  0  0  0  0  0  0  0  0  0  0  0
  190.5510  173.9070  143.5860 C   0  0  0  0  0  3  0  0  0  0  0  0
  188.1220  177.2310  146.0700 C   0  0  0  0  0  3  0  0  0  0  0  0
  189.8440  173.1390  141.3240 C   0  0  1  0  0  3  0  0  0  0  0  0
  189.3540  173.8450  140.0660 C   0  0  0  0  0  1  0  0  0  0  0  0
  191.2460  172.7660  141.1880 N   0  0  0  0  0  2  0  0  0  0  0  0
  191.6850  171.7870  140.2420 C   0  0  0  0  0  0  0  0  0  0  0  0
  190.8570  171.2050  139.4900 O   0  0  0  0  0  0  0  0  0  0  0  0
  193.1300  171.4270  140.1610 C   0  0  0  0  0  2  0  0  0  0  0  0
  193.8200  172.2220  139.0600 C   0  0  2  0  0  3  0  0  0  0  0  0
  196.2010  172.6310  139.2220 C   0  0  0  0  0  2  0  0  0  0  0  0
  195.5590  174.9000  141.1730 N   0  0  0  0  0  0  0  0  0  0  0  0
  194.6030  174.2970  140.2790 C   0  0  0  0  0  0  0  0  0  0  0  0
  194.5140  171.2800  138.0940 C   0  0  0  0  0  2  0  0  0  0  0  0
  194.8730  173.0390  139.6350 N   0  0  0  0  0  0  0  0  0  0  0  0
  196.0270  176.5330  142.8680 N   0  0  0  0  0  2  0  0  0  0  0  0
  197.8040  174.9210  142.1450 C   0  0  0  0  0  2  0  0  0  0  0  0
  197.4730  176.2880  142.7710 C   0  0  0  0  0  2  0  0  0  0  0  0
  196.5570  174.0850  141.8550 C   0  0  0  0  0  2  0  0  0  0  0  0
  195.3960  176.3050  141.5680 C   0  0  0  0  0  2  0  0  0  0  0  0
  193.5050  174.8820  140.0570 O   0  0  0  0  0  0  0  0  0  0  0  0
  196.0080  171.3770  138.3880 C   0  0  0  0  0  2  0  0  0  0  0  0
  191.2830  174.5930  145.8290 O   0  0  0  0  0  0  0  0  0  0  0  0
  194.9190  175.4240  146.0970 C   0  0  0  0  0  3  0  0  0  0  0  0
  195.4810  174.2070  145.7030 C   0  0  0  0  0  0  0  0  0  0  0  0
  193.2610  173.2860  145.4020 C   0  0  0  0  0  3  0  0  0  0  0  0
  193.5280  175.5720  146.1430 C   0  0  0  0  0  3  0  0  0  0  0  0
  192.6870  174.5020  145.7910 C   0  0  0  0  0  0  0  0  0  0  0  0
  194.6500  173.1410  145.3510 C   0  0  0  0  0  3  0  0  0  0  0  0
  197.3030  172.6550  145.4310 N   0  0  0  0  0  1  0  0  0  0  0  0
  196.9630  174.0550  145.6310 C   0  0  0  0  0  2  0  0  0  0  0  0
  1  6  1  0  0  0  0
  1  8  1  0  0  0  0
  2 12  1  0  0  0  0
  3 10  2  0  0  0  0
  3 14  1  0  0  0  0
  4  8  2  0  0  0  0
  4 15  1  0  0  0  0
  5  1  2  0  0  0  0
  7  4  1  0  0  0  0
  9  5  1  0  0  0  0
  9  7  2  0  0  0  0
 10 11  1  0  0  0  0
 11  7  1  0  0  0  0
 11  2  2  0  0  0  0
 12 15  2  0  0  0  0
 13  2  1  0  0  0  0
 13 35  1  0  0  0  0
 14 13  2  0  0  0  0
 16 17  1  6  0  0  0
 16  3  1  0  0  0  0
 18 16  1  0  0  0  0
 19 18  1  0  0  0  0
 20 19  2  0  0  0  0
 21 19  1  0  0  0  0
 22 27  1  0  0  0  0
 22 21  1  1  0  0  0
 23 27  1  0  0  0  0
 24 32  1  0  0  0  0
 24 31  1  0  0  0  0
 25 24  1  0  0  0  0
 26 34  1  0  0  0  0
 26 22  1  0  0  0  0
 27 25  1  0  0  0  0
 29 30  1  0  0  0  0
 30 28  1  0  0  0  0
 31 29  1  0  0  0  0
 32 28  1  0  0  0  0
 33 25  2  0  0  0  0
 34 23  1  0  0  0  0
 36 39  1  0  0  0  0
 37 36  2  0  0  0  0
 38 40  1  0  0  0  0
 40 35  1  0  0  0  0
 40 39  2  0  0  0  0
 41 38  2  0  0  0  0
 41 37  1  0  0  0  0
 42 43  1  0  0  0  0
 43 37  1  0  0  0  0
M  END
>  <MODEL>
8

>  <REMARK>
 VINA RESULT:      -7.5      2.048      5.075
  Name = 
  7 active torsions:
  status: ('A' for Active; 'I' for Inactive)
    1  A    between atoms: O_1  and  C_34
    2  A    between atoms: O_1  and  C_35
    3  A    between atoms: C_2  and  N_6
    4  A    between atoms: C_2  and  C_13
    5  A    between atoms: C_3  and  C_4
    6  A    between atoms: C_3  and  C_12
    7  A    between atoms: C_19  and  C_37
                            x       y       z     vdW  Elec       q    Type
                         _______ _______ _______ _____ _____    ______ ____

>  <TORSDO>
F 7

$$$$
=
 OpenBabel11052420413D

 43 48  0  0  1  0  0  0  0  0999 V2000
  197.0900  175.4330  136.2120 C   0  0  0  0  0  0  0  0  0  0  0  0
  195.4260  174.5470  140.8600 C   0  0  0  0  0  0  0  0  0  0  0  0
  192.6650  174.0520  140.7170 C   0  0  0  0  0  0  0  0  0  0  0  0
  196.9060  175.0980  138.5580 C   0  0  0  0  0  0  0  0  0  0  0  0
  195.7190  175.2060  136.0490 C   0  0  0  0  0  3  0  0  0  0  0  0
  197.9370  175.7400  135.0270 C   0  0  0  0  0  1  0  0  0  0  0  0
  195.5190  174.8560  138.4460 C   0  0  0  0  0  0  0  0  0  0  0  0
  197.6500  175.3740  137.4510 N   0  0  0  0  0  0  0  0  0  0  0  0
  194.9330  174.9160  137.1700 C   0  0  0  0  0  3  0  0  0  0  0  0
  193.3880  174.3240  139.5480 C   0  0  0  0  0  3  0  0  0  0  0  0
  194.7680  174.5720  139.6070 C   0  0  0  0  0  0  0  0  0  0  0  0
  196.7670  174.7870  140.9250 N   0  0  0  0  0  0  0  0  0  0  0  0
  194.7000  174.2860  142.0360 C   0  0  0  0  0  0  0  0  0  0  0  0
  193.3210  174.0430  141.9500 C   0  0  0  0  0  3  0  0  0  0  0  0
  197.5080  175.0560  139.8150 C   0  0  0  0  0  3  0  0  0  0  0  0
  191.1930  173.7930  140.6800 C   0  0  1  0  0  3  0  0  0  0  0  0
  190.8840  172.5570  139.8440 C   0  0  0  0  0  1  0  0  0  0  0  0
  190.6650  173.6420  142.0290 N   0  0  0  0  0  2  0  0  0  0  0  0
  189.6470  174.5010  142.5500 C   0  0  0  0  0  0  0  0  0  0  0  0
  189.1730  175.4330  141.8460 O   0  0  0  0  0  0  0  0  0  0  0  0
  189.1600  174.3140  143.9470 C   0  0  0  0  0  2  0  0  0  0  0  0
  189.6800  175.4260  144.8490 C   0  0  2  0  0  3  0  0  0  0  0  0
  188.4190  176.0190  146.8290 C   0  0  0  0  0  2  0  0  0  0  0  0
  186.5660  177.6480  145.0170 N   0  0  0  0  0  0  0  0  0  0  0  0
  187.8830  177.1960  144.6440 C   0  0  0  0  0  0  0  0  0  0  0  0
  190.3990  174.8320  146.0460 C   0  0  0  0  0  2  0  0  0  0  0  0
  188.5620  176.1740  145.3950 N   0  0  0  0  0  0  0  0  0  0  0  0
  184.5690  178.8400  144.4270 N   0  0  0  0  0  2  0  0  0  0  0  0
  184.7240  177.6490  146.6270 C   0  0  0  0  0  2  0  0  0  0  0  0
  184.0660  178.7740  145.8060 C   0  0  0  0  0  2  0  0  0  0  0  0
  185.6790  176.7920  145.7960 C   0  0  0  0  0  2  0  0  0  0  0  0
  186.0310  178.8840  144.4330 C   0  0  0  0  0  2  0  0  0  0  0  0
  188.4510  177.7040  143.6360 O   0  0  0  0  0  0  0  0  0  0  0  0
  189.4680  175.0020  147.2430 C   0  0  0  0  0  2  0  0  0  0  0  0
  195.3780  174.3130  143.2670 O   0  0  0  0  0  0  0  0  0  0  0  0
  196.4460  172.1390  146.1150 C   0  0  0  0  0  3  0  0  0  0  0  0
  196.7130  170.9490  145.4330 C   0  0  0  0  0  0  0  0  0  0  0  0
  196.0960  172.0140  143.3470 C   0  0  0  0  0  3  0  0  0  0  0  0
  196.0040  173.2660  145.4130 C   0  0  0  0  0  3  0  0  0  0  0  0
  195.8300  173.2130  144.0190 C   0  0  0  0  0  0  0  0  0  0  0  0
  196.5420  170.8910  144.0470 C   0  0  0  0  0  3  0  0  0  0  0  0
  196.1310  169.1980  146.9810 N   0  0  0  0  0  1  0  0  0  0  0  0
  197.2060  169.7530  146.1750 C   0  0  0  0  0  2  0  0  0  0  0  0
  1  8  1  0  0  0  0
  2 12  1  0  0  0  0
  2 13  1  0  0  0  0
  3 14  1  0  0  0  0
  4 15  1  0  0  0  0
  5  1  2  0  0  0  0
  5  9  1  0  0  0  0
  6  1  1  0  0  0  0
  7  4  1  0  0  0  0
  7 11  1  0  0  0  0
  8  4  2  0  0  0  0
  9  7  2  0  0  0  0
 10 11  1  0  0  0  0
 10  3  2  0  0  0  0
 11  2  2  0  0  0  0
 13 35  1  0  0  0  0
 14 13  2  0  0  0  0
 15 12  2  0  0  0  0
 16 17  1  6  0  0  0
 16  3  1  0  0  0  0
 16 18  1  0  0  0  0
 18 19  1  0  0  0  0
 19 21  1  0  0  0  0
 20 19  2  0  0  0  0
 22 21  1  6  0  0  0
 22 27  1  0  0  0  0
 22 26  1  0  0  0  0
 23 34  1  0  0  0  0
 24 31  1  0  0  0  0
 25 24  1  0  0  0  0
 25 27  1  0  0  0  0
 26 34  1  0  0  0  0
 27 23  1  0  0  0  0
 28 32  1  0  0  0  0
 28 30  1  0  0  0  0
 30 29  1  0  0  0  0
 31 29  1  0  0  0  0
 32 24  1  0  0  0  0
 33 25  2  0  0  0  0
 35 40  1  0  0  0  0
 37 36  1  0  0  0  0
 37 43  1  0  0  0  0
 38 40  2  0  0  0  0
 38 41  1  0  0  0  0
 39 36  2  0  0  0  0
 40 39  1  0  0  0  0
 41 37  2  0  0  0  0
 43 42  1  0  0  0  0
M  END
>  <MODEL>
9

>  <REMARK>
 VINA RESULT:      -7.4      2.128      9.772
  Name = 
  7 active torsions:
  status: ('A' for Active; 'I' for Inactive)
    1  A    between atoms: O_1  and  C_34
    2  A    between atoms: O_1  and  C_35
    3  A    between atoms: C_2  and  N_6
    4  A    between atoms: C_2  and  C_13
    5  A    between atoms: C_3  and  C_4
    6  A    between atoms: C_3  and  C_12
    7  A    between atoms: C_19  and  C_37
                            x       y       z     vdW  Elec       q    Type
                         _______ _______ _______ _____ _____    ______ ____

>  <TORSDO>
F 7

$$$$
