=
 OpenBabel11052417383D

 25 28  0  0  1  0  0  0  0  0999 V2000
  187.6450  176.1260  143.6010 C   0  0  2  0  0  0  0  0  0  0  0  0
  186.8440  176.3530  144.8230 C   0  0  2  0  0  3  0  0  0  0  0  0
  189.1460  175.2770  146.1960 C   0  0  2  0  0  3  0  0  0  0  0  0
  189.1200  175.7070  143.8340 C   0  0  0  0  0  2  0  0  0  0  0  0
  185.7910  178.2000  144.1310 C   0  0  1  0  0  3  0  0  0  0  0  0
  188.0350  175.9970  146.9840 C   0  0  0  0  0  2  0  0  0  0  0  0
  191.4930  174.9400  146.2210 C   0  0  0  0  0  2  0  0  0  0  0  0
  191.1260  175.8550  145.0680 C   0  0  1  0  0  3  0  0  0  0  0  0
  186.2380  177.7870  146.6420 N   0  0  0  0  0  0  0  0  0  0  0  0
  186.7780  178.6200  147.7060 C   0  0  0  0  0  1  0  0  0  0  0  0
  187.1630  177.5430  143.9140 C   0  0  2  0  0  3  0  0  0  0  0  0
  186.8850  175.4230  142.4970 C   0  0  0  0  0  1  0  0  0  0  0  0
  190.2820  174.9080  147.1130 C   0  0  0  0  0  2  0  0  0  0  0  0
  185.6940  178.7270  145.6150 C   0  0  2  0  0  3  0  0  0  0  0  0
  189.6910  176.1250  145.1240 N   0  0  2  0  0  0  0  0  0  0  0  0
  184.3660  179.0330  145.9160 O   0  0  0  0  0  1  0  0  0  0  0  0
  187.3520  177.0100  146.0730 C   0  0  2  0  0  3  0  0  0  0  0  0
  191.9000  177.1560  145.1890 C   0  0  0  0  0  2  0  0  0  0  0  0
  193.1970  176.8990  145.6350 O   0  0  0  0  0  1  0  0  0  0  0  0
  185.4940  179.1900  143.1660 O   0  0  0  0  0  0  0  0  0  0  0  0
  184.8640  178.5860  142.0650 C   0  0  0  0  0  2  0  0  0  0  0  0
  182.5200  178.1060  141.3020 C   0  0  0  0  0  0  0  0  0  0  0  0
  182.9630  177.8830  140.0030 O   0  0  0  0  0  0  0  0  0  0  0  0
  181.2960  177.9990  141.5710 O   0  0  0  0  0  1  0  0  0  0  0  0
  183.4420  178.4520  142.3320 N   0  0  0  0  0  2  0  0  0  0  0  0
  1 12  1  6  0  0  0
  1  4  1  0  0  0  0
  1 11  1  0  0  0  0
  1  2  1  0  0  0  0
  2 17  1  0  0  0  0
  3  6  1  0  0  0  0
  3 13  1  0  0  0  0
  4 15  1  0  0  0  0
  5 14  1  0  0  0  0
  7 13  1  0  0  0  0
  8 15  1  0  0  0  0
  8 18  1  0  0  0  0
  8  7  1  0  0  0  0
  9 10  1  0  0  0  0
 11  5  1  0  0  0  0
 11  2  1  0  0  0  0
 14 16  1  0  0  0  0
 14  9  1  0  0  0  0
 15  3  1  0  0  0  0
 17  9  1  0  0  0  0
 17  6  1  0  0  0  0
 18 19  1  0  0  0  0
 20  5  1  0  0  0  0
 21 25  1  0  0  0  0
 21 20  1  0  0  0  0
 22 24  1  0  0  0  0
 22 25  1  0  0  0  0
 23 22  2  0  0  0  0
M  END
>  <MODEL>
1

>  <REMARK>
 VINA RESULT:      -6.8      0.000      0.000
  Name = 
  4 active torsions:
  status: ('A' for Active; 'I' for Inactive)
    1  A    between atoms: C_6  and  O_15
    2  A    between atoms: C_8  and  C_11
    3  A    between atoms: O_15  and  C_25
    4  A    between atoms: N_21  and  C_25
                            x       y       z     vdW  Elec       q    Type
                         _______ _______ _______ _____ _____    ______ ____

>  <TORSDO>
F 4

$$$$
=
 OpenBabel11052417383D

 25 28  0  0  1  0  0  0  0  0999 V2000
  188.7440  175.8260  146.6190 C   0  0  2  0  0  0  0  0  0  0  0  0
  188.9310  175.8520  145.1520 C   0  0  2  0  0  3  0  0  0  0  0  0
  186.1930  176.7720  145.1020 C   0  0  2  0  0  3  0  0  0  0  0  0
  187.4220  176.4460  147.1390 C   0  0  0  0  0  2  0  0  0  0  0  0
  191.0870  176.4420  145.1510 C   0  0  1  0  0  3  0  0  0  0  0  0
  187.0720  176.8710  143.8410 C   0  0  0  0  0  2  0  0  0  0  0  0
  184.4380  177.9160  146.2130 C   0  0  0  0  0  2  0  0  0  0  0  0
  185.7260  178.0820  146.9980 C   0  0  1  0  0  3  0  0  0  0  0  0
  189.5370  177.0700  143.1830 N   0  0  0  0  0  0  0  0  0  0  0  0
  189.3060  178.3080  142.4540 C   0  0  0  0  0  1  0  0  0  0  0  0
  189.8540  176.6980  146.0320 C   0  0  2  0  0  3  0  0  0  0  0  0
  189.2190  174.5440  147.2700 C   0  0  0  0  0  1  0  0  0  0  0  0
  184.8530  177.4120  144.8580 C   0  0  0  0  0  2  0  0  0  0  0  0
  190.9060  177.1830  143.7700 C   0  0  2  0  0  3  0  0  0  0  0  0
  186.8120  177.4490  146.2530 N   0  0  2  0  0  0  0  0  0  0  0  0
  191.8500  176.7080  142.8580 O   0  0  0  0  0  1  0  0  0  0  0  0
  188.5330  176.9880  144.2560 C   0  0  2  0  0  3  0  0  0  0  0  0
  186.0200  179.5600  147.1820 C   0  0  0  0  0  2  0  0  0  0  0  0
  186.6920  179.7660  148.3880 O   0  0  0  0  0  1  0  0  0  0  0  0
  192.3040  176.7560  145.7990 O   0  0  0  0  0  0  0  0  0  0  0  0
  192.7560  175.6270  146.5050 C   0  0  0  0  0  2  0  0  0  0  0  0
  194.8750  174.9510  145.3400 C   0  0  0  0  0  0  0  0  0  0  0  0
  194.1500  174.3990  144.2900 O   0  0  0  0  0  0  0  0  0  0  0  0
  196.1320  174.9130  145.3180 O   0  0  0  0  0  1  0  0  0  0  0  0
  194.2060  175.5620  146.4400 N   0  0  0  0  0  2  0  0  0  0  0  0
  1  4  1  0  0  0  0
  1 12  1  1  0  0  0
  2 11  1  0  0  0  0
  2  1  1  0  0  0  0
  3 15  1  0  0  0  0
  5 20  1  0  0  0  0
  5 11  1  0  0  0  0
  6 17  1  0  0  0  0
  6  3  1  0  0  0  0
  7  8  1  0  0  0  0
  8 18  1  0  0  0  0
  9 14  1  0  0  0  0
  9 17  1  0  0  0  0
 10  9  1  0  0  0  0
 11  1  1  0  0  0  0
 13  3  1  0  0  0  0
 13  7  1  0  0  0  0
 14  5  1  0  0  0  0
 15  8  1  0  0  0  0
 15  4  1  0  0  0  0
 16 14  1  0  0  0  0
 17  2  1  0  0  0  0
 18 19  1  0  0  0  0
 20 21  1  0  0  0  0
 22 25  1  0  0  0  0
 23 22  2  0  0  0  0
 24 22  1  0  0  0  0
 25 21  1  0  0  0  0
M  END
>  <MODEL>
2

>  <REMARK>
 VINA RESULT:      -6.6      3.410      7.518
  Name = 
  4 active torsions:
  status: ('A' for Active; 'I' for Inactive)
    1  A    between atoms: C_6  and  O_15
    2  A    between atoms: C_8  and  C_11
    3  A    between atoms: O_15  and  C_25
    4  A    between atoms: N_21  and  C_25
                            x       y       z     vdW  Elec       q    Type
                         _______ _______ _______ _____ _____    ______ ____

>  <TORSDO>
F 4

$$$$
=
 OpenBabel11052417383D

 25 28  0  0  1  0  0  0  0  0999 V2000
  190.5930  177.5900  144.0470 C   0  0  2  0  0  0  0  0  0  0  0  0
  190.1310  177.3350  145.4290 C   0  0  2  0  0  3  0  0  0  0  0  0
  187.5130  177.1560  144.2220 C   0  0  2  0  0  3  0  0  0  0  0  0
  189.5260  177.4030  142.9380 C   0  0  0  0  0  2  0  0  0  0  0  0
  191.9340  176.2110  146.1260 C   0  0  1  0  0  3  0  0  0  0  0  0
  187.7390  176.6770  145.6690 C   0  0  0  0  0  2  0  0  0  0  0  0
  186.2170  176.6530  142.3010 C   0  0  0  0  0  2  0  0  0  0  0  0
  187.6610  176.2570  142.0550 C   0  0  1  0  0  3  0  0  0  0  0  0
  189.6090  175.7670  147.1600 N   0  0  0  0  0  0  0  0  0  0  0  0
  188.8670  174.5500  147.4530 C   0  0  0  0  0  1  0  0  0  0  0  0
  191.1670  176.3940  144.8080 C   0  0  2  0  0  3  0  0  0  0  0  0
  191.5270  178.7760  143.9270 C   0  0  0  0  0  1  0  0  0  0  0  0
  186.1030  176.8590  143.7870 C   0  0  0  0  0  2  0  0  0  0  0  0
  191.0510  175.3760  147.1330 C   0  0  2  0  0  3  0  0  0  0  0  0
  188.4250  176.4890  143.2790 N   0  0  2  0  0  0  0  0  0  0  0  0
  191.5890  175.4740  148.4170 O   0  0  0  0  0  1  0  0  0  0  0  0
  189.1890  176.2380  145.8300 C   0  0  2  0  0  3  0  0  0  0  0  0
  187.7270  174.7880  141.6770 C   0  0  0  0  0  2  0  0  0  0  0  0
  188.4360  174.0780  142.6470 O   0  0  0  0  0  1  0  0  0  0  0  0
  193.2300  175.6760  145.9420 O   0  0  0  0  0  0  0  0  0  0  0  0
  194.1840  176.6570  146.2630 C   0  0  0  0  0  2  0  0  0  0  0  0
  195.7960  176.3490  144.3620 C   0  0  0  0  0  0  0  0  0  0  0  0
  196.1660  175.1000  144.8460 O   0  0  0  0  0  1  0  0  0  0  0  0
  196.3260  176.7930  143.3110 O   0  0  0  0  0  0  0  0  0  0  0  0
  194.8200  177.1310  145.0460 N   0  0  0  0  0  2  0  0  0  0  0  0
  1 12  1  6  0  0  0
  1 11  1  0  0  0  0
  1  2  1  0  0  0  0
  2 17  1  0  0  0  0
  3  6  1  0  0  0  0
  4 15  1  0  0  0  0
  4  1  1  0  0  0  0
  5 14  1  0  0  0  0
  6 17  1  0  0  0  0
  7 13  1  0  0  0  0
  8  7  1  0  0  0  0
  8 15  1  0  0  0  0
  9 10  1  0  0  0  0
 11  2  1  0  0  0  0
 11  5  1  0  0  0  0
 13  3  1  0  0  0  0
 14  9  1  0  0  0  0
 14 16  1  0  0  0  0
 15  3  1  0  0  0  0
 17  9  1  0  0  0  0
 18  8  1  0  0  0  0
 18 19  1  0  0  0  0
 20  5  1  0  0  0  0
 20 21  1  0  0  0  0
 22 23  1  0  0  0  0
 22 25  1  0  0  0  0
 24 22  2  0  0  0  0
 25 21  1  0  0  0  0
M  END
>  <MODEL>
3

>  <REMARK>
 VINA RESULT:      -6.5      3.540      7.545
  Name = 
  4 active torsions:
  status: ('A' for Active; 'I' for Inactive)
    1  A    between atoms: C_6  and  O_15
    2  A    between atoms: C_8  and  C_11
    3  A    between atoms: O_15  and  C_25
    4  A    between atoms: N_21  and  C_25
                            x       y       z     vdW  Elec       q    Type
                         _______ _______ _______ _____ _____    ______ ____

>  <TORSDO>
F 4

$$$$
=
 OpenBabel11052417383D

 25 28  0  0  1  0  0  0  0  0999 V2000
  190.0170  176.8890  143.5330 C   0  0  2  0  0  0  0  0  0  0  0  0
  190.2510  175.6260  142.8000 C   0  0  2  0  0  3  0  0  0  0  0  0
  192.5140  175.3440  144.5730 C   0  0  2  0  0  3  0  0  0  0  0  0
  190.9070  177.1160  144.7810 C   0  0  0  0  0  2  0  0  0  0  0  0
  188.1070  175.1110  142.4310 C   0  0  1  0  0  3  0  0  0  0  0  0
  192.0350  174.1500  143.7240 C   0  0  0  0  0  2  0  0  0  0  0  0
  193.4860  175.8270  146.6810 C   0  0  0  0  0  2  0  0  0  0  0  0
  192.0370  176.2790  146.6770 C   0  0  1  0  0  3  0  0  0  0  0  0
  189.9030  173.2640  142.6200 N   0  0  0  0  0  0  0  0  0  0  0  0
  189.9690  172.0120  143.3570 C   0  0  0  0  0  1  0  0  0  0  0  0
  188.9170  175.8270  143.5230 C   0  0  2  0  0  3  0  0  0  0  0  0
  189.7620  178.0770  142.6300 C   0  0  0  0  0  1  0  0  0  0  0  0
  193.6300  174.9190  145.4900 C   0  0  0  0  0  2  0  0  0  0  0  0
  188.4500  173.5710  142.4510 C   0  0  2  0  0  3  0  0  0  0  0  0
  191.4310  175.8910  145.4050 N   0  0  2  0  0  0  0  0  0  0  0  0
  187.9760  172.9720  141.2820 O   0  0  0  0  0  1  0  0  0  0  0  0
  190.5450  174.3020  143.4430 C   0  0  2  0  0  3  0  0  0  0  0  0
  191.2970  175.6160  147.8250 C   0  0  0  0  0  2  0  0  0  0  0  0
  190.1800  174.9330  147.3410 O   0  0  0  0  0  1  0  0  0  0  0  0
  186.7190  175.3750  142.5090 O   0  0  0  0  0  0  0  0  0  0  0  0
  186.4840  176.7150  142.1550 C   0  0  0  0  0  2  0  0  0  0  0  0
  185.4010  177.9840  144.0310 C   0  0  0  0  0  0  0  0  0  0  0  0
  186.6450  178.3120  144.5590 O   0  0  0  0  0  0  0  0  0  0  0  0
  184.3560  178.3860  144.6030 O   0  0  0  0  0  1  0  0  0  0  0  0
  185.3020  177.1990  142.8460 N   0  0  0  0  0  2  0  0  0  0  0  0
  1 12  1  6  0  0  0
  1  4  1  0  0  0  0
  2 17  1  0  0  0  0
  2 11  1  0  0  0  0
  2  1  1  0  0  0  0
  3 15  1  0  0  0  0
  3 13  1  0  0  0  0
  4 15  1  0  0  0  0
  5 14  1  0  0  0  0
  5 20  1  0  0  0  0
  5 11  1  0  0  0  0
  6  3  1  0  0  0  0
  8  7  1  0  0  0  0
  8 18  1  0  0  0  0
  9 10  1  0  0  0  0
  9 17  1  0  0  0  0
 11  1  1  0  0  0  0
 13  7  1  0  0  0  0
 14  9  1  0  0  0  0
 15  8  1  0  0  0  0
 16 14  1  0  0  0  0
 17  6  1  0  0  0  0
 19 18  1  0  0  0  0
 21 20  1  0  0  0  0
 21 25  1  0  0  0  0
 22 23  2  0  0  0  0
 22 24  1  0  0  0  0
 25 22  1  0  0  0  0
M  END
>  <MODEL>
4

>  <REMARK>
 VINA RESULT:      -6.3      2.644      4.572
  Name = 
  4 active torsions:
  status: ('A' for Active; 'I' for Inactive)
    1  A    between atoms: C_6  and  O_15
    2  A    between atoms: C_8  and  C_11
    3  A    between atoms: O_15  and  C_25
    4  A    between atoms: N_21  and  C_25
                            x       y       z     vdW  Elec       q    Type
                         _______ _______ _______ _____ _____    ______ ____

>  <TORSDO>
F 4

$$$$
=
 OpenBabel11052417383D

 25 28  0  0  1  0  0  0  0  0999 V2000
  190.6340  177.8090  143.9630 C   0  0  2  0  0  0  0  0  0  0  0  0
  190.1540  177.5080  145.3290 C   0  0  2  0  0  3  0  0  0  0  0  0
  187.5650  177.2830  144.0680 C   0  0  2  0  0  3  0  0  0  0  0  0
  189.5940  177.6180  142.8290 C   0  0  0  0  0  2  0  0  0  0  0  0
  191.9750  176.4200  146.0350 C   0  0  1  0  0  3  0  0  0  0  0  0
  187.7780  176.7760  145.5080 C   0  0  0  0  0  2  0  0  0  0  0  0
  186.3200  176.7890  142.1120 C   0  0  0  0  0  2  0  0  0  0  0  0
  187.7800  176.4410  141.8830 C   0  0  1  0  0  3  0  0  0  0  0  0
  189.6450  175.8840  147.0130 N   0  0  0  0  0  0  0  0  0  0  0  0
  188.9330  174.6400  147.2630 C   0  0  0  0  0  1  0  0  0  0  0  0
  191.2280  176.6120  144.7060 C   0  0  2  0  0  3  0  0  0  0  0  0
  191.5350  179.0230  143.8880 C   0  0  0  0  0  1  0  0  0  0  0  0
  186.1720  176.9560  143.5990 C   0  0  0  0  0  2  0  0  0  0  0  0
  191.0990  175.5360  147.0040 C   0  0  2  0  0  3  0  0  0  0  0  0
  188.5130  176.6660  143.1270 N   0  0  2  0  0  0  0  0  0  0  0  0
  191.6090  175.6190  148.3010 O   0  0  0  0  0  1  0  0  0  0  0  0
  189.2370  176.3750  145.6860 C   0  0  2  0  0  3  0  0  0  0  0  0
  187.8940  174.9840  141.4730 C   0  0  0  0  0  2  0  0  0  0  0  0
  188.5050  174.2490  142.4910 O   0  0  0  0  0  1  0  0  0  0  0  0
  193.2900  175.9260  145.8630 O   0  0  0  0  0  0  0  0  0  0  0  0
  193.3950  175.3240  144.5980 C   0  0  0  0  0  2  0  0  0  0  0  0
  192.9840  172.8520  144.7670 C   0  0  0  0  0  0  0  0  0  0  0  0
  191.6140  173.0460  144.6370 O   0  0  0  0  0  0  0  0  0  0  0  0
  193.4390  171.6870  144.8990 O   0  0  0  0  0  1  0  0  0  0  0  0
  193.8780  173.9620  144.7480 N   0  0  0  0  0  2  0  0  0  0  0  0
  1 12  1  6  0  0  0
  1 11  1  0  0  0  0
  1  2  1  0  0  0  0
  2 17  1  0  0  0  0
  3  6  1  0  0  0  0
  4 15  1  0  0  0  0
  4  1  1  0  0  0  0
  5 14  1  0  0  0  0
  6 17  1  0  0  0  0
  7 13  1  0  0  0  0
  8  7  1  0  0  0  0
  8 15  1  0  0  0  0
  9 10  1  0  0  0  0
 11  2  1  0  0  0  0
 11  5  1  0  0  0  0
 13  3  1  0  0  0  0
 14  9  1  0  0  0  0
 14 16  1  0  0  0  0
 15  3  1  0  0  0  0
 17  9  1  0  0  0  0
 18  8  1  0  0  0  0
 18 19  1  0  0  0  0
 20  5  1  0  0  0  0
 21 25  1  0  0  0  0
 21 20  1  0  0  0  0
 22 24  1  0  0  0  0
 23 22  2  0  0  0  0
 25 22  1  0  0  0  0
M  END
>  <MODEL>
5

>  <REMARK>
 VINA RESULT:      -6.2      3.528      7.060
  Name = 
  4 active torsions:
  status: ('A' for Active; 'I' for Inactive)
    1  A    between atoms: C_6  and  O_15
    2  A    between atoms: C_8  and  C_11
    3  A    between atoms: O_15  and  C_25
    4  A    between atoms: N_21  and  C_25
                            x       y       z     vdW  Elec       q    Type
                         _______ _______ _______ _____ _____    ______ ____

>  <TORSDO>
F 4

$$$$
=
 OpenBabel11052417383D

 25 28  0  0  1  0  0  0  0  0999 V2000
  191.4200  175.9560  146.8670 C   0  0  2  0  0  0  0  0  0  0  0  0
  190.9950  176.6470  145.6300 C   0  0  2  0  0  3  0  0  0  0  0  0
  193.4780  175.6410  144.5490 C   0  0  2  0  0  3  0  0  0  0  0  0
  192.6770  175.0580  146.7360 C   0  0  0  0  0  2  0  0  0  0  0  0
  188.7970  176.3070  145.8570 C   0  0  1  0  0  3  0  0  0  0  0  0
  192.4010  176.2260  143.6150 C   0  0  0  0  0  2  0  0  0  0  0  0
  195.1570  173.9670  144.5960 C   0  0  0  0  0  2  0  0  0  0  0  0
  194.0050  173.5540  145.4940 C   0  0  1  0  0  3  0  0  0  0  0  0
  189.8670  176.5660  143.5200 N   0  0  0  0  0  0  0  0  0  0  0  0
  189.7500  175.8100  142.2830 C   0  0  0  0  0  1  0  0  0  0  0  0
  190.0910  175.5620  146.2220 C   0  0  2  0  0  3  0  0  0  0  0  0
  191.2960  176.8080  148.1120 C   0  0  0  0  0  1  0  0  0  0  0  0
  194.6230  175.0870  143.7440 C   0  0  0  0  0  2  0  0  0  0  0  0
  188.6140  176.2990  144.2900 C   0  0  2  0  0  3  0  0  0  0  0  0
  192.9430  174.5510  145.3810 N   0  0  2  0  0  0  0  0  0  0  0  0
  187.6340  177.2270  143.9300 O   0  0  0  0  0  1  0  0  0  0  0  0
  191.0310  176.0450  144.2560 C   0  0  2  0  0  3  0  0  0  0  0  0
  193.4860  172.1950  145.0570 C   0  0  0  0  0  2  0  0  0  0  0  0
  192.1980  172.3230  144.5350 O   0  0  0  0  0  1  0  0  0  0  0  0
  187.6660  175.8230  146.5550 O   0  0  0  0  0  0  0  0  0  0  0  0
  187.0600  176.8860  147.2450 C   0  0  0  0  0  2  0  0  0  0  0  0
  185.1090  178.4000  146.7910 C   0  0  0  0  0  0  0  0  0  0  0  0
  185.7650  179.4670  147.3930 O   0  0  0  0  0  1  0  0  0  0  0  0
  183.9570  178.5660  146.3130 O   0  0  0  0  0  0  0  0  0  0  0  0
  185.7310  177.1200  146.7070 N   0  0  0  0  0  2  0  0  0  0  0  0
  1 12  1  1  0  0  0
  2 11  1  0  0  0  0
  2  1  1  0  0  0  0
  3 15  1  0  0  0  0
  4  1  1  0  0  0  0
  5 11  1  0  0  0  0
  5 20  1  0  0  0  0
  6 17  1  0  0  0  0
  6  3  1  0  0  0  0
  7  8  1  0  0  0  0
  9 17  1  0  0  0  0
  9 14  1  0  0  0  0
 10  9  1  0  0  0  0
 11  1  1  0  0  0  0
 13  3  1  0  0  0  0
 13  7  1  0  0  0  0
 14  5  1  0  0  0  0
 15  8  1  0  0  0  0
 15  4  1  0  0  0  0
 16 14  1  0  0  0  0
 17  2  1  0  0  0  0
 18  8  1  0  0  0  0
 19 18  1  0  0  0  0
 20 21  1  0  0  0  0
 22 23  1  0  0  0  0
 24 22  2  0  0  0  0
 25 22  1  0  0  0  0
 25 21  1  0  0  0  0
M  END
>  <MODEL>
6

>  <REMARK>
 VINA RESULT:      -6.2      3.016      5.175
  Name = 
  4 active torsions:
  status: ('A' for Active; 'I' for Inactive)
    1  A    between atoms: C_6  and  O_15
    2  A    between atoms: C_8  and  C_11
    3  A    between atoms: O_15  and  C_25
    4  A    between atoms: N_21  and  C_25
                            x       y       z     vdW  Elec       q    Type
                         _______ _______ _______ _____ _____    ______ ____

>  <TORSDO>
F 4

$$$$
=
 OpenBabel11052417383D

 25 28  0  0  1  0  0  0  0  0999 V2000
  190.3530  176.2350  145.9460 C   0  0  2  0  0  0  0  0  0  0  0  0
  189.9300  177.3190  145.0340 C   0  0  2  0  0  3  0  0  0  0  0  0
  192.2460  176.5450  143.4920 C   0  0  2  0  0  3  0  0  0  0  0  0
  191.5100  175.3400  145.4340 C   0  0  0  0  0  2  0  0  0  0  0  0
  187.7250  177.0820  145.3160 C   0  0  1  0  0  3  0  0  0  0  0  0
  191.1820  177.4790  142.8840 C   0  0  0  0  0  2  0  0  0  0  0  0
  193.7610  174.8310  142.8650 C   0  0  0  0  0  2  0  0  0  0  0  0
  192.6240  174.2310  143.6730 C   0  0  1  0  0  3  0  0  0  0  0  0
  188.6890  178.0120  143.1080 N   0  0  0  0  0  0  0  0  0  0  0  0
  188.4360  177.7100  141.7070 C   0  0  0  0  0  1  0  0  0  0  0  0
  188.9600  176.1690  145.3180 C   0  0  2  0  0  3  0  0  0  0  0  0
  190.3750  176.6400  147.4040 C   0  0  0  0  0  1  0  0  0  0  0  0
  193.2900  176.2020  142.4630 C   0  0  0  0  0  2  0  0  0  0  0  0
  187.4590  177.6000  143.8490 C   0  0  2  0  0  3  0  0  0  0  0  0
  191.6560  175.2850  143.9710 N   0  0  2  0  0  0  0  0  0  0  0  0
  186.5540  178.6610  143.8860 O   0  0  0  0  0  1  0  0  0  0  0  0
  189.8360  177.1970  143.5410 C   0  0  2  0  0  3  0  0  0  0  0  0
  191.9570  173.1300  142.8670 C   0  0  0  0  0  2  0  0  0  0  0  0
  191.9980  171.9290  143.5770 O   0  0  0  0  0  1  0  0  0  0  0  0
  186.5910  176.4800  145.9110 O   0  0  0  0  0  0  0  0  0  0  0  0
  186.6680  176.6290  147.3060 C   0  0  0  0  0  2  0  0  0  0  0  0
  185.8470  178.9720  147.6830 C   0  0  0  0  0  0  0  0  0  0  0  0
  184.5390  178.5810  147.4210 O   0  0  0  0  0  0  0  0  0  0  0  0
  186.0940  180.1710  147.9690 O   0  0  0  0  0  1  0  0  0  0  0  0
  186.9100  178.0230  147.6320 N   0  0  0  0  0  2  0  0  0  0  0  0
  1 12  1  1  0  0  0
  2 11  1  0  0  0  0
  2  1  1  0  0  0  0
  3 15  1  0  0  0  0
  4  1  1  0  0  0  0
  5 11  1  0  0  0  0
  5 20  1  0  0  0  0
  6  3  1  0  0  0  0
  6 17  1  0  0  0  0
  7  8  1  0  0  0  0
  8 15  1  0  0  0  0
  9 17  1  0  0  0  0
  9 14  1  0  0  0  0
 10  9  1  0  0  0  0
 11  1  1  0  0  0  0
 13  7  1  0  0  0  0
 13  3  1  0  0  0  0
 14 16  1  0  0  0  0
 14  5  1  0  0  0  0
 15  4  1  0  0  0  0
 17  2  1  0  0  0  0
 18 19  1  0  0  0  0
 18  8  1  0  0  0  0
 20 21  1  0  0  0  0
 21 25  1  0  0  0  0
 22 24  1  0  0  0  0
 23 22  2  0  0  0  0
 25 22  1  0  0  0  0
M  END
>  <MODEL>
7

>  <REMARK>
 VINA RESULT:      -6.1      2.890      4.904
  Name = 
  4 active torsions:
  status: ('A' for Active; 'I' for Inactive)
    1  A    between atoms: C_6  and  O_15
    2  A    between atoms: C_8  and  C_11
    3  A    between atoms: O_15  and  C_25
    4  A    between atoms: N_21  and  C_25
                            x       y       z     vdW  Elec       q    Type
                         _______ _______ _______ _____ _____    ______ ____

>  <TORSDO>
F 4

$$$$
=
 OpenBabel11052417383D

 25 28  0  0  1  0  0  0  0  0999 V2000
  190.3630  177.3620  144.0170 C   0  0  2  0  0  0  0  0  0  0  0  0
  190.7190  176.1510  144.7880 C   0  0  2  0  0  3  0  0  0  0  0  0
  188.2000  176.6030  146.1270 C   0  0  2  0  0  3  0  0  0  0  0  0
  188.9290  177.9060  144.2470 C   0  0  0  0  0  2  0  0  0  0  0  0
  191.7790  175.0700  143.1430 C   0  0  1  0  0  3  0  0  0  0  0  0
  188.9450  175.2650  146.2980 C   0  0  0  0  0  2  0  0  0  0  0  0
  185.9990  177.4810  146.0230 C   0  0  0  0  0  2  0  0  0  0  0  0
  186.6320  177.5380  144.6450 C   0  0  1  0  0  3  0  0  0  0  0  0
  190.6040  173.7740  145.0440 N   0  0  0  0  0  0  0  0  0  0  0  0
  189.6910  172.6410  145.0590 C   0  0  0  0  0  1  0  0  0  0  0  0
  190.6040  176.0530  143.2650 C   0  0  2  0  0  3  0  0  0  0  0  0
  191.4860  178.3710  143.9150 C   0  0  0  0  0  1  0  0  0  0  0  0
  186.8690  176.5540  146.8280 C   0  0  0  0  0  2  0  0  0  0  0  0
  191.3630  173.6790  143.7600 C   0  0  2  0  0  3  0  0  0  0  0  0
  187.9500  176.9110  144.7090 N   0  0  2  0  0  0  0  0  0  0  0  0
  192.5000  172.8910  143.9440 O   0  0  0  0  0  1  0  0  0  0  0  0
  189.7930  175.0030  145.0600 C   0  0  2  0  0  3  0  0  0  0  0  0
  185.7550  176.7940  143.6530 C   0  0  0  0  0  2  0  0  0  0  0  0
  186.5010  175.8130  142.9990 O   0  0  0  0  0  1  0  0  0  0  0  0
  192.2820  174.9700  141.8250 O   0  0  0  0  0  0  0  0  0  0  0  0
  193.4430  175.7530  141.7130 C   0  0  0  0  0  2  0  0  0  0  0  0
  195.4750  176.2400  143.1050 C   0  0  0  0  0  0  0  0  0  0  0  0
  196.1770  176.6550  141.9790 O   0  0  0  0  0  0  0  0  0  0  0  0
  196.0350  176.2610  144.2310 O   0  0  0  0  0  1  0  0  0  0  0  0
  194.1260  175.7930  142.9940 N   0  0  0  0  0  2  0  0  0  0  0  0
  1 12  1  6  0  0  0
  1  4  1  0  0  0  0
  1  2  1  0  0  0  0
  2 17  1  0  0  0  0
  3  6  1  0  0  0  0
  3 13  1  0  0  0  0
  4 15  1  0  0  0  0
  5 11  1  0  0  0  0
  5 14  1  0  0  0  0
  7 13  1  0  0  0  0
  8 15  1  0  0  0  0
  8  7  1  0  0  0  0
  9 10  1  0  0  0  0
  9 17  1  0  0  0  0
 11  1  1  0  0  0  0
 11  2  1  0  0  0  0
 14 16  1  0  0  0  0
 14  9  1  0  0  0  0
 15  3  1  0  0  0  0
 17  6  1  0  0  0  0
 18  8  1  0  0  0  0
 19 18  1  0  0  0  0
 20  5  1  0  0  0  0
 21 20  1  0  0  0  0
 21 25  1  0  0  0  0
 22 24  1  0  0  0  0
 23 22  2  0  0  0  0
 25 22  1  0  0  0  0
M  END
>  <MODEL>
8

>  <REMARK>
 VINA RESULT:      -6.1      2.848      7.531
  Name = 
  4 active torsions:
  status: ('A' for Active; 'I' for Inactive)
    1  A    between atoms: C_6  and  O_15
    2  A    between atoms: C_8  and  C_11
    3  A    between atoms: O_15  and  C_25
    4  A    between atoms: N_21  and  C_25
                            x       y       z     vdW  Elec       q    Type
                         _______ _______ _______ _____ _____    ______ ____

>  <TORSDO>
F 4

$$$$
=
 OpenBabel11052417383D

 25 28  0  0  1  0  0  0  0  0999 V2000
  188.4480  174.7730  142.4210 C   0  0  2  0  0  0  0  0  0  0  0  0
  189.4450  175.8050  142.0630 C   0  0  2  0  0  3  0  0  0  0  0  0
  187.1850  177.6030  142.1080 C   0  0  2  0  0  3  0  0  0  0  0  0
  187.0310  175.2990  142.7650 C   0  0  0  0  0  2  0  0  0  0  0  0
  191.1620  174.9520  143.2140 C   0  0  1  0  0  3  0  0  0  0  0  0
  188.6220  178.1580  142.0750 C   0  0  0  0  0  2  0  0  0  0  0  0
  185.0390  178.1100  142.9820 C   0  0  0  0  0  2  0  0  0  0  0  0
  185.6240  176.9280  143.7320 C   0  0  1  0  0  3  0  0  0  0  0  0
  190.9950  177.4900  142.7620 N   0  0  0  0  0  0  0  0  0  0  0  0
  191.1450  178.6640  143.6100 C   0  0  0  0  0  1  0  0  0  0  0  0
  189.6330  175.0110  143.3580 C   0  0  2  0  0  3  0  0  0  0  0  0
  188.5440  173.5170  141.5810 C   0  0  0  0  0  1  0  0  0  0  0  0
  186.1930  178.7280  142.2390 C   0  0  0  0  0  2  0  0  0  0  0  0
  191.7630  176.3950  143.4300 C   0  0  2  0  0  3  0  0  0  0  0  0
  186.9800  176.6890  143.2430 N   0  0  2  0  0  0  0  0  0  0  0  0
  193.0890  176.4190  142.9940 O   0  0  0  0  0  1  0  0  0  0  0  0
  189.5630  177.1490  142.7210 C   0  0  2  0  0  3  0  0  0  0  0  0
  185.6590  177.2390  145.2180 C   0  0  0  0  0  2  0  0  0  0  0  0
  186.9600  177.5570  145.6080 O   0  0  0  0  0  1  0  0  0  0  0  0
  191.7580  173.9700  144.0390 O   0  0  0  0  0  0  0  0  0  0  0  0
  190.9990  173.8320  145.2140 C   0  0  0  0  0  2  0  0  0  0  0  0
  190.6880  175.2920  147.2340 C   0  0  0  0  0  0  0  0  0  0  0  0
  189.3240  175.0230  147.2470 O   0  0  0  0  0  0  0  0  0  0  0  0
  191.1830  176.0500  148.1070 O   0  0  0  0  0  1  0  0  0  0  0  0
  191.5300  174.7120  146.2400 N   0  0  0  0  0  2  0  0  0  0  0  0
  1 12  1  6  0  0  0
  1  4  1  0  0  0  0
  1 11  1  0  0  0  0
  2  1  1  0  0  0  0
  2 17  1  0  0  0  0
  2 11  1  0  0  0  0
  3 13  1  0  0  0  0
  3 15  1  0  0  0  0
  4 15  1  0  0  0  0
  5 11  1  0  0  0  0
  5 14  1  0  0  0  0
  5 20  1  0  0  0  0
  6  3  1  0  0  0  0
  6 17  1  0  0  0  0
  7  8  1  0  0  0  0
  8 18  1  0  0  0  0
  9 14  1  0  0  0  0
  9 10  1  0  0  0  0
 13  7  1  0  0  0  0
 15  8  1  0  0  0  0
 16 14  1  0  0  0  0
 17  9  1  0  0  0  0
 18 19  1  0  0  0  0
 20 21  1  0  0  0  0
 21 25  1  0  0  0  0
 22 23  2  0  0  0  0
 22 24  1  0  0  0  0
 25 22  1  0  0  0  0
M  END
>  <MODEL>
9

>  <REMARK>
 VINA RESULT:      -6.1      2.934      6.914
  Name = 
  4 active torsions:
  status: ('A' for Active; 'I' for Inactive)
    1  A    between atoms: C_6  and  O_15
    2  A    between atoms: C_8  and  C_11
    3  A    between atoms: O_15  and  C_25
    4  A    between atoms: N_21  and  C_25
                            x       y       z     vdW  Elec       q    Type
                         _______ _______ _______ _____ _____    ______ ____

>  <TORSDO>
F 4

$$$$
