=
 OpenBabel11052420493D

 43 49  0  0  1  0  0  0  0  0999 V2000
  188.8710  176.3910  146.0350 C   0  0  0  0  0  2  0  0  0  0  0  0
  190.0830  176.5890  145.2350 N   0  0  0  0  0  0  0  0  0  0  0  0
  189.0880  175.2610  147.0390 C   0  0  0  0  0  2  0  0  0  0  0  0
  190.3530  175.3930  144.4350 C   0  0  0  0  0  2  0  0  0  0  0  0
  190.6100  174.1970  145.3530 C   0  0  1  0  0  3  0  0  0  0  0  0
  189.4230  173.9720  146.2960 C   0  0  0  0  0  2  0  0  0  0  0  0
  189.0310  172.6990  140.7330 C   0  0  0  0  0  0  0  0  0  0  0  0
  192.4850  172.6920  144.4300 C   0  0  0  0  0  0  0  0  0  0  0  0
  190.8830  172.1300  142.1650 C   0  0  0  0  0  0  0  0  0  0  0  0
  188.4760  173.4170  141.7470 N   0  0  0  0  0  0  0  0  0  0  0  0
  188.3360  172.6060  139.4230 C   0  0  0  0  0  1  0  0  0  0  0  0
  190.3100  172.8890  143.1970 C   0  0  0  0  0  0  0  0  0  0  0  0
  190.2390  172.0290  140.9300 C   0  0  0  0  0  3  0  0  0  0  0  0
  189.0790  173.5190  142.9620 C   0  0  0  0  0  3  0  0  0  0  0  0
  190.9870  172.9370  144.5510 C   0  0  2  0  0  3  0  0  0  0  0  0
  192.9610  171.9840  143.4440 N   0  0  0  0  0  0  0  0  0  0  0  0
  193.3760  173.2060  145.4250 N   0  0  0  0  0  2  0  0  0  0  0  0
  192.1300  171.3440  142.4230 C   0  0  0  0  0  2  0  0  0  0  0  0
  194.7960  172.8810  145.4540 C   0  0  0  0  0  2  0  0  0  0  0  0
  195.6080  176.5610  144.5980 C   0  0  0  0  0  2  0  0  0  0  0  0
  196.4300  176.3310  143.4010 N   0  0  0  0  0  0  0  0  0  0  0  0
  196.4870  173.8870  143.9020 C   0  0  0  0  0  2  0  0  0  0  0  0
  194.7540  175.3440  144.9680 C   0  0  0  0  0  2  0  0  0  0  0  0
  195.6380  174.1140  145.1460 C   0  0  0  0  0  3  0  0  0  0  0  0
  197.2870  175.1510  143.5770 C   0  0  0  0  0  2  0  0  0  0  0  0
  196.3620  176.4850  140.9670 C   0  0  0  0  0  1  0  0  0  0  0  0
  195.5800  176.1580  142.2250 C   0  0  0  0  0  2  0  0  0  0  0  0
  189.9120  177.7460  144.3500 C   0  0  0  0  0  2  0  0  0  0  0  0
  189.0490  177.4510  143.1240 C   0  0  0  0  0  2  0  0  0  0  0  0
  187.7920  178.2960  143.1870 C   0  0  0  0  0  2  0  0  0  0  0  0
  186.6880  177.6640  142.3410 C   0  0  1  0  0  0  0  0  0  0  0  0
  185.4280  177.3440  143.1240 C   0  0  1  0  0  0  0  0  0  0  0  0
  185.5050  178.5330  142.2580 N   0  0  0  0  0  0  0  0  0  0  0  0
  186.3860  176.2390  142.7290 C   0  0  0  0  0  2  0  0  0  0  0  0
  185.4690  177.7030  144.6020 C   0  0  0  0  0  0  0  0  0  0  0  0
  185.4310  177.0290  146.9400 C   0  0  0  0  0  3  0  0  0  0  0  0
  185.4400  179.3810  146.3650 C   0  0  0  0  0  3  0  0  0  0  0  0
  185.4350  178.3710  147.3320 C   0  0  0  0  0  3  0  0  0  0  0  0
  185.4490  179.0480  145.0080 C   0  0  0  0  0  3  0  0  0  0  0  0
  185.4400  176.6970  145.5830 C   0  0  0  0  0  3  0  0  0  0  0  0
  184.8110  178.2110  141.0210 C   0  0  0  0  0  2  0  0  0  0  0  0
  182.6520  177.8030  140.0920 O   0  0  0  0  0  1  0  0  0  0  0  0
  183.3120  178.1940  141.2580 C   0  0  0  0  0  2  0  0  0  0  0  0
  1  3  1  0  0  0  0
  2  1  1  0  0  0  0
  4  2  1  0  0  0  0
  5  4  1  6  0  0  0
  5  6  1  0  0  0  0
  6  3  1  0  0  0  0
  7 13  2  0  0  0  0
  7 10  1  0  0  0  0
  8 15  1  0  0  0  0
  8 17  1  0  0  0  0
  9 18  1  0  0  0  0
  9 12  2  0  0  0  0
 10 14  2  0  0  0  0
 11  7  1  0  0  0  0
 13  9  1  0  0  0  0
 14 12  1  0  0  0  0
 15 12  1  6  0  0  0
 15  5  1  0  0  0  0
 16  8  2  0  0  0  0
 17 19  1  0  0  0  0
 18 16  1  0  0  0  0
 20 23  1  0  0  0  0
 21 25  1  0  0  0  0
 21 20  1  0  0  0  0
 22 24  1  0  0  0  0
 23 24  1  0  0  0  0
 24 19  1  0  0  0  0
 25 22  1  0  0  0  0
 26 27  1  0  0  0  0
 27 21  1  0  0  0  0
 28  2  1  0  0  0  0
 29 30  1  0  0  0  0
 29 28  1  0  0  0  0
 31 34  1  0  0  0  0
 31 32  1  0  0  0  0
 31 30  1  1  0  0  0
 32 35  1  1  0  0  0
 33 31  1  0  0  0  0
 33 32  1  0  0  0  0
 34 32  1  0  0  0  0
 35 39  2  0  0  0  0
 35 40  1  0  0  0  0
 36 38  1  0  0  0  0
 37 38  2  0  0  0  0
 39 37  1  0  0  0  0
 40 36  2  0  0  0  0
 41 43  1  0  0  0  0
 41 33  1  0  0  0  0
 42 43  1  0  0  0  0
M  END
>  <MODEL>
1

>  <REMARK>
 VINA RESULT:      -8.4      0.000      0.000
  Name = 
  11 active torsions:
  status: ('A' for Active; 'I' for Inactive)
    1  A    between atoms: C_1  and  N_34
    2  A    between atoms: C_1  and  C_35
    3  A    between atoms: C_3  and  C_4
    4  A    between atoms: C_3  and  C_12
    5  A    between atoms: N_6  and  C_17
    6  A    between atoms: C_10  and  N_22
    7  A    between atoms: C_10  and  C_42
    8  A    between atoms: C_11  and  C_14
    9  A    between atoms: C_12  and  C_17
   10  A    between atoms: N_19  and  C_37
   11  A    between atoms: C_27  and  C_30
                            x       y       z     vdW  Elec       q    Type
                         _______ _______ _______ _____ _____    ______ ____

>  <TORSDO>
F 11

$$$$
=
 OpenBabel11052420493D

 43 49  0  0  1  0  0  0  0  0999 V2000
  189.1240  175.5860  145.7250 C   0  0  0  0  0  2  0  0  0  0  0  0
  190.2020  176.3830  145.1320 N   0  0  0  0  0  0  0  0  0  0  0  0
  189.6680  174.2370  146.1880 C   0  0  0  0  0  2  0  0  0  0  0  0
  190.7050  175.7220  143.9260 C   0  0  0  0  0  2  0  0  0  0  0  0
  191.2980  174.3590  144.2860 C   0  0  1  0  0  3  0  0  0  0  0  0
  190.2600  173.4860  145.0000 C   0  0  0  0  0  2  0  0  0  0  0  0
  189.2220  173.3610  139.7280 C   0  0  0  0  0  0  0  0  0  0  0  0
  193.2700  174.2300  142.6350 C   0  0  0  0  0  0  0  0  0  0  0  0
  191.4710  173.4760  140.5840 C   0  0  0  0  0  0  0  0  0  0  0  0
  188.7410  173.4610  140.9960 N   0  0  0  0  0  0  0  0  0  0  0  0
  188.2810  173.2350  138.5850 C   0  0  0  0  0  1  0  0  0  0  0  0
  190.9630  173.5980  141.8860 C   0  0  0  0  0  0  0  0  0  0  0  0
  190.5990  173.3520  139.5010 C   0  0  0  0  0  3  0  0  0  0  0  0
  189.5720  173.5710  142.0680 C   0  0  0  0  0  3  0  0  0  0  0  0
  191.9200  173.6690  143.0570 C   0  0  2  0  0  3  0  0  0  0  0  0
  193.6880  174.0930  141.4080 N   0  0  0  0  0  0  0  0  0  0  0  0
  194.1070  174.8780  143.5980 N   0  0  0  0  0  2  0  0  0  0  0  0
  192.9480  173.3750  140.3690 C   0  0  0  0  0  2  0  0  0  0  0  0
  195.4710  175.3010  143.3000 C   0  0  0  0  0  2  0  0  0  0  0  0
  197.7070  172.2970  144.2560 C   0  0  0  0  0  2  0  0  0  0  0  0
  197.2250  172.0950  145.6310 N   0  0  0  0  0  0  0  0  0  0  0  0
  195.9810  174.2550  145.5200 C   0  0  0  0  0  2  0  0  0  0  0  0
  196.7440  173.1390  143.4140 C   0  0  0  0  0  2  0  0  0  0  0  0
  196.4760  174.4760  144.0960 C   0  0  0  0  0  3  0  0  0  0  0  0
  196.9760  173.3830  146.2900 C   0  0  0  0  0  2  0  0  0  0  0  0
  196.2280  170.0060  146.4030 C   0  0  0  0  0  1  0  0  0  0  0  0
  196.0040  171.2910  145.6290 C   0  0  0  0  0  2  0  0  0  0  0  0
  189.7040  177.7190  144.7890 C   0  0  0  0  0  2  0  0  0  0  0  0
  189.1590  177.8180  143.3650 C   0  0  0  0  0  2  0  0  0  0  0  0
  187.7240  178.3040  143.4160 C   0  0  0  0  0  2  0  0  0  0  0  0
  186.8800  177.5670  142.3770 C   0  0  1  0  0  0  0  0  0  0  0  0
  185.5170  177.1400  142.8890 C   0  0  1  0  0  0  0  0  0  0  0  0
  185.6690  178.3230  142.0270 N   0  0  0  0  0  0  0  0  0  0  0  0
  186.6290  176.1240  142.7320 C   0  0  0  0  0  2  0  0  0  0  0  0
  185.2170  177.5130  144.3330 C   0  0  0  0  0  0  0  0  0  0  0  0
  185.3800  177.0370  146.7150 C   0  0  0  0  0  3  0  0  0  0  0  0
  184.0700  178.9240  145.9510 C   0  0  0  0  0  3  0  0  0  0  0  0
  184.5700  178.1420  146.9950 C   0  0  0  0  0  3  0  0  0  0  0  0
  184.3850  178.6070  144.6270 C   0  0  0  0  0  3  0  0  0  0  0  0
  185.6950  176.7200  145.3910 C   0  0  0  0  0  3  0  0  0  0  0  0
  185.2800  177.9300  140.6820 C   0  0  0  0  0  2  0  0  0  0  0  0
  182.9540  177.8970  141.2110 O   0  0  0  0  0  1  0  0  0  0  0  0
  183.9000  178.4750  140.3630 C   0  0  0  0  0  2  0  0  0  0  0  0
  1  3  1  0  0  0  0
  2  1  1  0  0  0  0
  4  2  1  0  0  0  0
  5  4  1  6  0  0  0
  5  6  1  0  0  0  0
  6  3  1  0  0  0  0
  7 10  1  0  0  0  0
  8 15  1  0  0  0  0
  8 17  1  0  0  0  0
  9 12  2  0  0  0  0
 10 14  2  0  0  0  0
 11  7  1  0  0  0  0
 12 14  1  0  0  0  0
 13  7  2  0  0  0  0
 13  9  1  0  0  0  0
 15 12  1  6  0  0  0
 15  5  1  0  0  0  0
 16  8  2  0  0  0  0
 18  9  1  0  0  0  0
 18 16  1  0  0  0  0
 19 17  1  0  0  0  0
 19 24  1  0  0  0  0
 20 21  1  0  0  0  0
 21 25  1  0  0  0  0
 22 25  1  0  0  0  0
 23 24  1  0  0  0  0
 23 20  1  0  0  0  0
 24 22  1  0  0  0  0
 27 21  1  0  0  0  0
 27 26  1  0  0  0  0
 28  2  1  0  0  0  0
 29 30  1  0  0  0  0
 29 28  1  0  0  0  0
 31 34  1  0  0  0  0
 31 32  1  0  0  0  0
 31 30  1  1  0  0  0
 32 35  1  1  0  0  0
 33 31  1  0  0  0  0
 33 32  1  0  0  0  0
 34 32  1  0  0  0  0
 35 39  2  0  0  0  0
 35 40  1  0  0  0  0
 36 38  1  0  0  0  0
 37 38  2  0  0  0  0
 39 37  1  0  0  0  0
 40 36  2  0  0  0  0
 41 33  1  0  0  0  0
 43 41  1  0  0  0  0
 43 42  1  0  0  0  0
M  END
>  <MODEL>
2

>  <REMARK>
 VINA RESULT:      -8.3      1.552      2.448
  Name = 
  11 active torsions:
  status: ('A' for Active; 'I' for Inactive)
    1  A    between atoms: C_1  and  N_34
    2  A    between atoms: C_1  and  C_35
    3  A    between atoms: C_3  and  C_4
    4  A    between atoms: C_3  and  C_12
    5  A    between atoms: N_6  and  C_17
    6  A    between atoms: C_10  and  N_22
    7  A    between atoms: C_10  and  C_42
    8  A    between atoms: C_11  and  C_14
    9  A    between atoms: C_12  and  C_17
   10  A    between atoms: N_19  and  C_37
   11  A    between atoms: C_27  and  C_30
                            x       y       z     vdW  Elec       q    Type
                         _______ _______ _______ _____ _____    ______ ____

>  <TORSDO>
F 11

$$$$
=
 OpenBabel11052420493D

 43 49  0  0  1  0  0  0  0  0999 V2000
  191.3170  175.4170  142.8930 C   0  0  0  0  0  2  0  0  0  0  0  0
  191.3850  175.7030  144.3280 N   0  0  0  0  0  0  0  0  0  0  0  0
  191.8130  173.9990  142.6190 C   0  0  0  0  0  2  0  0  0  0  0  0
  192.7790  175.6760  144.7770 C   0  0  0  0  0  2  0  0  0  0  0  0
  193.3680  174.2810  144.5660 C   0  0  1  0  0  3  0  0  0  0  0  0
  193.2550  173.8590  143.0980 C   0  0  0  0  0  2  0  0  0  0  0  0
  195.9940  170.1800  146.1070 C   0  0  0  0  0  0  0  0  0  0  0  0
  195.8530  174.8830  144.2480 C   0  0  0  0  0  0  0  0  0  0  0  0
  196.5760  172.4210  145.4440 C   0  0  0  0  0  0  0  0  0  0  0  0
  194.6780  170.5270  146.1030 N   0  0  0  0  0  0  0  0  0  0  0  0
  196.3950  168.7970  146.4740 C   0  0  0  0  0  1  0  0  0  0  0  0
  195.2150  172.7630  145.4250 C   0  0  0  0  0  0  0  0  0  0  0  0
  196.9680  171.1270  145.7920 C   0  0  0  0  0  3  0  0  0  0  0  0
  194.2740  171.7860  145.7800 C   0  0  0  0  0  3  0  0  0  0  0  0
  194.8070  174.1870  145.1090 C   0  0  2  0  0  3  0  0  0  0  0  0
  197.1020  174.5170  144.3020 N   0  0  0  0  0  0  0  0  0  0  0  0
  195.4710  175.9730  143.4030 N   0  0  0  0  0  2  0  0  0  0  0  0
  197.6100  173.4730  145.1940 C   0  0  0  0  0  2  0  0  0  0  0  0
  196.4400  176.7800  142.6730 C   0  0  0  0  0  2  0  0  0  0  0  0
  195.1880  175.3190  139.3210 C   0  0  0  0  0  2  0  0  0  0  0  0
  196.3210  174.4250  139.0360 N   0  0  0  0  0  0  0  0  0  0  0  0
  197.6200  175.4680  140.8930 C   0  0  0  0  0  2  0  0  0  0  0  0
  195.1350  175.7500  140.7900 C   0  0  0  0  0  2  0  0  0  0  0  0
  196.4540  176.4000  141.1960 C   0  0  0  0  0  3  0  0  0  0  0  0
  197.5900  175.0560  139.4190 C   0  0  0  0  0  2  0  0  0  0  0  0
  194.7700  172.5990  139.5010 C   0  0  0  0  0  1  0  0  0  0  0  0
  196.1600  173.1570  139.7440 C   0  0  0  0  0  2  0  0  0  0  0  0
  190.8040  177.0210  144.6030 C   0  0  0  0  0  2  0  0  0  0  0  0
  190.0340  177.6050  143.4190 C   0  0  0  0  0  2  0  0  0  0  0  0
  188.6510  178.0180  143.8830 C   0  0  0  0  0  2  0  0  0  0  0  0
  187.5930  177.5210  142.8990 C   0  0  1  0  0  0  0  0  0  0  0  0
  186.2290  177.3070  143.5260 C   0  0  1  0  0  0  0  0  0  0  0  0
  186.5160  178.5030  142.7190 N   0  0  0  0  0  0  0  0  0  0  0  0
  187.1150  176.1230  143.1990 C   0  0  0  0  0  2  0  0  0  0  0  0
  186.1380  177.6200  145.0120 C   0  0  0  0  0  0  0  0  0  0  0  0
  186.3900  176.9370  147.3350 C   0  0  0  0  0  3  0  0  0  0  0  0
  185.4610  179.1120  146.8140 C   0  0  0  0  0  3  0  0  0  0  0  0
  185.8660  178.1630  147.7570 C   0  0  0  0  0  3  0  0  0  0  0  0
  185.5900  178.8390  145.4490 C   0  0  0  0  0  3  0  0  0  0  0  0
  186.5180  176.6650  145.9700 C   0  0  0  0  0  3  0  0  0  0  0  0
  185.9370  178.2850  141.4020 C   0  0  0  0  0  2  0  0  0  0  0  0
  183.8630  178.1580  140.2300 O   0  0  0  0  0  1  0  0  0  0  0  0
  184.4250  178.2110  141.5070 C   0  0  0  0  0  2  0  0  0  0  0  0
  1  2  1  0  0  0  0
  2 28  1  0  0  0  0
  2  4  1  0  0  0  0
  3  1  1  0  0  0  0
  3  6  1  0  0  0  0
  5  6  1  6  0  0  0
  5  4  1  0  0  0  0
  5 15  1  0  0  0  0
  7 11  1  0  0  0  0
  8 16  2  0  0  0  0
  9 13  1  0  0  0  0
 10  7  1  0  0  0  0
 12  9  2  0  0  0  0
 12 14  1  0  0  0  0
 13  7  2  0  0  0  0
 14 10  2  0  0  0  0
 15  8  1  6  0  0  0
 15 12  1  0  0  0  0
 16 18  1  0  0  0  0
 17  8  1  0  0  0  0
 18  9  1  0  0  0  0
 19 17  1  0  0  0  0
 20 23  1  0  0  0  0
 21 20  1  0  0  0  0
 21 25  1  0  0  0  0
 21 27  1  0  0  0  0
 22 24  1  0  0  0  0
 23 24  1  0  0  0  0
 24 19  1  0  0  0  0
 25 22  1  0  0  0  0
 26 27  1  0  0  0  0
 29 30  1  0  0  0  0
 29 28  1  0  0  0  0
 31 34  1  0  0  0  0
 31 32  1  0  0  0  0
 31 30  1  1  0  0  0
 32 35  1  1  0  0  0
 33 31  1  0  0  0  0
 33 32  1  0  0  0  0
 34 32  1  0  0  0  0
 35 39  2  0  0  0  0
 35 40  1  0  0  0  0
 36 38  1  0  0  0  0
 37 38  2  0  0  0  0
 39 37  1  0  0  0  0
 40 36  2  0  0  0  0
 41 43  1  0  0  0  0
 41 33  1  0  0  0  0
 42 43  1  0  0  0  0
M  END
>  <MODEL>
3

>  <REMARK>
 VINA RESULT:      -8.0      2.097      4.474
  Name = 
  11 active torsions:
  status: ('A' for Active; 'I' for Inactive)
    1  A    between atoms: C_1  and  N_34
    2  A    between atoms: C_1  and  C_35
    3  A    between atoms: C_3  and  C_4
    4  A    between atoms: C_3  and  C_12
    5  A    between atoms: N_6  and  C_17
    6  A    between atoms: C_10  and  N_22
    7  A    between atoms: C_10  and  C_42
    8  A    between atoms: C_11  and  C_14
    9  A    between atoms: C_12  and  C_17
   10  A    between atoms: N_19  and  C_37
   11  A    between atoms: C_27  and  C_30
                            x       y       z     vdW  Elec       q    Type
                         _______ _______ _______ _____ _____    ______ ____

>  <TORSDO>
F 11

$$$$
=
 OpenBabel11052420493D

 43 49  0  0  1  0  0  0  0  0999 V2000
  189.8590  173.8160  145.4180 C   0  0  0  0  0  2  0  0  0  0  0  0
  190.9680  174.5120  144.7600 N   0  0  0  0  0  0  0  0  0  0  0  0
  189.6710  172.4320  144.7990 C   0  0  0  0  0  2  0  0  0  0  0  0
  190.6440  174.7470  143.3510 C   0  0  0  0  0  2  0  0  0  0  0  0
  190.4570  173.4120  142.6280 C   0  0  1  0  0  3  0  0  0  0  0  0
  189.3720  172.5720  143.3100 C   0  0  0  0  0  2  0  0  0  0  0  0
  190.3380  169.9610  138.8650 C   0  0  0  0  0  0  0  0  0  0  0  0
  188.9590  174.4290  140.7960 C   0  0  0  0  0  0  0  0  0  0  0  0
  189.5490  172.2220  139.1250 C   0  0  0  0  0  0  0  0  0  0  0  0
  191.0050  170.0650  140.0470 N   0  0  0  0  0  0  0  0  0  0  0  0
  190.4080  168.7000  138.0820 C   0  0  0  0  0  1  0  0  0  0  0  0
  190.2250  172.3110  140.3510 C   0  0  0  0  0  0  0  0  0  0  0  0
  189.6090  171.0460  138.3750 C   0  0  0  0  0  3  0  0  0  0  0  0
  190.9700  171.2060  140.7870 C   0  0  0  0  0  3  0  0  0  0  0  0
  190.2030  173.6140  141.1220 C   0  0  2  0  0  3  0  0  0  0  0  0
  188.3680  174.2990  139.6420 N   0  0  0  0  0  0  0  0  0  0  0  0
  188.4560  175.3750  141.7460 N   0  0  0  0  0  2  0  0  0  0  0  0
  188.8500  173.4250  138.5720 C   0  0  0  0  0  2  0  0  0  0  0  0
  187.3660  176.2940  141.4400 C   0  0  0  0  0  2  0  0  0  0  0  0
  187.4400  178.0290  144.8930 C   0  0  0  0  0  2  0  0  0  0  0  0
  186.1460  178.7240  144.8160 N   0  0  0  0  0  0  0  0  0  0  0  0
  185.9720  178.1450  142.3950 C   0  0  0  0  0  2  0  0  0  0  0  0
  187.5590  176.8940  143.8720 C   0  0  0  0  0  2  0  0  0  0  0  0
  187.3120  177.4240  142.4630 C   0  0  0  0  0  3  0  0  0  0  0  0
  185.9140  179.2420  143.4610 C   0  0  0  0  0  2  0  0  0  0  0  0
  183.9810  178.5970  145.9320 C   0  0  0  0  0  1  0  0  0  0  0  0
  185.0600  177.8240  145.1990 C   0  0  0  0  0  2  0  0  0  0  0  0
  191.2190  175.7930  145.4280 C   0  0  0  0  0  2  0  0  0  0  0  0
  192.3850  175.7470  146.4140 C   0  0  0  0  0  2  0  0  0  0  0  0
  193.3070  174.6040  146.0380 C   0  0  0  0  0  2  0  0  0  0  0  0
  194.4950  175.1270  145.2320 C   0  0  1  0  0  0  0  0  0  0  0  0
  195.2280  174.0490  144.4550 C   0  0  1  0  0  0  0  0  0  0  0  0
  194.2850  174.9610  143.7870 N   0  0  0  0  0  0  0  0  0  0  0  0
  195.8220  174.6120  145.7290 C   0  0  0  0  0  2  0  0  0  0  0  0
  194.6650  172.6430  144.6020 C   0  0  0  0  0  0  0  0  0  0  0  0
  194.6860  170.4610  145.6820 C   0  0  0  0  0  3  0  0  0  0  0  0
  193.2050  170.8630  143.8090 C   0  0  0  0  0  3  0  0  0  0  0  0
  193.7000  170.0100  144.8000 C   0  0  0  0  0  3  0  0  0  0  0  0
  193.6900  172.1700  143.7060 C   0  0  0  0  0  3  0  0  0  0  0  0
  195.1710  171.7680  145.5790 C   0  0  0  0  0  3  0  0  0  0  0  0
  195.0750  175.9770  143.1090 C   0  0  0  0  0  2  0  0  0  0  0  0
  193.6690  175.1420  141.3720 O   0  0  0  0  0  1  0  0  0  0  0  0
  194.5810  176.1520  141.6850 C   0  0  0  0  0  2  0  0  0  0  0  0
  2  1  1  0  0  0  0
  2 28  1  0  0  0  0
  3  1  1  0  0  0  0
  4  2  1  0  0  0  0
  5  6  1  1  0  0  0
  5  4  1  0  0  0  0
  6  3  1  0  0  0  0
  7 10  1  0  0  0  0
  8 15  1  0  0  0  0
  8 17  1  0  0  0  0
  9 12  2  0  0  0  0
 10 14  2  0  0  0  0
 11  7  1  0  0  0  0
 12 14  1  0  0  0  0
 13  7  2  0  0  0  0
 13  9  1  0  0  0  0
 15 12  1  6  0  0  0
 15  5  1  0  0  0  0
 16  8  2  0  0  0  0
 18  9  1  0  0  0  0
 18 16  1  0  0  0  0
 19 17  1  0  0  0  0
 19 24  1  0  0  0  0
 21 20  1  0  0  0  0
 21 27  1  0  0  0  0
 22 24  1  0  0  0  0
 22 25  1  0  0  0  0
 23 20  1  0  0  0  0
 24 23  1  0  0  0  0
 25 21  1  0  0  0  0
 27 26  1  0  0  0  0
 28 29  1  0  0  0  0
 30 29  1  0  0  0  0
 31 34  1  0  0  0  0
 31 30  1  1  0  0  0
 32 35  1  1  0  0  0
 32 31  1  0  0  0  0
 32 34  1  0  0  0  0
 33 32  1  0  0  0  0
 33 31  1  0  0  0  0
 35 40  1  0  0  0  0
 37 38  2  0  0  0  0
 38 36  1  0  0  0  0
 39 37  1  0  0  0  0
 39 35  2  0  0  0  0
 40 36  2  0  0  0  0
 41 33  1  0  0  0  0
 42 43  1  0  0  0  0
 43 41  1  0  0  0  0
M  END
>  <MODEL>
4

>  <REMARK>
 VINA RESULT:      -7.9      2.555      8.191
  Name = 
  11 active torsions:
  status: ('A' for Active; 'I' for Inactive)
    1  A    between atoms: C_1  and  N_34
    2  A    between atoms: C_1  and  C_35
    3  A    between atoms: C_3  and  C_4
    4  A    between atoms: C_3  and  C_12
    5  A    between atoms: N_6  and  C_17
    6  A    between atoms: C_10  and  N_22
    7  A    between atoms: C_10  and  C_42
    8  A    between atoms: C_11  and  C_14
    9  A    between atoms: C_12  and  C_17
   10  A    between atoms: N_19  and  C_37
   11  A    between atoms: C_27  and  C_30
                            x       y       z     vdW  Elec       q    Type
                         _______ _______ _______ _____ _____    ______ ____

>  <TORSDO>
F 11

$$$$
=
 OpenBabel11052420493D

 43 49  0  0  1  0  0  0  0  0999 V2000
  189.2970  175.5250  145.4730 C   0  0  0  0  0  2  0  0  0  0  0  0
  190.3560  175.9670  144.5610 N   0  0  0  0  0  0  0  0  0  0  0  0
  189.6040  174.1200  145.9860 C   0  0  0  0  0  2  0  0  0  0  0  0
  190.3820  175.1080  143.3750 C   0  0  0  0  0  2  0  0  0  0  0  0
  190.7080  173.6690  143.7800 C   0  0  1  0  0  3  0  0  0  0  0  0
  189.6980  173.1530  144.8100 C   0  0  0  0  0  2  0  0  0  0  0  0
  188.6050  174.1360  139.1490 C   0  0  0  0  0  0  0  0  0  0  0  0
  192.2650  172.3910  142.1740 C   0  0  0  0  0  0  0  0  0  0  0  0
  190.4440  172.8770  140.0620 C   0  0  0  0  0  0  0  0  0  0  0  0
  188.2370  174.4990  140.4070 N   0  0  0  0  0  0  0  0  0  0  0  0
  187.8160  174.6050  137.9800 C   0  0  0  0  0  1  0  0  0  0  0  0
  190.0660  173.2730  141.3540 C   0  0  0  0  0  0  0  0  0  0  0  0
  189.7090  173.3040  138.9550 C   0  0  0  0  0  3  0  0  0  0  0  0
  188.9310  174.0840  141.5010 C   0  0  0  0  0  3  0  0  0  0  0  0
  190.8340  172.7500  142.5500 C   0  0  2  0  0  3  0  0  0  0  0  0
  192.5590  172.0370  140.9550 N   0  0  0  0  0  0  0  0  0  0  0  0
  193.2900  172.4040  143.1740 N   0  0  0  0  0  2  0  0  0  0  0  0
  191.5720  171.9100  139.8810 C   0  0  0  0  0  2  0  0  0  0  0  0
  194.6440  171.9260  142.9190 C   0  0  0  0  0  2  0  0  0  0  0  0
  196.7760  173.9180  145.4530 C   0  0  0  0  0  2  0  0  0  0  0  0
  196.4280  175.2770  145.0120 N   0  0  0  0  0  0  0  0  0  0  0  0
  195.3160  174.3390  142.9840 C   0  0  0  0  0  2  0  0  0  0  0  0
  195.7840  172.8640  144.9510 C   0  0  0  0  0  2  0  0  0  0  0  0
  195.6730  172.9270  143.4310 C   0  0  0  0  0  3  0  0  0  0  0  0
  196.3300  175.3380  143.5470 C   0  0  0  0  0  2  0  0  0  0  0  0
  194.9640  177.1890  145.4020 C   0  0  0  0  0  1  0  0  0  0  0  0
  195.1650  175.7010  145.6140 C   0  0  0  0  0  2  0  0  0  0  0  0
  190.1180  177.3560  144.1560 C   0  0  0  0  0  2  0  0  0  0  0  0
  189.1770  177.4890  142.9590 C   0  0  0  0  0  2  0  0  0  0  0  0
  187.8930  178.1570  143.4090 C   0  0  0  0  0  2  0  0  0  0  0  0
  186.7070  177.6090  142.6180 C   0  0  1  0  0  0  0  0  0  0  0  0
  185.4620  177.3910  143.4580 C   0  0  1  0  0  0  0  0  0  0  0  0
  185.5920  178.5650  142.5800 N   0  0  0  0  0  0  0  0  0  0  0  0
  186.3130  176.2130  143.0310 C   0  0  0  0  0  2  0  0  0  0  0  0
  185.5970  177.7520  144.9290 C   0  0  0  0  0  0  0  0  0  0  0  0
  185.5690  179.4140  146.7080 C   0  0  0  0  0  3  0  0  0  0  0  0
  186.1760  177.1250  147.2090 C   0  0  0  0  0  3  0  0  0  0  0  0
  185.9530  178.4390  147.6320 C   0  0  0  0  0  3  0  0  0  0  0  0
  186.0060  176.7850  145.8640 C   0  0  0  0  0  3  0  0  0  0  0  0
  185.3990  179.0750  145.3630 C   0  0  0  0  0  3  0  0  0  0  0  0
  184.8210  178.2930  141.3770 C   0  0  0  0  0  2  0  0  0  0  0  0
  182.5930  178.2870  140.5240 O   0  0  0  0  0  1  0  0  0  0  0  0
  183.3390  178.2820  141.7040 C   0  0  0  0  0  2  0  0  0  0  0  0
  1  3  1  0  0  0  0
  2  1  1  0  0  0  0
  4  2  1  0  0  0  0
  5  4  1  6  0  0  0
  5  6  1  0  0  0  0
  6  3  1  0  0  0  0
  7 10  1  0  0  0  0
  8 15  1  0  0  0  0
  8 17  1  0  0  0  0
  9 12  2  0  0  0  0
 10 14  2  0  0  0  0
 11  7  1  0  0  0  0
 12 14  1  0  0  0  0
 13  7  2  0  0  0  0
 13  9  1  0  0  0  0
 15 12  1  6  0  0  0
 15  5  1  0  0  0  0
 16  8  2  0  0  0  0
 18  9  1  0  0  0  0
 18 16  1  0  0  0  0
 19 17  1  0  0  0  0
 19 24  1  0  0  0  0
 21 20  1  0  0  0  0
 21 27  1  0  0  0  0
 22 24  1  0  0  0  0
 22 25  1  0  0  0  0
 23 20  1  0  0  0  0
 24 23  1  0  0  0  0
 25 21  1  0  0  0  0
 26 27  1  0  0  0  0
 28  2  1  0  0  0  0
 29 30  1  0  0  0  0
 29 28  1  0  0  0  0
 31 34  1  0  0  0  0
 31 30  1  1  0  0  0
 31 32  1  0  0  0  0
 32 35  1  1  0  0  0
 33 31  1  0  0  0  0
 33 32  1  0  0  0  0
 34 32  1  0  0  0  0
 35 40  2  0  0  0  0
 35 39  1  0  0  0  0
 36 38  2  0  0  0  0
 37 38  1  0  0  0  0
 39 37  2  0  0  0  0
 40 36  1  0  0  0  0
 41 43  1  0  0  0  0
 41 33  1  0  0  0  0
 42 43  1  0  0  0  0
M  END
>  <MODEL>
5

>  <REMARK>
 VINA RESULT:      -7.8      1.199      1.968
  Name = 
  11 active torsions:
  status: ('A' for Active; 'I' for Inactive)
    1  A    between atoms: C_1  and  N_34
    2  A    between atoms: C_1  and  C_35
    3  A    between atoms: C_3  and  C_4
    4  A    between atoms: C_3  and  C_12
    5  A    between atoms: N_6  and  C_17
    6  A    between atoms: C_10  and  N_22
    7  A    between atoms: C_10  and  C_42
    8  A    between atoms: C_11  and  C_14
    9  A    between atoms: C_12  and  C_17
   10  A    between atoms: N_19  and  C_37
   11  A    between atoms: C_27  and  C_30
                            x       y       z     vdW  Elec       q    Type
                         _______ _______ _______ _____ _____    ______ ____

>  <TORSDO>
F 11

$$$$
=
 OpenBabel11052420493D

 43 49  0  0  1  0  0  0  0  0999 V2000
  190.9350  175.7360  147.1070 C   0  0  0  0  0  2  0  0  0  0  0  0
  192.2070  175.4370  146.4440 N   0  0  0  0  0  0  0  0  0  0  0  0
  189.9220  174.6320  146.8140 C   0  0  0  0  0  2  0  0  0  0  0  0
  192.0250  175.4400  144.9910 C   0  0  0  0  0  2  0  0  0  0  0  0
  191.0370  174.3450  144.5860 C   0  0  1  0  0  3  0  0  0  0  0  0
  189.6980  174.5270  145.3080 C   0  0  0  0  0  2  0  0  0  0  0  0
  190.8170  170.2220  141.5800 C   0  0  0  0  0  0  0  0  0  0  0  0
  189.7410  175.0820  142.4850 C   0  0  0  0  0  0  0  0  0  0  0  0
  190.2220  172.5430  141.3300 C   0  0  0  0  0  0  0  0  0  0  0  0
  191.4240  170.5120  142.7630 N   0  0  0  0  0  0  0  0  0  0  0  0
  190.8160  168.8270  141.0680 C   0  0  0  0  0  1  0  0  0  0  0  0
  190.8340  172.8260  142.5600 C   0  0  0  0  0  0  0  0  0  0  0  0
  190.2170  171.2380  140.8340 C   0  0  0  0  0  3  0  0  0  0  0  0
  191.4510  171.7780  143.2590 C   0  0  0  0  0  3  0  0  0  0  0  0
  190.8860  174.2560  143.0550 C   0  0  2  0  0  3  0  0  0  0  0  0
  189.2060  174.7660  141.3400 N   0  0  0  0  0  0  0  0  0  0  0  0
  189.2730  176.2360  143.1900 N   0  0  0  0  0  2  0  0  0  0  0  0
  189.6660  173.6580  140.5010 C   0  0  0  0  0  2  0  0  0  0  0  0
  188.2890  177.1550  142.6310 C   0  0  0  0  0  2  0  0  0  0  0  0
  184.6980  178.0240  143.7640 C   0  0  0  0  0  2  0  0  0  0  0  0
  184.8930  177.9080  145.2170 N   0  0  0  0  0  0  0  0  0  0  0  0
  187.1380  176.8850  144.8400 C   0  0  0  0  0  2  0  0  0  0  0  0
  186.0190  178.1640  143.0030 C   0  0  0  0  0  2  0  0  0  0  0  0
  186.9450  176.9980  143.3330 C   0  0  0  0  0  3  0  0  0  0  0  0
  185.7770  176.7790  145.5350 C   0  0  0  0  0  2  0  0  0  0  0  0
  185.5740  179.0460  147.2650 C   0  0  0  0  0  1  0  0  0  0  0  0
  185.4520  179.1460  145.7560 C   0  0  0  0  0  2  0  0  0  0  0  0
  193.2120  176.4380  146.8170 C   0  0  0  0  0  2  0  0  0  0  0  0
  193.9060  177.0790  145.6160 C   0  0  0  0  0  2  0  0  0  0  0  0
  195.1700  176.3030  145.3030 C   0  0  0  0  0  2  0  0  0  0  0  0
  195.5040  176.4150  143.8160 C   0  0  1  0  0  0  0  0  0  0  0  0
  195.9180  175.1000  143.1830 C   0  0  1  0  0  0  0  0  0  0  0  0
  194.5640  175.6440  142.9890 N   0  0  0  0  0  0  0  0  0  0  0  0
  196.9570  176.1510  143.5130 C   0  0  0  0  0  2  0  0  0  0  0  0
  195.9310  173.9010  144.1190 C   0  0  0  0  0  0  0  0  0  0  0  0
  197.1400  172.3670  145.5710 C   0  0  0  0  0  3  0  0  0  0  0  0
  194.7900  171.9980  145.1220 C   0  0  0  0  0  3  0  0  0  0  0  0
  195.9740  171.6200  145.7610 C   0  0  0  0  0  3  0  0  0  0  0  0
  194.7700  173.1280  144.2990 C   0  0  0  0  0  3  0  0  0  0  0  0
  197.1200  173.4960  144.7480 C   0  0  0  0  0  3  0  0  0  0  0  0
  194.5310  176.2600  141.6720 C   0  0  0  0  0  2  0  0  0  0  0  0
  193.3190  174.5520  140.5290 O   0  0  0  0  0  1  0  0  0  0  0  0
  194.5600  175.1880  140.5980 C   0  0  0  0  0  2  0  0  0  0  0  0
  2 28  1  0  0  0  0
  2  1  1  0  0  0  0
  3  1  1  0  0  0  0
  4  2  1  0  0  0  0
  5  4  1  6  0  0  0
  5  6  1  0  0  0  0
  6  3  1  0  0  0  0
  7 10  1  0  0  0  0
  8 17  1  0  0  0  0
  9 12  2  0  0  0  0
 10 14  2  0  0  0  0
 11  7  1  0  0  0  0
 12 15  1  0  0  0  0
 12 14  1  0  0  0  0
 13  9  1  0  0  0  0
 13  7  2  0  0  0  0
 15  8  1  1  0  0  0
 15  5  1  0  0  0  0
 16  8  2  0  0  0  0
 18  9  1  0  0  0  0
 18 16  1  0  0  0  0
 19 17  1  0  0  0  0
 19 24  1  0  0  0  0
 20 21  1  0  0  0  0
 21 25  1  0  0  0  0
 21 27  1  0  0  0  0
 22 25  1  0  0  0  0
 23 24  1  0  0  0  0
 23 20  1  0  0  0  0
 24 22  1  0  0  0  0
 27 26  1  0  0  0  0
 29 28  1  0  0  0  0
 30 29  1  0  0  0  0
 31 30  1  1  0  0  0
 32 34  1  0  0  0  0
 32 31  1  0  0  0  0
 32 35  1  1  0  0  0
 33 32  1  0  0  0  0
 33 31  1  0  0  0  0
 34 31  1  0  0  0  0
 35 39  2  0  0  0  0
 35 40  1  0  0  0  0
 36 38  1  0  0  0  0
 37 38  2  0  0  0  0
 39 37  1  0  0  0  0
 40 36  2  0  0  0  0
 41 33  1  0  0  0  0
 42 43  1  0  0  0  0
 43 41  1  0  0  0  0
M  END
>  <MODEL>
6

>  <REMARK>
 VINA RESULT:      -7.8      2.333      8.256
  Name = 
  11 active torsions:
  status: ('A' for Active; 'I' for Inactive)
    1  A    between atoms: C_1  and  N_34
    2  A    between atoms: C_1  and  C_35
    3  A    between atoms: C_3  and  C_4
    4  A    between atoms: C_3  and  C_12
    5  A    between atoms: N_6  and  C_17
    6  A    between atoms: C_10  and  N_22
    7  A    between atoms: C_10  and  C_42
    8  A    between atoms: C_11  and  C_14
    9  A    between atoms: C_12  and  C_17
   10  A    between atoms: N_19  and  C_37
   11  A    between atoms: C_27  and  C_30
                            x       y       z     vdW  Elec       q    Type
                         _______ _______ _______ _____ _____    ______ ____

>  <TORSDO>
F 11

$$$$
=
 OpenBabel11052420493D

 43 49  0  0  1  0  0  0  0  0999 V2000
  193.1340  176.3900  143.0870 C   0  0  0  0  0  2  0  0  0  0  0  0
  191.6850  176.2850  143.2830 N   0  0  0  0  0  0  0  0  0  0  0  0
  193.5360  175.6980  141.7870 C   0  0  0  0  0  2  0  0  0  0  0  0
  191.3050  174.8810  143.4460 C   0  0  0  0  0  2  0  0  0  0  0  0
  191.6470  174.0960  142.1790 C   0  0  1  0  0  3  0  0  0  0  0  0
  193.1360  174.2270  141.8440 C   0  0  0  0  0  2  0  0  0  0  0  0
  190.0940  170.9320  138.4830 C   0  0  0  0  0  0  0  0  0  0  0  0
  192.1210  171.7190  143.0510 C   0  0  0  0  0  0  0  0  0  0  0  0
  190.8730  170.6520  140.7450 C   0  0  0  0  0  0  0  0  0  0  0  0
  190.0410  172.2780  138.6740 N   0  0  0  0  0  0  0  0  0  0  0  0
  189.6970  170.3520  137.1730 C   0  0  0  0  0  1  0  0  0  0  0  0
  190.8310  172.0430  140.9250 C   0  0  0  0  0  0  0  0  0  0  0  0
  190.4980  170.0920  139.5220 C   0  0  0  0  0  3  0  0  0  0  0  0
  190.3890  172.8430  139.8620 C   0  0  0  0  0  3  0  0  0  0  0  0
  191.1800  172.6310  142.2760 C   0  0  2  0  0  3  0  0  0  0  0  0
  192.1210  170.4340  142.8360 N   0  0  0  0  0  0  0  0  0  0  0  0
  192.9850  172.2680  144.0510 N   0  0  0  0  0  2  0  0  0  0  0  0
  191.2180  169.7630  141.8980 C   0  0  0  0  0  2  0  0  0  0  0  0
  193.7970  171.4380  144.9320 C   0  0  0  0  0  2  0  0  0  0  0  0
  196.0690  174.4510  145.7640 C   0  0  0  0  0  2  0  0  0  0  0  0
  197.2310  174.0830  144.9410 N   0  0  0  0  0  0  0  0  0  0  0  0
  196.2420  171.8260  144.5440 C   0  0  0  0  0  2  0  0  0  0  0  0
  194.7970  173.7030  145.3550 C   0  0  0  0  0  2  0  0  0  0  0  0
  195.0350  172.1970  145.3970 C   0  0  0  0  0  3  0  0  0  0  0  0
  197.4640  172.6340  144.9900 C   0  0  0  0  0  2  0  0  0  0  0  0
  196.8710  176.0170  143.4980 C   0  0  0  0  0  1  0  0  0  0  0  0
  197.0310  174.5100  143.5580 C   0  0  0  0  0  2  0  0  0  0  0  0
  191.2860  177.0450  144.4720 C   0  0  0  0  0  2  0  0  0  0  0  0
  190.2300  178.1120  144.1860 C   0  0  0  0  0  2  0  0  0  0  0  0
  188.8540  177.5270  144.4340 C   0  0  0  0  0  2  0  0  0  0  0  0
  188.2230  177.0840  143.1160 C   0  0  1  0  0  0  0  0  0  0  0  0
  186.7060  177.1360  143.1170 C   0  0  1  0  0  0  0  0  0  0  0  0
  187.5030  178.1860  142.4620 N   0  0  0  0  0  0  0  0  0  0  0  0
  187.4270  175.8100  143.2380 C   0  0  0  0  0  2  0  0  0  0  0  0
  186.0720  177.6180  144.4140 C   0  0  0  0  0  0  0  0  0  0  0  0
  185.0900  177.1410  146.5890 C   0  0  0  0  0  3  0  0  0  0  0  0
  185.1290  179.4150  145.7590 C   0  0  0  0  0  3  0  0  0  0  0  0
  184.8010  178.4980  146.7610 C   0  0  0  0  0  3  0  0  0  0  0  0
  185.7550  178.9760  144.5880 C   0  0  0  0  0  3  0  0  0  0  0  0
  185.7150  176.7020  145.4190 C   0  0  0  0  0  3  0  0  0  0  0  0
  187.4860  177.9130  141.0330 C   0  0  0  0  0  2  0  0  0  0  0  0
  185.9650  177.1650  139.3540 O   0  0  0  0  0  1  0  0  0  0  0  0
  186.0570  177.9260  140.5210 C   0  0  0  0  0  2  0  0  0  0  0  0
  1  2  1  0  0  0  0
  2  4  1  0  0  0  0
  2 28  1  0  0  0  0
  3  6  1  0  0  0  0
  3  1  1  0  0  0  0
  5  6  1  1  0  0  0
  5 15  1  0  0  0  0
  5  4  1  0  0  0  0
  7 10  2  0  0  0  0
  7 13  1  0  0  0  0
  8 17  1  0  0  0  0
  9 12  1  0  0  0  0
  9 18  1  0  0  0  0
 10 14  1  0  0  0  0
 11  7  1  0  0  0  0
 13  9  2  0  0  0  0
 14 12  2  0  0  0  0
 15 12  1  6  0  0  0
 15  8  1  0  0  0  0
 16  8  2  0  0  0  0
 17 19  1  0  0  0  0
 18 16  1  0  0  0  0
 19 24  1  0  0  0  0
 21 25  1  0  0  0  0
 21 20  1  0  0  0  0
 22 25  1  0  0  0  0
 22 24  1  0  0  0  0
 23 24  1  0  0  0  0
 23 20  1  0  0  0  0
 26 27  1  0  0  0  0
 27 21  1  0  0  0  0
 29 30  1  0  0  0  0
 29 28  1  0  0  0  0
 31 32  1  0  0  0  0
 31 34  1  0  0  0  0
 31 30  1  1  0  0  0
 32 34  1  0  0  0  0
 32 35  1  1  0  0  0
 33 31  1  0  0  0  0
 33 32  1  0  0  0  0
 35 39  2  0  0  0  0
 35 40  1  0  0  0  0
 36 38  1  0  0  0  0
 37 38  2  0  0  0  0
 39 37  1  0  0  0  0
 40 36  2  0  0  0  0
 41 33  1  0  0  0  0
 42 43  1  0  0  0  0
 43 41  1  0  0  0  0
M  END
>  <MODEL>
7

>  <REMARK>
 VINA RESULT:      -7.8      1.825      2.678
  Name = 
  11 active torsions:
  status: ('A' for Active; 'I' for Inactive)
    1  A    between atoms: C_1  and  N_34
    2  A    between atoms: C_1  and  C_35
    3  A    between atoms: C_3  and  C_4
    4  A    between atoms: C_3  and  C_12
    5  A    between atoms: N_6  and  C_17
    6  A    between atoms: C_10  and  N_22
    7  A    between atoms: C_10  and  C_42
    8  A    between atoms: C_11  and  C_14
    9  A    between atoms: C_12  and  C_17
   10  A    between atoms: N_19  and  C_37
   11  A    between atoms: C_27  and  C_30
                            x       y       z     vdW  Elec       q    Type
                         _______ _______ _______ _____ _____    ______ ____

>  <TORSDO>
F 11

$$$$
=
 OpenBabel11052420493D

 43 49  0  0  1  0  0  0  0  0999 V2000
  190.1900  174.6690  145.8190 C   0  0  0  0  0  2  0  0  0  0  0  0
  191.3420  175.1370  145.0450 N   0  0  0  0  0  0  0  0  0  0  0  0
  189.7200  173.3160  145.2890 C   0  0  0  0  0  2  0  0  0  0  0  0
  190.9480  175.3710  143.6540 C   0  0  0  0  0  2  0  0  0  0  0  0
  190.4790  174.0610  143.0180 C   0  0  1  0  0  3  0  0  0  0  0  0
  189.3270  173.4480  143.8210 C   0  0  0  0  0  2  0  0  0  0  0  0
  190.4350  170.6150  139.2490 C   0  0  0  0  0  0  0  0  0  0  0  0
  188.8250  174.9670  141.2640 C   0  0  0  0  0  0  0  0  0  0  0  0
  189.4950  172.8120  139.5560 C   0  0  0  0  0  0  0  0  0  0  0  0
  191.1480  170.7660  140.3980 N   0  0  0  0  0  0  0  0  0  0  0  0
  190.5600  169.3630  138.4570 C   0  0  0  0  0  1  0  0  0  0  0  0
  190.2200  172.9490  140.7490 C   0  0  0  0  0  0  0  0  0  0  0  0
  189.6060  171.6440  138.7990 C   0  0  0  0  0  3  0  0  0  0  0  0
  191.0650  171.9010  141.1440 C   0  0  0  0  0  3  0  0  0  0  0  0
  190.1390  174.2460  141.5260 C   0  0  2  0  0  3  0  0  0  0  0  0
  188.1910  174.7950  140.1380 N   0  0  0  0  0  0  0  0  0  0  0  0
  188.2990  175.8720  142.2400 N   0  0  0  0  0  2  0  0  0  0  0  0
  188.6850  173.9600  139.0420 C   0  0  0  0  0  2  0  0  0  0  0  0
  187.1320  176.7090  141.9910 C   0  0  0  0  0  2  0  0  0  0  0  0
  186.8040  178.3210  145.4880 C   0  0  0  0  0  2  0  0  0  0  0  0
  185.6160  179.1500  145.2360 N   0  0  0  0  0  0  0  0  0  0  0  0
  185.7890  178.6660  142.7940 C   0  0  0  0  0  2  0  0  0  0  0  0
  186.9780  177.2110  144.4470 C   0  0  0  0  0  2  0  0  0  0  0  0
  187.0210  177.8060  143.0430 C   0  0  0  0  0  3  0  0  0  0  0  0
  185.6640  179.7310  143.8870 C   0  0  0  0  0  2  0  0  0  0  0  0
  184.4420  177.5980  146.7070 C   0  0  0  0  0  1  0  0  0  0  0  0
  184.3980  178.3580  145.3950 C   0  0  0  0  0  2  0  0  0  0  0  0
  191.8610  176.3810  145.6250 C   0  0  0  0  0  2  0  0  0  0  0  0
  193.0990  176.1760  146.4960 C   0  0  0  0  0  2  0  0  0  0  0  0
  194.3110  176.0010  145.6010 C   0  0  0  0  0  2  0  0  0  0  0  0
  194.8800  174.5910  145.7540 C   0  0  1  0  0  0  0  0  0  0  0  0
  195.3540  173.9800  144.4490 C   0  0  1  0  0  0  0  0  0  0  0  0
  196.3100  174.5440  145.4160 N   0  0  0  0  0  0  0  0  0  0  0  0
  194.0460  173.5370  145.0710 C   0  0  0  0  0  2  0  0  0  0  0  0
  195.1900  174.8600  143.2190 C   0  0  0  0  0  0  0  0  0  0  0  0
  193.9740  175.4580  141.1970 C   0  0  0  0  0  3  0  0  0  0  0  0
  196.0480  176.5860  141.7320 C   0  0  0  0  0  3  0  0  0  0  0  0
  194.9460  176.4140  140.8890 C   0  0  0  0  0  3  0  0  0  0  0  0
  196.1730  175.8080  142.8860 C   0  0  0  0  0  3  0  0  0  0  0  0
  194.0990  174.6800  142.3510 C   0  0  0  0  0  3  0  0  0  0  0  0
  196.8970  173.4300  146.1430 C   0  0  0  0  0  2  0  0  0  0  0  0
  197.1910  171.0930  145.7680 O   0  0  0  0  0  1  0  0  0  0  0  0
  197.3280  172.3470  145.1720 C   0  0  0  0  0  2  0  0  0  0  0  0
  2 28  1  0  0  0  0
  2  1  1  0  0  0  0
  3  1  1  0  0  0  0
  4  2  1  0  0  0  0
  5  4  1  1  0  0  0
  5  6  1  0  0  0  0
  6  3  1  0  0  0  0
  7 10  1  0  0  0  0
  8 15  1  0  0  0  0
  8 17  1  0  0  0  0
  9 12  2  0  0  0  0
 10 14  2  0  0  0  0
 11  7  1  0  0  0  0
 12 14  1  0  0  0  0
 13  7  2  0  0  0  0
 13  9  1  0  0  0  0
 15 12  1  1  0  0  0
 15  5  1  0  0  0  0
 16  8  2  0  0  0  0
 18  9  1  0  0  0  0
 18 16  1  0  0  0  0
 19 17  1  0  0  0  0
 19 24  1  0  0  0  0
 21 27  1  0  0  0  0
 21 20  1  0  0  0  0
 22 24  1  0  0  0  0
 22 25  1  0  0  0  0
 23 20  1  0  0  0  0
 24 23  1  0  0  0  0
 25 21  1  0  0  0  0
 27 26  1  0  0  0  0
 28 29  1  0  0  0  0
 30 29  1  0  0  0  0
 31 30  1  6  0  0  0
 32 35  1  6  0  0  0
 32 34  1  0  0  0  0
 32 33  1  0  0  0  0
 32 31  1  0  0  0  0
 33 31  1  0  0  0  0
 33 41  1  0  0  0  0
 34 31  1  0  0  0  0
 36 40  1  0  0  0  0
 37 39  2  0  0  0  0
 38 36  2  0  0  0  0
 38 37  1  0  0  0  0
 39 35  1  0  0  0  0
 40 35  2  0  0  0  0
 43 42  1  0  0  0  0
 43 41  1  0  0  0  0
M  END
>  <MODEL>
8

>  <REMARK>
 VINA RESULT:      -7.7      3.144      8.708
  Name = 
  11 active torsions:
  status: ('A' for Active; 'I' for Inactive)
    1  A    between atoms: C_1  and  N_34
    2  A    between atoms: C_1  and  C_35
    3  A    between atoms: C_3  and  C_4
    4  A    between atoms: C_3  and  C_12
    5  A    between atoms: N_6  and  C_17
    6  A    between atoms: C_10  and  N_22
    7  A    between atoms: C_10  and  C_42
    8  A    between atoms: C_11  and  C_14
    9  A    between atoms: C_12  and  C_17
   10  A    between atoms: N_19  and  C_37
   11  A    between atoms: C_27  and  C_30
                            x       y       z     vdW  Elec       q    Type
                         _______ _______ _______ _____ _____    ______ ____

>  <TORSDO>
F 11

$$$$
=
 OpenBabel11052420493D

 43 49  0  0  1  0  0  0  0  0999 V2000
  188.0820  176.4600  141.6670 C   0  0  0  0  0  2  0  0  0  0  0  0
  188.9500  175.3220  141.3560 N   0  0  0  0  0  0  0  0  0  0  0  0
  188.9300  177.6850  142.0050 C   0  0  0  0  0  2  0  0  0  0  0  0
  189.7300  174.9510  142.5390 C   0  0  0  0  0  2  0  0  0  0  0  0
  190.6390  176.1120  142.9490 C   0  0  1  0  0  3  0  0  0  0  0  0
  189.8180  177.3790  143.2060 C   0  0  0  0  0  2  0  0  0  0  0  0
  195.7130  176.4660  143.4100 C   0  0  0  0  0  0  0  0  0  0  0  0
  191.0980  176.3000  145.4760 C   0  0  0  0  0  0  0  0  0  0  0  0
  193.8790  176.2170  144.9510 C   0  0  0  0  0  0  0  0  0  0  0  0
  194.8590  176.2600  142.3700 N   0  0  0  0  0  0  0  0  0  0  0  0
  197.1570  176.6990  143.1480 C   0  0  0  0  0  1  0  0  0  0  0  0
  193.0040  176.0260  143.8710 C   0  0  0  0  0  0  0  0  0  0  0  0
  195.2390  176.4330  144.7220 C   0  0  0  0  0  3  0  0  0  0  0  0
  193.5320  176.0360  142.5710 C   0  0  0  0  0  3  0  0  0  0  0  0
  191.5430  175.7300  144.1370 C   0  0  2  0  0  3  0  0  0  0  0  0
  191.9580  176.4630  146.4430 N   0  0  0  0  0  0  0  0  0  0  0  0
  189.7210  176.6220  145.6940 N   0  0  0  0  0  2  0  0  0  0  0  0
  193.3690  176.0860  146.3520 C   0  0  0  0  0  2  0  0  0  0  0  0
  189.2020  177.0240  146.9950 C   0  0  0  0  0  2  0  0  0  0  0  0
  185.6040  176.8010  145.6010 C   0  0  0  0  0  2  0  0  0  0  0  0
  185.0750  178.0550  146.1590 N   0  0  0  0  0  0  0  0  0  0  0  0
  187.1210  178.2990  147.5670 C   0  0  0  0  0  2  0  0  0  0  0  0
  187.1350  176.7610  145.5920 C   0  0  0  0  0  2  0  0  0  0  0  0
  187.6770  177.0000  146.9980 C   0  0  0  0  0  3  0  0  0  0  0  0
  185.5910  178.2800  147.5160 C   0  0  0  0  0  2  0  0  0  0  0  0
  184.3410  179.4050  144.2640 C   0  0  0  0  0  1  0  0  0  0  0  0
  185.4270  179.1830  145.2990 C   0  0  0  0  0  2  0  0  0  0  0  0
  188.1380  174.1790  140.9240 C   0  0  0  0  0  2  0  0  0  0  0  0
  188.5010  173.6670  139.5310 C   0  0  0  0  0  2  0  0  0  0  0  0
  190.0100  173.6290  139.3950 C   0  0  0  0  0  2  0  0  0  0  0  0
  190.4350  172.4220  138.5590 C   0  0  1  0  0  0  0  0  0  0  0  0
  191.1460  171.3460  139.3590 C   0  0  1  0  0  0  0  0  0  0  0  0
  189.7320  171.2000  138.9760 N   0  0  0  0  0  0  0  0  0  0  0  0
  191.9310  172.2720  138.4530 C   0  0  0  0  0  2  0  0  0  0  0  0
  191.3150  171.6410  140.8420 C   0  0  0  0  0  0  0  0  0  0  0  0
  192.6600  172.4790  142.6900 C   0  0  0  0  0  3  0  0  0  0  0  0
  190.5120  171.4540  143.1330 C   0  0  0  0  0  3  0  0  0  0  0  0
  191.6710  172.0840  143.5950 C   0  0  0  0  0  3  0  0  0  0  0  0
  190.3380  171.2270  141.7650 C   0  0  0  0  0  3  0  0  0  0  0  0
  192.4860  172.2520  141.3220 C   0  0  0  0  0  3  0  0  0  0  0  0
  189.6860  170.3070  137.8280 C   0  0  0  0  0  2  0  0  0  0  0  0
  191.0630  168.4770  137.1610 O   0  0  0  0  0  1  0  0  0  0  0  0
  190.2650  168.9550  138.2010 C   0  0  0  0  0  2  0  0  0  0  0  0
  1  3  1  0  0  0  0
  2  1  1  0  0  0  0
  2  4  1  0  0  0  0
  3  6  1  0  0  0  0
  5  4  1  1  0  0  0
  5  6  1  0  0  0  0
  5 15  1  0  0  0  0
  7 13  1  0  0  0  0
  8 17  1  0  0  0  0
  8 16  2  0  0  0  0
  9 18  1  0  0  0  0
 10 14  1  0  0  0  0
 10  7  2  0  0  0  0
 11  7  1  0  0  0  0
 12  9  1  0  0  0  0
 13  9  2  0  0  0  0
 14 12  2  0  0  0  0
 15 12  1  6  0  0  0
 15  8  1  0  0  0  0
 17 19  1  0  0  0  0
 18 16  1  0  0  0  0
 19 24  1  0  0  0  0
 20 21  1  0  0  0  0
 21 25  1  0  0  0  0
 23 20  1  0  0  0  0
 23 24  1  0  0  0  0
 24 22  1  0  0  0  0
 25 22  1  0  0  0  0
 26 27  1  0  0  0  0
 27 21  1  0  0  0  0
 28  2  1  0  0  0  0
 29 28  1  0  0  0  0
 30 29  1  0  0  0  0
 31 33  1  0  0  0  0
 31 32  1  0  0  0  0
 31 30  1  1  0  0  0
 32 35  1  1  0  0  0
 33 32  1  0  0  0  0
 34 31  1  0  0  0  0
 34 32  1  0  0  0  0
 35 40  2  0  0  0  0
 35 39  1  0  0  0  0
 36 38  2  0  0  0  0
 37 38  1  0  0  0  0
 39 37  2  0  0  0  0
 40 36  1  0  0  0  0
 41 43  1  0  0  0  0
 41 33  1  0  0  0  0
 42 43  1  0  0  0  0
M  END
>  <MODEL>
9

>  <REMARK>
 VINA RESULT:      -7.7      2.844      8.235
  Name = 
  11 active torsions:
  status: ('A' for Active; 'I' for Inactive)
    1  A    between atoms: C_1  and  N_34
    2  A    between atoms: C_1  and  C_35
    3  A    between atoms: C_3  and  C_4
    4  A    between atoms: C_3  and  C_12
    5  A    between atoms: N_6  and  C_17
    6  A    between atoms: C_10  and  N_22
    7  A    between atoms: C_10  and  C_42
    8  A    between atoms: C_11  and  C_14
    9  A    between atoms: C_12  and  C_17
   10  A    between atoms: N_19  and  C_37
   11  A    between atoms: C_27  and  C_30
                            x       y       z     vdW  Elec       q    Type
                         _______ _______ _______ _____ _____    ______ ____

>  <TORSDO>
F 11

$$$$
