=
 OpenBabel11052421193D

 43 48  0  0  1  0  0  0  0  0999 V2000
  195.5500  174.7090  145.9520 C   0  0  2  0  0  3  0  0  0  0  0  0
  188.3350  177.5500  144.8690 C   0  0  0  0  0  0  0  0  0  0  0  0
  192.7920  175.3400  145.9810 C   0  0  0  0  0  0  0  0  0  0  0  0
  193.2160  176.1990  143.5860 C   0  0  0  0  0  3  0  0  0  0  0  0
  190.0720  176.1320  145.8010 C   0  0  0  0  0  0  0  0  0  0  0  0
  189.3200  178.0570  143.8860 C   0  0  0  0  0  3  0  0  0  0  0  0
  187.0170  178.0740  144.8790 N   0  0  0  0  0  1  0  0  0  0  0  0
  190.8660  176.2290  144.5070 C   0  0  1  0  0  3  0  0  0  0  0  0
  188.7020  176.6680  145.8040 C   0  0  0  0  0  3  0  0  0  0  0  0
  190.5200  177.4810  143.7460 C   0  0  0  0  0  3  0  0  0  0  0  0
  194.6600  175.8820  143.5940 N   0  0  0  0  0  0  0  0  0  0  0  0
  192.3480  175.9860  144.6690 C   0  0  0  0  0  0  0  0  0  0  0  0
  191.9740  175.1290  147.0030 C   0  0  0  0  0  3  0  0  0  0  0  0
  194.1880  175.0360  145.9350 C   0  0  0  0  0  0  0  0  0  0  0  0
  194.9990  175.3070  144.8230 C   0  0  0  0  0  0  0  0  0  0  0  0
  190.5700  175.5740  146.9130 C   0  0  0  0  0  3  0  0  0  0  0  0
  197.2640  171.3240  145.5960 C   0  0  0  0  0  3  0  0  0  0  0  0
  196.1660  170.4690  145.4490 C   0  0  0  0  0  0  0  0  0  0  0  0
  194.6690  172.3730  145.5960 C   0  0  0  0  0  3  0  0  0  0  0  0
  197.0650  172.7020  145.7430 C   0  0  0  0  0  3  0  0  0  0  0  0
  195.7660  173.2380  145.7290 C   0  0  0  0  0  0  0  0  0  0  0  0
  194.8660  170.9960  145.4560 C   0  0  0  0  0  3  0  0  0  0  0  0
  197.0640  168.4600  146.5700 C   0  0  0  0  0  1  0  0  0  0  0  0
  196.3780  168.9990  145.3230 C   0  0  0  0  0  2  0  0  0  0  0  0
  195.5890  176.0640  142.4870 C   0  0  1  0  0  3  0  0  0  0  0  0
  196.8410  176.8020  142.9380 C   0  0  0  0  0  1  0  0  0  0  0  0
  195.1550  173.7210  142.3070 F   0  0  0  0  0  0  0  0  0  0  0  0
  195.8890  174.7520  141.7440 C   0  0  2  0  0  0  0  0  0  0  0  0
  197.3630  174.4220  141.9240 C   0  0  0  0  0  1  0  0  0  0  0  0
  195.6050  174.8290  140.2400 C   0  0  0  0  0  2  0  0  0  0  0  0
  194.1220  174.9970  139.9150 C   0  0  0  0  0  2  0  0  0  0  0  0
  193.5150  173.7400  139.2780 C   0  0  2  0  0  3  0  0  0  0  0  0
  193.0740  173.9320  137.8220 C   0  0  0  0  0  2  0  0  0  0  0  0
  193.2430  175.2670  137.4470 O   0  0  0  0  0  1  0  0  0  0  0  0
  192.5320  173.0530  140.1460 N   0  0  0  0  0  0  0  0  0  0  0  0
  191.8900  171.9580  139.4310 C   0  0  0  0  0  1  0  0  0  0  0  0
  191.5410  173.9190  140.8240 C   0  0  0  0  0  2  0  0  0  0  0  0
  191.0530  173.4200  142.1550 C   0  0  0  0  0  0  0  0  0  0  0  0
  189.2600  173.0330  143.7440 C   0  0  0  0  0  3  0  0  0  0  0  0
  191.5080  172.3070  144.2700 C   0  0  0  0  0  3  0  0  0  0  0  0
  190.1630  172.4280  144.6260 C   0  0  0  0  0  3  0  0  0  0  0  0
  191.9490  172.7980  143.0350 C   0  0  0  0  0  3  0  0  0  0  0  0
  189.7030  173.5240  142.5090 C   0  0  0  0  0  3  0  0  0  0  0  0
  1 21  1  6  0  0  0
  2  7  1  0  0  0  0
  2  9  2  0  0  0  0
  3 13  2  0  0  0  0
  4 11  1  0  0  0  0
  4 12  2  0  0  0  0
  5  9  1  0  0  0  0
  5 16  2  0  0  0  0
  6  2  1  0  0  0  0
  8 10  1  1  0  0  0
  8 12  1  0  0  0  0
  8  5  1  0  0  0  0
 10  6  2  0  0  0  0
 11 15  1  0  0  0  0
 12  3  1  0  0  0  0
 14  1  1  0  0  0  0
 14  3  1  0  0  0  0
 15 14  2  0  0  0  0
 15  1  1  0  0  0  0
 16 13  1  0  0  0  0
 17 20  1  0  0  0  0
 18 22  1  0  0  0  0
 18 17  2  0  0  0  0
 19 21  1  0  0  0  0
 21 20  2  0  0  0  0
 22 19  2  0  0  0  0
 24 18  1  0  0  0  0
 24 23  1  0  0  0  0
 25 26  1  1  0  0  0
 25 11  1  0  0  0  0
 28 29  1  1  0  0  0
 28 27  1  0  0  0  0
 28 25  1  0  0  0  0
 30 28  1  0  0  0  0
 31 30  1  0  0  0  0
 32 33  1  6  0  0  0
 32 31  1  0  0  0  0
 32 35  1  0  0  0  0
 34 33  1  0  0  0  0
 35 37  1  0  0  0  0
 36 35  1  0  0  0  0
 37 38  1  0  0  0  0
 38 43  2  0  0  0  0
 38 42  1  0  0  0  0
 39 41  2  0  0  0  0
 40 41  1  0  0  0  0
 42 40  2  0  0  0  0
 43 39  1  0  0  0  0
M  END
>  <MODEL>
1

>  <REMARK>
 VINA RESULT:      -6.8      0.000      0.000
  Name = 
  11 active torsions:
  status: ('A' for Active; 'I' for Inactive)
    1  A    between atoms: C_1  and  C_35
    2  A    between atoms: C_2  and  C_12
    3  A    between atoms: C_2  and  N_27
    4  A    between atoms: C_4  and  C_6
    5  A    between atoms: C_4  and  C_15
    6  A    between atoms: C_6  and  C_12
    7  A    between atoms: C_10  and  C_15
    8  A    between atoms: C_11  and  C_14
    9  A    between atoms: C_14  and  N_22
   10  A    between atoms: C_15  and  N_22
   11  A    between atoms: C_19  and  C_37
                            x       y       z     vdW  Elec       q    Type
                         _______ _______ _______ _____ _____    ______ ____

>  <TORSDO>
F 11

$$$$
=
 OpenBabel11052421193D

 43 48  0  0  1  0  0  0  0  0999 V2000
  189.9290  177.1670  143.3010 C   0  0  2  0  0  3  0  0  0  0  0  0
  191.4150  169.5520  142.2510 C   0  0  0  0  0  0  0  0  0  0  0  0
  189.9880  174.4360  142.5650 C   0  0  0  0  0  0  0  0  0  0  0  0
  191.2770  174.1220  144.7780 C   0  0  0  0  0  3  0  0  0  0  0  0
  190.2420  171.6650  142.0050 C   0  0  0  0  0  0  0  0  0  0  0  0
  192.2540  170.1750  143.3000 C   0  0  0  0  0  3  0  0  0  0  0  0
  191.6590  168.2110  141.8580 N   0  0  0  0  0  1  0  0  0  0  0  0
  190.6960  172.0930  143.3920 C   0  0  0  0  0  0  0  0  0  0  0  0
  190.4890  170.2700  141.6070 C   0  0  0  0  0  2  0  0  0  0  0  0
  191.9570  171.3800  143.8010 C   0  0  0  0  0  3  0  0  0  0  0  0
  191.2550  175.5560  145.1380 N   0  0  0  0  0  0  0  0  0  0  0  0
  190.7290  173.5890  143.5990 C   0  0  0  0  0  0  0  0  0  0  0  0
  189.4620  173.9350  141.4550 C   0  0  0  0  0  3  0  0  0  0  0  0
  189.9780  175.8080  142.9640 C   0  0  0  0  0  0  0  0  0  0  0  0
  190.5740  176.2710  144.1470 C   0  0  0  0  0  0  0  0  0  0  0  0
  189.6280  172.5000  141.1560 C   0  0  0  0  0  3  0  0  0  0  0  0
  187.1070  177.9010  145.7530 C   0  0  0  0  0  3  0  0  0  0  0  0
  186.1150  178.3950  144.8990 C   0  0  0  0  0  0  0  0  0  0  0  0
  187.5900  178.0610  143.0010 C   0  0  0  0  0  3  0  0  0  0  0  0
  188.3390  177.4870  145.2330 C   0  0  0  0  0  3  0  0  0  0  0  0
  188.5840  177.5500  143.8500 C   0  0  0  0  0  0  0  0  0  0  0  0
  186.3610  178.4810  143.5210 C   0  0  0  0  0  3  0  0  0  0  0  0
  184.3110  177.8800  146.5050 C   0  0  0  0  0  1  0  0  0  0  0  0
  184.8150  178.8630  145.4580 C   0  0  0  0  0  2  0  0  0  0  0  0
  191.7880  176.1460  146.3580 C   0  0  1  0  0  3  0  0  0  0  0  0
  191.3220  175.3810  147.5870 C   0  0  0  0  0  1  0  0  0  0  0  0
  193.7140  177.1530  147.3530 F   0  0  0  0  0  0  0  0  0  0  0  0
  193.3120  176.3430  146.3030 C   0  0  2  0  0  0  0  0  0  0  0  0
  193.6580  177.0610  145.0070 C   0  0  0  0  0  1  0  0  0  0  0  0
  194.0950  175.0270  146.3350 C   0  0  0  0  0  2  0  0  0  0  0  0
  195.5060  175.1520  145.7640 C   0  0  0  0  0  2  0  0  0  0  0  0
  196.1520  173.7860  145.4930 C   0  0  2  0  0  3  0  0  0  0  0  0
  197.5790  173.8720  144.9390 C   0  0  0  0  0  2  0  0  0  0  0  0
  197.6970  174.9840  144.1020 O   0  0  0  0  0  1  0  0  0  0  0  0
  195.2590  172.8400  144.7870 N   0  0  0  0  0  0  0  0  0  0  0  0
  195.1060  171.6080  145.5500 C   0  0  0  0  0  1  0  0  0  0  0  0
  195.5870  172.5670  143.3690 C   0  0  0  0  0  2  0  0  0  0  0  0
  194.6500  173.1770  142.3630 C   0  0  0  0  0  0  0  0  0  0  0  0
  193.3820  175.0680  141.5250 C   0  0  0  0  0  3  0  0  0  0  0  0
  193.3680  172.9780  140.3060 C   0  0  0  0  0  3  0  0  0  0  0  0
  192.9440  174.3020  140.4380 C   0  0  0  0  0  3  0  0  0  0  0  0
  194.2230  172.4190  141.2640 C   0  0  0  0  0  3  0  0  0  0  0  0
  194.2360  174.5080  142.4830 C   0  0  0  0  0  3  0  0  0  0  0  0
  1 21  1  1  0  0  0
  1 15  1  0  0  0  0
  2  6  2  0  0  0  0
  3 14  1  0  0  0  0
  3 12  1  0  0  0  0
  4 11  1  0  0  0  0
  5  8  1  0  0  0  0
  6 10  1  0  0  0  0
  7  2  1  0  0  0  0
  8 12  1  0  0  0  0
  8 10  2  0  0  0  0
  9  5  1  0  0  0  0
  9  2  1  0  0  0  0
 11 25  1  0  0  0  0
 12  4  2  0  0  0  0
 13  3  2  0  0  0  0
 14  1  1  0  0  0  0
 14 15  2  0  0  0  0
 15 11  1  0  0  0  0
 16 13  1  0  0  0  0
 16  5  2  0  0  0  0
 18 24  1  0  0  0  0
 18 17  2  0  0  0  0
 19 22  2  0  0  0  0
 19 21  1  0  0  0  0
 20 17  1  0  0  0  0
 21 20  2  0  0  0  0
 22 18  1  0  0  0  0
 24 23  1  0  0  0  0
 25 26  1  1  0  0  0
 28 29  1  6  0  0  0
 28 30  1  0  0  0  0
 28 25  1  0  0  0  0
 28 27  1  0  0  0  0
 31 30  1  0  0  0  0
 32 33  1  6  0  0  0
 32 31  1  0  0  0  0
 34 33  1  0  0  0  0
 35 32  1  0  0  0  0
 35 36  1  0  0  0  0
 37 35  1  0  0  0  0
 38 43  1  0  0  0  0
 38 37  1  0  0  0  0
 39 43  2  0  0  0  0
 40 41  2  0  0  0  0
 40 42  1  0  0  0  0
 41 39  1  0  0  0  0
 42 38  2  0  0  0  0
M  END
>  <MODEL>
2

>  <REMARK>
 VINA RESULT:      -6.8      2.615      7.636
  Name = 
  11 active torsions:
  status: ('A' for Active; 'I' for Inactive)
    1  A    between atoms: C_1  and  C_35
    2  A    between atoms: C_2  and  C_12
    3  A    between atoms: C_2  and  N_27
    4  A    between atoms: C_4  and  C_6
    5  A    between atoms: C_4  and  C_15
    6  A    between atoms: C_6  and  C_12
    7  A    between atoms: C_10  and  C_15
    8  A    between atoms: C_11  and  C_14
    9  A    between atoms: C_14  and  N_22
   10  A    between atoms: C_15  and  N_22
   11  A    between atoms: C_19  and  C_37
                            x       y       z     vdW  Elec       q    Type
                         _______ _______ _______ _____ _____    ______ ____

>  <TORSDO>
F 11

$$$$
=
 OpenBabel11052421193D

 43 48  0  0  1  0  0  0  0  0999 V2000
  195.8810  175.9260  144.4980 C   0  0  2  0  0  3  0  0  0  0  0  0
  188.3310  177.3570  145.9980 C   0  0  0  0  0  0  0  0  0  0  0  0
  193.2880  176.2420  145.5850 C   0  0  0  0  0  0  0  0  0  0  0  0
  192.5070  176.0790  143.1320 C   0  0  0  0  0  3  0  0  0  0  0  0
  190.6050  176.6230  146.4310 C   0  0  0  0  0  0  0  0  0  0  0  0
  188.6840  177.5080  144.5680 C   0  0  0  0  0  3  0  0  0  0  0  0
  187.0300  177.7090  146.4420 N   0  0  0  0  0  1  0  0  0  0  0  0
  190.7800  176.2570  144.9650 C   0  0  1  0  0  3  0  0  0  0  0  0
  189.2530  176.9780  146.8890 C   0  0  0  0  0  3  0  0  0  0  0  0
  189.8440  177.0460  144.0870 C   0  0  0  0  0  3  0  0  0  0  0  0
  193.8710  175.9340  142.5780 N   0  0  0  0  0  0  0  0  0  0  0  0
  192.2160  176.2460  144.4960 C   0  0  0  0  0  0  0  0  0  0  0  0
  193.0160  176.3920  146.8750 C   0  0  0  0  0  3  0  0  0  0  0  0
  194.5840  176.0840  145.0040 C   0  0  0  0  0  0  0  0  0  0  0  0
  194.7980  175.9500  143.6240 C   0  0  0  0  0  0  0  0  0  0  0  0
  191.6230  176.6220  147.3020 C   0  0  0  0  0  3  0  0  0  0  0  0
  196.9060  172.6570  146.1670 C   0  0  0  0  0  3  0  0  0  0  0  0
  197.1830  171.8520  145.0570 C   0  0  0  0  0  0  0  0  0  0  0  0
  196.6450  173.7020  143.5840 C   0  0  0  0  0  3  0  0  0  0  0  0
  196.5000  173.9840  145.9860 C   0  0  0  0  0  3  0  0  0  0  0  0
  196.3800  174.5220  144.6930 C   0  0  0  0  0  0  0  0  0  0  0  0
  197.0450  172.3750  143.7630 C   0  0  0  0  0  3  0  0  0  0  0  0
  196.7900  169.8090  146.3890 C   0  0  0  0  0  1  0  0  0  0  0  0
  197.5870  170.4300  145.2510 C   0  0  0  0  0  2  0  0  0  0  0  0
  194.2150  175.7350  141.1770 C   0  0  1  0  0  3  0  0  0  0  0  0
  195.5680  176.3500  140.8510 C   0  0  0  0  0  1  0  0  0  0  0  0
  193.9580  173.4590  141.8580 F   0  0  0  0  0  0  0  0  0  0  0  0
  194.0910  174.2660  140.7400 C   0  0  2  0  0  0  0  0  0  0  0  0
  195.3750  173.8650  140.0310 C   0  0  0  0  0  1  0  0  0  0  0  0
  192.9250  174.0150  139.7790 C   0  0  0  0  0  2  0  0  0  0  0  0
  191.5740  173.9150  140.4840 C   0  0  0  0  0  2  0  0  0  0  0  0
  190.7290  172.7400  139.9700 C   0  0  2  0  0  3  0  0  0  0  0  0
  189.2240  173.0300  139.9250 C   0  0  0  0  0  2  0  0  0  0  0  0
  188.9020  173.6850  138.7340 O   0  0  0  0  0  1  0  0  0  0  0  0
  191.1020  171.4390  140.5680 N   0  0  0  0  0  0  0  0  0  0  0  0
  190.7530  170.3420  139.6740 C   0  0  0  0  0  1  0  0  0  0  0  0
  190.6230  171.1920  141.9480 C   0  0  0  0  0  2  0  0  0  0  0  0
  191.6400  171.4170  143.0320 C   0  0  0  0  0  0  0  0  0  0  0  0
  193.6860  170.7930  144.1770 C   0  0  0  0  0  3  0  0  0  0  0  0
  192.4690  172.7620  144.8810 C   0  0  0  0  0  3  0  0  0  0  0  0
  193.5510  171.8930  145.0320 C   0  0  0  0  0  3  0  0  0  0  0  0
  191.5190  172.5260  143.8800 C   0  0  0  0  0  3  0  0  0  0  0  0
  192.7350  170.5570  143.1770 C   0  0  0  0  0  3  0  0  0  0  0  0
  1 21  1  1  0  0  0
  1 14  1  0  0  0  0
  2  7  1  0  0  0  0
  2  9  2  0  0  0  0
  3 13  2  0  0  0  0
  4 12  2  0  0  0  0
  5  9  1  0  0  0  0
  5 16  2  0  0  0  0
  6  2  1  0  0  0  0
  8 10  1  6  0  0  0
  8  5  1  0  0  0  0
 10  6  2  0  0  0  0
 11  4  1  0  0  0  0
 11 15  1  0  0  0  0
 12  8  1  0  0  0  0
 12  3  1  0  0  0  0
 13 16  1  0  0  0  0
 14  3  1  0  0  0  0
 15  1  1  0  0  0  0
 15 14  2  0  0  0  0
 18 24  1  0  0  0  0
 18 17  2  0  0  0  0
 19 22  2  0  0  0  0
 19 21  1  0  0  0  0
 20 17  1  0  0  0  0
 21 20  2  0  0  0  0
 22 18  1  0  0  0  0
 24 23  1  0  0  0  0
 25 26  1  1  0  0  0
 25 11  1  0  0  0  0
 28 29  1  6  0  0  0
 28 25  1  0  0  0  0
 28 27  1  0  0  0  0
 30 31  1  0  0  0  0
 30 28  1  0  0  0  0
 32 33  1  1  0  0  0
 32 31  1  0  0  0  0
 32 35  1  0  0  0  0
 34 33  1  0  0  0  0
 35 37  1  0  0  0  0
 36 35  1  0  0  0  0
 37 38  1  0  0  0  0
 38 43  2  0  0  0  0
 38 42  1  0  0  0  0
 39 41  2  0  0  0  0
 40 41  1  0  0  0  0
 42 40  2  0  0  0  0
 43 39  1  0  0  0  0
M  END
>  <MODEL>
3

>  <REMARK>
 VINA RESULT:      -6.8      1.553      2.331
  Name = 
  11 active torsions:
  status: ('A' for Active; 'I' for Inactive)
    1  A    between atoms: C_1  and  C_35
    2  A    between atoms: C_2  and  C_12
    3  A    between atoms: C_2  and  N_27
    4  A    between atoms: C_4  and  C_6
    5  A    between atoms: C_4  and  C_15
    6  A    between atoms: C_6  and  C_12
    7  A    between atoms: C_10  and  C_15
    8  A    between atoms: C_11  and  C_14
    9  A    between atoms: C_14  and  N_22
   10  A    between atoms: C_15  and  N_22
   11  A    between atoms: C_19  and  C_37
                            x       y       z     vdW  Elec       q    Type
                         _______ _______ _______ _____ _____    ______ ____

>  <TORSDO>
F 11

$$$$
=
 OpenBabel11052421193D

 43 48  0  0  1  0  0  0  0  0999 V2000
  189.3090  174.8110  145.9180 C   0  0  2  0  0  3  0  0  0  0  0  0
  196.5140  176.1290  143.1520 C   0  0  0  0  0  0  0  0  0  0  0  0
  191.9440  175.6820  145.3640 C   0  0  0  0  0  0  0  0  0  0  0  0
  191.4520  174.8510  142.9720 C   0  0  0  0  0  3  0  0  0  0  0  0
  194.5770  176.4070  144.5890 C   0  0  0  0  0  0  0  0  0  0  0  0
  195.7060  175.2410  142.2860 C   0  0  0  0  0  3  0  0  0  0  0  0
  197.8810  176.3550  142.8480 N   0  0  0  0  0  1  0  0  0  0  0  0
  193.6570  175.9830  143.4540 C   0  0  1  0  0  3  0  0  0  0  0  0
  195.9910  176.6490  144.2670 C   0  0  0  0  0  3  0  0  0  0  0  0
  194.3830  175.1260  142.4510 C   0  0  0  0  0  3  0  0  0  0  0  0
  190.0840  174.3830  143.2830 N   0  0  0  0  0  0  0  0  0  0  0  0
  192.3290  175.4240  143.9080 C   0  0  0  0  0  0  0  0  0  0  0  0
  192.7660  176.2300  146.2500 C   0  0  0  0  0  3  0  0  0  0  0  0
  190.6110  175.2300  145.6120 C   0  0  0  0  0  0  0  0  0  0  0  0
  189.8030  174.6390  144.6280 C   0  0  0  0  0  0  0  0  0  0  0  0
  194.1430  176.5730  145.8460 C   0  0  0  0  0  3  0  0  0  0  0  0
  187.3820  177.9520  144.9490 C   0  0  0  0  0  3  0  0  0  0  0  0
  186.4840  178.0700  146.0150 C   0  0  0  0  0  0  0  0  0  0  0  0
  187.4430  176.0880  147.0360 C   0  0  0  0  0  3  0  0  0  0  0  0
  188.3090  176.9040  144.9250 C   0  0  0  0  0  3  0  0  0  0  0  0
  188.3570  175.9730  145.9760 C   0  0  0  0  0  0  0  0  0  0  0  0
  186.5120  177.1310  147.0570 C   0  0  0  0  0  3  0  0  0  0  0  0
  184.0730  178.5910  146.1370 C   0  0  0  0  0  1  0  0  0  0  0  0
  185.4770  179.1680  146.0240 C   0  0  0  0  0  2  0  0  0  0  0  0
  189.1360  173.8070  142.3390 C   0  0  1  0  0  3  0  0  0  0  0  0
  188.1090  174.8380  141.8960 C   0  0  0  0  0  1  0  0  0  0  0  0
  190.6830  173.9700  140.5260 F   0  0  0  0  0  0  0  0  0  0  0  0
  189.8270  173.0910  141.1680 C   0  0  2  0  0  0  0  0  0  0  0  0
  188.7630  172.6680  140.1660 C   0  0  0  0  0  1  0  0  0  0  0  0
  190.5970  171.8370  141.5930 C   0  0  0  0  0  2  0  0  0  0  0  0
  191.6230  171.3800  140.5580 C   0  0  0  0  0  2  0  0  0  0  0  0
  193.0600  171.7450  140.9560 C   0  0  2  0  0  3  0  0  0  0  0  0
  193.8130  172.5550  139.8940 C   0  0  0  0  0  2  0  0  0  0  0  0
  195.1880  172.4870  140.1300 O   0  0  0  0  0  1  0  0  0  0  0  0
  193.8170  170.6130  141.5370 N   0  0  0  0  0  0  0  0  0  0  0  0
  193.5960  169.3960  140.7650 C   0  0  0  0  0  1  0  0  0  0  0  0
  193.6360  170.3810  142.9880 C   0  0  0  0  0  2  0  0  0  0  0  0
  194.3390  171.3580  143.8900 C   0  0  0  0  0  0  0  0  0  0  0  0
  194.3220  172.9000  145.7620 C   0  0  0  0  0  3  0  0  0  0  0  0
  196.3880  172.4720  144.5770 C   0  0  0  0  0  3  0  0  0  0  0  0
  195.6910  173.1340  145.5910 C   0  0  0  0  0  3  0  0  0  0  0  0
  195.7130  171.5820  143.7330 C   0  0  0  0  0  3  0  0  0  0  0  0
  193.6480  172.0100  144.9160 C   0  0  0  0  0  3  0  0  0  0  0  0
  1 21  1  6  0  0  0
  2  9  2  0  0  0  0
  3 14  1  0  0  0  0
  3 13  2  0  0  0  0
  4 11  1  0  0  0  0
  4 12  2  0  0  0  0
  5 16  2  0  0  0  0
  6 10  2  0  0  0  0
  6  2  1  0  0  0  0
  7  2  1  0  0  0  0
  8 10  1  1  0  0  0
  8 12  1  0  0  0  0
  8  5  1  0  0  0  0
  9  5  1  0  0  0  0
 11 15  1  0  0  0  0
 12  3  1  0  0  0  0
 14  1  1  0  0  0  0
 15 14  2  0  0  0  0
 15  1  1  0  0  0  0
 16 13  1  0  0  0  0
 17 18  1  0  0  0  0
 18 24  1  0  0  0  0
 18 22  2  0  0  0  0
 19 22  1  0  0  0  0
 20 17  2  0  0  0  0
 20 21  1  0  0  0  0
 21 19  2  0  0  0  0
 24 23  1  0  0  0  0
 25 26  1  6  0  0  0
 25 11  1  0  0  0  0
 27 28  1  0  0  0  0
 28 29  1  6  0  0  0
 28 30  1  0  0  0  0
 28 25  1  0  0  0  0
 31 32  1  0  0  0  0
 31 30  1  0  0  0  0
 32 33  1  6  0  0  0
 32 35  1  0  0  0  0
 33 34  1  0  0  0  0
 35 37  1  0  0  0  0
 36 35  1  0  0  0  0
 37 38  1  0  0  0  0
 38 43  1  0  0  0  0
 40 41  2  0  0  0  0
 41 39  1  0  0  0  0
 42 38  2  0  0  0  0
 42 40  1  0  0  0  0
 43 39  2  0  0  0  0
M  END
>  <MODEL>
4

>  <REMARK>
 VINA RESULT:      -6.5      2.197      7.076
  Name = 
  11 active torsions:
  status: ('A' for Active; 'I' for Inactive)
    1  A    between atoms: C_1  and  C_35
    2  A    between atoms: C_2  and  C_12
    3  A    between atoms: C_2  and  N_27
    4  A    between atoms: C_4  and  C_6
    5  A    between atoms: C_4  and  C_15
    6  A    between atoms: C_6  and  C_12
    7  A    between atoms: C_10  and  C_15
    8  A    between atoms: C_11  and  C_14
    9  A    between atoms: C_14  and  N_22
   10  A    between atoms: C_15  and  N_22
   11  A    between atoms: C_19  and  C_37
                            x       y       z     vdW  Elec       q    Type
                         _______ _______ _______ _____ _____    ______ ____

>  <TORSDO>
F 11

$$$$
=
 OpenBabel11052421193D

 43 48  0  0  1  0  0  0  0  0999 V2000
  196.1210  174.8330  145.5320 C   0  0  2  0  0  3  0  0  0  0  0  0
  196.9750  174.1760  137.7770 C   0  0  0  0  0  0  0  0  0  0  0  0
  196.2320  175.1590  142.7230 C   0  0  0  0  0  0  0  0  0  0  0  0
  196.0430  172.5870  142.6650 C   0  0  0  0  0  3  0  0  0  0  0  0
  196.4050  175.2260  139.8910 C   0  0  0  0  0  0  0  0  0  0  0  0
  197.1700  172.8980  138.5000 C   0  0  0  0  0  3  0  0  0  0  0  0
  197.2250  174.2400  136.3820 N   0  0  0  0  0  1  0  0  0  0  0  0
  196.0710  173.8690  140.4910 C   0  0  0  0  0  0  0  0  0  0  0  0
  196.6530  175.2890  138.4420 C   0  0  0  0  0  2  0  0  0  0  0  0
  196.8000  172.7600  139.7780 C   0  0  0  0  0  3  0  0  0  0  0  0
  196.0060  172.4320  144.1350 N   0  0  0  0  0  0  0  0  0  0  0  0
  196.1710  173.8150  141.9970 C   0  0  0  0  0  0  0  0  0  0  0  0
  196.3450  176.3220  142.0960 C   0  0  0  0  0  3  0  0  0  0  0  0
  196.1760  174.9600  144.1370 C   0  0  0  0  0  0  0  0  0  0  0  0
  196.0770  173.6940  144.7340 C   0  0  0  0  0  0  0  0  0  0  0  0
  196.4680  176.3440  140.6260 C   0  0  0  0  0  3  0  0  0  0  0  0
  193.1750  176.8060  146.9290 C   0  0  0  0  0  3  0  0  0  0  0  0
  192.1630  175.8400  146.9220 C   0  0  0  0  0  0  0  0  0  0  0  0
  193.7300  174.2100  146.0410 C   0  0  0  0  0  3  0  0  0  0  0  0
  194.4640  176.4750  146.4930 C   0  0  0  0  0  3  0  0  0  0  0  0
  194.7540  175.1700  146.0610 C   0  0  0  0  0  0  0  0  0  0  0  0
  192.4410  174.5420  146.4710 C   0  0  0  0  0  3  0  0  0  0  0  0
  189.8460  175.0200  147.1620 C   0  0  0  0  0  1  0  0  0  0  0  0
  190.7850  176.2020  147.3580 C   0  0  0  0  0  2  0  0  0  0  0  0
  195.8500  171.1830  144.8670 C   0  0  1  0  0  3  0  0  0  0  0  0
  196.7090  171.1710  146.1220 C   0  0  0  0  0  1  0  0  0  0  0  0
  194.1090  170.9460  146.4870 F   0  0  0  0  0  0  0  0  0  0  0  0
  194.3770  170.8320  145.1330 C   0  0  2  0  0  0  0  0  0  0  0  0
  194.1490  169.3810  144.7380 C   0  0  0  0  0  1  0  0  0  0  0  0
  193.3940  171.6960  144.3360 C   0  0  0  0  0  2  0  0  0  0  0  0
  192.7390  170.9490  143.1760 C   0  0  0  0  0  2  0  0  0  0  0  0
  191.2150  171.1330  143.1470 C   0  0  2  0  0  3  0  0  0  0  0  0
  190.5620  170.7000  141.8300 C   0  0  0  0  0  2  0  0  0  0  0  0
  191.4780  169.9790  141.0600 O   0  0  0  0  0  1  0  0  0  0  0  0
  190.7680  172.4440  143.6690 N   0  0  0  0  0  0  0  0  0  0  0  0
  189.6850  172.2740  144.6300 C   0  0  0  0  0  1  0  0  0  0  0  0
  190.4440  173.4750  142.6570 C   0  0  0  0  0  2  0  0  0  0  0  0
  190.9510  174.8580  142.9610 C   0  0  0  0  0  0  0  0  0  0  0  0
  190.5810  177.1200  143.7550 C   0  0  0  0  0  3  0  0  0  0  0  0
  192.8030  176.4270  143.0940 C   0  0  0  0  0  3  0  0  0  0  0  0
  191.9380  177.4130  143.5710 C   0  0  0  0  0  3  0  0  0  0  0  0
  192.3110  175.1510  142.7950 C   0  0  0  0  0  3  0  0  0  0  0  0
  190.0900  175.8440  143.4550 C   0  0  0  0  0  3  0  0  0  0  0  0
  1 21  1  6  0  0  0
  2  9  1  0  0  0  0
  2  6  2  0  0  0  0
  3 14  1  0  0  0  0
  4 11  1  0  0  0  0
  5  8  1  0  0  0  0
  5 16  2  0  0  0  0
  6 10  1  0  0  0  0
  7  2  1  0  0  0  0
  8 12  1  0  0  0  0
  9  5  1  0  0  0  0
 10  8  2  0  0  0  0
 11 15  1  0  0  0  0
 11 25  1  0  0  0  0
 12  4  2  0  0  0  0
 12  3  1  0  0  0  0
 13  3  2  0  0  0  0
 14 15  2  0  0  0  0
 14  1  1  0  0  0  0
 15  1  1  0  0  0  0
 16 13  1  0  0  0  0
 18 17  1  0  0  0  0
 18 24  1  0  0  0  0
 19 21  2  0  0  0  0
 19 22  1  0  0  0  0
 20 17  2  0  0  0  0
 21 20  1  0  0  0  0
 22 18  2  0  0  0  0
 23 24  1  0  0  0  0
 25 28  1  0  0  0  0
 25 26  1  1  0  0  0
 28 29  1  6  0  0  0
 28 27  1  0  0  0  0
 30 28  1  0  0  0  0
 31 30  1  0  0  0  0
 32 33  1  6  0  0  0
 32 31  1  0  0  0  0
 32 35  1  0  0  0  0
 34 33  1  0  0  0  0
 35 36  1  0  0  0  0
 37 38  1  0  0  0  0
 37 35  1  0  0  0  0
 38 43  1  0  0  0  0
 40 41  2  0  0  0  0
 41 39  1  0  0  0  0
 42 38  2  0  0  0  0
 42 40  1  0  0  0  0
 43 39  2  0  0  0  0
M  END
>  <MODEL>
5

>  <REMARK>
 VINA RESULT:      -6.1      2.425      6.435
  Name = 
  11 active torsions:
  status: ('A' for Active; 'I' for Inactive)
    1  A    between atoms: C_1  and  C_35
    2  A    between atoms: C_2  and  C_12
    3  A    between atoms: C_2  and  N_27
    4  A    between atoms: C_4  and  C_6
    5  A    between atoms: C_4  and  C_15
    6  A    between atoms: C_6  and  C_12
    7  A    between atoms: C_10  and  C_15
    8  A    between atoms: C_11  and  C_14
    9  A    between atoms: C_14  and  N_22
   10  A    between atoms: C_15  and  N_22
   11  A    between atoms: C_19  and  C_37
                            x       y       z     vdW  Elec       q    Type
                         _______ _______ _______ _____ _____    ______ ____

>  <TORSDO>
F 11

$$$$
=
 OpenBabel11052421193D

 43 48  0  0  1  0  0  0  0  0999 V2000
  194.9370  175.6630  145.5580 C   0  0  2  0  0  3  0  0  0  0  0  0
  187.3660  177.6290  145.8890 C   0  0  0  0  0  0  0  0  0  0  0  0
  192.2170  176.0960  146.2050 C   0  0  0  0  0  0  0  0  0  0  0  0
  191.8990  176.3080  143.6540 C   0  0  0  0  0  3  0  0  0  0  0  0
  189.4580  176.6310  146.6100 C   0  0  0  0  0  0  0  0  0  0  0  0
  187.9900  177.9170  144.5780 C   0  0  0  0  0  3  0  0  0  0  0  0
  186.0350  178.0490  146.1420 N   0  0  0  0  0  1  0  0  0  0  0  0
  189.8770  176.4290  145.1620 C   0  0  1  0  0  3  0  0  0  0  0  0
  188.0740  177.0570  146.8670 C   0  0  0  0  0  3  0  0  0  0  0  0
  189.1830  177.4060  144.2500 C   0  0  0  0  0  3  0  0  0  0  0  0
  193.3270  176.0990  143.3340 N   0  0  0  0  0  0  0  0  0  0  0  0
  191.3710  176.3360  144.9550 C   0  0  0  0  0  0  0  0  0  0  0  0
  191.7210  176.1130  147.4360 C   0  0  0  0  0  3  0  0  0  0  0  0
  193.5830  175.8830  145.8450 C   0  0  0  0  0  0  0  0  0  0  0  0
  194.0410  175.8980  144.5190 C   0  0  0  0  0  0  0  0  0  0  0  0
  190.2930  176.4250  147.6380 C   0  0  0  0  0  3  0  0  0  0  0  0
  196.9110  172.4490  146.1020 C   0  0  0  0  0  3  0  0  0  0  0  0
  195.9160  171.4790  145.9390 C   0  0  0  0  0  0  0  0  0  0  0  0
  194.2900  173.2250  145.4970 C   0  0  0  0  0  3  0  0  0  0  0  0
  196.5960  173.8060  145.9620 C   0  0  0  0  0  3  0  0  0  0  0  0
  195.2870  174.2030  145.6430 C   0  0  0  0  0  0  0  0  0  0  0  0
  194.6020  171.8700  145.6420 C   0  0  0  0  0  3  0  0  0  0  0  0
  195.0750  169.3080  146.7650 C   0  0  0  0  0  1  0  0  0  0  0  0
  196.2450  170.0360  146.1180 C   0  0  0  0  0  2  0  0  0  0  0  0
  193.9120  176.0390  142.0010 C   0  0  1  0  0  3  0  0  0  0  0  0
  195.3980  176.3590  142.0390 C   0  0  0  0  0  1  0  0  0  0  0  0
  194.0120  174.8070  139.9560 F   0  0  0  0  0  0  0  0  0  0  0  0
  193.5890  174.7240  141.2720 C   0  0  2  0  0  0  0  0  0  0  0  0
  192.0790  174.5380  141.2610 C   0  0  0  0  0  1  0  0  0  0  0  0
  194.2090  173.4930  141.9400 C   0  0  0  0  0  2  0  0  0  0  0  0
  194.3130  172.2890  141.0050 C   0  0  0  0  0  2  0  0  0  0  0  0
  193.7740  171.0020  141.6450 C   0  0  2  0  0  3  0  0  0  0  0  0
  194.8670  170.0220  142.0870 C   0  0  0  0  0  2  0  0  0  0  0  0
  194.4470  169.3200  143.2190 O   0  0  0  0  0  1  0  0  0  0  0  0
  192.6520  170.3950  140.8940 N   0  0  0  0  0  0  0  0  0  0  0  0
  192.2920  171.2220  139.7480 C   0  0  0  0  0  1  0  0  0  0  0  0
  191.4620  170.0150  141.6880 C   0  0  0  0  0  2  0  0  0  0  0  0
  190.8420  171.1250  142.4910 C   0  0  0  0  0  0  0  0  0  0  0  0
  190.8470  172.6070  144.4120 C   0  0  0  0  0  3  0  0  0  0  0  0
  189.1160  172.8210  142.7350 C   0  0  0  0  0  3  0  0  0  0  0  0
  189.6910  173.2370  143.9380 C   0  0  0  0  0  3  0  0  0  0  0  0
  189.6940  171.7710  142.0120 C   0  0  0  0  0  3  0  0  0  0  0  0
  191.4240  171.5560  143.6880 C   0  0  0  0  0  3  0  0  0  0  0  0
  1 21  1  6  0  0  0
  1 14  1  0  0  0  0
  2  7  1  0  0  0  0
  2  9  2  0  0  0  0
  3 13  2  0  0  0  0
  4 12  2  0  0  0  0
  5  9  1  0  0  0  0
  5 16  2  0  0  0  0
  6  2  1  0  0  0  0
  8 10  1  6  0  0  0
  8  5  1  0  0  0  0
 10  6  2  0  0  0  0
 11  4  1  0  0  0  0
 11 15  1  0  0  0  0
 12  8  1  0  0  0  0
 12  3  1  0  0  0  0
 13 16  1  0  0  0  0
 14  3  1  0  0  0  0
 15  1  1  0  0  0  0
 15 14  2  0  0  0  0
 18 17  2  0  0  0  0
 18 24  1  0  0  0  0
 19 22  2  0  0  0  0
 19 21  1  0  0  0  0
 20 17  1  0  0  0  0
 21 20  2  0  0  0  0
 22 18  1  0  0  0  0
 24 23  1  0  0  0  0
 25 26  1  1  0  0  0
 25 11  1  0  0  0  0
 27 28  1  0  0  0  0
 28 29  1  6  0  0  0
 28 30  1  0  0  0  0
 28 25  1  0  0  0  0
 31 30  1  0  0  0  0
 32 31  1  6  0  0  0
 32 33  1  0  0  0  0
 33 34  1  0  0  0  0
 35 32  1  0  0  0  0
 35 37  1  0  0  0  0
 36 35  1  0  0  0  0
 37 38  1  0  0  0  0
 38 43  1  0  0  0  0
 40 41  2  0  0  0  0
 41 39  1  0  0  0  0
 42 38  2  0  0  0  0
 42 40  1  0  0  0  0
 43 39  2  0  0  0  0
M  END
>  <MODEL>
6

>  <REMARK>
 VINA RESULT:      -6.1      1.994      2.554
  Name = 
  11 active torsions:
  status: ('A' for Active; 'I' for Inactive)
    1  A    between atoms: C_1  and  C_35
    2  A    between atoms: C_2  and  C_12
    3  A    between atoms: C_2  and  N_27
    4  A    between atoms: C_4  and  C_6
    5  A    between atoms: C_4  and  C_15
    6  A    between atoms: C_6  and  C_12
    7  A    between atoms: C_10  and  C_15
    8  A    between atoms: C_11  and  C_14
    9  A    between atoms: C_14  and  N_22
   10  A    between atoms: C_15  and  N_22
   11  A    between atoms: C_19  and  C_37
                            x       y       z     vdW  Elec       q    Type
                         _______ _______ _______ _____ _____    ______ ____

>  <TORSDO>
F 11

$$$$
=
 OpenBabel11052421193D

 43 48  0  0  1  0  0  0  0  0999 V2000
  189.8530  177.3850  143.5440 C   0  0  2  0  0  3  0  0  0  0  0  0
  191.5210  170.2530  140.7770 C   0  0  0  0  0  0  0  0  0  0  0  0
  189.9100  174.8410  142.3070 C   0  0  0  0  0  0  0  0  0  0  0  0
  191.6790  174.2820  144.0990 C   0  0  0  0  0  3  0  0  0  0  0  0
  190.1990  172.2470  141.1890 C   0  0  0  0  0  0  0  0  0  0  0  0
  192.5350  170.7670  141.7260 C   0  0  0  0  0  3  0  0  0  0  0  0
  191.7520  169.0310  140.0950 N   0  0  0  0  0  1  0  0  0  0  0  0
  190.9250  172.4740  142.5060 C   0  0  0  0  0  0  0  0  0  0  0  0
  190.4330  170.9740  140.4910 C   0  0  0  0  0  2  0  0  0  0  0  0
  192.2870  171.8310  142.4990 C   0  0  0  0  0  3  0  0  0  0  0  0
  191.6520  175.6230  144.7220 N   0  0  0  0  0  0  0  0  0  0  0  0
  190.9140  173.9070  142.9820 C   0  0  0  0  0  0  0  0  0  0  0  0
  189.1790  174.4890  141.2570 C   0  0  0  0  0  3  0  0  0  0  0  0
  189.9070  176.1160  142.9520 C   0  0  0  0  0  0  0  0  0  0  0  0
  190.7250  176.4250  144.0500 C   0  0  0  0  0  0  0  0  0  0  0  0
  189.3610  173.1510  140.6630 C   0  0  0  0  0  3  0  0  0  0  0  0
  187.6090  177.3780  146.6240 C   0  0  0  0  0  3  0  0  0  0  0  0
  186.4300  177.9280  146.1110 C   0  0  0  0  0  0  0  0  0  0  0  0
  187.4630  178.0950  143.9220 C   0  0  0  0  0  3  0  0  0  0  0  0
  188.7150  177.1870  145.7870 C   0  0  0  0  0  3  0  0  0  0  0  0
  188.6450  177.5300  144.4260 C   0  0  0  0  0  0  0  0  0  0  0  0
  186.3600  178.2930  144.7580 C   0  0  0  0  0  3  0  0  0  0  0  0
  184.0690  178.6500  146.2030 C   0  0  0  0  0  1  0  0  0  0  0  0
  185.2630  178.1590  147.0100 C   0  0  0  0  0  2  0  0  0  0  0  0
  192.4090  176.0450  145.8920 C   0  0  1  0  0  3  0  0  0  0  0  0
  191.9340  175.3200  147.1430 C   0  0  0  0  0  1  0  0  0  0  0  0
  194.4240  174.8300  146.3090 F   0  0  0  0  0  0  0  0  0  0  0  0
  193.9290  175.9590  145.6770 C   0  0  2  0  0  0  0  0  0  0  0  0
  194.5760  177.1730  146.3250 C   0  0  0  0  0  1  0  0  0  0  0  0
  194.3320  175.9440  144.1990 C   0  0  0  0  0  2  0  0  0  0  0  0
  195.7110  176.5470  143.9450 C   0  0  0  0  0  2  0  0  0  0  0  0
  196.6900  175.5360  143.3310 C   0  0  2  0  0  3  0  0  0  0  0  0
  196.5940  175.4260  141.8050 C   0  0  0  0  0  2  0  0  0  0  0  0
  196.1480  176.6360  141.2680 O   0  0  0  0  0  1  0  0  0  0  0  0
  196.7350  174.2450  144.0540 N   0  0  0  0  0  0  0  0  0  0  0  0
  197.9090  174.1770  144.9150 C   0  0  0  0  0  1  0  0  0  0  0  0
  196.5940  173.0270  143.2250 C   0  0  0  0  0  2  0  0  0  0  0  0
  195.7930  171.9150  143.8450 C   0  0  0  0  0  0  0  0  0  0  0  0
  195.1730  169.5730  143.9790 C   0  0  0  0  0  3  0  0  0  0  0  0
  194.2220  171.1590  145.5400 C   0  0  0  0  0  3  0  0  0  0  0  0
  194.3270  169.8520  145.0590 C   0  0  0  0  0  3  0  0  0  0  0  0
  194.9580  172.1860  144.9360 C   0  0  0  0  0  3  0  0  0  0  0  0
  195.9080  170.6010  143.3760 C   0  0  0  0  0  3  0  0  0  0  0  0
  1 15  1  0  0  0  0
  1 21  1  1  0  0  0
  2  6  2  0  0  0  0
  3 14  1  0  0  0  0
  3 12  1  0  0  0  0
  4 11  1  0  0  0  0
  5  8  1  0  0  0  0
  6 10  1  0  0  0  0
  7  2  1  0  0  0  0
  8 12  1  0  0  0  0
  9  2  1  0  0  0  0
  9  5  1  0  0  0  0
 10  8  2  0  0  0  0
 11 25  1  0  0  0  0
 12  4  2  0  0  0  0
 13  3  2  0  0  0  0
 14  1  1  0  0  0  0
 14 15  2  0  0  0  0
 15 11  1  0  0  0  0
 16  5  2  0  0  0  0
 16 13  1  0  0  0  0
 18 17  1  0  0  0  0
 18 24  1  0  0  0  0
 19 21  2  0  0  0  0
 19 22  1  0  0  0  0
 20 17  2  0  0  0  0
 21 20  1  0  0  0  0
 22 18  2  0  0  0  0
 23 24  1  0  0  0  0
 25 26  1  1  0  0  0
 28 25  1  0  0  0  0
 28 27  1  0  0  0  0
 28 29  1  1  0  0  0
 30 28  1  0  0  0  0
 31 30  1  0  0  0  0
 32 33  1  6  0  0  0
 32 31  1  0  0  0  0
 32 35  1  0  0  0  0
 34 33  1  0  0  0  0
 35 36  1  0  0  0  0
 37 38  1  0  0  0  0
 37 35  1  0  0  0  0
 38 42  1  0  0  0  0
 39 41  2  0  0  0  0
 41 40  1  0  0  0  0
 42 40  2  0  0  0  0
 43 38  2  0  0  0  0
 43 39  1  0  0  0  0
M  END
>  <MODEL>
7

>  <REMARK>
 VINA RESULT:      -6.0      2.297      7.424
  Name = 
  11 active torsions:
  status: ('A' for Active; 'I' for Inactive)
    1  A    between atoms: C_1  and  C_35
    2  A    between atoms: C_2  and  C_12
    3  A    between atoms: C_2  and  N_27
    4  A    between atoms: C_4  and  C_6
    5  A    between atoms: C_4  and  C_15
    6  A    between atoms: C_6  and  C_12
    7  A    between atoms: C_10  and  C_15
    8  A    between atoms: C_11  and  C_14
    9  A    between atoms: C_14  and  N_22
   10  A    between atoms: C_15  and  N_22
   11  A    between atoms: C_19  and  C_37
                            x       y       z     vdW  Elec       q    Type
                         _______ _______ _______ _____ _____    ______ ____

>  <TORSDO>
F 11

$$$$
=
 OpenBabel11052421193D

 43 48  0  0  1  0  0  0  0  0999 V2000
  190.2810  171.5310  141.0310 C   0  0  2  0  0  3  0  0  0  0  0  0
  187.8080  176.7750  146.2920 C   0  0  0  0  0  0  0  0  0  0  0  0
  189.2150  173.7350  142.4510 C   0  0  0  0  0  0  0  0  0  0  0  0
  190.8150  172.9820  144.3290 C   0  0  0  0  0  3  0  0  0  0  0  0
  188.2440  175.8330  144.0970 C   0  0  0  0  0  0  0  0  0  0  0  0
  188.5920  175.6710  146.8880 C   0  0  0  0  0  3  0  0  0  0  0  0
  187.1840  177.7310  147.1350 N   0  0  0  0  0  1  0  0  0  0  0  0
  189.4460  175.0800  144.6440 C   0  0  1  0  0  3  0  0  0  0  0  0
  187.6070  176.8300  144.9720 C   0  0  0  0  0  3  0  0  0  0  0  0
  189.3170  174.8440  146.1260 C   0  0  0  0  0  3  0  0  0  0  0  0
  191.3480  171.8230  143.5810 N   0  0  0  0  0  0  0  0  0  0  0  0
  189.8250  173.8540  143.8470 C   0  0  0  0  0  0  0  0  0  0  0  0
  188.2860  174.5600  141.9880 C   0  0  0  0  0  3  0  0  0  0  0  0
  189.7710  172.6130  141.7610 C   0  0  0  0  0  0  0  0  0  0  0  0
  190.7410  171.7670  142.3230 C   0  0  0  0  0  0  0  0  0  0  0  0
  187.7630  175.6270  142.8630 C   0  0  0  0  0  3  0  0  0  0  0  0
  193.4870  171.7720  138.9850 C   0  0  0  0  0  3  0  0  0  0  0  0
  193.1340  172.7240  138.0230 C   0  0  0  0  0  0  0  0  0  0  0  0
  190.9370  172.9250  139.0330 C   0  0  0  0  0  3  0  0  0  0  0  0
  192.5670  171.3970  139.9710 C   0  0  0  0  0  3  0  0  0  0  0  0
  191.2900  171.9820  140.0120 C   0  0  0  0  0  0  0  0  0  0  0  0
  191.8540  173.2960  138.0440 C   0  0  0  0  0  3  0  0  0  0  0  0
  195.1900  173.9990  137.5290 C   0  0  0  0  0  1  0  0  0  0  0  0
  194.1040  173.1000  136.9560 C   0  0  0  0  0  2  0  0  0  0  0  0
  192.3890  170.9100  144.0330 C   0  0  1  0  0  3  0  0  0  0  0  0
  192.3110  169.5810  143.2960 C   0  0  0  0  0  1  0  0  0  0  0  0
  193.7700  172.6670  143.1850 F   0  0  0  0  0  0  0  0  0  0  0  0
  193.7890  171.5460  143.9980 C   0  0  2  0  0  0  0  0  0  0  0  0
  194.7560  170.5460  143.3840 C   0  0  0  0  0  1  0  0  0  0  0  0
  194.3180  171.9210  145.3860 C   0  0  0  0  0  2  0  0  0  0  0  0
  194.0510  173.3780  145.7580 C   0  0  0  0  0  2  0  0  0  0  0  0
  195.2680  174.2800  145.5120 C   0  0  2  0  0  3  0  0  0  0  0  0
  196.5690  173.7490  146.1270 C   0  0  0  0  0  2  0  0  0  0  0  0
  197.6610  174.1640  145.3610 O   0  0  0  0  0  1  0  0  0  0  0  0
  194.9990  175.7150  145.7530 N   0  0  0  0  0  0  0  0  0  0  0  0
  193.7680  175.8860  146.5160 C   0  0  0  0  0  1  0  0  0  0  0  0
  195.0320  176.5960  144.5640 C   0  0  0  0  0  2  0  0  0  0  0  0
  194.4590  176.0020  143.3060 C   0  0  0  0  0  0  0  0  0  0  0  0
  192.5570  175.3410  141.9530 C   0  0  0  0  0  3  0  0  0  0  0  0
  194.7990  175.0810  141.0820 C   0  0  0  0  0  3  0  0  0  0  0  0
  193.4180  174.9410  140.9250 C   0  0  0  0  0  3  0  0  0  0  0  0
  195.3160  175.6150  142.2680 C   0  0  0  0  0  3  0  0  0  0  0  0
  193.0760  175.8750  143.1390 C   0  0  0  0  0  3  0  0  0  0  0  0
  1 21  1  6  0  0  0
  1 14  1  0  0  0  0
  1 15  1  0  0  0  0
  2  6  1  0  0  0  0
  2  7  1  0  0  0  0
  3 12  1  0  0  0  0
  5  8  1  0  0  0  0
  5  9  1  0  0  0  0
  8 10  1  1  0  0  0
  9  2  2  0  0  0  0
 10  6  2  0  0  0  0
 11 25  1  0  0  0  0
 11  4  1  0  0  0  0
 12  4  2  0  0  0  0
 12  8  1  0  0  0  0
 13  3  2  0  0  0  0
 13 16  1  0  0  0  0
 14 15  2  0  0  0  0
 14  3  1  0  0  0  0
 15 11  1  0  0  0  0
 16  5  2  0  0  0  0
 17 20  1  0  0  0  0
 18 22  1  0  0  0  0
 18 17  2  0  0  0  0
 19 21  1  0  0  0  0
 20 21  2  0  0  0  0
 22 19  2  0  0  0  0
 24 23  1  0  0  0  0
 24 18  1  0  0  0  0
 25 26  1  6  0  0  0
 27 28  1  0  0  0  0
 28 29  1  6  0  0  0
 28 25  1  0  0  0  0
 28 30  1  0  0  0  0
 30 31  1  0  0  0  0
 32 35  1  0  0  0  0
 32 31  1  1  0  0  0
 32 33  1  0  0  0  0
 34 33  1  0  0  0  0
 35 36  1  0  0  0  0
 37 35  1  0  0  0  0
 38 37  1  0  0  0  0
 39 43  2  0  0  0  0
 40 42  1  0  0  0  0
 41 40  2  0  0  0  0
 41 39  1  0  0  0  0
 42 38  2  0  0  0  0
 43 38  1  0  0  0  0
M  END
>  <MODEL>
8

>  <REMARK>
 VINA RESULT:      -5.9      2.288      6.160
  Name = 
  11 active torsions:
  status: ('A' for Active; 'I' for Inactive)
    1  A    between atoms: C_1  and  C_35
    2  A    between atoms: C_2  and  C_12
    3  A    between atoms: C_2  and  N_27
    4  A    between atoms: C_4  and  C_6
    5  A    between atoms: C_4  and  C_15
    6  A    between atoms: C_6  and  C_12
    7  A    between atoms: C_10  and  C_15
    8  A    between atoms: C_11  and  C_14
    9  A    between atoms: C_14  and  N_22
   10  A    between atoms: C_15  and  N_22
   11  A    between atoms: C_19  and  C_37
                            x       y       z     vdW  Elec       q    Type
                         _______ _______ _______ _____ _____    ______ ____

>  <TORSDO>
F 11

$$$$
=
 OpenBabel11052421193D

 43 48  0  0  1  0  0  0  0  0999 V2000
  191.1510  172.0830  141.2470 C   0  0  2  0  0  3  0  0  0  0  0  0
  187.6590  176.7600  146.4650 C   0  0  0  0  0  0  0  0  0  0  0  0
  189.8050  174.1300  142.6620 C   0  0  0  0  0  0  0  0  0  0  0  0
  191.0370  173.1790  144.7190 C   0  0  0  0  0  3  0  0  0  0  0  0
  188.5110  176.0500  144.3050 C   0  0  0  0  0  0  0  0  0  0  0  0
  188.3350  175.5950  147.0800 C   0  0  0  0  0  3  0  0  0  0  0  0
  186.8740  177.6250  147.2710 N   0  0  0  0  0  1  0  0  0  0  0  0
  189.6020  175.2380  144.9870 C   0  0  1  0  0  3  0  0  0  0  0  0
  187.7070  176.9520  145.1430 C   0  0  0  0  0  3  0  0  0  0  0  0
  189.2020  174.8490  146.3860 C   0  0  0  0  0  3  0  0  0  0  0  0
  191.7180  172.1020  143.9680 N   0  0  0  0  0  0  0  0  0  0  0  0
  190.1420  174.1000  144.1530 C   0  0  0  0  0  0  0  0  0  0  0  0
  188.9660  175.0040  142.1220 C   0  0  0  0  0  3  0  0  0  0  0  0
  190.4970  173.0840  141.9770 C   0  0  0  0  0  0  0  0  0  0  0  0
  191.3580  172.1800  142.6200 C   0  0  0  0  0  0  0  0  0  0  0  0
  188.2730  175.9760  142.9880 C   0  0  0  0  0  3  0  0  0  0  0  0
  193.2910  174.3430  139.0500 C   0  0  0  0  0  3  0  0  0  0  0  0
  194.5500  173.7450  139.1750 C   0  0  0  0  0  0  0  0  0  0  0  0
  193.5940  172.0470  140.6210 C   0  0  0  0  0  3  0  0  0  0  0  0
  192.1850  173.7940  139.7090 C   0  0  0  0  0  3  0  0  0  0  0  0
  192.3250  172.6330  140.4870 C   0  0  0  0  0  0  0  0  0  0  0  0
  194.7010  172.5980  139.9680 C   0  0  0  0  0  3  0  0  0  0  0  0
  196.3000  175.4800  139.3420 C   0  0  0  0  0  1  0  0  0  0  0  0
  195.7320  174.3480  138.4970 C   0  0  0  0  0  2  0  0  0  0  0  0
  192.6700  171.1420  144.5100 C   0  0  1  0  0  3  0  0  0  0  0  0
  192.9050  169.9940  143.5400 C   0  0  0  0  0  1  0  0  0  0  0  0
  194.5320  171.0440  146.0050 F   0  0  0  0  0  0  0  0  0  0  0  0
  193.9690  171.8060  144.9950 C   0  0  2  0  0  0  0  0  0  0  0  0
  193.6240  173.1670  145.5810 C   0  0  0  0  0  1  0  0  0  0  0  0
  194.9940  172.0220  143.8770 C   0  0  0  0  0  2  0  0  0  0  0  0
  196.4320  171.7600  144.3190 C   0  0  0  0  0  2  0  0  0  0  0  0
  197.3420  172.9790  144.1080 C   0  0  2  0  0  3  0  0  0  0  0  0
  197.6110  173.7810  145.3870 C   0  0  0  0  0  2  0  0  0  0  0  0
  197.0180  173.1470  146.4800 O   0  0  0  0  0  1  0  0  0  0  0  0
  196.9800  173.7870  142.9230 N   0  0  0  0  0  0  0  0  0  0  0  0
  197.8880  173.5140  141.8160 C   0  0  0  0  0  1  0  0  0  0  0  0
  196.8150  175.2410  143.1480 C   0  0  0  0  0  2  0  0  0  0  0  0
  195.4010  175.7040  143.3620 C   0  0  0  0  0  0  0  0  0  0  0  0
  193.0810  175.8160  142.6610 C   0  0  0  0  0  3  0  0  0  0  0  0
  193.7540  176.8310  144.7520 C   0  0  0  0  0  3  0  0  0  0  0  0
  192.7590  176.5360  143.8170 C   0  0  0  0  0  3  0  0  0  0  0  0
  195.0700  176.4110  144.5260 C   0  0  0  0  0  3  0  0  0  0  0  0
  194.3980  175.3970  142.4360 C   0  0  0  0  0  3  0  0  0  0  0  0
  1 21  1  6  0  0  0
  1 14  1  0  0  0  0
  1 15  1  0  0  0  0
  2  6  1  0  0  0  0
  2  7  1  0  0  0  0
  3 12  1  0  0  0  0
  5  8  1  0  0  0  0
  5  9  1  0  0  0  0
  8 10  1  1  0  0  0
  9  2  2  0  0  0  0
 10  6  2  0  0  0  0
 11 25  1  0  0  0  0
 11  4  1  0  0  0  0
 12  4  2  0  0  0  0
 12  8  1  0  0  0  0
 13  3  2  0  0  0  0
 13 16  1  0  0  0  0
 14 15  2  0  0  0  0
 14  3  1  0  0  0  0
 15 11  1  0  0  0  0
 16  5  2  0  0  0  0
 17 18  2  0  0  0  0
 17 20  1  0  0  0  0
 18 22  1  0  0  0  0
 20 21  2  0  0  0  0
 21 19  1  0  0  0  0
 22 19  2  0  0  0  0
 24 18  1  0  0  0  0
 24 23  1  0  0  0  0
 25 26  1  6  0  0  0
 25 28  1  0  0  0  0
 28 29  1  1  0  0  0
 28 27  1  0  0  0  0
 30 31  1  0  0  0  0
 30 28  1  0  0  0  0
 32 31  1  1  0  0  0
 32 33  1  0  0  0  0
 33 34  1  0  0  0  0
 35 37  1  0  0  0  0
 35 32  1  0  0  0  0
 36 35  1  0  0  0  0
 37 38  1  0  0  0  0
 38 42  1  0  0  0  0
 39 41  2  0  0  0  0
 41 40  1  0  0  0  0
 42 40  2  0  0  0  0
 43 39  1  0  0  0  0
 43 38  2  0  0  0  0
M  END
>  <MODEL>
9

>  <REMARK>
 VINA RESULT:      -5.8      2.463      5.793
  Name = 
  11 active torsions:
  status: ('A' for Active; 'I' for Inactive)
    1  A    between atoms: C_1  and  C_35
    2  A    between atoms: C_2  and  C_12
    3  A    between atoms: C_2  and  N_27
    4  A    between atoms: C_4  and  C_6
    5  A    between atoms: C_4  and  C_15
    6  A    between atoms: C_6  and  C_12
    7  A    between atoms: C_10  and  C_15
    8  A    between atoms: C_11  and  C_14
    9  A    between atoms: C_14  and  N_22
   10  A    between atoms: C_15  and  N_22
   11  A    between atoms: C_19  and  C_37
                            x       y       z     vdW  Elec       q    Type
                         _______ _______ _______ _____ _____    ______ ____

>  <TORSDO>
F 11

$$$$
