=
 OpenBabel11052421393D

 32 36  0  0  1  0  0  0  0  0999 V2000
  191.3520  176.8060  148.0850 C   0  0  0  0  0  3  0  0  0  0  0  0
  190.4500  177.8640  147.9970 C   0  0  0  0  0  3  0  0  0  0  0  0
  191.0350  175.5690  147.5230 C   0  0  0  0  0  3  0  0  0  0  0  0
  189.8130  175.3670  146.8700 C   0  0  0  0  0  0  0  0  0  0  0  0
  189.2310  177.6850  147.3420 C   0  0  0  0  0  3  0  0  0  0  0  0
  188.8980  176.4480  146.7700 C   0  0  0  0  0  0  0  0  0  0  0  0
  185.4290  177.3030  145.7530 C   0  0  2  0  0  3  0  0  0  0  0  0
  185.8080  178.1460  144.5310 C   0  0  2  0  0  3  0  0  0  0  0  0
  187.1130  178.1160  142.6100 C   0  0  2  0  0  3  0  0  0  0  0  0
  187.5970  176.3320  146.0310 C   0  0  2  0  0  3  0  0  0  0  0  0
  185.7970  177.6010  142.2670 N   0  0  0  0  0  2  0  0  0  0  0  0
  184.9640  177.8000  143.3880 N   0  0  0  0  0  2  0  0  0  0  0  0
  187.7880  176.5900  144.5240 C   0  0  0  0  0  2  0  0  0  0  0  0
  184.2730  177.9500  146.4880 C   0  0  0  0  0  1  0  0  0  0  0  0
  188.1980  177.4290  141.7930 C   0  0  0  0  0  1  0  0  0  0  0  0
  186.5760  177.1870  146.6500 N   0  0  0  0  0  2  0  0  0  0  0  0
  187.2550  177.9710  144.1050 C   0  0  2  0  0  3  0  0  0  0  0  0
  189.5710  174.0600  146.3250 N   0  0  0  0  0  2  0  0  0  0  0  0
  188.5330  173.1130  140.9140 C   0  0  0  0  0  2  0  0  0  0  0  0
  189.8860  174.1720  143.0830 C   0  0  2  0  0  3  0  0  0  0  0  0
  189.4120  172.4570  144.5610 N   0  0  0  0  0  2  0  0  0  0  0  0
  188.4750  172.3370  142.2550 C   0  0  0  0  0  2  0  0  0  0  0  0
  190.2830  173.4400  145.2160 C   0  0  1  0  0  3  0  0  0  0  0  0
  189.9190  173.7250  140.5830 C   0  0  1  0  0  3  0  0  0  0  0  0
  189.6420  172.7090  143.1600 C   0  0  1  0  0  3  0  0  0  0  0  0
  190.5690  174.4940  141.7590 C   0  0  0  0  0  2  0  0  0  0  0  0
  190.6880  174.4680  144.2450 N   0  0  0  0  0  2  0  0  0  0  0  0
  191.0530  172.4340  139.9920 S   0  0  0  0  0  0  0  0  0  0  0  0
  190.2620  172.3880  138.3610 C   0  0  0  0  0  2  0  0  0  0  0  0
  190.3890  173.7490  137.7060 C   0  0  0  0  0  2  0  0  0  0  0  0
  188.0780  174.5010  137.5960 N   0  0  0  0  0  1  0  0  0  0  0  0
  189.1970  174.0140  136.8070 C   0  0  0  0  0  2  0  0  0  0  0  0
  2  1  1  0  0  0  0
  3  1  2  0  0  0  0
  4  3  1  0  0  0  0
  5  2  2  0  0  0  0
  6  4  2  0  0  0  0
  6  5  1  0  0  0  0
  7 14  1  1  0  0  0
  7 16  1  0  0  0  0
  8 12  1  6  0  0  0
  8  7  1  0  0  0  0
  9 15  1  6  0  0  0
  9 17  1  0  0  0  0
 10 16  1  0  0  0  0
 10  6  1  1  0  0  0
 11  9  1  0  0  0  0
 11 12  1  0  0  0  0
 13 10  1  0  0  0  0
 17 13  1  6  0  0  0
 17  8  1  0  0  0  0
 18  4  1  0  0  0  0
 19 22  1  0  0  0  0
 20 26  1  6  0  0  0
 20 25  1  0  0  0  0
 20 27  1  0  0  0  0
 21 23  1  0  0  0  0
 23 18  1  1  0  0  0
 24 28  1  1  0  0  0
 24 19  1  0  0  0  0
 24 26  1  0  0  0  0
 25 22  1  6  0  0  0
 25 21  1  0  0  0  0
 27 23  1  0  0  0  0
 29 28  1  0  0  0  0
 30 29  1  0  0  0  0
 32 31  1  0  0  0  0
 32 30  1  0  0  0  0
M  END
>  <MODEL>
1

>  <REMARK>
 VINA RESULT:      -7.1      0.000      0.000
  Name = 
  7 active torsions:
  status: ('A' for Active; 'I' for Inactive)
    1  A    between atoms: N_3  and  C_14
    2  A    between atoms: N_3  and  C_15
    3  A    between atoms: C_10  and  C_20
    4  A    between atoms: C_10  and  S_24
    5  A    between atoms: C_16  and  C_26
    6  A    between atoms: C_17  and  C_20
    7  A    between atoms: C_19  and  S_24
                            x       y       z     vdW  Elec       q    Type
                         _______ _______ _______ _____ _____    ______ ____

>  <TORSDO>
F 7

$$$$
=
 OpenBabel11052421393D

 32 36  0  0  1  0  0  0  0  0999 V2000
  194.0380  176.2880  146.5010 C   0  0  0  0  0  3  0  0  0  0  0  0
  194.3680  175.5410  145.3720 C   0  0  0  0  0  3  0  0  0  0  0  0
  192.7220  176.3060  146.9660 C   0  0  0  0  0  3  0  0  0  0  0  0
  191.7170  175.5850  146.3110 C   0  0  0  0  0  0  0  0  0  0  0  0
  193.3820  174.8080  144.7110 C   0  0  0  0  0  3  0  0  0  0  0  0
  192.0550  174.8140  145.1670 C   0  0  0  0  0  0  0  0  0  0  0  0
  189.9490  173.6100  142.3550 C   0  0  2  0  0  3  0  0  0  0  0  0
  190.9090  172.5160  141.8730 C   0  0  2  0  0  3  0  0  0  0  0  0
  192.1700  170.7160  142.6240 C   0  0  2  0  0  3  0  0  0  0  0  0
  191.0500  173.9630  144.4480 C   0  0  2  0  0  3  0  0  0  0  0  0
  190.8650  170.2150  142.2260 N   0  0  0  0  0  2  0  0  0  0  0  0
  190.1800  171.2780  141.6000 N   0  0  0  0  0  2  0  0  0  0  0  0
  191.5490  172.5120  144.3090 C   0  0  0  0  0  2  0  0  0  0  0  0
  189.3260  174.3100  141.1640 C   0  0  0  0  0  1  0  0  0  0  0  0
  192.7240  169.9250  143.8000 C   0  0  0  0  0  1  0  0  0  0  0  0
  190.6730  174.5810  143.1700 N   0  0  0  0  0  2  0  0  0  0  0  0
  192.0050  172.1950  142.8740 C   0  0  2  0  0  3  0  0  0  0  0  0
  190.3910  175.6650  146.8590 N   0  0  0  0  0  2  0  0  0  0  0  0
  187.9490  177.5110  142.1810 C   0  0  0  0  0  2  0  0  0  0  0  0
  188.0580  176.3370  144.6840 C   0  0  2  0  0  3  0  0  0  0  0  0
  189.8760  177.5360  145.4660 N   0  0  0  0  0  2  0  0  0  0  0  0
  189.0920  177.9410  143.1350 C   0  0  0  0  0  2  0  0  0  0  0  0
  189.3770  176.6560  146.5300 C   0  0  1  0  0  3  0  0  0  0  0  0
  186.5740  177.3150  142.8710 C   0  0  1  0  0  3  0  0  0  0  0  0
  188.7370  177.6540  144.5890 C   0  0  1  0  0  3  0  0  0  0  0  0
  186.6300  176.4750  144.1700 C   0  0  0  0  0  2  0  0  0  0  0  0
  188.1480  175.9840  146.0810 N   0  0  0  0  0  2  0  0  0  0  0  0
  185.8060  178.9260  143.2150 S   0  0  0  0  0  0  0  0  0  0  0  0
  184.9280  178.2760  144.6630 C   0  0  0  0  0  2  0  0  0  0  0  0
  185.2070  179.1660  145.8570 C   0  0  0  0  0  2  0  0  0  0  0  0
  186.5220  178.6200  147.8300 N   0  0  0  0  0  1  0  0  0  0  0  0
  185.2840  178.3360  147.1250 C   0  0  0  0  0  2  0  0  0  0  0  0
  1  3  1  0  0  0  0
  2  1  2  0  0  0  0
  4 18  1  0  0  0  0
  4  3  2  0  0  0  0
  5  6  2  0  0  0  0
  5  2  1  0  0  0  0
  6  4  1  0  0  0  0
  7 14  1  6  0  0  0
  7 16  1  0  0  0  0
  8 12  1  1  0  0  0
  8  7  1  0  0  0  0
  8 17  1  0  0  0  0
  9 17  1  0  0  0  0
  9 15  1  1  0  0  0
 10  6  1  6  0  0  0
 11  9  1  0  0  0  0
 12 11  1  0  0  0  0
 13 10  1  0  0  0  0
 16 10  1  0  0  0  0
 17 13  1  1  0  0  0
 19 24  1  0  0  0  0
 19 22  1  0  0  0  0
 20 26  1  1  0  0  0
 20 27  1  0  0  0  0
 21 23  1  0  0  0  0
 23 18  1  6  0  0  0
 24 28  1  1  0  0  0
 24 26  1  0  0  0  0
 25 22  1  6  0  0  0
 25 20  1  0  0  0  0
 25 21  1  0  0  0  0
 27 23  1  0  0  0  0
 28 29  1  0  0  0  0
 29 30  1  0  0  0  0
 30 32  1  0  0  0  0
 32 31  1  0  0  0  0
M  END
>  <MODEL>
2

>  <REMARK>
 VINA RESULT:      -6.9      2.809      6.848
  Name = 
  7 active torsions:
  status: ('A' for Active; 'I' for Inactive)
    1  A    between atoms: N_3  and  C_14
    2  A    between atoms: N_3  and  C_15
    3  A    between atoms: C_10  and  C_20
    4  A    between atoms: C_10  and  S_24
    5  A    between atoms: C_16  and  C_26
    6  A    between atoms: C_17  and  C_20
    7  A    between atoms: C_19  and  S_24
                            x       y       z     vdW  Elec       q    Type
                         _______ _______ _______ _____ _____    ______ ____

>  <TORSDO>
F 7

$$$$
=
 OpenBabel11052421393D

 32 36  0  0  1  0  0  0  0  0999 V2000
  189.9470  171.6610  142.2520 C   0  0  0  0  0  3  0  0  0  0  0  0
  190.7090  171.5380  143.4120 C   0  0  0  0  0  3  0  0  0  0  0  0
  189.5640  172.9230  141.7970 C   0  0  0  0  0  3  0  0  0  0  0  0
  189.9300  174.0810  142.4940 C   0  0  0  0  0  0  0  0  0  0  0  0
  191.0930  172.6810  144.1150 C   0  0  0  0  0  3  0  0  0  0  0  0
  190.7170  173.9580  143.6700 C   0  0  0  0  0  0  0  0  0  0  0  0
  191.7430  175.9710  146.6180 C   0  0  2  0  0  3  0  0  0  0  0  0
  193.2450  175.6880  146.5090 C   0  0  2  0  0  3  0  0  0  0  0  0
  195.0140  175.7020  145.0030 C   0  0  2  0  0  3  0  0  0  0  0  0
  191.2060  175.1520  144.4360 C   0  0  2  0  0  3  0  0  0  0  0  0
  194.9630  177.0030  145.6480 N   0  0  0  0  0  2  0  0  0  0  0  0
  194.0130  176.9200  146.6880 N   0  0  0  0  0  2  0  0  0  0  0  0
  192.6620  175.4930  144.0660 C   0  0  0  0  0  2  0  0  0  0  0  0
  191.3190  175.9520  148.0730 C   0  0  0  0  0  1  0  0  0  0  0  0
  195.4840  175.8250  143.5610 C   0  0  0  0  0  1  0  0  0  0  0  0
  190.9930  174.9600  145.8770 N   0  0  0  0  0  2  0  0  0  0  0  0
  193.6480  175.0840  145.1750 C   0  0  2  0  0  3  0  0  0  0  0  0
  189.4890  175.3370  141.9540 N   0  0  0  0  0  2  0  0  0  0  0  0
  184.6210  178.0860  141.9470 C   0  0  0  0  0  2  0  0  0  0  0  0
  186.6440  176.5270  143.0110 C   0  0  2  0  0  3  0  0  0  0  0  0
  188.3700  177.4390  141.7690 N   0  0  0  0  0  2  0  0  0  0  0  0
  186.0520  178.2680  141.3800 C   0  0  0  0  0  2  0  0  0  0  0  0
  188.9120  176.4450  142.7020 C   0  0  1  0  0  3  0  0  0  0  0  0
  184.5570  177.8940  143.4840 C   0  0  1  0  0  3  0  0  0  0  0  0
  187.1050  177.7850  142.3690 C   0  0  1  0  0  3  0  0  0  0  0  0
  185.5660  176.8570  144.0360 C   0  0  0  0  0  2  0  0  0  0  0  0
  187.8400  175.9520  143.5790 N   0  0  0  0  0  2  0  0  0  0  0  0
  184.7890  179.4860  144.3290 S   0  0  0  0  0  0  0  0  0  0  0  0
  184.4310  178.7570  145.9510 C   0  0  0  0  0  2  0  0  0  0  0  0
  185.5550  179.0940  146.9090 C   0  0  0  0  0  2  0  0  0  0  0  0
  187.5210  177.6770  147.1190 N   0  0  0  0  0  1  0  0  0  0  0  0
  186.1310  177.8260  147.5120 C   0  0  0  0  0  2  0  0  0  0  0  0
  1  2  1  0  0  0  0
  2  5  2  0  0  0  0
  3  1  2  0  0  0  0
  3  4  1  0  0  0  0
  4  6  2  0  0  0  0
  6  5  1  0  0  0  0
  7 14  1  1  0  0  0
  8  7  1  0  0  0  0
  8 12  1  6  0  0  0
  9 15  1  6  0  0  0
  9 17  1  0  0  0  0
  9 11  1  0  0  0  0
 10  6  1  6  0  0  0
 10 16  1  0  0  0  0
 11 12  1  0  0  0  0
 13 10  1  0  0  0  0
 16  7  1  0  0  0  0
 17 13  1  6  0  0  0
 17  8  1  0  0  0  0
 18  4  1  0  0  0  0
 19 24  1  0  0  0  0
 20 27  1  0  0  0  0
 20 26  1  1  0  0  0
 21 25  1  0  0  0  0
 21 23  1  0  0  0  0
 22 19  1  0  0  0  0
 23 18  1  6  0  0  0
 23 27  1  0  0  0  0
 24 26  1  0  0  0  0
 24 28  1  1  0  0  0
 25 22  1  6  0  0  0
 25 20  1  0  0  0  0
 28 29  1  0  0  0  0
 29 30  1  0  0  0  0
 30 32  1  0  0  0  0
 31 32  1  0  0  0  0
M  END
>  <MODEL>
3

>  <REMARK>
 VINA RESULT:      -6.9      3.107      7.434
  Name = 
  7 active torsions:
  status: ('A' for Active; 'I' for Inactive)
    1  A    between atoms: N_3  and  C_14
    2  A    between atoms: N_3  and  C_15
    3  A    between atoms: C_10  and  C_20
    4  A    between atoms: C_10  and  S_24
    5  A    between atoms: C_16  and  C_26
    6  A    between atoms: C_17  and  C_20
    7  A    between atoms: C_19  and  S_24
                            x       y       z     vdW  Elec       q    Type
                         _______ _______ _______ _____ _____    ______ ____

>  <TORSDO>
F 7

$$$$
=
 OpenBabel11052421393D

 32 36  0  0  1  0  0  0  0  0999 V2000
  190.7020  175.2160  147.7270 C   0  0  0  0  0  3  0  0  0  0  0  0
  189.4260  174.9250  147.2510 C   0  0  0  0  0  3  0  0  0  0  0  0
  191.5880  175.9580  146.9440 C   0  0  0  0  0  3  0  0  0  0  0  0
  191.2150  176.4160  145.6740 C   0  0  0  0  0  0  0  0  0  0  0  0
  189.0330  175.3800  145.9920 C   0  0  0  0  0  3  0  0  0  0  0  0
  189.9100  176.1290  145.1930 C   0  0  0  0  0  0  0  0  0  0  0  0
  188.3400  176.0100  141.8290 C   0  0  2  0  0  3  0  0  0  0  0  0
  186.9320  176.4140  142.2780 C   0  0  2  0  0  3  0  0  0  0  0  0
  185.7860  178.0000  143.5300 C   0  0  2  0  0  3  0  0  0  0  0  0
  189.4120  176.6380  143.8720 C   0  0  2  0  0  3  0  0  0  0  0  0
  185.8470  178.4710  142.1560 N   0  0  0  0  0  2  0  0  0  0  0  0
  186.3740  177.4200  141.3750 N   0  0  0  0  0  2  0  0  0  0  0  0
  188.2410  177.6200  144.0610 C   0  0  0  0  0  2  0  0  0  0  0  0
  188.2540  174.9270  140.7730 C   0  0  0  0  0  1  0  0  0  0  0  0
  185.8440  179.1640  144.5090 C   0  0  0  0  0  1  0  0  0  0  0  0
  189.1040  175.5190  142.9730 N   0  0  0  0  0  2  0  0  0  0  0  0
  186.8910  176.9840  143.6850 C   0  0  2  0  0  3  0  0  0  0  0  0
  192.1920  177.1690  144.9380 N   0  0  0  0  0  2  0  0  0  0  0  0
  195.9050  173.0400  145.5850 C   0  0  0  0  0  2  0  0  0  0  0  0
  193.8290  174.4070  144.3710 C   0  0  2  0  0  3  0  0  0  0  0  0
  194.4930  176.5300  145.0100 N   0  0  0  0  0  2  0  0  0  0  0  0
  195.8430  174.5780  145.7690 C   0  0  0  0  0  2  0  0  0  0  0  0
  193.2990  176.6260  144.1630 C   0  0  1  0  0  3  0  0  0  0  0  0
  195.5450  172.5480  144.1590 C   0  0  1  0  0  3  0  0  0  0  0  0
  195.0270  175.2350  144.6640 C   0  0  1  0  0  3  0  0  0  0  0  0
  194.2550  173.1780  143.5780 C   0  0  0  0  0  2  0  0  0  0  0  0
  192.9440  175.2930  143.6520 N   0  0  0  0  0  2  0  0  0  0  0  0
  196.9340  172.8340  143.0230 S   0  0  0  0  0  0  0  0  0  0  0  0
  195.8180  173.2120  141.6440 C   0  0  0  0  0  2  0  0  0  0  0  0
  196.3700  174.3870  140.8620 C   0  0  0  0  0  2  0  0  0  0  0  0
  196.0080  176.7050  141.5080 N   0  0  0  0  0  1  0  0  0  0  0  0
  195.3900  175.5450  140.8900 C   0  0  0  0  0  2  0  0  0  0  0  0
  2  1  1  0  0  0  0
  3  1  2  0  0  0  0
  4  3  1  0  0  0  0
  5  2  2  0  0  0  0
  6  4  2  0  0  0  0
  6  5  1  0  0  0  0
  7 14  1  6  0  0  0
  7  8  1  0  0  0  0
  7 16  1  0  0  0  0
  8 12  1  6  0  0  0
  8 17  1  0  0  0  0
  9 17  1  0  0  0  0
  9 15  1  1  0  0  0
 10 13  1  0  0  0  0
 10  6  1  1  0  0  0
 11  9  1  0  0  0  0
 12 11  1  0  0  0  0
 16 10  1  0  0  0  0
 17 13  1  6  0  0  0
 18  4  1  0  0  0  0
 19 22  1  0  0  0  0
 20 26  1  6  0  0  0
 20 25  1  0  0  0  0
 23 18  1  1  0  0  0
 23 21  1  0  0  0  0
 24 28  1  6  0  0  0
 24 19  1  0  0  0  0
 25 21  1  0  0  0  0
 25 22  1  1  0  0  0
 26 24  1  0  0  0  0
 27 23  1  0  0  0  0
 27 20  1  0  0  0  0
 29 28  1  0  0  0  0
 30 32  1  0  0  0  0
 30 29  1  0  0  0  0
 32 31  1  0  0  0  0
M  END
>  <MODEL>
4

>  <REMARK>
 VINA RESULT:      -6.9      3.560      5.027
  Name = 
  7 active torsions:
  status: ('A' for Active; 'I' for Inactive)
    1  A    between atoms: N_3  and  C_14
    2  A    between atoms: N_3  and  C_15
    3  A    between atoms: C_10  and  C_20
    4  A    between atoms: C_10  and  S_24
    5  A    between atoms: C_16  and  C_26
    6  A    between atoms: C_17  and  C_20
    7  A    between atoms: C_19  and  S_24
                            x       y       z     vdW  Elec       q    Type
                         _______ _______ _______ _____ _____    ______ ____

>  <TORSDO>
F 7

$$$$
=
 OpenBabel11052421393D

 32 36  0  0  1  0  0  0  0  0999 V2000
  191.3310  176.7840  148.0150 C   0  0  0  0  0  3  0  0  0  0  0  0
  190.4430  177.8550  147.9460 C   0  0  0  0  0  3  0  0  0  0  0  0
  190.9950  175.5580  147.4380 C   0  0  0  0  0  3  0  0  0  0  0  0
  189.7660  175.3810  146.7890 C   0  0  0  0  0  0  0  0  0  0  0  0
  189.2180  177.7010  147.2960 C   0  0  0  0  0  3  0  0  0  0  0  0
  188.8650  176.4760  146.7090 C   0  0  0  0  0  0  0  0  0  0  0  0
  185.3910  177.3690  145.7470 C   0  0  2  0  0  3  0  0  0  0  0  0
  185.7610  178.2550  144.5530 C   0  0  2  0  0  3  0  0  0  0  0  0
  187.0530  178.2920  142.6230 C   0  0  2  0  0  3  0  0  0  0  0  0
  187.5600  176.3870  145.9750 C   0  0  2  0  0  3  0  0  0  0  0  0
  185.7350  177.7900  142.2720 N   0  0  0  0  0  2  0  0  0  0  0  0
  184.9090  177.9500  143.4050 N   0  0  0  0  0  2  0  0  0  0  0  0
  187.7400  176.6980  144.4770 C   0  0  0  0  0  2  0  0  0  0  0  0
  184.2400  177.9910  146.5130 C   0  0  0  0  0  1  0  0  0  0  0  0
  188.1320  177.6330  141.7750 C   0  0  0  0  0  1  0  0  0  0  0  0
  186.5440  177.2210  146.6320 N   0  0  0  0  0  2  0  0  0  0  0  0
  187.2050  178.0940  144.1110 C   0  0  2  0  0  3  0  0  0  0  0  0
  189.5040  174.0850  146.2280 N   0  0  0  0  0  2  0  0  0  0  0  0
  188.3260  173.1350  140.8470 C   0  0  0  0  0  2  0  0  0  0  0  0
  189.7250  174.2080  142.9780 C   0  0  2  0  0  3  0  0  0  0  0  0
  189.3160  172.4840  144.4660 N   0  0  0  0  0  2  0  0  0  0  0  0
  188.3160  172.3560  142.1860 C   0  0  0  0  0  2  0  0  0  0  0  0
  190.1920  173.4770  145.0980 C   0  0  1  0  0  3  0  0  0  0  0  0
  189.6940  173.7660  140.4780 C   0  0  1  0  0  3  0  0  0  0  0  0
  189.5040  172.7420  143.0590 C   0  0  1  0  0  3  0  0  0  0  0  0
  190.3670  174.5410  141.6360 C   0  0  0  0  0  2  0  0  0  0  0  0
  190.5570  174.5120  144.1190 N   0  0  0  0  0  2  0  0  0  0  0  0
  190.8280  172.4910  139.8530 S   0  0  0  0  0  0  0  0  0  0  0  0
  192.2860  173.4830  140.2750 C   0  0  0  0  0  2  0  0  0  0  0  0
  193.3880  172.5660  140.7670 C   0  0  0  0  0  2  0  0  0  0  0  0
  193.0590  172.1760  143.1460 N   0  0  0  0  0  1  0  0  0  0  0  0
  192.8520  171.6170  141.8210 C   0  0  0  0  0  2  0  0  0  0  0  0
  2  1  1  0  0  0  0
  3  1  2  0  0  0  0
  4  3  1  0  0  0  0
  5  2  2  0  0  0  0
  6  4  2  0  0  0  0
  6  5  1  0  0  0  0
  7 14  1  1  0  0  0
  7 16  1  0  0  0  0
  8 12  1  6  0  0  0
  8  7  1  0  0  0  0
  9 15  1  6  0  0  0
  9 17  1  0  0  0  0
 10 16  1  0  0  0  0
 10  6  1  1  0  0  0
 11  9  1  0  0  0  0
 11 12  1  0  0  0  0
 13 10  1  0  0  0  0
 17 13  1  6  0  0  0
 17  8  1  0  0  0  0
 18  4  1  0  0  0  0
 19 22  1  0  0  0  0
 20 26  1  6  0  0  0
 20 25  1  0  0  0  0
 20 27  1  0  0  0  0
 21 23  1  0  0  0  0
 23 18  1  1  0  0  0
 24 28  1  1  0  0  0
 24 19  1  0  0  0  0
 24 26  1  0  0  0  0
 25 22  1  6  0  0  0
 25 21  1  0  0  0  0
 27 23  1  0  0  0  0
 28 29  1  0  0  0  0
 29 30  1  0  0  0  0
 30 32  1  0  0  0  0
 32 31  1  0  0  0  0
M  END
>  <MODEL>
5

>  <REMARK>
 VINA RESULT:      -6.8      1.453      2.052
  Name = 
  7 active torsions:
  status: ('A' for Active; 'I' for Inactive)
    1  A    between atoms: N_3  and  C_14
    2  A    between atoms: N_3  and  C_15
    3  A    between atoms: C_10  and  C_20
    4  A    between atoms: C_10  and  S_24
    5  A    between atoms: C_16  and  C_26
    6  A    between atoms: C_17  and  C_20
    7  A    between atoms: C_19  and  S_24
                            x       y       z     vdW  Elec       q    Type
                         _______ _______ _______ _____ _____    ______ ____

>  <TORSDO>
F 7

$$$$
=
 OpenBabel11052421393D

 32 36  0  0  1  0  0  0  0  0999 V2000
  192.8060  175.3430  146.6790 C   0  0  0  0  0  3  0  0  0  0  0  0
  192.9160  174.1370  145.9890 C   0  0  0  0  0  3  0  0  0  0  0  0
  192.4570  176.5090  145.9960 C   0  0  0  0  0  3  0  0  0  0  0  0
  192.2200  176.4910  144.6160 C   0  0  0  0  0  0  0  0  0  0  0  0
  192.6740  174.0970  144.6160 C   0  0  0  0  0  3  0  0  0  0  0  0
  192.3210  175.2610  143.9140 C   0  0  0  0  0  0  0  0  0  0  0  0
  192.7410  174.1710  140.3890 C   0  0  2  0  0  3  0  0  0  0  0  0
  191.7980  172.9650  140.4650 C   0  0  2  0  0  3  0  0  0  0  0  0
  189.6660  172.3380  141.1420 C   0  0  2  0  0  3  0  0  0  0  0  0
  192.0180  175.1460  142.4500 C   0  0  2  0  0  3  0  0  0  0  0  0
  189.5960  172.7310  139.7440 N   0  0  0  0  0  2  0  0  0  0  0  0
  190.9200  172.9270  139.2960 N   0  0  0  0  0  2  0  0  0  0  0  0
  190.6900  174.4010  142.2130 C   0  0  0  0  0  2  0  0  0  0  0  0
  193.9600  173.8210  139.5600 C   0  0  0  0  0  1  0  0  0  0  0  0
  188.3830  172.7000  141.8760 C   0  0  0  0  0  1  0  0  0  0  0  0
  193.1580  174.5590  141.7340 N   0  0  0  0  0  2  0  0  0  0  0  0
  190.9180  172.9670  141.7020 C   0  0  2  0  0  3  0  0  0  0  0  0
  191.8700  177.7400  143.9970 N   0  0  0  0  0  2  0  0  0  0  0  0
  186.8310  176.0220  142.2890 C   0  0  0  0  0  2  0  0  0  0  0  0
  188.7070  176.9570  144.0950 C   0  0  2  0  0  3  0  0  0  0  0  0
  189.9940  178.1240  142.5680 N   0  0  0  0  0  2  0  0  0  0  0  0
  188.0150  176.8570  141.7390 C   0  0  0  0  0  2  0  0  0  0  0  0
  190.5380  178.3220  143.9170 C   0  0  1  0  0  3  0  0  0  0  0  0
  186.2460  176.5400  143.6290 C   0  0  1  0  0  3  0  0  0  0  0  0
  188.6330  177.7260  142.8270 C   0  0  1  0  0  3  0  0  0  0  0  0
  187.3120  176.8630  144.7030 C   0  0  0  0  0  2  0  0  0  0  0  0
  189.6540  177.6860  144.9050 N   0  0  0  0  0  2  0  0  0  0  0  0
  185.2030  177.9990  143.3390 S   0  0  0  0  0  0  0  0  0  0  0  0
  185.6270  178.7080  144.9540 C   0  0  0  0  0  2  0  0  0  0  0  0
  184.3610  178.8870  145.7690 C   0  0  0  0  0  2  0  0  0  0  0  0
  186.0210  178.7250  147.5400 N   0  0  0  0  0  1  0  0  0  0  0  0
  184.6160  178.5360  147.2220 C   0  0  0  0  0  2  0  0  0  0  0  0
  2  1  2  0  0  0  0
  3  1  1  0  0  0  0
  4  3  2  0  0  0  0
  5  2  1  0  0  0  0
  6  5  2  0  0  0  0
  6  4  1  0  0  0  0
  7 14  1  6  0  0  0
  7  8  1  0  0  0  0
  7 16  1  0  0  0  0
  8 12  1  6  0  0  0
  8 17  1  0  0  0  0
  9 17  1  0  0  0  0
  9 15  1  1  0  0  0
 10  6  1  1  0  0  0
 11  9  1  0  0  0  0
 12 11  1  0  0  0  0
 13 10  1  0  0  0  0
 16 10  1  0  0  0  0
 17 13  1  6  0  0  0
 18  4  1  0  0  0  0
 19 24  1  0  0  0  0
 20 26  1  1  0  0  0
 20 27  1  0  0  0  0
 21 25  1  0  0  0  0
 21 23  1  0  0  0  0
 22 19  1  0  0  0  0
 23 18  1  6  0  0  0
 23 27  1  0  0  0  0
 24 28  1  6  0  0  0
 24 26  1  0  0  0  0
 25 22  1  6  0  0  0
 25 20  1  0  0  0  0
 28 29  1  0  0  0  0
 29 30  1  0  0  0  0
 30 32  1  0  0  0  0
 32 31  1  0  0  0  0
M  END
>  <MODEL>
6

>  <REMARK>
 VINA RESULT:      -6.7      3.005      7.052
  Name = 
  7 active torsions:
  status: ('A' for Active; 'I' for Inactive)
    1  A    between atoms: N_3  and  C_14
    2  A    between atoms: N_3  and  C_15
    3  A    between atoms: C_10  and  C_20
    4  A    between atoms: C_10  and  S_24
    5  A    between atoms: C_16  and  C_26
    6  A    between atoms: C_17  and  C_20
    7  A    between atoms: C_19  and  S_24
                            x       y       z     vdW  Elec       q    Type
                         _______ _______ _______ _____ _____    ______ ____

>  <TORSDO>
F 7

$$$$
=
 OpenBabel11052421393D

 32 36  0  0  1  0  0  0  0  0999 V2000
  186.6060  179.0530  148.3850 C   0  0  0  0  0  3  0  0  0  0  0  0
  185.6070  179.5920  147.5770 C   0  0  0  0  0  3  0  0  0  0  0  0
  187.3140  177.9260  147.9640 C   0  0  0  0  0  3  0  0  0  0  0  0
  187.0340  177.3180  146.7350 C   0  0  0  0  0  0  0  0  0  0  0  0
  185.3200  179.0050  146.3440 C   0  0  0  0  0  3  0  0  0  0  0  0
  186.0240  177.8730  145.9050 C   0  0  0  0  0  0  0  0  0  0  0  0
  184.5250  177.7340  142.5100 C   0  0  2  0  0  3  0  0  0  0  0  0
  185.7290  178.3160  141.7620 C   0  0  2  0  0  3  0  0  0  0  0  0
  188.0280  178.0900  141.5220 C   0  0  2  0  0  3  0  0  0  0  0  0
  185.7080  177.3200  144.5460 C   0  0  2  0  0  3  0  0  0  0  0  0
  187.3880  177.2510  140.5230 N   0  0  0  0  0  2  0  0  0  0  0  0
  186.0070  177.5410  140.5540 N   0  0  0  0  0  2  0  0  0  0  0  0
  186.9730  177.2410  143.6700 C   0  0  0  0  0  2  0  0  0  0  0  0
  183.2400  178.2900  141.9300 C   0  0  0  0  0  1  0  0  0  0  0  0
  189.3250  177.4620  142.0120 C   0  0  0  0  0  1  0  0  0  0  0  0
  184.6100  178.0740  143.9270 N   0  0  0  0  0  2  0  0  0  0  0  0
  186.9980  178.3420  142.5950 C   0  0  2  0  0  3  0  0  0  0  0  0
  187.8100  176.1610  146.3850 N   0  0  0  0  0  2  0  0  0  0  0  0
  192.4080  174.5120  143.6650 C   0  0  0  0  0  2  0  0  0  0  0  0
  190.8270  176.2280  145.1530 C   0  0  2  0  0  3  0  0  0  0  0  0
  189.6070  174.5930  146.2450 N   0  0  0  0  0  2  0  0  0  0  0  0
  191.3170  173.8900  144.5730 C   0  0  0  0  0  2  0  0  0  0  0  0
  189.2020  175.9150  146.7360 C   0  0  1  0  0  3  0  0  0  0  0  0
  193.1610  175.7130  144.2940 C   0  0  1  0  0  3  0  0  0  0  0  0
  190.9140  174.8450  145.6890 C   0  0  1  0  0  3  0  0  0  0  0  0
  192.2370  176.7700  144.9450 C   0  0  0  0  0  2  0  0  0  0  0  0
  190.0590  176.9500  146.1380 N   0  0  0  0  0  2  0  0  0  0  0  0
  194.3760  175.1270  145.5120 S   0  0  0  0  0  0  0  0  0  0  0  0
  195.6760  174.9930  144.2530 C   0  0  0  0  0  2  0  0  0  0  0  0
  196.1000  176.3830  143.8230 C   0  0  0  0  0  2  0  0  0  0  0  0
  197.4740  175.6700  141.9460 N   0  0  0  0  0  1  0  0  0  0  0  0
  196.2940  176.4320  142.3200 C   0  0  0  0  0  2  0  0  0  0  0  0
  2  1  2  0  0  0  0
  3  1  1  0  0  0  0
  4  3  2  0  0  0  0
  5  2  1  0  0  0  0
  6  5  2  0  0  0  0
  6  4  1  0  0  0  0
  7 14  1  6  0  0  0
  7 16  1  0  0  0  0
  8 12  1  6  0  0  0
  8  7  1  0  0  0  0
  8 17  1  0  0  0  0
  9 15  1  1  0  0  0
  9 17  1  0  0  0  0
 10  6  1  1  0  0  0
 11 12  1  0  0  0  0
 11  9  1  0  0  0  0
 13 10  1  0  0  0  0
 16 10  1  0  0  0  0
 17 13  1  1  0  0  0
 18  4  1  0  0  0  0
 19 24  1  0  0  0  0
 19 22  1  0  0  0  0
 20 26  1  1  0  0  0
 20 25  1  0  0  0  0
 20 27  1  0  0  0  0
 21 23  1  0  0  0  0
 23 18  1  6  0  0  0
 24 26  1  0  0  0  0
 24 28  1  1  0  0  0
 25 22  1  6  0  0  0
 25 21  1  0  0  0  0
 27 23  1  0  0  0  0
 29 28  1  0  0  0  0
 30 29  1  0  0  0  0
 31 32  1  0  0  0  0
 32 30  1  0  0  0  0
M  END
>  <MODEL>
7

>  <REMARK>
 VINA RESULT:      -6.7      3.161      4.783
  Name = 
  7 active torsions:
  status: ('A' for Active; 'I' for Inactive)
    1  A    between atoms: N_3  and  C_14
    2  A    between atoms: N_3  and  C_15
    3  A    between atoms: C_10  and  C_20
    4  A    between atoms: C_10  and  S_24
    5  A    between atoms: C_16  and  C_26
    6  A    between atoms: C_17  and  C_20
    7  A    between atoms: C_19  and  S_24
                            x       y       z     vdW  Elec       q    Type
                         _______ _______ _______ _____ _____    ______ ____

>  <TORSDO>
F 7

$$$$
=
 OpenBabel11052421393D

 32 36  0  0  1  0  0  0  0  0999 V2000
  187.1960  176.6270  140.0690 C   0  0  0  0  0  3  0  0  0  0  0  0
  186.4510  177.5160  140.8410 C   0  0  0  0  0  3  0  0  0  0  0  0
  187.9500  175.6270  140.6860 C   0  0  0  0  0  3  0  0  0  0  0  0
  187.9750  175.5020  142.0810 C   0  0  0  0  0  0  0  0  0  0  0  0
  186.4550  177.4020  142.2310 C   0  0  0  0  0  3  0  0  0  0  0  0
  187.2060  176.4000  142.8680 C   0  0  0  0  0  0  0  0  0  0  0  0
  188.2040  176.8970  146.4110 C   0  0  2  0  0  3  0  0  0  0  0  0
  187.3380  178.1350  146.6650 C   0  0  2  0  0  3  0  0  0  0  0  0
  185.1750  178.9460  146.4260 C   0  0  2  0  0  3  0  0  0  0  0  0
  187.1280  176.2930  144.3620 C   0  0  2  0  0  3  0  0  0  0  0  0
  185.2840  178.3390  147.7420 N   0  0  0  0  0  2  0  0  0  0  0  0
  186.6440  178.0220  147.9470 N   0  0  0  0  0  2  0  0  0  0  0  0
  185.8990  177.0420  144.9100 C   0  0  0  0  0  2  0  0  0  0  0  0
  189.5500  177.0610  147.0860 C   0  0  0  0  0  1  0  0  0  0  0  0
  183.7780  178.7580  145.8520 C   0  0  0  0  0  1  0  0  0  0  0  0
  188.3950  176.7120  144.9750 N   0  0  0  0  0  2  0  0  0  0  0  0
  186.2890  178.3660  145.5910 C   0  0  2  0  0  3  0  0  0  0  0  0
  188.7800  174.4470  142.6280 N   0  0  0  0  0  2  0  0  0  0  0  0
  192.9550  176.6820  145.5990 C   0  0  0  0  0  2  0  0  0  0  0  0
  191.3920  174.6450  144.5680 C   0  0  2  0  0  3  0  0  0  0  0  0
  190.7990  175.7240  142.6100 N   0  0  0  0  0  2  0  0  0  0  0  0
  192.2330  176.9330  144.2520 C   0  0  0  0  0  2  0  0  0  0  0  0
  190.2340  174.3700  142.6110 C   0  0  1  0  0  3  0  0  0  0  0  0
  193.5510  175.2590  145.7550 C   0  0  1  0  0  3  0  0  0  0  0  0
  191.8780  175.6220  143.5610 C   0  0  1  0  0  3  0  0  0  0  0  0
  192.5800  174.1180  145.3650 C   0  0  0  0  0  2  0  0  0  0  0  0
  190.7100  173.6360  143.7940 N   0  0  0  0  0  2  0  0  0  0  0  0
  195.0890  175.1110  144.7980 S   0  0  0  0  0  0  0  0  0  0  0  0
  195.4710  173.4960  145.5300 C   0  0  0  0  0  2  0  0  0  0  0  0
  196.8770  173.5260  146.0980 C   0  0  0  0  0  2  0  0  0  0  0  0
  197.9400  172.7140  144.0660 N   0  0  0  0  0  1  0  0  0  0  0  0
  197.8810  173.8240  145.0010 C   0  0  0  0  0  2  0  0  0  0  0  0
  1  3  2  0  0  0  0
  1  2  1  0  0  0  0
  2  5  2  0  0  0  0
  3  4  1  0  0  0  0
  4 18  1  0  0  0  0
  4  6  2  0  0  0  0
  5  6  1  0  0  0  0
  7  8  1  0  0  0  0
  7 14  1  1  0  0  0
  8 12  1  1  0  0  0
  9 15  1  6  0  0  0
  9 11  1  0  0  0  0
 10  6  1  6  0  0  0
 10 13  1  0  0  0  0
 10 16  1  0  0  0  0
 11 12  1  0  0  0  0
 16  7  1  0  0  0  0
 17 13  1  1  0  0  0
 17  9  1  0  0  0  0
 17  8  1  0  0  0  0
 19 24  1  0  0  0  0
 20 26  1  6  0  0  0
 21 23  1  0  0  0  0
 21 25  1  0  0  0  0
 22 19  1  0  0  0  0
 23 18  1  1  0  0  0
 23 27  1  0  0  0  0
 24 28  1  6  0  0  0
 25 22  1  1  0  0  0
 25 20  1  0  0  0  0
 26 24  1  0  0  0  0
 27 20  1  0  0  0  0
 28 29  1  0  0  0  0
 29 30  1  0  0  0  0
 31 32  1  0  0  0  0
 32 30  1  0  0  0  0
M  END
>  <MODEL>
8

>  <REMARK>
 VINA RESULT:      -6.7      3.211      6.098
  Name = 
  7 active torsions:
  status: ('A' for Active; 'I' for Inactive)
    1  A    between atoms: N_3  and  C_14
    2  A    between atoms: N_3  and  C_15
    3  A    between atoms: C_10  and  C_20
    4  A    between atoms: C_10  and  S_24
    5  A    between atoms: C_16  and  C_26
    6  A    between atoms: C_17  and  C_20
    7  A    between atoms: C_19  and  S_24
                            x       y       z     vdW  Elec       q    Type
                         _______ _______ _______ _____ _____    ______ ____

>  <TORSDO>
F 7

$$$$
=
 OpenBabel11052421393D

 32 36  0  0  1  0  0  0  0  0999 V2000
  190.6790  174.9030  147.0330 C   0  0  0  0  0  3  0  0  0  0  0  0
  189.3080  174.9240  147.2800 C   0  0  0  0  0  3  0  0  0  0  0  0
  191.2240  175.7260  146.0460 C   0  0  0  0  0  3  0  0  0  0  0  0
  190.4110  176.5770  145.2880 C   0  0  0  0  0  0  0  0  0  0  0  0
  188.4820  175.7720  146.5410 C   0  0  0  0  0  3  0  0  0  0  0  0
  189.0150  176.6080  145.5470 C   0  0  0  0  0  0  0  0  0  0  0  0
  186.5090  177.7030  143.0330 C   0  0  2  0  0  3  0  0  0  0  0  0
  185.2730  177.4880  143.9130 C   0  0  2  0  0  3  0  0  0  0  0  0
  184.4080  177.9620  146.0160 C   0  0  2  0  0  3  0  0  0  0  0  0
  188.0850  177.5380  144.8250 C   0  0  2  0  0  3  0  0  0  0  0  0
  183.9950  179.0220  145.1110 N   0  0  0  0  0  2  0  0  0  0  0  0
  184.3630  178.6280  143.8070 N   0  0  0  0  0  2  0  0  0  0  0  0
  186.9320  177.9930  145.7390 C   0  0  0  0  0  2  0  0  0  0  0  0
  186.2160  177.2600  141.6140 C   0  0  0  0  0  1  0  0  0  0  0  0
  184.6420  178.5020  147.4200 C   0  0  0  0  0  1  0  0  0  0  0  0
  187.6340  176.9360  143.5630 N   0  0  0  0  0  2  0  0  0  0  0  0
  185.6060  177.2990  145.3820 C   0  0  2  0  0  3  0  0  0  0  0  0
  191.0580  177.3850  144.2930 N   0  0  0  0  0  2  0  0  0  0  0  0
  193.5890  172.9630  141.9930 C   0  0  0  0  0  2  0  0  0  0  0  0
  191.5160  174.7380  142.4470 C   0  0  2  0  0  3  0  0  0  0  0  0
  192.8350  176.5810  142.9130 N   0  0  0  0  0  2  0  0  0  0  0  0
  193.9510  174.4070  142.4230 C   0  0  0  0  0  2  0  0  0  0  0  0
  191.4210  176.9720  142.9450 C   0  0  1  0  0  3  0  0  0  0  0  0
  192.4150  172.8680  140.9840 C   0  0  1  0  0  3  0  0  0  0  0  0
  192.8160  175.3760  142.1200 C   0  0  1  0  0  3  0  0  0  0  0  0
  191.1780  173.7150  141.3690 C   0  0  0  0  0  2  0  0  0  0  0  0
  190.5830  175.8370  142.5280 N   0  0  0  0  0  2  0  0  0  0  0  0
  192.9770  173.3240  139.3170 S   0  0  0  0  0  0  0  0  0  0  0  0
  192.0610  171.9540  138.5580 C   0  0  0  0  0  2  0  0  0  0  0  0
  191.3420  172.4580  137.3230 C   0  0  0  0  0  2  0  0  0  0  0  0
  189.4770  173.8530  138.0270 N   0  0  0  0  0  1  0  0  0  0  0  0
  190.8470  173.8750  137.5440 C   0  0  0  0  0  2  0  0  0  0  0  0
  1  2  1  0  0  0  0
  3  1  2  0  0  0  0
  4  6  2  0  0  0  0
  4  3  1  0  0  0  0
  5  2  2  0  0  0  0
  6  5  1  0  0  0  0
  7 14  1  6  0  0  0
  7 16  1  0  0  0  0
  7  8  1  0  0  0  0
  8 12  1  1  0  0  0
  8 17  1  0  0  0  0
  9 15  1  1  0  0  0
 10  6  1  1  0  0  0
 10 13  1  0  0  0  0
 11  9  1  0  0  0  0
 12 11  1  0  0  0  0
 16 10  1  0  0  0  0
 17 13  1  1  0  0  0
 17  9  1  0  0  0  0
 18  4  1  0  0  0  0
 19 22  1  0  0  0  0
 20 26  1  6  0  0  0
 20 27  1  0  0  0  0
 21 23  1  0  0  0  0
 23 18  1  1  0  0  0
 24 28  1  6  0  0  0
 24 26  1  0  0  0  0
 24 19  1  0  0  0  0
 25 22  1  1  0  0  0
 25 20  1  0  0  0  0
 25 21  1  0  0  0  0
 27 23  1  0  0  0  0
 29 28  1  0  0  0  0
 30 32  1  0  0  0  0
 30 29  1  0  0  0  0
 32 31  1  0  0  0  0
M  END
>  <MODEL>
9

>  <REMARK>
 VINA RESULT:      -6.4      2.070      3.301
  Name = 
  7 active torsions:
  status: ('A' for Active; 'I' for Inactive)
    1  A    between atoms: N_3  and  C_14
    2  A    between atoms: N_3  and  C_15
    3  A    between atoms: C_10  and  C_20
    4  A    between atoms: C_10  and  S_24
    5  A    between atoms: C_16  and  C_26
    6  A    between atoms: C_17  and  C_20
    7  A    between atoms: C_19  and  S_24
                            x       y       z     vdW  Elec       q    Type
                         _______ _______ _______ _____ _____    ______ ____

>  <TORSDO>
F 7

$$$$
