=
 OpenBabel11052420083D

 37 39  0  0  1  0  0  0  0  0999 V2000
  192.5700  175.7050  146.2850 C   0  0  0  0  0  0  0  0  0  0  0  0
  191.8140  177.5480  143.9390 C   0  0  0  0  0  2  0  0  0  0  0  0
  192.1470  175.1750  144.9460 C   0  0  2  0  0  3  0  0  0  0  0  0
  188.4330  177.2970  143.4100 C   0  0  0  0  0  0  0  0  0  0  0  0
  191.5320  175.7720  147.1070 C   0  0  0  0  0  0  0  0  0  0  0  0
  192.4540  176.1650  143.8010 C   0  0  2  0  0  3  0  0  0  0  0  0
  190.3220  175.3540  146.3990 C   0  0  0  0  0  0  0  0  0  0  0  0
  194.7470  176.7740  145.6580 C   0  0  0  0  0  2  0  0  0  0  0  0
  189.8110  175.4530  142.9530 O   0  0  0  0  0  0  0  0  0  0  0  0
  190.7500  177.7560  142.8620 C   0  0  0  0  0  2  0  0  0  0  0  0
  193.9860  175.9650  146.6980 C   0  0  0  0  0  2  0  0  0  0  0  0
  190.6650  175.0080  145.1560 C   0  0  0  0  0  0  0  0  0  0  0  0
  193.9160  176.2420  143.3310 C   0  0  1  0  0  3  0  0  0  0  0  0
  189.6010  176.8270  143.0690 C   0  0  0  0  0  0  0  0  0  0  0  0
  187.3300  177.7450  143.7410 O   0  0  0  0  0  0  0  0  0  0  0  0
  189.7030  174.5870  144.0800 C   0  0  2  0  0  3  0  0  0  0  0  0
  194.9580  175.9370  144.4050 C   0  0  0  0  0  2  0  0  0  0  0  0
  188.9550  175.3480  146.9760 C   0  0  0  0  0  0  0  0  0  0  0  0
  188.6000  174.4020  147.7280 O   0  0  0  0  0  0  0  0  0  0  0  0
  188.0410  176.4160  146.7030 N   0  0  0  0  0  2  0  0  0  0  0  0
  186.7130  176.4930  147.2960 C   0  0  0  0  0  2  0  0  0  0  0  0
  186.3370  177.9430  147.5410 C   0  0  0  0  0  1  0  0  0  0  0  0
  190.0450  172.8740  143.5730 S   0  0  0  0  0  0  0  0  0  0  0  0
  189.2630  173.1020  141.9470 C   0  0  2  0  0  3  0  0  0  0  0  0
  187.7630  172.9030  142.0730 C   0  0  0  0  0  1  0  0  0  0  0  0
  190.2600  171.1320  141.8480 C   0  0  0  0  0  1  0  0  0  0  0  0
  189.7830  172.1710  141.0470 O   0  0  0  0  0  0  0  0  0  0  0  0
  194.1270  175.3030  142.1530 C   0  0  0  0  0  2  0  0  0  0  0  0
  192.7580  173.5160  141.3640 O   0  0  0  0  0  1  0  0  0  0  0  0
  193.5380  173.9330  142.4440 C   0  0  1  0  0  3  0  0  0  0  0  0
  194.6460  172.9520  142.6770 C   0  0  0  0  0  3  0  0  0  0  0  0
  194.6770  172.1170  143.7220 C   0  0  0  0  0  3  0  0  0  0  0  0
  194.0910  172.6790  145.9410 F   0  0  0  0  0  0  0  0  0  0  0  0
  193.6200  172.0830  144.7830 C   0  0  0  0  0  2  0  0  0  0  0  0
  191.5920  176.2730  148.5160 C   0  0  0  0  0  2  0  0  0  0  0  0
  191.1970  177.7360  148.5580 C   0  0  0  0  0  2  0  0  0  0  0  0
  191.5350  178.2720  149.7980 O   0  0  0  0  0  1  0  0  0  0  0  0
  1 11  1  0  0  0  0
  1  5  2  0  0  0  0
  3 12  1  1  0  0  0
  3  1  1  0  0  0  0
  4 15  2  0  0  0  0
  5 35  1  0  0  0  0
  6  2  1  1  0  0  0
  6  3  1  0  0  0  0
  7 18  1  0  0  0  0
  7  5  1  0  0  0  0
  8 11  1  0  0  0  0
  9 14  1  0  0  0  0
  9 16  1  0  0  0  0
 10 14  1  0  0  0  0
 10  2  1  0  0  0  0
 12  7  2  0  0  0  0
 13 28  1  6  0  0  0
 13  6  1  0  0  0  0
 13 17  1  0  0  0  0
 14  4  2  0  0  0  0
 16 23  1  6  0  0  0
 16 12  1  0  0  0  0
 17  8  1  0  0  0  0
 18 19  2  0  0  0  0
 20 18  1  0  0  0  0
 20 21  1  0  0  0  0
 21 22  1  0  0  0  0
 24 25  1  1  0  0  0
 24 23  1  0  0  0  0
 27 26  1  0  0  0  0
 27 24  1  0  0  0  0
 28 30  1  0  0  0  0
 30 29  1  6  0  0  0
 30 31  1  0  0  0  0
 31 32  2  0  0  0  0
 32 34  1  0  0  0  0
 34 33  1  0  0  0  0
 35 36  1  0  0  0  0
 36 37  1  0  0  0  0
M  END
>  <MODEL>
1

>  <REMARK>
 VINA RESULT:      -6.4      0.000      0.000
  Name = 
  11 active torsions:
  status: ('A' for Active; 'I' for Inactive)
    1  A    between atoms: S_1  and  C_5
    2  A    between atoms: S_1  and  C_36
    3  A    between atoms: C_2  and  C_35
    4  A    between atoms: C_3  and  N_32
    5  A    between atoms: C_5  and  O_23
    6  A    between atoms: C_6  and  C_31
    7  A    between atoms: C_6  and  C_35
    8  A    between atoms: C_9  and  C_13
    9  A    between atoms: C_9  and  C_16
   10  A    between atoms: C_18  and  C_19
   11  A    between atoms: C_20  and  C_21
                            x       y       z     vdW  Elec       q    Type
                         _______ _______ _______ _____ _____    ______ ____

>  <TORSDO>
F 11

$$$$
=
 OpenBabel11052420083D

 37 39  0  0  1  0  0  0  0  0999 V2000
  192.3840  175.6100  146.0780 C   0  0  0  0  0  0  0  0  0  0  0  0
  191.6820  177.6270  143.8640 C   0  0  0  0  0  2  0  0  0  0  0  0
  191.8560  175.1860  144.7380 C   0  0  2  0  0  3  0  0  0  0  0  0
  188.2720  177.6870  143.4920 C   0  0  0  0  0  0  0  0  0  0  0  0
  191.3940  175.7200  146.9530 C   0  0  0  0  0  0  0  0  0  0  0  0
  192.1950  176.2050  143.6280 C   0  0  2  0  0  3  0  0  0  0  0  0
  190.1220  175.4410  146.2880 C   0  0  0  0  0  0  0  0  0  0  0  0
  194.6140  176.5240  145.3950 C   0  0  0  0  0  2  0  0  0  0  0  0
  189.4640  175.7600  142.8800 O   0  0  0  0  0  0  0  0  0  0  0  0
  190.5930  177.9790  142.8510 C   0  0  0  0  0  2  0  0  0  0  0  0
  193.8350  175.7280  146.4320 C   0  0  0  0  0  2  0  0  0  0  0  0
  190.3770  175.1330  145.0140 C   0  0  0  0  0  0  0  0  0  0  0  0
  193.6350  176.1840  143.0890 C   0  0  1  0  0  3  0  0  0  0  0  0
  189.3780  177.1390  143.0710 C   0  0  0  0  0  0  0  0  0  0  0  0
  187.2270  178.2080  143.8980 O   0  0  0  0  0  0  0  0  0  0  0  0
  189.3340  174.8490  143.9690 C   0  0  2  0  0  3  0  0  0  0  0  0
  194.6960  175.7380  144.0940 C   0  0  0  0  0  2  0  0  0  0  0  0
  188.7880  175.5200  146.9310 C   0  0  0  0  0  0  0  0  0  0  0  0
  188.4170  174.6040  147.7130 O   0  0  0  0  0  0  0  0  0  0  0  0
  187.9220  176.6350  146.6890 N   0  0  0  0  0  2  0  0  0  0  0  0
  186.6330  176.7940  147.3450 C   0  0  0  0  0  2  0  0  0  0  0  0
  185.5150  176.7070  146.3230 C   0  0  0  0  0  1  0  0  0  0  0  0
  189.5050  173.1420  143.3640 S   0  0  0  0  0  0  0  0  0  0  0  0
  189.7220  173.6770  141.6400 C   0  0  2  0  0  3  0  0  0  0  0  0
  188.6600  173.0290  140.7690 C   0  0  0  0  0  1  0  0  0  0  0  0
  190.8850  173.2990  139.7990 C   0  0  0  0  0  1  0  0  0  0  0  0
  190.9880  173.2960  141.1910 O   0  0  0  0  0  0  0  0  0  0  0  0
  193.7100  175.2920  141.8590 C   0  0  0  0  0  2  0  0  0  0  0  0
  194.9560  173.3190  141.3670 O   0  0  0  0  0  1  0  0  0  0  0  0
  195.0860  174.6590  141.7360 C   0  0  1  0  0  3  0  0  0  0  0  0
  195.8830  175.3940  140.7020 C   0  0  0  0  0  3  0  0  0  0  0  0
  197.1470  175.7880  140.8960 C   0  0  0  0  0  3  0  0  0  0  0  0
  197.8280  176.6840  142.9730 F   0  0  0  0  0  0  0  0  0  0  0  0
  197.8970  175.5570  142.1720 C   0  0  0  0  0  2  0  0  0  0  0  0
  191.5610  176.1410  148.3800 C   0  0  0  0  0  2  0  0  0  0  0  0
  191.2510  177.6190  148.5190 C   0  0  0  0  0  2  0  0  0  0  0  0
  191.6440  178.0590  149.7800 O   0  0  0  0  0  1  0  0  0  0  0  0
  1 11  1  0  0  0  0
  1  5  2  0  0  0  0
  3 12  1  1  0  0  0
  3  1  1  0  0  0  0
  4 15  2  0  0  0  0
  5 35  1  0  0  0  0
  6  2  1  1  0  0  0
  6  3  1  0  0  0  0
  7 18  1  0  0  0  0
  7  5  1  0  0  0  0
  8 11  1  0  0  0  0
  9 14  1  0  0  0  0
  9 16  1  0  0  0  0
 10 14  1  0  0  0  0
 10  2  1  0  0  0  0
 12  7  2  0  0  0  0
 13 28  1  6  0  0  0
 13  6  1  0  0  0  0
 13 17  1  0  0  0  0
 14  4  2  0  0  0  0
 16 23  1  6  0  0  0
 16 12  1  0  0  0  0
 17  8  1  0  0  0  0
 18 19  2  0  0  0  0
 20 18  1  0  0  0  0
 20 21  1  0  0  0  0
 22 21  1  0  0  0  0
 24 25  1  6  0  0  0
 24 23  1  0  0  0  0
 26 27  1  0  0  0  0
 27 24  1  0  0  0  0
 30 29  1  6  0  0  0
 30 28  1  0  0  0  0
 31 32  2  0  0  0  0
 31 30  1  0  0  0  0
 32 34  1  0  0  0  0
 34 33  1  0  0  0  0
 35 36  1  0  0  0  0
 36 37  1  0  0  0  0
M  END
>  <MODEL>
2

>  <REMARK>
 VINA RESULT:      -6.3      1.588      1.983
  Name = 
  11 active torsions:
  status: ('A' for Active; 'I' for Inactive)
    1  A    between atoms: S_1  and  C_5
    2  A    between atoms: S_1  and  C_36
    3  A    between atoms: C_2  and  C_35
    4  A    between atoms: C_3  and  N_32
    5  A    between atoms: C_5  and  O_23
    6  A    between atoms: C_6  and  C_31
    7  A    between atoms: C_6  and  C_35
    8  A    between atoms: C_9  and  C_13
    9  A    between atoms: C_9  and  C_16
   10  A    between atoms: C_18  and  C_19
   11  A    between atoms: C_20  and  C_21
                            x       y       z     vdW  Elec       q    Type
                         _______ _______ _______ _____ _____    ______ ____

>  <TORSDO>
F 11

$$$$
=
 OpenBabel11052420083D

 37 39  0  0  1  0  0  0  0  0999 V2000
  191.7940  176.4800  143.8380 C   0  0  0  0  0  0  0  0  0  0  0  0
  190.1470  174.1180  144.9220 C   0  0  0  0  0  2  0  0  0  0  0  0
  191.0250  175.5530  142.9420 C   0  0  2  0  0  3  0  0  0  0  0  0
  191.7270  171.2020  144.0470 C   0  0  0  0  0  0  0  0  0  0  0  0
  193.0540  176.0820  143.9460 C   0  0  0  0  0  0  0  0  0  0  0  0
  189.8160  174.9170  143.6590 C   0  0  2  0  0  3  0  0  0  0  0  0
  193.2410  174.8430  143.1920 C   0  0  0  0  0  0  0  0  0  0  0  0
  189.8970  177.5940  145.0370 C   0  0  0  0  0  2  0  0  0  0  0  0
  190.7600  172.5350  142.3740 O   0  0  0  0  0  0  0  0  0  0  0  0
  189.8800  172.6300  144.7010 C   0  0  0  0  0  2  0  0  0  0  0  0
  191.2690  177.7660  144.3990 C   0  0  0  0  0  2  0  0  0  0  0  0
  192.0800  174.5310  142.6110 C   0  0  0  0  0  0  0  0  0  0  0  0
  188.5740  175.8050  143.8380 C   0  0  1  0  0  3  0  0  0  0  0  0
  190.8230  172.0700  143.6880 C   0  0  0  0  0  0  0  0  0  0  0  0
  192.5880  170.3840  144.3910 O   0  0  0  0  0  0  0  0  0  0  0  0
  191.8250  173.2900  141.8010 C   0  0  2  0  0  3  0  0  0  0  0  0
  188.8610  177.3000  143.9630 C   0  0  0  0  0  2  0  0  0  0  0  0
  194.5040  174.0690  143.1210 C   0  0  0  0  0  0  0  0  0  0  0  0
  195.3460  174.3300  142.2210 O   0  0  0  0  0  0  0  0  0  0  0  0
  194.7870  173.0410  144.0770 N   0  0  0  0  0  2  0  0  0  0  0  0
  196.0390  172.2970  144.0930 C   0  0  0  0  0  2  0  0  0  0  0  0
  196.6410  172.3250  145.4860 C   0  0  0  0  0  1  0  0  0  0  0  0
  191.4090  173.7360  140.0880 S   0  0  0  0  0  0  0  0  0  0  0  0
  189.7060  173.1180  140.2440 C   0  0  2  0  0  3  0  0  0  0  0  0
  189.4680  172.0210  139.2210 C   0  0  0  0  0  1  0  0  0  0  0  0
  188.3670  173.9780  138.7100 C   0  0  0  0  0  1  0  0  0  0  0  0
  188.8100  174.1640  140.0210 O   0  0  0  0  0  0  0  0  0  0  0  0
  187.6090  175.5790  142.6830 C   0  0  0  0  0  2  0  0  0  0  0  0
  186.8950  176.9770  140.8890 O   0  0  0  0  0  1  0  0  0  0  0  0
  186.9360  176.8800  142.2810 C   0  0  1  0  0  3  0  0  0  0  0  0
  185.5440  176.9140  142.8320 C   0  0  0  0  0  3  0  0  0  0  0  0
  185.0000  178.0060  143.3810 C   0  0  0  0  0  3  0  0  0  0  0  0
  186.2310  179.4330  144.8060 F   0  0  0  0  0  0  0  0  0  0  0  0
  185.7280  179.3080  143.5230 C   0  0  0  0  0  2  0  0  0  0  0  0
  194.0950  176.7650  144.7770 C   0  0  0  0  0  2  0  0  0  0  0  0
  194.0530  176.2290  146.1950 C   0  0  0  0  0  2  0  0  0  0  0  0
  195.1560  175.4080  146.4130 O   0  0  0  0  0  1  0  0  0  0  0  0
  1  5  2  0  0  0  0
  1 11  1  0  0  0  0
  3 12  1  1  0  0  0
  3  6  1  0  0  0  0
  3  1  1  0  0  0  0
  4 15  2  0  0  0  0
  5 35  1  0  0  0  0
  6 13  1  0  0  0  0
  6  2  1  1  0  0  0
  7  5  1  0  0  0  0
  9 14  1  0  0  0  0
 10  2  1  0  0  0  0
 11  8  1  0  0  0  0
 12  7  2  0  0  0  0
 13 28  1  6  0  0  0
 13 17  1  0  0  0  0
 14  4  2  0  0  0  0
 14 10  1  0  0  0  0
 16 23  1  6  0  0  0
 16  9  1  0  0  0  0
 16 12  1  0  0  0  0
 17  8  1  0  0  0  0
 18  7  1  0  0  0  0
 18 20  1  0  0  0  0
 19 18  2  0  0  0  0
 20 21  1  0  0  0  0
 21 22  1  0  0  0  0
 23 24  1  0  0  0  0
 24 25  1  6  0  0  0
 26 27  1  0  0  0  0
 27 24  1  0  0  0  0
 30 29  1  6  0  0  0
 30 28  1  0  0  0  0
 30 31  1  0  0  0  0
 31 32  2  0  0  0  0
 32 34  1  0  0  0  0
 34 33  1  0  0  0  0
 35 36  1  0  0  0  0
 36 37  1  0  0  0  0
M  END
>  <MODEL>
3

>  <REMARK>
 VINA RESULT:      -6.3      3.310      6.485
  Name = 
  11 active torsions:
  status: ('A' for Active; 'I' for Inactive)
    1  A    between atoms: S_1  and  C_5
    2  A    between atoms: S_1  and  C_36
    3  A    between atoms: C_2  and  C_35
    4  A    between atoms: C_3  and  N_32
    5  A    between atoms: C_5  and  O_23
    6  A    between atoms: C_6  and  C_31
    7  A    between atoms: C_6  and  C_35
    8  A    between atoms: C_9  and  C_13
    9  A    between atoms: C_9  and  C_16
   10  A    between atoms: C_18  and  C_19
   11  A    between atoms: C_20  and  C_21
                            x       y       z     vdW  Elec       q    Type
                         _______ _______ _______ _____ _____    ______ ____

>  <TORSDO>
F 11

$$$$
=
 OpenBabel11052420083D

 37 39  0  0  1  0  0  0  0  0999 V2000
  188.5620  175.4560  141.6690 C   0  0  0  0  0  0  0  0  0  0  0  0
  189.3810  173.1030  143.4740 C   0  0  0  0  0  2  0  0  0  0  0  0
  189.8960  175.3910  142.3540 C   0  0  2  0  0  3  0  0  0  0  0  0
  189.4700  174.2060  146.7210 C   0  0  0  0  0  0  0  0  0  0  0  0
  187.6990  176.1490  142.3980 C   0  0  0  0  0  0  0  0  0  0  0  0
  190.3430  173.9380  142.6260 C   0  0  2  0  0  3  0  0  0  0  0  0
  188.3370  176.5630  143.6470 C   0  0  0  0  0  0  0  0  0  0  0  0
  188.8080  173.5480  140.0630 C   0  0  0  0  0  2  0  0  0  0  0  0
  191.0520  175.0120  145.1870 O   0  0  0  0  0  0  0  0  0  0  0  0
  190.0040  172.7820  144.8320 C   0  0  0  0  0  2  0  0  0  0  0  0
  188.2830  174.9600  140.2830 C   0  0  0  0  0  2  0  0  0  0  0  0
  189.6010  176.1320  143.6310 C   0  0  0  0  0  0  0  0  0  0  0  0
  190.8990  173.1520  141.4270 C   0  0  1  0  0  3  0  0  0  0  0  0
  190.1750  174.0260  145.6400 C   0  0  0  0  0  0  0  0  0  0  0  0
  188.7930  174.3780  147.7410 O   0  0  0  0  0  0  0  0  0  0  0  0
  190.5810  176.2880  144.7610 C   0  0  2  0  0  3  0  0  0  0  0  0
  190.3300  173.5560  140.0690 C   0  0  0  0  0  2  0  0  0  0  0  0
  187.6680  177.3090  144.7410 C   0  0  0  0  0  0  0  0  0  0  0  0
  187.5960  178.5650  144.6850 O   0  0  0  0  0  0  0  0  0  0  0  0
  187.0870  176.6160  145.8510 N   0  0  0  0  0  2  0  0  0  0  0  0
  186.3620  177.2940  146.9160 C   0  0  0  0  0  2  0  0  0  0  0  0
  184.8840  177.3600  146.5780 C   0  0  0  0  0  1  0  0  0  0  0  0
  191.9850  177.3160  144.2320 S   0  0  0  0  0  0  0  0  0  0  0  0
  193.2100  176.1350  144.8740 C   0  0  2  0  0  3  0  0  0  0  0  0
  194.0090  176.7870  145.9880 C   0  0  0  0  0  1  0  0  0  0  0  0
  195.3070  176.3030  144.1950 C   0  0  0  0  0  1  0  0  0  0  0  0
  194.0720  175.7540  143.8440 O   0  0  0  0  0  0  0  0  0  0  0  0
  192.4150  173.2790  141.3880 C   0  0  0  0  0  2  0  0  0  0  0  0
  194.3860  172.0160  140.9340 O   0  0  0  0  0  1  0  0  0  0  0  0
  193.0700  171.9080  141.3860 C   0  0  1  0  0  3  0  0  0  0  0  0
  193.0560  171.3460  142.7750 C   0  0  0  0  0  3  0  0  0  0  0  0
  192.3660  170.2520  143.1150 C   0  0  0  0  0  3  0  0  0  0  0  0
  190.2560  170.0470  142.0730 F   0  0  0  0  0  0  0  0  0  0  0  0
  191.5160  169.4800  142.1530 C   0  0  0  0  0  2  0  0  0  0  0  0
  186.2710  176.3950  142.0220 C   0  0  0  0  0  2  0  0  0  0  0  0
  186.1260  177.7870  141.4390 C   0  0  0  0  0  2  0  0  0  0  0  0
  186.0860  177.7060  140.0500 O   0  0  0  0  0  1  0  0  0  0  0  0
  1  5  2  0  0  0  0
  2 10  1  0  0  0  0
  3  1  1  6  0  0  0
  3  6  1  0  0  0  0
  3 12  1  0  0  0  0
  4 15  2  0  0  0  0
  5  7  1  0  0  0  0
  6  2  1  6  0  0  0
  7 18  1  0  0  0  0
  8 17  1  0  0  0  0
  8 11  1  0  0  0  0
  9 14  1  0  0  0  0
 10 14  1  0  0  0  0
 11  1  1  0  0  0  0
 12  7  2  0  0  0  0
 12 16  1  0  0  0  0
 13 28  1  6  0  0  0
 13  6  1  0  0  0  0
 14  4  2  0  0  0  0
 16 23  1  6  0  0  0
 16  9  1  0  0  0  0
 17 13  1  0  0  0  0
 18 20  1  0  0  0  0
 19 18  2  0  0  0  0
 20 21  1  0  0  0  0
 22 21  1  0  0  0  0
 23 24  1  0  0  0  0
 24 25  1  1  0  0  0
 27 26  1  0  0  0  0
 27 24  1  0  0  0  0
 30 29  1  1  0  0  0
 30 28  1  0  0  0  0
 30 31  1  0  0  0  0
 31 32  2  0  0  0  0
 33 34  1  0  0  0  0
 34 32  1  0  0  0  0
 35  5  1  0  0  0  0
 36 35  1  0  0  0  0
 37 36  1  0  0  0  0
M  END
>  <MODEL>
4

>  <REMARK>
 VINA RESULT:      -6.1      2.456      5.435
  Name = 
  11 active torsions:
  status: ('A' for Active; 'I' for Inactive)
    1  A    between atoms: S_1  and  C_5
    2  A    between atoms: S_1  and  C_36
    3  A    between atoms: C_2  and  C_35
    4  A    between atoms: C_3  and  N_32
    5  A    between atoms: C_5  and  O_23
    6  A    between atoms: C_6  and  C_31
    7  A    between atoms: C_6  and  C_35
    8  A    between atoms: C_9  and  C_13
    9  A    between atoms: C_9  and  C_16
   10  A    between atoms: C_18  and  C_19
   11  A    between atoms: C_20  and  C_21
                            x       y       z     vdW  Elec       q    Type
                         _______ _______ _______ _____ _____    ______ ____

>  <TORSDO>
F 11

$$$$
=
 OpenBabel11052420083D

 37 39  0  0  1  0  0  0  0  0999 V2000
  192.1020  176.5330  143.8630 C   0  0  0  0  0  0  0  0  0  0  0  0
  190.2450  174.2310  144.7100 C   0  0  0  0  0  2  0  0  0  0  0  0
  191.4310  175.6300  142.8690 C   0  0  2  0  0  3  0  0  0  0  0  0
  191.8310  171.2610  144.0530 C   0  0  0  0  0  0  0  0  0  0  0  0
  193.3220  176.0940  144.1400 C   0  0  0  0  0  0  0  0  0  0  0  0
  190.1150  175.0360  143.4150 C   0  0  2  0  0  3  0  0  0  0  0  0
  193.5670  174.8470  143.4160 C   0  0  0  0  0  0  0  0  0  0  0  0
  190.0980  177.7140  144.7950 C   0  0  0  0  0  2  0  0  0  0  0  0
  191.1450  172.6200  142.2670 O   0  0  0  0  0  0  0  0  0  0  0  0
  189.9610  172.7520  144.4530 C   0  0  0  0  0  2  0  0  0  0  0  0
  191.5490  177.8380  144.3490 C   0  0  0  0  0  2  0  0  0  0  0  0
  192.4860  174.5720  142.6830 C   0  0  0  0  0  0  0  0  0  0  0  0
  188.8910  175.9660  143.4250 C   0  0  1  0  0  3  0  0  0  0  0  0
  191.0130  172.1580  143.5770 C   0  0  0  0  0  0  0  0  0  0  0  0
  192.6100  170.4170  144.5100 O   0  0  0  0  0  0  0  0  0  0  0  0
  192.3030  173.3370  141.8450 C   0  0  2  0  0  3  0  0  0  0  0  0
  189.2080  177.4510  143.5900 C   0  0  0  0  0  2  0  0  0  0  0  0
  194.8020  174.0310  143.5170 C   0  0  0  0  0  0  0  0  0  0  0  0
  195.7930  174.3080  142.7890 O   0  0  0  0  0  0  0  0  0  0  0  0
  194.8880  172.9440  144.4450 N   0  0  0  0  0  2  0  0  0  0  0  0
  196.0970  172.1540  144.6300 C   0  0  0  0  0  2  0  0  0  0  0  0
  196.8310  172.6140  145.8770 C   0  0  0  0  0  1  0  0  0  0  0  0
  192.1370  173.7920  140.0910 S   0  0  0  0  0  0  0  0  0  0  0  0
  193.9350  173.7570  139.8180 C   0  0  2  0  0  3  0  0  0  0  0  0
  194.4530  175.1770  139.6650 C   0  0  0  0  0  1  0  0  0  0  0  0
  193.2780  171.9970  138.6540 C   0  0  0  0  0  1  0  0  0  0  0  0
  194.2150  173.0320  138.6600 O   0  0  0  0  0  0  0  0  0  0  0  0
  188.0840  175.7680  142.1500 C   0  0  0  0  0  2  0  0  0  0  0  0
  186.7930  177.0260  140.5890 O   0  0  0  0  0  1  0  0  0  0  0  0
  187.1140  176.9180  141.9430 C   0  0  1  0  0  3  0  0  0  0  0  0
  185.8700  176.6720  142.7400 C   0  0  0  0  0  3  0  0  0  0  0  0
  185.2390  177.6300  143.4280 C   0  0  0  0  0  3  0  0  0  0  0  0
  186.3620  179.2740  144.6990 F   0  0  0  0  0  0  0  0  0  0  0  0
  185.7170  179.0480  143.4960 C   0  0  0  0  0  2  0  0  0  0  0  0
  194.2630  176.7450  145.1050 C   0  0  0  0  0  2  0  0  0  0  0  0
  194.2850  175.9650  146.4050 C   0  0  0  0  0  2  0  0  0  0  0  0
  192.9840  175.6140  146.7570 O   0  0  0  0  0  1  0  0  0  0  0  0
  1  5  2  0  0  0  0
  1 11  1  0  0  0  0
  3 12  1  1  0  0  0
  3  6  1  0  0  0  0
  3  1  1  0  0  0  0
  4 15  2  0  0  0  0
  5 35  1  0  0  0  0
  6 13  1  0  0  0  0
  6  2  1  1  0  0  0
  7 18  1  0  0  0  0
  7  5  1  0  0  0  0
  9 14  1  0  0  0  0
 10  2  1  0  0  0  0
 11  8  1  0  0  0  0
 12  7  2  0  0  0  0
 13 28  1  6  0  0  0
 13 17  1  0  0  0  0
 14  4  2  0  0  0  0
 14 10  1  0  0  0  0
 16 23  1  6  0  0  0
 16  9  1  0  0  0  0
 16 12  1  0  0  0  0
 17  8  1  0  0  0  0
 18 20  1  0  0  0  0
 19 18  2  0  0  0  0
 20 21  1  0  0  0  0
 21 22  1  0  0  0  0
 24 25  1  6  0  0  0
 24 23  1  0  0  0  0
 26 27  1  0  0  0  0
 27 24  1  0  0  0  0
 30 29  1  6  0  0  0
 30 28  1  0  0  0  0
 30 31  1  0  0  0  0
 31 32  2  0  0  0  0
 32 34  1  0  0  0  0
 34 33  1  0  0  0  0
 35 36  1  0  0  0  0
 36 37  1  0  0  0  0
M  END
>  <MODEL>
5

>  <REMARK>
 VINA RESULT:      -5.9      3.235      6.551
  Name = 
  11 active torsions:
  status: ('A' for Active; 'I' for Inactive)
    1  A    between atoms: S_1  and  C_5
    2  A    between atoms: S_1  and  C_36
    3  A    between atoms: C_2  and  C_35
    4  A    between atoms: C_3  and  N_32
    5  A    between atoms: C_5  and  O_23
    6  A    between atoms: C_6  and  C_31
    7  A    between atoms: C_6  and  C_35
    8  A    between atoms: C_9  and  C_13
    9  A    between atoms: C_9  and  C_16
   10  A    between atoms: C_18  and  C_19
   11  A    between atoms: C_20  and  C_21
                            x       y       z     vdW  Elec       q    Type
                         _______ _______ _______ _____ _____    ______ ____

>  <TORSDO>
F 11

$$$$
=
 OpenBabel11052420083D

 37 39  0  0  1  0  0  0  0  0999 V2000
  188.4500  175.1400  142.1850 C   0  0  0  0  0  0  0  0  0  0  0  0
  190.2380  177.5710  142.7810 C   0  0  0  0  0  2  0  0  0  0  0  0
  189.2900  175.2390  143.4250 C   0  0  2  0  0  3  0  0  0  0  0  0
  193.5160  176.6090  142.4700 C   0  0  0  0  0  0  0  0  0  0  0  0
  189.0980  174.4760  141.2380 C   0  0  0  0  0  0  0  0  0  0  0  0
  189.5510  176.7030  143.8380 C   0  0  2  0  0  3  0  0  0  0  0  0
  190.4320  174.1180  141.7180 C   0  0  0  0  0  0  0  0  0  0  0  0
  186.8060  176.9770  142.6290 C   0  0  0  0  0  2  0  0  0  0  0  0
  192.2230  175.7430  144.2270 O   0  0  0  0  0  0  0  0  0  0  0  0
  191.6470  177.9520  143.2340 C   0  0  0  0  0  2  0  0  0  0  0  0
  187.0200  175.5740  142.0780 C   0  0  0  0  0  2  0  0  0  0  0  0
  190.5520  174.5520  142.9750 C   0  0  0  0  0  0  0  0  0  0  0  0
  188.3960  177.4390  144.5380 C   0  0  1  0  0  3  0  0  0  0  0  0
  192.5220  176.7450  143.3030 C   0  0  0  0  0  0  0  0  0  0  0  0
  194.4530  176.4790  141.6740 O   0  0  0  0  0  0  0  0  0  0  0  0
  191.7980  174.4480  143.8090 C   0  0  2  0  0  3  0  0  0  0  0  0
  186.9970  176.9750  144.1380 C   0  0  0  0  0  2  0  0  0  0  0  0
  191.4670  173.4180  140.9190 C   0  0  0  0  0  0  0  0  0  0  0  0
  191.4810  172.1580  140.8840 O   0  0  0  0  0  0  0  0  0  0  0  0
  192.4390  174.1570  140.1710 N   0  0  0  0  0  2  0  0  0  0  0  0
  193.4340  173.5200  139.3190 C   0  0  0  0  0  2  0  0  0  0  0  0
  194.7460  173.3780  140.0680 C   0  0  0  0  0  1  0  0  0  0  0  0
  191.4900  173.4030  145.2650 S   0  0  0  0  0  0  0  0  0  0  0  0
  192.6260  172.1060  144.6890 C   0  0  2  0  0  3  0  0  0  0  0  0
  193.7670  172.7390  143.9110 C   0  0  0  0  0  1  0  0  0  0  0  0
  192.6860  170.0400  143.9070 C   0  0  0  0  0  1  0  0  0  0  0  0
  191.9370  171.2170  143.8640 O   0  0  0  0  0  0  0  0  0  0  0  0
  188.5480  177.3160  146.0470 C   0  0  0  0  0  2  0  0  0  0  0  0
  187.4640  175.7000  147.4240 O   0  0  0  0  0  1  0  0  0  0  0  0
  187.2460  176.8630  146.6840 C   0  0  1  0  0  3  0  0  0  0  0  0
  186.7260  177.9440  147.5800 C   0  0  0  0  0  3  0  0  0  0  0  0
  185.4670  178.3940  147.5300 C   0  0  0  0  0  3  0  0  0  0  0  0
  184.2900  178.7820  145.5190 F   0  0  0  0  0  0  0  0  0  0  0  0
  184.4460  177.8840  146.5600 C   0  0  0  0  0  2  0  0  0  0  0  0
  188.5610  174.2090  139.8660 C   0  0  0  0  0  2  0  0  0  0  0  0
  188.2130  172.7400  139.7270 C   0  0  0  0  0  2  0  0  0  0  0  0
  188.6100  172.2850  138.4730 O   0  0  0  0  0  1  0  0  0  0  0  0
  2 10  1  0  0  0  0
  3  1  1  6  0  0  0
  3  6  1  0  0  0  0
  4 14  2  0  0  0  0
  5  7  1  0  0  0  0
  5  1  2  0  0  0  0
  6  2  1  6  0  0  0
  6 13  1  0  0  0  0
  7 12  2  0  0  0  0
  8 17  1  0  0  0  0
 10 14  1  0  0  0  0
 11  1  1  0  0  0  0
 11  8  1  0  0  0  0
 12  3  1  0  0  0  0
 12 16  1  0  0  0  0
 13 28  1  1  0  0  0
 14  9  1  0  0  0  0
 15  4  2  0  0  0  0
 16  9  1  0  0  0  0
 16 23  1  1  0  0  0
 17 13  1  0  0  0  0
 18  7  1  0  0  0  0
 19 18  2  0  0  0  0
 20 18  1  0  0  0  0
 21 22  1  0  0  0  0
 21 20  1  0  0  0  0
 24 25  1  6  0  0  0
 24 23  1  0  0  0  0
 27 26  1  0  0  0  0
 27 24  1  0  0  0  0
 28 30  1  0  0  0  0
 30 29  1  1  0  0  0
 30 31  1  0  0  0  0
 32 31  2  0  0  0  0
 33 34  1  0  0  0  0
 34 32  1  0  0  0  0
 35  5  1  0  0  0  0
 36 35  1  0  0  0  0
 37 36  1  0  0  0  0
M  END
>  <MODEL>
6

>  <REMARK>
 VINA RESULT:      -5.9      3.290      7.471
  Name = 
  11 active torsions:
  status: ('A' for Active; 'I' for Inactive)
    1  A    between atoms: S_1  and  C_5
    2  A    between atoms: S_1  and  C_36
    3  A    between atoms: C_2  and  C_35
    4  A    between atoms: C_3  and  N_32
    5  A    between atoms: C_5  and  O_23
    6  A    between atoms: C_6  and  C_31
    7  A    between atoms: C_6  and  C_35
    8  A    between atoms: C_9  and  C_13
    9  A    between atoms: C_9  and  C_16
   10  A    between atoms: C_18  and  C_19
   11  A    between atoms: C_20  and  C_21
                            x       y       z     vdW  Elec       q    Type
                         _______ _______ _______ _____ _____    ______ ____

>  <TORSDO>
F 11

$$$$
=
 OpenBabel11052420083D

 37 39  0  0  1  0  0  0  0  0999 V2000
  188.7310  174.7960  141.1090 C   0  0  0  0  0  0  0  0  0  0  0  0
  189.0800  172.5530  143.1860 C   0  0  0  0  0  2  0  0  0  0  0  0
  190.0560  174.4800  141.7410 C   0  0  2  0  0  3  0  0  0  0  0  0
  189.6800  173.9890  146.2440 C   0  0  0  0  0  0  0  0  0  0  0  0
  188.1220  175.7700  141.7720 C   0  0  0  0  0  0  0  0  0  0  0  0
  190.1520  173.0070  142.1920 C   0  0  2  0  0  3  0  0  0  0  0  0
  188.9340  176.1590  142.9240 C   0  0  0  0  0  0  0  0  0  0  0  0
  188.3810  172.7060  139.7730 C   0  0  0  0  0  2  0  0  0  0  0  0
  191.2920  174.1730  144.5480 O   0  0  0  0  0  0  0  0  0  0  0  0
  189.7050  172.2550  144.5490 C   0  0  0  0  0  2  0  0  0  0  0  0
  188.2360  174.2210  139.8180 C   0  0  0  0  0  2  0  0  0  0  0  0
  190.0480  175.4240  142.9150 C   0  0  0  0  0  0  0  0  0  0  0  0
  190.4070  171.9650  141.0910 C   0  0  1  0  0  3  0  0  0  0  0  0
  190.2370  173.5050  145.1690 C   0  0  0  0  0  0  0  0  0  0  0  0
  189.1440  174.4510  147.2580 O   0  0  0  0  0  0  0  0  0  0  0  0
  191.1180  175.4650  143.9710 C   0  0  2  0  0  3  0  0  0  0  0  0
  189.8530  172.3290  139.7140 C   0  0  0  0  0  2  0  0  0  0  0  0
  188.5520  177.1790  143.9310 C   0  0  0  0  0  0  0  0  0  0  0  0
  189.1500  178.2880  143.9540 O   0  0  0  0  0  0  0  0  0  0  0  0
  187.4980  176.9250  144.8670 N   0  0  0  0  0  2  0  0  0  0  0  0
  187.0400  177.9160  145.8310 C   0  0  0  0  0  2  0  0  0  0  0  0
  185.9330  178.7580  145.2240 C   0  0  0  0  0  1  0  0  0  0  0  0
  192.6880  176.0310  143.2470 S   0  0  0  0  0  0  0  0  0  0  0  0
  193.1560  176.9440  144.7480 C   0  0  2  0  0  3  0  0  0  0  0  0
  194.4760  176.4100  145.2770 C   0  0  0  0  0  1  0  0  0  0  0  0
  192.8600  176.4240  146.8760 C   0  0  0  0  0  1  0  0  0  0  0  0
  192.1660  176.7820  145.7180 O   0  0  0  0  0  0  0  0  0  0  0  0
  191.9000  171.6980  140.9720 C   0  0  0  0  0  2  0  0  0  0  0  0
  192.8340  170.0290  142.3960 O   0  0  0  0  0  1  0  0  0  0  0  0
  192.5000  171.3830  142.3310 C   0  0  1  0  0  3  0  0  0  0  0  0
  193.7260  172.2170  142.5410 C   0  0  0  0  0  3  0  0  0  0  0  0
  194.2590  172.4450  143.7470 C   0  0  0  0  0  3  0  0  0  0  0  0
  194.2790  170.7060  145.3450 F   0  0  0  0  0  0  0  0  0  0  0  0
  193.6790  171.9110  145.0200 C   0  0  0  0  0  2  0  0  0  0  0  0
  186.7740  176.3210  141.4250 C   0  0  0  0  0  2  0  0  0  0  0  0
  186.9310  177.6340  140.6830 C   0  0  0  0  0  2  0  0  0  0  0  0
  185.7250  178.3280  140.7070 O   0  0  0  0  0  1  0  0  0  0  0  0
  1  5  2  0  0  0  0
  2 10  1  0  0  0  0
  3  1  1  1  0  0  0
  3  6  1  0  0  0  0
  3 12  1  0  0  0  0
  4 15  2  0  0  0  0
  5  7  1  0  0  0  0
  6  2  1  6  0  0  0
  7 18  1  0  0  0  0
  8 11  1  0  0  0  0
  9 14  1  0  0  0  0
 10 14  1  0  0  0  0
 11  1  1  0  0  0  0
 12  7  2  0  0  0  0
 12 16  1  0  0  0  0
 13 28  1  6  0  0  0
 13  6  1  0  0  0  0
 14  4  2  0  0  0  0
 16 23  1  6  0  0  0
 16  9  1  0  0  0  0
 17  8  1  0  0  0  0
 17 13  1  0  0  0  0
 18 19  2  0  0  0  0
 18 20  1  0  0  0  0
 20 21  1  0  0  0  0
 22 21  1  0  0  0  0
 23 24  1  0  0  0  0
 24 25  1  1  0  0  0
 24 27  1  0  0  0  0
 27 26  1  0  0  0  0
 28 30  1  0  0  0  0
 30 29  1  6  0  0  0
 30 31  1  0  0  0  0
 31 32  2  0  0  0  0
 32 34  1  0  0  0  0
 34 33  1  0  0  0  0
 35  5  1  0  0  0  0
 36 37  1  0  0  0  0
 36 35  1  0  0  0  0
M  END
>  <MODEL>
7

>  <REMARK>
 VINA RESULT:      -5.8      2.123      5.578
  Name = 
  11 active torsions:
  status: ('A' for Active; 'I' for Inactive)
    1  A    between atoms: S_1  and  C_5
    2  A    between atoms: S_1  and  C_36
    3  A    between atoms: C_2  and  C_35
    4  A    between atoms: C_3  and  N_32
    5  A    between atoms: C_5  and  O_23
    6  A    between atoms: C_6  and  C_31
    7  A    between atoms: C_6  and  C_35
    8  A    between atoms: C_9  and  C_13
    9  A    between atoms: C_9  and  C_16
   10  A    between atoms: C_18  and  C_19
   11  A    between atoms: C_20  and  C_21
                            x       y       z     vdW  Elec       q    Type
                         _______ _______ _______ _____ _____    ______ ____

>  <TORSDO>
F 11

$$$$
=
 OpenBabel11052420083D

 37 39  0  0  1  0  0  0  0  0999 V2000
  189.5840  173.7980  144.8030 C   0  0  0  0  0  0  0  0  0  0  0  0
  191.8760  175.2780  143.3830 C   0  0  0  0  0  2  0  0  0  0  0  0
  189.4070  174.4740  143.4750 C   0  0  2  0  0  3  0  0  0  0  0  0
  191.2150  178.6430  143.4720 C   0  0  0  0  0  0  0  0  0  0  0  0
  189.2250  174.6100  145.7880 C   0  0  0  0  0  0  0  0  0  0  0  0
  190.7270  174.5520  142.6790 C   0  0  2  0  0  3  0  0  0  0  0  0
  188.8320  175.9050  145.2350 C   0  0  0  0  0  0  0  0  0  0  0  0
  191.1470  171.9550  144.1460 C   0  0  0  0  0  2  0  0  0  0  0  0
  189.8530  177.2350  142.1790 O   0  0  0  0  0  0  0  0  0  0  0  0
  192.2070  176.5840  142.6610 C   0  0  0  0  0  2  0  0  0  0  0  0
  189.9490  172.3570  144.9930 C   0  0  0  0  0  2  0  0  0  0  0  0
  188.9330  175.8370  143.9050 C   0  0  0  0  0  0  0  0  0  0  0  0
  191.1900  173.2620  141.9830 C   0  0  1  0  0  3  0  0  0  0  0  0
  191.0740  177.5500  142.7750 C   0  0  0  0  0  0  0  0  0  0  0  0
  191.3480  179.6750  144.1400 O   0  0  0  0  0  0  0  0  0  0  0  0
  188.6880  176.9810  142.9610 C   0  0  2  0  0  3  0  0  0  0  0  0
  190.7670  171.9670  142.6730 C   0  0  0  0  0  2  0  0  0  0  0  0
  188.4210  177.0850  146.0330 C   0  0  0  0  0  0  0  0  0  0  0  0
  189.2570  177.9980  146.2710 O   0  0  0  0  0  0  0  0  0  0  0  0
  187.0810  177.2090  146.5220 N   0  0  0  0  0  2  0  0  0  0  0  0
  186.6080  178.3760  147.2530 C   0  0  0  0  0  2  0  0  0  0  0  0
  185.0930  178.4470  147.1960 C   0  0  0  0  0  1  0  0  0  0  0  0
  187.2860  176.5980  141.8660 S   0  0  0  0  0  0  0  0  0  0  0  0
  186.2960  177.9870  142.4960 C   0  0  2  0  0  3  0  0  0  0  0  0
  185.2340  177.4640  143.4470 C   0  0  0  0  0  1  0  0  0  0  0  0
  185.8580  177.7860  140.3390 C   0  0  0  0  0  1  0  0  0  0  0  0
  185.6830  178.6420  141.4270 O   0  0  0  0  0  0  0  0  0  0  0  0
  190.6910  173.2460  140.5460 C   0  0  0  0  0  2  0  0  0  0  0  0
  188.3410  172.8440  140.4850 O   0  0  0  0  0  1  0  0  0  0  0  0
  189.5840  172.2190  140.3720 C   0  0  1  0  0  3  0  0  0  0  0  0
  189.7070  171.5760  139.0250 C   0  0  0  0  0  3  0  0  0  0  0  0
  190.2570  170.3710  138.8360 C   0  0  0  0  0  3  0  0  0  0  0  0
  192.0970  169.9900  140.2670 F   0  0  0  0  0  0  0  0  0  0  0  0
  190.8280  169.5420  139.9450 C   0  0  0  0  0  2  0  0  0  0  0  0
  189.2910  174.2650  147.2430 C   0  0  0  0  0  2  0  0  0  0  0  0
  190.3710  175.0870  147.9180 C   0  0  0  0  0  2  0  0  0  0  0  0
  191.5450  175.0100  147.1740 O   0  0  0  0  0  1  0  0  0  0  0  0
  1 11  1  0  0  0  0
  1  5  2  0  0  0  0
  3 12  1  1  0  0  0
  3  1  1  0  0  0  0
  4 15  2  0  0  0  0
  5 35  1  0  0  0  0
  6  2  1  1  0  0  0
  6  3  1  0  0  0  0
  7  5  1  0  0  0  0
  7 18  1  0  0  0  0
  8 11  1  0  0  0  0
  9 14  1  0  0  0  0
  9 16  1  0  0  0  0
 10 14  1  0  0  0  0
 10  2  1  0  0  0  0
 12  7  2  0  0  0  0
 13 28  1  6  0  0  0
 13 17  1  0  0  0  0
 13  6  1  0  0  0  0
 14  4  2  0  0  0  0
 16 23  1  6  0  0  0
 16 12  1  0  0  0  0
 17  8  1  0  0  0  0
 18 19  2  0  0  0  0
 18 20  1  0  0  0  0
 20 21  1  0  0  0  0
 22 21  1  0  0  0  0
 23 24  1  0  0  0  0
 24 25  1  1  0  0  0
 26 27  1  0  0  0  0
 27 24  1  0  0  0  0
 30 29  1  6  0  0  0
 30 28  1  0  0  0  0
 31 30  1  0  0  0  0
 32 31  2  0  0  0  0
 32 34  1  0  0  0  0
 34 33  1  0  0  0  0
 35 36  1  0  0  0  0
 37 36  1  0  0  0  0
M  END
>  <MODEL>
8

>  <REMARK>
 VINA RESULT:      -5.8      2.708      4.446
  Name = 
  11 active torsions:
  status: ('A' for Active; 'I' for Inactive)
    1  A    between atoms: S_1  and  C_5
    2  A    between atoms: S_1  and  C_36
    3  A    between atoms: C_2  and  C_35
    4  A    between atoms: C_3  and  N_32
    5  A    between atoms: C_5  and  O_23
    6  A    between atoms: C_6  and  C_31
    7  A    between atoms: C_6  and  C_35
    8  A    between atoms: C_9  and  C_13
    9  A    between atoms: C_9  and  C_16
   10  A    between atoms: C_18  and  C_19
   11  A    between atoms: C_20  and  C_21
                            x       y       z     vdW  Elec       q    Type
                         _______ _______ _______ _____ _____    ______ ____

>  <TORSDO>
F 11

$$$$
=
 OpenBabel11052420083D

 37 39  0  0  1  0  0  0  0  0999 V2000
  191.3410  176.3830  143.0220 C   0  0  0  0  0  0  0  0  0  0  0  0
  190.2180  174.1080  144.7630 C   0  0  0  0  0  2  0  0  0  0  0  0
  190.0850  175.6420  142.6690 C   0  0  2  0  0  3  0  0  0  0  0  0
  190.6310  171.1490  143.0780 C   0  0  0  0  0  0  0  0  0  0  0  0
  192.3860  175.8460  142.4080 C   0  0  0  0  0  0  0  0  0  0  0  0
  189.3780  175.0650  143.9140 C   0  0  2  0  0  3  0  0  0  0  0  0
  191.9530  174.6790  141.6390 C   0  0  0  0  0  0  0  0  0  0  0  0
  190.5790  177.5600  145.0980 C   0  0  0  0  0  2  0  0  0  0  0  0
  189.1200  172.7440  142.2520 O   0  0  0  0  0  0  0  0  0  0  0  0
  189.6610  172.6880  144.6820 C   0  0  0  0  0  2  0  0  0  0  0  0
  191.3960  177.6520  143.8170 C   0  0  0  0  0  2  0  0  0  0  0  0
  190.6310  174.5530  141.7830 C   0  0  0  0  0  0  0  0  0  0  0  0
  188.5740  176.0560  144.7720 C   0  0  1  0  0  3  0  0  0  0  0  0
  189.8140  172.1400  143.3010 C   0  0  0  0  0  0  0  0  0  0  0  0
  191.4120  170.2140  142.8680 O   0  0  0  0  0  0  0  0  0  0  0  0
  189.8030  173.4370  141.2110 C   0  0  2  0  0  3  0  0  0  0  0  0
  189.0970  177.4910  144.7630 C   0  0  0  0  0  2  0  0  0  0  0  0
  192.8490  173.7880  140.8640 C   0  0  0  0  0  0  0  0  0  0  0  0
  193.0690  174.0300  139.6470 O   0  0  0  0  0  0  0  0  0  0  0  0
  193.4820  172.6640  141.4860 N   0  0  0  0  0  2  0  0  0  0  0  0
  194.4220  171.7980  140.7880 C   0  0  0  0  0  2  0  0  0  0  0  0
  193.6910  170.6050  140.2000 C   0  0  0  0  0  1  0  0  0  0  0  0
  188.5960  174.1010  140.0220 S   0  0  0  0  0  0  0  0  0  0  0  0
  189.2260  173.0660  138.6660 C   0  0  2  0  0  3  0  0  0  0  0  0
  189.9710  171.8740  139.2400 C   0  0  0  0  0  1  0  0  0  0  0  0
  189.3340  174.1670  136.7520 C   0  0  0  0  0  1  0  0  0  0  0  0
  190.0920  173.8180  137.8710 O   0  0  0  0  0  0  0  0  0  0  0  0
  187.1180  176.0540  144.3320 C   0  0  0  0  0  2  0  0  0  0  0  0
  185.5610  177.8150  143.9330 O   0  0  0  0  0  1  0  0  0  0  0  0
  186.3790  177.2480  144.9110 C   0  0  1  0  0  3  0  0  0  0  0  0
  185.5450  176.8030  146.0730 C   0  0  0  0  0  3  0  0  0  0  0  0
  185.5370  177.4330  147.2530 C   0  0  0  0  0  3  0  0  0  0  0  0
  187.7080  178.2780  147.6430 F   0  0  0  0  0  0  0  0  0  0  0  0
  186.3750  178.6390  147.5500 C   0  0  0  0  0  2  0  0  0  0  0  0
  193.7970  176.3240  142.5500 C   0  0  0  0  0  2  0  0  0  0  0  0
  194.4700  175.6050  143.7020 C   0  0  0  0  0  2  0  0  0  0  0  0
  194.6460  176.4900  144.7620 O   0  0  0  0  0  1  0  0  0  0  0  0
  1 11  1  0  0  0  0
  3 12  1  6  0  0  0
  3  1  1  0  0  0  0
  3  6  1  0  0  0  0
  4 14  2  0  0  0  0
  5 35  1  0  0  0  0
  5  1  2  0  0  0  0
  6  2  1  1  0  0  0
  6 13  1  0  0  0  0
  7 12  2  0  0  0  0
  7  5  1  0  0  0  0
  9 14  1  0  0  0  0
 10  2  1  0  0  0  0
 11  8  1  0  0  0  0
 13 28  1  6  0  0  0
 14 10  1  0  0  0  0
 15  4  2  0  0  0  0
 16 23  1  6  0  0  0
 16 12  1  0  0  0  0
 16  9  1  0  0  0  0
 17 13  1  0  0  0  0
 17  8  1  0  0  0  0
 18 20  1  0  0  0  0
 18  7  1  0  0  0  0
 19 18  2  0  0  0  0
 21 20  1  0  0  0  0
 22 21  1  0  0  0  0
 24 25  1  1  0  0  0
 24 23  1  0  0  0  0
 26 27  1  0  0  0  0
 27 24  1  0  0  0  0
 28 30  1  0  0  0  0
 30 29  1  6  0  0  0
 30 31  1  0  0  0  0
 31 32  2  0  0  0  0
 32 34  1  0  0  0  0
 34 33  1  0  0  0  0
 35 36  1  0  0  0  0
 36 37  1  0  0  0  0
M  END
>  <MODEL>
9

>  <REMARK>
 VINA RESULT:      -5.7      3.184      6.807
  Name = 
  11 active torsions:
  status: ('A' for Active; 'I' for Inactive)
    1  A    between atoms: S_1  and  C_5
    2  A    between atoms: S_1  and  C_36
    3  A    between atoms: C_2  and  C_35
    4  A    between atoms: C_3  and  N_32
    5  A    between atoms: C_5  and  O_23
    6  A    between atoms: C_6  and  C_31
    7  A    between atoms: C_6  and  C_35
    8  A    between atoms: C_9  and  C_13
    9  A    between atoms: C_9  and  C_16
   10  A    between atoms: C_18  and  C_19
   11  A    between atoms: C_20  and  C_21
                            x       y       z     vdW  Elec       q    Type
                         _______ _______ _______ _____ _____    ______ ____

>  <TORSDO>
F 11

$$$$
