=
 OpenBabel11052420283D

 34 37  0  0  1  0  0  0  0  0999 V2000
  191.9130  175.9860  144.2710 C   0  0  2  0  0  3  0  0  0  0  0  0
  189.9160  175.2390  147.4210 C   0  0  0  0  0  3  0  0  0  0  0  0
  192.3330  175.2060  147.0930 C   0  0  0  0  0  2  0  0  0  0  0  0
  194.2810  175.1960  144.0470 C   0  0  0  0  0  0  0  0  0  0  0  0
  194.4490  176.0170  142.8050 C   0  0  0  0  0  1  0  0  0  0  0  0
  193.0290  174.3900  146.0210 C   0  0  0  0  0  2  0  0  0  0  0  0
  193.1260  175.1980  144.7540 C   0  0  0  0  0  0  0  0  0  0  0  0
  195.4750  174.4130  144.5020 C   0  0  0  0  0  1  0  0  0  0  0  0
  188.5020  175.4210  146.9460 C   0  0  0  0  0  2  0  0  0  0  0  0
  188.1130  176.8550  146.6720 C   0  0  0  0  0  0  0  0  0  0  0  0
  188.8450  177.7060  145.9240 C   0  0  0  0  0  3  0  0  0  0  0  0
  190.9510  175.5030  146.6220 C   0  0  0  0  0  0  0  0  0  0  0  0
  190.2370  177.5160  145.3570 C   0  0  0  0  0  2  0  0  0  0  0  0
  190.7130  176.0670  145.2420 C   0  0  1  0  0  3  0  0  0  0  0  0
  186.7840  177.2820  147.1520 C   0  0  0  0  0  0  0  0  0  0  0  0
  186.6670  178.3920  147.9830 O   0  0  0  0  0  1  0  0  0  0  0  0
  185.7480  176.6580  146.8220 O   0  0  0  0  0  0  0  0  0  0  0  0
  190.7760  174.2000  142.8880 C   0  0  0  0  0  0  0  0  0  0  0  0
  191.4510  175.4570  142.9960 N   0  0  0  0  0  2  0  0  0  0  0  0
  190.5170  173.5210  143.9120 O   0  0  0  0  0  0  0  0  0  0  0  0
  190.4080  173.6760  141.5480 C   0  0  0  0  0  2  0  0  0  0  0  0
  189.2820  172.8540  141.6530 O   0  0  0  0  0  0  0  0  0  0  0  0
  187.2090  173.8940  142.2340 C   0  0  0  0  0  2  0  0  0  0  0  0
  188.7620  174.9980  140.7290 C   0  0  0  0  0  2  0  0  0  0  0  0
  186.6660  177.5360  143.3430 C   0  0  1  0  0  3  0  0  0  0  0  0
  186.2230  176.0870  143.0700 C   0  0  0  0  0  2  0  0  0  0  0  0
  187.4280  175.3540  142.5250 C   0  0  2  0  0  3  0  0  0  0  0  0
  188.4540  177.2240  141.5640 C   0  0  0  0  0  2  0  0  0  0  0  0
  187.8140  175.9510  141.2640 N   0  0  1  0  0  0  0  0  0  0  0  0
  187.3940  178.1710  142.1390 C   0  0  0  0  0  2  0  0  0  0  0  0
  188.2340  173.6190  141.1400 C   0  0  1  0  0  3  0  0  0  0  0  0
  185.4990  178.3790  143.7520 C   0  0  0  0  0  0  0  0  0  0  0  0
  184.3310  178.0890  143.3740 O   0  0  0  0  0  0  0  0  0  0  0  0
  185.7030  179.4850  144.5640 O   0  0  0  0  0  1  0  0  0  0  0  0
  1 19  1  6  0  0  0
  1  7  1  0  0  0  0
  1 14  1  0  0  0  0
  4  8  1  0  0  0  0
  4  7  2  0  0  0  0
  5  4  1  0  0  0  0
  6  3  1  0  0  0  0
  7  6  1  0  0  0  0
  9  2  1  0  0  0  0
 10  9  1  0  0  0  0
 10 15  1  0  0  0  0
 11 10  2  0  0  0  0
 12  3  1  0  0  0  0
 12  2  2  0  0  0  0
 13 11  1  0  0  0  0
 14 13  1  1  0  0  0
 14 12  1  0  0  0  0
 15 16  1  0  0  0  0
 17 15  2  0  0  0  0
 18 19  1  0  0  0  0
 18 20  2  0  0  0  0
 21 22  1  0  0  0  0
 21 18  1  0  0  0  0
 24 31  1  0  0  0  0
 25 32  1  6  0  0  0
 26 25  1  0  0  0  0
 27 23  1  6  0  0  0
 27 26  1  0  0  0  0
 28 30  1  0  0  0  0
 29 24  1  1  0  0  0
 29 28  1  0  0  0  0
 29 27  1  0  0  0  0
 30 25  1  0  0  0  0
 31 22  1  1  0  0  0
 31 23  1  0  0  0  0
 32 34  1  0  0  0  0
 33 32  2  0  0  0  0
M  END
>  <MODEL>
1

>  <REMARK>
 VINA RESULT:      -7.8      0.000      0.000
  Name = 
  6 active torsions:
  status: ('A' for Active; 'I' for Inactive)
    1  A    between atoms: C_1  and  N_9
    2  A    between atoms: C_3  and  C_25
    3  A    between atoms: C_7  and  C_11
    4  A    between atoms: C_8  and  C_18
    5  A    between atoms: C_18  and  O_30
    6  A    between atoms: O_30  and  C_31
                            x       y       z     vdW  Elec       q    Type
                         _______ _______ _______ _____ _____    ______ ____

>  <TORSDO>
F 6

$$$$
=
 OpenBabel11052420283D

 34 37  0  0  1  0  0  0  0  0999 V2000
  192.3610  174.7080  144.1910 C   0  0  2  0  0  3  0  0  0  0  0  0
  195.7560  176.3800  143.7950 C   0  0  0  0  0  3  0  0  0  0  0  0
  194.4780  175.9640  145.8310 C   0  0  0  0  0  2  0  0  0  0  0  0
  191.0070  175.0550  146.2710 C   0  0  0  0  0  0  0  0  0  0  0  0
  190.0510  173.9840  145.8400 C   0  0  0  0  0  1  0  0  0  0  0  0
  193.0500  176.4280  146.0420 C   0  0  0  0  0  2  0  0  0  0  0  0
  192.0980  175.3760  145.5370 C   0  0  0  0  0  0  0  0  0  0  0  0
  190.7280  175.7150  147.5880 C   0  0  0  0  0  1  0  0  0  0  0  0
  195.9570  176.3310  142.3070 C   0  0  0  0  0  2  0  0  0  0  0  0
  196.2310  174.9500  141.7560 C   0  0  0  0  0  0  0  0  0  0  0  0
  195.4880  173.8620  142.0440 C   0  0  0  0  0  3  0  0  0  0  0  0
  194.6990  175.8000  144.3670 C   0  0  0  0  0  0  0  0  0  0  0  0
  194.3770  173.7120  143.0630 C   0  0  0  0  0  2  0  0  0  0  0  0
  193.7220  175.0150  143.5260 C   0  0  1  0  0  3  0  0  0  0  0  0
  197.2980  174.8430  140.7430 C   0  0  0  0  0  0  0  0  0  0  0  0
  197.6060  175.9340  139.9360 O   0  0  0  0  0  0  0  0  0  0  0  0
  197.9410  173.7770  140.5930 O   0  0  0  0  0  1  0  0  0  0  0  0
  190.6780  174.0520  142.4210 C   0  0  0  0  0  0  0  0  0  0  0  0
  191.2960  175.0370  143.2550 N   0  0  0  0  0  2  0  0  0  0  0  0
  191.0100  172.8440  142.5020 O   0  0  0  0  0  0  0  0  0  0  0  0
  189.6590  174.4680  141.4250 C   0  0  0  0  0  2  0  0  0  0  0  0
  189.2950  175.8000  141.6460 O   0  0  0  0  0  0  0  0  0  0  0  0
  187.8020  175.7200  143.5110 C   0  0  0  0  0  2  0  0  0  0  0  0
  187.2510  177.0390  141.5490 C   0  0  0  0  0  2  0  0  0  0  0  0
  186.0640  178.6930  145.2260 C   0  0  1  0  0  3  0  0  0  0  0  0
  186.4570  177.2120  145.0770 C   0  0  0  0  0  2  0  0  0  0  0  0
  187.2790  177.0990  143.8130 C   0  0  2  0  0  3  0  0  0  0  0  0
  186.2930  178.9080  142.7040 C   0  0  0  0  0  2  0  0  0  0  0  0
  186.4540  177.4610  142.6790 N   0  0  1  0  0  0  0  0  0  0  0  0
  185.4550  179.2770  143.9330 C   0  0  0  0  0  2  0  0  0  0  0  0
  187.9450  175.7470  141.9950 C   0  0  1  0  0  3  0  0  0  0  0  0
  185.1250  178.8790  146.3760 C   0  0  0  0  0  0  0  0  0  0  0  0
  185.5390  179.3290  147.4800 O   0  0  0  0  0  1  0  0  0  0  0  0
  183.7830  178.5640  146.2230 O   0  0  0  0  0  0  0  0  0  0  0  0
  1 19  1  6  0  0  0
  1  7  1  0  0  0  0
  2 12  2  0  0  0  0
  3  6  1  0  0  0  0
  4  8  1  0  0  0  0
  5  4  1  0  0  0  0
  7  6  1  0  0  0  0
  7  4  2  0  0  0  0
  9  2  1  0  0  0  0
 10 11  2  0  0  0  0
 10  9  1  0  0  0  0
 11 13  1  0  0  0  0
 12  3  1  0  0  0  0
 14 13  1  1  0  0  0
 14  1  1  0  0  0  0
 14 12  1  0  0  0  0
 15 10  1  0  0  0  0
 16 15  2  0  0  0  0
 17 15  1  0  0  0  0
 18 20  2  0  0  0  0
 18 19  1  0  0  0  0
 21 22  1  0  0  0  0
 21 18  1  0  0  0  0
 24 31  1  0  0  0  0
 25 32  1  1  0  0  0
 26 25  1  0  0  0  0
 27 23  1  6  0  0  0
 27 26  1  0  0  0  0
 28 30  1  0  0  0  0
 29 24  1  6  0  0  0
 29 28  1  0  0  0  0
 29 27  1  0  0  0  0
 30 25  1  0  0  0  0
 31 22  1  1  0  0  0
 31 23  1  0  0  0  0
 32 33  1  0  0  0  0
 34 32  2  0  0  0  0
M  END
>  <MODEL>
2

>  <REMARK>
 VINA RESULT:      -7.5      2.632      5.707
  Name = 
  6 active torsions:
  status: ('A' for Active; 'I' for Inactive)
    1  A    between atoms: C_1  and  N_9
    2  A    between atoms: C_3  and  C_25
    3  A    between atoms: C_7  and  C_11
    4  A    between atoms: C_8  and  C_18
    5  A    between atoms: C_18  and  O_30
    6  A    between atoms: O_30  and  C_31
                            x       y       z     vdW  Elec       q    Type
                         _______ _______ _______ _____ _____    ______ ____

>  <TORSDO>
F 6

$$$$
=
 OpenBabel11052420283D

 34 37  0  0  1  0  0  0  0  0999 V2000
  192.0260  174.1650  145.6400 C   0  0  2  0  0  3  0  0  0  0  0  0
  195.6580  175.0960  144.9920 C   0  0  0  0  0  3  0  0  0  0  0  0
  194.0930  176.0500  146.6020 C   0  0  0  0  0  2  0  0  0  0  0  0
  190.4960  175.7560  146.8260 C   0  0  0  0  0  0  0  0  0  0  0  0
  189.4490  174.6900  146.9300 C   0  0  0  0  0  1  0  0  0  0  0  0
  192.7370  176.6160  146.2290 C   0  0  0  0  0  2  0  0  0  0  0  0
  191.7050  175.5190  146.2640 C   0  0  0  0  0  0  0  0  0  0  0  0
  190.1620  177.0870  147.4290 C   0  0  0  0  0  1  0  0  0  0  0  0
  196.0290  174.1530  143.8820 C   0  0  0  0  0  2  0  0  0  0  0  0
  196.1560  172.7080  144.3040 C   0  0  0  0  0  0  0  0  0  0  0  0
  195.2270  172.0480  145.0270 C   0  0  0  0  0  3  0  0  0  0  0  0
  194.4630  175.0280  145.5830 C   0  0  0  0  0  0  0  0  0  0  0  0
  193.9900  172.5940  145.7090 C   0  0  0  0  0  2  0  0  0  0  0  0
  193.4890  173.9430  145.1920 C   0  0  1  0  0  3  0  0  0  0  0  0
  197.3100  171.9610  143.7670 C   0  0  0  0  0  0  0  0  0  0  0  0
  197.7200  172.1620  142.4520 O   0  0  0  0  0  0  0  0  0  0  0  0
  197.9360  171.1410  144.4790 O   0  0  0  0  0  1  0  0  0  0  0  0
  191.1800  174.7140  143.3200 C   0  0  0  0  0  0  0  0  0  0  0  0
  191.1450  173.9170  144.5080 N   0  0  0  0  0  2  0  0  0  0  0  0
  192.0160  175.6430  143.1960 O   0  0  0  0  0  0  0  0  0  0  0  0
  190.1950  174.4630  142.2380 C   0  0  0  0  0  2  0  0  0  0  0  0
  189.6590  175.6760  141.7940 O   0  0  0  0  0  0  0  0  0  0  0  0
  188.0850  175.6920  143.5940 C   0  0  0  0  0  2  0  0  0  0  0  0
  187.5720  176.8080  141.5000 C   0  0  0  0  0  2  0  0  0  0  0  0
  186.1480  178.7200  144.9610 C   0  0  1  0  0  3  0  0  0  0  0  0
  186.6080  177.2510  144.9620 C   0  0  0  0  0  2  0  0  0  0  0  0
  187.4920  177.0660  143.7490 C   0  0  2  0  0  3  0  0  0  0  0  0
  186.4850  178.7250  142.4420 C   0  0  0  0  0  2  0  0  0  0  0  0
  186.7070  177.2900  142.5530 N   0  0  1  0  0  0  0  0  0  0  0  0
  185.5750  179.1620  143.5970 C   0  0  0  0  0  2  0  0  0  0  0  0
  188.2980  175.5930  142.0890 C   0  0  1  0  0  3  0  0  0  0  0  0
  185.1490  178.9630  146.0490 C   0  0  0  0  0  0  0  0  0  0  0  0
  185.5250  179.2830  147.2090 O   0  0  0  0  0  1  0  0  0  0  0  0
  183.7950  178.8460  145.7750 O   0  0  0  0  0  0  0  0  0  0  0  0
  1 19  1  6  0  0  0
  1  7  1  0  0  0  0
  2 12  2  0  0  0  0
  4  5  1  0  0  0  0
  4  8  1  0  0  0  0
  6  7  1  0  0  0  0
  6  3  1  0  0  0  0
  7  4  2  0  0  0  0
  9 10  1  0  0  0  0
  9  2  1  0  0  0  0
 10 11  2  0  0  0  0
 11 13  1  0  0  0  0
 12  3  1  0  0  0  0
 14 12  1  0  0  0  0
 14  1  1  0  0  0  0
 14 13  1  1  0  0  0
 15 10  1  0  0  0  0
 15 17  1  0  0  0  0
 16 15  2  0  0  0  0
 18 19  1  0  0  0  0
 20 18  2  0  0  0  0
 21 18  1  0  0  0  0
 22 21  1  0  0  0  0
 24 31  1  0  0  0  0
 25 26  1  0  0  0  0
 25 32  1  1  0  0  0
 27 23  1  6  0  0  0
 27 26  1  0  0  0  0
 28 29  1  0  0  0  0
 28 30  1  0  0  0  0
 29 24  1  6  0  0  0
 29 27  1  0  0  0  0
 30 25  1  0  0  0  0
 31 22  1  1  0  0  0
 31 23  1  0  0  0  0
 32 33  1  0  0  0  0
 34 32  2  0  0  0  0
M  END
>  <MODEL>
3

>  <REMARK>
 VINA RESULT:      -7.5      2.487      5.651
  Name = 
  6 active torsions:
  status: ('A' for Active; 'I' for Inactive)
    1  A    between atoms: C_1  and  N_9
    2  A    between atoms: C_3  and  C_25
    3  A    between atoms: C_7  and  C_11
    4  A    between atoms: C_8  and  C_18
    5  A    between atoms: C_18  and  O_30
    6  A    between atoms: O_30  and  C_31
                            x       y       z     vdW  Elec       q    Type
                         _______ _______ _______ _____ _____    ______ ____

>  <TORSDO>
F 6

$$$$
=
 OpenBabel11052420283D

 34 37  0  0  1  0  0  0  0  0999 V2000
  189.3590  173.8260  141.8350 C   0  0  2  0  0  3  0  0  0  0  0  0
  187.3610  176.4080  139.8820 C   0  0  0  0  0  3  0  0  0  0  0  0
  188.1670  174.2220  139.1580 C   0  0  0  0  0  2  0  0  0  0  0  0
  190.6280  172.0270  140.6390 C   0  0  0  0  0  0  0  0  0  0  0  0
  190.8920  171.3320  141.9400 C   0  0  0  0  0  1  0  0  0  0  0  0
  189.6180  173.7900  139.2300 C   0  0  0  0  0  2  0  0  0  0  0  0
  189.8920  173.1610  140.5710 C   0  0  0  0  0  0  0  0  0  0  0  0
  191.1710  171.3710  139.4050 C   0  0  0  0  0  1  0  0  0  0  0  0
  187.2110  177.5140  140.8880 C   0  0  0  0  0  2  0  0  0  0  0  0
  186.2700  177.2000  142.0280 C   0  0  0  0  0  0  0  0  0  0  0  0
  186.3220  176.0680  142.7590 C   0  0  0  0  0  3  0  0  0  0  0  0
  187.9380  175.2510  140.2110 C   0  0  0  0  0  0  0  0  0  0  0  0
  187.1570  174.8250  142.5280 C   0  0  0  0  0  2  0  0  0  0  0  0
  188.3830  175.0080  141.6330 C   0  0  1  0  0  3  0  0  0  0  0  0
  185.3380  178.2720  142.4290 C   0  0  0  0  0  0  0  0  0  0  0  0
  185.8170  179.4100  143.0690 O   0  0  0  0  0  1  0  0  0  0  0  0
  184.1090  178.1750  142.2010 O   0  0  0  0  0  0  0  0  0  0  0  0
  190.5540  173.9510  144.0610 C   0  0  0  0  0  0  0  0  0  0  0  0
  190.4670  174.2700  142.6700 N   0  0  0  0  0  2  0  0  0  0  0  0
  189.6850  173.2280  144.6090 O   0  0  0  0  0  0  0  0  0  0  0  0
  191.6630  174.5080  144.8750 C   0  0  0  0  0  2  0  0  0  0  0  0
  192.0140  175.7740  144.3950 O   0  0  0  0  0  0  0  0  0  0  0  0
  190.4040  177.5180  144.6830 C   0  0  0  0  0  2  0  0  0  0  0  0
  190.7790  175.8860  146.4410 C   0  0  0  0  0  2  0  0  0  0  0  0
  186.8010  177.1640  145.9820 C   0  0  1  0  0  3  0  0  0  0  0  0
  187.9890  177.9330  145.3750 C   0  0  0  0  0  2  0  0  0  0  0  0
  189.1480  176.9640  145.2980 C   0  0  2  0  0  3  0  0  0  0  0  0
  188.4910  175.6340  147.1060 C   0  0  0  0  0  2  0  0  0  0  0  0
  189.5140  176.5570  146.6380 N   0  0  1  0  0  0  0  0  0  0  0  0
  187.1810  176.4130  147.2760 C   0  0  0  0  0  2  0  0  0  0  0  0
  191.4900  176.6670  145.3300 C   0  0  1  0  0  3  0  0  0  0  0  0
  185.6470  178.0830  146.2310 C   0  0  0  0  0  0  0  0  0  0  0  0
  184.4990  177.8120  145.7840 O   0  0  0  0  0  0  0  0  0  0  0  0
  185.8400  179.2400  146.9710 O   0  0  0  0  0  1  0  0  0  0  0  0
  1 19  1  6  0  0  0
  2 12  2  0  0  0  0
  2  9  1  0  0  0  0
  3  6  1  0  0  0  0
  3 12  1  0  0  0  0
  4  5  1  0  0  0  0
  6  7  1  0  0  0  0
  7  4  2  0  0  0  0
  7  1  1  0  0  0  0
  8  4  1  0  0  0  0
  9 10  1  0  0  0  0
 10 15  1  0  0  0  0
 10 11  2  0  0  0  0
 12 14  1  0  0  0  0
 13 11  1  0  0  0  0
 14  1  1  0  0  0  0
 14 13  1  1  0  0  0
 15 16  1  0  0  0  0
 17 15  2  0  0  0  0
 18 20  2  0  0  0  0
 18 21  1  0  0  0  0
 19 18  1  0  0  0  0
 22 21  1  0  0  0  0
 23 31  1  0  0  0  0
 25 32  1  1  0  0  0
 25 30  1  0  0  0  0
 26 25  1  0  0  0  0
 27 23  1  1  0  0  0
 27 26  1  0  0  0  0
 27 29  1  0  0  0  0
 28 30  1  0  0  0  0
 29 24  1  6  0  0  0
 29 28  1  0  0  0  0
 31 22  1  6  0  0  0
 31 24  1  0  0  0  0
 32 34  1  0  0  0  0
 33 32  2  0  0  0  0
M  END
>  <MODEL>
4

>  <REMARK>
 VINA RESULT:      -7.5      1.754      5.225
  Name = 
  6 active torsions:
  status: ('A' for Active; 'I' for Inactive)
    1  A    between atoms: C_1  and  N_9
    2  A    between atoms: C_3  and  C_25
    3  A    between atoms: C_7  and  C_11
    4  A    between atoms: C_8  and  C_18
    5  A    between atoms: C_18  and  O_30
    6  A    between atoms: O_30  and  C_31
                            x       y       z     vdW  Elec       q    Type
                         _______ _______ _______ _____ _____    ______ ____

>  <TORSDO>
F 6

$$$$
=
 OpenBabel11052420283D

 34 37  0  0  1  0  0  0  0  0999 V2000
  190.2520  176.1400  144.6090 C   0  0  2  0  0  3  0  0  0  0  0  0
  186.5660  176.9950  144.2130 C   0  0  0  0  0  3  0  0  0  0  0  0
  188.0140  177.3060  146.1520 C   0  0  0  0  0  2  0  0  0  0  0  0
  191.2690  175.9160  146.8880 C   0  0  0  0  0  0  0  0  0  0  0  0
  192.6380  175.8500  146.2830 C   0  0  0  0  0  1  0  0  0  0  0  0
  188.8130  176.1910  146.7970 C   0  0  0  0  0  2  0  0  0  0  0  0
  190.1600  176.0850  146.1300 C   0  0  0  0  0  0  0  0  0  0  0  0
  191.1910  175.8440  148.3830 C   0  0  0  0  0  1  0  0  0  0  0  0
  186.2890  176.5430  142.8080 C   0  0  0  0  0  2  0  0  0  0  0  0
  186.9180  177.4040  141.7370 C   0  0  0  0  0  0  0  0  0  0  0  0
  188.2140  177.7780  141.7340 C   0  0  0  0  0  3  0  0  0  0  0  0
  187.7990  176.9520  144.7210 C   0  0  0  0  0  0  0  0  0  0  0  0
  189.2560  177.6000  142.8180 C   0  0  0  0  0  2  0  0  0  0  0  0
  188.9560  176.5160  143.8540 C   0  0  1  0  0  3  0  0  0  0  0  0
  186.0750  177.7270  140.5690 C   0  0  0  0  0  0  0  0  0  0  0  0
  184.7980  178.2490  140.7540 O   0  0  0  0  0  1  0  0  0  0  0  0
  186.4910  177.5400  139.4010 O   0  0  0  0  0  0  0  0  0  0  0  0
  191.7350  174.7950  143.0630 C   0  0  0  0  0  0  0  0  0  0  0  0
  190.7440  174.8710  144.0930 N   0  0  0  0  0  2  0  0  0  0  0  0
  192.2530  175.8380  142.5940 O   0  0  0  0  0  0  0  0  0  0  0  0
  192.1290  173.4710  142.5200 C   0  0  0  0  0  2  0  0  0  0  0  0
  193.5150  173.3110  142.6200 O   0  0  0  0  0  0  0  0  0  0  0  0
  193.3110  171.9650  144.5850 C   0  0  0  0  0  2  0  0  0  0  0  0
  195.2860  173.3310  144.2280 C   0  0  0  0  0  2  0  0  0  0  0  0
  195.9690  169.6220  146.0830 C   0  0  1  0  0  3  0  0  0  0  0  0
  194.5660  170.2500  145.9880 C   0  0  0  0  0  2  0  0  0  0  0  0
  194.6130  171.2660  144.8690 C   0  0  2  0  0  3  0  0  0  0  0  0
  196.8910  171.7610  145.0670 C   0  0  0  0  0  2  0  0  0  0  0  0
  195.5520  172.3110  145.2180 N   0  0  1  0  0  0  0  0  0  0  0  0
  197.0910  170.6810  146.1370 C   0  0  0  0  0  2  0  0  0  0  0  0
  193.7720  173.2900  143.9910 C   0  0  1  0  0  3  0  0  0  0  0  0
  196.0600  168.7040  147.2610 C   0  0  0  0  0  0  0  0  0  0  0  0
  197.1800  168.3550  147.7220 O   0  0  0  0  0  0  0  0  0  0  0  0
  194.8970  168.2410  147.8600 O   0  0  0  0  0  1  0  0  0  0  0  0
  1 19  1  6  0  0  0
  1  7  1  0  0  0  0
  2 12  2  0  0  0  0
  3  6  1  0  0  0  0
  4  8  1  0  0  0  0
  5  4  1  0  0  0  0
  7  6  1  0  0  0  0
  7  4  2  0  0  0  0
  9  2  1  0  0  0  0
 10  9  1  0  0  0  0
 11 10  2  0  0  0  0
 11 13  1  0  0  0  0
 12  3  1  0  0  0  0
 14 13  1  6  0  0  0
 14  1  1  0  0  0  0
 14 12  1  0  0  0  0
 15 16  1  0  0  0  0
 15 10  1  0  0  0  0
 17 15  2  0  0  0  0
 18 19  1  0  0  0  0
 20 18  2  0  0  0  0
 21 22  1  0  0  0  0
 21 18  1  0  0  0  0
 25 30  1  0  0  0  0
 25 32  1  1  0  0  0
 26 25  1  0  0  0  0
 27 23  1  1  0  0  0
 27 29  1  0  0  0  0
 27 26  1  0  0  0  0
 28 29  1  0  0  0  0
 28 30  1  0  0  0  0
 29 24  1  6  0  0  0
 31 22  1  6  0  0  0
 31 24  1  0  0  0  0
 31 23  1  0  0  0  0
 32 33  2  0  0  0  0
 32 34  1  0  0  0  0
M  END
>  <MODEL>
5

>  <REMARK>
 VINA RESULT:      -7.2      3.419      7.695
  Name = 
  6 active torsions:
  status: ('A' for Active; 'I' for Inactive)
    1  A    between atoms: C_1  and  N_9
    2  A    between atoms: C_3  and  C_25
    3  A    between atoms: C_7  and  C_11
    4  A    between atoms: C_8  and  C_18
    5  A    between atoms: C_18  and  O_30
    6  A    between atoms: O_30  and  C_31
                            x       y       z     vdW  Elec       q    Type
                         _______ _______ _______ _____ _____    ______ ____

>  <TORSDO>
F 6

$$$$
=
 OpenBabel11052420283D

 34 37  0  0  1  0  0  0  0  0999 V2000
  189.8310  176.0310  144.6020 C   0  0  2  0  0  3  0  0  0  0  0  0
  187.3990  177.5190  147.1220 C   0  0  0  0  0  3  0  0  0  0  0  0
  189.8360  177.4330  147.2070 C   0  0  0  0  0  2  0  0  0  0  0  0
  192.1770  175.4660  145.2780 C   0  0  0  0  0  0  0  0  0  0  0  0
  192.5410  175.2190  143.8460 C   0  0  0  0  0  1  0  0  0  0  0  0
  190.6410  176.1540  147.0890 C   0  0  0  0  0  2  0  0  0  0  0  0
  190.9380  175.8750  145.6400 C   0  0  0  0  0  0  0  0  0  0  0  0
  193.2690  175.2930  146.2890 C   0  0  0  0  0  1  0  0  0  0  0  0
  186.0700  177.2280  146.4840 C   0  0  0  0  0  2  0  0  0  0  0  0
  185.7740  178.0510  145.2510 C   0  0  0  0  0  0  0  0  0  0  0  0
  186.6310  178.2030  144.2200 C   0  0  0  0  0  3  0  0  0  0  0  0
  188.5420  177.2310  146.4960 C   0  0  0  0  0  0  0  0  0  0  0  0
  188.0780  177.7700  144.1170 C   0  0  0  0  0  2  0  0  0  0  0  0
  188.5140  176.6760  145.0930 C   0  0  1  0  0  3  0  0  0  0  0  0
  184.4080  178.6000  145.1360 C   0  0  0  0  0  0  0  0  0  0  0  0
  183.9350  179.0390  143.9040 O   0  0  0  0  0  0  0  0  0  0  0  0
  183.6580  178.6790  146.1380 O   0  0  0  0  0  1  0  0  0  0  0  0
  189.2470  174.5930  142.6050 C   0  0  0  0  0  0  0  0  0  0  0  0
  189.5260  174.7410  144.0000 N   0  0  0  0  0  2  0  0  0  0  0  0
  189.2990  175.5820  141.8320 O   0  0  0  0  0  0  0  0  0  0  0  0
  188.8580  173.2640  142.0700 C   0  0  0  0  0  2  0  0  0  0  0  0
  189.4810  173.0480  140.8380 O   0  0  0  0  0  0  0  0  0  0  0  0
  191.7220  172.2250  140.7130 C   0  0  0  0  0  2  0  0  0  0  0  0
  190.2520  171.5260  142.5140 C   0  0  0  0  0  2  0  0  0  0  0  0
  194.2890  172.0300  143.5710 C   0  0  1  0  0  3  0  0  0  0  0  0
  193.8300  171.9080  142.1070 C   0  0  0  0  0  2  0  0  0  0  0  0
  192.3550  172.2440  142.0780 C   0  0  2  0  0  3  0  0  0  0  0  0
  191.8910  171.5480  144.2630 C   0  0  0  0  0  2  0  0  0  0  0  0
  191.6320  171.2630  142.8590 N   0  0  1  0  0  0  0  0  0  0  0  0
  193.3700  171.2620  144.5460 C   0  0  0  0  0  2  0  0  0  0  0  0
  190.2660  171.9100  141.0300 C   0  0  1  0  0  3  0  0  0  0  0  0
  195.7070  171.5750  143.7220 C   0  0  0  0  0  0  0  0  0  0  0  0
  195.9760  170.4780  144.2830 O   0  0  0  0  0  1  0  0  0  0  0  0
  196.7350  172.3630  143.2270 O   0  0  0  0  0  0  0  0  0  0  0  0
  1 19  1  1  0  0  0
  1 14  1  0  0  0  0
  1  7  1  0  0  0  0
  4  7  2  0  0  0  0
  4  8  1  0  0  0  0
  5  4  1  0  0  0  0
  6  3  1  0  0  0  0
  7  6  1  0  0  0  0
  9  2  1  0  0  0  0
 10  9  1  0  0  0  0
 11 10  2  0  0  0  0
 12  2  2  0  0  0  0
 12  3  1  0  0  0  0
 13 11  1  0  0  0  0
 14 13  1  6  0  0  0
 14 12  1  0  0  0  0
 15 10  1  0  0  0  0
 15 17  1  0  0  0  0
 16 15  2  0  0  0  0
 18 19  1  0  0  0  0
 20 18  2  0  0  0  0
 21 18  1  0  0  0  0
 22 21  1  0  0  0  0
 23 31  1  0  0  0  0
 25 32  1  6  0  0  0
 25 30  1  0  0  0  0
 26 25  1  0  0  0  0
 27 23  1  6  0  0  0
 27 26  1  0  0  0  0
 27 29  1  0  0  0  0
 28 30  1  0  0  0  0
 29 24  1  1  0  0  0
 29 28  1  0  0  0  0
 31 22  1  1  0  0  0
 31 24  1  0  0  0  0
 32 33  1  0  0  0  0
 34 32  2  0  0  0  0
M  END
>  <MODEL>
6

>  <REMARK>
 VINA RESULT:      -7.2      2.532      5.750
  Name = 
  6 active torsions:
  status: ('A' for Active; 'I' for Inactive)
    1  A    between atoms: C_1  and  N_9
    2  A    between atoms: C_3  and  C_25
    3  A    between atoms: C_7  and  C_11
    4  A    between atoms: C_8  and  C_18
    5  A    between atoms: C_18  and  O_30
    6  A    between atoms: O_30  and  C_31
                            x       y       z     vdW  Elec       q    Type
                         _______ _______ _______ _____ _____    ______ ____

>  <TORSDO>
F 6

$$$$
=
 OpenBabel11052420283D

 34 37  0  0  1  0  0  0  0  0999 V2000
  189.8920  176.0760  144.6830 C   0  0  2  0  0  3  0  0  0  0  0  0
  187.4090  177.5320  147.1710 C   0  0  0  0  0  3  0  0  0  0  0  0
  189.8450  177.4650  147.2930 C   0  0  0  0  0  2  0  0  0  0  0  0
  192.2320  175.5260  145.3930 C   0  0  0  0  0  0  0  0  0  0  0  0
  192.6210  175.2890  143.9650 C   0  0  0  0  0  1  0  0  0  0  0  0
  190.6620  176.1940  147.1830 C   0  0  0  0  0  2  0  0  0  0  0  0
  190.9840  175.9240  145.7370 C   0  0  0  0  0  0  0  0  0  0  0  0
  193.3100  175.3580  146.4200 C   0  0  0  0  0  1  0  0  0  0  0  0
  186.0930  177.2330  146.5100 C   0  0  0  0  0  2  0  0  0  0  0  0
  185.8090  178.0600  145.2770 C   0  0  0  0  0  0  0  0  0  0  0  0
  186.6800  178.2230  144.2610 C   0  0  0  0  0  3  0  0  0  0  0  0
  188.5640  177.2570  146.5620 C   0  0  0  0  0  0  0  0  0  0  0  0
  188.1330  177.8020  144.1780 C   0  0  0  0  0  2  0  0  0  0  0  0
  188.5620  176.7070  145.1560 C   0  0  1  0  0  3  0  0  0  0  0  0
  184.4410  178.5980  145.1440 C   0  0  0  0  0  0  0  0  0  0  0  0
  183.9790  179.0290  143.9040 O   0  0  0  0  0  0  0  0  0  0  0  0
  183.6780  178.6750  146.1360 O   0  0  0  0  0  1  0  0  0  0  0  0
  189.3510  174.6420  142.6700 C   0  0  0  0  0  0  0  0  0  0  0  0
  189.6080  174.7860  144.0700 N   0  0  0  0  0  2  0  0  0  0  0  0
  189.4080  175.6350  141.9030 O   0  0  0  0  0  0  0  0  0  0  0  0
  188.9820  173.3130  142.1230 C   0  0  0  0  0  2  0  0  0  0  0  0
  187.9350  173.4510  141.2060 O   0  0  0  0  0  0  0  0  0  0  0  0
  188.2120  173.4840  138.8320 C   0  0  0  0  0  2  0  0  0  0  0  0
  189.7940  172.2970  140.2400 C   0  0  0  0  0  2  0  0  0  0  0  0
  191.4450  174.2050  136.8780 C   0  0  1  0  0  3  0  0  0  0  0  0
  189.9360  173.9330  137.0130 C   0  0  0  0  0  2  0  0  0  0  0  0
  189.6560  173.7210  138.4840 C   0  0  2  0  0  3  0  0  0  0  0  0
  191.7750  172.8960  139.0310 C   0  0  0  0  0  2  0  0  0  0  0  0
  190.3670  172.5430  138.9350 N   0  0  1  0  0  0  0  0  0  0  0  0
  192.3040  173.1550  137.6150 C   0  0  0  0  0  2  0  0  0  0  0  0
  188.3120  172.6680  140.1150 C   0  0  1  0  0  3  0  0  0  0  0  0
  191.8420  174.2860  135.4370 C   0  0  0  0  0  0  0  0  0  0  0  0
  192.2590  173.2650  134.8250 O   0  0  0  0  0  1  0  0  0  0  0  0
  191.7390  175.4940  134.7650 O   0  0  0  0  0  0  0  0  0  0  0  0
  1 19  1  1  0  0  0
  1 14  1  0  0  0  0
  1  7  1  0  0  0  0
  4  7  2  0  0  0  0
  4  8  1  0  0  0  0
  5  4  1  0  0  0  0
  6  3  1  0  0  0  0
  7  6  1  0  0  0  0
  9  2  1  0  0  0  0
 10  9  1  0  0  0  0
 11 10  2  0  0  0  0
 12  2  2  0  0  0  0
 12  3  1  0  0  0  0
 13 11  1  0  0  0  0
 14 13  1  6  0  0  0
 14 12  1  0  0  0  0
 15 10  1  0  0  0  0
 15 17  1  0  0  0  0
 16 15  2  0  0  0  0
 18 19  1  0  0  0  0
 20 18  2  0  0  0  0
 21 18  1  0  0  0  0
 22 21  1  0  0  0  0
 23 31  1  0  0  0  0
 25 32  1  6  0  0  0
 25 26  1  0  0  0  0
 25 30  1  0  0  0  0
 27 26  1  6  0  0  0
 27 23  1  0  0  0  0
 27 29  1  0  0  0  0
 29 28  1  1  0  0  0
 29 24  1  0  0  0  0
 30 28  1  0  0  0  0
 31 24  1  0  0  0  0
 31 22  1  1  0  0  0
 33 32  1  0  0  0  0
 34 32  2  0  0  0  0
M  END
>  <MODEL>
7

>  <REMARK>
 VINA RESULT:      -7.1      3.034      5.194
  Name = 
  6 active torsions:
  status: ('A' for Active; 'I' for Inactive)
    1  A    between atoms: C_1  and  N_9
    2  A    between atoms: C_3  and  C_25
    3  A    between atoms: C_7  and  C_11
    4  A    between atoms: C_8  and  C_18
    5  A    between atoms: C_18  and  O_30
    6  A    between atoms: O_30  and  C_31
                            x       y       z     vdW  Elec       q    Type
                         _______ _______ _______ _____ _____    ______ ____

>  <TORSDO>
F 6

$$$$
=
 OpenBabel11052420283D

 34 37  0  0  1  0  0  0  0  0999 V2000
  189.5500  175.9890  144.5680 C   0  0  2  0  0  3  0  0  0  0  0  0
  185.9710  177.1820  145.0550 C   0  0  0  0  0  3  0  0  0  0  0  0
  187.8250  177.2020  146.6410 C   0  0  0  0  0  2  0  0  0  0  0  0
  191.0050  175.4850  146.5450 C   0  0  0  0  0  0  0  0  0  0  0  0
  192.1990  175.3570  145.6480 C   0  0  0  0  0  1  0  0  0  0  0  0
  188.6270  175.9720  147.0180 C   0  0  0  0  0  2  0  0  0  0  0  0
  189.7820  175.8110  146.0640 C   0  0  0  0  0  0  0  0  0  0  0  0
  191.2430  175.2910  148.0120 C   0  0  0  0  0  1  0  0  0  0  0  0
  185.3550  176.8770  143.7200 C   0  0  0  0  0  2  0  0  0  0  0  0
  185.8230  177.7710  142.5950 C   0  0  0  0  0  0  0  0  0  0  0  0
  187.1190  178.0350  142.3290 C   0  0  0  0  0  3  0  0  0  0  0  0
  187.2730  176.9920  145.2730 C   0  0  0  0  0  0  0  0  0  0  0  0
  188.3470  177.6760  143.1410 C   0  0  0  0  0  2  0  0  0  0  0  0
  188.1680  176.5370  144.1450 C   0  0  1  0  0  3  0  0  0  0  0  0
  184.7860  178.2640  141.6670 C   0  0  0  0  0  0  0  0  0  0  0  0
  183.4530  178.2910  142.0630 O   0  0  0  0  0  1  0  0  0  0  0  0
  185.0870  178.6630  140.5170 O   0  0  0  0  0  0  0  0  0  0  0  0
  190.5820  174.6530  142.6840 C   0  0  0  0  0  0  0  0  0  0  0  0
  189.7900  174.7320  143.8730 N   0  0  0  0  0  2  0  0  0  0  0  0
  191.1420  175.6750  142.2180 O   0  0  0  0  0  0  0  0  0  0  0  0
  190.7150  173.3550  141.9750 C   0  0  0  0  0  2  0  0  0  0  0  0
  191.5960  173.4920  140.8980 O   0  0  0  0  0  0  0  0  0  0  0  0
  193.8850  173.3230  141.5660 C   0  0  0  0  0  2  0  0  0  0  0  0
  192.2460  171.7240  142.3720 C   0  0  0  0  0  2  0  0  0  0  0  0
  195.2330  172.7920  145.1290 C   0  0  1  0  0  3  0  0  0  0  0  0
  195.3680  173.0670  143.6210 C   0  0  0  0  0  2  0  0  0  0  0  0
  193.9720  173.0290  143.0390 C   0  0  2  0  0  3  0  0  0  0  0  0
  193.0790  171.5450  144.6120 C   0  0  0  0  0  2  0  0  0  0  0  0
  193.4260  171.6980  143.2070 N   0  0  1  0  0  0  0  0  0  0  0  0
  194.3770  171.5430  145.4300 C   0  0  0  0  0  2  0  0  0  0  0  0
  192.6190  172.5800  141.1570 C   0  0  1  0  0  3  0  0  0  0  0  0
  196.5810  172.6670  145.7680 C   0  0  0  0  0  0  0  0  0  0  0  0
  197.1690  171.5530  145.8180 O   0  0  0  0  0  0  0  0  0  0  0  0
  197.1940  173.7910  146.2990 O   0  0  0  0  0  1  0  0  0  0  0  0
  1 19  1  6  0  0  0
  1  7  1  0  0  0  0
  2 12  2  0  0  0  0
  3  6  1  0  0  0  0
  4  8  1  0  0  0  0
  5  4  1  0  0  0  0
  7  4  2  0  0  0  0
  7  6  1  0  0  0  0
  9  2  1  0  0  0  0
 10  9  1  0  0  0  0
 11 10  2  0  0  0  0
 11 13  1  0  0  0  0
 12  3  1  0  0  0  0
 14 13  1  6  0  0  0
 14  1  1  0  0  0  0
 14 12  1  0  0  0  0
 15 16  1  0  0  0  0
 15 10  1  0  0  0  0
 17 15  2  0  0  0  0
 18 19  1  0  0  0  0
 20 18  2  0  0  0  0
 21 18  1  0  0  0  0
 22 21  1  0  0  0  0
 25 30  1  0  0  0  0
 25 32  1  6  0  0  0
 26 25  1  0  0  0  0
 27 23  1  6  0  0  0
 27 29  1  0  0  0  0
 27 26  1  0  0  0  0
 28 30  1  0  0  0  0
 29 24  1  6  0  0  0
 29 28  1  0  0  0  0
 31 22  1  1  0  0  0
 31 23  1  0  0  0  0
 31 24  1  0  0  0  0
 32 33  2  0  0  0  0
 32 34  1  0  0  0  0
M  END
>  <MODEL>
8

>  <REMARK>
 VINA RESULT:      -7.1      2.654      6.606
  Name = 
  6 active torsions:
  status: ('A' for Active; 'I' for Inactive)
    1  A    between atoms: C_1  and  N_9
    2  A    between atoms: C_3  and  C_25
    3  A    between atoms: C_7  and  C_11
    4  A    between atoms: C_8  and  C_18
    5  A    between atoms: C_18  and  O_30
    6  A    between atoms: O_30  and  C_31
                            x       y       z     vdW  Elec       q    Type
                         _______ _______ _______ _____ _____    ______ ____

>  <TORSDO>
F 6

$$$$
=
 OpenBabel11052420283D

 34 37  0  0  1  0  0  0  0  0999 V2000
  192.3110  175.8580  144.4890 C   0  0  2  0  0  3  0  0  0  0  0  0
  196.0290  176.3450  143.8500 C   0  0  0  0  0  3  0  0  0  0  0  0
  194.8950  175.7280  145.9210 C   0  0  0  0  0  2  0  0  0  0  0  0
  191.3990  175.9260  146.8220 C   0  0  0  0  0  0  0  0  0  0  0  0
  190.0720  175.4370  146.3300 C   0  0  0  0  0  1  0  0  0  0  0  0
  193.7790  176.5400  146.5470 C   0  0  0  0  0  2  0  0  0  0  0  0
  192.4540  176.0920  145.9890 C   0  0  0  0  0  0  0  0  0  0  0  0
  191.5220  176.1680  148.2960 C   0  0  0  0  0  1  0  0  0  0  0  0
  196.0500  176.7260  142.3970 C   0  0  0  0  0  2  0  0  0  0  0  0
  195.7230  175.5960  141.4480 C   0  0  0  0  0  0  0  0  0  0  0  0
  194.6540  174.7840  141.5810 C   0  0  0  0  0  3  0  0  0  0  0  0
  194.8930  175.9930  144.4540 C   0  0  0  0  0  0  0  0  0  0  0  0
  193.6750  174.6830  142.7320 C   0  0  0  0  0  2  0  0  0  0  0  0
  193.6140  175.8980  143.6580 C   0  0  1  0  0  3  0  0  0  0  0  0
  196.5660  175.4830  140.2410 C   0  0  0  0  0  0  0  0  0  0  0  0
  197.9390  175.6840  140.3280 O   0  0  0  0  0  1  0  0  0  0  0  0
  196.0620  175.2060  139.1270 O   0  0  0  0  0  0  0  0  0  0  0  0
  190.3330  176.4170  143.0130 C   0  0  0  0  0  0  0  0  0  0  0  0
  191.3640  176.8100  143.9240 N   0  0  0  0  0  2  0  0  0  0  0  0
  190.1810  175.2100  142.7000 O   0  0  0  0  0  0  0  0  0  0  0  0
  189.4560  177.4490  142.4060 C   0  0  0  0  0  2  0  0  0  0  0  0
  188.1160  177.0790  142.5540 O   0  0  0  0  0  0  0  0  0  0  0  0
  186.3660  177.9100  141.1520 C   0  0  0  0  0  2  0  0  0  0  0  0
  186.5710  178.6720  143.4480 C   0  0  0  0  0  2  0  0  0  0  0  0
  182.6370  178.2350  142.0360 C   0  0  1  0  0  3  0  0  0  0  0  0
  183.8500  178.2950  141.0890 C   0  0  0  0  0  2  0  0  0  0  0  0
  185.0700  177.9500  141.9140 C   0  0  2  0  0  3  0  0  0  0  0  0
  184.2290  178.7290  143.9530 C   0  0  0  0  0  2  0  0  0  0  0  0
  185.2480  178.9570  142.9390 N   0  0  1  0  0  0  0  0  0  0  0  0
  182.8590  179.0350  143.3370 C   0  0  0  0  0  2  0  0  0  0  0  0
  187.3920  178.2280  142.2320 C   0  0  1  0  0  3  0  0  0  0  0  0
  181.3980  178.7040  141.3390 C   0  0  0  0  0  0  0  0  0  0  0  0
  180.6850  179.6170  141.8370 O   0  0  0  0  0  1  0  0  0  0  0  0
  181.0370  178.1350  140.1270 O   0  0  0  0  0  0  0  0  0  0  0  0
  1 19  1  6  0  0  0
  1  7  1  0  0  0  0
  2 12  2  0  0  0  0
  3  6  1  0  0  0  0
  4  8  1  0  0  0  0
  5  4  1  0  0  0  0
  7  6  1  0  0  0  0
  7  4  2  0  0  0  0
  9  2  1  0  0  0  0
 10 11  2  0  0  0  0
 10  9  1  0  0  0  0
 11 13  1  0  0  0  0
 12  3  1  0  0  0  0
 14 13  1  1  0  0  0
 14 12  1  0  0  0  0
 14  1  1  0  0  0  0
 15 16  1  0  0  0  0
 15 10  1  0  0  0  0
 17 15  2  0  0  0  0
 18 19  1  0  0  0  0
 20 18  2  0  0  0  0
 21 22  1  0  0  0  0
 21 18  1  0  0  0  0
 23 27  1  0  0  0  0
 23 31  1  0  0  0  0
 25 32  1  6  0  0  0
 25 30  1  0  0  0  0
 26 25  1  0  0  0  0
 27 26  1  6  0  0  0
 27 29  1  0  0  0  0
 29 24  1  1  0  0  0
 29 28  1  0  0  0  0
 30 28  1  0  0  0  0
 31 22  1  1  0  0  0
 31 24  1  0  0  0  0
 32 33  1  0  0  0  0
 34 32  2  0  0  0  0
M  END
>  <MODEL>
9

>  <REMARK>
 VINA RESULT:      -6.9      3.070      6.073
  Name = 
  6 active torsions:
  status: ('A' for Active; 'I' for Inactive)
    1  A    between atoms: C_1  and  N_9
    2  A    between atoms: C_3  and  C_25
    3  A    between atoms: C_7  and  C_11
    4  A    between atoms: C_8  and  C_18
    5  A    between atoms: C_18  and  O_30
    6  A    between atoms: O_30  and  C_31
                            x       y       z     vdW  Elec       q    Type
                         _______ _______ _______ _____ _____    ______ ____

>  <TORSDO>
F 6

$$$$
