=
 OpenBabel11052417453D

 31 33  0  0  1  0  0  0  0  0999 V2000
  188.2240  176.9660  145.7320 C   0  0  0  0  0  0  0  0  0  0  0  0
  187.9390  176.8980  144.2800 C   0  0  0  0  0  0  0  0  0  0  0  0
  186.4990  176.2720  142.4270 C   0  0  0  0  0  3  0  0  0  0  0  0
  186.7530  176.3210  143.8010 C   0  0  0  0  0  3  0  0  0  0  0  0
  190.0620  178.0080  143.8620 N   0  0  0  0  0  0  0  0  0  0  0  0
  187.1710  176.7500  140.1600 O   0  0  0  0  0  1  0  0  0  0  0  0
  189.3990  177.5020  146.1490 C   0  0  0  0  0  0  0  0  0  0  0  0
  187.4260  176.8000  141.5240 C   0  0  0  0  0  0  0  0  0  0  0  0
  190.3080  178.0330  145.2200 O   0  0  0  0  0  0  0  0  0  0  0  0
  188.8620  177.4240  143.3660 C   0  0  0  0  0  0  0  0  0  0  0  0
  188.6090  177.3780  141.9930 C   0  0  0  0  0  2  0  0  0  0  0  0
  187.2460  176.4140  146.6340 N   0  0  0  0  0  2  0  0  0  0  0  0
  186.6070  178.4470  147.5700 O   0  0  0  0  0  1  0  0  0  0  0  0
  186.1820  177.1450  147.3090 C   0  0  1  0  0  3  0  0  0  0  0  0
  184.9480  177.1870  146.4300 C   0  0  0  0  0  2  0  0  0  0  0  0
  184.3980  178.6010  146.3680 C   0  0  0  0  0  2  0  0  0  0  0  0
  184.3380  179.0800  144.9290 C   0  0  2  0  0  3  0  0  0  0  0  0
  184.1100  178.0000  144.0980 F   0  0  0  0  0  0  0  0  0  0  0  0
  185.5940  179.7090  144.5630 N   0  0  0  0  0  1  0  0  0  0  0  0
  189.8040  177.5350  147.5860 C   0  0  0  0  0  2  0  0  0  0  0  0
  191.1950  176.9360  147.7520 C   0  0  0  0  0  2  0  0  0  0  0  0
  191.4710  174.7640  148.7080 F   0  0  0  0  0  0  0  0  0  0  0  0
  191.1900  175.4310  147.5270 C   0  0  2  0  0  3  0  0  0  0  0  0
  192.1820  175.0390  146.4390 C   0  0  0  0  0  2  0  0  0  0  0  0
  191.3810  174.6970  142.7520 C   0  0  0  0  0  0  0  0  0  0  0  0
  189.6010  173.6650  144.0300 C   0  0  0  0  0  3  0  0  0  0  0  0
  191.9260  175.0320  141.5590 F   0  0  0  0  0  0  0  0  0  0  0  0
  192.0370  175.0360  143.9400 C   0  0  0  0  0  3  0  0  0  0  0  0
  190.2570  174.0030  145.2180 C   0  0  0  0  0  3  0  0  0  0  0  0
  191.4750  174.6920  145.1740 C   0  0  0  0  0  0  0  0  0  0  0  0
  190.1630  174.0120  142.7980 C   0  0  0  0  0  3  0  0  0  0  0  0
  1  7  2  0  0  0  0
  1 12  1  0  0  0  0
  2  1  1  0  0  0  0
  3  4  1  0  0  0  0
  4  2  2  0  0  0  0
  5  9  1  0  0  0  0
  6  8  1  0  0  0  0
  7 20  1  0  0  0  0
  8 11  1  0  0  0  0
  8  3  2  0  0  0  0
  9  7  1  0  0  0  0
 10  5  2  0  0  0  0
 10  2  1  0  0  0  0
 11 10  1  0  0  0  0
 12 14  1  0  0  0  0
 14 13  1  6  0  0  0
 15 14  1  0  0  0  0
 16 15  1  0  0  0  0
 17 18  1  6  0  0  0
 17 16  1  0  0  0  0
 19 17  1  0  0  0  0
 20 21  1  0  0  0  0
 23 21  1  0  0  0  0
 23 22  1  1  0  0  0
 24 23  1  0  0  0  0
 25 31  2  0  0  0  0
 25 28  1  0  0  0  0
 26 29  2  0  0  0  0
 27 25  1  0  0  0  0
 28 30  2  0  0  0  0
 30 29  1  0  0  0  0
 30 24  1  0  0  0  0
 31 26  1  0  0  0  0
M  END
>  <MODEL>
1

>  <REMARK>
 VINA RESULT:      -7.1      0.000      0.000
  Name = 
  10 active torsions:
  status: ('A' for Active; 'I' for Inactive)
    1  A    between atoms: C_2  and  C_13
    2  A    between atoms: C_3  and  C_9
    3  A    between atoms: C_3  and  C_22
    4  A    between atoms: C_4  and  N_12
    5  A    between atoms: C_9  and  C_23
    6  A    between atoms: N_12  and  C_27
    7  A    between atoms: C_13  and  C_28
    8  A    between atoms: C_15  and  C_21
    9  A    between atoms: C_15  and  C_23
   10  A    between atoms: C_27  and  C_28
                            x       y       z     vdW  Elec       q    Type
                         _______ _______ _______ _____ _____    ______ ____

>  <TORSDO>
F 10

$$$$
=
 OpenBabel11052417453D

 31 33  0  0  1  0  0  0  0  0999 V2000
  190.8790  177.1680  145.2350 C   0  0  0  0  0  0  0  0  0  0  0  0
  192.2300  176.5620  145.2100 C   0  0  1  0  0  3  0  0  0  0  0  0
  194.3100  176.0630  144.0590 C   0  0  0  0  0  3  0  0  0  0  0  0
  193.0350  176.6350  144.0620 C   0  0  0  0  0  3  0  0  0  0  0  0
  191.8980  175.8440  147.5090 N   0  0  0  0  0  0  0  0  0  0  0  0
  196.0580  174.8500  145.1970 O   0  0  0  0  0  1  0  0  0  0  0  0
  190.1220  177.0450  146.3550 C   0  0  0  0  0  0  0  0  0  0  0  0
  194.7910  175.4170  145.2020 C   0  0  0  0  0  0  0  0  0  0  0  0
  190.6330  176.3980  147.4920 O   0  0  0  0  0  0  0  0  0  0  0  0
  192.7220  175.9120  146.3500 C   0  0  0  0  0  0  0  0  0  0  0  0
  193.9960  175.3410  146.3500 C   0  0  0  0  0  3  0  0  0  0  0  0
  190.4160  177.8270  144.0410 N   0  0  0  0  0  2  0  0  0  0  0  0
  189.2450  178.2360  142.0710 O   0  0  0  0  0  1  0  0  0  0  0  0
  189.3630  177.3590  143.1490 C   0  0  1  0  0  3  0  0  0  0  0  0
  189.7010  175.9740  142.6340 C   0  0  0  0  0  2  0  0  0  0  0  0
  188.8160  174.9380  143.3030 C   0  0  0  0  0  2  0  0  0  0  0  0
  189.6600  173.8150  143.8760 C   0  0  2  0  0  3  0  0  0  0  0  0
  189.8140  174.0080  145.2350 F   0  0  0  0  0  0  0  0  0  0  0  0
  190.9670  173.8050  143.2420 N   0  0  0  0  0  1  0  0  0  0  0  0
  188.7200  177.5500  146.4390 C   0  0  0  0  0  2  0  0  0  0  0  0
  187.7650  176.4010  146.7340 C   0  0  0  0  0  2  0  0  0  0  0  0
  186.1270  176.3660  148.4740 F   0  0  0  0  0  0  0  0  0  0  0  0
  186.4160  176.9040  147.2310 C   0  0  2  0  0  3  0  0  0  0  0  0
  185.3130  176.5770  146.2330 C   0  0  0  0  0  2  0  0  0  0  0  0
  185.5970  179.5470  143.8990 C   0  0  0  0  0  0  0  0  0  0  0  0
  185.7920  177.5160  142.5940 C   0  0  0  0  0  3  0  0  0  0  0  0
  185.5790  180.8990  143.9690 F   0  0  0  0  0  0  0  0  0  0  0  0
  185.4440  178.7850  145.0610 C   0  0  0  0  0  3  0  0  0  0  0  0
  185.6380  176.7540  143.7570 C   0  0  0  0  0  3  0  0  0  0  0  0
  185.4610  177.3880  144.9920 C   0  0  0  0  0  0  0  0  0  0  0  0
  185.7710  178.9120  142.6650 C   0  0  0  0  0  3  0  0  0  0  0  0
  1  7  2  0  0  0  0
  2  4  1  1  0  0  0
  2  1  1  0  0  0  0
  2 10  1  0  0  0  0
  3  4  2  0  0  0  0
  3  8  1  0  0  0  0
  6  8  1  0  0  0  0
  7 20  1  0  0  0  0
  7  9  1  0  0  0  0
  8 11  2  0  0  0  0
  9  5  1  0  0  0  0
 10  5  2  0  0  0  0
 11 10  1  0  0  0  0
 12  1  1  0  0  0  0
 14 13  1  6  0  0  0
 14 12  1  0  0  0  0
 15 14  1  0  0  0  0
 15 16  1  0  0  0  0
 16 17  1  0  0  0  0
 17 19  1  6  0  0  0
 17 18  1  0  0  0  0
 20 21  1  0  0  0  0
 21 23  1  0  0  0  0
 23 22  1  1  0  0  0
 24 23  1  0  0  0  0
 25 27  1  0  0  0  0
 25 28  1  0  0  0  0
 26 31  1  0  0  0  0
 26 29  2  0  0  0  0
 29 30  1  0  0  0  0
 30 28  2  0  0  0  0
 30 24  1  0  0  0  0
 31 25  2  0  0  0  0
M  END
>  <MODEL>
2

>  <REMARK>
 VINA RESULT:      -6.9      2.606      6.276
  Name = 
  10 active torsions:
  status: ('A' for Active; 'I' for Inactive)
    1  A    between atoms: C_2  and  C_13
    2  A    between atoms: C_3  and  C_9
    3  A    between atoms: C_3  and  C_22
    4  A    between atoms: C_4  and  N_12
    5  A    between atoms: C_9  and  C_23
    6  A    between atoms: N_12  and  C_27
    7  A    between atoms: C_13  and  C_28
    8  A    between atoms: C_15  and  C_21
    9  A    between atoms: C_15  and  C_23
   10  A    between atoms: C_27  and  C_28
                            x       y       z     vdW  Elec       q    Type
                         _______ _______ _______ _____ _____    ______ ____

>  <TORSDO>
F 10

$$$$
=
 OpenBabel11052417453D

 31 33  0  0  1  0  0  0  0  0999 V2000
  190.5210  174.6800  145.8630 C   0  0  0  0  0  0  0  0  0  0  0  0
  192.0010  174.6710  145.8120 C   0  0  1  0  0  3  0  0  0  0  0  0
  194.0900  173.7430  144.9900 C   0  0  0  0  0  3  0  0  0  0  0  0
  192.6920  173.7310  145.0320 C   0  0  0  0  0  3  0  0  0  0  0  0
  192.0170  176.5680  147.3330 N   0  0  0  0  0  0  0  0  0  0  0  0
  196.1920  174.7020  145.6820 O   0  0  0  0  0  1  0  0  0  0  0  0
  189.8940  175.5850  146.6570 C   0  0  0  0  0  0  0  0  0  0  0  0
  194.8050  174.6930  145.7250 C   0  0  0  0  0  0  0  0  0  0  0  0
  190.6380  176.5340  147.3780 O   0  0  0  0  0  0  0  0  0  0  0  0
  192.7280  175.6190  146.5450 C   0  0  0  0  0  0  0  0  0  0  0  0
  194.1240  175.6330  146.5040 C   0  0  0  0  0  3  0  0  0  0  0  0
  189.8160  173.6880  145.0920 N   0  0  0  0  0  2  0  0  0  0  0  0
  189.0270  172.4850  143.2620 O   0  0  0  0  0  1  0  0  0  0  0  0
  189.6750  173.6600  143.6420 C   0  0  1  0  0  3  0  0  0  0  0  0
  188.8640  174.8530  143.1800 C   0  0  0  0  0  2  0  0  0  0  0  0
  189.7750  175.8940  142.5550 C   0  0  0  0  0  2  0  0  0  0  0  0
  189.6320  177.2210  143.2770 C   0  0  2  0  0  3  0  0  0  0  0  0
  189.2050  178.1840  142.3830 F   0  0  0  0  0  0  0  0  0  0  0  0
  190.9110  177.6210  143.8370 N   0  0  0  0  0  1  0  0  0  0  0  0
  188.4120  175.6110  146.8350 C   0  0  0  0  0  2  0  0  0  0  0  0
  187.8870  177.0280  146.6480 C   0  0  0  0  0  2  0  0  0  0  0  0
  186.2630  176.4790  148.3140 F   0  0  0  0  0  0  0  0  0  0  0  0
  186.4460  177.1620  147.1220 C   0  0  2  0  0  3  0  0  0  0  0  0
  185.4750  176.6620  146.0610 C   0  0  0  0  0  2  0  0  0  0  0  0
  186.0250  177.4550  142.3970 C   0  0  0  0  0  0  0  0  0  0  0  0
  185.6630  179.5300  143.5920 C   0  0  0  0  0  3  0  0  0  0  0  0
  186.2660  176.7940  141.2400 F   0  0  0  0  0  0  0  0  0  0  0  0
  185.8860  176.7430  143.5920 C   0  0  0  0  0  3  0  0  0  0  0  0
  185.5250  178.8180  144.7880 C   0  0  0  0  0  3  0  0  0  0  0  0
  185.6380  177.4230  144.7900 C   0  0  0  0  0  0  0  0  0  0  0  0
  185.9140  178.8490  142.3970 C   0  0  0  0  0  3  0  0  0  0  0  0
  1  7  2  0  0  0  0
  2  4  1  6  0  0  0
  2  1  1  0  0  0  0
  2 10  1  0  0  0  0
  3  4  2  0  0  0  0
  3  8  1  0  0  0  0
  5  9  1  0  0  0  0
  6  8  1  0  0  0  0
  7 20  1  0  0  0  0
  7  9  1  0  0  0  0
  8 11  2  0  0  0  0
 10  5  2  0  0  0  0
 11 10  1  0  0  0  0
 12  1  1  0  0  0  0
 14 13  1  1  0  0  0
 14 12  1  0  0  0  0
 15 14  1  0  0  0  0
 16 15  1  0  0  0  0
 16 17  1  0  0  0  0
 17 18  1  6  0  0  0
 17 19  1  0  0  0  0
 21 20  1  0  0  0  0
 21 23  1  0  0  0  0
 23 22  1  1  0  0  0
 24 23  1  0  0  0  0
 25 28  1  0  0  0  0
 26 29  2  0  0  0  0
 27 25  1  0  0  0  0
 28 30  2  0  0  0  0
 29 30  1  0  0  0  0
 30 24  1  0  0  0  0
 31 25  2  0  0  0  0
 31 26  1  0  0  0  0
M  END
>  <MODEL>
3

>  <REMARK>
 VINA RESULT:      -6.7      2.736      6.113
  Name = 
  10 active torsions:
  status: ('A' for Active; 'I' for Inactive)
    1  A    between atoms: C_2  and  C_13
    2  A    between atoms: C_3  and  C_9
    3  A    between atoms: C_3  and  C_22
    4  A    between atoms: C_4  and  N_12
    5  A    between atoms: C_9  and  C_23
    6  A    between atoms: N_12  and  C_27
    7  A    between atoms: C_13  and  C_28
    8  A    between atoms: C_15  and  C_21
    9  A    between atoms: C_15  and  C_23
   10  A    between atoms: C_27  and  C_28
                            x       y       z     vdW  Elec       q    Type
                         _______ _______ _______ _____ _____    ______ ____

>  <TORSDO>
F 10

$$$$
=
 OpenBabel11052417453D

 31 33  0  0  1  0  0  0  0  0999 V2000
  192.1130  176.4320  145.0590 C   0  0  0  0  0  0  0  0  0  0  0  0
  193.3740  176.1280  144.3450 C   0  0  1  0  0  3  0  0  0  0  0  0
  194.6220  175.8040  142.2860 C   0  0  0  0  0  3  0  0  0  0  0  0
  193.4200  176.0850  142.9430 C   0  0  0  0  0  3  0  0  0  0  0  0
  194.4900  175.9350  146.4970 N   0  0  0  0  0  0  0  0  0  0  0  0
  196.9770  175.2880  142.3700 O   0  0  0  0  0  1  0  0  0  0  0  0
  192.1070  176.4300  146.4170 C   0  0  0  0  0  0  0  0  0  0  0  0
  195.7850  175.5660  143.0250 C   0  0  0  0  0  0  0  0  0  0  0  0
  193.2920  176.1960  147.1330 O   0  0  0  0  0  0  0  0  0  0  0  0
  194.5470  175.8880  145.0750 C   0  0  0  0  0  0  0  0  0  0  0  0
  195.7480  175.6090  144.4210 C   0  0  0  0  0  3  0  0  0  0  0  0
  190.9340  176.6720  144.2670 N   0  0  0  0  0  2  0  0  0  0  0  0
  191.3530  178.9150  143.8030 O   0  0  0  0  0  1  0  0  0  0  0  0
  190.3410  177.9700  143.9720 C   0  0  1  0  0  3  0  0  0  0  0  0
  189.5170  177.8850  142.7030 C   0  0  0  0  0  2  0  0  0  0  0  0
  188.6970  176.6070  142.6970 C   0  0  0  0  0  2  0  0  0  0  0  0
  187.3580  176.8440  142.0250 C   0  0  2  0  0  3  0  0  0  0  0  0
  187.0920  178.1990  142.0020 F   0  0  0  0  0  0  0  0  0  0  0  0
  186.3070  176.1610  142.7590 N   0  0  0  0  0  1  0  0  0  0  0  0
  190.8640  176.6410  147.2170 C   0  0  0  0  0  2  0  0  0  0  0  0
  189.9620  175.4190  147.1160 C   0  0  0  0  0  2  0  0  0  0  0  0
  188.2080  175.3650  145.4930 F   0  0  0  0  0  0  0  0  0  0  0  0
  188.5310  175.8030  146.7670 C   0  0  2  0  0  3  0  0  0  0  0  0
  188.3260  177.3070  146.8880 C   0  0  0  0  0  2  0  0  0  0  0  0
  185.5740  178.9630  144.8790 C   0  0  0  0  0  0  0  0  0  0  0  0
  184.5600  177.5090  146.5290 C   0  0  0  0  0  3  0  0  0  0  0  0
  185.4510  179.8400  143.8550 F   0  0  0  0  0  0  0  0  0  0  0  0
  186.8430  178.6050  145.3440 C   0  0  0  0  0  3  0  0  0  0  0  0
  185.8290  177.1500  146.9940 C   0  0  0  0  0  3  0  0  0  0  0  0
  186.9730  177.7000  146.4030 C   0  0  0  0  0  0  0  0  0  0  0  0
  184.4320  178.4150  145.4730 C   0  0  0  0  0  3  0  0  0  0  0  0
  1  7  2  0  0  0  0
  2  4  1  6  0  0  0
  2  1  1  0  0  0  0
  2 10  1  0  0  0  0
  3  4  2  0  0  0  0
  3  8  1  0  0  0  0
  5  9  1  0  0  0  0
  6  8  1  0  0  0  0
  7  9  1  0  0  0  0
  7 20  1  0  0  0  0
  8 11  2  0  0  0  0
 10  5  2  0  0  0  0
 11 10  1  0  0  0  0
 12  1  1  0  0  0  0
 14 13  1  6  0  0  0
 14 12  1  0  0  0  0
 15 14  1  0  0  0  0
 16 15  1  0  0  0  0
 17 18  1  1  0  0  0
 17 16  1  0  0  0  0
 17 19  1  0  0  0  0
 21 20  1  0  0  0  0
 23 22  1  6  0  0  0
 23 24  1  0  0  0  0
 23 21  1  0  0  0  0
 25 28  2  0  0  0  0
 25 31  1  0  0  0  0
 26 29  1  0  0  0  0
 27 25  1  0  0  0  0
 28 30  1  0  0  0  0
 30 24  1  0  0  0  0
 30 29  2  0  0  0  0
 31 26  2  0  0  0  0
M  END
>  <MODEL>
4

>  <REMARK>
 VINA RESULT:      -6.6      2.840      5.928
  Name = 
  10 active torsions:
  status: ('A' for Active; 'I' for Inactive)
    1  A    between atoms: C_2  and  C_13
    2  A    between atoms: C_3  and  C_9
    3  A    between atoms: C_3  and  C_22
    4  A    between atoms: C_4  and  N_12
    5  A    between atoms: C_9  and  C_23
    6  A    between atoms: N_12  and  C_27
    7  A    between atoms: C_13  and  C_28
    8  A    between atoms: C_15  and  C_21
    9  A    between atoms: C_15  and  C_23
   10  A    between atoms: C_27  and  C_28
                            x       y       z     vdW  Elec       q    Type
                         _______ _______ _______ _____ _____    ______ ____

>  <TORSDO>
F 10

$$$$
=
 OpenBabel11052417453D

 31 33  0  0  1  0  0  0  0  0999 V2000
  188.1490  177.4840  143.5090 C   0  0  0  0  0  0  0  0  0  0  0  0
  186.9690  177.7640  142.6590 C   0  0  0  0  0  0  0  0  0  0  0  0
  185.9200  177.9460  140.4750 C   0  0  0  0  0  3  0  0  0  0  0  0
  187.0470  177.6850  141.2600 C   0  0  0  0  0  3  0  0  0  0  0  0
  185.6770  178.1830  144.6770 N   0  0  0  0  0  0  0  0  0  0  0  0
  183.5900  178.5450  140.3010 O   0  0  0  0  0  1  0  0  0  0  0  0
  188.0360  177.6050  144.8560 C   0  0  0  0  0  0  0  0  0  0  0  0
  184.7080  178.2860  141.0820 C   0  0  0  0  0  0  0  0  0  0  0  0
  186.8030  177.9400  145.4390 O   0  0  0  0  0  0  0  0  0  0  0  0
  185.7470  178.1060  143.2570 C   0  0  0  0  0  0  0  0  0  0  0  0
  184.6200  178.3660  142.4750 C   0  0  0  0  0  2  0  0  0  0  0  0
  189.3820  177.1360  142.8500 N   0  0  0  0  0  2  0  0  0  0  0  0
  191.0750  175.6190  143.3500 O   0  0  0  0  0  1  0  0  0  0  0  0
  189.8940  175.7890  142.6290 C   0  0  1  0  0  3  0  0  0  0  0  0
  188.8730  174.7680  143.0900 C   0  0  0  0  0  2  0  0  0  0  0  0
  189.5530  173.4390  143.3680 C   0  0  0  0  0  2  0  0  0  0  0  0
  189.0150  172.3680  142.4370 C   0  0  2  0  0  3  0  0  0  0  0  0
  189.9020  172.1810  141.3950 F   0  0  0  0  0  0  0  0  0  0  0  0
  187.7270  172.7760  141.9030 N   0  0  0  0  0  1  0  0  0  0  0  0
  189.1940  177.4240  145.7800 C   0  0  0  0  0  2  0  0  0  0  0  0
  188.8870  176.3330  146.7980 C   0  0  0  0  0  2  0  0  0  0  0  0
  189.1760  173.9620  146.8650 F   0  0  0  0  0  0  0  0  0  0  0  0
  189.8470  175.1580  146.6700 C   0  0  2  0  0  3  0  0  0  0  0  0
  191.0050  175.2930  147.6500 C   0  0  0  0  0  2  0  0  0  0  0  0
  194.2410  176.7530  146.3300 C   0  0  0  0  0  0  0  0  0  0  0  0
  194.0360  174.4770  145.5280 C   0  0  0  0  0  3  0  0  0  0  0  0
  194.9340  177.9150  146.3980 F   0  0  0  0  0  0  0  0  0  0  0  0
  193.0180  176.6290  146.9970 C   0  0  0  0  0  3  0  0  0  0  0  0
  192.8120  174.3530  146.1940 C   0  0  0  0  0  3  0  0  0  0  0  0
  192.3010  175.4300  146.9270 C   0  0  0  0  0  0  0  0  0  0  0  0
  194.7500  175.6770  145.5960 C   0  0  0  0  0  3  0  0  0  0  0  0
  1  7  2  0  0  0  0
  2 10  1  0  0  0  0
  2  1  1  0  0  0  0
  3  8  2  0  0  0  0
  3  4  1  0  0  0  0
  4  2  2  0  0  0  0
  5  9  1  0  0  0  0
  6  8  1  0  0  0  0
  7  9  1  0  0  0  0
  7 20  1  0  0  0  0
  8 11  1  0  0  0  0
 10  5  2  0  0  0  0
 11 10  1  0  0  0  0
 12  1  1  0  0  0  0
 14 12  1  0  0  0  0
 14 15  1  0  0  0  0
 14 13  1  1  0  0  0
 15 16  1  0  0  0  0
 17 18  1  6  0  0  0
 17 16  1  0  0  0  0
 19 17  1  0  0  0  0
 20 21  1  0  0  0  0
 23 21  1  0  0  0  0
 23 22  1  1  0  0  0
 23 24  1  0  0  0  0
 25 27  1  0  0  0  0
 25 28  1  0  0  0  0
 26 31  1  0  0  0  0
 26 29  2  0  0  0  0
 29 30  1  0  0  0  0
 30 28  2  0  0  0  0
 30 24  1  0  0  0  0
 31 25  2  0  0  0  0
M  END
>  <MODEL>
5

>  <REMARK>
 VINA RESULT:      -6.6      2.470      4.714
  Name = 
  10 active torsions:
  status: ('A' for Active; 'I' for Inactive)
    1  A    between atoms: C_2  and  C_13
    2  A    between atoms: C_3  and  C_9
    3  A    between atoms: C_3  and  C_22
    4  A    between atoms: C_4  and  N_12
    5  A    between atoms: C_9  and  C_23
    6  A    between atoms: N_12  and  C_27
    7  A    between atoms: C_13  and  C_28
    8  A    between atoms: C_15  and  C_21
    9  A    between atoms: C_15  and  C_23
   10  A    between atoms: C_27  and  C_28
                            x       y       z     vdW  Elec       q    Type
                         _______ _______ _______ _____ _____    ______ ____

>  <TORSDO>
F 10

$$$$
=
 OpenBabel11052417453D

 31 33  0  0  1  0  0  0  0  0999 V2000
  189.7620  175.9040  143.4450 C   0  0  0  0  0  0  0  0  0  0  0  0
  191.1510  175.7930  143.9460 C   0  0  1  0  0  3  0  0  0  0  0  0
  193.0630  174.4550  144.6230 C   0  0  0  0  0  3  0  0  0  0  0  0
  191.7480  174.5400  144.1560 C   0  0  0  0  0  3  0  0  0  0  0  0
  191.2770  178.2210  143.9930 N   0  0  0  0  0  0  0  0  0  0  0  0
  195.0960  175.5330  145.3460 O   0  0  0  0  0  1  0  0  0  0  0  0
  189.2140  177.1360  143.2890 C   0  0  0  0  0  0  0  0  0  0  0  0
  193.7910  175.6200  144.8820 C   0  0  0  0  0  0  0  0  0  0  0  0
  189.9720  178.2890  143.5490 O   0  0  0  0  0  0  0  0  0  0  0  0
  191.8900  176.9540  144.2100 C   0  0  0  0  0  0  0  0  0  0  0  0
  193.2050  176.8720  144.6750 C   0  0  0  0  0  3  0  0  0  0  0  0
  189.0420  174.6830  143.1880 N   0  0  0  0  0  2  0  0  0  0  0  0
  189.6650  174.4740  140.9540 O   0  0  0  0  0  1  0  0  0  0  0  0
  188.6710  174.1580  141.8800 C   0  0  1  0  0  3  0  0  0  0  0  0
  188.5160  172.6520  141.9550 C   0  0  0  0  0  2  0  0  0  0  0  0
  189.3590  172.0950  143.0880 C   0  0  0  0  0  2  0  0  0  0  0  0
  190.3910  171.1210  142.5470 C   0  0  2  0  0  3  0  0  0  0  0  0
  191.6370  171.4580  143.0380 F   0  0  0  0  0  0  0  0  0  0  0  0
  190.4150  171.1800  141.0960 N   0  0  0  0  0  1  0  0  0  0  0  0
  187.7960  177.3390  142.8700 C   0  0  0  0  0  2  0  0  0  0  0  0
  187.0190  178.0440  143.9740 C   0  0  0  0  0  2  0  0  0  0  0  0
  185.4240  176.9430  145.3710 F   0  0  0  0  0  0  0  0  0  0  0  0
  186.7810  177.1310  145.1680 C   0  0  2  0  0  3  0  0  0  0  0  0
  187.4410  177.6900  146.4220 C   0  0  0  0  0  2  0  0  0  0  0  0
  190.8770  176.6590  147.6390 C   0  0  0  0  0  0  0  0  0  0  0  0
  189.5640  174.6620  147.2460 C   0  0  0  0  0  3  0  0  0  0  0  0
  192.0350  177.2440  148.0250 F   0  0  0  0  0  0  0  0  0  0  0  0
  189.7960  177.4490  147.2370 C   0  0  0  0  0  3  0  0  0  0  0  0
  188.4820  175.4520  146.8430 C   0  0  0  0  0  3  0  0  0  0  0  0
  188.5980  176.8470  146.8350 C   0  0  0  0  0  0  0  0  0  0  0  0
  190.7610  175.2650  147.6430 C   0  0  0  0  0  3  0  0  0  0  0  0
  1  2  1  0  0  0  0
  2  4  1  6  0  0  0
  2 10  1  0  0  0  0
  3  8  1  0  0  0  0
  4  3  2  0  0  0  0
  5 10  2  0  0  0  0
  7  1  2  0  0  0  0
  7  9  1  0  0  0  0
  8  6  1  0  0  0  0
  9  5  1  0  0  0  0
 10 11  1  0  0  0  0
 11  8  2  0  0  0  0
 12  1  1  0  0  0  0
 14 13  1  6  0  0  0
 14 15  1  0  0  0  0
 14 12  1  0  0  0  0
 15 16  1  0  0  0  0
 17 19  1  6  0  0  0
 17 18  1  0  0  0  0
 17 16  1  0  0  0  0
 20  7  1  0  0  0  0
 20 21  1  0  0  0  0
 21 23  1  0  0  0  0
 23 22  1  1  0  0  0
 23 24  1  0  0  0  0
 24 30  1  0  0  0  0
 25 31  1  0  0  0  0
 25 27  1  0  0  0  0
 26 31  2  0  0  0  0
 28 25  2  0  0  0  0
 29 26  1  0  0  0  0
 30 29  2  0  0  0  0
 30 28  1  0  0  0  0
M  END
>  <MODEL>
6

>  <REMARK>
 VINA RESULT:      -6.6      2.514      6.217
  Name = 
  10 active torsions:
  status: ('A' for Active; 'I' for Inactive)
    1  A    between atoms: C_2  and  C_13
    2  A    between atoms: C_3  and  C_9
    3  A    between atoms: C_3  and  C_22
    4  A    between atoms: C_4  and  N_12
    5  A    between atoms: C_9  and  C_23
    6  A    between atoms: N_12  and  C_27
    7  A    between atoms: C_13  and  C_28
    8  A    between atoms: C_15  and  C_21
    9  A    between atoms: C_15  and  C_23
   10  A    between atoms: C_27  and  C_28
                            x       y       z     vdW  Elec       q    Type
                         _______ _______ _______ _____ _____    ______ ____

>  <TORSDO>
F 10

$$$$
=
 OpenBabel11052417453D

 31 33  0  0  1  0  0  0  0  0999 V2000
  189.3910  176.6170  144.8740 C   0  0  0  0  0  0  0  0  0  0  0  0
  190.7840  176.3730  145.3150 C   0  0  0  0  0  0  0  0  0  0  0  0
  192.3820  175.3360  146.8220 C   0  0  0  0  0  3  0  0  0  0  0  0
  191.0600  175.5610  146.4250 C   0  0  0  0  0  3  0  0  0  0  0  0
  191.5580  177.7750  143.4840 N   0  0  0  0  0  0  0  0  0  0  0  0
  194.7460  175.6940  146.5080 O   0  0  0  0  0  1  0  0  0  0  0  0
  189.1690  177.4360  143.8150 C   0  0  0  0  0  0  0  0  0  0  0  0
  193.4350  175.9190  146.1120 C   0  0  0  0  0  0  0  0  0  0  0  0
  190.2470  178.0020  143.1150 O   0  0  0  0  0  0  0  0  0  0  0  0
  191.8480  176.9530  144.6100 C   0  0  0  0  0  0  0  0  0  0  0  0
  193.1690  176.7280  145.0040 C   0  0  0  0  0  2  0  0  0  0  0  0
  188.3310  175.9990  145.6280 N   0  0  0  0  0  2  0  0  0  0  0  0
  188.3060  177.7340  147.1800 O   0  0  0  0  0  1  0  0  0  0  0  0
  187.6640  176.5570  146.7970 C   0  0  1  0  0  3  0  0  0  0  0  0
  186.2150  176.8600  146.4680 C   0  0  0  0  0  2  0  0  0  0  0  0
  185.9800  178.3600  146.4780 C   0  0  0  0  0  2  0  0  0  0  0  0
  184.5290  178.6680  146.1580 C   0  0  2  0  0  3  0  0  0  0  0  0
  183.7250  177.6770  146.6860 F   0  0  0  0  0  0  0  0  0  0  0  0
  184.3400  178.7230  144.7190 N   0  0  0  0  0  1  0  0  0  0  0  0
  187.7970  177.8040  143.3560 C   0  0  0  0  0  2  0  0  0  0  0  0
  187.1370  176.6150  142.6710 C   0  0  0  0  0  2  0  0  0  0  0  0
  187.4870  176.4760  140.3100 F   0  0  0  0  0  0  0  0  0  0  0  0
  187.9940  176.0730  141.5350 C   0  0  2  0  0  3  0  0  0  0  0  0
  188.0910  174.5550  141.6040 C   0  0  0  0  0  2  0  0  0  0  0  0
  190.5460  172.8250  143.9130 C   0  0  0  0  0  0  0  0  0  0  0  0
  191.7870  174.2080  142.3600 C   0  0  0  0  0  3  0  0  0  0  0  0
  190.5250  171.9560  144.9510 F   0  0  0  0  0  0  0  0  0  0  0  0
  189.3480  173.2330  143.3190 C   0  0  0  0  0  3  0  0  0  0  0  0
  190.5890  174.6170  141.7660 C   0  0  0  0  0  3  0  0  0  0  0  0
  189.3670  174.1320  142.2460 C   0  0  0  0  0  0  0  0  0  0  0  0
  191.7660  173.3130  143.4330 C   0  0  0  0  0  3  0  0  0  0  0  0
  1  2  1  0  0  0  0
  1 12  1  0  0  0  0
  2  4  2  0  0  0  0
  4  3  1  0  0  0  0
  5 10  2  0  0  0  0
  7  1  2  0  0  0  0
  8  6  1  0  0  0  0
  8  3  2  0  0  0  0
  9  5  1  0  0  0  0
  9  7  1  0  0  0  0
 10 11  1  0  0  0  0
 10  2  1  0  0  0  0
 11  8  1  0  0  0  0
 12 14  1  0  0  0  0
 14 13  1  6  0  0  0
 15 16  1  0  0  0  0
 15 14  1  0  0  0  0
 17 19  1  6  0  0  0
 17 16  1  0  0  0  0
 17 18  1  0  0  0  0
 20  7  1  0  0  0  0
 21 20  1  0  0  0  0
 23 22  1  6  0  0  0
 23 24  1  0  0  0  0
 23 21  1  0  0  0  0
 24 30  1  0  0  0  0
 25 27  1  0  0  0  0
 26 31  2  0  0  0  0
 28 25  2  0  0  0  0
 29 30  2  0  0  0  0
 29 26  1  0  0  0  0
 30 28  1  0  0  0  0
 31 25  1  0  0  0  0
M  END
>  <MODEL>
7

>  <REMARK>
 VINA RESULT:      -6.5      2.091      4.557
  Name = 
  10 active torsions:
  status: ('A' for Active; 'I' for Inactive)
    1  A    between atoms: C_2  and  C_13
    2  A    between atoms: C_3  and  C_9
    3  A    between atoms: C_3  and  C_22
    4  A    between atoms: C_4  and  N_12
    5  A    between atoms: C_9  and  C_23
    6  A    between atoms: N_12  and  C_27
    7  A    between atoms: C_13  and  C_28
    8  A    between atoms: C_15  and  C_21
    9  A    between atoms: C_15  and  C_23
   10  A    between atoms: C_27  and  C_28
                            x       y       z     vdW  Elec       q    Type
                         _______ _______ _______ _____ _____    ______ ____

>  <TORSDO>
F 10

$$$$
=
 OpenBabel11052417453D

 31 33  0  0  1  0  0  0  0  0999 V2000
  188.3650  176.8330  145.4560 C   0  0  0  0  0  0  0  0  0  0  0  0
  187.9680  177.0230  144.0420 C   0  0  0  0  0  0  0  0  0  0  0  0
  186.3410  176.8240  142.2500 C   0  0  0  0  0  3  0  0  0  0  0  0
  186.7000  176.6300  143.5870 C   0  0  0  0  0  3  0  0  0  0  0  0
  190.1490  178.0090  143.6130 N   0  0  0  0  0  0  0  0  0  0  0  0
  186.8840  177.6050  140.0330 O   0  0  0  0  0  1  0  0  0  0  0  0
  189.6140  177.1970  145.8450 C   0  0  0  0  0  0  0  0  0  0  0  0
  187.2440  177.4140  141.3600 C   0  0  0  0  0  0  0  0  0  0  0  0
  190.4970  177.7950  144.9320 O   0  0  0  0  0  0  0  0  0  0  0  0
  188.8660  177.6130  143.1410 C   0  0  0  0  0  0  0  0  0  0  0  0
  188.5080  177.8090  141.8060 C   0  0  0  0  0  2  0  0  0  0  0  0
  187.4100  176.2240  146.3460 N   0  0  0  0  0  2  0  0  0  0  0  0
  186.9800  178.1880  147.5200 O   0  0  0  0  0  1  0  0  0  0  0  0
  186.4780  176.9210  147.2210 C   0  0  1  0  0  3  0  0  0  0  0  0
  185.1330  177.0640  146.5350 C   0  0  0  0  0  2  0  0  0  0  0  0
  184.6350  178.4930  146.6540 C   0  0  0  0  0  2  0  0  0  0  0  0
  184.3950  179.0830  145.2760 C   0  0  2  0  0  3  0  0  0  0  0  0
  184.0420  178.0730  144.4020 F   0  0  0  0  0  0  0  0  0  0  0  0
  185.6030  179.7310  144.7970 N   0  0  0  0  0  1  0  0  0  0  0  0
  190.1260  176.9640  147.2280 C   0  0  0  0  0  2  0  0  0  0  0  0
  190.5500  175.5110  147.3920 C   0  0  0  0  0  2  0  0  0  0  0  0
  192.6980  176.5430  147.1980 F   0  0  0  0  0  0  0  0  0  0  0  0
  192.0390  175.3260  147.1300 C   0  0  2  0  0  3  0  0  0  0  0  0
  192.2760  174.6600  145.7810 C   0  0  0  0  0  2  0  0  0  0  0  0
  196.0400  174.6500  145.3560 C   0  0  0  0  0  0  0  0  0  0  0  0
  195.0770  176.1260  143.6950 C   0  0  0  0  0  3  0  0  0  0  0  0
  197.1240  174.0690  145.9220 F   0  0  0  0  0  0  0  0  0  0  0  0
  194.7610  174.3700  145.8490 C   0  0  0  0  0  3  0  0  0  0  0  0
  193.7980  175.8470  144.1870 C   0  0  0  0  0  3  0  0  0  0  0  0
  193.6390  174.9700  145.2660 C   0  0  0  0  0  0  0  0  0  0  0  0
  196.1980  175.5280  144.2800 C   0  0  0  0  0  3  0  0  0  0  0  0
  1  7  2  0  0  0  0
  1 12  1  0  0  0  0
  2  1  1  0  0  0  0
  3  4  1  0  0  0  0
  4  2  2  0  0  0  0
  5  9  1  0  0  0  0
  6  8  1  0  0  0  0
  7 20  1  0  0  0  0
  8 11  1  0  0  0  0
  8  3  2  0  0  0  0
  9  7  1  0  0  0  0
 10  5  2  0  0  0  0
 10  2  1  0  0  0  0
 11 10  1  0  0  0  0
 12 14  1  0  0  0  0
 14 13  1  6  0  0  0
 15 16  1  0  0  0  0
 15 14  1  0  0  0  0
 17 18  1  6  0  0  0
 17 16  1  0  0  0  0
 19 17  1  0  0  0  0
 20 21  1  0  0  0  0
 23 22  1  6  0  0  0
 23 21  1  0  0  0  0
 24 23  1  0  0  0  0
 25 28  1  0  0  0  0
 25 27  1  0  0  0  0
 26 29  2  0  0  0  0
 26 31  1  0  0  0  0
 29 30  1  0  0  0  0
 30 24  1  0  0  0  0
 30 28  2  0  0  0  0
 31 25  2  0  0  0  0
M  END
>  <MODEL>
8

>  <REMARK>
 VINA RESULT:      -6.5      1.903      2.547
  Name = 
  10 active torsions:
  status: ('A' for Active; 'I' for Inactive)
    1  A    between atoms: C_2  and  C_13
    2  A    between atoms: C_3  and  C_9
    3  A    between atoms: C_3  and  C_22
    4  A    between atoms: C_4  and  N_12
    5  A    between atoms: C_9  and  C_23
    6  A    between atoms: N_12  and  C_27
    7  A    between atoms: C_13  and  C_28
    8  A    between atoms: C_15  and  C_21
    9  A    between atoms: C_15  and  C_23
   10  A    between atoms: C_27  and  C_28
                            x       y       z     vdW  Elec       q    Type
                         _______ _______ _______ _____ _____    ______ ____

>  <TORSDO>
F 10

$$$$
=
 OpenBabel11052417453D

 31 33  0  0  1  0  0  0  0  0999 V2000
  188.5870  175.3580  142.6520 C   0  0  0  0  0  0  0  0  0  0  0  0
  189.1620  174.0020  142.5020 C   0  0  0  0  0  0  0  0  0  0  0  0
  190.3040  172.0670  143.4270 C   0  0  0  0  0  3  0  0  0  0  0  0
  189.7720  173.3500  143.5850 C   0  0  0  0  0  3  0  0  0  0  0  0
  188.4700  174.0180  140.1710 N   0  0  0  0  0  0  0  0  0  0  0  0
  190.7560  170.1510  142.0320 O   0  0  0  0  0  1  0  0  0  0  0  0
  188.0370  175.9640  141.5690 C   0  0  0  0  0  0  0  0  0  0  0  0
  190.2270  171.4260  142.1870 C   0  0  0  0  0  0  0  0  0  0  0  0
  187.9660  175.2930  140.3380 O   0  0  0  0  0  0  0  0  0  0  0  0
  189.0920  173.3490  141.2640 C   0  0  0  0  0  0  0  0  0  0  0  0
  189.6200  172.0670  141.1030 C   0  0  0  0  0  2  0  0  0  0  0  0
  188.6820  175.9890  143.9440 N   0  0  0  0  0  2  0  0  0  0  0  0
  188.8910  178.1010  144.8990 O   0  0  0  0  0  1  0  0  0  0  0  0
  189.6040  177.0520  144.3210 C   0  0  1  0  0  3  0  0  0  0  0  0
  190.6190  176.5260  145.3160 C   0  0  0  0  0  2  0  0  0  0  0  0
  190.1060  176.7130  146.7330 C   0  0  0  0  0  2  0  0  0  0  0  0
  190.2540  175.4240  147.5210 C   0  0  2  0  0  3  0  0  0  0  0  0
  191.4720  174.8440  147.2230 F   0  0  0  0  0  0  0  0  0  0  0  0
  189.1870  174.5040  147.1710 N   0  0  0  0  0  1  0  0  0  0  0  0
  187.5100  177.3610  141.6090 C   0  0  0  0  0  2  0  0  0  0  0  0
  186.0070  177.3480  141.8510 C   0  0  0  0  0  2  0  0  0  0  0  0
  186.6230  179.2730  143.1260 F   0  0  0  0  0  0  0  0  0  0  0  0
  185.5430  178.6040  142.5760 C   0  0  2  0  0  3  0  0  0  0  0  0
  184.5160  178.2650  143.6490 C   0  0  0  0  0  2  0  0  0  0  0  0
  185.8920  179.0120  147.0980 C   0  0  0  0  0  0  0  0  0  0  0  0
  186.2510  176.6670  146.6130 C   0  0  0  0  0  3  0  0  0  0  0  0
  186.0080  180.0680  147.9390 F   0  0  0  0  0  0  0  0  0  0  0  0
  185.2900  179.1790  145.8470 C   0  0  0  0  0  3  0  0  0  0  0  0
  185.6500  176.8330  145.3620 C   0  0  0  0  0  3  0  0  0  0  0  0
  185.1710  178.0900  144.9760 C   0  0  0  0  0  0  0  0  0  0  0  0
  186.3720  177.7560  147.4810 C   0  0  0  0  0  3  0  0  0  0  0  0
  1 12  1  0  0  0  0
  2  1  1  0  0  0  0
  2  4  2  0  0  0  0
  3  4  1  0  0  0  0
  5  9  1  0  0  0  0
  5 10  2  0  0  0  0
  6  8  1  0  0  0  0
  7 20  1  0  0  0  0
  7  1  2  0  0  0  0
  8  3  2  0  0  0  0
  9  7  1  0  0  0  0
 10  2  1  0  0  0  0
 11 10  1  0  0  0  0
 11  8  1  0  0  0  0
 12 14  1  0  0  0  0
 14 13  1  1  0  0  0
 14 15  1  0  0  0  0
 15 16  1  0  0  0  0
 16 17  1  0  0  0  0
 17 19  1  6  0  0  0
 18 17  1  0  0  0  0
 20 21  1  0  0  0  0
 21 23  1  0  0  0  0
 23 22  1  1  0  0  0
 23 24  1  0  0  0  0
 24 30  1  0  0  0  0
 25 31  1  0  0  0  0
 25 27  1  0  0  0  0
 26 31  2  0  0  0  0
 28 25  2  0  0  0  0
 29 26  1  0  0  0  0
 30 29  2  0  0  0  0
 30 28  1  0  0  0  0
M  END
>  <MODEL>
9

>  <REMARK>
 VINA RESULT:      -6.5      2.535      6.529
  Name = 
  10 active torsions:
  status: ('A' for Active; 'I' for Inactive)
    1  A    between atoms: C_2  and  C_13
    2  A    between atoms: C_3  and  C_9
    3  A    between atoms: C_3  and  C_22
    4  A    between atoms: C_4  and  N_12
    5  A    between atoms: C_9  and  C_23
    6  A    between atoms: N_12  and  C_27
    7  A    between atoms: C_13  and  C_28
    8  A    between atoms: C_15  and  C_21
    9  A    between atoms: C_15  and  C_23
   10  A    between atoms: C_27  and  C_28
                            x       y       z     vdW  Elec       q    Type
                         _______ _______ _______ _____ _____    ______ ____

>  <TORSDO>
F 10

$$$$
