=
 OpenBabel11052420133D

 37 41  0  0  1  0  0  0  0  0999 V2000
  190.5830  174.4580  145.2560 O   0  0  0  0  0  0  0  0  0  0  0  0
  194.0800  174.4260  145.8980 O   0  0  0  0  0  0  0  0  0  0  0  0
  189.6410  176.8670  145.1670 C   0  0  2  0  0  0  0  0  0  0  0  0
  191.8880  174.9840  145.1660 C   0  0  1  0  0  0  0  0  0  0  0  0
  189.6630  175.3750  144.6880 C   0  0  1  0  0  3  0  0  0  0  0  0
  192.7420  174.5230  146.3220 C   0  0  2  0  0  3  0  0  0  0  0  0
  190.6230  177.6860  144.3380 C   0  0  0  0  0  1  0  0  0  0  0  0
  189.1780  175.0110  143.2640 C   0  0  2  0  0  3  0  0  0  0  0  0
  191.6880  176.8240  148.5040 C   0  0  0  0  0  1  0  0  0  0  0  0
  190.0310  177.0490  146.6630 C   0  0  0  0  0  2  0  0  0  0  0  0
  189.7970  173.8470  142.7500 O   0  0  0  0  0  0  0  0  0  0  0  0
  191.1650  176.1920  147.2300 C   0  0  1  0  0  3  0  0  0  0  0  0
  192.7430  174.7120  143.9480 C   0  0  1  0  0  3  0  0  0  0  0  0
  194.0520  174.1940  144.5100 C   0  0  1  0  0  3  0  0  0  0  0  0
  192.1610  173.6310  143.0470 C   0  0  0  0  0  2  0  0  0  0  0  0
  191.0410  174.1950  142.1980 C   0  0  0  0  0  2  0  0  0  0  0  0
  192.3090  175.9750  146.2490 C   0  0  2  0  0  3  0  0  0  0  0  0
  187.5040  178.0500  146.0440 C   0  0  0  0  0  2  0  0  0  0  0  0
  188.2320  177.4400  144.8550 C   0  0  0  0  0  3  0  0  0  0  0  0
  187.1150  176.6710  145.5410 C   0  0  0  0  0  2  0  0  0  0  0  0
  195.2380  174.8890  143.8440 C   0  0  2  0  0  3  0  0  0  0  0  0
  196.1730  175.2750  144.8090 O   0  0  0  0  0  0  0  0  0  0  0  0
  197.3240  174.5410  144.5110 C   0  0  0  0  0  1  0  0  0  0  0  0
  194.7750  176.0410  143.1490 O   0  0  0  0  0  0  0  0  0  0  0  0
  196.2820  176.9000  141.4100 N   0  0  0  0  0  1  0  0  0  0  0  0
  194.2450  175.9050  140.9210 O   0  0  0  0  0  0  0  0  0  0  0  0
  195.0650  176.2700  141.8030 C   0  0  0  0  0  0  0  0  0  0  0  0
  189.2130  176.0960  142.3660 O   0  0  0  0  0  0  0  0  0  0  0  0
  187.0510  175.0740  142.3210 C   0  0  0  0  0  1  0  0  0  0  0  0
  188.0190  176.0240  141.6370 C   0  0  1  0  0  3  0  0  0  0  0  0
  187.3900  177.3820  141.5080 C   0  0  0  0  0  0  0  0  0  0  0  0
  188.1080  178.3610  141.3660 O   0  0  0  0  0  0  0  0  0  0  0  0
  185.8970  177.5440  141.5570 C   0  0  2  0  0  3  0  0  0  0  0  0
  185.3630  177.9790  140.2030 C   0  0  0  0  0  1  0  0  0  0  0  0
  185.4980  178.5380  142.6330 C   0  0  0  0  0  2  0  0  0  0  0  0
  184.4520  178.0170  143.3950 O   0  0  0  0  0  0  0  0  0  0  0  0
  184.2420  178.9660  144.3940 C   0  0  0  0  0  1  0  0  0  0  0  0
  3  7  1  6  0  0  0
  3 10  1  0  0  0  0
  4  1  1  6  0  0  0
  4 17  1  0  0  0  0
  4  6  1  0  0  0  0
  5  3  1  0  0  0  0
  5  1  1  6  0  0  0
  6  2  1  6  0  0  0
  8 28  1  6  0  0  0
  8  5  1  0  0  0  0
 10 12  1  0  0  0  0
 11  8  1  0  0  0  0
 12  9  1  1  0  0  0
 13 15  1  6  0  0  0
 13 14  1  0  0  0  0
 13  4  1  0  0  0  0
 14 21  1  6  0  0  0
 14  2  1  0  0  0  0
 16 11  1  0  0  0  0
 16 15  1  0  0  0  0
 17  6  1  0  0  0  0
 17 12  1  0  0  0  0
 19  3  1  0  0  0  0
 19 20  1  0  0  0  0
 19 18  1  0  0  0  0
 20 18  1  0  0  0  0
 21 22  1  0  0  0  0
 23 22  1  0  0  0  0
 24 21  1  0  0  0  0
 25 27  1  0  0  0  0
 26 27  2  0  0  0  0
 27 24  1  0  0  0  0
 30 29  1  0  0  0  0
 30 28  1  0  0  0  0
 31 33  1  0  0  0  0
 31 30  1  0  0  0  0
 32 31  2  0  0  0  0
 33 35  1  0  0  0  0
 34 33  1  0  0  0  0
 35 36  1  0  0  0  0
 36 37  1  0  0  0  0
M  END
>  <MODEL>
1

>  <REMARK>
 VINA RESULT:      -6.8      0.000      0.000
  Name = 
  11 active torsions:
  status: ('A' for Active; 'I' for Inactive)
    1  A    between atoms: C_1  and  C_5
    2  A    between atoms: C_1  and  C_23
    3  A    between atoms: O_2  and  C_6
    4  A    between atoms: C_5  and  C_26
    5  A    between atoms: C_6  and  O_8
    6  A    between atoms: C_6  and  C_31
    7  A    between atoms: O_8  and  C_19
    8  A    between atoms: C_9  and  C_30
    9  A    between atoms: O_11  and  C_26
   10  A    between atoms: C_20  and  O_25
   11  A    between atoms: C_23  and  O_25
                            x       y       z     vdW  Elec       q    Type
                         _______ _______ _______ _____ _____    ______ ____

>  <TORSDO>
F 11

$$$$
=
 OpenBabel11052420133D

 37 41  0  0  1  0  0  0  0  0999 V2000
  190.6280  174.6850  145.3680 O   0  0  0  0  0  0  0  0  0  0  0  0
  194.1020  174.9030  146.0940 O   0  0  0  0  0  0  0  0  0  0  0  0
  189.5100  177.0180  145.2970 C   0  0  2  0  0  0  0  0  0  0  0  0
  191.8920  175.3090  145.3190 C   0  0  1  0  0  0  0  0  0  0  0  0
  189.6550  175.5420  144.7930 C   0  0  1  0  0  3  0  0  0  0  0  0
  192.7510  174.8920  146.4870 C   0  0  2  0  0  3  0  0  0  0  0  0
  190.4460  177.9240  144.5050 C   0  0  0  0  0  1  0  0  0  0  0  0
  189.2320  175.1690  143.3510 C   0  0  2  0  0  3  0  0  0  0  0  0
  191.4760  177.0660  148.6810 C   0  0  0  0  0  1  0  0  0  0  0  0
  189.8500  177.2010  146.8040 C   0  0  0  0  0  2  0  0  0  0  0  0
  189.9480  174.0640  142.8320 O   0  0  0  0  0  0  0  0  0  0  0  0
  191.0320  176.4210  147.3840 C   0  0  1  0  0  3  0  0  0  0  0  0
  192.7930  175.1250  144.1170 C   0  0  1  0  0  3  0  0  0  0  0  0
  194.1230  174.6960  144.7020 C   0  0  1  0  0  3  0  0  0  0  0  0
  192.3140  174.0210  143.1830 C   0  0  0  0  0  2  0  0  0  0  0  0
  191.1750  174.5150  142.3180 C   0  0  0  0  0  2  0  0  0  0  0  0
  192.2120  176.3080  146.4280 C   0  0  2  0  0  3  0  0  0  0  0  0
  187.2800  178.0470  146.1350 C   0  0  0  0  0  2  0  0  0  0  0  0
  188.0690  177.4900  144.9600 C   0  0  0  0  0  3  0  0  0  0  0  0
  186.9980  176.6440  145.6280 C   0  0  0  0  0  2  0  0  0  0  0  0
  195.2690  175.4900  144.0770 C   0  0  2  0  0  3  0  0  0  0  0  0
  194.7790  176.3280  143.0700 O   0  0  0  0  0  0  0  0  0  0  0  0
  195.7720  176.3310  142.0870 C   0  0  0  0  0  1  0  0  0  0  0  0
  196.2170  174.5870  143.5210 O   0  0  0  0  0  0  0  0  0  0  0  0
  197.6380  173.9560  145.4210 N   0  0  0  0  0  1  0  0  0  0  0  0
  196.7250  172.3960  143.9690 O   0  0  0  0  0  0  0  0  0  0  0  0
  196.8540  173.6070  144.2840 C   0  0  0  0  0  0  0  0  0  0  0  0
  189.2060  176.2700  142.4730 O   0  0  0  0  0  0  0  0  0  0  0  0
  187.1020  175.1380  142.3690 C   0  0  0  0  0  1  0  0  0  0  0  0
  188.0560  176.1040  141.6890 C   0  0  1  0  0  3  0  0  0  0  0  0
  187.3700  177.4210  141.4640 C   0  0  0  0  0  0  0  0  0  0  0  0
  188.0440  178.4110  141.2200 O   0  0  0  0  0  0  0  0  0  0  0  0
  185.8740  177.5280  141.5390 C   0  0  2  0  0  3  0  0  0  0  0  0
  185.2970  177.9150  140.1880 C   0  0  0  0  0  1  0  0  0  0  0  0
  185.4580  178.5290  142.6030 C   0  0  0  0  0  2  0  0  0  0  0  0
  184.3760  178.0290  143.3280 O   0  0  0  0  0  0  0  0  0  0  0  0
  184.1450  178.9870  144.3130 C   0  0  0  0  0  1  0  0  0  0  0  0
  3  7  1  6  0  0  0
  3 10  1  0  0  0  0
  4  1  1  6  0  0  0
  4 17  1  0  0  0  0
  4  6  1  0  0  0  0
  5  3  1  0  0  0  0
  5  1  1  6  0  0  0
  6  2  1  6  0  0  0
  8 28  1  6  0  0  0
  8  5  1  0  0  0  0
 10 12  1  0  0  0  0
 11  8  1  0  0  0  0
 12  9  1  1  0  0  0
 13 15  1  6  0  0  0
 13 14  1  0  0  0  0
 13  4  1  0  0  0  0
 14 21  1  6  0  0  0
 14  2  1  0  0  0  0
 16 11  1  0  0  0  0
 16 15  1  0  0  0  0
 17  6  1  0  0  0  0
 17 12  1  0  0  0  0
 19  3  1  0  0  0  0
 19 20  1  0  0  0  0
 19 18  1  0  0  0  0
 20 18  1  0  0  0  0
 22 21  1  0  0  0  0
 23 22  1  0  0  0  0
 24 21  1  0  0  0  0
 24 27  1  0  0  0  0
 26 27  2  0  0  0  0
 27 25  1  0  0  0  0
 30 29  1  0  0  0  0
 30 28  1  0  0  0  0
 31 33  1  0  0  0  0
 31 30  1  0  0  0  0
 32 31  2  0  0  0  0
 33 35  1  0  0  0  0
 34 33  1  0  0  0  0
 35 36  1  0  0  0  0
 36 37  1  0  0  0  0
M  END
>  <MODEL>
2

>  <REMARK>
 VINA RESULT:      -6.8      1.075      1.607
  Name = 
  11 active torsions:
  status: ('A' for Active; 'I' for Inactive)
    1  A    between atoms: C_1  and  C_5
    2  A    between atoms: C_1  and  C_23
    3  A    between atoms: O_2  and  C_6
    4  A    between atoms: C_5  and  C_26
    5  A    between atoms: C_6  and  O_8
    6  A    between atoms: C_6  and  C_31
    7  A    between atoms: O_8  and  C_19
    8  A    between atoms: C_9  and  C_30
    9  A    between atoms: O_11  and  C_26
   10  A    between atoms: C_20  and  O_25
   11  A    between atoms: C_23  and  O_25
                            x       y       z     vdW  Elec       q    Type
                         _______ _______ _______ _____ _____    ______ ____

>  <TORSDO>
F 11

$$$$
=
 OpenBabel11052420133D

 37 41  0  0  1  0  0  0  0  0999 V2000
  189.2420  178.1620  145.1110 O   0  0  0  0  0  0  0  0  0  0  0  0
  185.9430  178.3010  143.7940 O   0  0  0  0  0  0  0  0  0  0  0  0
  189.7940  175.8280  146.0830 C   0  0  2  0  0  0  0  0  0  0  0  0
  188.1130  177.6090  144.4720 C   0  0  1  0  0  0  0  0  0  0  0  0
  190.2030  177.1440  145.3370 C   0  0  1  0  0  3  0  0  0  0  0  0
  186.8520  178.3390  144.8660 C   0  0  2  0  0  3  0  0  0  0  0  0
  189.2820  174.8050  145.0750 C   0  0  0  0  0  1  0  0  0  0  0  0
  191.3870  177.1350  144.3410 C   0  0  2  0  0  3  0  0  0  0  0  0
  186.3540  176.6990  147.7350 C   0  0  0  0  0  1  0  0  0  0  0  0
  188.6760  176.0330  147.1470 C   0  0  0  0  0  2  0  0  0  0  0  0
  191.2660  178.1160  143.3280 O   0  0  0  0  0  0  0  0  0  0  0  0
  187.5260  176.9880  146.8200 C   0  0  1  0  0  3  0  0  0  0  0  0
  188.0400  177.5420  142.9620 C   0  0  1  0  0  3  0  0  0  0  0  0
  186.7030  178.1660  142.6180 C   0  0  1  0  0  3  0  0  0  0  0  0
  189.1280  178.3620  142.2820 C   0  0  0  0  0  2  0  0  0  0  0  0
  190.4460  177.6160  142.3030 C   0  0  0  0  0  2  0  0  0  0  0  0
  187.0800  176.9250  145.3650 C   0  0  2  0  0  3  0  0  0  0  0  0
  191.0920  175.1220  148.2160 C   0  0  0  0  0  2  0  0  0  0  0  0
  191.0830  175.2170  146.6970 C   0  0  0  0  0  3  0  0  0  0  0  0
  191.8790  176.2180  147.5190 C   0  0  0  0  0  2  0  0  0  0  0  0
  185.9490  177.3020  141.6090 C   0  0  2  0  0  3  0  0  0  0  0  0
  186.8480  176.7130  140.7140 O   0  0  0  0  0  0  0  0  0  0  0  0
  186.6070  177.3420  139.4910 C   0  0  0  0  0  1  0  0  0  0  0  0
  185.0320  178.1170  140.8880 O   0  0  0  0  0  0  0  0  0  0  0  0
  182.7220  177.8490  140.0990 N   0  0  0  0  0  1  0  0  0  0  0  0
  183.2430  178.3120  142.3100 O   0  0  0  0  0  0  0  0  0  0  0  0
  183.6600  178.1050  141.1410 C   0  0  0  0  0  0  0  0  0  0  0  0
  191.6840  175.8540  143.8340 O   0  0  0  0  0  0  0  0  0  0  0  0
  193.7870  176.6490  144.6480 C   0  0  0  0  0  1  0  0  0  0  0  0
  193.0600  175.8580  143.5750 C   0  0  1  0  0  3  0  0  0  0  0  0
  193.5970  174.4560  143.5270 C   0  0  0  0  0  0  0  0  0  0  0  0
  194.6780  174.2480  142.9940 O   0  0  0  0  0  0  0  0  0  0  0  0
  192.8200  173.3160  144.1220 C   0  0  2  0  0  3  0  0  0  0  0  0
  193.5720  172.7120  145.2960 C   0  0  0  0  0  1  0  0  0  0  0  0
  192.5270  172.2590  143.0730 C   0  0  0  0  0  2  0  0  0  0  0  0
  191.8810  172.8390  141.9810 O   0  0  0  0  0  0  0  0  0  0  0  0
  190.5250  172.6460  142.2350 C   0  0  0  0  0  1  0  0  0  0  0  0
  3  7  1  6  0  0  0
  3 19  1  0  0  0  0
  3 10  1  0  0  0  0
  4  6  1  0  0  0  0
  4  1  1  1  0  0  0
  4 17  1  0  0  0  0
  5  1  1  6  0  0  0
  5  3  1  0  0  0  0
  6  2  1  6  0  0  0
  6 17  1  0  0  0  0
  8 28  1  6  0  0  0
  8  5  1  0  0  0  0
 11  8  1  0  0  0  0
 12 10  1  0  0  0  0
 12  9  1  1  0  0  0
 13 15  1  6  0  0  0
 13  4  1  0  0  0  0
 14 21  1  6  0  0  0
 14 13  1  0  0  0  0
 14  2  1  0  0  0  0
 15 16  1  0  0  0  0
 16 11  1  0  0  0  0
 17 12  1  0  0  0  0
 19 20  1  0  0  0  0
 19 18  1  0  0  0  0
 20 18  1  0  0  0  0
 22 21  1  0  0  0  0
 23 22  1  0  0  0  0
 24 27  1  0  0  0  0
 24 21  1  0  0  0  0
 25 27  1  0  0  0  0
 27 26  2  0  0  0  0
 30 28  1  0  0  0  0
 30 29  1  0  0  0  0
 31 30  1  0  0  0  0
 31 33  1  0  0  0  0
 32 31  2  0  0  0  0
 33 34  1  0  0  0  0
 35 33  1  0  0  0  0
 36 37  1  0  0  0  0
 36 35  1  0  0  0  0
M  END
>  <MODEL>
3

>  <REMARK>
 VINA RESULT:      -6.4      2.915      7.488
  Name = 
  11 active torsions:
  status: ('A' for Active; 'I' for Inactive)
    1  A    between atoms: C_1  and  C_5
    2  A    between atoms: C_1  and  C_23
    3  A    between atoms: O_2  and  C_6
    4  A    between atoms: C_5  and  C_26
    5  A    between atoms: C_6  and  O_8
    6  A    between atoms: C_6  and  C_31
    7  A    between atoms: O_8  and  C_19
    8  A    between atoms: C_9  and  C_30
    9  A    between atoms: O_11  and  C_26
   10  A    between atoms: C_20  and  O_25
   11  A    between atoms: C_23  and  O_25
                            x       y       z     vdW  Elec       q    Type
                         _______ _______ _______ _____ _____    ______ ____

>  <TORSDO>
F 11

$$$$
=
 OpenBabel11052420133D

 37 41  0  0  1  0  0  0  0  0999 V2000
  191.9140  173.6710  144.3040 O   0  0  0  0  0  0  0  0  0  0  0  0
  194.5290  173.6080  141.8960 O   0  0  0  0  0  0  0  0  0  0  0  0
  191.9370  175.8530  145.6950 C   0  0  2  0  0  0  0  0  0  0  0  0
  192.7960  174.2710  143.3820 C   0  0  1  0  0  0  0  0  0  0  0  0
  191.1830  174.6790  144.9830 C   0  0  1  0  0  3  0  0  0  0  0  0
  194.0470  173.4440  143.2070 C   0  0  2  0  0  3  0  0  0  0  0  0
  192.1550  176.9950  144.7090 C   0  0  0  0  0  1  0  0  0  0  0  0
  189.7330  174.8790  144.4810 C   0  0  2  0  0  3  0  0  0  0  0  0
  195.6470  174.6200  145.8960 C   0  0  0  0  0  1  0  0  0  0  0  0
  193.3310  175.4520  146.2590 C   0  0  0  0  0  2  0  0  0  0  0  0
  189.4110  174.0560  143.3760 O   0  0  0  0  0  0  0  0  0  0  0  0
  194.2100  174.5130  145.4270 C   0  0  1  0  0  3  0  0  0  0  0  0
  192.3480  174.5590  141.9660 C   0  0  1  0  0  3  0  0  0  0  0  0
  193.4240  173.9450  141.0940 C   0  0  1  0  0  3  0  0  0  0  0  0
  191.0250  173.8900  141.6170 C   0  0  0  0  0  2  0  0  0  0  0  0
  189.8660  174.6720  142.1980 C   0  0  0  0  0  2  0  0  0  0  0  0
  194.1290  174.7760  143.9300 C   0  0  2  0  0  3  0  0  0  0  0  0
  191.6820  176.7620  148.1120 C   0  0  0  0  0  2  0  0  0  0  0  0
  190.9980  176.4130  146.7990 C   0  0  0  0  0  3  0  0  0  0  0  0
  190.8710  175.4830  147.9950 C   0  0  0  0  0  2  0  0  0  0  0  0
  193.8550  174.9200  140.0000 C   0  0  2  0  0  3  0  0  0  0  0  0
  193.2830  174.5540  138.7770 O   0  0  0  0  0  0  0  0  0  0  0  0
  194.0450  175.2140  137.8100 C   0  0  0  0  0  1  0  0  0  0  0  0
  195.2720  174.8980  139.8840 O   0  0  0  0  0  0  0  0  0  0  0  0
  197.5100  175.7480  140.4310 N   0  0  0  0  0  1  0  0  0  0  0  0
  195.5660  176.7930  141.1430 O   0  0  0  0  0  0  0  0  0  0  0  0
  196.0900  175.8410  140.5100 C   0  0  0  0  0  0  0  0  0  0  0  0
  189.3920  176.2310  144.2790 O   0  0  0  0  0  0  0  0  0  0  0  0
  187.7100  176.5140  145.9540 C   0  0  0  0  0  1  0  0  0  0  0  0
  188.0080  176.3080  144.4800 C   0  0  1  0  0  3  0  0  0  0  0  0
  187.4150  177.4330  143.6810 C   0  0  0  0  0  0  0  0  0  0  0  0
  188.1280  178.0570  142.9080 O   0  0  0  0  0  0  0  0  0  0  0  0
  185.9640  177.7960  143.8260 C   0  0  2  0  0  3  0  0  0  0  0  0
  185.2030  177.4750  142.5520 C   0  0  0  0  0  1  0  0  0  0  0  0
  185.8100  179.2630  144.1860 C   0  0  0  0  0  2  0  0  0  0  0  0
  185.7010  179.4040  145.5700 O   0  0  0  0  0  0  0  0  0  0  0  0
  184.4770  178.8180  145.8840 C   0  0  0  0  0  1  0  0  0  0  0  0
  3  7  1  6  0  0  0
  3 10  1  0  0  0  0
  3 19  1  0  0  0  0
  4 17  1  0  0  0  0
  4  1  1  1  0  0  0
  5  1  1  6  0  0  0
  5  3  1  0  0  0  0
  6  2  1  6  0  0  0
  6  4  1  0  0  0  0
  6 17  1  0  0  0  0
  8 28  1  6  0  0  0
  8  5  1  0  0  0  0
 11  8  1  0  0  0  0
 12  9  1  1  0  0  0
 12 10  1  0  0  0  0
 13 15  1  6  0  0  0
 13  4  1  0  0  0  0
 14 21  1  6  0  0  0
 14  2  1  0  0  0  0
 14 13  1  0  0  0  0
 15 16  1  0  0  0  0
 16 11  1  0  0  0  0
 17 12  1  0  0  0  0
 19 20  1  0  0  0  0
 19 18  1  0  0  0  0
 20 18  1  0  0  0  0
 22 21  1  0  0  0  0
 23 22  1  0  0  0  0
 24 21  1  0  0  0  0
 24 27  1  0  0  0  0
 25 27  1  0  0  0  0
 27 26  2  0  0  0  0
 28 30  1  0  0  0  0
 30 29  1  0  0  0  0
 31 33  1  0  0  0  0
 31 30  1  0  0  0  0
 32 31  2  0  0  0  0
 33 35  1  0  0  0  0
 34 33  1  0  0  0  0
 35 36  1  0  0  0  0
 36 37  1  0  0  0  0
M  END
>  <MODEL>
4

>  <REMARK>
 VINA RESULT:      -6.1      1.710      3.272
  Name = 
  11 active torsions:
  status: ('A' for Active; 'I' for Inactive)
    1  A    between atoms: C_1  and  C_5
    2  A    between atoms: C_1  and  C_23
    3  A    between atoms: O_2  and  C_6
    4  A    between atoms: C_5  and  C_26
    5  A    between atoms: C_6  and  O_8
    6  A    between atoms: C_6  and  C_31
    7  A    between atoms: O_8  and  C_19
    8  A    between atoms: C_9  and  C_30
    9  A    between atoms: O_11  and  C_26
   10  A    between atoms: C_20  and  O_25
   11  A    between atoms: C_23  and  O_25
                            x       y       z     vdW  Elec       q    Type
                         _______ _______ _______ _____ _____    ______ ____

>  <TORSDO>
F 11

$$$$
=
 OpenBabel11052420133D

 37 41  0  0  1  0  0  0  0  0999 V2000
  191.8960  173.6430  144.3440 O   0  0  0  0  0  0  0  0  0  0  0  0
  194.5360  173.5450  141.9650 O   0  0  0  0  0  0  0  0  0  0  0  0
  191.9140  175.8380  145.7150 C   0  0  2  0  0  0  0  0  0  0  0  0
  192.7910  174.2300  143.4260 C   0  0  1  0  0  0  0  0  0  0  0  0
  191.1630  174.6600  145.0060 C   0  0  1  0  0  3  0  0  0  0  0  0
  194.0390  173.3960  143.2720 C   0  0  2  0  0  3  0  0  0  0  0  0
  192.1480  176.9690  144.7200 C   0  0  0  0  0  1  0  0  0  0  0  0
  189.7180  174.8630  144.4870 C   0  0  2  0  0  3  0  0  0  0  0  0
  195.6160  174.5910  145.9650 C   0  0  0  0  0  1  0  0  0  0  0  0
  193.3010  175.4360  146.2960 C   0  0  0  0  0  2  0  0  0  0  0  0
  189.4040  174.0300  143.3870 O   0  0  0  0  0  0  0  0  0  0  0  0
  194.1840  174.4860  145.4830 C   0  0  1  0  0  3  0  0  0  0  0  0
  192.3580  174.5070  142.0020 C   0  0  1  0  0  3  0  0  0  0  0  0
  193.4400  173.8790  141.1470 C   0  0  1  0  0  3  0  0  0  0  0  0
  191.0350  173.8400  141.6470 C   0  0  0  0  0  2  0  0  0  0  0  0
  189.8740  174.6330  142.2080 C   0  0  0  0  0  2  0  0  0  0  0  0
  194.1200  174.7340  143.9820 C   0  0  2  0  0  3  0  0  0  0  0  0
  191.6390  176.7730  148.1200 C   0  0  0  0  0  2  0  0  0  0  0  0
  190.9670  176.4130  146.8030 C   0  0  0  0  0  3  0  0  0  0  0  0
  190.8240  175.4960  148.0070 C   0  0  0  0  0  2  0  0  0  0  0  0
  193.8860  174.8420  140.0490 C   0  0  2  0  0  3  0  0  0  0  0  0
  193.2360  174.5370  138.8490 O   0  0  0  0  0  0  0  0  0  0  0  0
  193.9690  173.4830  138.2980 C   0  0  0  0  0  1  0  0  0  0  0  0
  195.2930  174.7260  139.8670 O   0  0  0  0  0  0  0  0  0  0  0  0
  195.8060  176.6740  141.2700 N   0  0  0  0  0  1  0  0  0  0  0  0
  197.3500  175.7380  139.8150 O   0  0  0  0  0  0  0  0  0  0  0  0
  196.1870  175.7090  140.2930 C   0  0  0  0  0  0  0  0  0  0  0  0
  189.3860  176.2140  144.2680 O   0  0  0  0  0  0  0  0  0  0  0  0
  187.9630  177.3790  145.7970 C   0  0  0  0  0  1  0  0  0  0  0  0
  188.0550  176.3500  144.6840 C   0  0  1  0  0  3  0  0  0  0  0  0
  187.1780  176.7640  143.5370 C   0  0  0  0  0  0  0  0  0  0  0  0
  186.3070  176.0000  143.1450 O   0  0  0  0  0  0  0  0  0  0  0  0
  187.3640  178.0980  142.8710 C   0  0  2  0  0  3  0  0  0  0  0  0
  186.1110  178.9450  143.0130 C   0  0  0  0  0  1  0  0  0  0  0  0
  187.7300  177.9230  141.4080 C   0  0  0  0  0  2  0  0  0  0  0  0
  186.6090  178.1510  140.6080 O   0  0  0  0  0  0  0  0  0  0  0  0
  186.6690  177.1570  139.6340 C   0  0  0  0  0  1  0  0  0  0  0  0
  3  7  1  6  0  0  0
  3 10  1  0  0  0  0
  3 19  1  0  0  0  0
  4 17  1  0  0  0  0
  4  1  1  1  0  0  0
  5  1  1  6  0  0  0
  5  3  1  0  0  0  0
  6  2  1  6  0  0  0
  6  4  1  0  0  0  0
  6 17  1  0  0  0  0
  8 28  1  6  0  0  0
  8  5  1  0  0  0  0
 11  8  1  0  0  0  0
 12  9  1  1  0  0  0
 12 10  1  0  0  0  0
 13 15  1  6  0  0  0
 13  4  1  0  0  0  0
 14 21  1  6  0  0  0
 14  2  1  0  0  0  0
 14 13  1  0  0  0  0
 15 16  1  0  0  0  0
 16 11  1  0  0  0  0
 17 12  1  0  0  0  0
 19 20  1  0  0  0  0
 19 18  1  0  0  0  0
 20 18  1  0  0  0  0
 22 21  1  0  0  0  0
 23 22  1  0  0  0  0
 24 21  1  0  0  0  0
 24 27  1  0  0  0  0
 26 27  2  0  0  0  0
 27 25  1  0  0  0  0
 28 30  1  0  0  0  0
 30 29  1  0  0  0  0
 31 30  1  0  0  0  0
 32 31  2  0  0  0  0
 33 34  1  0  0  0  0
 33 31  1  0  0  0  0
 35 33  1  0  0  0  0
 36 35  1  0  0  0  0
 37 36  1  0  0  0  0
M  END
>  <MODEL>
5

>  <REMARK>
 VINA RESULT:      -6.1      1.763      3.471
  Name = 
  11 active torsions:
  status: ('A' for Active; 'I' for Inactive)
    1  A    between atoms: C_1  and  C_5
    2  A    between atoms: C_1  and  C_23
    3  A    between atoms: O_2  and  C_6
    4  A    between atoms: C_5  and  C_26
    5  A    between atoms: C_6  and  O_8
    6  A    between atoms: C_6  and  C_31
    7  A    between atoms: O_8  and  C_19
    8  A    between atoms: C_9  and  C_30
    9  A    between atoms: O_11  and  C_26
   10  A    between atoms: C_20  and  O_25
   11  A    between atoms: C_23  and  O_25
                            x       y       z     vdW  Elec       q    Type
                         _______ _______ _______ _____ _____    ______ ____

>  <TORSDO>
F 11

$$$$
=
 OpenBabel11052420133D

 37 41  0  0  1  0  0  0  0  0999 V2000
  188.4900  177.8980  142.9970 O   0  0  0  0  0  0  0  0  0  0  0  0
  187.4340  175.6520  140.4510 O   0  0  0  0  0  0  0  0  0  0  0  0
  187.1160  177.6070  145.1700 C   0  0  2  0  0  0  0  0  0  0  0  0
  187.9770  176.6710  142.5280 C   0  0  1  0  0  0  0  0  0  0  0  0
  188.4520  177.9170  144.4140 C   0  0  1  0  0  3  0  0  0  0  0  0
  187.2960  176.8390  141.1920 C   0  0  2  0  0  3  0  0  0  0  0  0
  187.0000  176.1070  145.4130 C   0  0  0  0  0  1  0  0  0  0  0  0
  189.8130  177.6530  145.1040 C   0  0  2  0  0  3  0  0  0  0  0  0
  184.3660  177.9000  142.4000 C   0  0  0  0  0  1  0  0  0  0  0  0
  185.8410  178.0520  144.3960 C   0  0  0  0  0  2  0  0  0  0  0  0
  190.8530  177.3710  144.1860 O   0  0  0  0  0  0  0  0  0  0  0  0
  185.8020  177.8500  142.8790 C   0  0  1  0  0  3  0  0  0  0  0  0
  188.8920  175.4830  142.3260 C   0  0  1  0  0  3  0  0  0  0  0  0
  188.6000  175.0150  140.9150 C   0  0  1  0  0  3  0  0  0  0  0  0
  190.3670  175.8540  142.4000 C   0  0  0  0  0  2  0  0  0  0  0  0
  190.8030  176.0100  143.8410 C   0  0  0  0  0  2  0  0  0  0  0  0
  186.4580  176.5530  142.4240 C   0  0  2  0  0  3  0  0  0  0  0  0
  186.2790  177.6730  147.6250 C   0  0  0  0  0  2  0  0  0  0  0  0
  187.2080  178.2630  146.5740 C   0  0  0  0  0  3  0  0  0  0  0  0
  185.9370  178.9990  146.9680 C   0  0  0  0  0  2  0  0  0  0  0  0
  188.4130  173.5000  140.8770 C   0  0  2  0  0  3  0  0  0  0  0  0
  188.4410  172.9790  142.1750 O   0  0  0  0  0  0  0  0  0  0  0  0
  189.4130  171.9770  142.1430 C   0  0  0  0  0  1  0  0  0  0  0  0
  189.4620  172.9170  140.1120 O   0  0  0  0  0  0  0  0  0  0  0  0
  188.5930  173.3060  137.8490 N   0  0  0  0  0  1  0  0  0  0  0  0
  190.8460  173.4800  138.3720 O   0  0  0  0  0  0  0  0  0  0  0  0
  189.6780  173.2370  138.7710 C   0  0  0  0  0  0  0  0  0  0  0  0
  189.7360  176.7160  146.1530 O   0  0  0  0  0  0  0  0  0  0  0  0
  190.4160  177.7360  148.2070 C   0  0  0  0  0  1  0  0  0  0  0  0
  190.8470  176.9690  146.9690 C   0  0  1  0  0  3  0  0  0  0  0  0
  191.5130  175.6850  147.3750 C   0  0  0  0  0  0  0  0  0  0  0  0
  190.9140  174.9060  148.1020 O   0  0  0  0  0  0  0  0  0  0  0  0
  192.8990  175.3570  146.8990 C   0  0  2  0  0  3  0  0  0  0  0  0
  193.6200  176.6150  146.4460 C   0  0  0  0  0  1  0  0  0  0  0  0
  192.8560  174.3330  145.7780 C   0  0  0  0  0  2  0  0  0  0  0  0
  194.1290  173.8020  145.5700 O   0  0  0  0  0  0  0  0  0  0  0  0
  193.9290  172.4240  145.5310 C   0  0  0  0  0  1  0  0  0  0  0  0
  2 14  1  0  0  0  0
  3  7  1  1  0  0  0
  3 19  1  0  0  0  0
  4  1  1  1  0  0  0
  5  1  1  6  0  0  0
  5  8  1  0  0  0  0
  5  3  1  0  0  0  0
  6  2  1  6  0  0  0
  6 17  1  0  0  0  0
  6  4  1  0  0  0  0
  8 28  1  1  0  0  0
 10  3  1  0  0  0  0
 11  8  1  0  0  0  0
 12  9  1  1  0  0  0
 12 10  1  0  0  0  0
 13 15  1  6  0  0  0
 13  4  1  0  0  0  0
 14 21  1  1  0  0  0
 14 13  1  0  0  0  0
 15 16  1  0  0  0  0
 16 11  1  0  0  0  0
 17  4  1  0  0  0  0
 17 12  1  0  0  0  0
 19 20  1  0  0  0  0
 19 18  1  0  0  0  0
 20 18  1  0  0  0  0
 21 22  1  0  0  0  0
 23 22  1  0  0  0  0
 24 21  1  0  0  0  0
 25 27  1  0  0  0  0
 26 27  2  0  0  0  0
 27 24  1  0  0  0  0
 28 30  1  0  0  0  0
 30 31  1  0  0  0  0
 30 29  1  0  0  0  0
 31 32  2  0  0  0  0
 33 31  1  0  0  0  0
 34 33  1  0  0  0  0
 35 33  1  0  0  0  0
 36 35  1  0  0  0  0
 37 36  1  0  0  0  0
M  END
>  <MODEL>
6

>  <REMARK>
 VINA RESULT:      -6.1      2.637      6.797
  Name = 
  11 active torsions:
  status: ('A' for Active; 'I' for Inactive)
    1  A    between atoms: C_1  and  C_5
    2  A    between atoms: C_1  and  C_23
    3  A    between atoms: O_2  and  C_6
    4  A    between atoms: C_5  and  C_26
    5  A    between atoms: C_6  and  O_8
    6  A    between atoms: C_6  and  C_31
    7  A    between atoms: O_8  and  C_19
    8  A    between atoms: C_9  and  C_30
    9  A    between atoms: O_11  and  C_26
   10  A    between atoms: C_20  and  O_25
   11  A    between atoms: C_23  and  O_25
                            x       y       z     vdW  Elec       q    Type
                         _______ _______ _______ _____ _____    ______ ____

>  <TORSDO>
F 11

$$$$
=
 OpenBabel11052420133D

 37 41  0  0  1  0  0  0  0  0999 V2000
  190.9950  172.9540  144.8070 O   0  0  0  0  0  0  0  0  0  0  0  0
  191.9460  170.1930  142.7800 O   0  0  0  0  0  0  0  0  0  0  0  0
  192.7790  174.8280  144.7820 C   0  0  2  0  0  0  0  0  0  0  0  0
  191.6250  172.3630  143.6920 C   0  0  1  0  0  0  0  0  0  0  0  0
  191.2910  174.3400  144.8390 C   0  0  1  0  0  3  0  0  0  0  0  0
  192.0040  170.9300  143.9760 C   0  0  2  0  0  3  0  0  0  0  0  0
  193.2060  175.0020  143.3290 C   0  0  0  0  0  1  0  0  0  0  0  0
  190.1530  175.2600  144.3340 C   0  0  2  0  0  3  0  0  0  0  0  0
  194.8670  171.6100  145.5590 C   0  0  0  0  0  1  0  0  0  0  0  0
  193.7860  173.8470  145.4490 C   0  0  0  0  0  2  0  0  0  0  0  0
  189.0290  174.5400  143.8630 O   0  0  0  0  0  0  0  0  0  0  0  0
  193.5780  172.3440  145.2500 C   0  0  1  0  0  3  0  0  0  0  0  0
  190.9170  172.2980  142.3570 C   0  0  1  0  0  3  0  0  0  0  0  0
  191.0220  170.8430  141.9430 C   0  0  1  0  0  3  0  0  0  0  0  0
  189.4390  172.6520  142.4530 C   0  0  0  0  0  2  0  0  0  0  0  0
  189.2580  174.1530  142.5320 C   0  0  0  0  0  2  0  0  0  0  0  0
  193.0930  171.9780  143.8530 C   0  0  2  0  0  3  0  0  0  0  0  0
  193.9450  176.4540  146.4340 C   0  0  0  0  0  2  0  0  0  0  0  0
  192.8330  176.2440  145.4170 C   0  0  0  0  0  3  0  0  0  0  0  0
  192.5170  176.2390  146.9040 C   0  0  0  0  0  2  0  0  0  0  0  0
  191.4680  170.7280  140.4870 C   0  0  2  0  0  3  0  0  0  0  0  0
  192.0550  171.9260  140.0670 O   0  0  0  0  0  0  0  0  0  0  0  0
  193.3840  171.6000  139.7870 C   0  0  0  0  0  1  0  0  0  0  0  0
  190.3380  170.4440  139.6710 O   0  0  0  0  0  0  0  0  0  0  0  0
  190.3410  171.3430  137.3860 N   0  0  0  0  0  1  0  0  0  0  0  0
  188.9600  172.1710  139.0550 O   0  0  0  0  0  0  0  0  0  0  0  0
  189.8510  171.3470  138.7250 C   0  0  0  0  0  0  0  0  0  0  0  0
  190.5910  176.2500  143.4330 O   0  0  0  0  0  0  0  0  0  0  0  0
  190.9820  178.5750  143.8310 C   0  0  0  0  0  1  0  0  0  0  0  0
  189.9750  177.4380  143.8450 C   0  0  1  0  0  3  0  0  0  0  0  0
  188.8160  177.7760  142.9510 C   0  0  0  0  0  0  0  0  0  0  0  0
  189.0340  178.1620  141.8120 O   0  0  0  0  0  0  0  0  0  0  0  0
  187.4030  177.6470  143.4450 C   0  0  2  0  0  3  0  0  0  0  0  0
  186.5110  178.6870  142.7880 C   0  0  0  0  0  1  0  0  0  0  0  0
  187.3480  177.7740  144.9570 C   0  0  0  0  0  2  0  0  0  0  0  0
  186.8840  176.5830  145.5170 O   0  0  0  0  0  0  0  0  0  0  0  0
  187.5570  176.4850  146.7330 C   0  0  0  0  0  1  0  0  0  0  0  0
  3  7  1  6  0  0  0
  3  5  1  0  0  0  0
  3 19  1  0  0  0  0
  3 10  1  0  0  0  0
  4 17  1  0  0  0  0
  4  6  1  0  0  0  0
  4  1  1  1  0  0  0
  5  1  1  6  0  0  0
  6  2  1  6  0  0  0
  8 28  1  6  0  0  0
  8  5  1  0  0  0  0
 11  8  1  0  0  0  0
 12 10  1  0  0  0  0
 12  9  1  6  0  0  0
 13 15  1  1  0  0  0
 13  4  1  0  0  0  0
 14 21  1  6  0  0  0
 14 13  1  0  0  0  0
 14  2  1  0  0  0  0
 15 16  1  0  0  0  0
 16 11  1  0  0  0  0
 17  6  1  0  0  0  0
 17 12  1  0  0  0  0
 18 20  1  0  0  0  0
 19 18  1  0  0  0  0
 19 20  1  0  0  0  0
 22 21  1  0  0  0  0
 23 22  1  0  0  0  0
 24 21  1  0  0  0  0
 25 27  1  0  0  0  0
 27 26  2  0  0  0  0
 27 24  1  0  0  0  0
 28 30  1  0  0  0  0
 29 30  1  0  0  0  0
 31 33  1  0  0  0  0
 31 30  1  0  0  0  0
 32 31  2  0  0  0  0
 33 35  1  0  0  0  0
 34 33  1  0  0  0  0
 35 36  1  0  0  0  0
 36 37  1  0  0  0  0
M  END
>  <MODEL>
7

>  <REMARK>
 VINA RESULT:      -6.1      2.836      4.842
  Name = 
  11 active torsions:
  status: ('A' for Active; 'I' for Inactive)
    1  A    between atoms: C_1  and  C_5
    2  A    between atoms: C_1  and  C_23
    3  A    between atoms: O_2  and  C_6
    4  A    between atoms: C_5  and  C_26
    5  A    between atoms: C_6  and  O_8
    6  A    between atoms: C_6  and  C_31
    7  A    between atoms: O_8  and  C_19
    8  A    between atoms: C_9  and  C_30
    9  A    between atoms: O_11  and  C_26
   10  A    between atoms: C_20  and  O_25
   11  A    between atoms: C_23  and  O_25
                            x       y       z     vdW  Elec       q    Type
                         _______ _______ _______ _____ _____    ______ ____

>  <TORSDO>
F 11

$$$$
=
 OpenBabel11052420133D

 37 41  0  0  1  0  0  0  0  0999 V2000
  191.0630  174.3310  144.2370 O   0  0  0  0  0  0  0  0  0  0  0  0
  194.4450  174.3650  143.1410 O   0  0  0  0  0  0  0  0  0  0  0  0
  190.2450  176.6910  144.9150 C   0  0  2  0  0  0  0  0  0  0  0  0
  192.1810  174.9180  143.6100 C   0  0  1  0  0  0  0  0  0  0  0  0
  190.0040  175.2720  144.2940 C   0  0  1  0  0  3  0  0  0  0  0  0
  193.4710  174.3530  144.1560 C   0  0  2  0  0  3  0  0  0  0  0  0
  190.7340  177.6470  143.8330 C   0  0  0  0  0  1  0  0  0  0  0  0
  188.8950  175.0670  143.2350 C   0  0  2  0  0  3  0  0  0  0  0  0
  193.6260  176.3210  146.8520 C   0  0  0  0  0  1  0  0  0  0  0  0
  191.3000  176.7030  146.0590 C   0  0  0  0  0  2  0  0  0  0  0  0
  189.1700  174.0020  142.3440 O   0  0  0  0  0  0  0  0  0  0  0  0
  192.5480  175.8300  145.9070 C   0  0  1  0  0  3  0  0  0  0  0  0
  192.3510  174.8350  142.1090 C   0  0  1  0  0  3  0  0  0  0  0  0
  193.7580  174.3070  141.9150 C   0  0  1  0  0  3  0  0  0  0  0  0
  191.3880  173.8510  141.4590 C   0  0  0  0  0  2  0  0  0  0  0  0
  190.0120  174.4680  141.3200 C   0  0  0  0  0  2  0  0  0  0  0  0
  193.0860  175.7840  144.4830 C   0  0  2  0  0  3  0  0  0  0  0  0
  188.8080  177.6790  146.8360 C   0  0  0  0  0  2  0  0  0  0  0  0
  188.8690  177.2390  145.3810 C   0  0  0  0  0  3  0  0  0  0  0  0
  188.1990  176.3520  146.4190 C   0  0  0  0  0  2  0  0  0  0  0  0
  194.5020  175.1270  140.8640 C   0  0  2  0  0  3  0  0  0  0  0  0
  194.5500  176.4710  141.2480 O   0  0  0  0  0  0  0  0  0  0  0  0
  195.9100  176.7900  141.2790 C   0  0  0  0  0  1  0  0  0  0  0  0
  193.8240  175.0170  139.6170 O   0  0  0  0  0  0  0  0  0  0  0  0
  193.8100  175.4320  137.1980 N   0  0  0  0  0  1  0  0  0  0  0  0
  195.7210  174.7960  138.3470 O   0  0  0  0  0  0  0  0  0  0  0  0
  194.4940  175.0670  138.3940 C   0  0  0  0  0  0  0  0  0  0  0  0
  188.5240  176.2550  142.5740 O   0  0  0  0  0  0  0  0  0  0  0  0
  186.3920  175.5610  143.4060 C   0  0  0  0  0  1  0  0  0  0  0  0
  187.1790  176.0880  142.2200 C   0  0  1  0  0  3  0  0  0  0  0  0
  186.5850  177.3880  141.7550 C   0  0  0  0  0  0  0  0  0  0  0  0
  187.0230  177.9160  140.7430 O   0  0  0  0  0  0  0  0  0  0  0  0
  185.4690  178.0390  142.5210 C   0  0  2  0  0  3  0  0  0  0  0  0
  184.2760  178.2910  141.6160 C   0  0  0  0  0  1  0  0  0  0  0  0
  185.9380  179.3340  143.1600 C   0  0  0  0  0  2  0  0  0  0  0  0
  185.0550  179.7120  144.1720 O   0  0  0  0  0  0  0  0  0  0  0  0
  185.5170  179.0430  145.3040 C   0  0  0  0  0  1  0  0  0  0  0  0
  3  7  1  6  0  0  0
  3 19  1  0  0  0  0
  3 10  1  0  0  0  0
  4  6  1  0  0  0  0
  4  1  1  1  0  0  0
  4 17  1  0  0  0  0
  5  1  1  6  0  0  0
  5  3  1  0  0  0  0
  6  2  1  6  0  0  0
  6 17  1  0  0  0  0
  8 28  1  6  0  0  0
  8  5  1  0  0  0  0
 11  8  1  0  0  0  0
 12 10  1  0  0  0  0
 12  9  1  1  0  0  0
 13 15  1  1  0  0  0
 13  4  1  0  0  0  0
 14 21  1  6  0  0  0
 14 13  1  0  0  0  0
 14  2  1  0  0  0  0
 16 15  1  0  0  0  0
 16 11  1  0  0  0  0
 17 12  1  0  0  0  0
 19 20  1  0  0  0  0
 19 18  1  0  0  0  0
 20 18  1  0  0  0  0
 21 22  1  0  0  0  0
 22 23  1  0  0  0  0
 24 21  1  0  0  0  0
 25 27  1  0  0  0  0
 26 27  2  0  0  0  0
 27 24  1  0  0  0  0
 30 28  1  0  0  0  0
 30 29  1  0  0  0  0
 31 30  1  0  0  0  0
 31 33  1  0  0  0  0
 32 31  2  0  0  0  0
 33 35  1  0  0  0  0
 34 33  1  0  0  0  0
 35 36  1  0  0  0  0
 36 37  1  0  0  0  0
M  END
>  <MODEL>
8

>  <REMARK>
 VINA RESULT:      -6.1      1.681      2.212
  Name = 
  11 active torsions:
  status: ('A' for Active; 'I' for Inactive)
    1  A    between atoms: C_1  and  C_5
    2  A    between atoms: C_1  and  C_23
    3  A    between atoms: O_2  and  C_6
    4  A    between atoms: C_5  and  C_26
    5  A    between atoms: C_6  and  O_8
    6  A    between atoms: C_6  and  C_31
    7  A    between atoms: O_8  and  C_19
    8  A    between atoms: C_9  and  C_30
    9  A    between atoms: O_11  and  C_26
   10  A    between atoms: C_20  and  O_25
   11  A    between atoms: C_23  and  O_25
                            x       y       z     vdW  Elec       q    Type
                         _______ _______ _______ _____ _____    ______ ____

>  <TORSDO>
F 11

$$$$
=
 OpenBabel11052420133D

 37 41  0  0  1  0  0  0  0  0999 V2000
  190.3750  176.4640  142.3890 O   0  0  0  0  0  0  0  0  0  0  0  0
  188.6140  173.8730  140.7070 O   0  0  0  0  0  0  0  0  0  0  0  0
  190.1230  176.2910  144.9580 C   0  0  2  0  0  0  0  0  0  0  0  0
  189.8680  175.1540  142.2680 C   0  0  1  0  0  0  0  0  0  0  0  0
  190.9510  176.6320  143.6730 C   0  0  1  0  0  3  0  0  0  0  0  0
  188.6620  175.1170  141.3620 C   0  0  2  0  0  3  0  0  0  0  0  0
  190.3120  174.8210  145.3150 C   0  0  0  0  0  1  0  0  0  0  0  0
  192.4970  176.5630  143.7060 C   0  0  2  0  0  3  0  0  0  0  0  0
  186.4330  176.0430  143.6740 C   0  0  0  0  0  1  0  0  0  0  0  0
  188.5940  176.5380  144.8010 C   0  0  0  0  0  2  0  0  0  0  0  0
  193.0650  176.2750  142.4420 O   0  0  0  0  0  0  0  0  0  0  0  0
  187.9290  176.1700  143.4720 C   0  0  1  0  0  3  0  0  0  0  0  0
  190.7470  174.0350  141.7530 C   0  0  1  0  0  3  0  0  0  0  0  0
  189.9350  173.3930  140.6460 C   0  0  1  0  0  3  0  0  0  0  0  0
  192.0500  174.5380  141.1470 C   0  0  0  0  0  2  0  0  0  0  0  0
  193.0430  174.8860  142.2360 C   0  0  0  0  0  2  0  0  0  0  0  0
  188.4810  174.8940  142.8520 C   0  0  2  0  0  3  0  0  0  0  0  0
  190.6520  176.4200  147.4950 C   0  0  0  0  0  2  0  0  0  0  0  0
  190.7290  177.1010  146.1370 C   0  0  0  0  0  3  0  0  0  0  0  0
  189.6860  177.5400  147.1510 C   0  0  0  0  0  2  0  0  0  0  0  0
  189.9420  171.8720  140.7840 C   0  0  2  0  0  3  0  0  0  0  0  0
  190.2580  171.5100  142.0970 O   0  0  0  0  0  0  0  0  0  0  0  0
  190.8160  170.2340  141.9970 C   0  0  0  0  0  1  0  0  0  0  0  0
  190.9110  171.3250  139.8980 O   0  0  0  0  0  0  0  0  0  0  0  0
  189.6920  170.1100  138.1470 N   0  0  0  0  0  1  0  0  0  0  0  0
  191.2450  171.7650  137.6710 O   0  0  0  0  0  0  0  0  0  0  0  0
  190.6440  171.0910  138.5480 C   0  0  0  0  0  0  0  0  0  0  0  0
  193.0000  175.7430  144.7350 O   0  0  0  0  0  0  0  0  0  0  0  0
  194.1910  176.7400  146.5530 C   0  0  0  0  0  1  0  0  0  0  0  0
  194.2310  176.3020  145.0990 C   0  0  1  0  0  3  0  0  0  0  0  0
  195.3450  175.3140  144.8980 C   0  0  0  0  0  0  0  0  0  0  0  0
  196.1690  175.5140  144.0170 O   0  0  0  0  0  0  0  0  0  0  0  0
  195.4510  174.0900  145.7630 C   0  0  2  0  0  3  0  0  0  0  0  0
  196.9040  173.7910  146.0900 C   0  0  0  0  0  1  0  0  0  0  0  0
  194.7970  172.8970  145.0900 C   0  0  0  0  0  2  0  0  0  0  0  0
  193.5450  172.6580  145.6570 O   0  0  0  0  0  0  0  0  0  0  0  0
  192.8080  172.0620  144.6350 C   0  0  0  0  0  1  0  0  0  0  0  0
  3  7  1  1  0  0  0
  3 19  1  0  0  0  0
  4  1  1  1  0  0  0
  4 17  1  0  0  0  0
  5  1  1  6  0  0  0
  5  8  1  0  0  0  0
  5  3  1  0  0  0  0
  6  2  1  6  0  0  0
  6  4  1  0  0  0  0
  6 17  1  0  0  0  0
  8 28  1  1  0  0  0
 10  3  1  0  0  0  0
 11  8  1  0  0  0  0
 12  9  1  1  0  0  0
 12 10  1  0  0  0  0
 13 15  1  6  0  0  0
 13  4  1  0  0  0  0
 14  2  1  0  0  0  0
 14 21  1  1  0  0  0
 14 13  1  0  0  0  0
 15 16  1  0  0  0  0
 16 11  1  0  0  0  0
 17 12  1  0  0  0  0
 19 20  1  0  0  0  0
 19 18  1  0  0  0  0
 20 18  1  0  0  0  0
 21 22  1  0  0  0  0
 23 22  1  0  0  0  0
 24 21  1  0  0  0  0
 25 27  1  0  0  0  0
 26 27  2  0  0  0  0
 27 24  1  0  0  0  0
 28 30  1  0  0  0  0
 30 29  1  0  0  0  0
 31 30  1  0  0  0  0
 31 33  1  0  0  0  0
 32 31  2  0  0  0  0
 33 34  1  0  0  0  0
 35 36  1  0  0  0  0
 35 33  1  0  0  0  0
 37 36  1  0  0  0  0
M  END
>  <MODEL>
9

>  <REMARK>
 VINA RESULT:      -6.0      2.743      6.862
  Name = 
  11 active torsions:
  status: ('A' for Active; 'I' for Inactive)
    1  A    between atoms: C_1  and  C_5
    2  A    between atoms: C_1  and  C_23
    3  A    between atoms: O_2  and  C_6
    4  A    between atoms: C_5  and  C_26
    5  A    between atoms: C_6  and  O_8
    6  A    between atoms: C_6  and  C_31
    7  A    between atoms: O_8  and  C_19
    8  A    between atoms: C_9  and  C_30
    9  A    between atoms: O_11  and  C_26
   10  A    between atoms: C_20  and  O_25
   11  A    between atoms: C_23  and  O_25
                            x       y       z     vdW  Elec       q    Type
                         _______ _______ _______ _____ _____    ______ ____

>  <TORSDO>
F 11

$$$$
