=
 OpenBabel11052419113D

 32 38  0  0  1  0  0  0  0  0999 V2000
  189.3850  175.9040  145.1510 C   0  0  2  0  0  3  0  0  0  0  0  0
  187.2740  177.0380  144.3330 C   0  0  2  0  0  3  0  0  0  0  0  0
  189.9960  174.9140  146.1630 C   0  0  0  0  0  2  0  0  0  0  0  0
  187.8710  176.0570  145.3460 C   0  0  2  0  0  3  0  0  0  0  0  0
  185.7600  177.1770  144.5770 C   0  0  2  0  0  3  0  0  0  0  0  0
  185.9920  176.9300  139.6610 O   0  0  0  0  0  0  0  0  0  0  0  0
  187.5570  176.5370  142.9080 C   0  0  2  0  0  3  0  0  0  0  0  0
  184.7070  178.4160  141.0760 C   0  0  0  0  0  2  0  0  0  0  0  0
  185.3930  177.5640  142.1450 C   0  0  2  0  0  3  0  0  0  0  0  0
  187.5880  176.5210  146.7810 C   0  0  1  0  0  3  0  0  0  0  0  0
  185.1120  178.0980  143.5410 C   0  0  0  0  0  2  0  0  0  0  0  0
  186.0840  176.6500  147.0170 C   0  0  0  0  0  2  0  0  0  0  0  0
  188.2270  175.6090  147.8400 C   0  0  0  0  0  2  0  0  0  0  0  0
  189.0680  176.4660  142.6930 C   0  0  0  0  0  2  0  0  0  0  0  0
  189.7180  175.5090  143.7030 C   0  0  1  0  0  3  0  0  0  0  0  0
  186.9030  177.4750  141.8860 C   0  0  2  0  0  3  0  0  0  0  0  0
  185.4520  177.6250  146.0160 C   0  0  1  0  0  3  0  0  0  0  0  0
  189.0080  174.4380  147.2340 C   0  0  0  0  0  2  0  0  0  0  0  0
  185.3540  178.1830  139.7020 C   0  0  0  0  0  2  0  0  0  0  0  0
  187.1730  177.0370  140.4290 C   0  0  0  0  0  2  0  0  0  0  0  0
  193.2710  173.9410  143.3040 C   0  0  2  0  0  3  0  0  0  0  0  0
  193.5660  176.2930  142.0110 O   0  0  0  0  0  1  0  0  0  0  0  0
  193.9020  172.5800  143.5520 C   0  0  0  0  0  1  0  0  0  0  0  0
  193.4760  176.3020  144.4450 C   0  0  2  0  0  3  0  0  0  0  0  0
  191.2310  175.3540  143.4560 C   0  0  1  0  0  3  0  0  0  0  0  0
  194.1390  174.9920  144.0090 C   0  0  2  0  0  3  0  0  0  0  0  0
  191.9540  176.4470  144.2390 C   0  0  0  0  0  2  0  0  0  0  0  0
  191.8110  173.9630  143.7570 C   0  0  1  0  0  3  0  0  0  0  0  0
  191.0350  172.8810  143.0120 C   0  0  0  0  0  1  0  0  0  0  0  0
  194.3360  176.2730  143.1810 C   0  0  1  0  0  3  0  0  0  0  0  0
  185.9040  179.0610  146.2850 C   0  0  0  0  0  2  0  0  0  0  0  0
  185.9810  179.3230  147.7770 C   0  0  0  0  0  1  0  0  0  0  0  0
  1  4  1  0  0  0  0
  1  3  1  1  0  0  0
  2  5  1  0  0  0  0
  2  4  1  0  0  0  0
  3 18  1  0  0  0  0
  4 10  1  0  0  0  0
  5 17  1  0  0  0  0
  6 19  1  0  0  0  0
  6 20  1  0  0  0  0
  7  2  1  0  0  0  0
  8  9  1  0  0  0  0
  9 11  1  0  0  0  0
 10 12  1  0  0  0  0
 10 13  1  0  0  0  0
 11  5  1  0  0  0  0
 14  7  1  0  0  0  0
 14 15  1  0  0  0  0
 15  1  1  0  0  0  0
 16  9  1  0  0  0  0
 16  7  1  0  0  0  0
 17 31  1  0  0  0  0
 17 12  1  0  0  0  0
 18 13  1  0  0  0  0
 19  8  1  0  0  0  0
 20 16  1  0  0  0  0
 21 23  1  0  0  0  0
 21 28  1  0  0  0  0
 21 26  1  0  0  0  0
 22 30  1  0  0  0  0
 25 15  1  0  0  0  0
 25 28  1  0  0  0  0
 25 27  1  0  0  0  0
 26 24  1  0  0  0  0
 27 24  1  0  0  0  0
 29 28  1  0  0  0  0
 30 26  1  0  0  0  0
 30 24  1  0  0  0  0
 31 32  1  0  0  0  0
M  END
>  <MODEL>
1

>  <REMARK>
 VINA RESULT:      -8.4      0.000      0.000
  Name = 
  2 active torsions:
  status: ('A' for Active; 'I' for Inactive)
    1  A    between atoms: C_13  and  C_29
    2  A    between atoms: C_16  and  C_27
                            x       y       z     vdW  Elec       q    Type
                         _______ _______ _______ _____ _____    ______ ____

>  <TORSDO>
F 2

$$$$
=
 OpenBabel11052419113D

 32 38  0  0  1  0  0  0  0  0999 V2000
  189.1740  174.7540  142.0160 C   0  0  2  0  0  3  0  0  0  0  0  0
  190.1910  175.7140  144.1270 C   0  0  2  0  0  3  0  0  0  0  0  0
  188.2260  175.0020  140.8250 C   0  0  0  0  0  2  0  0  0  0  0  0
  189.2430  175.9680  142.9520 C   0  0  2  0  0  3  0  0  0  0  0  0
  190.2140  176.9470  145.0500 C   0  0  2  0  0  3  0  0  0  0  0  0
  194.9830  175.7200  144.8510 O   0  0  0  0  0  0  0  0  0  0  0  0
  191.5980  175.4020  143.5920 C   0  0  2  0  0  3  0  0  0  0  0  0
  193.6240  176.3460  146.7550 C   0  0  0  0  0  2  0  0  0  0  0  0
  192.5870  176.4740  145.6400 C   0  0  2  0  0  3  0  0  0  0  0  0
  187.8320  176.3020  143.4550 C   0  0  1  0  0  3  0  0  0  0  0  0
  191.2030  176.7600  146.2030 C   0  0  0  0  0  2  0  0  0  0  0  0
  187.8630  177.5290  144.3650 C   0  0  0  0  0  2  0  0  0  0  0  0
  186.8220  176.4960  142.3140 C   0  0  0  0  0  2  0  0  0  0  0  0
  191.5370  174.1440  142.7270 C   0  0  0  0  0  2  0  0  0  0  0  0
  190.5780  174.3410  141.5440 C   0  0  1  0  0  3  0  0  0  0  0  0
  192.5710  175.2160  144.7610 C   0  0  2  0  0  3  0  0  0  0  0  0
  188.8070  177.3090  145.5540 C   0  0  1  0  0  3  0  0  0  0  0  0
  187.4400  176.3140  140.9240 C   0  0  0  0  0  2  0  0  0  0  0  0
  194.8740  175.6090  146.2500 C   0  0  0  0  0  2  0  0  0  0  0  0
  194.0010  174.8740  144.2870 C   0  0  0  0  0  2  0  0  0  0  0  0
  190.6350  170.6590  140.2470 C   0  0  2  0  0  3  0  0  0  0  0  0
  189.5590  171.9610  138.1410 O   0  0  0  0  0  1  0  0  0  0  0  0
  190.8910  169.2880  140.8520 C   0  0  0  0  0  1  0  0  0  0  0  0
  191.9440  172.2030  138.5670 C   0  0  2  0  0  3  0  0  0  0  0  0
  190.5600  173.1180  140.6070 C   0  0  1  0  0  3  0  0  0  0  0  0
  191.5330  170.7960  139.0100 C   0  0  2  0  0  3  0  0  0  0  0  0
  191.5150  173.3940  139.4480 C   0  0  0  0  0  2  0  0  0  0  0  0
  190.8570  171.7670  141.2770 C   0  0  1  0  0  3  0  0  0  0  0  0
  189.9330  171.5400  142.4690 C   0  0  0  0  0  1  0  0  0  0  0  0
  190.8300  171.4700  137.8190 C   0  0  1  0  0  3  0  0  0  0  0  0
  188.2480  176.2600  146.5150 C   0  0  0  0  0  2  0  0  0  0  0  0
  186.8790  176.6770  147.0180 C   0  0  0  0  0  1  0  0  0  0  0  0
  1  3  1  6  0  0  0
  1  4  1  0  0  0  0
  2  5  1  0  0  0  0
  3 18  1  0  0  0  0
  4 10  1  0  0  0  0
  4  2  1  0  0  0  0
  5 17  1  0  0  0  0
  5 11  1  0  0  0  0
  6 19  1  0  0  0  0
  7  2  1  0  0  0  0
  7 16  1  0  0  0  0
  9 11  1  0  0  0  0
  9  8  1  0  0  0  0
 10 12  1  0  0  0  0
 12 17  1  0  0  0  0
 13 10  1  0  0  0  0
 14  7  1  0  0  0  0
 15  1  1  0  0  0  0
 15 14  1  0  0  0  0
 16  9  1  0  0  0  0
 17 31  1  0  0  0  0
 18 13  1  0  0  0  0
 19  8  1  0  0  0  0
 20 16  1  0  0  0  0
 20  6  1  0  0  0  0
 21 23  1  0  0  0  0
 21 28  1  0  0  0  0
 24 26  1  0  0  0  0
 24 27  1  0  0  0  0
 25 28  1  0  0  0  0
 25 15  1  0  0  0  0
 26 21  1  0  0  0  0
 27 25  1  0  0  0  0
 28 29  1  0  0  0  0
 30 22  1  0  0  0  0
 30 24  1  0  0  0  0
 30 26  1  0  0  0  0
 31 32  1  0  0  0  0
M  END
>  <MODEL>
2

>  <REMARK>
 VINA RESULT:      -8.2      2.631      6.053
  Name = 
  2 active torsions:
  status: ('A' for Active; 'I' for Inactive)
    1  A    between atoms: C_13  and  C_29
    2  A    between atoms: C_16  and  C_27
                            x       y       z     vdW  Elec       q    Type
                         _______ _______ _______ _____ _____    ______ ____

>  <TORSDO>
F 2

$$$$
=
 OpenBabel11052419113D

 32 38  0  0  1  0  0  0  0  0999 V2000
  188.2490  175.4300  141.9750 C   0  0  2  0  0  3  0  0  0  0  0  0
  188.4070  176.4110  144.3040 C   0  0  2  0  0  3  0  0  0  0  0  0
  187.8160  175.6660  140.5140 C   0  0  0  0  0  2  0  0  0  0  0  0
  187.9690  176.6540  142.8570 C   0  0  2  0  0  3  0  0  0  0  0  0
  188.0900  177.6530  145.1570 C   0  0  2  0  0  3  0  0  0  0  0  0
  192.5800  176.4170  146.7690 O   0  0  0  0  0  0  0  0  0  0  0  0
  189.9100  176.0910  144.3380 C   0  0  2  0  0  3  0  0  0  0  0  0
  190.6110  177.0660  148.0200 C   0  0  0  0  0  2  0  0  0  0  0  0
  190.0660  177.1840  146.5960 C   0  0  2  0  0  3  0  0  0  0  0  0
  186.4740  176.9950  142.7930 C   0  0  1  0  0  3  0  0  0  0  0  0
  188.5740  177.4770  146.5970 C   0  0  0  0  0  2  0  0  0  0  0  0
  186.1690  178.2320  143.6360 C   0  0  0  0  0  2  0  0  0  0  0  0
  185.9660  177.1790  141.3550 C   0  0  0  0  0  2  0  0  0  0  0  0
  190.1700  174.8240  143.5240 C   0  0  0  0  0  2  0  0  0  0  0  0
  189.7250  175.0100  142.0670 C   0  0  1  0  0  3  0  0  0  0  0  0
  190.3740  175.9160  145.7880 C   0  0  2  0  0  3  0  0  0  0  0  0
  186.5990  178.0240  145.0940 C   0  0  1  0  0  3  0  0  0  0  0  0
  187.0580  176.9800  140.2990 C   0  0  0  0  0  2  0  0  0  0  0  0
  191.9550  176.3210  148.0260 C   0  0  0  0  0  2  0  0  0  0  0  0
  191.8760  175.5670  145.8870 C   0  0  0  0  0  2  0  0  0  0  0  0
  190.3400  171.3200  140.9480 C   0  0  2  0  0  3  0  0  0  0  0  0
  189.9200  172.5440  138.5790 O   0  0  0  0  0  1  0  0  0  0  0  0
  190.4510  169.9700  141.6380 C   0  0  0  0  0  1  0  0  0  0  0  0
  192.0410  172.9060  139.7190 C   0  0  2  0  0  3  0  0  0  0  0  0
  190.0520  173.7760  141.2030 C   0  0  1  0  0  3  0  0  0  0  0  0
  191.5730  171.4860  140.0490 C   0  0  2  0  0  3  0  0  0  0  0  0
  191.3080  174.0850  140.3920 C   0  0  0  0  0  2  0  0  0  0  0  0
  190.1820  172.4490  141.9670 C   0  0  1  0  0  3  0  0  0  0  0  0
  188.9420  172.1920  142.8170 C   0  0  0  0  0  1  0  0  0  0  0  0
  191.2490  172.1110  138.6810 C   0  0  1  0  0  3  0  0  0  0  0  0
  185.7140  176.9860  145.7860 C   0  0  0  0  0  2  0  0  0  0  0  0
  184.5690  177.6640  146.5130 C   0  0  0  0  0  1  0  0  0  0  0  0
  1  3  1  6  0  0  0
  1 15  1  0  0  0  0
  1  4  1  0  0  0  0
  2  7  1  0  0  0  0
  2  5  1  0  0  0  0
  4  2  1  0  0  0  0
  5 11  1  0  0  0  0
  6 19  1  0  0  0  0
  7 16  1  0  0  0  0
  8 19  1  0  0  0  0
  9 11  1  0  0  0  0
  9  8  1  0  0  0  0
 10  4  1  0  0  0  0
 10 12  1  0  0  0  0
 12 17  1  0  0  0  0
 13 10  1  0  0  0  0
 14  7  1  0  0  0  0
 15 14  1  0  0  0  0
 16 20  1  0  0  0  0
 16  9  1  0  0  0  0
 17  5  1  0  0  0  0
 17 31  1  0  0  0  0
 18  3  1  0  0  0  0
 18 13  1  0  0  0  0
 20  6  1  0  0  0  0
 21 23  1  0  0  0  0
 21 28  1  0  0  0  0
 22 30  1  0  0  0  0
 24 26  1  0  0  0  0
 24 27  1  0  0  0  0
 25 28  1  0  0  0  0
 25 15  1  0  0  0  0
 26 21  1  0  0  0  0
 27 25  1  0  0  0  0
 28 29  1  0  0  0  0
 30 24  1  0  0  0  0
 30 26  1  0  0  0  0
 31 32  1  0  0  0  0
M  END
>  <MODEL>
3

>  <REMARK>
 VINA RESULT:      -8.0      2.418      5.352
  Name = 
  2 active torsions:
  status: ('A' for Active; 'I' for Inactive)
    1  A    between atoms: C_13  and  C_29
    2  A    between atoms: C_16  and  C_27
                            x       y       z     vdW  Elec       q    Type
                         _______ _______ _______ _____ _____    ______ ____

>  <TORSDO>
F 2

$$$$
=
 OpenBabel11052419113D

 32 38  0  0  1  0  0  0  0  0999 V2000
  189.7500  175.5220  144.9970 C   0  0  2  0  0  3  0  0  0  0  0  0
  190.5100  173.8930  143.2140 C   0  0  2  0  0  3  0  0  0  0  0  0
  190.1870  176.5220  146.0870 C   0  0  0  0  0  2  0  0  0  0  0  0
  190.9550  174.8800  144.2970 C   0  0  2  0  0  3  0  0  0  0  0  0
  191.7470  173.2580  142.5520 C   0  0  2  0  0  3  0  0  0  0  0  0
  188.8530  174.1640  138.6680 O   0  0  0  0  0  0  0  0  0  0  0  0
  189.6480  174.6270  142.1750 C   0  0  2  0  0  3  0  0  0  0  0  0
  190.1460  172.1900  139.2070 C   0  0  0  0  0  2  0  0  0  0  0  0
  190.5140  173.0760  140.3970 C   0  0  2  0  0  3  0  0  0  0  0  0
  191.8350  174.1790  145.3400 C   0  0  1  0  0  3  0  0  0  0  0  0
  191.3470  172.3140  141.4170 C   0  0  0  0  0  2  0  0  0  0  0  0
  193.0630  173.5580  144.6770 C   0  0  0  0  0  2  0  0  0  0  0  0
  192.2520  175.1090  146.4900 C   0  0  0  0  0  2  0  0  0  0  0  0
  188.4080  175.1940  142.8650 C   0  0  0  0  0  2  0  0  0  0  0  0
  188.8020  176.1750  143.9770 C   0  0  1  0  0  3  0  0  0  0  0  0
  189.2560  173.6650  141.0480 C   0  0  2  0  0  3  0  0  0  0  0  0
  192.6530  172.5640  143.5830 C   0  0  1  0  0  3  0  0  0  0  0  0
  191.6970  176.5300  146.3470 C   0  0  0  0  0  2  0  0  0  0  0  0
  188.9520  172.7790  138.4420 C   0  0  0  0  0  2  0  0  0  0  0  0
  188.3640  174.3390  139.9820 C   0  0  0  0  0  2  0  0  0  0  0  0
  185.8820  178.6460  144.7550 C   0  0  2  0  0  3  0  0  0  0  0  0
  185.0580  176.4130  146.0280 O   0  0  0  0  0  1  0  0  0  0  0  0
  185.4510  180.0210  144.2700 C   0  0  0  0  0  1  0  0  0  0  0  0
  186.8680  177.7140  147.0090 C   0  0  2  0  0  3  0  0  0  0  0  0
  187.5700  176.8260  144.6350 C   0  0  1  0  0  3  0  0  0  0  0  0
  185.9310  178.6890  146.2880 C   0  0  2  0  0  3  0  0  0  0  0  0
  187.7800  176.8170  146.1470 C   0  0  0  0  0  2  0  0  0  0  0  0
  187.2090  178.2280  144.1210 C   0  0  1  0  0  3  0  0  0  0  0  0
  187.0640  178.2260  142.6020 C   0  0  0  0  0  1  0  0  0  0  0  0
  185.3680  177.4190  146.9510 C   0  0  1  0  0  3  0  0  0  0  0  0
  191.9980  171.3200  144.1850 C   0  0  0  0  0  2  0  0  0  0  0  0
  192.9590  170.1470  144.1540 C   0  0  0  0  0  1  0  0  0  0  0  0
  1  3  1  1  0  0  0
  2  4  1  0  0  0  0
  3 18  1  0  0  0  0
  4  1  1  0  0  0  0
  4 10  1  0  0  0  0
  5  2  1  0  0  0  0
  5 17  1  0  0  0  0
  6 20  1  0  0  0  0
  7 14  1  0  0  0  0
  7  2  1  0  0  0  0
  8  9  1  0  0  0  0
  9 16  1  0  0  0  0
  9 11  1  0  0  0  0
 10 13  1  0  0  0  0
 11  5  1  0  0  0  0
 12 10  1  0  0  0  0
 14 15  1  0  0  0  0
 15 25  1  0  0  0  0
 15  1  1  0  0  0  0
 16  7  1  0  0  0  0
 17 31  1  0  0  0  0
 17 12  1  0  0  0  0
 18 13  1  0  0  0  0
 19  6  1  0  0  0  0
 19  8  1  0  0  0  0
 20 16  1  0  0  0  0
 21 26  1  0  0  0  0
 22 30  1  0  0  0  0
 23 21  1  0  0  0  0
 25 27  1  0  0  0  0
 26 30  1  0  0  0  0
 26 24  1  0  0  0  0
 27 24  1  0  0  0  0
 28 25  1  0  0  0  0
 28 21  1  0  0  0  0
 29 28  1  0  0  0  0
 30 24  1  0  0  0  0
 32 31  1  0  0  0  0
M  END
>  <MODEL>
4

>  <REMARK>
 VINA RESULT:      -8.0      2.363      6.834
  Name = 
  2 active torsions:
  status: ('A' for Active; 'I' for Inactive)
    1  A    between atoms: C_13  and  C_29
    2  A    between atoms: C_16  and  C_27
                            x       y       z     vdW  Elec       q    Type
                         _______ _______ _______ _____ _____    ______ ____

>  <TORSDO>
F 2

$$$$
=
 OpenBabel11052419113D

 32 38  0  0  1  0  0  0  0  0999 V2000
  191.9700  174.8380  145.0340 C   0  0  2  0  0  3  0  0  0  0  0  0
  190.1440  174.9250  143.2830 C   0  0  2  0  0  3  0  0  0  0  0  0
  192.3010  174.8640  146.5410 C   0  0  0  0  0  2  0  0  0  0  0  0
  190.4610  174.9580  144.7800 C   0  0  2  0  0  3  0  0  0  0  0  0
  188.6250  175.0690  143.0720 C   0  0  2  0  0  3  0  0  0  0  0  0
  189.7840  171.5420  139.8320 O   0  0  0  0  0  0  0  0  0  0  0  0
  190.6600  173.6090  142.6780 C   0  0  2  0  0  3  0  0  0  0  0  0
  188.3610  173.4820  139.5640 C   0  0  0  0  0  2  0  0  0  0  0  0
  188.7630  173.6530  141.0290 C   0  0  2  0  0  3  0  0  0  0  0  0
  189.9410  176.2530  145.4170 C   0  0  1  0  0  3  0  0  0  0  0  0
  188.2580  174.9730  141.5900 C   0  0  0  0  0  2  0  0  0  0  0  0
  188.4330  176.3850  145.2100 C   0  0  0  0  0  2  0  0  0  0  0  0
  190.2960  176.3700  146.9070 C   0  0  0  0  0  2  0  0  0  0  0  0
  192.1750  173.5350  142.8620 C   0  0  0  0  0  2  0  0  0  0  0  0
  192.5470  173.5870  144.3510 C   0  0  1  0  0  3  0  0  0  0  0  0
  190.2840  173.5350  141.1940 C   0  0  2  0  0  3  0  0  0  0  0  0
  188.0780  176.3530  143.7170 C   0  0  1  0  0  3  0  0  0  0  0  0
  191.0930  175.1720  147.4320 C   0  0  0  0  0  2  0  0  0  0  0  0
  189.2420  172.4250  138.8800 C   0  0  0  0  0  2  0  0  0  0  0  0
  190.7990  172.2430  140.5220 C   0  0  0  0  0  2  0  0  0  0  0  0
  196.0100  172.1450  145.4330 C   0  0  2  0  0  3  0  0  0  0  0  0
  196.7330  173.9390  143.5500 O   0  0  0  0  0  1  0  0  0  0  0  0
  196.4950  170.9780  146.2780 C   0  0  0  0  0  1  0  0  0  0  0  0
  196.0150  174.7590  145.7280 C   0  0  2  0  0  3  0  0  0  0  0  0
  194.0640  173.4290  144.5710 C   0  0  1  0  0  3  0  0  0  0  0  0
  196.7100  173.4120  145.9440 C   0  0  2  0  0  3  0  0  0  0  0  0
  194.6060  174.7550  145.1000 C   0  0  0  0  0  2  0  0  0  0  0  0
  194.4850  172.2490  145.4590 C   0  0  1  0  0  3  0  0  0  0  0  0
  193.8820  170.9440  144.9470 C   0  0  0  0  0  1  0  0  0  0  0  0
  197.1710  174.3500  144.8150 C   0  0  1  0  0  3  0  0  0  0  0  0
  188.5720  177.6140  143.0070 C   0  0  0  0  0  2  0  0  0  0  0  0
  187.4080  178.3650  142.3880 C   0  0  0  0  0  1  0  0  0  0  0  0
  1  3  1  1  0  0  0
  2  4  1  0  0  0  0
  3 18  1  0  0  0  0
  4  1  1  0  0  0  0
  4 10  1  0  0  0  0
  5  2  1  0  0  0  0
  5 17  1  0  0  0  0
  6 20  1  0  0  0  0
  7 14  1  0  0  0  0
  7  2  1  0  0  0  0
  8  9  1  0  0  0  0
  9 16  1  0  0  0  0
  9 11  1  0  0  0  0
 10 13  1  0  0  0  0
 11  5  1  0  0  0  0
 12 10  1  0  0  0  0
 13 18  1  0  0  0  0
 14 15  1  0  0  0  0
 15 25  1  0  0  0  0
 15  1  1  0  0  0  0
 16  7  1  0  0  0  0
 17 12  1  0  0  0  0
 19  8  1  0  0  0  0
 19  6  1  0  0  0  0
 20 16  1  0  0  0  0
 21 28  1  0  0  0  0
 21 26  1  0  0  0  0
 21 23  1  0  0  0  0
 22 30  1  0  0  0  0
 24 26  1  0  0  0  0
 25 27  1  0  0  0  0
 25 28  1  0  0  0  0
 27 24  1  0  0  0  0
 29 28  1  0  0  0  0
 30 24  1  0  0  0  0
 30 26  1  0  0  0  0
 31 17  1  0  0  0  0
 32 31  1  0  0  0  0
M  END
>  <MODEL>
5

>  <REMARK>
 VINA RESULT:      -7.9      2.573      4.253
  Name = 
  2 active torsions:
  status: ('A' for Active; 'I' for Inactive)
    1  A    between atoms: C_13  and  C_29
    2  A    between atoms: C_16  and  C_27
                            x       y       z     vdW  Elec       q    Type
                         _______ _______ _______ _____ _____    ______ ____

>  <TORSDO>
F 2

$$$$
=
 OpenBabel11052419113D

 32 38  0  0  1  0  0  0  0  0999 V2000
  192.0020  175.4410  145.4010 C   0  0  2  0  0  3  0  0  0  0  0  0
  190.1050  175.1920  143.7420 C   0  0  2  0  0  3  0  0  0  0  0  0
  192.3910  175.6040  146.8850 C   0  0  0  0  0  2  0  0  0  0  0  0
  190.4800  175.3600  145.2180 C   0  0  2  0  0  3  0  0  0  0  0  0
  188.5720  175.1360  143.6010 C   0  0  2  0  0  3  0  0  0  0  0  0
  190.0200  171.5730  140.5200 O   0  0  0  0  0  0  0  0  0  0  0  0
  190.7530  173.9120  143.1910 C   0  0  2  0  0  3  0  0  0  0  0  0
  188.3560  173.3040  140.2110 C   0  0  0  0  0  2  0  0  0  0  0  0
  188.7970  173.6180  141.6410 C   0  0  2  0  0  3  0  0  0  0  0  0
  189.8300  176.6210  145.8020 C   0  0  1  0  0  3  0  0  0  0  0  0
  188.1560  174.9000  142.1480 C   0  0  0  0  0  2  0  0  0  0  0  0
  188.3100  176.5550  145.6650 C   0  0  0  0  0  2  0  0  0  0  0  0
  190.2320  176.8760  147.2630 C   0  0  0  0  0  2  0  0  0  0  0  0
  192.2730  174.0340  143.3020 C   0  0  0  0  0  2  0  0  0  0  0  0
  192.7000  174.2270  144.7640 C   0  0  1  0  0  3  0  0  0  0  0  0
  190.3270  173.6960  141.7350 C   0  0  2  0  0  3  0  0  0  0  0  0
  187.8980  176.3830  144.1960 C   0  0  1  0  0  3  0  0  0  0  0  0
  191.1950  175.8200  147.8170 C   0  0  0  0  0  2  0  0  0  0  0  0
  189.3310  172.3200  139.5470 C   0  0  0  0  0  2  0  0  0  0  0  0
  190.9680  172.4350  141.1150 C   0  0  0  0  0  2  0  0  0  0  0  0
  196.4620  175.0960  144.1930 C   0  0  2  0  0  3  0  0  0  0  0  0
  196.4980  174.1660  146.7260 O   0  0  0  0  0  1  0  0  0  0  0  0
  197.2680  175.8380  143.1380 C   0  0  0  0  0  1  0  0  0  0  0  0
  196.2410  172.5730  144.9030 C   0  0  2  0  0  3  0  0  0  0  0  0
  194.2320  174.2700  144.9160 C   0  0  1  0  0  3  0  0  0  0  0  0
  197.1170  173.7230  144.3960 C   0  0  2  0  0  3  0  0  0  0  0  0
  194.7320  172.8370  145.0820 C   0  0  0  0  0  2  0  0  0  0  0  0
  194.9880  175.0080  143.8000 C   0  0  1  0  0  3  0  0  0  0  0  0
  194.4310  176.4160  143.6100 C   0  0  0  0  0  1  0  0  0  0  0  0
  197.1810  173.2910  145.8710 C   0  0  1  0  0  3  0  0  0  0  0  0
  188.2000  177.6460  143.3890 C   0  0  0  0  0  2  0  0  0  0  0  0
  186.9120  178.3030  142.9300 C   0  0  0  0  0  1  0  0  0  0  0  0
  1  3  1  1  0  0  0
  2  4  1  0  0  0  0
  3 18  1  0  0  0  0
  4  1  1  0  0  0  0
  4 10  1  0  0  0  0
  5  2  1  0  0  0  0
  5 17  1  0  0  0  0
  6 20  1  0  0  0  0
  7 14  1  0  0  0  0
  7  2  1  0  0  0  0
  8  9  1  0  0  0  0
  9 16  1  0  0  0  0
  9 11  1  0  0  0  0
 10 13  1  0  0  0  0
 11  5  1  0  0  0  0
 12 10  1  0  0  0  0
 13 18  1  0  0  0  0
 14 15  1  0  0  0  0
 15 25  1  0  0  0  0
 15  1  1  0  0  0  0
 16  7  1  0  0  0  0
 17 12  1  0  0  0  0
 19  8  1  0  0  0  0
 19  6  1  0  0  0  0
 20 16  1  0  0  0  0
 21 26  1  0  0  0  0
 23 21  1  0  0  0  0
 24 27  1  0  0  0  0
 24 30  1  0  0  0  0
 25 27  1  0  0  0  0
 26 24  1  0  0  0  0
 26 30  1  0  0  0  0
 28 21  1  0  0  0  0
 28 25  1  0  0  0  0
 29 28  1  0  0  0  0
 30 22  1  0  0  0  0
 31 17  1  0  0  0  0
 32 31  1  0  0  0  0
M  END
>  <MODEL>
6

>  <REMARK>
 VINA RESULT:      -7.9      2.534      4.372
  Name = 
  2 active torsions:
  status: ('A' for Active; 'I' for Inactive)
    1  A    between atoms: C_13  and  C_29
    2  A    between atoms: C_16  and  C_27
                            x       y       z     vdW  Elec       q    Type
                         _______ _______ _______ _____ _____    ______ ____

>  <TORSDO>
F 2

$$$$
=
 OpenBabel11052419113D

 32 38  0  0  1  0  0  0  0  0999 V2000
  188.7120  175.1520  142.6010 C   0  0  2  0  0  3  0  0  0  0  0  0
  191.2160  174.9230  142.9010 C   0  0  2  0  0  3  0  0  0  0  0  0
  187.3930  174.4300  142.2600 C   0  0  0  0  0  2  0  0  0  0  0  0
  189.9130  174.1970  142.5560 C   0  0  2  0  0  3  0  0  0  0  0  0
  192.3950  173.9350  142.8240 C   0  0  2  0  0  3  0  0  0  0  0  0
  193.4310  176.4570  146.9290 O   0  0  0  0  0  0  0  0  0  0  0  0
  191.1040  175.5350  144.3070 C   0  0  2  0  0  3  0  0  0  0  0  0
  194.8840  175.8050  145.1060 C   0  0  0  0  0  2  0  0  0  0  0  0
  193.5720  175.1820  144.6300 C   0  0  2  0  0  3  0  0  0  0  0  0
  190.0010  173.5570  141.1640 C   0  0  1  0  0  3  0  0  0  0  0  0
  193.7090  174.6050  143.2290 C   0  0  0  0  0  2  0  0  0  0  0  0
  191.1680  172.5740  141.0970 C   0  0  0  0  0  2  0  0  0  0  0  0
  188.6920  172.8750  140.7370 C   0  0  0  0  0  2  0  0  0  0  0  0
  189.9580  176.5460  144.3220 C   0  0  0  0  0  2  0  0  0  0  0  0
  188.6290  175.8700  143.9580 C   0  0  1  0  0  3  0  0  0  0  0  0
  192.4290  176.2040  144.6920 C   0  0  2  0  0  3  0  0  0  0  0  0
  192.4930  173.2690  141.4420 C   0  0  1  0  0  3  0  0  0  0  0  0
  187.5840  172.9840  141.7900 C   0  0  0  0  0  2  0  0  0  0  0  0
  194.6320  176.7760  146.2690 C   0  0  0  0  0  2  0  0  0  0  0  0
  192.3710  176.8620  146.0880 C   0  0  0  0  0  2  0  0  0  0  0  0
  185.4710  177.7650  145.2520 C   0  0  2  0  0  3  0  0  0  0  0  0
  186.4080  179.4790  143.3890 O   0  0  0  0  0  1  0  0  0  0  0  0
  184.4980  177.6110  146.4110 C   0  0  0  0  0  1  0  0  0  0  0  0
  185.2970  177.4440  142.6470 C   0  0  2  0  0  3  0  0  0  0  0  0
  187.4420  176.8480  144.0470 C   0  0  1  0  0  3  0  0  0  0  0  0
  184.6440  177.8760  143.9640 C   0  0  2  0  0  3  0  0  0  0  0  0
  186.7090  176.8270  142.7080 C   0  0  0  0  0  2  0  0  0  0  0  0
  186.4800  176.6180  145.2230 C   0  0  1  0  0  3  0  0  0  0  0  0
  187.2420  176.5810  146.5450 C   0  0  0  0  0  1  0  0  0  0  0  0
  185.1850  178.9310  142.9830 C   0  0  1  0  0  3  0  0  0  0  0  0
  192.8950  174.2600  140.3490 C   0  0  0  0  0  2  0  0  0  0  0  0
  193.0580  173.5460  139.0200 C   0  0  0  0  0  1  0  0  0  0  0  0
  1  3  1  1  0  0  0
  1 15  1  0  0  0  0
  2  7  1  0  0  0  0
  4  1  1  0  0  0  0
  4  2  1  0  0  0  0
  5  2  1  0  0  0  0
  5 11  1  0  0  0  0
  7 14  1  0  0  0  0
  7 16  1  0  0  0  0
  8 19  1  0  0  0  0
  9 16  1  0  0  0  0
  9  8  1  0  0  0  0
 10  4  1  0  0  0  0
 11  9  1  0  0  0  0
 12 10  1  0  0  0  0
 12 17  1  0  0  0  0
 13 10  1  0  0  0  0
 13 18  1  0  0  0  0
 15 25  1  0  0  0  0
 15 14  1  0  0  0  0
 16 20  1  0  0  0  0
 17  5  1  0  0  0  0
 18  3  1  0  0  0  0
 19  6  1  0  0  0  0
 20  6  1  0  0  0  0
 21 23  1  0  0  0  0
 24 27  1  0  0  0  0
 24 30  1  0  0  0  0
 24 26  1  0  0  0  0
 25 28  1  0  0  0  0
 26 21  1  0  0  0  0
 27 25  1  0  0  0  0
 28 21  1  0  0  0  0
 28 29  1  0  0  0  0
 30 22  1  0  0  0  0
 30 26  1  0  0  0  0
 31 17  1  0  0  0  0
 32 31  1  0  0  0  0
M  END
>  <MODEL>
7

>  <REMARK>
 VINA RESULT:      -7.6      2.116      7.902
  Name = 
  2 active torsions:
  status: ('A' for Active; 'I' for Inactive)
    1  A    between atoms: C_13  and  C_29
    2  A    between atoms: C_16  and  C_27
                            x       y       z     vdW  Elec       q    Type
                         _______ _______ _______ _____ _____    ______ ____

>  <TORSDO>
F 2

$$$$
=
 OpenBabel11052419113D

 32 38  0  0  1  0  0  0  0  0999 V2000
  188.9850  174.8510  142.7060 C   0  0  2  0  0  3  0  0  0  0  0  0
  191.5130  174.8290  142.5610 C   0  0  2  0  0  3  0  0  0  0  0  0
  187.6860  174.0380  142.5320 C   0  0  0  0  0  2  0  0  0  0  0  0
  190.2300  174.0140  142.3810 C   0  0  2  0  0  3  0  0  0  0  0  0
  192.7330  173.9590  142.2060 C   0  0  2  0  0  3  0  0  0  0  0  0
  194.2720  176.2760  146.2740 O   0  0  0  0  0  0  0  0  0  0  0  0
  191.6010  175.3310  144.0120 C   0  0  2  0  0  3  0  0  0  0  0  0
  195.4310  175.8850  144.1840 C   0  0  0  0  0  2  0  0  0  0  0  0
  194.1070  175.1800  143.8850 C   0  0  2  0  0  3  0  0  0  0  0  0
  190.1230  173.4820  140.9450 C   0  0  1  0  0  3  0  0  0  0  0  0
  194.0420  174.7160  142.4380 C   0  0  0  0  0  2  0  0  0  0  0  0
  191.3330  172.6150  140.6020 C   0  0  0  0  0  2  0  0  0  0  0  0
  188.8160  172.7160  140.6890 C   0  0  0  0  0  2  0  0  0  0  0  0
  190.4010  176.2300  144.3030 C   0  0  0  0  0  2  0  0  0  0  0  0
  189.0850  175.4640  144.1130 C   0  0  1  0  0  3  0  0  0  0  0  0
  192.9170  176.0880  144.2230 C   0  0  2  0  0  3  0  0  0  0  0  0
  192.6400  173.4010  140.7760 C   0  0  1  0  0  3  0  0  0  0  0  0
  187.9040  172.6510  141.9180 C   0  0  0  0  0  2  0  0  0  0  0  0
  195.3110  176.7470  145.4500 C   0  0  0  0  0  2  0  0  0  0  0  0
  193.0530  176.6410  145.6590 C   0  0  0  0  0  2  0  0  0  0  0  0
  186.4010  178.2980  144.0980 C   0  0  2  0  0  3  0  0  0  0  0  0
  185.1460  176.3690  145.5090 O   0  0  0  0  0  1  0  0  0  0  0  0
  186.2090  179.6230  143.3770 C   0  0  0  0  0  1  0  0  0  0  0  0
  186.9440  177.6150  146.5800 C   0  0  2  0  0  3  0  0  0  0  0  0
  187.8600  176.3230  144.4810 C   0  0  1  0  0  3  0  0  0  0  0  0
  186.2400  178.5610  145.6020 C   0  0  2  0  0  3  0  0  0  0  0  0
  187.8540  176.5150  145.9960 C   0  0  0  0  0  2  0  0  0  0  0  0
  187.7430  177.6620  143.7380 C   0  0  1  0  0  3  0  0  0  0  0  0
  187.8130  177.4510  142.2290 C   0  0  0  0  0  1  0  0  0  0  0  0
  185.4430  177.4650  146.3300 C   0  0  1  0  0  3  0  0  0  0  0  0
  192.7680  174.4970  139.7170 C   0  0  0  0  0  2  0  0  0  0  0  0
  192.7450  173.8950  138.3250 C   0  0  0  0  0  1  0  0  0  0  0  0
  1  3  1  1  0  0  0
  1 15  1  0  0  0  0
  2  7  1  0  0  0  0
  4  2  1  0  0  0  0
  4  1  1  0  0  0  0
  5 11  1  0  0  0  0
  5  2  1  0  0  0  0
  7 16  1  0  0  0  0
  7 14  1  0  0  0  0
  8 19  1  0  0  0  0
  9  8  1  0  0  0  0
  9 16  1  0  0  0  0
 10  4  1  0  0  0  0
 11  9  1  0  0  0  0
 12 17  1  0  0  0  0
 12 10  1  0  0  0  0
 13 10  1  0  0  0  0
 13 18  1  0  0  0  0
 15 14  1  0  0  0  0
 15 25  1  0  0  0  0
 16 20  1  0  0  0  0
 17  5  1  0  0  0  0
 18  3  1  0  0  0  0
 19  6  1  0  0  0  0
 20  6  1  0  0  0  0
 21 26  1  0  0  0  0
 22 30  1  0  0  0  0
 23 21  1  0  0  0  0
 25 27  1  0  0  0  0
 26 30  1  0  0  0  0
 26 24  1  0  0  0  0
 27 24  1  0  0  0  0
 28 21  1  0  0  0  0
 28 25  1  0  0  0  0
 29 28  1  0  0  0  0
 30 24  1  0  0  0  0
 31 17  1  0  0  0  0
 32 31  1  0  0  0  0
M  END
>  <MODEL>
8

>  <REMARK>
 VINA RESULT:      -7.3      2.308      7.889
  Name = 
  2 active torsions:
  status: ('A' for Active; 'I' for Inactive)
    1  A    between atoms: C_13  and  C_29
    2  A    between atoms: C_16  and  C_27
                            x       y       z     vdW  Elec       q    Type
                         _______ _______ _______ _____ _____    ______ ____

>  <TORSDO>
F 2

$$$$
=
 OpenBabel11052419113D

 32 38  0  0  1  0  0  0  0  0999 V2000
  190.1120  176.5170  143.7430 C   0  0  2  0  0  3  0  0  0  0  0  0
  191.0240  174.4230  142.6500 C   0  0  2  0  0  3  0  0  0  0  0  0
  190.4350  177.9320  144.2670 C   0  0  0  0  0  2  0  0  0  0  0  0
  191.3570  175.8240  143.1710 C   0  0  2  0  0  3  0  0  0  0  0  0
  192.3010  173.7570  142.1050 C   0  0  2  0  0  3  0  0  0  0  0  0
  188.9670  172.5380  138.6880 O   0  0  0  0  0  0  0  0  0  0  0  0
  189.9490  174.5260  141.5560 C   0  0  2  0  0  3  0  0  0  0  0  0
  190.6640  171.1760  139.7490 C   0  0  0  0  0  2  0  0  0  0  0  0
  190.9500  172.5190  140.4190 C   0  0  2  0  0  3  0  0  0  0  0  0
  192.4420  175.7570  144.2530 C   0  0  1  0  0  3  0  0  0  0  0  0
  192.0000  172.3800  141.5110 C   0  0  0  0  0  2  0  0  0  0  0  0
  193.7080  175.1010  143.7030 C   0  0  0  0  0  2  0  0  0  0  0  0
  192.7640  177.1300  144.8630 C   0  0  0  0  0  2  0  0  0  0  0  0
  188.6850  175.1420  142.1530 C   0  0  0  0  0  2  0  0  0  0  0  0
  188.9720  176.5430  142.7120 C   0  0  1  0  0  3  0  0  0  0  0  0
  189.6600  173.1370  140.9760 C   0  0  2  0  0  3  0  0  0  0  0  0
  193.4100  173.6940  143.1680 C   0  0  1  0  0  3  0  0  0  0  0  0
  191.9300  178.2660  144.2610 C   0  0  0  0  0  2  0  0  0  0  0  0
  189.3160  171.2140  139.0130 C   0  0  0  0  0  2  0  0  0  0  0  0
  188.5660  173.1700  139.8860 C   0  0  0  0  0  2  0  0  0  0  0  0
  185.8850  177.4130  144.9380 C   0  0  2  0  0  3  0  0  0  0  0  0
  186.1850  179.6860  143.5130 O   0  0  0  0  0  1  0  0  0  0  0  0
  185.1880  176.7910  146.1380 C   0  0  0  0  0  1  0  0  0  0  0  0
  185.2570  177.7270  142.4030 C   0  0  2  0  0  3  0  0  0  0  0  0
  187.6960  177.2220  143.2460 C   0  0  1  0  0  3  0  0  0  0  0  0
  184.8170  177.6830  143.8700 C   0  0  2  0  0  3  0  0  0  0  0  0
  186.7280  177.3980  142.0780 C   0  0  0  0  0  2  0  0  0  0  0  0
  187.0240  176.5240  144.4390 C   0  0  1  0  0  3  0  0  0  0  0  0
  188.0250  176.3050  145.5700 C   0  0  0  0  0  1  0  0  0  0  0  0
  184.9990  179.0340  143.1550 C   0  0  1  0  0  3  0  0  0  0  0  0
  193.0660  172.7330  144.3070 C   0  0  0  0  0  2  0  0  0  0  0  0
  194.1930  172.6890  145.3220 C   0  0  0  0  0  1  0  0  0  0  0  0
  1  3  1  6  0  0  0
  2  4  1  0  0  0  0
  4  1  1  0  0  0  0
  4 10  1  0  0  0  0
  5  2  1  0  0  0  0
  5 17  1  0  0  0  0
  6 19  1  0  0  0  0
  6 20  1  0  0  0  0
  7 14  1  0  0  0  0
  7  2  1  0  0  0  0
  8  9  1  0  0  0  0
  9 16  1  0  0  0  0
  9 11  1  0  0  0  0
 10 13  1  0  0  0  0
 11  5  1  0  0  0  0
 12 10  1  0  0  0  0
 14 15  1  0  0  0  0
 15 25  1  0  0  0  0
 15  1  1  0  0  0  0
 16  7  1  0  0  0  0
 17 12  1  0  0  0  0
 17 31  1  0  0  0  0
 18  3  1  0  0  0  0
 18 13  1  0  0  0  0
 19  8  1  0  0  0  0
 20 16  1  0  0  0  0
 21 23  1  0  0  0  0
 24 30  1  0  0  0  0
 24 26  1  0  0  0  0
 25 28  1  0  0  0  0
 26 21  1  0  0  0  0
 27 24  1  0  0  0  0
 27 25  1  0  0  0  0
 28 21  1  0  0  0  0
 28 29  1  0  0  0  0
 30 22  1  0  0  0  0
 30 26  1  0  0  0  0
 31 32  1  0  0  0  0
M  END
>  <MODEL>
9

>  <REMARK>
 VINA RESULT:      -7.2      2.173      7.020
  Name = 
  2 active torsions:
  status: ('A' for Active; 'I' for Inactive)
    1  A    between atoms: C_13  and  C_29
    2  A    between atoms: C_16  and  C_27
                            x       y       z     vdW  Elec       q    Type
                         _______ _______ _______ _____ _____    ______ ____

>  <TORSDO>
F 2

$$$$
