=
 OpenBabel11052421133D

 43 49  0  0  1  0  0  0  0  0999 V2000
  185.0160  178.9740  146.6930 C   0  0  1  0  0  3  0  0  0  0  0  0
  189.1280  177.2530  144.5820 C   0  0  1  0  0  3  0  0  0  0  0  0
  188.5360  175.3930  142.3700 C   0  0  2  0  0  3  0  0  0  0  0  0
  187.1130  177.8070  146.4700 C   0  0  0  0  0  0  0  0  0  0  0  0
  185.0530  179.3530  145.1970 C   0  0  0  0  0  2  0  0  0  0  0  0
  184.0630  177.8960  146.9010 N   0  0  0  0  0  1  0  0  0  0  0  0
  186.6500  177.3820  145.0960 C   0  0  1  0  0  3  0  0  0  0  0  0
  186.3380  178.5660  147.1810 N   0  0  0  0  0  0  0  0  0  0  0  0
  186.1400  178.6290  144.3730 C   0  0  0  0  0  2  0  0  0  0  0  0
  187.4900  176.3850  142.8720 C   0  0  0  0  0  2  0  0  0  0  0  0
  187.7550  176.6180  144.3540 C   0  0  1  0  0  3  0  0  0  0  0  0
  189.4060  177.2670  146.0570 C   0  0  0  0  0  3  0  0  0  0  0  0
  190.2310  176.5910  143.7770 C   0  0  0  0  0  0  0  0  0  0  0  0
  189.9440  175.8210  142.7080 C   0  0  0  0  0  3  0  0  0  0  0  0
  188.4600  177.5590  146.9010 N   0  0  0  0  0  0  0  0  0  0  0  0
  188.3660  175.1250  140.9120 C   0  0  0  0  0  0  0  0  0  0  0  0
  188.9330  173.9390  140.3580 N   0  0  0  0  0  2  0  0  0  0  0  0
  187.6970  175.9130  140.1890 O   0  0  0  0  0  0  0  0  0  0  0  0
  188.7280  173.4880  138.6610 S   0  0  0  0  0  0  0  0  0  0  0  0
  189.3540  170.8630  138.1270 C   0  0  0  0  0  2  0  0  0  0  0  0
  190.2740  171.8840  140.2390 C   0  0  0  0  0  2  0  0  0  0  0  0
  192.1210  170.0340  139.4810 C   0  0  2  0  0  3  0  0  0  0  0  0
  189.9270  172.1250  138.7730 C   0  0  2  0  0  3  0  0  0  0  0  0
  190.3440  169.7070  138.1520 C   0  0  0  0  0  2  0  0  0  0  0  0
  191.4730  170.9530  140.5270 C   0  0  1  0  0  0  0  0  0  0  0  0
  192.8040  171.3310  139.9240 C   0  0  0  0  0  2  0  0  0  0  0  0
  191.6510  170.2060  138.1690 O   0  0  0  0  0  0  0  0  0  0  0  0
  191.5770  170.4470  141.8500 O   0  0  0  0  0  0  0  0  0  0  0  0
  191.7400  171.2950  142.9410 C   0  0  0  0  0  0  0  0  0  0  0  0
  192.3270  172.4280  143.5420 N   0  0  0  0  0  0  0  0  0  0  0  0
  191.4360  171.6480  144.2210 C   0  0  1  0  0  3  0  0  0  0  0  0
  189.1540  171.9060  143.4740 N   0  0  0  0  0  2  0  0  0  0  0  0
  189.7470  173.2590  145.3620 C   0  0  0  0  0  1  0  0  0  0  0  0
  190.0850  172.3050  144.2600 C   0  0  0  0  0  0  0  0  0  0  0  0
  191.6510  177.0150  143.9830 C   0  0  0  0  0  2  0  0  0  0  0  0
  193.7340  174.5970  146.0660 C   0  0  0  0  0  2  0  0  0  0  0  0
  195.0130  175.4290  145.8920 C   0  0  2  0  0  3  0  0  0  0  0  0
  193.9480  176.0600  143.6720 C   0  0  0  0  0  2  0  0  0  0  0  0
  192.4950  175.4010  145.6900 C   0  0  0  0  0  2  0  0  0  0  0  0
  192.5320  175.8000  144.2090 C   0  0  1  0  0  3  0  0  0  0  0  0
  194.9090  176.4880  144.7820 C   0  0  0  0  0  2  0  0  0  0  0  0
  195.7150  173.2790  145.1230 O   0  0  0  0  0  1  0  0  0  0  0  0
  196.1800  174.4940  145.6310 C   0  0  0  0  0  2  0  0  0  0  0  0
  1  6  1  6  0  0  0
  1  8  1  0  0  0  0
  2 12  1  1  0  0  0
  3 16  1  6  0  0  0
  3 14  1  0  0  0  0
  3 10  1  0  0  0  0
  4 15  1  0  0  0  0
  4  8  2  0  0  0  0
  5  1  1  0  0  0  0
  7  9  1  6  0  0  0
  7  4  1  0  0  0  0
  9  5  1  0  0  0  0
 11 10  1  6  0  0  0
 11  2  1  0  0  0  0
 11  7  1  0  0  0  0
 12 15  2  0  0  0  0
 13 35  1  0  0  0  0
 13  2  1  0  0  0  0
 14 13  2  0  0  0  0
 17 16  1  0  0  0  0
 18 16  2  0  0  0  0
 19 17  1  0  0  0  0
 20 24  1  0  0  0  0
 20 23  1  0  0  0  0
 21 25  1  0  0  0  0
 22 26  1  6  0  0  0
 22 25  1  0  0  0  0
 23 19  1  1  0  0  0
 23 21  1  0  0  0  0
 24 27  1  0  0  0  0
 25 28  1  1  0  0  0
 26 25  1  0  0  0  0
 27 22  1  0  0  0  0
 28 29  1  0  0  0  0
 29 30  2  0  0  0  0
 29 31  1  0  0  0  0
 30 31  1  0  0  0  0
 31 34  1  6  0  0  0
 32 34  2  0  0  0  0
 34 33  1  0  0  0  0
 37 43  1  6  0  0  0
 37 36  1  0  0  0  0
 38 40  1  0  0  0  0
 38 41  1  0  0  0  0
 39 36  1  0  0  0  0
 40 35  1  1  0  0  0
 40 39  1  0  0  0  0
 41 37  1  0  0  0  0
 42 43  1  0  0  0  0
M  END
>  <MODEL>
1

>  <REMARK>
 VINA RESULT:      -8.0      0.000      0.000
  Name = 
  9 active torsions:
  status: ('A' for Active; 'I' for Inactive)
    1  A    between atoms: C_1  and  C_34
    2  A    between atoms: C_1  and  C_35
    3  A    between atoms: C_2  and  C_13
    4  A    between atoms: N_6  and  S_17
    5  A    between atoms: C_11  and  O_14
    6  A    between atoms: C_12  and  S_17
    7  A    between atoms: O_14  and  C_22
    8  A    between atoms: C_19  and  C_37
    9  A    between atoms: C_31  and  C_40
                            x       y       z     vdW  Elec       q    Type
                         _______ _______ _______ _____ _____    ______ ____

>  <TORSDO>
F 9

$$$$
=
 OpenBabel11052421133D

 43 49  0  0  1  0  0  0  0  0999 V2000
  185.1400  178.9230  146.8880 C   0  0  1  0  0  3  0  0  0  0  0  0
  189.1530  177.2220  144.5770 C   0  0  1  0  0  3  0  0  0  0  0  0
  188.4580  175.5100  142.2780 C   0  0  2  0  0  3  0  0  0  0  0  0
  187.1990  177.7170  146.5450 C   0  0  0  0  0  0  0  0  0  0  0  0
  185.1520  179.3870  145.4160 C   0  0  0  0  0  2  0  0  0  0  0  0
  184.1630  177.8600  147.0580 N   0  0  0  0  0  1  0  0  0  0  0  0
  186.6920  177.3840  145.1610 C   0  0  1  0  0  3  0  0  0  0  0  0
  186.4620  178.4540  147.3180 N   0  0  0  0  0  0  0  0  0  0  0  0
  186.1990  178.6840  144.5240 C   0  0  0  0  0  2  0  0  0  0  0  0
  187.4520  176.4980  142.8630 C   0  0  0  0  0  2  0  0  0  0  0  0
  187.7580  176.6370  144.3490 C   0  0  1  0  0  3  0  0  0  0  0  0
  189.4660  177.1430  146.0440 C   0  0  0  0  0  3  0  0  0  0  0  0
  190.2180  176.5800  143.7080 C   0  0  0  0  0  0  0  0  0  0  0  0
  189.8850  175.8810  142.6050 C   0  0  0  0  0  3  0  0  0  0  0  0
  188.5490  177.4100  146.9270 N   0  0  0  0  0  0  0  0  0  0  0  0
  188.2460  175.3310  140.8120 C   0  0  0  0  0  0  0  0  0  0  0  0
  188.8580  174.2220  140.1570 N   0  0  0  0  0  2  0  0  0  0  0  0
  187.5050  176.1250  140.1710 O   0  0  0  0  0  0  0  0  0  0  0  0
  188.6120  173.8750  138.4410 S   0  0  0  0  0  0  0  0  0  0  0  0
  190.5550  172.9160  136.7460 C   0  0  0  0  0  2  0  0  0  0  0  0
  190.5920  172.1300  139.1400 C   0  0  0  0  0  2  0  0  0  0  0  0
  193.1960  172.1150  138.3470 C   0  0  2  0  0  3  0  0  0  0  0  0
  190.3240  173.3070  138.2060 C   0  0  2  0  0  3  0  0  0  0  0  0
  191.9910  172.4800  136.4910 C   0  0  0  0  0  2  0  0  0  0  0  0
  192.0620  171.6780  139.2870 C   0  0  1  0  0  0  0  0  0  0  0  0
  193.0610  172.7100  139.7510 C   0  0  0  0  0  2  0  0  0  0  0  0
  192.8420  173.1010  137.4110 O   0  0  0  0  0  0  0  0  0  0  0  0
  192.2750  170.3930  139.8520 O   0  0  0  0  0  0  0  0  0  0  0  0
  191.8290  170.0810  141.1340 C   0  0  0  0  0  0  0  0  0  0  0  0
  192.0690  169.5900  142.4340 N   0  0  0  0  0  0  0  0  0  0  0  0
  190.8330  170.0360  142.0620 C   0  0  1  0  0  3  0  0  0  0  0  0
  189.3840  171.8520  142.7220 N   0  0  0  0  0  2  0  0  0  0  0  0
  191.7020  172.1840  143.2350 C   0  0  0  0  0  1  0  0  0  0  0  0
  190.5840  171.4130  142.6080 C   0  0  0  0  0  0  0  0  0  0  0  0
  191.6530  176.9540  143.9020 C   0  0  0  0  0  2  0  0  0  0  0  0
  193.5640  174.3430  145.9170 C   0  0  0  0  0  2  0  0  0  0  0  0
  194.8650  175.1590  145.8850 C   0  0  2  0  0  3  0  0  0  0  0  0
  193.9490  175.9770  143.6580 C   0  0  0  0  0  2  0  0  0  0  0  0
  192.3640  175.1990  145.5290 C   0  0  0  0  0  2  0  0  0  0  0  0
  192.4990  175.7080  144.0880 C   0  0  1  0  0  3  0  0  0  0  0  0
  194.8470  176.3010  144.8540 C   0  0  0  0  0  2  0  0  0  0  0  0
  195.5950  173.1050  144.9060 O   0  0  0  0  0  1  0  0  0  0  0  0
  196.0300  174.2220  145.6230 C   0  0  0  0  0  2  0  0  0  0  0  0
  1  6  1  6  0  0  0
  1  8  1  0  0  0  0
  2 12  1  1  0  0  0
  3 16  1  6  0  0  0
  3 14  1  0  0  0  0
  3 10  1  0  0  0  0
  4 15  1  0  0  0  0
  4  8  2  0  0  0  0
  5  1  1  0  0  0  0
  7  9  1  6  0  0  0
  7  4  1  0  0  0  0
  9  5  1  0  0  0  0
 11 10  1  6  0  0  0
 11  2  1  0  0  0  0
 11  7  1  0  0  0  0
 12 15  2  0  0  0  0
 13 35  1  0  0  0  0
 13  2  1  0  0  0  0
 14 13  2  0  0  0  0
 17 16  1  0  0  0  0
 18 16  2  0  0  0  0
 19 17  1  0  0  0  0
 20 23  1  0  0  0  0
 21 25  1  0  0  0  0
 22 25  1  0  0  0  0
 22 26  1  1  0  0  0
 23 19  1  6  0  0  0
 23 21  1  0  0  0  0
 24 20  1  0  0  0  0
 24 27  1  0  0  0  0
 25 26  1  0  0  0  0
 25 28  1  1  0  0  0
 27 22  1  0  0  0  0
 28 29  1  0  0  0  0
 29 31  1  0  0  0  0
 29 30  2  0  0  0  0
 31 30  1  0  0  0  0
 31 34  1  1  0  0  0
 34 32  2  0  0  0  0
 34 33  1  0  0  0  0
 37 43  1  6  0  0  0
 37 36  1  0  0  0  0
 38 40  1  0  0  0  0
 38 41  1  0  0  0  0
 39 36  1  0  0  0  0
 40 35  1  1  0  0  0
 40 39  1  0  0  0  0
 41 37  1  0  0  0  0
 42 43  1  0  0  0  0
M  END
>  <MODEL>
2

>  <REMARK>
 VINA RESULT:      -7.4      1.134      1.423
  Name = 
  9 active torsions:
  status: ('A' for Active; 'I' for Inactive)
    1  A    between atoms: C_1  and  C_34
    2  A    between atoms: C_1  and  C_35
    3  A    between atoms: C_2  and  C_13
    4  A    between atoms: N_6  and  S_17
    5  A    between atoms: C_11  and  O_14
    6  A    between atoms: C_12  and  S_17
    7  A    between atoms: O_14  and  C_22
    8  A    between atoms: C_19  and  C_37
    9  A    between atoms: C_31  and  C_40
                            x       y       z     vdW  Elec       q    Type
                         _______ _______ _______ _____ _____    ______ ____

>  <TORSDO>
F 9

$$$$
=
 OpenBabel11052421133D

 43 49  0  0  1  0  0  0  0  0999 V2000
  184.4000  178.7570  144.5870 C   0  0  1  0  0  3  0  0  0  0  0  0
  188.0910  175.6690  143.5000 C   0  0  1  0  0  3  0  0  0  0  0  0
  190.6610  176.5870  144.6190 C   0  0  2  0  0  3  0  0  0  0  0  0
  185.9780  177.5150  143.2530 C   0  0  0  0  0  0  0  0  0  0  0  0
  185.0400  178.2040  145.8790 C   0  0  0  0  0  2  0  0  0  0  0  0
  184.8160  180.1350  144.3870 N   0  0  0  0  0  1  0  0  0  0  0  0
  187.0060  177.8070  144.3220 C   0  0  1  0  0  3  0  0  0  0  0  0
  184.7680  177.9530  143.4160 N   0  0  0  0  0  0  0  0  0  0  0  0
  186.3780  177.4610  145.6720 C   0  0  0  0  0  2  0  0  0  0  0  0
  189.3310  177.0920  145.1720 C   0  0  0  0  0  2  0  0  0  0  0  0
  188.3280  177.0860  144.0260 C   0  0  1  0  0  3  0  0  0  0  0  0
  187.2580  175.7590  142.2540 C   0  0  0  0  0  3  0  0  0  0  0  0
  189.3750  174.8870  143.2990 C   0  0  0  0  0  0  0  0  0  0  0  0
  190.5210  175.2670  143.8990 C   0  0  0  0  0  3  0  0  0  0  0  0
  186.2680  176.6000  142.1840 N   0  0  0  0  0  0  0  0  0  0  0  0
  191.7020  176.5360  145.6860 C   0  0  0  0  0  0  0  0  0  0  0  0
  193.0750  176.4370  145.3080 N   0  0  0  0  0  2  0  0  0  0  0  0
  191.3780  176.6190  146.9020 O   0  0  0  0  0  0  0  0  0  0  0  0
  194.3910  176.4450  146.4870 S   0  0  0  0  0  0  0  0  0  0  0  0
  195.7030  176.3910  144.0700 C   0  0  0  0  0  2  0  0  0  0  0  0
  195.0120  174.1890  145.0810 C   0  0  0  0  0  2  0  0  0  0  0  0
  197.2720  173.6430  143.6650 C   0  0  2  0  0  3  0  0  0  0  0  0
  195.5390  175.5930  145.3640 C   0  0  2  0  0  3  0  0  0  0  0  0
  196.6960  175.7410  143.1170 C   0  0  0  0  0  2  0  0  0  0  0  0
  195.9750  173.2140  144.3670 C   0  0  1  0  0  0  0  0  0  0  0  0
  197.3060  172.9470  145.0280 C   0  0  0  0  0  2  0  0  0  0  0  0
  197.6250  174.9900  143.8460 O   0  0  0  0  0  0  0  0  0  0  0  0
  195.3900  172.0560  143.7910 O   0  0  0  0  0  0  0  0  0  0  0  0
  194.6600  171.1520  144.5580 C   0  0  0  0  0  0  0  0  0  0  0  0
  193.6140  170.2160  144.6930 N   0  0  0  0  0  0  0  0  0  0  0  0
  194.4410  170.5090  145.7390 C   0  0  1  0  0  3  0  0  0  0  0  0
  195.4290  168.3790  145.1760 N   0  0  0  0  0  2  0  0  0  0  0  0
  196.6460  169.6460  146.8070 C   0  0  0  0  0  1  0  0  0  0  0  0
  195.4600  169.4210  145.9230 C   0  0  0  0  0  0  0  0  0  0  0  0
  189.3220  173.5300  142.6720 C   0  0  0  0  0  2  0  0  0  0  0  0
  191.1860  172.8760  139.4120 C   0  0  0  0  0  2  0  0  0  0  0  0
  191.0720  171.3520  139.5630 C   0  0  2  0  0  3  0  0  0  0  0  0
  191.1150  171.8930  142.0480 C   0  0  0  0  0  2  0  0  0  0  0  0
  190.2190  173.5990  140.3440 C   0  0  0  0  0  2  0  0  0  0  0  0
  190.5510  173.3020  141.8110 C   0  0  1  0  0  3  0  0  0  0  0  0
  190.6510  170.9070  140.9740 C   0  0  0  0  0  2  0  0  0  0  0  0
  193.4020  171.6840  139.1530 O   0  0  0  0  0  1  0  0  0  0  0  0
  192.3950  170.7170  139.1750 C   0  0  0  0  0  2  0  0  0  0  0  0
  1  6  1  6  0  0  0
  1  5  1  0  0  0  0
  2 12  1  6  0  0  0
  2 11  1  0  0  0  0
  3 10  1  0  0  0  0
  3 16  1  1  0  0  0
  4  8  2  0  0  0  0
  4  7  1  0  0  0  0
  7  9  1  1  0  0  0
  8  1  1  0  0  0  0
  9  5  1  0  0  0  0
 11  7  1  0  0  0  0
 11 10  1  1  0  0  0
 13  2  1  0  0  0  0
 13 14  2  0  0  0  0
 14  3  1  0  0  0  0
 15 12  2  0  0  0  0
 15  4  1  0  0  0  0
 16 18  2  0  0  0  0
 17 16  1  0  0  0  0
 17 19  1  0  0  0  0
 20 23  1  0  0  0  0
 21 23  1  0  0  0  0
 22 27  1  0  0  0  0
 22 25  1  0  0  0  0
 22 26  1  1  0  0  0
 23 19  1  1  0  0  0
 24 27  1  0  0  0  0
 24 20  1  0  0  0  0
 25 28  1  6  0  0  0
 25 26  1  0  0  0  0
 25 21  1  0  0  0  0
 28 29  1  0  0  0  0
 29 30  2  0  0  0  0
 29 31  1  0  0  0  0
 30 31  1  0  0  0  0
 31 34  1  6  0  0  0
 32 34  2  0  0  0  0
 34 33  1  0  0  0  0
 35 13  1  0  0  0  0
 36 37  1  0  0  0  0
 36 39  1  0  0  0  0
 37 43  1  1  0  0  0
 37 41  1  0  0  0  0
 39 40  1  0  0  0  0
 40 38  1  0  0  0  0
 40 35  1  1  0  0  0
 41 38  1  0  0  0  0
 42 43  1  0  0  0  0
M  END
>  <MODEL>
3

>  <REMARK>
 VINA RESULT:      -7.2      2.977      6.049
  Name = 
  9 active torsions:
  status: ('A' for Active; 'I' for Inactive)
    1  A    between atoms: C_1  and  C_34
    2  A    between atoms: C_1  and  C_35
    3  A    between atoms: C_2  and  C_13
    4  A    between atoms: N_6  and  S_17
    5  A    between atoms: C_11  and  O_14
    6  A    between atoms: C_12  and  S_17
    7  A    between atoms: O_14  and  C_22
    8  A    between atoms: C_19  and  C_37
    9  A    between atoms: C_31  and  C_40
                            x       y       z     vdW  Elec       q    Type
                         _______ _______ _______ _____ _____    ______ ____

>  <TORSDO>
F 9

$$$$
=
 OpenBabel11052421133D

 43 49  0  0  1  0  0  0  0  0999 V2000
  184.6930  179.1310  144.5610 C   0  0  1  0  0  3  0  0  0  0  0  0
  188.1380  175.7960  143.4000 C   0  0  1  0  0  3  0  0  0  0  0  0
  190.7970  176.5560  144.4260 C   0  0  2  0  0  3  0  0  0  0  0  0
  186.1420  177.7740  143.1950 C   0  0  0  0  0  0  0  0  0  0  0  0
  185.3360  178.5520  145.8400 C   0  0  0  0  0  2  0  0  0  0  0  0
  185.1900  180.4760  144.3300 N   0  0  0  0  0  1  0  0  0  0  0  0
  187.2210  178.0090  144.2280 C   0  0  1  0  0  3  0  0  0  0  0  0
  184.9690  178.2920  143.3900 N   0  0  0  0  0  0  0  0  0  0  0  0
  186.6150  177.7200  145.6010 C   0  0  0  0  0  2  0  0  0  0  0  0
  189.5210  177.1530  145.0140 C   0  0  0  0  0  2  0  0  0  0  0  0
  188.4830  177.2010  143.9000 C   0  0  1  0  0  3  0  0  0  0  0  0
  187.2730  175.9270  142.1790 C   0  0  0  0  0  3  0  0  0  0  0  0
  189.3610  174.9300  143.1700 C   0  0  0  0  0  0  0  0  0  0  0  0
  190.5480  175.2410  143.7280 C   0  0  0  0  0  3  0  0  0  0  0  0
  186.3380  176.8300  142.1300 N   0  0  0  0  0  0  0  0  0  0  0  0
  191.8660  176.4490  145.4600 C   0  0  0  0  0  0  0  0  0  0  0  0
  193.2070  176.1940  145.0430 N   0  0  0  0  0  2  0  0  0  0  0  0
  191.5970  176.6210  146.6810 O   0  0  0  0  0  0  0  0  0  0  0  0
  194.5600  176.1220  146.1790 S   0  0  0  0  0  0  0  0  0  0  0  0
  196.4610  174.1520  145.9090 C   0  0  0  0  0  2  0  0  0  0  0  0
  194.5060  174.1240  144.3190 C   0  0  0  0  0  2  0  0  0  0  0  0
  195.2190  171.5140  144.6150 C   0  0  2  0  0  3  0  0  0  0  0  0
  194.9610  174.4010  145.7490 C   0  0  2  0  0  3  0  0  0  0  0  0
  196.8370  172.7080  145.6080 C   0  0  0  0  0  2  0  0  0  0  0  0
  194.5120  172.6490  143.8600 C   0  0  1  0  0  0  0  0  0  0  0  0
  193.6960  171.6680  144.6670 C   0  0  0  0  0  2  0  0  0  0  0  0
  195.7450  171.8730  145.8670 O   0  0  0  0  0  0  0  0  0  0  0  0
  194.4400  172.4220  142.4600 O   0  0  0  0  0  0  0  0  0  0  0  0
  194.3940  173.4790  141.5540 C   0  0  0  0  0  0  0  0  0  0  0  0
  193.7210  174.5760  140.9780 N   0  0  0  0  0  0  0  0  0  0  0  0
  194.9780  174.2240  140.5750 C   0  0  1  0  0  3  0  0  0  0  0  0
  197.1940  174.7280  141.3900 N   0  0  0  0  0  2  0  0  0  0  0  0
  195.7050  176.6050  141.3150 C   0  0  0  0  0  1  0  0  0  0  0  0
  196.0000  175.1450  141.1770 C   0  0  0  0  0  0  0  0  0  0  0  0
  189.1990  173.5720  142.5630 C   0  0  0  0  0  2  0  0  0  0  0  0
  190.7850  172.5170  139.2610 C   0  0  0  0  0  2  0  0  0  0  0  0
  190.7920  171.0310  139.6500 C   0  0  2  0  0  3  0  0  0  0  0  0
  191.0330  171.9550  142.0070 C   0  0  0  0  0  2  0  0  0  0  0  0
  189.8650  173.3240  140.1690 C   0  0  0  0  0  2  0  0  0  0  0  0
  190.3540  173.2780  141.6220 C   0  0  1  0  0  3  0  0  0  0  0  0
  190.5380  170.7900  141.1480 C   0  0  0  0  0  2  0  0  0  0  0  0
  193.0860  171.4070  139.1000 O   0  0  0  0  0  1  0  0  0  0  0  0
  192.1120  170.4140  139.2250 C   0  0  0  0  0  2  0  0  0  0  0  0
  1  6  1  6  0  0  0
  1  5  1  0  0  0  0
  2 12  1  6  0  0  0
  2 11  1  0  0  0  0
  3 10  1  0  0  0  0
  3 16  1  1  0  0  0
  4  8  2  0  0  0  0
  4  7  1  0  0  0  0
  7  9  1  1  0  0  0
  8  1  1  0  0  0  0
  9  5  1  0  0  0  0
 11  7  1  0  0  0  0
 11 10  1  1  0  0  0
 13  2  1  0  0  0  0
 13 14  2  0  0  0  0
 14  3  1  0  0  0  0
 15 12  2  0  0  0  0
 15  4  1  0  0  0  0
 16 18  2  0  0  0  0
 17 16  1  0  0  0  0
 17 19  1  0  0  0  0
 21 23  1  0  0  0  0
 22 26  1  1  0  0  0
 22 27  1  0  0  0  0
 23 20  1  0  0  0  0
 23 19  1  6  0  0  0
 24 27  1  0  0  0  0
 24 20  1  0  0  0  0
 25 28  1  6  0  0  0
 25 21  1  0  0  0  0
 25 22  1  0  0  0  0
 25 26  1  0  0  0  0
 29 28  1  0  0  0  0
 30 29  2  0  0  0  0
 31 30  1  0  0  0  0
 31 34  1  1  0  0  0
 31 29  1  0  0  0  0
 34 33  1  0  0  0  0
 34 32  2  0  0  0  0
 35 13  1  0  0  0  0
 36 37  1  0  0  0  0
 36 39  1  0  0  0  0
 37 43  1  1  0  0  0
 37 41  1  0  0  0  0
 39 40  1  0  0  0  0
 40 38  1  0  0  0  0
 40 35  1  1  0  0  0
 41 38  1  0  0  0  0
 42 43  1  0  0  0  0
M  END
>  <MODEL>
4

>  <REMARK>
 VINA RESULT:      -7.2      2.894      6.046
  Name = 
  9 active torsions:
  status: ('A' for Active; 'I' for Inactive)
    1  A    between atoms: C_1  and  C_34
    2  A    between atoms: C_1  and  C_35
    3  A    between atoms: C_2  and  C_13
    4  A    between atoms: N_6  and  S_17
    5  A    between atoms: C_11  and  O_14
    6  A    between atoms: C_12  and  S_17
    7  A    between atoms: O_14  and  C_22
    8  A    between atoms: C_19  and  C_37
    9  A    between atoms: C_31  and  C_40
                            x       y       z     vdW  Elec       q    Type
                         _______ _______ _______ _____ _____    ______ ____

>  <TORSDO>
F 9

$$$$
=
 OpenBabel11052421133D

 43 49  0  0  1  0  0  0  0  0999 V2000
  185.1110  178.9430  146.6280 C   0  0  1  0  0  3  0  0  0  0  0  0
  189.2500  177.0230  144.7510 C   0  0  1  0  0  3  0  0  0  0  0  0
  188.6860  174.9960  142.6830 C   0  0  2  0  0  3  0  0  0  0  0  0
  187.2000  177.7440  146.5440 C   0  0  0  0  0  0  0  0  0  0  0  0
  185.1840  179.2000  145.1070 C   0  0  0  0  0  2  0  0  0  0  0  0
  184.1430  177.8930  146.9000 N   0  0  0  0  0  1  0  0  0  0  0  0
  186.7630  177.2130  145.1990 C   0  0  1  0  0  3  0  0  0  0  0  0
  186.4180  178.5640  147.1750 N   0  0  0  0  0  0  0  0  0  0  0  0
  186.2810  178.4030  144.3680 C   0  0  0  0  0  2  0  0  0  0  0  0
  187.6400  176.0340  143.0810 C   0  0  0  0  0  2  0  0  0  0  0  0
  187.8750  176.3830  144.5450 C   0  0  1  0  0  3  0  0  0  0  0  0
  189.4960  177.1520  146.2270 C   0  0  0  0  0  3  0  0  0  0  0  0
  190.3620  176.2890  144.0270 C   0  0  0  0  0  0  0  0  0  0  0  0
  190.0900  175.4380  143.0170 C   0  0  0  0  0  3  0  0  0  0  0  0
  188.5360  177.5200  147.0240 N   0  0  0  0  0  0  0  0  0  0  0  0
  188.5440  174.6130  141.2490 C   0  0  0  0  0  0  0  0  0  0  0  0
  188.8880  173.2860  140.8510 N   0  0  0  0  0  2  0  0  0  0  0  0
  188.0890  175.4360  140.4080 O   0  0  0  0  0  0  0  0  0  0  0  0
  188.6870  172.7070  139.1940 S   0  0  0  0  0  0  0  0  0  0  0  0
  190.3750  171.2740  140.8270 C   0  0  0  0  0  2  0  0  0  0  0  0
  191.2280  171.9440  138.5520 C   0  0  0  0  0  2  0  0  0  0  0  0
  192.4890  169.5990  139.1230 C   0  0  2  0  0  3  0  0  0  0  0  0
  190.0170  171.4770  139.3550 C   0  0  2  0  0  3  0  0  0  0  0  0
  191.4510  170.2150  141.0140 C   0  0  0  0  0  2  0  0  0  0  0  0
  192.3620  170.9150  138.3410 C   0  0  1  0  0  0  0  0  0  0  0  0
  191.9990  169.6110  137.6730 C   0  0  0  0  0  2  0  0  0  0  0  0
  191.3990  169.2990  139.9580 O   0  0  0  0  0  0  0  0  0  0  0  0
  193.6150  171.4330  137.9210 O   0  0  0  0  0  0  0  0  0  0  0  0
  194.1620  172.5740  138.5020 C   0  0  0  0  0  0  0  0  0  0  0  0
  194.4250  173.9590  138.4810 N   0  0  0  0  0  0  0  0  0  0  0  0
  194.8290  173.1770  139.5250 C   0  0  1  0  0  3  0  0  0  0  0  0
  194.1720  172.7700  141.8130 N   0  0  0  0  0  2  0  0  0  0  0  0
  192.8230  174.3790  140.6540 C   0  0  0  0  0  1  0  0  0  0  0  0
  193.9090  173.3520  140.7000 C   0  0  0  0  0  0  0  0  0  0  0  0
  191.7820  176.7160  144.2290 C   0  0  0  0  0  2  0  0  0  0  0  0
  193.9010  173.9510  145.7760 C   0  0  0  0  0  2  0  0  0  0  0  0
  195.1530  174.8380  145.8350 C   0  0  2  0  0  3  0  0  0  0  0  0
  194.1180  175.9250  143.7820 C   0  0  0  0  0  2  0  0  0  0  0  0
  192.6430  174.7830  145.5530 C   0  0  0  0  0  2  0  0  0  0  0  0
  192.7010  175.5080  144.2030 C   0  0  1  0  0  3  0  0  0  0  0  0
  195.0370  176.1180  144.9900 C   0  0  0  0  0  2  0  0  0  0  0  0
  197.1160  173.6630  146.5230 O   0  0  0  0  0  1  0  0  0  0  0  0
  196.3590  174.0220  145.4050 C   0  0  0  0  0  2  0  0  0  0  0  0
  1  6  1  6  0  0  0
  1  8  1  0  0  0  0
  2 12  1  1  0  0  0
  3 16  1  6  0  0  0
  3 14  1  0  0  0  0
  3 10  1  0  0  0  0
  4 15  1  0  0  0  0
  4  8  2  0  0  0  0
  5  1  1  0  0  0  0
  7  9  1  6  0  0  0
  7  4  1  0  0  0  0
  9  5  1  0  0  0  0
 11 10  1  6  0  0  0
 11  2  1  0  0  0  0
 11  7  1  0  0  0  0
 12 15  2  0  0  0  0
 13 35  1  0  0  0  0
 13  2  1  0  0  0  0
 14 13  2  0  0  0  0
 17 16  1  0  0  0  0
 18 16  2  0  0  0  0
 19 17  1  0  0  0  0
 20 24  1  0  0  0  0
 21 23  1  0  0  0  0
 22 26  1  6  0  0  0
 22 27  1  0  0  0  0
 23 19  1  1  0  0  0
 23 20  1  0  0  0  0
 25 28  1  6  0  0  0
 25 21  1  0  0  0  0
 25 22  1  0  0  0  0
 26 25  1  0  0  0  0
 27 24  1  0  0  0  0
 28 29  1  0  0  0  0
 29 31  1  0  0  0  0
 30 29  2  0  0  0  0
 30 31  1  0  0  0  0
 31 34  1  1  0  0  0
 33 34  1  0  0  0  0
 34 32  2  0  0  0  0
 36 37  1  0  0  0  0
 37 43  1  6  0  0  0
 38 40  1  0  0  0  0
 38 41  1  0  0  0  0
 39 36  1  0  0  0  0
 40 35  1  1  0  0  0
 40 39  1  0  0  0  0
 41 37  1  0  0  0  0
 43 42  1  0  0  0  0
M  END
>  <MODEL>
5

>  <REMARK>
 VINA RESULT:      -7.1      1.501      2.447
  Name = 
  9 active torsions:
  status: ('A' for Active; 'I' for Inactive)
    1  A    between atoms: C_1  and  C_34
    2  A    between atoms: C_1  and  C_35
    3  A    between atoms: C_2  and  C_13
    4  A    between atoms: N_6  and  S_17
    5  A    between atoms: C_11  and  O_14
    6  A    between atoms: C_12  and  S_17
    7  A    between atoms: O_14  and  C_22
    8  A    between atoms: C_19  and  C_37
    9  A    between atoms: C_31  and  C_40
                            x       y       z     vdW  Elec       q    Type
                         _______ _______ _______ _____ _____    ______ ____

>  <TORSDO>
F 9

$$$$
=
 OpenBabel11052421133D

 43 49  0  0  1  0  0  0  0  0999 V2000
  184.8570  179.5160  145.4250 C   0  0  1  0  0  3  0  0  0  0  0  0
  188.9880  176.8310  145.1790 C   0  0  1  0  0  3  0  0  0  0  0  0
  188.9060  174.8840  142.9640 C   0  0  2  0  0  3  0  0  0  0  0  0
  186.5720  177.9580  146.0890 C   0  0  0  0  0  0  0  0  0  0  0  0
  185.5490  179.7150  144.0600 C   0  0  0  0  0  2  0  0  0  0  0  0
  183.6890  178.6670  145.2630 N   0  0  0  0  0  1  0  0  0  0  0  0
  186.5940  177.4790  144.6560 C   0  0  1  0  0  3  0  0  0  0  0  0
  185.7670  178.9230  146.4110 N   0  0  0  0  0  0  0  0  0  0  0  0
  186.6850  178.7130  143.7580 C   0  0  0  0  0  2  0  0  0  0  0  0
  187.9890  176.1040  142.9800 C   0  0  0  0  0  2  0  0  0  0  0  0
  187.7060  176.4440  144.4380 C   0  0  1  0  0  3  0  0  0  0  0  0
  188.6710  176.9540  146.6420 C   0  0  0  0  0  3  0  0  0  0  0  0
  190.1430  175.8890  144.8990 C   0  0  0  0  0  0  0  0  0  0  0  0
  190.1310  175.0740  143.8250 C   0  0  0  0  0  3  0  0  0  0  0  0
  187.5610  177.5100  147.0290 N   0  0  0  0  0  0  0  0  0  0  0  0
  189.2560  174.4940  141.5680 C   0  0  0  0  0  0  0  0  0  0  0  0
  190.5490  173.9480  141.3070 N   0  0  0  0  0  2  0  0  0  0  0  0
  188.4100  174.6070  140.6390 O   0  0  0  0  0  0  0  0  0  0  0  0
  191.0400  173.3850  139.7050 S   0  0  0  0  0  0  0  0  0  0  0  0
  193.0070  174.2730  141.4120 C   0  0  0  0  0  2  0  0  0  0  0  0
  193.4920  174.3070  138.9390 C   0  0  0  0  0  2  0  0  0  0  0  0
  195.9050  173.8990  140.1320 C   0  0  2  0  0  3  0  0  0  0  0  0
  192.8120  173.5520  140.0780 C   0  0  2  0  0  3  0  0  0  0  0  0
  194.4760  174.3910  141.7900 C   0  0  0  0  0  2  0  0  0  0  0  0
  195.0370  174.3170  138.9350 C   0  0  1  0  0  0  0  0  0  0  0  0
  195.7390  172.9810  138.9180 C   0  0  0  0  0  2  0  0  0  0  0  0
  195.1980  173.3420  141.2100 O   0  0  0  0  0  0  0  0  0  0  0  0
  195.6620  175.2910  138.1120 O   0  0  0  0  0  0  0  0  0  0  0  0
  195.4450  175.3270  136.7380 C   0  0  0  0  0  0  0  0  0  0  0  0
  195.1290  174.6800  135.5240 N   0  0  0  0  0  0  0  0  0  0  0  0
  195.3710  176.0230  135.5690 C   0  0  1  0  0  3  0  0  0  0  0  0
  193.0670  176.3900  136.1930 N   0  0  0  0  0  2  0  0  0  0  0  0
  194.0350  178.1380  134.8680 C   0  0  0  0  0  1  0  0  0  0  0  0
  194.0800  176.7910  135.5150 C   0  0  0  0  0  0  0  0  0  0  0  0
  191.4300  176.0580  145.6440 C   0  0  0  0  0  2  0  0  0  0  0  0
  194.3500  173.6230  145.3720 C   0  0  0  0  0  2  0  0  0  0  0  0
  195.3760  174.6880  145.7830 C   0  0  2  0  0  3  0  0  0  0  0  0
  193.7300  176.2770  144.6730 C   0  0  0  0  0  2  0  0  0  0  0  0
  192.9290  174.0630  145.7090 C   0  0  0  0  0  2  0  0  0  0  0  0
  192.5500  175.3270  144.9270 C   0  0  1  0  0  3  0  0  0  0  0  0
  194.8240  176.1230  145.7310 C   0  0  0  0  0  2  0  0  0  0  0  0
  197.6720  174.0430  145.6410 O   0  0  0  0  0  1  0  0  0  0  0  0
  196.6050  174.5570  144.9010 C   0  0  0  0  0  2  0  0  0  0  0  0
  1  6  1  6  0  0  0
  1  8  1  0  0  0  0
  2 12  1  1  0  0  0
  3 16  1  6  0  0  0
  3 10  1  0  0  0  0
  3 14  1  0  0  0  0
  4  8  2  0  0  0  0
  4 15  1  0  0  0  0
  5  1  1  0  0  0  0
  7  9  1  6  0  0  0
  7  4  1  0  0  0  0
  9  5  1  0  0  0  0
 11 10  1  6  0  0  0
 11  7  1  0  0  0  0
 11  2  1  0  0  0  0
 12 15  2  0  0  0  0
 13  2  1  0  0  0  0
 13 35  1  0  0  0  0
 14 13  2  0  0  0  0
 17 16  1  0  0  0  0
 18 16  2  0  0  0  0
 19 17  1  0  0  0  0
 20 24  1  0  0  0  0
 21 23  1  0  0  0  0
 22 26  1  6  0  0  0
 22 27  1  0  0  0  0
 23 19  1  6  0  0  0
 23 20  1  0  0  0  0
 25 28  1  6  0  0  0
 25 21  1  0  0  0  0
 25 22  1  0  0  0  0
 26 25  1  0  0  0  0
 27 24  1  0  0  0  0
 29 28  1  0  0  0  0
 30 31  1  0  0  0  0
 30 29  2  0  0  0  0
 31 34  1  1  0  0  0
 31 29  1  0  0  0  0
 33 34  1  0  0  0  0
 34 32  2  0  0  0  0
 36 39  1  0  0  0  0
 36 37  1  0  0  0  0
 37 43  1  6  0  0  0
 38 40  1  0  0  0  0
 38 41  1  0  0  0  0
 40 35  1  1  0  0  0
 40 39  1  0  0  0  0
 41 37  1  0  0  0  0
 43 42  1  0  0  0  0
M  END
>  <MODEL>
6

>  <REMARK>
 VINA RESULT:      -7.1      3.323      4.645
  Name = 
  9 active torsions:
  status: ('A' for Active; 'I' for Inactive)
    1  A    between atoms: C_1  and  C_34
    2  A    between atoms: C_1  and  C_35
    3  A    between atoms: C_2  and  C_13
    4  A    between atoms: N_6  and  S_17
    5  A    between atoms: C_11  and  O_14
    6  A    between atoms: C_12  and  S_17
    7  A    between atoms: O_14  and  C_22
    8  A    between atoms: C_19  and  C_37
    9  A    between atoms: C_31  and  C_40
                            x       y       z     vdW  Elec       q    Type
                         _______ _______ _______ _____ _____    ______ ____

>  <TORSDO>
F 9

$$$$
=
 OpenBabel11052421133D

 43 49  0  0  1  0  0  0  0  0999 V2000
  185.0140  179.5170  144.9610 C   0  0  1  0  0  3  0  0  0  0  0  0
  189.0740  176.7180  145.0710 C   0  0  1  0  0  3  0  0  0  0  0  0
  188.9920  174.5780  143.0410 C   0  0  2  0  0  3  0  0  0  0  0  0
  186.6690  177.9850  145.8090 C   0  0  0  0  0  0  0  0  0  0  0  0
  185.7440  179.5720  143.6020 C   0  0  0  0  0  2  0  0  0  0  0  0
  183.8270  178.6860  144.8460 N   0  0  0  0  0  1  0  0  0  0  0  0
  186.7120  177.3750  144.4270 C   0  0  1  0  0  3  0  0  0  0  0  0
  185.8840  178.9950  146.0200 N   0  0  0  0  0  0  0  0  0  0  0  0
  186.8590  178.5180  143.4230 C   0  0  0  0  0  2  0  0  0  0  0  0
  188.1090  175.8170  142.9220 C   0  0  0  0  0  2  0  0  0  0  0  0
  187.8000  176.2970  144.3340 C   0  0  1  0  0  3  0  0  0  0  0  0
  188.7260  176.9830  146.5070 C   0  0  0  0  0  3  0  0  0  0  0  0
  190.2100  175.7250  144.9090 C   0  0  0  0  0  0  0  0  0  0  0  0
  190.2010  174.8160  143.9140 C   0  0  0  0  0  3  0  0  0  0  0  0
  187.6220  177.6000  146.8130 N   0  0  0  0  0  0  0  0  0  0  0  0
  189.3660  174.0530  141.6960 C   0  0  0  0  0  0  0  0  0  0  0  0
  190.7060  173.6170  141.4730 N   0  0  0  0  0  2  0  0  0  0  0  0
  188.5010  173.9570  140.7830 O   0  0  0  0  0  0  0  0  0  0  0  0
  191.2350  172.9100  139.9420 S   0  0  0  0  0  0  0  0  0  0  0  0
  192.1280  171.4370  142.0870 C   0  0  0  0  0  2  0  0  0  0  0  0
  193.8060  172.8620  140.8600 C   0  0  0  0  0  2  0  0  0  0  0  0
  195.2290  170.7420  141.8040 C   0  0  2  0  0  3  0  0  0  0  0  0
  192.5780  171.9660  140.7250 C   0  0  2  0  0  3  0  0  0  0  0  0
  193.2040  170.5960  142.7590 C   0  0  0  0  0  2  0  0  0  0  0  0
  195.1310  172.1720  141.2520 C   0  0  1  0  0  0  0  0  0  0  0  0
  195.6240  171.0590  140.3590 C   0  0  0  0  0  2  0  0  0  0  0  0
  194.0260  170.0170  141.7860 O   0  0  0  0  0  0  0  0  0  0  0  0
  196.1700  173.0190  141.7220 O   0  0  0  0  0  0  0  0  0  0  0  0
  196.5640  174.1490  141.0110 C   0  0  0  0  0  0  0  0  0  0  0  0
  196.5680  174.9190  139.8290 N   0  0  0  0  0  0  0  0  0  0  0  0
  197.2250  175.3380  140.9500 C   0  0  1  0  0  3  0  0  0  0  0  0
  195.2370  176.6700  141.2750 N   0  0  0  0  0  2  0  0  0  0  0  0
  196.9280  176.9730  142.9470 C   0  0  0  0  0  1  0  0  0  0  0  0
  196.4300  176.3980  141.6590 C   0  0  0  0  0  0  0  0  0  0  0  0
  191.4820  175.9300  145.6690 C   0  0  0  0  0  2  0  0  0  0  0  0
  194.3520  173.4300  145.4590 C   0  0  0  0  0  2  0  0  0  0  0  0
  195.3790  174.4490  145.9730 C   0  0  2  0  0  3  0  0  0  0  0  0
  193.8400  176.1270  144.8400 C   0  0  0  0  0  2  0  0  0  0  0  0
  192.9250  173.8940  145.7330 C   0  0  0  0  0  2  0  0  0  0  0  0
  192.6240  175.1990  144.9860 C   0  0  1  0  0  3  0  0  0  0  0  0
  194.8660  175.8990  145.9520 C   0  0  0  0  0  2  0  0  0  0  0  0
  197.3880  173.2150  145.5900 O   0  0  0  0  0  1  0  0  0  0  0  0
  196.6530  174.3210  145.1570 C   0  0  0  0  0  2  0  0  0  0  0  0
  1  6  1  6  0  0  0
  1  8  1  0  0  0  0
  2 12  1  1  0  0  0
  3 16  1  6  0  0  0
  3 14  1  0  0  0  0
  4  8  2  0  0  0  0
  4 15  1  0  0  0  0
  5  1  1  0  0  0  0
  7  9  1  6  0  0  0
  7  4  1  0  0  0  0
  9  5  1  0  0  0  0
 10  3  1  0  0  0  0
 11 10  1  6  0  0  0
 11  7  1  0  0  0  0
 11  2  1  0  0  0  0
 12 15  2  0  0  0  0
 13  2  1  0  0  0  0
 13 35  1  0  0  0  0
 14 13  2  0  0  0  0
 17 16  1  0  0  0  0
 18 16  2  0  0  0  0
 19 17  1  0  0  0  0
 20 24  1  0  0  0  0
 21 25  1  0  0  0  0
 22 26  1  6  0  0  0
 23 19  1  1  0  0  0
 23 21  1  0  0  0  0
 23 20  1  0  0  0  0
 25 28  1  1  0  0  0
 25 22  1  0  0  0  0
 26 25  1  0  0  0  0
 27 22  1  0  0  0  0
 27 24  1  0  0  0  0
 29 28  1  0  0  0  0
 30 31  1  0  0  0  0
 30 29  2  0  0  0  0
 31 29  1  0  0  0  0
 31 34  1  1  0  0  0
 32 34  2  0  0  0  0
 34 33  1  0  0  0  0
 36 39  1  0  0  0  0
 36 37  1  0  0  0  0
 37 43  1  6  0  0  0
 38 40  1  0  0  0  0
 38 41  1  0  0  0  0
 40 35  1  1  0  0  0
 40 39  1  0  0  0  0
 41 37  1  0  0  0  0
 43 42  1  0  0  0  0
M  END
>  <MODEL>
7

>  <REMARK>
 VINA RESULT:      -7.0      2.300      3.598
  Name = 
  9 active torsions:
  status: ('A' for Active; 'I' for Inactive)
    1  A    between atoms: C_1  and  C_34
    2  A    between atoms: C_1  and  C_35
    3  A    between atoms: C_2  and  C_13
    4  A    between atoms: N_6  and  S_17
    5  A    between atoms: C_11  and  O_14
    6  A    between atoms: C_12  and  S_17
    7  A    between atoms: O_14  and  C_22
    8  A    between atoms: C_19  and  C_37
    9  A    between atoms: C_31  and  C_40
                            x       y       z     vdW  Elec       q    Type
                         _______ _______ _______ _____ _____    ______ ____

>  <TORSDO>
F 9

$$$$
=
 OpenBabel11052421133D

 43 49  0  0  1  0  0  0  0  0999 V2000
  195.7860  174.3780  145.7640 C   0  0  1  0  0  3  0  0  0  0  0  0
  190.9510  175.3370  145.5750 C   0  0  1  0  0  3  0  0  0  0  0  0
  189.8280  174.8180  142.8970 C   0  0  2  0  0  3  0  0  0  0  0  0
  193.7370  175.6450  145.8460 C   0  0  0  0  0  0  0  0  0  0  0  0
  194.9990  173.1080  145.3760 C   0  0  0  0  0  2  0  0  0  0  0  0
  196.4560  174.9150  144.5920 N   0  0  0  0  0  1  0  0  0  0  0  0
  193.2620  174.8210  144.6720 C   0  0  1  0  0  3  0  0  0  0  0  0
  194.9090  175.4000  146.3450 N   0  0  0  0  0  0  0  0  0  0  0  0
  193.5190  173.3510  145.0060 C   0  0  0  0  0  2  0  0  0  0  0  0
  191.1480  174.1910  143.3370 C   0  0  0  0  0  2  0  0  0  0  0  0
  191.8060  175.1530  144.3200 C   0  0  1  0  0  3  0  0  0  0  0  0
  191.5500  176.4390  146.4000 C   0  0  0  0  0  3  0  0  0  0  0  0
  189.4820  175.5580  145.2670 C   0  0  0  0  0  0  0  0  0  0  0  0
  188.9650  175.2240  144.0680 C   0  0  0  0  0  3  0  0  0  0  0  0
  192.8410  176.5340  146.5320 N   0  0  0  0  0  0  0  0  0  0  0  0
  189.1010  173.9270  141.9470 C   0  0  0  0  0  0  0  0  0  0  0  0
  189.3130  174.0940  140.5450 N   0  0  0  0  0  2  0  0  0  0  0  0
  188.3430  173.0150  142.3760 O   0  0  0  0  0  0  0  0  0  0  0  0
  188.5600  173.0450  139.3370 S   0  0  0  0  0  0  0  0  0  0  0  0
  189.8920  172.0240  137.1570 C   0  0  0  0  0  2  0  0  0  0  0  0
  191.2740  172.8930  139.0770 C   0  0  0  0  0  2  0  0  0  0  0  0
  192.7900  173.3230  136.8580 C   0  0  2  0  0  3  0  0  0  0  0  0
  190.0120  173.0940  138.2430 C   0  0  2  0  0  3  0  0  0  0  0  0
  191.0620  172.0600  136.1860 C   0  0  0  0  0  2  0  0  0  0  0  0
  192.6230  173.1690  138.3770 C   0  0  1  0  0  0  0  0  0  0  0  0
  192.8280  174.5420  137.7840 C   0  0  0  0  0  2  0  0  0  0  0  0
  191.5890  173.3550  136.1300 O   0  0  0  0  0  0  0  0  0  0  0  0
  193.7830  172.6520  139.0120 O   0  0  0  0  0  0  0  0  0  0  0  0
  194.1250  173.0200  140.3100 C   0  0  0  0  0  0  0  0  0  0  0  0
  194.7100  172.7240  141.5590 N   0  0  0  0  0  0  0  0  0  0  0  0
  194.1500  173.9440  141.3100 C   0  0  1  0  0  3  0  0  0  0  0  0
  196.2870  174.6220  140.4120 N   0  0  0  0  0  2  0  0  0  0  0  0
  194.9460  176.4160  141.2660 C   0  0  0  0  0  1  0  0  0  0  0  0
  195.2180  174.9640  141.0330 C   0  0  0  0  0  0  0  0  0  0  0  0
  188.5350  175.8790  146.3810 C   0  0  0  0  0  2  0  0  0  0  0  0
  186.1980  178.7960  147.1270 C   0  0  0  0  0  2  0  0  0  0  0  0
  184.9400  177.9570  146.8570 C   0  0  2  0  0  3  0  0  0  0  0  0
  186.4680  176.7250  145.2410 C   0  0  0  0  0  2  0  0  0  0  0  0
  187.4250  177.9110  147.3140 C   0  0  0  0  0  2  0  0  0  0  0  0
  187.7230  177.1150  146.0370 C   0  0  1  0  0  3  0  0  0  0  0  0
  185.2320  176.6300  146.1370 C   0  0  0  0  0  2  0  0  0  0  0  0
  184.6150  179.4760  145.0420 O   0  0  0  0  0  1  0  0  0  0  0  0
  183.9510  178.7900  146.0620 C   0  0  0  0  0  2  0  0  0  0  0  0
  1  6  1  6  0  0  0
  1  8  1  0  0  0  0
  2 12  1  6  0  0  0
  3 16  1  6  0  0  0
  3 10  1  0  0  0  0
  3 14  1  0  0  0  0
  4  8  2  0  0  0  0
  4 15  1  0  0  0  0
  5  1  1  0  0  0  0
  7  9  1  1  0  0  0
  7  4  1  0  0  0  0
  9  5  1  0  0  0  0
 11 10  1  6  0  0  0
 11  7  1  0  0  0  0
 11  2  1  0  0  0  0
 12 15  2  0  0  0  0
 13  2  1  0  0  0  0
 13 35  1  0  0  0  0
 14 13  2  0  0  0  0
 16 18  2  0  0  0  0
 17 16  1  0  0  0  0
 19 17  1  0  0  0  0
 20 23  1  0  0  0  0
 22 26  1  1  0  0  0
 22 25  1  0  0  0  0
 23 21  1  0  0  0  0
 23 19  1  1  0  0  0
 24 20  1  0  0  0  0
 25 28  1  1  0  0  0
 25 21  1  0  0  0  0
 26 25  1  0  0  0  0
 27 24  1  0  0  0  0
 27 22  1  0  0  0  0
 28 29  1  0  0  0  0
 29 31  1  0  0  0  0
 29 30  2  0  0  0  0
 31 34  1  6  0  0  0
 31 30  1  0  0  0  0
 32 34  2  0  0  0  0
 34 33  1  0  0  0  0
 36 39  1  0  0  0  0
 37 43  1  6  0  0  0
 37 36  1  0  0  0  0
 38 40  1  0  0  0  0
 38 41  1  0  0  0  0
 40 35  1  1  0  0  0
 40 39  1  0  0  0  0
 41 37  1  0  0  0  0
 42 43  1  0  0  0  0
M  END
>  <MODEL>
8

>  <REMARK>
 VINA RESULT:      -6.9      2.904      6.577
  Name = 
  9 active torsions:
  status: ('A' for Active; 'I' for Inactive)
    1  A    between atoms: C_1  and  C_34
    2  A    between atoms: C_1  and  C_35
    3  A    between atoms: C_2  and  C_13
    4  A    between atoms: N_6  and  S_17
    5  A    between atoms: C_11  and  O_14
    6  A    between atoms: C_12  and  S_17
    7  A    between atoms: O_14  and  C_22
    8  A    between atoms: C_19  and  C_37
    9  A    between atoms: C_31  and  C_40
                            x       y       z     vdW  Elec       q    Type
                         _______ _______ _______ _____ _____    ______ ____

>  <TORSDO>
F 9

$$$$
=
 OpenBabel11052421133D

 43 49  0  0  1  0  0  0  0  0999 V2000
  185.3490  179.2910  143.9850 C   0  0  1  0  0  3  0  0  0  0  0  0
  188.9380  176.0310  144.8910 C   0  0  1  0  0  3  0  0  0  0  0  0
  188.8950  173.7840  142.9800 C   0  0  2  0  0  3  0  0  0  0  0  0
  186.6350  177.6290  145.1650 C   0  0  0  0  0  0  0  0  0  0  0  0
  186.2830  179.1630  142.7630 C   0  0  0  0  0  2  0  0  0  0  0  0
  184.0960  178.6050  143.7160 N   0  0  0  0  0  1  0  0  0  0  0  0
  186.8140  176.9260  143.8390 C   0  0  1  0  0  3  0  0  0  0  0  0
  185.9660  178.7390  145.1960 N   0  0  0  0  0  0  0  0  0  0  0  0
  187.2640  177.9720  142.8190 C   0  0  0  0  0  2  0  0  0  0  0  0
  188.2120  175.1110  142.6580 C   0  0  0  0  0  2  0  0  0  0  0  0
  187.7510  175.7190  143.9770 C   0  0  1  0  0  3  0  0  0  0  0  0
  188.4080  176.4330  146.2370 C   0  0  0  0  0  3  0  0  0  0  0  0
  189.9450  174.8980  144.9650 C   0  0  0  0  0  0  0  0  0  0  0  0
  189.9730  173.9310  144.0270 C   0  0  0  0  0  3  0  0  0  0  0  0
  187.3600  177.1990  146.3280 N   0  0  0  0  0  0  0  0  0  0  0  0
  189.4020  173.1270  141.7410 C   0  0  0  0  0  0  0  0  0  0  0  0
  190.0600  173.9240  140.7570 N   0  0  0  0  0  2  0  0  0  0  0  0
  189.2870  171.8810  141.5830 O   0  0  0  0  0  0  0  0  0  0  0  0
  190.7640  173.2350  139.2890 S   0  0  0  0  0  0  0  0  0  0  0  0
  193.1520  174.3100  138.4450 C   0  0  0  0  0  2  0  0  0  0  0  0
  193.2120  172.6610  140.3500 C   0  0  0  0  0  2  0  0  0  0  0  0
  195.3010  174.3470  140.8030 C   0  0  2  0  0  3  0  0  0  0  0  0
  192.4400  173.8070  139.7010 C   0  0  2  0  0  3  0  0  0  0  0  0
  194.5430  174.8460  138.7510 C   0  0  0  0  0  2  0  0  0  0  0  0
  194.5600  173.0190  141.0160 C   0  0  1  0  0  0  0  0  0  0  0  0
  194.5400  174.0680  142.1020 C   0  0  0  0  0  2  0  0  0  0  0  0
  194.5890  175.3110  140.0700 O   0  0  0  0  0  0  0  0  0  0  0  0
  195.4340  171.9360  141.2960 O   0  0  0  0  0  0  0  0  0  0  0  0
  195.2820  171.1560  142.4390 C   0  0  0  0  0  0  0  0  0  0  0  0
  195.5260  170.9190  143.8080 N   0  0  0  0  0  0  0  0  0  0  0  0
  194.7720  170.0580  143.0630 C   0  0  1  0  0  3  0  0  0  0  0  0
  192.4540  169.3910  142.9520 N   0  0  0  0  0  2  0  0  0  0  0  0
  192.8690  171.3530  144.2660 C   0  0  0  0  0  1  0  0  0  0  0  0
  193.3100  170.2630  143.3410 C   0  0  0  0  0  0  0  0  0  0  0  0
  191.0980  174.9970  145.9140 C   0  0  0  0  0  2  0  0  0  0  0  0
  194.8930  174.9970  145.5560 C   0  0  0  0  0  2  0  0  0  0  0  0
  194.9490  176.5150  145.3310 C   0  0  2  0  0  3  0  0  0  0  0  0
  192.6470  176.1510  144.3150 C   0  0  0  0  0  2  0  0  0  0  0  0
  193.5480  174.5710  146.1340 C   0  0  0  0  0  2  0  0  0  0  0  0
  192.4090  174.8880  145.1560 C   0  0  1  0  0  3  0  0  0  0  0  0
  193.5780  177.1390  145.0200 C   0  0  0  0  0  2  0  0  0  0  0  0
  196.8180  175.7430  144.0600 O   0  0  0  0  0  1  0  0  0  0  0  0
  195.9370  176.8150  144.2180 C   0  0  0  0  0  2  0  0  0  0  0  0
  1  6  1  6  0  0  0
  1  8  1  0  0  0  0
  2 13  1  0  0  0  0
  2 12  1  1  0  0  0
  3 16  1  6  0  0  0
  3 14  1  0  0  0  0
  4  8  2  0  0  0  0
  4 15  1  0  0  0  0
  5  9  1  0  0  0  0
  5  1  1  0  0  0  0
  7  9  1  6  0  0  0
  7 11  1  0  0  0  0
  7  4  1  0  0  0  0
 10  3  1  0  0  0  0
 11 10  1  6  0  0  0
 11  2  1  0  0  0  0
 12 15  2  0  0  0  0
 13 35  1  0  0  0  0
 14 13  2  0  0  0  0
 17 16  1  0  0  0  0
 18 16  2  0  0  0  0
 19 17  1  0  0  0  0
 20 24  1  0  0  0  0
 20 23  1  0  0  0  0
 21 25  1  0  0  0  0
 22 25  1  0  0  0  0
 22 26  1  1  0  0  0
 23 19  1  6  0  0  0
 23 21  1  0  0  0  0
 24 27  1  0  0  0  0
 25 28  1  1  0  0  0
 25 26  1  0  0  0  0
 27 22  1  0  0  0  0
 28 29  1  0  0  0  0
 29 31  1  0  0  0  0
 29 30  2  0  0  0  0
 31 34  1  1  0  0  0
 31 30  1  0  0  0  0
 32 34  2  0  0  0  0
 34 33  1  0  0  0  0
 36 39  1  0  0  0  0
 37 43  1  6  0  0  0
 37 36  1  0  0  0  0
 38 41  1  0  0  0  0
 38 40  1  0  0  0  0
 40 35  1  1  0  0  0
 40 39  1  0  0  0  0
 41 37  1  0  0  0  0
 42 43  1  0  0  0  0
M  END
>  <MODEL>
9

>  <REMARK>
 VINA RESULT:      -6.8      2.327      3.125
  Name = 
  9 active torsions:
  status: ('A' for Active; 'I' for Inactive)
    1  A    between atoms: C_1  and  C_34
    2  A    between atoms: C_1  and  C_35
    3  A    between atoms: C_2  and  C_13
    4  A    between atoms: N_6  and  S_17
    5  A    between atoms: C_11  and  O_14
    6  A    between atoms: C_12  and  S_17
    7  A    between atoms: O_14  and  C_22
    8  A    between atoms: C_19  and  C_37
    9  A    between atoms: C_31  and  C_40
                            x       y       z     vdW  Elec       q    Type
                         _______ _______ _______ _____ _____    ______ ____

>  <TORSDO>
F 9

$$$$
