=
 OpenBabel11052417063D

 30 34  0  0  1  0  0  0  0  0999 V2000
  189.3480  175.6420  143.2560 C   0  0  1  0  0  3  0  0  0  0  0  0
  187.3610  176.7170  142.2250 C   0  0  0  0  0  0  0  0  0  0  0  0
  188.6480  176.5730  146.7180 C   0  0  0  0  0  2  0  0  0  0  0  0
  190.8260  175.9230  143.6660 C   0  0  2  0  0  3  0  0  0  0  0  0
  188.8920  174.2690  143.5020 N   0  0  0  0  0  2  0  0  0  0  0  0
  191.8030  172.2170  142.8550 C   0  0  0  0  0  2  0  0  0  0  0  0
  193.7390  176.2560  144.0690 C   0  0  0  0  0  2  0  0  0  0  0  0
  191.1480  173.4430  143.4390 C   0  0  2  0  0  3  0  0  0  0  0  0
  189.4680  171.9520  142.8080 C   0  0  0  0  0  2  0  0  0  0  0  0
  191.6360  175.4650  147.1310 C   0  0  0  0  0  2  0  0  0  0  0  0
  189.2480  175.2370  146.2870 C   0  0  2  0  0  3  0  0  0  0  0  0
  189.8160  173.4170  142.7700 C   0  0  1  0  0  3  0  0  0  0  0  0
  191.8130  174.8020  143.1940 C   0  0  2  0  0  3  0  0  0  0  0  0
  186.2300  177.5330  142.2390 C   0  0  0  0  0  3  0  0  0  0  0  0
  192.9650  175.1770  146.8000 O   0  0  0  0  0  0  0  0  0  0  0  0
  194.5130  176.3470  145.3790 C   0  0  0  0  0  2  0  0  0  0  0  0
  190.8280  170.7010  141.3530 C   0  0  0  0  0  1  0  0  0  0  0  0
  187.6060  175.9370  141.0990 O   0  0  0  0  0  1  0  0  0  0  0  0
  188.8250  177.6540  145.6560 C   0  0  0  0  0  2  0  0  0  0  0  0
  185.9420  178.3180  143.3500 C   0  0  0  0  0  3  0  0  0  0  0  0
  190.7370  171.2220  142.7060 N   0  0  0  0  0  0  0  0  0  0  0  0
  188.2360  176.6720  143.3320 C   0  0  0  0  0  0  0  0  0  0  0  0
  191.0040  176.3390  145.0050 O   0  0  0  0  0  0  0  0  0  0  0  0
  189.0160  174.2670  147.2610 O   0  0  0  0  0  1  0  0  0  0  0  0
  190.7410  175.2900  145.9080 C   0  0  1  0  0  3  0  0  0  0  0  0
  193.5780  176.4170  146.5840 C   0  0  0  0  0  2  0  0  0  0  0  0
  194.1140  174.0860  143.1640 O   0  0  0  0  0  1  0  0  0  0  0  0
  186.7950  178.2990  144.4500 C   0  0  0  0  0  3  0  0  0  0  0  0
  187.9370  177.4900  144.4640 C   0  0  0  0  0  0  0  0  0  0  0  0
  193.1900  174.8480  143.8800 C   0  0  1  0  0  3  0  0  0  0  0  0
  1 22  1  1  0  0  0
  1  5  1  0  0  0  0
  1  4  1  0  0  0  0
  2 14  2  0  0  0  0
  2 22  1  0  0  0  0
  4 23  1  1  0  0  0
  7 16  1  0  0  0  0
  8  6  1  6  0  0  0
 11  3  1  0  0  0  0
 11 24  1  1  0  0  0
 12  9  1  1  0  0  0
 12  8  1  0  0  0  0
 12  5  1  0  0  0  0
 13  8  1  0  0  0  0
 13  4  1  0  0  0  0
 13 30  1  0  0  0  0
 14 20  1  0  0  0  0
 15 10  1  0  0  0  0
 16 26  1  0  0  0  0
 17 21  1  0  0  0  0
 18  2  1  0  0  0  0
 19  3  1  0  0  0  0
 20 28  2  0  0  0  0
 21  9  1  0  0  0  0
 21  6  1  0  0  0  0
 22 29  2  0  0  0  0
 23 25  1  0  0  0  0
 25 11  1  0  0  0  0
 25 10  1  0  0  0  0
 26 15  1  0  0  0  0
 27 30  1  0  0  0  0
 28 29  1  0  0  0  0
 29 19  1  0  0  0  0
 30  7  1  0  0  0  0
M  END
>  <MODEL>
1

>  <REMARK>
 VINA RESULT:      -8.7      0.000      0.000
  Name = 
  0 active torsions:
  status: ('A' for Active; 'I' for Inactive)
                            x       y       z     vdW  Elec       q    Type
                         _______ _______ _______ _____ _____    ______ ____

>  <TORSDO>
F 0

$$$$
=
 OpenBabel11052417063D

 30 34  0  0  1  0  0  0  0  0999 V2000
  189.5380  176.7420  143.3690 C   0  0  1  0  0  3  0  0  0  0  0  0
  187.4460  177.9490  142.7920 C   0  0  0  0  0  0  0  0  0  0  0  0
  188.6560  175.8790  146.8060 C   0  0  0  0  0  2  0  0  0  0  0  0
  190.9580  176.9590  143.9750 C   0  0  2  0  0  3  0  0  0  0  0  0
  189.2630  175.3710  142.9230 N   0  0  0  0  0  2  0  0  0  0  0  0
  192.4310  174.1830  141.6380 C   0  0  0  0  0  2  0  0  0  0  0  0
  193.7930  177.3810  144.7120 C   0  0  0  0  0  2  0  0  0  0  0  0
  191.6090  174.9190  142.6650 C   0  0  2  0  0  3  0  0  0  0  0  0
  190.1540  173.7180  141.2930 C   0  0  0  0  0  2  0  0  0  0  0  0
  191.7560  175.0370  146.8980 C   0  0  0  0  0  2  0  0  0  0  0  0
  189.4350  174.9690  145.8600 C   0  0  2  0  0  3  0  0  0  0  0  0
  190.3060  175.0620  141.9570 C   0  0  1  0  0  3  0  0  0  0  0  0
  192.0940  176.2990  143.1220 C   0  0  2  0  0  3  0  0  0  0  0  0
  186.2170  178.5380  143.0890 C   0  0  0  0  0  3  0  0  0  0  0  0
  193.1170  175.0810  146.5770 O   0  0  0  0  0  0  0  0  0  0  0  0
  194.5240  176.9370  145.9740 C   0  0  0  0  0  2  0  0  0  0  0  0
  191.6940  173.4410  139.5370 C   0  0  0  0  0  1  0  0  0  0  0  0
  187.8140  177.8130  141.4570 O   0  0  0  0  0  1  0  0  0  0  0  0
  188.7080  177.3410  146.3740 C   0  0  0  0  0  2  0  0  0  0  0  0
  185.8070  178.6820  144.4110 C   0  0  0  0  0  3  0  0  0  0  0  0
  191.5100  173.2610  140.9670 N   0  0  0  0  0  0  0  0  0  0  0  0
  188.2980  177.4910  143.8210 C   0  0  0  0  0  0  0  0  0  0  0  0
  191.0540  176.7220  145.3650 O   0  0  0  0  0  0  0  0  0  0  0  0
  189.3150  173.6380  146.2600 O   0  0  0  0  0  1  0  0  0  0  0  0
  190.9150  175.3530  145.6650 C   0  0  1  0  0  3  0  0  0  0  0  0
  193.5640  176.3380  147.0010 C   0  0  0  0  0  2  0  0  0  0  0  0
  194.4690  175.9330  142.9470 O   0  0  0  0  0  1  0  0  0  0  0  0
  186.6340  178.2470  145.4430 C   0  0  0  0  0  3  0  0  0  0  0  0
  187.8720  177.6530  145.1740 C   0  0  0  0  0  0  0  0  0  0  0  0
  193.4390  176.1700  143.8580 C   0  0  1  0  0  3  0  0  0  0  0  0
  1  5  1  1  0  0  0
  1 22  1  0  0  0  0
  1  4  1  0  0  0  0
  2 14  2  0  0  0  0
  2 22  1  0  0  0  0
  4 23  1  1  0  0  0
  7 16  1  0  0  0  0
  8  6  1  6  0  0  0
  8 13  1  0  0  0  0
 11 24  1  1  0  0  0
 11  3  1  0  0  0  0
 12  9  1  1  0  0  0
 12  8  1  0  0  0  0
 12  5  1  0  0  0  0
 13 30  1  0  0  0  0
 13  4  1  0  0  0  0
 14 20  1  0  0  0  0
 15 10  1  0  0  0  0
 15 26  1  0  0  0  0
 16 26  1  0  0  0  0
 17 21  1  0  0  0  0
 18  2  1  0  0  0  0
 19  3  1  0  0  0  0
 20 28  2  0  0  0  0
 21  9  1  0  0  0  0
 21  6  1  0  0  0  0
 22 29  2  0  0  0  0
 23 25  1  0  0  0  0
 25 11  1  0  0  0  0
 25 10  1  0  0  0  0
 27 30  1  0  0  0  0
 29 28  1  0  0  0  0
 29 19  1  0  0  0  0
 30  7  1  0  0  0  0
M  END
>  <MODEL>
2

>  <REMARK>
 VINA RESULT:      -8.7      1.400      1.490
  Name = 
  0 active torsions:
  status: ('A' for Active; 'I' for Inactive)
                            x       y       z     vdW  Elec       q    Type
                         _______ _______ _______ _____ _____    ______ ____

>  <TORSDO>
F 0

$$$$
=
 OpenBabel11052417063D

 30 34  0  0  1  0  0  0  0  0999 V2000
  188.4270  176.6730  145.0870 C   0  0  1  0  0  3  0  0  0  0  0  0
  187.1000  177.8610  146.8170 C   0  0  0  0  0  0  0  0  0  0  0  0
  186.2970  177.4640  142.2270 C   0  0  0  0  0  2  0  0  0  0  0  0
  188.5670  175.2920  144.3750 C   0  0  2  0  0  3  0  0  0  0  0  0
  189.4090  177.6810  144.6710 N   0  0  0  0  0  2  0  0  0  0  0  0
  192.4380  175.7970  144.0570 C   0  0  0  0  0  2  0  0  0  0  0  0
  189.1620  172.5980  143.3020 C   0  0  0  0  0  2  0  0  0  0  0  0
  190.9450  175.9780  143.9530 C   0  0  2  0  0  3  0  0  0  0  0  0
  191.8750  177.9980  144.6570 C   0  0  0  0  0  2  0  0  0  0  0  0
  188.1910  175.2920  140.8060 C   0  0  0  0  0  2  0  0  0  0  0  0
  187.8210  177.4010  142.1780 C   0  0  2  0  0  3  0  0  0  0  0  0
  190.7100  177.0820  144.9260 C   0  0  1  0  0  3  0  0  0  0  0  0
  190.0480  174.7870  144.3080 C   0  0  2  0  0  3  0  0  0  0  0  0
  185.9790  178.5480  147.2830 C   0  0  0  0  0  3  0  0  0  0  0  0
  189.0110  174.1620  140.7030 O   0  0  0  0  0  0  0  0  0  0  0  0
  188.9490  172.0700  141.8880 C   0  0  0  0  0  2  0  0  0  0  0  0
  193.9030  177.0570  145.3880 C   0  0  0  0  0  1  0  0  0  0  0  0
  188.2220  177.7820  147.6360 O   0  0  0  0  0  1  0  0  0  0  0  0
  185.7260  176.6980  143.4170 C   0  0  0  0  0  2  0  0  0  0  0  0
  184.8420  178.6600  146.4890 C   0  0  0  0  0  3  0  0  0  0  0  0
  192.9950  177.1380  144.2570 N   0  0  0  0  0  0  0  0  0  0  0  0
  187.1040  177.2650  145.5360 C   0  0  0  0  0  0  0  0  0  0  0  0
  187.8500  175.1720  143.1630 O   0  0  0  0  0  0  0  0  0  0  0  0
  188.3010  178.1580  141.1090 O   0  0  0  0  0  1  0  0  0  0  0  0
  188.4100  175.9780  142.1520 C   0  0  1  0  0  3  0  0  0  0  0  0
  188.1910  173.0720  141.0190 C   0  0  0  0  0  2  0  0  0  0  0  0
  191.4930  173.0040  143.5710 O   0  0  0  0  0  1  0  0  0  0  0  0
  184.8190  178.0720  145.2270 C   0  0  0  0  0  3  0  0  0  0  0  0
  185.9290  177.3780  144.7340 C   0  0  0  0  0  0  0  0  0  0  0  0
  190.2770  173.6370  143.3110 C   0  0  1  0  0  3  0  0  0  0  0  0
  1  5  1  6  0  0  0
  1 22  1  0  0  0  0
  2 14  1  0  0  0  0
  2 18  1  0  0  0  0
  3 19  1  0  0  0  0
  4 23  1  6  0  0  0
  4  1  1  0  0  0  0
  5 12  1  0  0  0  0
  6 21  1  0  0  0  0
  7 30  1  0  0  0  0
  8  6  1  1  0  0  0
  8 13  1  0  0  0  0
  8 12  1  0  0  0  0
 10 25  1  0  0  0  0
 11 24  1  6  0  0  0
 11  3  1  0  0  0  0
 12  9  1  6  0  0  0
 13  4  1  0  0  0  0
 15 10  1  0  0  0  0
 15 26  1  0  0  0  0
 16  7  1  0  0  0  0
 19 29  1  0  0  0  0
 20 14  2  0  0  0  0
 21  9  1  0  0  0  0
 21 17  1  0  0  0  0
 22  2  2  0  0  0  0
 25 11  1  0  0  0  0
 25 23  1  0  0  0  0
 26 16  1  0  0  0  0
 28 20  1  0  0  0  0
 29 28  2  0  0  0  0
 29 22  1  0  0  0  0
 30 27  1  0  0  0  0
 30 13  1  0  0  0  0
M  END
>  <MODEL>
3

>  <REMARK>
 VINA RESULT:      -8.4      2.332      5.135
  Name = 
  0 active torsions:
  status: ('A' for Active; 'I' for Inactive)
                            x       y       z     vdW  Elec       q    Type
                         _______ _______ _______ _____ _____    ______ ____

>  <TORSDO>
F 0

$$$$
=
 OpenBabel11052417063D

 30 34  0  0  1  0  0  0  0  0999 V2000
  189.6150  174.2110  142.4440 C   0  0  1  0  0  3  0  0  0  0  0  0
  189.4240  172.4910  140.6630 C   0  0  0  0  0  0  0  0  0  0  0  0
  193.2610  174.4090  142.5260 C   0  0  0  0  0  2  0  0  0  0  0  0
  189.7480  174.3730  143.9890 C   0  0  2  0  0  3  0  0  0  0  0  0
  189.5330  175.4720  141.6980 N   0  0  0  0  0  2  0  0  0  0  0  0
  187.6680  177.6900  143.8660 C   0  0  0  0  0  2  0  0  0  0  0  0
  189.5710  174.7590  146.9190 C   0  0  0  0  0  2  0  0  0  0  0  0
  188.7230  176.6380  143.6360 C   0  0  2  0  0  3  0  0  0  0  0  0
  188.0660  177.4740  141.5600 C   0  0  0  0  0  2  0  0  0  0  0  0
  192.6440  176.1380  145.1630 C   0  0  0  0  0  2  0  0  0  0  0  0
  192.3260  175.6040  142.6970 C   0  0  2  0  0  3  0  0  0  0  0  0
  188.3920  176.1800  142.2570 C   0  0  1  0  0  3  0  0  0  0  0  0
  188.7550  175.4310  144.5800 C   0  0  2  0  0  3  0  0  0  0  0  0
  189.9350  171.5300  139.7900 C   0  0  0  0  0  3  0  0  0  0  0  0
  191.9530  176.5420  146.3120 O   0  0  0  0  0  0  0  0  0  0  0  0
  190.6400  175.2720  147.8770 C   0  0  0  0  0  2  0  0  0  0  0  0
  186.0380  178.3840  142.3270 C   0  0  0  0  0  1  0  0  0  0  0  0
  188.0910  172.8680  140.5330 O   0  0  0  0  0  1  0  0  0  0  0  0
  192.5600  173.0840  142.8100 C   0  0  0  0  0  2  0  0  0  0  0  0
  191.2650  171.1340  139.8790 C   0  0  0  0  0  3  0  0  0  0  0  0
  187.4690  178.3520  142.5730 N   0  0  0  0  0  0  0  0  0  0  0  0
  190.2430  173.0780  141.6530 C   0  0  0  0  0  0  0  0  0  0  0  0
  191.0750  174.4850  144.4640 O   0  0  0  0  0  0  0  0  0  0  0  0
  192.9910  176.7870  142.3740 O   0  0  0  0  0  1  0  0  0  0  0  0
  191.6570  175.7090  144.0810 C   0  0  1  0  0  3  0  0  0  0  0  0
  191.9880  175.4440  147.1790 C   0  0  0  0  0  2  0  0  0  0  0  0
  187.9980  176.5170  146.5940 O   0  0  0  0  0  1  0  0  0  0  0  0
  192.0890  171.6910  140.8540 C   0  0  0  0  0  3  0  0  0  0  0  0
  191.6040  172.6580  141.7420 C   0  0  0  0  0  0  0  0  0  0  0  0
  189.0970  175.8860  146.0100 C   0  0  1  0  0  3  0  0  0  0  0  0
  1 22  1  6  0  0  0
  1  4  1  0  0  0  0
  2 22  1  0  0  0  0
  3 11  1  0  0  0  0
  3 19  1  0  0  0  0
  4 23  1  6  0  0  0
  4 13  1  0  0  0  0
  5 12  1  0  0  0  0
  5  1  1  0  0  0  0
  7 16  1  0  0  0  0
  8  6  1  1  0  0  0
  8 13  1  0  0  0  0
  9 21  1  0  0  0  0
 10 15  1  0  0  0  0
 11 24  1  1  0  0  0
 11 25  1  0  0  0  0
 12  9  1  6  0  0  0
 12  8  1  0  0  0  0
 13 30  1  0  0  0  0
 14 20  1  0  0  0  0
 14  2  2  0  0  0  0
 15 26  1  0  0  0  0
 17 21  1  0  0  0  0
 18  2  1  0  0  0  0
 20 28  2  0  0  0  0
 21  6  1  0  0  0  0
 22 29  2  0  0  0  0
 25 23  1  0  0  0  0
 25 10  1  0  0  0  0
 26 16  1  0  0  0  0
 28 29  1  0  0  0  0
 29 19  1  0  0  0  0
 30 27  1  0  0  0  0
 30  7  1  0  0  0  0
M  END
>  <MODEL>
4

>  <REMARK>
 VINA RESULT:      -7.8      1.783      5.507
  Name = 
  0 active torsions:
  status: ('A' for Active; 'I' for Inactive)
                            x       y       z     vdW  Elec       q    Type
                         _______ _______ _______ _____ _____    ______ ____

>  <TORSDO>
F 0

$$$$
=
 OpenBabel11052417063D

 30 34  0  0  1  0  0  0  0  0999 V2000
  189.5340  175.4640  142.5760 C   0  0  1  0  0  3  0  0  0  0  0  0
  187.7780  177.1760  142.9630 C   0  0  0  0  0  0  0  0  0  0  0  0
  189.6920  174.1650  145.9850 C   0  0  0  0  0  2  0  0  0  0  0  0
  191.0790  175.2550  142.6140 C   0  0  2  0  0  3  0  0  0  0  0  0
  188.7660  174.2950  142.1340 N   0  0  0  0  0  2  0  0  0  0  0  0
  190.8550  172.7290  139.6270 C   0  0  0  0  0  2  0  0  0  0  0  0
  193.9970  174.9150  142.2520 C   0  0  0  0  0  2  0  0  0  0  0  0
  190.6660  173.4120  140.9580 C   0  0  2  0  0  3  0  0  0  0  0  0
  188.5620  172.8340  140.1320 C   0  0  0  0  0  2  0  0  0  0  0  0
  192.2870  172.6820  144.8050 C   0  0  0  0  0  2  0  0  0  0  0  0
  189.8230  173.3100  144.7280 C   0  0  2  0  0  3  0  0  0  0  0  0
  189.2880  173.9620  140.8180 C   0  0  1  0  0  3  0  0  0  0  0  0
  191.6300  174.5440  141.3300 C   0  0  2  0  0  3  0  0  0  0  0  0
  186.9320  177.9440  143.7630 C   0  0  0  0  0  3  0  0  0  0  0  0
  193.4130  172.4970  143.9940 O   0  0  0  0  0  0  0  0  0  0  0  0
  194.9690  174.0920  143.0900 C   0  0  0  0  0  2  0  0  0  0  0  0
  189.2700  172.5780  137.9040 C   0  0  0  0  0  1  0  0  0  0  0  0
  187.6120  177.2230  141.5820 O   0  0  0  0  0  1  0  0  0  0  0  0
  189.9820  175.6380  145.7140 C   0  0  0  0  0  2  0  0  0  0  0  0
  187.0570  177.9160  145.1490 C   0  0  0  0  0  3  0  0  0  0  0  0
  189.5480  172.1710  139.2710 N   0  0  0  0  0  0  0  0  0  0  0  0
  188.7750  176.3590  143.5380 C   0  0  0  0  0  0  0  0  0  0  0  0
  191.5800  174.7410  143.8310 O   0  0  0  0  0  0  0  0  0  0  0  0
  189.4960  171.9830  145.0100 O   0  0  0  0  0  1  0  0  0  0  0  0
  191.1900  173.4010  144.0230 C   0  0  1  0  0  3  0  0  0  0  0  0
  194.2980  173.5250  144.3390 C   0  0  0  0  0  2  0  0  0  0  0  0
  193.6090  173.7220  140.2280 O   0  0  0  0  0  1  0  0  0  0  0  0
  188.0400  177.1260  145.7390 C   0  0  0  0  0  3  0  0  0  0  0  0
  188.9010  176.3450  144.9610 C   0  0  0  0  0  0  0  0  0  0  0  0
  193.0590  173.9940  141.4810 C   0  0  1  0  0  3  0  0  0  0  0  0
  1  5  1  1  0  0  0
  1  4  1  0  0  0  0
  1 22  1  0  0  0  0
  2 22  2  0  0  0  0
  2 14  1  0  0  0  0
  4 23  1  1  0  0  0
  7 16  1  0  0  0  0
  8  6  1  6  0  0  0
  8 13  1  0  0  0  0
 11 24  1  1  0  0  0
 11  3  1  0  0  0  0
 12  9  1  1  0  0  0
 12  8  1  0  0  0  0
 12  5  1  0  0  0  0
 13 30  1  0  0  0  0
 13  4  1  0  0  0  0
 14 20  2  0  0  0  0
 15 26  1  0  0  0  0
 15 10  1  0  0  0  0
 16 26  1  0  0  0  0
 17 21  1  0  0  0  0
 18  2  1  0  0  0  0
 19  3  1  0  0  0  0
 20 28  1  0  0  0  0
 21  6  1  0  0  0  0
 21  9  1  0  0  0  0
 22 29  1  0  0  0  0
 23 25  1  0  0  0  0
 25 11  1  0  0  0  0
 25 10  1  0  0  0  0
 27 30  1  0  0  0  0
 29 19  1  0  0  0  0
 29 28  2  0  0  0  0
 30  7  1  0  0  0  0
M  END
>  <MODEL>
5

>  <REMARK>
 VINA RESULT:      -7.4      2.032      2.608
  Name = 
  0 active torsions:
  status: ('A' for Active; 'I' for Inactive)
                            x       y       z     vdW  Elec       q    Type
                         _______ _______ _______ _____ _____    ______ ____

>  <TORSDO>
F 0

$$$$
=
 OpenBabel11052417063D

 30 34  0  0  1  0  0  0  0  0999 V2000
  191.5470  173.0100  143.5720 C   0  0  1  0  0  3  0  0  0  0  0  0
  192.8400  171.0050  144.2600 C   0  0  0  0  0  0  0  0  0  0  0  0
  194.0600  175.5160  144.4350 C   0  0  0  0  0  2  0  0  0  0  0  0
  190.5510  174.0790  144.1170 C   0  0  2  0  0  3  0  0  0  0  0  0
  191.8670  173.1380  142.1460 N   0  0  0  0  0  2  0  0  0  0  0  0
  188.7880  174.2810  140.6250 C   0  0  0  0  0  2  0  0  0  0  0  0
  188.3480  175.8650  144.9650 C   0  0  0  0  0  2  0  0  0  0  0  0
  189.8150  174.3160  141.7280 C   0  0  2  0  0  3  0  0  0  0  0  0
  190.6960  173.0860  139.9530 C   0  0  0  0  0  2  0  0  0  0  0  0
  191.5970  177.5030  143.8780 C   0  0  0  0  0  2  0  0  0  0  0  0
  193.1440  175.5950  143.2170 C   0  0  2  0  0  3  0  0  0  0  0  0
  190.5880  173.0720  141.4550 C   0  0  1  0  0  3  0  0  0  0  0  0
  189.3170  174.2980  143.1770 C   0  0  2  0  0  3  0  0  0  0  0  0
  193.9170  170.3560  144.8640 C   0  0  0  0  0  3  0  0  0  0  0  0
  190.2640  177.9250  143.8210 O   0  0  0  0  0  0  0  0  0  0  0  0
  188.3850  177.3680  145.2170 C   0  0  0  0  0  2  0  0  0  0  0  0
  188.6200  172.6660  138.9310 C   0  0  0  0  0  1  0  0  0  0  0  0
  191.9410  170.2500  143.5130 O   0  0  0  0  0  1  0  0  0  0  0  0
  193.5130  174.5800  145.5090 C   0  0  0  0  0  2  0  0  0  0  0  0
  194.8450  171.0760  145.6100 C   0  0  0  0  0  3  0  0  0  0  0  0
  189.4700  173.7210  139.4550 N   0  0  0  0  0  0  0  0  0  0  0  0
  192.6700  172.4010  144.3920 C   0  0  0  0  0  0  0  0  0  0  0  0
  191.1530  175.2700  144.5840 O   0  0  0  0  0  0  0  0  0  0  0  0
  193.7080  176.4160  142.2400 O   0  0  0  0  0  1  0  0  0  0  0  0
  191.6950  176.0220  143.5240 C   0  0  1  0  0  3  0  0  0  0  0  0
  189.8090  177.9170  145.1450 C   0  0  0  0  0  2  0  0  0  0  0  0
  187.2590  175.5150  142.8760 O   0  0  0  0  0  1  0  0  0  0  0  0
  194.6920  172.4510  145.7630 C   0  0  0  0  0  3  0  0  0  0  0  0
  193.6220  173.1290  145.1670 C   0  0  0  0  0  0  0  0  0  0  0  0
  188.5160  175.5770  143.4780 C   0  0  1  0  0  3  0  0  0  0  0  0
  1  5  1  6  0  0  0
  1  4  1  0  0  0  0
  1 22  1  0  0  0  0
  2 22  2  0  0  0  0
  2 14  1  0  0  0  0
  3 19  1  0  0  0  0
  4 23  1  6  0  0  0
  7 16  1  0  0  0  0
  8  6  1  6  0  0  0
  8 13  1  0  0  0  0
 11 24  1  6  0  0  0
 11 25  1  0  0  0  0
 11  3  1  0  0  0  0
 12  9  1  6  0  0  0
 12  8  1  0  0  0  0
 12  5  1  0  0  0  0
 13 30  1  0  0  0  0
 13  4  1  0  0  0  0
 14 20  2  0  0  0  0
 15 10  1  0  0  0  0
 15 26  1  0  0  0  0
 17 21  1  0  0  0  0
 18  2  1  0  0  0  0
 20 28  1  0  0  0  0
 21  9  1  0  0  0  0
 21  6  1  0  0  0  0
 22 29  1  0  0  0  0
 25 10  1  0  0  0  0
 25 23  1  0  0  0  0
 26 16  1  0  0  0  0
 27 30  1  0  0  0  0
 29 19  1  0  0  0  0
 29 28  2  0  0  0  0
 30  7  1  0  0  0  0
M  END
>  <MODEL>
6

>  <REMARK>
 VINA RESULT:      -7.3      2.320      5.833
  Name = 
  0 active torsions:
  status: ('A' for Active; 'I' for Inactive)
                            x       y       z     vdW  Elec       q    Type
                         _______ _______ _______ _____ _____    ______ ____

>  <TORSDO>
F 0

$$$$
=
 OpenBabel11052417063D

 30 34  0  0  1  0  0  0  0  0999 V2000
  191.7960  175.9230  143.4090 C   0  0  1  0  0  3  0  0  0  0  0  0
  189.7960  177.0370  144.3700 C   0  0  0  0  0  0  0  0  0  0  0  0
  193.0760  174.4840  146.5120 C   0  0  0  0  0  2  0  0  0  0  0  0
  193.3070  176.1560  143.1020 C   0  0  2  0  0  3  0  0  0  0  0  0
  191.2760  174.6180  142.9830 N   0  0  0  0  0  2  0  0  0  0  0  0
  193.0570  173.8890  139.9170 C   0  0  0  0  0  2  0  0  0  0  0  0
  196.0450  176.6820  142.1090 C   0  0  0  0  0  2  0  0  0  0  0  0
  193.0120  174.3950  141.3370 C   0  0  2  0  0  3  0  0  0  0  0  0
  190.9990  173.3060  140.8900 C   0  0  0  0  0  2  0  0  0  0  0  0
  195.6170  173.8820  144.6400 C   0  0  0  0  0  2  0  0  0  0  0  0
  193.1280  173.7910  145.1520 C   0  0  2  0  0  3  0  0  0  0  0  0
  191.5460  174.5410  141.5560 C   0  0  1  0  0  3  0  0  0  0  0  0
  193.7080  175.7230  141.6500 C   0  0  2  0  0  3  0  0  0  0  0  0
  188.9900  177.4760  145.4210 C   0  0  0  0  0  3  0  0  0  0  0  0
  196.5320  174.0810  143.5990 O   0  0  0  0  0  0  0  0  0  0  0  0
  197.3650  176.1110  142.6140 C   0  0  0  0  0  2  0  0  0  0  0  0
  191.2090  173.4180  138.5500 C   0  0  0  0  0  1  0  0  0  0  0  0
  189.3070  177.1330  143.0710 O   0  0  0  0  0  1  0  0  0  0  0  0
  192.9020  175.9940  146.3830 C   0  0  0  0  0  2  0  0  0  0  0  0
  189.4370  177.3860  146.7350 C   0  0  0  0  0  3  0  0  0  0  0  0
  191.8930  173.0100  139.7650 N   0  0  0  0  0  0  0  0  0  0  0  0
  191.0770  176.4970  144.6160 C   0  0  0  0  0  0  0  0  0  0  0  0
  194.1940  175.7200  144.1120 O   0  0  0  0  0  0  0  0  0  0  0  0
  193.2310  172.4100  145.3170 O   0  0  0  0  0  1  0  0  0  0  0  0
  194.2210  174.3150  144.2010 C   0  0  1  0  0  3  0  0  0  0  0  0
  197.1750  175.2900  143.8880 C   0  0  0  0  0  2  0  0  0  0  0  0
  195.5190  175.5740  140.0670 O   0  0  0  0  0  1  0  0  0  0  0  0
  190.7010  176.8660  147.0020 C   0  0  0  0  0  3  0  0  0  0  0  0
  191.5300  176.4180  145.9670 C   0  0  0  0  0  0  0  0  0  0  0  0
  195.2260  175.5900  141.4310 C   0  0  1  0  0  3  0  0  0  0  0  0
  1  5  1  1  0  0  0
  1 22  1  0  0  0  0
  2 22  2  0  0  0  0
  2 14  1  0  0  0  0
  4  1  1  0  0  0  0
  4 23  1  1  0  0  0
  7 16  1  0  0  0  0
  8  6  1  6  0  0  0
  8 12  1  0  0  0  0
  8 13  1  0  0  0  0
 11 24  1  1  0  0  0
 11  3  1  0  0  0  0
 12  9  1  1  0  0  0
 12  5  1  0  0  0  0
 13  4  1  0  0  0  0
 14 20  2  0  0  0  0
 15 26  1  0  0  0  0
 15 10  1  0  0  0  0
 16 26  1  0  0  0  0
 17 21  1  0  0  0  0
 18  2  1  0  0  0  0
 19  3  1  0  0  0  0
 20 28  1  0  0  0  0
 21  6  1  0  0  0  0
 21  9  1  0  0  0  0
 22 29  1  0  0  0  0
 23 25  1  0  0  0  0
 25 10  1  0  0  0  0
 25 11  1  0  0  0  0
 27 30  1  0  0  0  0
 29 19  1  0  0  0  0
 29 28  2  0  0  0  0
 30 13  1  0  0  0  0
 30  7  1  0  0  0  0
M  END
>  <MODEL>
7

>  <REMARK>
 VINA RESULT:      -7.3      2.443      3.808
  Name = 
  0 active torsions:
  status: ('A' for Active; 'I' for Inactive)
                            x       y       z     vdW  Elec       q    Type
                         _______ _______ _______ _____ _____    ______ ____

>  <TORSDO>
F 0

$$$$
=
 OpenBabel11052417063D

 30 34  0  0  1  0  0  0  0  0999 V2000
  193.8820  171.6280  144.8290 C   0  0  1  0  0  3  0  0  0  0  0  0
  194.6540  169.3100  145.2710 C   0  0  0  0  0  0  0  0  0  0  0  0
  197.1640  173.2300  144.8220 C   0  0  0  0  0  2  0  0  0  0  0  0
  193.4410  172.9370  145.5520 C   0  0  2  0  0  3  0  0  0  0  0  0
  193.8190  171.6830  143.3640 N   0  0  0  0  0  2  0  0  0  0  0  0
  190.9270  173.7430  142.6570 C   0  0  0  0  0  2  0  0  0  0  0  0
  192.1940  175.2900  146.8450 C   0  0  0  0  0  2  0  0  0  0  0  0
  192.1800  173.4390  143.4390 C   0  0  2  0  0  3  0  0  0  0  0  0
  192.1290  172.0390  141.5750 C   0  0  0  0  0  2  0  0  0  0  0  0
  195.3530  175.8850  144.8220 C   0  0  0  0  0  2  0  0  0  0  0  0
  196.0140  173.6110  143.8930 C   0  0  2  0  0  3  0  0  0  0  0  0
  192.4410  172.0250  143.0490 C   0  0  1  0  0  3  0  0  0  0  0  0
  192.1190  173.5420  144.9670 C   0  0  2  0  0  3  0  0  0  0  0  0
  195.6100  168.3500  145.6040 C   0  0  0  0  0  3  0  0  0  0  0  0
  194.2440  176.6930  145.0990 O   0  0  0  0  0  0  0  0  0  0  0  0
  192.7470  176.7050  146.9810 C   0  0  0  0  0  2  0  0  0  0  0  0
  189.8260  172.2930  141.1780 C   0  0  0  0  0  1  0  0  0  0  0  0
  193.4010  168.8810  144.8430 O   0  0  0  0  0  1  0  0  0  0  0  0
  196.6800  172.4820  146.0610 C   0  0  0  0  0  2  0  0  0  0  0  0
  196.8790  168.7370  146.0240 C   0  0  0  0  0  3  0  0  0  0  0  0
  191.0620  173.0270  141.3850 N   0  0  0  0  0  0  0  0  0  0  0  0
  194.9510  170.6880  145.3540 C   0  0  0  0  0  0  0  0  0  0  0  0
  194.4740  173.8780  145.7630 O   0  0  0  0  0  0  0  0  0  0  0  0
  196.5060  174.2420  142.7500 O   0  0  0  0  0  1  0  0  0  0  0  0
  194.9030  174.4520  144.5500 C   0  0  1  0  0  3  0  0  0  0  0  0
  194.1920  176.7950  146.4940 C   0  0  0  0  0  2  0  0  0  0  0  0
  190.5190  175.3340  145.1530 O   0  0  0  0  0  1  0  0  0  0  0  0
  197.1910  170.0900  146.1250 C   0  0  0  0  0  3  0  0  0  0  0  0
  196.2530  171.0740  145.7960 C   0  0  0  0  0  0  0  0  0  0  0  0
  191.8520  174.9980  145.3890 C   0  0  1  0  0  3  0  0  0  0  0  0
  1  5  1  6  0  0  0
  1 22  1  0  0  0  0
  1  4  1  0  0  0  0
  2 22  2  0  0  0  0
  2 14  1  0  0  0  0
  3 19  1  0  0  0  0
  4 23  1  6  0  0  0
  7 16  1  0  0  0  0
  8  6  1  6  0  0  0
  8 13  1  0  0  0  0
 10 15  1  0  0  0  0
 11 24  1  6  0  0  0
 11 25  1  0  0  0  0
 11  3  1  0  0  0  0
 12  9  1  6  0  0  0
 12  5  1  0  0  0  0
 12  8  1  0  0  0  0
 13 30  1  0  0  0  0
 13  4  1  0  0  0  0
 14 20  2  0  0  0  0
 15 26  1  0  0  0  0
 17 21  1  0  0  0  0
 18  2  1  0  0  0  0
 20 28  1  0  0  0  0
 21  9  1  0  0  0  0
 21  6  1  0  0  0  0
 22 29  1  0  0  0  0
 25 10  1  0  0  0  0
 25 23  1  0  0  0  0
 26 16  1  0  0  0  0
 27 30  1  0  0  0  0
 29 19  1  0  0  0  0
 29 28  2  0  0  0  0
 30  7  1  0  0  0  0
M  END
>  <MODEL>
8

>  <REMARK>
 VINA RESULT:      -7.2      3.375      7.137
  Name = 
  0 active torsions:
  status: ('A' for Active; 'I' for Inactive)
                            x       y       z     vdW  Elec       q    Type
                         _______ _______ _______ _____ _____    ______ ____

>  <TORSDO>
F 0

$$$$
=
 OpenBabel11052417063D

 30 34  0  0  1  0  0  0  0  0999 V2000
  193.1350  175.9780  143.6600 C   0  0  1  0  0  3  0  0  0  0  0  0
  195.5700  176.0410  143.1820 C   0  0  0  0  0  0  0  0  0  0  0  0
  192.3460  172.9860  141.7200 C   0  0  0  0  0  2  0  0  0  0  0  0
  191.7600  176.4770  143.1170 C   0  0  2  0  0  3  0  0  0  0  0  0
  193.0620  175.2200  144.9140 N   0  0  0  0  0  2  0  0  0  0  0  0
  190.3810  176.7910  146.7700 C   0  0  0  0  0  2  0  0  0  0  0  0
  189.1840  177.7390  142.3880 C   0  0  0  0  0  2  0  0  0  0  0  0
  190.9710  176.2550  145.4910 C   0  0  2  0  0  3  0  0  0  0  0  0
  192.3160  175.5530  147.2630 C   0  0  0  0  0  2  0  0  0  0  0  0
  189.3410  173.9450  142.3340 C   0  0  0  0  0  2  0  0  0  0  0  0
  191.7040  173.3420  143.0580 C   0  0  2  0  0  3  0  0  0  0  0  0
  192.4060  176.1050  145.8640 C   0  0  1  0  0  3  0  0  0  0  0  0
  190.8610  177.1170  144.2290 C   0  0  2  0  0  3  0  0  0  0  0  0
  196.7280  175.6300  142.5210 C   0  0  0  0  0  3  0  0  0  0  0  0
  188.2960  174.8420  142.5840 O   0  0  0  0  0  0  0  0  0  0  0  0
  187.9390  177.0870  141.7980 C   0  0  0  0  0  2  0  0  0  0  0  0
  191.5280  177.1660  148.7820 C   0  0  0  0  0  1  0  0  0  0  0  0
  195.6920  176.9130  144.2590 O   0  0  0  0  0  1  0  0  0  0  0  0
  192.9630  174.2010  141.0350 C   0  0  0  0  0  2  0  0  0  0  0  0
  196.6500  174.7500  141.4470 C   0  0  0  0  0  3  0  0  0  0  0  0
  191.1040  176.1280  147.8580 N   0  0  0  0  0  0  0  0  0  0  0  0
  194.3010  175.5760  142.7760 C   0  0  0  0  0  0  0  0  0  0  0  0
  191.0890  175.5650  142.2710 O   0  0  0  0  0  0  0  0  0  0  0  0
  191.2030  172.1950  143.6740 O   0  0  0  0  0  1  0  0  0  0  0  0
  190.6280  174.4430  142.9870 C   0  0  1  0  0  3  0  0  0  0  0  0
  188.1880  175.6260  141.4290 C   0  0  0  0  0  2  0  0  0  0  0  0
  188.7440  178.1740  144.6870 O   0  0  0  0  0  1  0  0  0  0  0  0
  195.4090  174.2860  141.0210 C   0  0  0  0  0  3  0  0  0  0  0  0
  194.2310  174.6800  141.6660 C   0  0  0  0  0  0  0  0  0  0  0  0
  189.3850  177.2810  143.8270 C   0  0  1  0  0  3  0  0  0  0  0  0
  1 22  1  6  0  0  0
  1  5  1  0  0  0  0
  2 18  1  0  0  0  0
  3 11  1  0  0  0  0
  4 23  1  1  0  0  0
  4  1  1  0  0  0  0
  4 13  1  0  0  0  0
  5 12  1  0  0  0  0
  6 21  1  0  0  0  0
  7 30  1  0  0  0  0
  8 12  1  0  0  0  0
  8  6  1  1  0  0  0
  9 21  1  0  0  0  0
 10 15  1  0  0  0  0
 10 25  1  0  0  0  0
 11 24  1  6  0  0  0
 12  9  1  1  0  0  0
 13  8  1  0  0  0  0
 14  2  2  0  0  0  0
 16  7  1  0  0  0  0
 19 29  1  0  0  0  0
 19  3  1  0  0  0  0
 20 14  1  0  0  0  0
 21 17  1  0  0  0  0
 22  2  1  0  0  0  0
 23 25  1  0  0  0  0
 25 11  1  0  0  0  0
 26 16  1  0  0  0  0
 26 15  1  0  0  0  0
 28 20  2  0  0  0  0
 28 29  1  0  0  0  0
 29 22  2  0  0  0  0
 30 13  1  0  0  0  0
 30 27  1  0  0  0  0
M  END
>  <MODEL>
9

>  <REMARK>
 VINA RESULT:      -7.1      2.469      6.661
  Name = 
  0 active torsions:
  status: ('A' for Active; 'I' for Inactive)
                            x       y       z     vdW  Elec       q    Type
                         _______ _______ _______ _____ _____    ______ ____

>  <TORSDO>
F 0

$$$$
