=
 OpenBabel11052418073D

 28 31  0  0  1  0  0  0  0  0999 V2000
  191.6930  174.4850  142.8790 C   0  0  1  0  0  3  0  0  0  0  0  0
  189.7290  171.9530  140.2530 O   0  0  0  0  0  0  0  0  0  0  0  0
  188.0430  175.6890  143.2950 C   0  0  2  0  0  3  0  0  0  0  0  0
  189.5440  173.7820  141.7730 C   0  0  0  0  0  0  0  0  0  0  0  0
  189.5630  175.7940  143.3070 C   0  0  0  0  0  2  0  0  0  0  0  0
  191.6410  172.3630  141.5790 C   0  0  0  0  0  3  0  0  0  0  0  0
  188.3270  174.1350  141.3330 C   0  0  0  0  0  3  0  0  0  0  0  0
  190.2690  172.6610  141.1450 C   0  0  0  0  0  0  0  0  0  0  0  0
  187.5560  175.2970  141.8980 C   0  0  0  0  0  2  0  0  0  0  0  0
  192.2930  173.1830  142.4070 C   0  0  0  0  0  3  0  0  0  0  0  0
  190.1610  174.4180  143.0040 C   0  0  2  0  0  3  0  0  0  0  0  0
  187.0120  177.0620  145.0470 C   0  0  0  0  0  3  0  0  0  0  0  0
  186.2370  178.9190  142.7350 C   0  0  0  0  0  3  0  0  0  0  0  0
  185.1600  178.6780  144.9730 C   0  0  0  0  0  0  0  0  0  0  0  0
  187.4000  176.9590  143.7680 C   0  0  0  0  0  0  0  0  0  0  0  0
  188.1730  178.1250  141.7760 F   0  0  0  0  0  0  0  0  0  0  0  0
  185.1100  179.0110  143.6840 C   0  0  0  0  0  3  0  0  0  0  0  0
  187.2680  178.0640  142.7860 C   0  0  0  0  0  0  0  0  0  0  0  0
  183.9310  178.8100  145.7990 C   0  0  0  0  0  1  0  0  0  0  0  0
  186.4380  178.3020  145.6430 C   0  0  0  0  0  2  0  0  0  0  0  0
  192.3570  174.9450  144.1470 C   0  0  0  0  0  0  0  0  0  0  0  0
  192.0680  174.2560  145.3300 C   0  0  0  0  0  3  0  0  0  0  0  0
  193.8510  176.4110  145.3890 C   0  0  0  0  0  0  0  0  0  0  0  0
  192.6640  174.6380  146.5340 C   0  0  0  0  0  3  0  0  0  0  0  0
  193.5540  176.7310  143.0110 O   0  0  0  0  0  1  0  0  0  0  0  0
  193.2560  176.0320  144.1760 C   0  0  0  0  0  0  0  0  0  0  0  0
  194.9750  177.7560  145.4580 Cl  0  0  0  0  0  0  0  0  0  0  0  0
  193.5540  175.7130  146.5630 C   0  0  0  0  0  3  0  0  0  0  0  0
  1 11  1  0  0  0  0
  1 21  1  1  0  0  0
  2  8  2  0  0  0  0
  3  5  1  0  0  0  0
  3 15  1  6  0  0  0
  4 11  1  0  0  0  0
  6 10  2  0  0  0  0
  7  4  2  0  0  0  0
  7  9  1  0  0  0  0
  8  6  1  0  0  0  0
  8  4  1  0  0  0  0
  9  3  1  0  0  0  0
 10  1  1  0  0  0  0
 11  5  1  6  0  0  0
 12 20  1  0  0  0  0
 13 18  2  0  0  0  0
 13 17  1  0  0  0  0
 14 20  1  0  0  0  0
 14 19  1  0  0  0  0
 15 12  2  0  0  0  0
 16 18  1  0  0  0  0
 17 14  2  0  0  0  0
 18 15  1  0  0  0  0
 21 26  2  0  0  0  0
 21 22  1  0  0  0  0
 22 24  2  0  0  0  0
 23 27  1  0  0  0  0
 23 28  2  0  0  0  0
 24 28  1  0  0  0  0
 25 26  1  0  0  0  0
 26 23  1  0  0  0  0
M  END
>  <MODEL>
1

>  <REMARK>
 VINA RESULT:      -8.0      0.000      0.000
  Name = 
  2 active torsions:
  status: ('A' for Active; 'I' for Inactive)
    1  A    between atoms: C_1  and  C_2
    2  A    between atoms: C_10  and  C_13
                            x       y       z     vdW  Elec       q    Type
                         _______ _______ _______ _____ _____    ______ ____

>  <TORSDO>
F 2

$$$$
=
 OpenBabel11052418073D

 28 31  0  0  1  0  0  0  0  0999 V2000
  186.7330  177.0680  142.7460 C   0  0  1  0  0  3  0  0  0  0  0  0
  184.1190  178.9760  145.3340 O   0  0  0  0  0  0  0  0  0  0  0  0
  188.3950  176.3110  146.1540 C   0  0  2  0  0  3  0  0  0  0  0  0
  186.1420  177.7340  145.1020 C   0  0  0  0  0  0  0  0  0  0  0  0
  188.3240  176.5360  144.6490 C   0  0  0  0  0  2  0  0  0  0  0  0
  184.4780  178.0160  143.2050 C   0  0  0  0  0  3  0  0  0  0  0  0
  186.5720  178.0400  146.3350 C   0  0  0  0  0  3  0  0  0  0  0  0
  184.8710  178.2860  144.5950 C   0  0  0  0  0  0  0  0  0  0  0  0
  187.8790  177.5480  146.8930 C   0  0  0  0  0  2  0  0  0  0  0  0
  185.3200  177.4230  142.3540 C   0  0  0  0  0  3  0  0  0  0  0  0
  186.8610  176.7140  144.2380 C   0  0  2  0  0  3  0  0  0  0  0  0
  190.4920  176.8170  147.3200 C   0  0  0  0  0  3  0  0  0  0  0  0
  191.5510  174.3160  145.8990 C   0  0  0  0  0  3  0  0  0  0  0  0
  192.8290  176.2680  146.7830 C   0  0  0  0  0  0  0  0  0  0  0  0
  189.7820  175.9440  146.5910 C   0  0  0  0  0  0  0  0  0  0  0  0
  189.3670  173.6080  146.0510 F   0  0  0  0  0  0  0  0  0  0  0  0
  192.7060  175.2330  145.9540 C   0  0  0  0  0  3  0  0  0  0  0  0
  190.2810  174.5960  146.2220 C   0  0  0  0  0  0  0  0  0  0  0  0
  194.0490  177.1140  146.7040 C   0  0  0  0  0  1  0  0  0  0  0  0
  191.8460  176.5270  147.8750 C   0  0  0  0  0  2  0  0  0  0  0  0
  187.2780  175.9930  141.8490 C   0  0  0  0  0  0  0  0  0  0  0  0
  187.7660  174.8240  142.4410 C   0  0  0  0  0  3  0  0  0  0  0  0
  187.8150  175.0820  139.6560 C   0  0  0  0  0  0  0  0  0  0  0  0
  188.2760  173.7910  141.6520 C   0  0  0  0  0  3  0  0  0  0  0  0
  186.8210  177.2790  139.8360 O   0  0  0  0  0  1  0  0  0  0  0  0
  187.3020  176.1230  140.4440 C   0  0  0  0  0  0  0  0  0  0  0  0
  187.8570  175.2130  137.9070 Cl  0  0  0  0  0  0  0  0  0  0  0  0
  188.3000  173.9190  140.2620 C   0  0  0  0  0  3  0  0  0  0  0  0
  1 21  1  6  0  0  0
  1 11  1  0  0  0  0
  3 15  1  1  0  0  0
  3  9  1  0  0  0  0
  4  7  2  0  0  0  0
  5  3  1  0  0  0  0
  6  8  1  0  0  0  0
  7  9  1  0  0  0  0
  8  4  1  0  0  0  0
  8  2  2  0  0  0  0
 10  1  1  0  0  0  0
 10  6  2  0  0  0  0
 11  5  1  1  0  0  0
 11  4  1  0  0  0  0
 12 20  1  0  0  0  0
 13 17  1  0  0  0  0
 13 18  2  0  0  0  0
 14 20  1  0  0  0  0
 15 12  2  0  0  0  0
 16 18  1  0  0  0  0
 17 14  2  0  0  0  0
 18 15  1  0  0  0  0
 19 14  1  0  0  0  0
 21 22  1  0  0  0  0
 23 28  2  0  0  0  0
 23 26  1  0  0  0  0
 24 22  2  0  0  0  0
 25 26  1  0  0  0  0
 26 21  2  0  0  0  0
 27 23  1  0  0  0  0
 28 24  1  0  0  0  0
M  END
>  <MODEL>
2

>  <REMARK>
 VINA RESULT:      -8.0      3.544      7.126
  Name = 
  2 active torsions:
  status: ('A' for Active; 'I' for Inactive)
    1  A    between atoms: C_1  and  C_2
    2  A    between atoms: C_10  and  C_13
                            x       y       z     vdW  Elec       q    Type
                         _______ _______ _______ _____ _____    ______ ____

>  <TORSDO>
F 2

$$$$
=
 OpenBabel11052418073D

 28 31  0  0  1  0  0  0  0  0999 V2000
  186.3510  178.5880  144.2730 C   0  0  1  0  0  3  0  0  0  0  0  0
  186.8090  178.6650  148.3900 O   0  0  0  0  0  0  0  0  0  0  0  0
  188.5220  175.4370  144.8260 C   0  0  2  0  0  3  0  0  0  0  0  0
  187.3610  177.5720  146.3430 C   0  0  0  0  0  0  0  0  0  0  0  0
  187.9510  176.6310  144.0700 C   0  0  0  0  0  2  0  0  0  0  0  0
  185.5660  179.3610  146.5050 C   0  0  0  0  0  3  0  0  0  0  0  0
  188.3710  176.8760  146.8880 C   0  0  0  0  0  3  0  0  0  0  0  0
  186.5980  178.5390  147.1550 C   0  0  0  0  0  0  0  0  0  0  0  0
  189.2170  175.9110  146.1040 C   0  0  0  0  0  2  0  0  0  0  0  0
  185.4240  179.3630  145.1770 C   0  0  0  0  0  3  0  0  0  0  0  0
  186.8780  177.3010  144.9300 C   0  0  2  0  0  3  0  0  0  0  0  0
  190.0900  175.2290  142.9510 C   0  0  0  0  0  3  0  0  0  0  0  0
  189.7950  172.2130  143.4140 C   0  0  0  0  0  3  0  0  0  0  0  0
  190.4640  173.4150  141.3320 C   0  0  0  0  0  0  0  0  0  0  0  0
  189.4440  174.6290  143.9620 C   0  0  0  0  0  0  0  0  0  0  0  0
  189.4560  172.8330  145.6040 F   0  0  0  0  0  0  0  0  0  0  0  0
  189.9490  172.3540  141.9530 C   0  0  0  0  0  3  0  0  0  0  0  0
  189.6240  173.1970  144.3080 C   0  0  0  0  0  0  0  0  0  0  0  0
  190.5360  173.4160  139.8480 C   0  0  0  0  0  1  0  0  0  0  0  0
  191.0890  174.5430  142.0820 C   0  0  0  0  0  2  0  0  0  0  0  0
  185.7020  178.3330  142.9420 C   0  0  0  0  0  0  0  0  0  0  0  0
  184.3050  178.2910  142.8870 C   0  0  0  0  0  3  0  0  0  0  0  0
  185.7890  177.9180  140.5450 C   0  0  0  0  0  0  0  0  0  0  0  0
  183.6510  178.0640  141.6740 C   0  0  0  0  0  3  0  0  0  0  0  0
  187.8410  178.1820  141.7960 O   0  0  0  0  0  1  0  0  0  0  0  0
  186.4510  178.1450  141.7610 C   0  0  0  0  0  0  0  0  0  0  0  0
  186.6910  177.6830  139.0590 Cl  0  0  0  0  0  0  0  0  0  0  0  0
  184.3920  177.8780  140.5050 C   0  0  0  0  0  3  0  0  0  0  0  0
  1 21  1  6  0  0  0
  1 11  1  0  0  0  0
  1 10  1  0  0  0  0
  3 15  1  6  0  0  0
  3  9  1  0  0  0  0
  4  7  2  0  0  0  0
  4  8  1  0  0  0  0
  5  3  1  0  0  0  0
  6  8  1  0  0  0  0
  8  2  2  0  0  0  0
  9  7  1  0  0  0  0
 10  6  2  0  0  0  0
 11  5  1  6  0  0  0
 11  4  1  0  0  0  0
 12 15  2  0  0  0  0
 13 18  2  0  0  0  0
 14 17  2  0  0  0  0
 14 20  1  0  0  0  0
 15 18  1  0  0  0  0
 17 13  1  0  0  0  0
 18 16  1  0  0  0  0
 19 14  1  0  0  0  0
 20 12  1  0  0  0  0
 22 21  1  0  0  0  0
 23 26  1  0  0  0  0
 24 22  2  0  0  0  0
 26 25  1  0  0  0  0
 26 21  2  0  0  0  0
 27 23  1  0  0  0  0
 28 23  2  0  0  0  0
 28 24  1  0  0  0  0
M  END
>  <MODEL>
3

>  <REMARK>
 VINA RESULT:      -7.9      3.523      7.826
  Name = 
  2 active torsions:
  status: ('A' for Active; 'I' for Inactive)
    1  A    between atoms: C_1  and  C_2
    2  A    between atoms: C_10  and  C_13
                            x       y       z     vdW  Elec       q    Type
                         _______ _______ _______ _____ _____    ______ ____

>  <TORSDO>
F 2

$$$$
=
 OpenBabel11052418073D

 28 31  0  0  1  0  0  0  0  0999 V2000
  192.1030  174.2850  144.4830 C   0  0  1  0  0  3  0  0  0  0  0  0
  194.0990  176.9410  146.9580 O   0  0  0  0  0  0  0  0  0  0  0  0
  189.3060  176.8550  145.2020 C   0  0  2  0  0  3  0  0  0  0  0  0
  192.0350  176.3540  145.9150 C   0  0  0  0  0  0  0  0  0  0  0  0
  189.9080  175.5010  144.8450 C   0  0  0  0  0  2  0  0  0  0  0  0
  194.2410  175.2480  145.3160 C   0  0  0  0  0  3  0  0  0  0  0  0
  191.3100  177.1690  146.6960 C   0  0  0  0  0  3  0  0  0  0  0  0
  193.4910  176.2250  146.1180 C   0  0  0  0  0  0  0  0  0  0  0  0
  189.8180  177.3100  146.5710 C   0  0  0  0  0  2  0  0  0  0  0  0
  193.6090  174.3710  144.5320 C   0  0  0  0  0  3  0  0  0  0  0  0
  191.4250  175.6450  144.7200 C   0  0  2  0  0  3  0  0  0  0  0  0
  187.1800  177.1120  144.0070 C   0  0  0  0  0  3  0  0  0  0  0  0
  185.9210  176.9260  146.7960 C   0  0  0  0  0  3  0  0  0  0  0  0
  184.9970  177.9830  144.7330 C   0  0  0  0  0  0  0  0  0  0  0  0
  187.8070  176.8210  145.1560 C   0  0  0  0  0  0  0  0  0  0  0  0
  187.7410  175.5960  147.2580 F   0  0  0  0  0  0  0  0  0  0  0  0
  185.0610  177.8730  146.0590 C   0  0  0  0  0  3  0  0  0  0  0  0
  187.0950  176.4200  146.3940 C   0  0  0  0  0  0  0  0  0  0  0  0
  184.0930  179.0020  144.1370 C   0  0  0  0  0  1  0  0  0  0  0  0
  185.7020  177.0310  143.8260 C   0  0  0  0  0  2  0  0  0  0  0  0
  191.6520  173.6300  143.2070 C   0  0  0  0  0  0  0  0  0  0  0  0
  191.5440  174.4230  142.0600 C   0  0  0  0  0  3  0  0  0  0  0  0
  190.9380  171.6960  141.9120 C   0  0  0  0  0  0  0  0  0  0  0  0
  191.1360  173.8620  140.8480 C   0  0  0  0  0  3  0  0  0  0  0  0
  191.4470  171.4480  144.2630 O   0  0  0  0  0  1  0  0  0  0  0  0
  191.3470  172.2540  143.1330 C   0  0  0  0  0  0  0  0  0  0  0  0
  190.5540  169.9890  141.7860 Cl  0  0  0  0  0  0  0  0  0  0  0  0
  190.8340  172.5010  140.7740 C   0  0  0  0  0  3  0  0  0  0  0  0
  1 21  1  6  0  0  0
  1 10  1  0  0  0  0
  1 11  1  0  0  0  0
  3 15  1  1  0  0  0
  3  9  1  0  0  0  0
  4  8  1  0  0  0  0
  4  7  2  0  0  0  0
  5  3  1  0  0  0  0
  6  8  1  0  0  0  0
  8  2  2  0  0  0  0
  9  7  1  0  0  0  0
 10  6  2  0  0  0  0
 11  5  1  1  0  0  0
 11  4  1  0  0  0  0
 12 15  2  0  0  0  0
 14 17  2  0  0  0  0
 15 18  1  0  0  0  0
 17 13  1  0  0  0  0
 18 13  2  0  0  0  0
 18 16  1  0  0  0  0
 19 14  1  0  0  0  0
 20 12  1  0  0  0  0
 20 14  1  0  0  0  0
 22 21  2  0  0  0  0
 23 26  2  0  0  0  0
 24 22  1  0  0  0  0
 26 21  1  0  0  0  0
 26 25  1  0  0  0  0
 27 23  1  0  0  0  0
 28 24  2  0  0  0  0
 28 23  1  0  0  0  0
M  END
>  <MODEL>
4

>  <REMARK>
 VINA RESULT:      -7.8      2.804      4.931
  Name = 
  2 active torsions:
  status: ('A' for Active; 'I' for Inactive)
    1  A    between atoms: C_1  and  C_2
    2  A    between atoms: C_10  and  C_13
                            x       y       z     vdW  Elec       q    Type
                         _______ _______ _______ _____ _____    ______ ____

>  <TORSDO>
F 2

$$$$
=
 OpenBabel11052418073D

 28 31  0  0  1  0  0  0  0  0999 V2000
  189.4070  176.8150  145.2000 C   0  0  1  0  0  3  0  0  0  0  0  0
  192.6840  175.4510  147.3380 O   0  0  0  0  0  0  0  0  0  0  0  0
  190.2870  173.6110  143.2240 C   0  0  2  0  0  3  0  0  0  0  0  0
  191.2500  175.1190  145.4610 C   0  0  0  0  0  0  0  0  0  0  0  0
  189.7200  175.0080  143.4490 C   0  0  0  0  0  2  0  0  0  0  0  0
  190.7360  176.7880  147.3040 C   0  0  0  0  0  3  0  0  0  0  0  0
  192.0840  174.2520  144.8690 C   0  0  0  0  0  3  0  0  0  0  0  0
  191.6240  175.7660  146.7330 C   0  0  0  0  0  0  0  0  0  0  0  0
  191.7820  173.5950  143.5500 C   0  0  0  0  0  2  0  0  0  0  0  0
  189.6900  177.2540  146.6170 C   0  0  0  0  0  3  0  0  0  0  0  0
  189.8500  175.3660  144.9310 C   0  0  2  0  0  3  0  0  0  0  0  0
  191.0470  172.9710  140.9820 C   0  0  0  0  0  3  0  0  0  0  0  0
  188.0660  173.0150  140.2710 C   0  0  0  0  0  3  0  0  0  0  0  0
  190.0350  173.2910  138.7630 C   0  0  0  0  0  0  0  0  0  0  0  0
  190.0200  173.1280  141.8290 C   0  0  0  0  0  0  0  0  0  0  0  0
  187.7860  172.4110  142.4740 F   0  0  0  0  0  0  0  0  0  0  0  0
  188.7490  173.4880  139.0510 C   0  0  0  0  0  3  0  0  0  0  0  0
  188.6160  172.8050  141.4750 C   0  0  0  0  0  0  0  0  0  0  0  0
  190.5830  173.8480  137.4990 C   0  0  0  0  0  1  0  0  0  0  0  0
  190.9080  172.4210  139.6020 C   0  0  0  0  0  2  0  0  0  0  0  0
  187.9650  177.0530  144.8510 C   0  0  0  0  0  0  0  0  0  0  0  0
  186.9890  176.6450  145.7660 C   0  0  0  0  0  3  0  0  0  0  0  0
  186.2110  177.8770  143.3780 C   0  0  0  0  0  0  0  0  0  0  0  0
  185.6340  176.8500  145.4930 C   0  0  0  0  0  3  0  0  0  0  0  0
  188.5290  178.0860  142.7230 O   0  0  0  0  0  1  0  0  0  0  0  0
  187.5730  177.6750  143.6460 C   0  0  0  0  0  0  0  0  0  0  0  0
  185.6920  178.6490  141.8910 Cl  0  0  0  0  0  0  0  0  0  0  0  0
  185.2460  177.4650  144.3020 C   0  0  0  0  0  3  0  0  0  0  0  0
  1 21  1  1  0  0  0
  1 10  1  0  0  0  0
  3 15  1  6  0  0  0
  3  5  1  0  0  0  0
  3  9  1  0  0  0  0
  4  8  1  0  0  0  0
  7  4  2  0  0  0  0
  8  6  1  0  0  0  0
  8  2  2  0  0  0  0
  9  7  1  0  0  0  0
 10  6  2  0  0  0  0
 11  5  1  6  0  0  0
 11  1  1  0  0  0  0
 11  4  1  0  0  0  0
 12 15  2  0  0  0  0
 13 18  2  0  0  0  0
 14 17  2  0  0  0  0
 14 20  1  0  0  0  0
 17 13  1  0  0  0  0
 18 15  1  0  0  0  0
 18 16  1  0  0  0  0
 19 14  1  0  0  0  0
 20 12  1  0  0  0  0
 21 22  1  0  0  0  0
 23 26  1  0  0  0  0
 23 28  2  0  0  0  0
 24 22  2  0  0  0  0
 25 26  1  0  0  0  0
 26 21  2  0  0  0  0
 27 23  1  0  0  0  0
 28 24  1  0  0  0  0
M  END
>  <MODEL>
5

>  <REMARK>
 VINA RESULT:      -7.6      3.031      6.792
  Name = 
  2 active torsions:
  status: ('A' for Active; 'I' for Inactive)
    1  A    between atoms: C_1  and  C_2
    2  A    between atoms: C_10  and  C_13
                            x       y       z     vdW  Elec       q    Type
                         _______ _______ _______ _____ _____    ______ ____

>  <TORSDO>
F 2

$$$$
=
 OpenBabel11052418073D

 28 31  0  0  1  0  0  0  0  0999 V2000
  187.5920  176.2980  143.1420 C   0  0  1  0  0  3  0  0  0  0  0  0
  185.8160  178.0200  146.4670 O   0  0  0  0  0  0  0  0  0  0  0  0
  190.4780  176.0860  145.7050 C   0  0  2  0  0  3  0  0  0  0  0  0
  187.7940  177.0700  145.5300 C   0  0  0  0  0  0  0  0  0  0  0  0
  189.8290  176.1680  144.3290 C   0  0  0  0  0  2  0  0  0  0  0  0
  185.5320  176.9440  144.3820 C   0  0  0  0  0  3  0  0  0  0  0  0
  188.5840  177.5410  146.5060 C   0  0  0  0  0  3  0  0  0  0  0  0
  186.3520  177.3860  145.5190 C   0  0  0  0  0  0  0  0  0  0  0  0
  190.0670  177.2940  146.5500 C   0  0  0  0  0  2  0  0  0  0  0  0
  186.0940  176.4090  143.2950 C   0  0  0  0  0  3  0  0  0  0  0  0
  188.3100  176.0950  144.4880 C   0  0  2  0  0  3  0  0  0  0  0  0
  192.6380  176.7700  144.7660 C   0  0  0  0  0  3  0  0  0  0  0  0
  193.7090  174.2470  146.1380 C   0  0  0  0  0  3  0  0  0  0  0  0
  194.6440  175.4740  144.1760 C   0  0  0  0  0  0  0  0  0  0  0  0
  191.9700  175.9640  145.6040 C   0  0  0  0  0  0  0  0  0  0  0  0
  192.0330  174.6620  147.6590 F   0  0  0  0  0  0  0  0  0  0  0  0
  194.4990  174.3620  144.8960 C   0  0  0  0  0  3  0  0  0  0  0  0
  192.6350  174.9710  146.4830 C   0  0  0  0  0  0  0  0  0  0  0  0
  195.4590  175.4270  142.9340 C   0  0  0  0  0  1  0  0  0  0  0  0
  194.1240  176.7910  144.6450 C   0  0  0  0  0  2  0  0  0  0  0  0
  187.9450  175.2400  142.1340 C   0  0  0  0  0  0  0  0  0  0  0  0
  188.3650  173.9930  142.6080 C   0  0  0  0  0  3  0  0  0  0  0  0
  188.1910  174.4350  139.8510 C   0  0  0  0  0  0  0  0  0  0  0  0
  188.6980  172.9730  141.7130 C   0  0  0  0  0  3  0  0  0  0  0  0
  187.4410  176.6980  140.2540 O   0  0  0  0  0  1  0  0  0  0  0  0
  187.8560  175.4640  140.7440 C   0  0  0  0  0  0  0  0  0  0  0  0
  188.0900  174.6810  138.1160 Cl  0  0  0  0  0  0  0  0  0  0  0  0
  188.6110  173.1940  140.3380 C   0  0  0  0  0  3  0  0  0  0  0  0
  1 21  1  6  0  0  0
  1 10  1  0  0  0  0
  1 11  1  0  0  0  0
  3 15  1  6  0  0  0
  3  9  1  0  0  0  0
  4  7  2  0  0  0  0
  5  3  1  0  0  0  0
  6  8  1  0  0  0  0
  7  9  1  0  0  0  0
  8  4  1  0  0  0  0
  8  2  2  0  0  0  0
 10  6  2  0  0  0  0
 11  5  1  6  0  0  0
 11  4  1  0  0  0  0
 12 15  2  0  0  0  0
 13 18  2  0  0  0  0
 14 20  1  0  0  0  0
 14 17  2  0  0  0  0
 15 18  1  0  0  0  0
 17 13  1  0  0  0  0
 18 16  1  0  0  0  0
 19 14  1  0  0  0  0
 20 12  1  0  0  0  0
 21 22  1  0  0  0  0
 23 28  2  0  0  0  0
 23 26  1  0  0  0  0
 24 22  2  0  0  0  0
 25 26  1  0  0  0  0
 26 21  2  0  0  0  0
 27 23  1  0  0  0  0
 28 24  1  0  0  0  0
M  END
>  <MODEL>
6

>  <REMARK>
 VINA RESULT:      -7.6      3.461      7.343
  Name = 
  2 active torsions:
  status: ('A' for Active; 'I' for Inactive)
    1  A    between atoms: C_1  and  C_2
    2  A    between atoms: C_10  and  C_13
                            x       y       z     vdW  Elec       q    Type
                         _______ _______ _______ _____ _____    ______ ____

>  <TORSDO>
F 2

$$$$
=
 OpenBabel11052418073D

 28 31  0  0  1  0  0  0  0  0999 V2000
  191.8090  176.0590  145.3720 C   0  0  1  0  0  3  0  0  0  0  0  0
  195.8000  174.9480  145.3970 O   0  0  0  0  0  0  0  0  0  0  0  0
  191.7760  173.1600  142.8160 C   0  0  2  0  0  3  0  0  0  0  0  0
  193.6380  174.5920  144.4560 C   0  0  0  0  0  0  0  0  0  0  0  0
  191.3100  174.4520  143.4760 C   0  0  0  0  0  2  0  0  0  0  0  0
  194.0210  176.0300  146.5130 C   0  0  0  0  0  3  0  0  0  0  0  0
  194.1120  173.8860  143.4190 C   0  0  0  0  0  3  0  0  0  0  0  0
  194.5620  175.1760  145.4470 C   0  0  0  0  0  0  0  0  0  0  0  0
  193.2270  173.3050  142.3500 C   0  0  0  0  0  2  0  0  0  0  0  0
  192.7420  176.4140  146.5050 C   0  0  0  0  0  3  0  0  0  0  0  0
  192.1490  174.7040  144.7290 C   0  0  2  0  0  3  0  0  0  0  0  0
  191.3630  172.7030  140.4410 C   0  0  0  0  0  3  0  0  0  0  0  0
  188.4080  172.6720  141.2580 C   0  0  0  0  0  3  0  0  0  0  0  0
  189.4040  173.1300  139.0160 C   0  0  0  0  0  0  0  0  0  0  0  0
  190.8710  172.7600  141.6880 C   0  0  0  0  0  0  0  0  0  0  0  0
  189.2280  171.9110  143.2690 F   0  0  0  0  0  0  0  0  0  0  0  0
  188.4160  173.2540  139.9010 C   0  0  0  0  0  3  0  0  0  0  0  0
  189.4720  172.4050  142.0280 C   0  0  0  0  0  0  0  0  0  0  0  0
  189.2730  173.7920  137.6920 C   0  0  0  0  0  1  0  0  0  0  0  0
  190.5770  172.2410  139.2610 C   0  0  0  0  0  2  0  0  0  0  0  0
  190.3760  176.1420  145.8210 C   0  0  0  0  0  0  0  0  0  0  0  0
  189.9410  175.2490  146.8050 C   0  0  0  0  0  3  0  0  0  0  0  0
  188.1500  177.1230  145.7540 C   0  0  0  0  0  0  0  0  0  0  0  0
  188.6220  175.2890  147.2620 C   0  0  0  0  0  3  0  0  0  0  0  0
  189.8880  177.9840  144.3100 O   0  0  0  0  0  1  0  0  0  0  0  0
  189.4740  177.0880  145.2900 C   0  0  0  0  0  0  0  0  0  0  0  0
  187.0040  178.2880  145.1160 Cl  0  0  0  0  0  0  0  0  0  0  0  0
  187.7280  176.2240  146.7380 C   0  0  0  0  0  3  0  0  0  0  0  0
  1 21  1  1  0  0  0
  1 10  1  0  0  0  0
  2  8  2  0  0  0  0
  3 15  1  6  0  0  0
  3  5  1  0  0  0  0
  4 11  1  0  0  0  0
  4  8  1  0  0  0  0
  7  4  2  0  0  0  0
  8  6  1  0  0  0  0
  9  3  1  0  0  0  0
  9  7  1  0  0  0  0
 10  6  2  0  0  0  0
 11  5  1  6  0  0  0
 11  1  1  0  0  0  0
 12 15  2  0  0  0  0
 13 18  2  0  0  0  0
 14 20  1  0  0  0  0
 14 17  2  0  0  0  0
 15 18  1  0  0  0  0
 17 13  1  0  0  0  0
 18 16  1  0  0  0  0
 19 14  1  0  0  0  0
 20 12  1  0  0  0  0
 21 22  1  0  0  0  0
 22 24  2  0  0  0  0
 23 28  2  0  0  0  0
 25 26  1  0  0  0  0
 26 23  1  0  0  0  0
 26 21  2  0  0  0  0
 27 23  1  0  0  0  0
 28 24  1  0  0  0  0
M  END
>  <MODEL>
7

>  <REMARK>
 VINA RESULT:      -7.5      3.255      6.266
  Name = 
  2 active torsions:
  status: ('A' for Active; 'I' for Inactive)
    1  A    between atoms: C_1  and  C_2
    2  A    between atoms: C_10  and  C_13
                            x       y       z     vdW  Elec       q    Type
                         _______ _______ _______ _____ _____    ______ ____

>  <TORSDO>
F 2

$$$$
=
 OpenBabel11052418073D

 28 31  0  0  1  0  0  0  0  0999 V2000
  185.2060  177.5110  144.0870 C   0  0  1  0  0  3  0  0  0  0  0  0
  184.3170  178.4320  140.1470 O   0  0  0  0  0  0  0  0  0  0  0  0
  188.7200  177.3330  142.4840 C   0  0  2  0  0  3  0  0  0  0  0  0
  186.0010  177.8110  141.7170 C   0  0  0  0  0  0  0  0  0  0  0  0
  187.6210  177.0140  143.4900 C   0  0  0  0  0  2  0  0  0  0  0  0
  183.6690  178.5320  142.4170 C   0  0  0  0  0  3  0  0  0  0  0  0
  186.8830  177.4690  140.7660 C   0  0  0  0  0  3  0  0  0  0  0  0
  184.6460  178.2640  141.3510 C   0  0  0  0  0  0  0  0  0  0  0  0
  188.2630  176.9550  141.0730 C   0  0  0  0  0  2  0  0  0  0  0  0
  183.9340  178.2180  143.6880 C   0  0  0  0  0  3  0  0  0  0  0  0
  186.3950  177.8760  143.1810 C   0  0  2  0  0  3  0  0  0  0  0  0
  190.2480  175.4160  142.4000 C   0  0  0  0  0  3  0  0  0  0  0  0
  191.7810  176.9090  144.5950 C   0  0  0  0  0  3  0  0  0  0  0  0
  191.7660  174.4660  144.0870 C   0  0  0  0  0  0  0  0  0  0  0  0
  190.0100  176.6580  142.8460 C   0  0  0  0  0  0  0  0  0  0  0  0
  190.9600  178.7860  143.5470 F   0  0  0  0  0  0  0  0  0  0  0  0
  191.9400  175.4810  144.9320 C   0  0  0  0  0  3  0  0  0  0  0  0
  190.9820  177.4340  143.6550 C   0  0  0  0  0  0  0  0  0  0  0  0
  191.9440  173.0770  144.5830 C   0  0  0  0  0  1  0  0  0  0  0  0
  191.5260  174.6840  142.6310 C   0  0  0  0  0  2  0  0  0  0  0  0
  185.5010  177.7340  145.5440 C   0  0  0  0  0  0  0  0  0  0  0  0
  185.5660  176.6160  146.3830 C   0  0  0  0  0  3  0  0  0  0  0  0
  185.9990  179.1660  147.4480 C   0  0  0  0  0  0  0  0  0  0  0  0
  185.8440  176.7680  147.7430 C   0  0  0  0  0  3  0  0  0  0  0  0
  185.6580  180.1450  145.2630 O   0  0  0  0  0  1  0  0  0  0  0  0
  185.7190  179.0200  146.0810 C   0  0  0  0  0  0  0  0  0  0  0  0
  186.2770  180.7520  148.1460 Cl  0  0  0  0  0  0  0  0  0  0  0  0
  186.0610  178.0400  148.2750 C   0  0  0  0  0  3  0  0  0  0  0  0
  1 21  1  1  0  0  0
  2  8  2  0  0  0  0
  3 15  1  1  0  0  0
  3  5  1  0  0  0  0
  4 11  1  0  0  0  0
  6 10  2  0  0  0  0
  7  9  1  0  0  0  0
  7  4  2  0  0  0  0
  8  4  1  0  0  0  0
  8  6  1  0  0  0  0
  9  3  1  0  0  0  0
 10  1  1  0  0  0  0
 11  5  1  6  0  0  0
 11  1  1  0  0  0  0
 12 20  1  0  0  0  0
 12 15  2  0  0  0  0
 13 17  1  0  0  0  0
 14 19  1  0  0  0  0
 14 17  2  0  0  0  0
 15 18  1  0  0  0  0
 16 18  1  0  0  0  0
 18 13  2  0  0  0  0
 20 14  1  0  0  0  0
 21 26  2  0  0  0  0
 21 22  1  0  0  0  0
 22 24  2  0  0  0  0
 23 27  1  0  0  0  0
 23 28  2  0  0  0  0
 24 28  1  0  0  0  0
 25 26  1  0  0  0  0
 26 23  1  0  0  0  0
M  END
>  <MODEL>
8

>  <REMARK>
 VINA RESULT:      -7.4      3.387      6.985
  Name = 
  2 active torsions:
  status: ('A' for Active; 'I' for Inactive)
    1  A    between atoms: C_1  and  C_2
    2  A    between atoms: C_10  and  C_13
                            x       y       z     vdW  Elec       q    Type
                         _______ _______ _______ _____ _____    ______ ____

>  <TORSDO>
F 2

$$$$
=
 OpenBabel11052418073D

 28 31  0  0  1  0  0  0  0  0999 V2000
  190.8210  174.3470  144.4560 C   0  0  1  0  0  3  0  0  0  0  0  0
  191.1930  175.6000  148.3880 O   0  0  0  0  0  0  0  0  0  0  0  0
  188.7630  177.6190  144.3780 C   0  0  2  0  0  3  0  0  0  0  0  0
  190.2300  176.0160  146.2450 C   0  0  0  0  0  0  0  0  0  0  0  0
  189.1870  176.2190  143.9500 C   0  0  0  0  0  2  0  0  0  0  0  0
  192.0450  174.2810  146.6220 C   0  0  0  0  0  3  0  0  0  0  0  0
  189.3400  176.8990  146.7220 C   0  0  0  0  0  3  0  0  0  0  0  0
  191.1530  175.3170  147.1600 C   0  0  0  0  0  0  0  0  0  0  0  0
  188.3420  177.6100  145.8500 C   0  0  0  0  0  2  0  0  0  0  0  0
  191.9210  173.8520  145.3640 C   0  0  0  0  0  3  0  0  0  0  0  0
  190.4190  175.8020  144.7550 C   0  0  2  0  0  3  0  0  0  0  0  0
  186.5480  178.6220  144.0540 C   0  0  0  0  0  3  0  0  0  0  0  0
  187.0060  177.9740  141.0930 C   0  0  0  0  0  3  0  0  0  0  0  0
  184.8490  178.2910  142.3070 C   0  0  0  0  0  0  0  0  0  0  0  0
  187.6760  178.1590  143.4960 C   0  0  0  0  0  0  0  0  0  0  0  0
  189.2230  178.2900  141.6220 F   0  0  0  0  0  0  0  0  0  0  0  0
  185.5570  177.7840  141.2990 C   0  0  0  0  0  3  0  0  0  0  0  0
  187.9340  178.1890  142.0350 C   0  0  0  0  0  0  0  0  0  0  0  0
  183.3940  177.9930  142.3880 C   0  0  0  0  0  1  0  0  0  0  0  0
  185.4400  179.2530  143.2820 C   0  0  0  0  0  2  0  0  0  0  0  0
  191.1900  174.1350  143.0140 C   0  0  0  0  0  0  0  0  0  0  0  0
  192.3530  174.7450  142.5340 C   0  0  0  0  0  3  0  0  0  0  0  0
  190.8090  173.1740  140.8100 C   0  0  0  0  0  0  0  0  0  0  0  0
  192.7440  174.5740  141.2040 C   0  0  0  0  0  3  0  0  0  0  0  0
  189.2490  172.7280  142.6040 O   0  0  0  0  0  1  0  0  0  0  0  0
  190.4100  173.3430  142.1450 C   0  0  0  0  0  0  0  0  0  0  0  0
  189.8620  172.1930  139.7060 Cl  0  0  0  0  0  0  0  0  0  0  0  0
  191.9740  173.7900  140.3440 C   0  0  0  0  0  3  0  0  0  0  0  0
  1 21  1  6  0  0  0
  1 11  1  0  0  0  0
  1 10  1  0  0  0  0
  3 15  1  6  0  0  0
  3  9  1  0  0  0  0
  4  7  2  0  0  0  0
  4  8  1  0  0  0  0
  5  3  1  0  0  0  0
  6  8  1  0  0  0  0
  8  2  2  0  0  0  0
  9  7  1  0  0  0  0
 10  6  2  0  0  0  0
 11  5  1  6  0  0  0
 11  4  1  0  0  0  0
 13 17  1  0  0  0  0
 13 18  2  0  0  0  0
 14 19  1  0  0  0  0
 14 20  1  0  0  0  0
 15 12  2  0  0  0  0
 16 18  1  0  0  0  0
 17 14  2  0  0  0  0
 18 15  1  0  0  0  0
 20 12  1  0  0  0  0
 22 21  1  0  0  0  0
 23 26  1  0  0  0  0
 24 22  2  0  0  0  0
 26 25  1  0  0  0  0
 26 21  2  0  0  0  0
 27 23  1  0  0  0  0
 28 23  2  0  0  0  0
 28 24  1  0  0  0  0
M  END
>  <MODEL>
9

>  <REMARK>
 VINA RESULT:      -7.4      2.666      4.550
  Name = 
  2 active torsions:
  status: ('A' for Active; 'I' for Inactive)
    1  A    between atoms: C_1  and  C_2
    2  A    between atoms: C_10  and  C_13
                            x       y       z     vdW  Elec       q    Type
                         _______ _______ _______ _____ _____    ______ ____

>  <TORSDO>
F 2

$$$$
