=
 OpenBabel11052418133D

 28 30  0  0  1  0  0  0  0  0999 V2000
  186.7480  178.8610  143.7490 C   0  0  0  0  0  2  0  0  0  0  0  0
  189.2280  174.6040  147.5010 C   0  0  0  0  0  1  0  0  0  0  0  0
  185.5690  177.6320  145.5680 C   0  0  2  0  0  3  0  0  0  0  0  0
  188.0560  177.3710  145.3130 C   0  0  0  0  0  0  0  0  0  0  0  0
  184.2860  179.3040  144.1860 C   0  0  2  0  0  3  0  0  0  0  0  0
  186.8840  178.3130  145.1700 C   0  0  1  0  0  3  0  0  0  0  0  0
  186.8330  176.1010  146.9290 O   0  0  0  0  0  0  0  0  0  0  0  0
  184.4320  178.6500  145.5640 C   0  0  0  0  0  2  0  0  0  0  0  0
  190.2260  175.4800  145.3590 C   0  0  2  0  0  3  0  0  0  0  0  0
  189.3410  177.6810  144.6540 C   0  0  0  0  0  3  0  0  0  0  0  0
  185.7340  177.0110  146.9450 C   0  0  0  0  0  2  0  0  0  0  0  0
  189.1480  175.4980  146.3560 N   0  0  0  0  0  0  0  0  0  0  0  0
  183.7130  178.3270  143.1720 C   0  0  0  0  0  1  0  0  0  0  0  0
  185.6160  179.8900  143.6970 C   0  0  0  0  0  2  0  0  0  0  0  0
  188.0000  176.3460  146.1860 C   0  0  0  0  0  0  0  0  0  0  0  0
  190.3810  176.8470  144.7260 C   0  0  0  0  0  0  0  0  0  0  0  0
  189.9370  174.4250  144.2840 C   0  0  0  0  0  3  0  0  0  0  0  0
  191.1220  173.8220  143.8640 O   0  0  0  0  0  1  0  0  0  0  0  0
  189.3120  175.0120  143.1830 O   0  0  0  0  0  1  0  0  0  0  0  0
  191.6630  177.2400  144.0660 C   0  0  0  0  0  2  0  0  0  0  0  0
  192.8500  176.8880  144.9140 C   0  0  0  0  0  3  0  0  0  0  0  0
  193.9180  176.2150  144.4650 C   0  0  0  0  0  3  0  0  0  0  0  0
  194.0680  175.7270  143.0550 C   0  0  0  0  0  2  0  0  0  0  0  0
  195.3940  176.1690  142.4400 C   0  0  0  0  0  2  0  0  0  0  0  0
  196.5430  176.2120  143.4480 C   0  0  2  0  0  3  0  0  0  0  0  0
  197.1030  177.4760  143.5030 F   0  0  0  0  0  0  0  0  0  0  0  0
  197.8250  174.8680  141.9920 O   0  0  0  0  0  0  0  0  0  0  0  0
  197.5940  175.1940  143.1450 C   0  0  0  0  0  3  0  0  0  0  0  0
  3  8  1  1  0  0  0
  3 11  1  0  0  0  0
  4 15  2  0  0  0  0
  5 13  1  6  0  0  0
  5  8  1  0  0  0  0
  6  1  1  6  0  0  0
  6  4  1  0  0  0  0
  6  3  1  0  0  0  0
  7 11  1  0  0  0  0
  9 17  1  6  0  0  0
  9 12  1  0  0  0  0
 10 16  2  0  0  0  0
 10  4  1  0  0  0  0
 12  2  1  0  0  0  0
 14  1  1  0  0  0  0
 14  5  1  0  0  0  0
 15 12  1  0  0  0  0
 15  7  1  0  0  0  0
 16  9  1  0  0  0  0
 18 17  1  0  0  0  0
 19 17  1  0  0  0  0
 20 16  1  0  0  0  0
 20 21  1  0  0  0  0
 22 21  2  0  0  0  0
 23 22  1  0  0  0  0
 24 23  1  0  0  0  0
 24 25  1  0  0  0  0
 25 26  1  6  0  0  0
 27 28  2  0  0  0  0
 28 25  1  0  0  0  0
M  END
>  <MODEL>
1

>  <REMARK>
 VINA RESULT:      -7.0      0.000      0.000
  Name = 
  7 active torsions:
  status: ('A' for Active; 'I' for Inactive)
    1  A    between atoms: C_1  and  C_2
    2  A    between atoms: C_1  and  C_27
    3  A    between atoms: C_3  and  C_8
    4  A    between atoms: C_6  and  C_11
    5  A    between atoms: C_6  and  C_28
    6  A    between atoms: C_8  and  C_11
    7  A    between atoms: C_16  and  C_19
                            x       y       z     vdW  Elec       q    Type
                         _______ _______ _______ _____ _____    ______ ____

>  <TORSDO>
F 7

$$$$
=
 OpenBabel11052418133D

 28 30  0  0  1  0  0  0  0  0999 V2000
  187.4720  177.0750  146.9950 C   0  0  0  0  0  2  0  0  0  0  0  0
  188.8460  175.2710  141.2330 C   0  0  0  0  0  1  0  0  0  0  0  0
  186.0330  177.3520  144.9800 C   0  0  2  0  0  3  0  0  0  0  0  0
  188.1500  176.0100  144.8090 C   0  0  0  0  0  0  0  0  0  0  0  0
  185.2080  178.2080  147.2030 C   0  0  2  0  0  3  0  0  0  0  0  0
  187.0000  176.4080  145.7030 C   0  0  1  0  0  3  0  0  0  0  0  0
  186.8030  176.4550  142.8840 O   0  0  0  0  0  0  0  0  0  0  0  0
  184.8060  177.6110  145.8510 C   0  0  0  0  0  2  0  0  0  0  0  0
  190.4510  175.4700  143.1660 C   0  0  2  0  0  3  0  0  0  0  0  0
  189.3700  175.4150  145.3910 C   0  0  0  0  0  3  0  0  0  0  0  0
  185.6330  176.7270  143.6540 C   0  0  0  0  0  2  0  0  0  0  0  0
  189.0870  175.5740  142.6350 N   0  0  0  0  0  0  0  0  0  0  0  0
  185.6780  179.6460  147.0500 C   0  0  0  0  0  1  0  0  0  0  0  0
  186.2710  177.3520  147.9030 C   0  0  0  0  0  2  0  0  0  0  0  0
  188.0030  176.0180  143.4690 C   0  0  0  0  0  0  0  0  0  0  0  0
  190.4200  175.0920  144.6310 C   0  0  0  0  0  0  0  0  0  0  0  0
  191.1970  176.7970  142.9730 C   0  0  0  0  0  3  0  0  0  0  0  0
  192.5290  176.5600  142.6330 O   0  0  0  0  0  1  0  0  0  0  0  0
  191.1560  177.5510  144.1460 O   0  0  0  0  0  1  0  0  0  0  0  0
  191.6090  174.4620  145.2820 C   0  0  0  0  0  2  0  0  0  0  0  0
  191.9040  175.0870  146.6140 C   0  0  0  0  0  3  0  0  0  0  0  0
  192.9610  175.8740  146.8540 C   0  0  0  0  0  3  0  0  0  0  0  0
  193.9870  176.2360  145.8220 C   0  0  0  0  0  2  0  0  0  0  0  0
  195.2340  175.3610  145.9290 C   0  0  0  0  0  2  0  0  0  0  0  0
  195.9520  175.1670  144.5940 C   0  0  2  0  0  3  0  0  0  0  0  0
  197.2740  174.8090  144.7930 F   0  0  0  0  0  0  0  0  0  0  0  0
  196.8830  176.9870  143.4150 O   0  0  0  0  0  0  0  0  0  0  0  0
  195.8700  176.3820  143.7280 C   0  0  0  0  0  3  0  0  0  0  0  0
  1 14  1  0  0  0  0
  2 12  1  0  0  0  0
  3 11  1  6  0  0  0
  3  6  1  0  0  0  0
  3  8  1  0  0  0  0
  4 10  1  0  0  0  0
  4  6  1  0  0  0  0
  5 13  1  6  0  0  0
  5 14  1  0  0  0  0
  6  1  1  1  0  0  0
  7 15  1  0  0  0  0
  7 11  1  0  0  0  0
  8  5  1  0  0  0  0
  9 17  1  1  0  0  0
  9 16  1  0  0  0  0
 12  9  1  0  0  0  0
 12 15  1  0  0  0  0
 15  4  2  0  0  0  0
 16 20  1  0  0  0  0
 16 10  2  0  0  0  0
 17 19  1  0  0  0  0
 18 17  1  0  0  0  0
 20 21  1  0  0  0  0
 21 22  2  0  0  0  0
 23 24  1  0  0  0  0
 23 22  1  0  0  0  0
 25 26  1  1  0  0  0
 25 24  1  0  0  0  0
 27 28  2  0  0  0  0
 28 25  1  0  0  0  0
M  END
>  <MODEL>
2

>  <REMARK>
 VINA RESULT:      -7.0      2.159      3.156
  Name = 
  7 active torsions:
  status: ('A' for Active; 'I' for Inactive)
    1  A    between atoms: C_1  and  C_2
    2  A    between atoms: C_1  and  C_27
    3  A    between atoms: C_3  and  C_8
    4  A    between atoms: C_6  and  C_11
    5  A    between atoms: C_6  and  C_28
    6  A    between atoms: C_8  and  C_11
    7  A    between atoms: C_16  and  C_19
                            x       y       z     vdW  Elec       q    Type
                         _______ _______ _______ _____ _____    ______ ____

>  <TORSDO>
F 7

$$$$
=
 OpenBabel11052418133D

 28 30  0  0  1  0  0  0  0  0999 V2000
  186.9650  177.1900  146.9010 C   0  0  0  0  0  2  0  0  0  0  0  0
  187.9120  177.7040  140.8030 C   0  0  0  0  0  1  0  0  0  0  0  0
  185.7290  178.6840  145.3370 C   0  0  2  0  0  3  0  0  0  0  0  0
  187.3620  177.0130  144.4140 C   0  0  0  0  0  0  0  0  0  0  0  0
  185.1300  178.7050  147.7860 C   0  0  2  0  0  3  0  0  0  0  0  0
  186.3550  177.2950  145.5040 C   0  0  1  0  0  3  0  0  0  0  0  0
  186.2600  178.5880  142.9920 O   0  0  0  0  0  0  0  0  0  0  0  0
  184.6070  178.8760  146.3550 C   0  0  0  0  0  2  0  0  0  0  0  0
  189.4490  176.6090  142.4730 C   0  0  2  0  0  3  0  0  0  0  0  0
  188.3370  175.9140  144.5720 C   0  0  0  0  0  3  0  0  0  0  0  0
  185.2000  178.8190  143.9190 C   0  0  0  0  0  2  0  0  0  0  0  0
  188.1910  177.3020  142.1730 N   0  0  0  0  0  0  0  0  0  0  0  0
  186.0040  179.8790  148.1950 C   0  0  0  0  0  1  0  0  0  0  0  0
  185.8740  177.3750  147.9580 C   0  0  0  0  0  2  0  0  0  0  0  0
  187.2620  177.6300  143.2200 C   0  0  0  0  0  0  0  0  0  0  0  0
  189.2670  175.6680  143.6450 C   0  0  0  0  0  0  0  0  0  0  0  0
  190.5570  177.6260  142.7730 C   0  0  0  0  0  3  0  0  0  0  0  0
  191.8100  177.0190  142.6940 O   0  0  0  0  0  1  0  0  0  0  0  0
  190.3920  178.1610  144.0510 O   0  0  0  0  0  1  0  0  0  0  0  0
  190.2000  174.5190  143.8530 C   0  0  0  0  0  2  0  0  0  0  0  0
  190.1240  173.9960  145.2580 C   0  0  0  0  0  3  0  0  0  0  0  0
  191.0710  174.1990  146.1840 C   0  0  0  0  0  3  0  0  0  0  0  0
  192.3280  174.9790  145.9390 C   0  0  0  0  0  2  0  0  0  0  0  0
  192.1920  176.4320  146.3910 C   0  0  0  0  0  2  0  0  0  0  0  0
  191.1490  176.6270  147.4920 C   0  0  2  0  0  3  0  0  0  0  0  0
  190.1060  177.4200  147.0470 F   0  0  0  0  0  0  0  0  0  0  0  0
  191.2030  178.1400  149.3020 O   0  0  0  0  0  0  0  0  0  0  0  0
  191.7450  177.2050  148.7340 C   0  0  0  0  0  3  0  0  0  0  0  0
  1 14  1  0  0  0  0
  2 12  1  0  0  0  0
  3 11  1  6  0  0  0
  3  6  1  0  0  0  0
  3  8  1  0  0  0  0
  4 10  1  0  0  0  0
  4  6  1  0  0  0  0
  5 14  1  0  0  0  0
  5 13  1  6  0  0  0
  6  1  1  1  0  0  0
  7 15  1  0  0  0  0
  7 11  1  0  0  0  0
  8  5  1  0  0  0  0
  9 17  1  1  0  0  0
  9 16  1  0  0  0  0
 12  9  1  0  0  0  0
 12 15  1  0  0  0  0
 15  4  2  0  0  0  0
 16 20  1  0  0  0  0
 16 10  2  0  0  0  0
 17 19  1  0  0  0  0
 18 17  1  0  0  0  0
 20 21  1  0  0  0  0
 21 22  2  0  0  0  0
 23 22  1  0  0  0  0
 23 24  1  0  0  0  0
 24 25  1  0  0  0  0
 25 26  1  6  0  0  0
 25 28  1  0  0  0  0
 28 27  2  0  0  0  0
M  END
>  <MODEL>
3

>  <REMARK>
 VINA RESULT:      -6.9      3.318      4.746
  Name = 
  7 active torsions:
  status: ('A' for Active; 'I' for Inactive)
    1  A    between atoms: C_1  and  C_2
    2  A    between atoms: C_1  and  C_27
    3  A    between atoms: C_3  and  C_8
    4  A    between atoms: C_6  and  C_11
    5  A    between atoms: C_6  and  C_28
    6  A    between atoms: C_8  and  C_11
    7  A    between atoms: C_16  and  C_19
                            x       y       z     vdW  Elec       q    Type
                         _______ _______ _______ _____ _____    ______ ____

>  <TORSDO>
F 7

$$$$
=
 OpenBabel11052418133D

 28 30  0  0  1  0  0  0  0  0999 V2000
  186.7390  178.7390  143.6890 C   0  0  0  0  0  2  0  0  0  0  0  0
  189.0600  174.5500  147.6150 C   0  0  0  0  0  1  0  0  0  0  0  0
  185.5140  177.6240  145.5500 C   0  0  2  0  0  3  0  0  0  0  0  0
  187.9900  177.2670  145.3150 C   0  0  0  0  0  0  0  0  0  0  0  0
  184.2930  179.2840  144.0980 C   0  0  2  0  0  3  0  0  0  0  0  0
  186.8520  178.2430  145.1300 C   0  0  1  0  0  3  0  0  0  0  0  0
  186.7210  176.1050  146.9750 O   0  0  0  0  0  0  0  0  0  0  0  0
  184.4120  178.6800  145.5010 C   0  0  0  0  0  2  0  0  0  0  0  0
  190.0930  175.3060  145.4440 C   0  0  2  0  0  3  0  0  0  0  0  0
  189.2870  177.5070  144.6490 C   0  0  0  0  0  3  0  0  0  0  0  0
  185.6540  177.0530  146.9510 C   0  0  0  0  0  2  0  0  0  0  0  0
  189.0140  175.4000  146.4350 N   0  0  0  0  0  0  0  0  0  0  0  0
  183.6890  178.2880  143.1210 C   0  0  0  0  0  1  0  0  0  0  0  0
  185.6440  179.8030  143.5910 C   0  0  0  0  0  2  0  0  0  0  0  0
  187.8970  176.2800  146.2280 C   0  0  0  0  0  0  0  0  0  0  0  0
  190.2980  176.6410  144.7590 C   0  0  0  0  0  0  0  0  0  0  0  0
  189.7710  174.2200  144.4110 C   0  0  0  0  0  3  0  0  0  0  0  0
  190.9410  173.5910  143.9850 O   0  0  0  0  0  1  0  0  0  0  0  0
  189.1290  174.7780  143.3040 O   0  0  0  0  0  1  0  0  0  0  0  0
  191.5940  176.9630  144.0880 C   0  0  0  0  0  2  0  0  0  0  0  0
  192.7500  176.8400  145.0380 C   0  0  0  0  0  3  0  0  0  0  0  0
  193.9570  176.3720  144.6920 C   0  0  0  0  0  3  0  0  0  0  0  0
  194.3110  175.9110  143.3090 C   0  0  0  0  0  2  0  0  0  0  0  0
  195.3900  174.8300  143.3290 C   0  0  0  0  0  2  0  0  0  0  0  0
  196.3350  174.9440  144.5260 C   0  0  2  0  0  3  0  0  0  0  0  0
  197.6110  175.2850  144.1150 F   0  0  0  0  0  0  0  0  0  0  0  0
  197.0520  173.6240  146.3460 O   0  0  0  0  0  0  0  0  0  0  0  0
  196.3710  173.6880  145.3350 C   0  0  0  0  0  3  0  0  0  0  0  0
  3  8  1  1  0  0  0
  3 11  1  0  0  0  0
  4 15  2  0  0  0  0
  5 13  1  6  0  0  0
  5  8  1  0  0  0  0
  6  1  1  6  0  0  0
  6  4  1  0  0  0  0
  6  3  1  0  0  0  0
  9 17  1  6  0  0  0
  9 12  1  0  0  0  0
 10 16  2  0  0  0  0
 10  4  1  0  0  0  0
 11  7  1  0  0  0  0
 12  2  1  0  0  0  0
 14  1  1  0  0  0  0
 14  5  1  0  0  0  0
 15 12  1  0  0  0  0
 15  7  1  0  0  0  0
 16  9  1  0  0  0  0
 18 17  1  0  0  0  0
 19 17  1  0  0  0  0
 20 16  1  0  0  0  0
 20 21  1  0  0  0  0
 22 21  2  0  0  0  0
 23 24  1  0  0  0  0
 23 22  1  0  0  0  0
 24 25  1  0  0  0  0
 25 26  1  6  0  0  0
 25 28  1  0  0  0  0
 28 27  2  0  0  0  0
M  END
>  <MODEL>
4

>  <REMARK>
 VINA RESULT:      -6.8      1.217      1.217
  Name = 
  7 active torsions:
  status: ('A' for Active; 'I' for Inactive)
    1  A    between atoms: C_1  and  C_2
    2  A    between atoms: C_1  and  C_27
    3  A    between atoms: C_3  and  C_8
    4  A    between atoms: C_6  and  C_11
    5  A    between atoms: C_6  and  C_28
    6  A    between atoms: C_8  and  C_11
    7  A    between atoms: C_16  and  C_19
                            x       y       z     vdW  Elec       q    Type
                         _______ _______ _______ _____ _____    ______ ____

>  <TORSDO>
F 7

$$$$
=
 OpenBabel11052418133D

 28 30  0  0  1  0  0  0  0  0999 V2000
  189.6070  174.7220  142.7450 C   0  0  0  0  0  2  0  0  0  0  0  0
  185.8040  179.2410  144.6070 C   0  0  0  0  0  1  0  0  0  0  0  0
  187.7080  175.6800  141.4470 C   0  0  2  0  0  3  0  0  0  0  0  0
  188.3770  176.7450  143.6230 C   0  0  0  0  0  0  0  0  0  0  0  0
  189.0770  173.8240  140.4300 C   0  0  2  0  0  3  0  0  0  0  0  0
  188.8660  176.0120  142.3950 C   0  0  1  0  0  3  0  0  0  0  0  0
  186.4660  177.5070  142.4040 O   0  0  0  0  0  0  0  0  0  0  0  0
  188.2490  175.0830  140.1510 C   0  0  0  0  0  2  0  0  0  0  0  0
  187.3830  177.9160  146.0570 C   0  0  2  0  0  3  0  0  0  0  0  0
  189.2380  176.8420  144.8190 C   0  0  0  0  0  3  0  0  0  0  0  0
  186.9180  176.9480  141.1710 C   0  0  0  0  0  2  0  0  0  0  0  0
  186.8270  178.2130  144.7320 N   0  0  0  0  0  0  0  0  0  0  0  0
  188.1870  172.6650  140.8520 C   0  0  0  0  0  1  0  0  0  0  0  0
  190.1710  174.0880  141.4710 C   0  0  0  0  0  2  0  0  0  0  0  0
  187.2420  177.4710  143.5730 C   0  0  0  0  0  0  0  0  0  0  0  0
  188.8170  177.4460  145.9340 C   0  0  0  0  0  0  0  0  0  0  0  0
  186.5330  176.8520  146.7620 C   0  0  0  0  0  3  0  0  0  0  0  0
  185.4080  176.5430  145.9970 O   0  0  0  0  0  1  0  0  0  0  0  0
  186.1180  177.3130  148.0120 O   0  0  0  0  0  1  0  0  0  0  0  0
  189.7530  177.5390  147.0960 C   0  0  0  0  0  2  0  0  0  0  0  0
  190.0930  176.1810  147.6380 C   0  0  0  0  0  3  0  0  0  0  0  0
  191.2980  175.6090  147.5230 C   0  0  0  0  0  3  0  0  0  0  0  0
  192.4680  176.2520  146.8390 C   0  0  0  0  0  2  0  0  0  0  0  0
  192.8170  175.5490  145.5290 C   0  0  0  0  0  2  0  0  0  0  0  0
  193.2470  176.5120  144.4220 C   0  0  2  0  0  3  0  0  0  0  0  0
  192.3200  177.5260  144.2640 F   0  0  0  0  0  0  0  0  0  0  0  0
  193.3620  176.4150  142.0670 O   0  0  0  0  0  0  0  0  0  0  0  0
  193.4730  175.8110  143.1220 C   0  0  0  0  0  3  0  0  0  0  0  0
  2 12  1  0  0  0  0
  3  8  1  6  0  0  0
  3  6  1  0  0  0  0
  4 10  1  0  0  0  0
  5 13  1  1  0  0  0
  5 14  1  0  0  0  0
  6  1  1  1  0  0  0
  6  4  1  0  0  0  0
  7 15  1  0  0  0  0
  8  5  1  0  0  0  0
  9 17  1  6  0  0  0
 10 16  2  0  0  0  0
 11  3  1  0  0  0  0
 11  7  1  0  0  0  0
 12  9  1  0  0  0  0
 14  1  1  0  0  0  0
 15  4  2  0  0  0  0
 15 12  1  0  0  0  0
 16  9  1  0  0  0  0
 16 20  1  0  0  0  0
 17 19  1  0  0  0  0
 18 17  1  0  0  0  0
 20 21  1  0  0  0  0
 22 21  2  0  0  0  0
 23 22  1  0  0  0  0
 24 23  1  0  0  0  0
 25 26  1  6  0  0  0
 25 24  1  0  0  0  0
 27 28  2  0  0  0  0
 28 25  1  0  0  0  0
M  END
>  <MODEL>
5

>  <REMARK>
 VINA RESULT:      -6.8      2.694      5.056
  Name = 
  7 active torsions:
  status: ('A' for Active; 'I' for Inactive)
    1  A    between atoms: C_1  and  C_2
    2  A    between atoms: C_1  and  C_27
    3  A    between atoms: C_3  and  C_8
    4  A    between atoms: C_6  and  C_11
    5  A    between atoms: C_6  and  C_28
    6  A    between atoms: C_8  and  C_11
    7  A    between atoms: C_16  and  C_19
                            x       y       z     vdW  Elec       q    Type
                         _______ _______ _______ _____ _____    ______ ____

>  <TORSDO>
F 7

$$$$
=
 OpenBabel11052418133D

 28 30  0  0  1  0  0  0  0  0999 V2000
  189.7700  176.6860  145.9490 C   0  0  0  0  0  2  0  0  0  0  0  0
  191.0300  173.9560  140.5360 C   0  0  0  0  0  1  0  0  0  0  0  0
  191.8770  175.4990  145.3510 C   0  0  2  0  0  3  0  0  0  0  0  0
  190.1380  175.8930  143.5800 C   0  0  0  0  0  0  0  0  0  0  0  0
  191.6440  176.5020  147.6520 C   0  0  2  0  0  3  0  0  0  0  0  0
  190.7830  176.4400  144.8320 C   0  0  1  0  0  3  0  0  0  0  0  0
  192.1110  174.6220  143.1220 O   0  0  0  0  0  0  0  0  0  0  0  0
  192.6140  176.1500  146.5190 C   0  0  0  0  0  2  0  0  0  0  0  0
  188.7650  174.7060  141.3460 C   0  0  2  0  0  3  0  0  0  0  0  0
  188.8420  176.4310  143.1190 C   0  0  0  0  0  3  0  0  0  0  0  0
  192.8360  175.1840  144.2160 C   0  0  0  0  0  2  0  0  0  0  0  0
  190.2130  174.5910  141.5580 N   0  0  0  0  0  0  0  0  0  0  0  0
  191.1570  175.2510  148.3670 C   0  0  0  0  0  1  0  0  0  0  0  0
  190.4650  177.3420  147.1440 C   0  0  0  0  0  2  0  0  0  0  0  0
  190.8190  175.0510  142.7770 C   0  0  0  0  0  0  0  0  0  0  0  0
  188.2260  175.9390  142.0410 C   0  0  0  0  0  0  0  0  0  0  0  0
  188.0530  173.4500  141.8620 C   0  0  0  0  0  3  0  0  0  0  0  0
  188.8580  172.7760  142.7800 O   0  0  0  0  0  1  0  0  0  0  0  0
  187.7570  172.5910  140.8030 O   0  0  0  0  0  1  0  0  0  0  0  0
  186.9350  176.5540  141.6100 C   0  0  0  0  0  2  0  0  0  0  0  0
  186.9340  178.0400  141.8230 C   0  0  0  0  0  3  0  0  0  0  0  0
  186.0670  178.6820  142.6170 C   0  0  0  0  0  3  0  0  0  0  0  0
  184.9840  177.9990  143.3990 C   0  0  0  0  0  2  0  0  0  0  0  0
  185.0170  178.3900  144.8750 C   0  0  0  0  0  2  0  0  0  0  0  0
  186.1870  177.7690  145.6380 C   0  0  2  0  0  3  0  0  0  0  0  0
  186.3650  176.4460  145.2740 F   0  0  0  0  0  0  0  0  0  0  0  0
  186.8760  178.4060  147.8040 O   0  0  0  0  0  0  0  0  0  0  0  0
  186.0140  177.8780  147.1180 C   0  0  0  0  0  3  0  0  0  0  0  0
  1 14  1  0  0  0  0
  2 12  1  0  0  0  0
  3 11  1  6  0  0  0
  3  8  1  0  0  0  0
  4  6  1  0  0  0  0
  5 13  1  6  0  0  0
  6  3  1  0  0  0  0
  6  1  1  1  0  0  0
  7 11  1  0  0  0  0
  8  5  1  0  0  0  0
  9 12  1  0  0  0  0
  9 17  1  1  0  0  0
  9 16  1  0  0  0  0
 10  4  1  0  0  0  0
 12 15  1  0  0  0  0
 14  5  1  0  0  0  0
 15  7  1  0  0  0  0
 15  4  2  0  0  0  0
 16 10  2  0  0  0  0
 17 18  1  0  0  0  0
 19 17  1  0  0  0  0
 20 21  1  0  0  0  0
 20 16  1  0  0  0  0
 21 22  2  0  0  0  0
 22 23  1  0  0  0  0
 23 24  1  0  0  0  0
 24 25  1  0  0  0  0
 25 26  1  1  0  0  0
 25 28  1  0  0  0  0
 28 27  2  0  0  0  0
M  END
>  <MODEL>
6

>  <REMARK>
 VINA RESULT:      -6.7      3.180      7.451
  Name = 
  7 active torsions:
  status: ('A' for Active; 'I' for Inactive)
    1  A    between atoms: C_1  and  C_2
    2  A    between atoms: C_1  and  C_27
    3  A    between atoms: C_3  and  C_8
    4  A    between atoms: C_6  and  C_11
    5  A    between atoms: C_6  and  C_28
    6  A    between atoms: C_8  and  C_11
    7  A    between atoms: C_16  and  C_19
                            x       y       z     vdW  Elec       q    Type
                         _______ _______ _______ _____ _____    ______ ____

>  <TORSDO>
F 7

$$$$
=
 OpenBabel11052418133D

 28 30  0  0  1  0  0  0  0  0999 V2000
  188.7980  174.1950  140.8320 C   0  0  0  0  0  2  0  0  0  0  0  0
  191.1570  175.1220  146.4820 C   0  0  0  0  0  1  0  0  0  0  0  0
  190.4100  172.7120  142.0180 C   0  0  2  0  0  3  0  0  0  0  0  0
  189.3980  174.6610  143.2400 C   0  0  0  0  0  0  0  0  0  0  0  0
  189.6360  172.0800  139.7040 C   0  0  2  0  0  3  0  0  0  0  0  0
  189.1720  173.6000  142.1890 C   0  0  1  0  0  3  0  0  0  0  0  0
  191.0720  173.2910  144.2590 O   0  0  0  0  0  0  0  0  0  0  0  0
  190.0990  171.5580  141.0690 C   0  0  0  0  0  2  0  0  0  0  0  0
  189.9470  176.8180  145.0640 C   0  0  2  0  0  3  0  0  0  0  0  0
  188.5010  175.8320  143.3150 C   0  0  0  0  0  3  0  0  0  0  0  0
  190.8340  172.1910  143.3810 C   0  0  0  0  0  2  0  0  0  0  0  0
  190.4490  175.4520  145.2550 N   0  0  0  0  0  0  0  0  0  0  0  0
  190.7910  172.6970  138.9320 C   0  0  0  0  0  1  0  0  0  0  0  0
  188.4740  173.0710  139.8450 C   0  0  0  0  0  2  0  0  0  0  0  0
  190.2930  174.4590  144.2270 C   0  0  0  0  0  0  0  0  0  0  0  0
  188.7000  176.8080  144.2050 C   0  0  0  0  0  0  0  0  0  0  0  0
  191.0290  177.6960  144.4230 C   0  0  0  0  0  3  0  0  0  0  0  0
  190.7840  177.8490  143.0580 O   0  0  0  0  0  1  0  0  0  0  0  0
  192.2880  177.1190  144.5950 O   0  0  0  0  0  1  0  0  0  0  0  0
  187.7340  177.9460  144.2500 C   0  0  0  0  0  2  0  0  0  0  0  0
  186.7550  177.8820  143.1130 C   0  0  0  0  0  3  0  0  0  0  0  0
  185.6330  178.6110  143.0500 C   0  0  0  0  0  3  0  0  0  0  0  0
  185.2090  179.5900  144.1050 C   0  0  0  0  0  2  0  0  0  0  0  0
  184.1140  179.0170  145.0030 C   0  0  0  0  0  2  0  0  0  0  0  0
  184.6160  178.6310  146.3940 C   0  0  2  0  0  3  0  0  0  0  0  0
  185.6950  179.4140  146.7640 F   0  0  0  0  0  0  0  0  0  0  0  0
  185.9550  176.8260  147.1140 O   0  0  0  0  0  0  0  0  0  0  0  0
  184.9740  177.1830  146.4810 C   0  0  0  0  0  3  0  0  0  0  0  0
  3  8  1  6  0  0  0
  3  6  1  0  0  0  0
  3 11  1  0  0  0  0
  4 10  1  0  0  0  0
  4 15  2  0  0  0  0
  5 13  1  1  0  0  0
  5 14  1  0  0  0  0
  5  8  1  0  0  0  0
  6  1  1  6  0  0  0
  6  4  1  0  0  0  0
  9 17  1  6  0  0  0
  9 12  1  0  0  0  0
 10 16  2  0  0  0  0
 11  7  1  0  0  0  0
 12  2  1  0  0  0  0
 14  1  1  0  0  0  0
 15  7  1  0  0  0  0
 15 12  1  0  0  0  0
 16 20  1  0  0  0  0
 16  9  1  0  0  0  0
 17 19  1  0  0  0  0
 18 17  1  0  0  0  0
 21 20  1  0  0  0  0
 22 21  2  0  0  0  0
 22 23  1  0  0  0  0
 23 24  1  0  0  0  0
 24 25  1  0  0  0  0
 25 28  1  0  0  0  0
 25 26  1  6  0  0  0
 28 27  2  0  0  0  0
M  END
>  <MODEL>
7

>  <REMARK>
 VINA RESULT:      -6.5      3.610      7.803
  Name = 
  7 active torsions:
  status: ('A' for Active; 'I' for Inactive)
    1  A    between atoms: C_1  and  C_2
    2  A    between atoms: C_1  and  C_27
    3  A    between atoms: C_3  and  C_8
    4  A    between atoms: C_6  and  C_11
    5  A    between atoms: C_6  and  C_28
    6  A    between atoms: C_8  and  C_11
    7  A    between atoms: C_16  and  C_19
                            x       y       z     vdW  Elec       q    Type
                         _______ _______ _______ _____ _____    ______ ____

>  <TORSDO>
F 7

$$$$
=
 OpenBabel11052418133D

 28 30  0  0  1  0  0  0  0  0999 V2000
  193.9320  171.2620  144.8420 C   0  0  0  0  0  2  0  0  0  0  0  0
  194.5660  177.3550  145.7450 C   0  0  0  0  0  1  0  0  0  0  0  0
  196.0450  172.4580  145.4010 C   0  0  2  0  0  3  0  0  0  0  0  0
  193.8700  173.7180  145.4260 C   0  0  0  0  0  0  0  0  0  0  0  0
  196.0990  169.9590  145.0720 C   0  0  2  0  0  3  0  0  0  0  0  0
  194.5390  172.3870  145.6800 C   0  0  1  0  0  3  0  0  0  0  0  0
  195.9550  174.8310  145.7920 O   0  0  0  0  0  0  0  0  0  0  0  0
  196.7140  171.1500  145.8150 C   0  0  0  0  0  2  0  0  0  0  0  0
  192.5930  176.1910  144.6960 C   0  0  2  0  0  3  0  0  0  0  0  0
  192.4030  173.7930  145.2760 C   0  0  0  0  0  3  0  0  0  0  0  0
  196.6320  173.6320  146.1660 C   0  0  0  0  0  2  0  0  0  0  0  0
  193.9110  176.1220  145.3370 N   0  0  0  0  0  0  0  0  0  0  0  0
  196.5020  169.9600  143.6060 C   0  0  0  0  0  1  0  0  0  0  0  0
  194.5740  169.9270  145.2260 C   0  0  0  0  0  2  0  0  0  0  0  0
  194.5770  174.8620  145.5190 C   0  0  0  0  0  0  0  0  0  0  0  0
  191.7870  174.9480  145.0090 C   0  0  0  0  0  0  0  0  0  0  0  0
  192.7490  176.3580  143.1790 C   0  0  0  0  0  3  0  0  0  0  0  0
  191.8120  177.2690  142.6910 O   0  0  0  0  0  1  0  0  0  0  0  0
  192.5680  175.1330  142.5360 O   0  0  0  0  0  1  0  0  0  0  0  0
  190.2970  174.9590  144.9050 C   0  0  0  0  0  2  0  0  0  0  0  0
  189.6560  174.3440  146.1160 C   0  0  0  0  0  3  0  0  0  0  0  0
  188.9320  175.0300  147.0100 C   0  0  0  0  0  3  0  0  0  0  0  0
  188.6640  176.5030  146.9160 C   0  0  0  0  0  2  0  0  0  0  0  0
  187.3320  176.7940  146.2290 C   0  0  0  0  0  2  0  0  0  0  0  0
  187.4900  177.4780  144.8700 C   0  0  2  0  0  3  0  0  0  0  0  0
  188.7630  178.0000  144.7280 F   0  0  0  0  0  0  0  0  0  0  0  0
  186.0090  178.7460  143.5410 O   0  0  0  0  0  0  0  0  0  0  0  0
  186.4670  178.5450  144.6550 C   0  0  0  0  0  3  0  0  0  0  0  0
  1 14  1  0  0  0  0
  3  6  1  0  0  0  0
  3  8  1  1  0  0  0
  3 11  1  0  0  0  0
  4 15  2  0  0  0  0
  4  6  1  0  0  0  0
  5 13  1  6  0  0  0
  5 14  1  0  0  0  0
  5  8  1  0  0  0  0
  6  1  1  6  0  0  0
  7 11  1  0  0  0  0
  9 17  1  6  0  0  0
  9 16  1  0  0  0  0
  9 12  1  0  0  0  0
 10  4  1  0  0  0  0
 12 15  1  0  0  0  0
 12  2  1  0  0  0  0
 15  7  1  0  0  0  0
 16 10  2  0  0  0  0
 18 17  1  0  0  0  0
 19 17  1  0  0  0  0
 20 16  1  0  0  0  0
 20 21  1  0  0  0  0
 21 22  2  0  0  0  0
 23 22  1  0  0  0  0
 24 23  1  0  0  0  0
 25 26  1  1  0  0  0
 25 24  1  0  0  0  0
 27 28  2  0  0  0  0
 28 25  1  0  0  0  0
M  END
>  <MODEL>
8

>  <REMARK>
 VINA RESULT:      -6.5      3.658      9.012
  Name = 
  7 active torsions:
  status: ('A' for Active; 'I' for Inactive)
    1  A    between atoms: C_1  and  C_2
    2  A    between atoms: C_1  and  C_27
    3  A    between atoms: C_3  and  C_8
    4  A    between atoms: C_6  and  C_11
    5  A    between atoms: C_6  and  C_28
    6  A    between atoms: C_8  and  C_11
    7  A    between atoms: C_16  and  C_19
                            x       y       z     vdW  Elec       q    Type
                         _______ _______ _______ _____ _____    ______ ____

>  <TORSDO>
F 7

$$$$
=
 OpenBabel11052418133D

 28 30  0  0  1  0  0  0  0  0999 V2000
  192.2240  175.2290  144.2690 C   0  0  0  0  0  2  0  0  0  0  0  0
  186.8080  177.5510  146.1690 C   0  0  0  0  0  1  0  0  0  0  0  0
  191.8190  176.4890  146.3790 C   0  0  2  0  0  3  0  0  0  0  0  0
  189.8670  175.8350  144.9390 C   0  0  0  0  0  0  0  0  0  0  0  0
  194.1490  175.6780  145.8630 C   0  0  2  0  0  3  0  0  0  0  0  0
  191.2430  175.4410  145.4210 C   0  0  1  0  0  3  0  0  0  0  0  0
  189.5720  177.1830  146.8920 O   0  0  0  0  0  0  0  0  0  0  0  0
  193.1360  175.9900  146.9690 C   0  0  0  0  0  2  0  0  0  0  0  0
  187.3590  176.7340  143.8500 C   0  0  2  0  0  3  0  0  0  0  0  0
  189.2810  175.1780  143.7530 C   0  0  0  0  0  3  0  0  0  0  0  0
  190.8050  176.7640  147.4770 C   0  0  0  0  0  2  0  0  0  0  0  0
  187.7600  176.9570  145.2440 N   0  0  0  0  0  0  0  0  0  0  0  0
  194.6660  176.9530  145.2160 C   0  0  0  0  0  1  0  0  0  0  0  0
  193.5630  174.7250  144.8140 C   0  0  0  0  0  2  0  0  0  0  0  0
  189.0910  176.6450  145.6880 C   0  0  0  0  0  0  0  0  0  0  0  0
  188.0850  175.5350  143.2770 C   0  0  0  0  0  0  0  0  0  0  0  0
  187.6470  177.9840  143.0090 C   0  0  0  0  0  3  0  0  0  0  0  0
  186.7240  178.0930  141.9680 O   0  0  0  0  0  1  0  0  0  0  0  0
  188.9320  177.9200  142.4690 O   0  0  0  0  0  1  0  0  0  0  0  0
  187.5360  174.8050  142.0940 C   0  0  0  0  0  2  0  0  0  0  0  0
  188.3980  174.9990  140.8800 C   0  0  0  0  0  3  0  0  0  0  0  0
  189.1280  174.0280  140.3170 C   0  0  0  0  0  3  0  0  0  0  0  0
  189.1790  172.6170  140.8250 C   0  0  0  0  0  2  0  0  0  0  0  0
  190.4370  172.3560  141.6510 C   0  0  0  0  0  2  0  0  0  0  0  0
  190.1640  171.5760  142.9370 C   0  0  2  0  0  3  0  0  0  0  0  0
  188.9300  171.9120  143.4650 F   0  0  0  0  0  0  0  0  0  0  0  0
  192.0280  170.8870  144.2090 O   0  0  0  0  0  0  0  0  0  0  0  0
  191.2360  171.7800  143.9580 C   0  0  0  0  0  3  0  0  0  0  0  0
  1 14  1  0  0  0  0
  3  8  1  1  0  0  0
  3 11  1  0  0  0  0
  4  6  1  0  0  0  0
  4 15  2  0  0  0  0
  5 13  1  6  0  0  0
  5  8  1  0  0  0  0
  6  1  1  6  0  0  0
  6  3  1  0  0  0  0
  7 11  1  0  0  0  0
  9 17  1  6  0  0  0
  9 12  1  0  0  0  0
 10  4  1  0  0  0  0
 12 15  1  0  0  0  0
 12  2  1  0  0  0  0
 14  5  1  0  0  0  0
 15  7  1  0  0  0  0
 16 10  2  0  0  0  0
 16  9  1  0  0  0  0
 18 17  1  0  0  0  0
 19 17  1  0  0  0  0
 20 16  1  0  0  0  0
 21 20  1  0  0  0  0
 22 23  1  0  0  0  0
 22 21  2  0  0  0  0
 23 24  1  0  0  0  0
 24 25  1  0  0  0  0
 25 26  1  1  0  0  0
 25 28  1  0  0  0  0
 28 27  2  0  0  0  0
M  END
>  <MODEL>
9

>  <REMARK>
 VINA RESULT:      -6.4      3.264      6.397
  Name = 
  7 active torsions:
  status: ('A' for Active; 'I' for Inactive)
    1  A    between atoms: C_1  and  C_2
    2  A    between atoms: C_1  and  C_27
    3  A    between atoms: C_3  and  C_8
    4  A    between atoms: C_6  and  C_11
    5  A    between atoms: C_6  and  C_28
    6  A    between atoms: C_8  and  C_11
    7  A    between atoms: C_16  and  C_19
                            x       y       z     vdW  Elec       q    Type
                         _______ _______ _______ _____ _____    ______ ____

>  <TORSDO>
F 7

$$$$
