=
 OpenBabel11052421293D

 32 37  0  0  1  0  0  0  0  0999 V2000
  187.8610  176.6840  142.9220 C   0  0  1  0  0  3  0  0  0  0  0  0
  185.9990  176.7940  138.8370 F   0  0  0  0  0  0  0  0  0  0  0  0
  186.7180  178.3090  144.4400 C   0  0  1  0  0  3  0  0  0  0  0  0
  187.5500  177.8600  145.6540 C   0  0  1  0  0  3  0  0  0  0  0  0
  184.9370  178.7140  146.2310 C   0  0  2  0  0  3  0  0  0  0  0  0
  187.0830  177.0670  139.6060 C   0  0  0  0  0  3  0  0  0  0  0  0
  188.5010  177.9160  141.7250 S   0  0  0  0  0  0  0  0  0  0  0  0
  187.0270  177.7900  140.7330 C   0  0  0  0  0  0  0  0  0  0  0  0
  185.3610  177.4170  142.5740 C   0  0  2  0  0  3  0  0  0  0  0  0
  185.2440  177.2940  146.6830 C   0  0  0  0  0  2  0  0  0  0  0  0
  186.7510  177.0160  146.6640 C   0  0  0  0  0  2  0  0  0  0  0  0
  185.7730  178.3090  141.3880 C   0  0  2  0  0  3  0  0  0  0  0  0
  184.1020  178.2520  143.5970 S   0  0  0  0  0  0  0  0  0  0  0  0
  188.8980  176.4720  144.0150 C   0  0  0  0  0  0  0  0  0  0  0  0
  188.7710  177.0760  145.2240 C   0  0  0  0  0  3  0  0  0  0  0  0
  183.5990  179.0040  146.4210 F   0  0  0  0  0  0  0  0  0  0  0  0
  186.5140  177.1220  143.5290 C   0  0  1  0  0  3  0  0  0  0  0  0
  185.3490  178.9180  144.7660 C   0  0  2  0  0  3  0  0  0  0  0  0
  189.8220  173.3600  144.5240 C   0  0  0  0  0  2  0  0  0  0  0  0
  190.1380  175.6300  143.7240 C   0  0  1  0  0  0  0  0  0  0  0  0
  190.9330  176.2430  142.7510 O   0  0  0  0  0  1  0  0  0  0  0  0
  190.8450  174.0110  145.4310 C   0  0  0  0  0  2  0  0  0  0  0  0
  190.9610  175.4660  144.9960 C   0  0  0  0  0  2  0  0  0  0  0  0
  189.8250  174.2030  143.2690 C   0  0  2  0  0  3  0  0  0  0  0  0
  188.5420  174.0510  142.4520 C   0  0  0  0  0  2  0  0  0  0  0  0
  190.0940  173.7650  140.4660 C   0  0  0  0  0  3  0  0  0  0  0  0
  187.9080  172.8980  140.3480 N   0  0  0  0  0  0  0  0  0  0  0  0
  190.1920  173.2500  139.1760 C   0  0  0  0  0  3  0  0  0  0  0  0
  188.8410  173.5530  141.0800 C   0  0  0  0  0  0  0  0  0  0  0  0
  188.6850  172.5780  138.9200 S   0  0  0  0  0  0  0  0  0  0  0  0
  183.4940  178.0200  140.4110 C   0  0  0  0  0  2  0  0  0  0  0  0
  184.6460  178.6880  140.4570 C   0  0  0  0  0  3  0  0  0  0  0  0
  1  7  1  6  0  0  0
  1 17  1  0  0  0  0
  1 14  1  0  0  0  0
  2  6  1  0  0  0  0
  3 18  1  0  0  0  0
  3  4  1  0  0  0  0
  4 11  1  0  0  0  0
  5 16  1  0  0  0  0
  5 10  1  0  0  0  0
  6  8  2  0  0  0  0
  8 12  1  0  0  0  0
  8  7  1  0  0  0  0
  9 17  1  0  0  0  0
  9 13  1  0  0  0  0
 11 10  1  0  0  0  0
 12  9  1  0  0  0  0
 13 18  1  0  0  0  0
 14 15  2  0  0  0  0
 15  4  1  0  0  0  0
 17  3  1  0  0  0  0
 18  5  1  0  0  0  0
 19 22  1  0  0  0  0
 20 14  1  0  0  0  0
 20 23  1  0  0  0  0
 21 20  1  0  0  0  0
 23 22  1  0  0  0  0
 24 20  1  0  0  0  0
 24 19  1  0  0  0  0
 25 24  1  0  0  0  0
 26 29  1  0  0  0  0
 27 29  2  0  0  0  0
 28 26  2  0  0  0  0
 29 25  1  0  0  0  0
 30 28  1  0  0  0  0
 30 27  1  0  0  0  0
 31 32  2  0  0  0  0
 32 12  1  0  0  0  0
M  END
>  <MODEL>
1

>  <REMARK>
 VINA RESULT:      -8.6      0.000      0.000
  Name = 
  4 active torsions:
  status: ('A' for Active; 'I' for Inactive)
    1  A    between atoms: C_8  and  C_28
    2  A    between atoms: C_19  and  C_24
    3  A    between atoms: C_23  and  C_24
    4  A    between atoms: C_25  and  C_26
                            x       y       z     vdW  Elec       q    Type
                         _______ _______ _______ _____ _____    ______ ____

>  <TORSDO>
F 4

$$$$
=
 OpenBabel11052421293D

 32 37  0  0  1  0  0  0  0  0999 V2000
  187.5970  176.0990  143.1100 C   0  0  1  0  0  3  0  0  0  0  0  0
  185.9730  176.6070  138.9540 F   0  0  0  0  0  0  0  0  0  0  0  0
  186.7630  177.9270  144.5970 C   0  0  1  0  0  3  0  0  0  0  0  0
  187.4290  177.3100  145.8390 C   0  0  1  0  0  3  0  0  0  0  0  0
  185.0350  178.7010  146.3170 C   0  0  2  0  0  3  0  0  0  0  0  0
  187.0580  176.6420  139.7690 C   0  0  0  0  0  3  0  0  0  0  0  0
  188.5340  177.1670  141.9530 S   0  0  0  0  0  0  0  0  0  0  0  0
  187.1100  177.3590  140.9000 C   0  0  0  0  0  0  0  0  0  0  0  0
  185.3270  177.3470  142.6680 C   0  0  2  0  0  3  0  0  0  0  0  0
  185.0140  177.2470  146.7680 C   0  0  0  0  0  2  0  0  0  0  0  0
  186.4270  176.6550  146.8070 C   0  0  0  0  0  2  0  0  0  0  0  0
  185.9680  178.1330  141.5090 C   0  0  2  0  0  3  0  0  0  0  0  0
  184.2320  178.4310  143.6470 S   0  0  0  0  0  0  0  0  0  0  0  0
  188.5180  175.6690  144.2420 C   0  0  0  0  0  0  0  0  0  0  0  0
  188.4710  176.2850  145.4510 C   0  0  0  0  0  3  0  0  0  0  0  0
  183.7820  179.2690  146.4560 F   0  0  0  0  0  0  0  0  0  0  0  0
  186.3490  176.8120  143.6660 C   0  0  1  0  0  3  0  0  0  0  0  0
  185.5430  178.8140  144.8730 C   0  0  2  0  0  3  0  0  0  0  0  0
  190.9150  175.1420  142.0570 C   0  0  0  0  0  2  0  0  0  0  0  0
  189.5620  174.5820  143.9930 C   0  0  1  0  0  0  0  0  0  0  0  0
  189.7300  173.7910  145.1320 O   0  0  0  0  0  1  0  0  0  0  0  0
  190.0390  173.9710  141.6620 C   0  0  0  0  0  2  0  0  0  0  0  0
  189.1150  173.6920  142.8400 C   0  0  0  0  0  2  0  0  0  0  0  0
  190.9290  175.1230  143.5690 C   0  0  2  0  0  3  0  0  0  0  0  0
  191.3060  176.4750  144.1730 C   0  0  0  0  0  2  0  0  0  0  0  0
  192.8420  176.4020  146.1910 C   0  0  0  0  0  3  0  0  0  0  0  0
  193.7830  176.4170  144.0340 N   0  0  0  0  0  0  0  0  0  0  0  0
  194.1750  176.3720  146.5940 C   0  0  0  0  0  3  0  0  0  0  0  0
  192.6610  176.4210  144.7920 C   0  0  0  0  0  0  0  0  0  0  0  0
  195.0080  176.3780  145.1480 S   0  0  0  0  0  0  0  0  0  0  0  0
  183.7430  178.2920  140.3890 C   0  0  0  0  0  2  0  0  0  0  0  0
  184.9880  178.7440  140.5370 C   0  0  0  0  0  3  0  0  0  0  0  0
  1  7  1  6  0  0  0
  1 17  1  0  0  0  0
  1 14  1  0  0  0  0
  2  6  1  0  0  0  0
  3 18  1  0  0  0  0
  3  4  1  0  0  0  0
  4 11  1  0  0  0  0
  5 16  1  0  0  0  0
  5 10  1  0  0  0  0
  6  8  2  0  0  0  0
  8 12  1  0  0  0  0
  8  7  1  0  0  0  0
  9 13  1  0  0  0  0
  9 17  1  0  0  0  0
 10 11  1  0  0  0  0
 12  9  1  0  0  0  0
 13 18  1  0  0  0  0
 14 15  2  0  0  0  0
 15  4  1  0  0  0  0
 17  3  1  0  0  0  0
 18  5  1  0  0  0  0
 19 24  1  0  0  0  0
 20 14  1  0  0  0  0
 20 21  1  0  0  0  0
 22 19  1  0  0  0  0
 22 23  1  0  0  0  0
 23 20  1  0  0  0  0
 24 20  1  0  0  0  0
 24 25  1  0  0  0  0
 25 29  1  0  0  0  0
 26 28  2  0  0  0  0
 27 29  2  0  0  0  0
 27 30  1  0  0  0  0
 29 26  1  0  0  0  0
 30 28  1  0  0  0  0
 31 32  2  0  0  0  0
 32 12  1  0  0  0  0
M  END
>  <MODEL>
2

>  <REMARK>
 VINA RESULT:      -8.5      2.286      3.503
  Name = 
  4 active torsions:
  status: ('A' for Active; 'I' for Inactive)
    1  A    between atoms: C_8  and  C_28
    2  A    between atoms: C_19  and  C_24
    3  A    between atoms: C_23  and  C_24
    4  A    between atoms: C_25  and  C_26
                            x       y       z     vdW  Elec       q    Type
                         _______ _______ _______ _____ _____    ______ ____

>  <TORSDO>
F 4

$$$$
=
 OpenBabel11052421293D

 32 37  0  0  1  0  0  0  0  0999 V2000
  191.8720  174.6250  143.4830 C   0  0  1  0  0  3  0  0  0  0  0  0
  196.2750  174.5580  142.6020 F   0  0  0  0  0  0  0  0  0  0  0  0
  191.4830  174.8190  145.9450 C   0  0  1  0  0  3  0  0  0  0  0  0
  189.9590  174.9210  145.7630 C   0  0  1  0  0  3  0  0  0  0  0  0
  191.0100  176.3360  147.9490 C   0  0  2  0  0  3  0  0  0  0  0  0
  195.1030  173.8740  142.6220 C   0  0  0  0  0  3  0  0  0  0  0  0
  192.7260  173.0040  143.5230 S   0  0  0  0  0  0  0  0  0  0  0  0
  194.3140  173.7900  143.7010 C   0  0  0  0  0  0  0  0  0  0  0  0
  193.6120  175.7540  145.0990 C   0  0  2  0  0  3  0  0  0  0  0  0
  190.2390  177.1980  146.9590 C   0  0  0  0  0  2  0  0  0  0  0  0
  189.4080  176.3390  146.0010 C   0  0  0  0  0  2  0  0  0  0  0  0
  194.5220  174.5160  145.0060 C   0  0  2  0  0  3  0  0  0  0  0  0
  193.5680  176.3910  146.8080 S   0  0  0  0  0  0  0  0  0  0  0  0
  190.3780  174.3930  143.3180 C   0  0  0  0  0  0  0  0  0  0  0  0
  189.5390  174.4620  144.3830 C   0  0  0  0  0  3  0  0  0  0  0  0
  191.6120  177.1250  148.9130 F   0  0  0  0  0  0  0  0  0  0  0  0
  192.1560  175.4540  144.7510 C   0  0  1  0  0  3  0  0  0  0  0  0
  192.0400  175.4620  147.2210 C   0  0  2  0  0  3  0  0  0  0  0  0
  187.4010  174.1760  141.9430 C   0  0  0  0  0  2  0  0  0  0  0  0
  189.8220  174.0030  141.9500 C   0  0  1  0  0  0  0  0  0  0  0  0
  190.8280  174.0430  140.9810 O   0  0  0  0  0  1  0  0  0  0  0  0
  187.7400  172.7000  141.8930 C   0  0  0  0  0  2  0  0  0  0  0  0
  189.2550  172.5900  142.0080 C   0  0  0  0  0  2  0  0  0  0  0  0
  188.6580  174.8780  141.4810 C   0  0  2  0  0  3  0  0  0  0  0  0
  188.7210  176.3360  141.9360 C   0  0  0  0  0  2  0  0  0  0  0  0
  186.6110  177.5540  142.6440 C   0  0  0  0  0  3  0  0  0  0  0  0
  187.0190  177.2050  140.3520 N   0  0  0  0  0  0  0  0  0  0  0  0
  185.4510  178.1670  142.1760 C   0  0  0  0  0  3  0  0  0  0  0  0
  187.4460  177.0440  141.6270 C   0  0  0  0  0  0  0  0  0  0  0  0
  185.5790  178.0070  140.5190 S   0  0  0  0  0  0  0  0  0  0  0  0
  196.7030  173.8120  145.9970 C   0  0  0  0  0  2  0  0  0  0  0  0
  195.9570  174.7500  145.4130 C   0  0  0  0  0  3  0  0  0  0  0  0
  1 14  1  1  0  0  0
  1  7  1  0  0  0  0
  1 17  1  0  0  0  0
  2  6  1  0  0  0  0
  3 18  1  0  0  0  0
  4  3  1  0  0  0  0
  4 11  1  0  0  0  0
  5 16  1  0  0  0  0
  6  8  2  0  0  0  0
  7  8  1  0  0  0  0
  8 12  1  0  0  0  0
  9 13  1  0  0  0  0
 10  5  1  0  0  0  0
 11 10  1  0  0  0  0
 12  9  1  0  0  0  0
 12 32  1  0  0  0  0
 13 18  1  0  0  0  0
 14 15  2  0  0  0  0
 15  4  1  0  0  0  0
 17  9  1  0  0  0  0
 17  3  1  0  0  0  0
 18  5  1  0  0  0  0
 20 23  1  0  0  0  0
 20 14  1  0  0  0  0
 21 20  1  0  0  0  0
 22 19  1  0  0  0  0
 22 23  1  0  0  0  0
 24 25  1  0  0  0  0
 24 19  1  0  0  0  0
 24 20  1  0  0  0  0
 27 30  1  0  0  0  0
 27 29  2  0  0  0  0
 28 26  2  0  0  0  0
 29 25  1  0  0  0  0
 29 26  1  0  0  0  0
 30 28  1  0  0  0  0
 32 31  2  0  0  0  0
M  END
>  <MODEL>
3

>  <REMARK>
 VINA RESULT:      -8.0      3.937      7.049
  Name = 
  4 active torsions:
  status: ('A' for Active; 'I' for Inactive)
    1  A    between atoms: C_8  and  C_28
    2  A    between atoms: C_19  and  C_24
    3  A    between atoms: C_23  and  C_24
    4  A    between atoms: C_25  and  C_26
                            x       y       z     vdW  Elec       q    Type
                         _______ _______ _______ _____ _____    ______ ____

>  <TORSDO>
F 4

$$$$
=
 OpenBabel11052421293D

 32 37  0  0  1  0  0  0  0  0999 V2000
  191.2130  175.7100  143.9980 C   0  0  1  0  0  3  0  0  0  0  0  0
  194.6640  175.8650  146.8680 F   0  0  0  0  0  0  0  0  0  0  0  0
  191.3500  173.6510  142.5880 C   0  0  1  0  0  3  0  0  0  0  0  0
  190.0030  173.9490  141.9050 C   0  0  1  0  0  3  0  0  0  0  0  0
  190.6200  171.2270  142.2190 C   0  0  2  0  0  3  0  0  0  0  0  0
  194.0650  176.3960  145.7720 C   0  0  0  0  0  3  0  0  0  0  0  0
  192.7730  176.4780  143.4170 S   0  0  0  0  0  0  0  0  0  0  0  0
  193.7050  175.6720  144.7030 C   0  0  0  0  0  0  0  0  0  0  0  0
  192.4160  173.5210  144.8170 C   0  0  2  0  0  3  0  0  0  0  0  0
  189.3120  171.6500  142.8710 C   0  0  0  0  0  2  0  0  0  0  0  0
  188.8620  173.0290  142.3760 C   0  0  0  0  0  2  0  0  0  0  0  0
  193.7910  174.1720  144.5820 C   0  0  2  0  0  3  0  0  0  0  0  0
  192.4330  171.7760  144.2830 S   0  0  0  0  0  0  0  0  0  0  0  0
  190.0700  176.1790  143.1100 C   0  0  0  0  0  0  0  0  0  0  0  0
  189.5870  175.3880  142.1190 C   0  0  0  0  0  3  0  0  0  0  0  0
  190.9190  169.9150  142.5390 F   0  0  0  0  0  0  0  0  0  0  0  0
  191.3000  174.1720  144.0050 C   0  0  1  0  0  3  0  0  0  0  0  0
  191.7590  172.1730  142.6230 C   0  0  2  0  0  3  0  0  0  0  0  0
  187.1290  177.6140  142.8080 C   0  0  0  0  0  2  0  0  0  0  0  0
  189.5090  177.5890  143.2860 C   0  0  1  0  0  0  0  0  0  0  0  0
  190.3830  178.3760  144.0400 O   0  0  0  0  0  1  0  0  0  0  0  0
  187.8160  178.3520  141.6780 C   0  0  0  0  0  2  0  0  0  0  0  0
  189.3150  178.2410  141.9220 C   0  0  0  0  0  2  0  0  0  0  0  0
  188.1280  177.6280  143.9440 C   0  0  2  0  0  3  0  0  0  0  0  0
  187.8690  176.5270  144.9710 C   0  0  0  0  0  2  0  0  0  0  0  0
  185.5060  176.7760  145.8620 C   0  0  0  0  0  3  0  0  0  0  0  0
  187.3020  177.6400  147.1150 N   0  0  0  0  0  0  0  0  0  0  0  0
  184.7440  177.2840  146.9110 C   0  0  0  0  0  3  0  0  0  0  0  0
  186.8960  176.9820  146.0040 C   0  0  0  0  0  0  0  0  0  0  0  0
  185.8910  177.9530  147.9240 S   0  0  0  0  0  0  0  0  0  0  0  0
  196.1580  173.4040  144.7820 C   0  0  0  0  0  2  0  0  0  0  0  0
  194.9380  173.5130  145.3090 C   0  0  0  0  0  3  0  0  0  0  0  0
  1 14  1  6  0  0  0
  1 17  1  0  0  0  0
  3 18  1  0  0  0  0
  3 17  1  0  0  0  0
  4 15  1  0  0  0  0
  4 11  1  0  0  0  0
  4  3  1  0  0  0  0
  5 16  1  0  0  0  0
  5 18  1  0  0  0  0
  5 10  1  0  0  0  0
  6  2  1  0  0  0  0
  7  1  1  0  0  0  0
  7  8  1  0  0  0  0
  8  6  2  0  0  0  0
 11 10  1  0  0  0  0
 12  8  1  0  0  0  0
 12  9  1  0  0  0  0
 12 32  1  0  0  0  0
 13  9  1  0  0  0  0
 14 20  1  0  0  0  0
 15 14  2  0  0  0  0
 17  9  1  0  0  0  0
 18 13  1  0  0  0  0
 19 24  1  0  0  0  0
 20 24  1  0  0  0  0
 20 21  1  0  0  0  0
 22 23  1  0  0  0  0
 22 19  1  0  0  0  0
 23 20  1  0  0  0  0
 24 25  1  0  0  0  0
 25 29  1  0  0  0  0
 26 29  1  0  0  0  0
 26 28  2  0  0  0  0
 27 30  1  0  0  0  0
 28 30  1  0  0  0  0
 29 27  2  0  0  0  0
 31 32  2  0  0  0  0
M  END
>  <MODEL>
4

>  <REMARK>
 VINA RESULT:      -7.9      3.998      8.019
  Name = 
  4 active torsions:
  status: ('A' for Active; 'I' for Inactive)
    1  A    between atoms: C_8  and  C_28
    2  A    between atoms: C_19  and  C_24
    3  A    between atoms: C_23  and  C_24
    4  A    between atoms: C_25  and  C_26
                            x       y       z     vdW  Elec       q    Type
                         _______ _______ _______ _____ _____    ______ ____

>  <TORSDO>
F 4

$$$$
=
 OpenBabel11052421293D

 32 37  0  0  1  0  0  0  0  0999 V2000
  188.5320  177.0630  144.5480 C   0  0  1  0  0  3  0  0  0  0  0  0
  185.6010  180.4090  143.9260 F   0  0  0  0  0  0  0  0  0  0  0  0
  188.0460  175.1810  142.9770 C   0  0  1  0  0  3  0  0  0  0  0  0
  189.2810  174.3890  143.4400 C   0  0  1  0  0  3  0  0  0  0  0  0
  188.5590  174.0340  140.7480 C   0  0  2  0  0  3  0  0  0  0  0  0
  186.0480  179.4180  144.7380 C   0  0  0  0  0  3  0  0  0  0  0  0
  186.9490  176.9940  145.4700 S   0  0  0  0  0  0  0  0  0  0  0  0
  186.1870  178.1450  144.3440 C   0  0  0  0  0  0  0  0  0  0  0  0
  187.3460  177.4340  142.2320 C   0  0  2  0  0  3  0  0  0  0  0  0
  189.9780  174.5440  140.9520 C   0  0  0  0  0  2  0  0  0  0  0  0
  190.4250  174.3820  142.4090 C   0  0  0  0  0  2  0  0  0  0  0  0
  185.9920  177.6280  142.9410 C   0  0  2  0  0  3  0  0  0  0  0  0
  187.1370  176.4470  140.7120 S   0  0  0  0  0  0  0  0  0  0  0  0
  189.5440  176.1590  145.2360 C   0  0  0  0  0  0  0  0  0  0  0  0
  189.8130  174.9190  144.7530 C   0  0  0  0  0  3  0  0  0  0  0  0
  188.2360  174.0230  139.4040 F   0  0  0  0  0  0  0  0  0  0  0  0
  188.3540  176.6570  143.0730 C   0  0  1  0  0  3  0  0  0  0  0  0
  187.5590  174.8740  141.5560 C   0  0  2  0  0  3  0  0  0  0  0  0
  192.2850  175.4120  146.8880 C   0  0  0  0  0  2  0  0  0  0  0  0
  190.2100  176.6210  146.5300 C   0  0  1  0  0  0  0  0  0  0  0  0
  189.6900  177.8510  146.9400 O   0  0  0  0  0  1  0  0  0  0  0  0
  191.2980  174.9170  147.9260 C   0  0  0  0  0  2  0  0  0  0  0  0
  189.9670  175.5950  147.6300 C   0  0  0  0  0  2  0  0  0  0  0  0
  191.7330  176.7440  146.4340 C   0  0  2  0  0  3  0  0  0  0  0  0
  192.2620  177.1660  145.0630 C   0  0  0  0  0  2  0  0  0  0  0  0
  193.4860  175.2720  143.9000 C   0  0  0  0  0  3  0  0  0  0  0  0
  194.7110  176.7970  145.2090 N   0  0  0  0  0  0  0  0  0  0  0  0
  194.7360  174.6900  143.7020 C   0  0  0  0  0  3  0  0  0  0  0  0
  193.5060  176.4200  144.7210 C   0  0  0  0  0  0  0  0  0  0  0  0
  195.7560  175.6730  144.5860 S   0  0  0  0  0  0  0  0  0  0  0  0
  183.6350  178.2300  142.3800 C   0  0  0  0  0  2  0  0  0  0  0  0
  184.9380  178.3280  142.1170 C   0  0  0  0  0  3  0  0  0  0  0  0
  1 14  1  1  0  0  0
  1  7  1  0  0  0  0
  2  6  1  0  0  0  0
  3 17  1  0  0  0  0
  3  4  1  0  0  0  0
  4 15  1  0  0  0  0
  5 10  1  0  0  0  0
  5 18  1  0  0  0  0
  8  6  2  0  0  0  0
  8  7  1  0  0  0  0
  9 12  1  0  0  0  0
  9 17  1  0  0  0  0
 10 11  1  0  0  0  0
 11  4  1  0  0  0  0
 12  8  1  0  0  0  0
 13 18  1  0  0  0  0
 13  9  1  0  0  0  0
 14 20  1  0  0  0  0
 15 14  2  0  0  0  0
 16  5  1  0  0  0  0
 17  1  1  0  0  0  0
 18  3  1  0  0  0  0
 19 22  1  0  0  0  0
 20 21  1  0  0  0  0
 20 23  1  0  0  0  0
 23 22  1  0  0  0  0
 24 20  1  0  0  0  0
 24 19  1  0  0  0  0
 25 24  1  0  0  0  0
 26 29  1  0  0  0  0
 28 26  2  0  0  0  0
 28 30  1  0  0  0  0
 29 25  1  0  0  0  0
 29 27  2  0  0  0  0
 30 27  1  0  0  0  0
 32 31  2  0  0  0  0
 32 12  1  0  0  0  0
M  END
>  <MODEL>
5

>  <REMARK>
 VINA RESULT:      -7.8      3.061      5.247
  Name = 
  4 active torsions:
  status: ('A' for Active; 'I' for Inactive)
    1  A    between atoms: C_8  and  C_28
    2  A    between atoms: C_19  and  C_24
    3  A    between atoms: C_23  and  C_24
    4  A    between atoms: C_25  and  C_26
                            x       y       z     vdW  Elec       q    Type
                         _______ _______ _______ _____ _____    ______ ____

>  <TORSDO>
F 4

$$$$
=
 OpenBabel11052421293D

 32 37  0  0  1  0  0  0  0  0999 V2000
  188.4630  177.1230  145.0880 C   0  0  1  0  0  3  0  0  0  0  0  0
  186.6450  179.5030  148.4330 F   0  0  0  0  0  0  0  0  0  0  0  0
  186.7590  176.6770  143.3140 C   0  0  1  0  0  3  0  0  0  0  0  0
  187.7940  175.9990  142.3980 C   0  0  1  0  0  3  0  0  0  0  0  0
  185.7280  177.3710  141.0780 C   0  0  2  0  0  3  0  0  0  0  0  0
  187.1620  178.3170  148.0250 C   0  0  0  0  0  3  0  0  0  0  0  0
  187.6260  176.2020  146.4330 S   0  0  0  0  0  0  0  0  0  0  0  0
  186.7340  177.6580  146.9390 C   0  0  0  0  0  0  0  0  0  0  0  0
  186.4060  178.7080  144.6820 C   0  0  2  0  0  3  0  0  0  0  0  0
  187.1270  177.8560  140.7230 C   0  0  0  0  0  2  0  0  0  0  0  0
  188.1960  176.8610  141.1880 C   0  0  0  0  0  2  0  0  0  0  0  0
  185.7170  178.1590  145.9460 C   0  0  2  0  0  3  0  0  0  0  0  0
  185.1920  178.9360  143.3390 S   0  0  0  0  0  0  0  0  0  0  0  0
  189.4010  176.1780  144.3510 C   0  0  0  0  0  0  0  0  0  0  0  0
  189.0420  175.6240  143.1650 C   0  0  0  0  0  3  0  0  0  0  0  0
  184.7720  178.1860  140.5010 F   0  0  0  0  0  0  0  0  0  0  0  0
  187.4530  177.7560  144.1110 C   0  0  1  0  0  3  0  0  0  0  0  0
  185.5510  177.2950  142.6010 C   0  0  2  0  0  3  0  0  0  0  0  0
  190.3690  174.9160  147.2260 C   0  0  0  0  0  2  0  0  0  0  0  0
  190.7320  175.7870  144.9900 C   0  0  1  0  0  0  0  0  0  0  0  0
  191.7250  175.6530  144.0160 O   0  0  0  0  0  1  0  0  0  0  0  0
  191.0350  176.2680  147.3800 C   0  0  0  0  0  2  0  0  0  0  0  0
  191.1620  176.8600  145.9830 C   0  0  0  0  0  2  0  0  0  0  0  0
  190.6720  174.4940  145.8060 C   0  0  2  0  0  3  0  0  0  0  0  0
  189.6930  173.4430  145.2810 C   0  0  0  0  0  2  0  0  0  0  0  0
  189.6680  171.9580  143.2240 C   0  0  0  0  0  3  0  0  0  0  0  0
  191.6670  172.1940  144.4440 N   0  0  0  0  0  0  0  0  0  0  0  0
  190.4430  171.1180  142.4300 C   0  0  0  0  0  3  0  0  0  0  0  0
  190.3630  172.5330  144.3100 C   0  0  0  0  0  0  0  0  0  0  0  0
  191.9380  171.1690  143.1710 S   0  0  0  0  0  0  0  0  0  0  0  0
  183.3390  178.6670  146.5130 C   0  0  0  0  0  2  0  0  0  0  0  0
  184.6210  179.0350  146.5020 C   0  0  0  0  0  3  0  0  0  0  0  0
  1 14  1  6  0  0  0
  1  7  1  0  0  0  0
  3 17  1  0  0  0  0
  4 15  1  0  0  0  0
  4  3  1  0  0  0  0
  5 18  1  0  0  0  0
  6  2  1  0  0  0  0
  7  8  1  0  0  0  0
  8  6  2  0  0  0  0
  9 12  1  0  0  0  0
 10  5  1  0  0  0  0
 10 11  1  0  0  0  0
 11  4  1  0  0  0  0
 12 32  1  0  0  0  0
 12  8  1  0  0  0  0
 13  9  1  0  0  0  0
 14 20  1  0  0  0  0
 15 14  2  0  0  0  0
 16  5  1  0  0  0  0
 17  9  1  0  0  0  0
 17  1  1  0  0  0  0
 18  3  1  0  0  0  0
 18 13  1  0  0  0  0
 19 22  1  0  0  0  0
 20 24  1  0  0  0  0
 20 23  1  0  0  0  0
 21 20  1  0  0  0  0
 23 22  1  0  0  0  0
 24 19  1  0  0  0  0
 25 24  1  0  0  0  0
 26 29  1  0  0  0  0
 28 30  1  0  0  0  0
 28 26  2  0  0  0  0
 29 27  2  0  0  0  0
 29 25  1  0  0  0  0
 30 27  1  0  0  0  0
 32 31  2  0  0  0  0
M  END
>  <MODEL>
6

>  <REMARK>
 VINA RESULT:      -7.8      2.251      4.552
  Name = 
  4 active torsions:
  status: ('A' for Active; 'I' for Inactive)
    1  A    between atoms: C_8  and  C_28
    2  A    between atoms: C_19  and  C_24
    3  A    between atoms: C_23  and  C_24
    4  A    between atoms: C_25  and  C_26
                            x       y       z     vdW  Elec       q    Type
                         _______ _______ _______ _____ _____    ______ ____

>  <TORSDO>
F 4

$$$$
=
 OpenBabel11052421293D

 32 37  0  0  1  0  0  0  0  0999 V2000
  189.7670  175.4010  144.1630 C   0  0  1  0  0  3  0  0  0  0  0  0
  190.4360  177.5070  148.0730 F   0  0  0  0  0  0  0  0  0  0  0  0
  187.4360  175.7960  143.3530 C   0  0  1  0  0  3  0  0  0  0  0  0
  187.6960  175.0450  142.0350 C   0  0  1  0  0  3  0  0  0  0  0  0
  185.8600  177.1650  141.8740 C   0  0  2  0  0  3  0  0  0  0  0  0
  190.3030  176.3250  147.4200 C   0  0  0  0  0  3  0  0  0  0  0  0
  189.3170  174.5100  145.7000 S   0  0  0  0  0  0  0  0  0  0  0  0
  189.2650  176.0320  146.6250 C   0  0  0  0  0  0  0  0  0  0  0  0
  188.3930  177.5430  144.8190 C   0  0  2  0  0  3  0  0  0  0  0  0
  187.0530  177.2990  140.9380 C   0  0  0  0  0  2  0  0  0  0  0  0
  187.8160  175.9760  140.8150 C   0  0  0  0  0  2  0  0  0  0  0  0
  188.1590  176.9770  146.2320 C   0  0  2  0  0  3  0  0  0  0  0  0
  186.8820  178.3540  144.1960 S   0  0  0  0  0  0  0  0  0  0  0  0
  189.9320  174.3910  143.0370 C   0  0  0  0  0  0  0  0  0  0  0  0
  188.9450  174.1970  142.1250 C   0  0  0  0  0  3  0  0  0  0  0  0
  185.0850  178.3100  141.8370 F   0  0  0  0  0  0  0  0  0  0  0  0
  188.7170  176.4650  143.7890 C   0  0  1  0  0  3  0  0  0  0  0  0
  186.3240  176.8510  143.3030 C   0  0  2  0  0  3  0  0  0  0  0  0
  192.2600  173.7550  140.8070 C   0  0  0  0  0  2  0  0  0  0  0  0
  191.1920  173.5300  142.9750 C   0  0  1  0  0  0  0  0  0  0  0  0
  191.6090  173.1750  144.2600 O   0  0  0  0  0  1  0  0  0  0  0  0
  191.6720  172.3610  140.8680 C   0  0  0  0  0  2  0  0  0  0  0  0
  190.9090  172.2590  142.1830 C   0  0  0  0  0  2  0  0  0  0  0  0
  192.3630  174.1970  142.2490 C   0  0  2  0  0  3  0  0  0  0  0  0
  192.4350  175.7170  142.3980 C   0  0  0  0  0  2  0  0  0  0  0  0
  194.8440  176.0420  143.1250 C   0  0  0  0  0  3  0  0  0  0  0  0
  193.1120  176.5060  144.6500 N   0  0  0  0  0  0  0  0  0  0  0  0
  195.6600  176.4200  144.1880 C   0  0  0  0  0  3  0  0  0  0  0  0
  193.4620  176.1030  143.4060 C   0  0  0  0  0  0  0  0  0  0  0  0
  194.5650  176.7940  145.3920 S   0  0  0  0  0  0  0  0  0  0  0  0
  186.5360  178.0600  147.7900 C   0  0  0  0  0  2  0  0  0  0  0  0
  187.7620  178.0000  147.2690 C   0  0  0  0  0  3  0  0  0  0  0  0
  1 14  1  6  0  0  0
  1  7  1  0  0  0  0
  3 17  1  0  0  0  0
  4 15  1  0  0  0  0
  4  3  1  0  0  0  0
  5 18  1  0  0  0  0
  6  2  1  0  0  0  0
  7  8  1  0  0  0  0
  8  6  2  0  0  0  0
  9 12  1  0  0  0  0
 10  5  1  0  0  0  0
 11 10  1  0  0  0  0
 11  4  1  0  0  0  0
 12  8  1  0  0  0  0
 12 32  1  0  0  0  0
 13  9  1  0  0  0  0
 15 14  2  0  0  0  0
 16  5  1  0  0  0  0
 17  1  1  0  0  0  0
 17  9  1  0  0  0  0
 18  3  1  0  0  0  0
 18 13  1  0  0  0  0
 19 22  1  0  0  0  0
 19 24  1  0  0  0  0
 20 14  1  0  0  0  0
 20 21  1  0  0  0  0
 22 23  1  0  0  0  0
 23 20  1  0  0  0  0
 24 25  1  0  0  0  0
 24 20  1  0  0  0  0
 25 29  1  0  0  0  0
 26 29  1  0  0  0  0
 26 28  2  0  0  0  0
 27 30  1  0  0  0  0
 28 30  1  0  0  0  0
 29 27  2  0  0  0  0
 32 31  2  0  0  0  0
M  END
>  <MODEL>
7

>  <REMARK>
 VINA RESULT:      -7.6      3.219      5.605
  Name = 
  4 active torsions:
  status: ('A' for Active; 'I' for Inactive)
    1  A    between atoms: C_8  and  C_28
    2  A    between atoms: C_19  and  C_24
    3  A    between atoms: C_23  and  C_24
    4  A    between atoms: C_25  and  C_26
                            x       y       z     vdW  Elec       q    Type
                         _______ _______ _______ _____ _____    ______ ____

>  <TORSDO>
F 4

$$$$
=
 OpenBabel11052421293D

 32 37  0  0  1  0  0  0  0  0999 V2000
  191.6540  174.9400  144.9820 C   0  0  1  0  0  3  0  0  0  0  0  0
  195.9040  176.3900  145.0120 F   0  0  0  0  0  0  0  0  0  0  0  0
  190.9690  174.3090  142.6630 C   0  0  1  0  0  3  0  0  0  0  0  0
  189.5970  173.7990  143.1360 C   0  0  1  0  0  3  0  0  0  0  0  0
  190.6820  172.4620  140.9160 C   0  0  2  0  0  3  0  0  0  0  0  0
  194.5900  176.6990  145.1560 C   0  0  0  0  0  3  0  0  0  0  0  0
  191.9510  176.7170  144.6480 S   0  0  0  0  0  0  0  0  0  0  0  0
  193.6570  176.4050  144.2400 C   0  0  0  0  0  0  0  0  0  0  0  0
  193.3850  174.1500  143.1690 C   0  0  2  0  0  3  0  0  0  0  0  0
  190.3750  171.5580  142.1020 C   0  0  0  0  0  2  0  0  0  0  0  0
  189.4780  172.2640  143.1240 C   0  0  0  0  0  2  0  0  0  0  0  0
  193.8740  175.5990  142.9850 C   0  0  2  0  0  3  0  0  0  0  0  0
  193.2760  173.3010  141.5570 S   0  0  0  0  0  0  0  0  0  0  0  0
  190.2040  174.7520  145.4060 C   0  0  0  0  0  0  0  0  0  0  0  0
  189.2740  174.3010  144.5260 C   0  0  0  0  0  3  0  0  0  0  0  0
  191.3400  171.7560  139.9270 F   0  0  0  0  0  0  0  0  0  0  0  0
  191.9800  174.0640  143.7570 C   0  0  1  0  0  3  0  0  0  0  0  0
  191.4930  173.6860  141.3630 C   0  0  2  0  0  3  0  0  0  0  0  0
  190.1320  177.5230  147.1690 C   0  0  0  0  0  2  0  0  0  0  0  0
  189.7740  175.1490  146.8160 C   0  0  1  0  0  0  0  0  0  0  0  0
  188.9410  174.1730  147.3700 O   0  0  0  0  0  1  0  0  0  0  0  0
  191.1560  176.7910  148.0120 C   0  0  0  0  0  2  0  0  0  0  0  0
  191.0020  175.3070  147.7050 C   0  0  0  0  0  2  0  0  0  0  0  0
  189.0570  176.4990  146.8880 C   0  0  2  0  0  3  0  0  0  0  0  0
  188.2130  176.8490  145.6620 C   0  0  0  0  0  2  0  0  0  0  0  0
  186.3170  178.4770  145.2260 C   0  0  0  0  0  3  0  0  0  0  0  0
  186.3760  177.3050  147.2660 N   0  0  0  0  0  0  0  0  0  0  0  0
  185.1620  179.0350  145.7680 C   0  0  0  0  0  3  0  0  0  0  0  0
  186.9530  177.5350  146.0630 C   0  0  0  0  0  0  0  0  0  0  0  0
  185.0470  178.2940  147.2600 S   0  0  0  0  0  0  0  0  0  0  0  0
  195.4430  176.4940  141.2620 C   0  0  0  0  0  2  0  0  0  0  0  0
  195.2310  175.7340  142.3370 C   0  0  0  0  0  3  0  0  0  0  0  0
  1  7  1  6  0  0  0
  1 14  1  0  0  0  0
  2  6  1  0  0  0  0
  3  4  1  0  0  0  0
  3 17  1  0  0  0  0
  4 15  1  0  0  0  0
  5 18  1  0  0  0  0
  5 10  1  0  0  0  0
  8  7  1  0  0  0  0
  8  6  2  0  0  0  0
  9 17  1  0  0  0  0
 10 11  1  0  0  0  0
 11  4  1  0  0  0  0
 12  9  1  0  0  0  0
 12  8  1  0  0  0  0
 13  9  1  0  0  0  0
 14 20  1  0  0  0  0
 15 14  2  0  0  0  0
 16  5  1  0  0  0  0
 17  1  1  0  0  0  0
 18 13  1  0  0  0  0
 18  3  1  0  0  0  0
 19 22  1  0  0  0  0
 20 24  1  0  0  0  0
 20 21  1  0  0  0  0
 20 23  1  0  0  0  0
 23 22  1  0  0  0  0
 24 19  1  0  0  0  0
 25 29  1  0  0  0  0
 25 24  1  0  0  0  0
 26 28  2  0  0  0  0
 26 29  1  0  0  0  0
 28 30  1  0  0  0  0
 29 27  2  0  0  0  0
 30 27  1  0  0  0  0
 31 32  2  0  0  0  0
 32 12  1  0  0  0  0
M  END
>  <MODEL>
8

>  <REMARK>
 VINA RESULT:      -7.6      4.136      7.798
  Name = 
  4 active torsions:
  status: ('A' for Active; 'I' for Inactive)
    1  A    between atoms: C_8  and  C_28
    2  A    between atoms: C_19  and  C_24
    3  A    between atoms: C_23  and  C_24
    4  A    between atoms: C_25  and  C_26
                            x       y       z     vdW  Elec       q    Type
                         _______ _______ _______ _____ _____    ______ ____

>  <TORSDO>
F 4

$$$$
=
 OpenBabel11052421293D

 32 37  0  0  1  0  0  0  0  0999 V2000
  188.7800  176.4620  144.0490 C   0  0  1  0  0  3  0  0  0  0  0  0
  190.8930  176.9360  147.9840 F   0  0  0  0  0  0  0  0  0  0  0  0
  189.8680  174.6680  142.6900 C   0  0  1  0  0  3  0  0  0  0  0  0
  188.8100  174.7770  141.5790 C   0  0  1  0  0  3  0  0  0  0  0  0
  189.8940  172.2140  141.9670 C   0  0  2  0  0  3  0  0  0  0  0  0
  190.6030  177.4710  146.7700 C   0  0  0  0  0  3  0  0  0  0  0  0
  190.2210  177.5930  144.1130 S   0  0  0  0  0  0  0  0  0  0  0  0
  190.8130  176.8330  145.6110 C   0  0  0  0  0  0  0  0  0  0  0  0
  190.0990  174.4710  145.1460 C   0  0  2  0  0  3  0  0  0  0  0  0
  188.3800  172.2820  142.1160 C   0  0  0  0  0  2  0  0  0  0  0  0
  187.8230  173.5950  141.5560 C   0  0  0  0  0  2  0  0  0  0  0  0
  191.2800  175.4080  145.4590 C   0  0  2  0  0  3  0  0  0  0  0  0
  190.7030  172.8470  144.5740 S   0  0  0  0  0  0  0  0  0  0  0  0
  187.9380  176.8040  142.8280 C   0  0  0  0  0  0  0  0  0  0  0  0
  188.0250  176.0640  141.6930 C   0  0  0  0  0  3  0  0  0  0  0  0
  190.3590  170.9590  142.3130 F   0  0  0  0  0  0  0  0  0  0  0  0
  189.2130  174.9840  144.0140 C   0  0  1  0  0  3  0  0  0  0  0  0
  190.5710  173.3100  142.8030 C   0  0  2  0  0  3  0  0  0  0  0  0
  184.7890  177.4590  142.1570 C   0  0  0  0  0  2  0  0  0  0  0  0
  187.0410  178.0390  142.8530 C   0  0  1  0  0  0  0  0  0  0  0  0
  187.6150  179.0500  143.6280 O   0  0  0  0  0  1  0  0  0  0  0  0
  185.3950  178.2910  141.0460 C   0  0  0  0  0  2  0  0  0  0  0  0
  186.8430  178.5610  141.4350 C   0  0  0  0  0  2  0  0  0  0  0  0
  185.6280  177.7680  143.3760 C   0  0  2  0  0  3  0  0  0  0  0  0
  185.5330  176.6840  144.4500 C   0  0  0  0  0  2  0  0  0  0  0  0
  184.6040  178.1910  146.2670 C   0  0  0  0  0  3  0  0  0  0  0  0
  186.5920  176.9980  146.6710 N   0  0  0  0  0  0  0  0  0  0  0  0
  184.8190  178.6650  147.5580 C   0  0  0  0  0  3  0  0  0  0  0  0
  185.5830  177.2820  145.8140 C   0  0  0  0  0  0  0  0  0  0  0  0
  186.2300  177.8990  148.0140 S   0  0  0  0  0  0  0  0  0  0  0  0
  193.5310  175.1720  146.5130 C   0  0  0  0  0  2  0  0  0  0  0  0
  192.2250  174.9030  146.5230 C   0  0  0  0  0  3  0  0  0  0  0  0
  1 14  1  6  0  0  0
  1  7  1  0  0  0  0
  3 18  1  0  0  0  0
  3 17  1  0  0  0  0
  4 15  1  0  0  0  0
  4  3  1  0  0  0  0
  5 10  1  0  0  0  0
  5 16  1  0  0  0  0
  5 18  1  0  0  0  0
  6  2  1  0  0  0  0
  7  8  1  0  0  0  0
  8  6  2  0  0  0  0
  9 12  1  0  0  0  0
 11  4  1  0  0  0  0
 11 10  1  0  0  0  0
 12  8  1  0  0  0  0
 12 32  1  0  0  0  0
 13  9  1  0  0  0  0
 14 20  1  0  0  0  0
 15 14  2  0  0  0  0
 17  1  1  0  0  0  0
 17  9  1  0  0  0  0
 18 13  1  0  0  0  0
 19 24  1  0  0  0  0
 20 24  1  0  0  0  0
 20 21  1  0  0  0  0
 22 23  1  0  0  0  0
 22 19  1  0  0  0  0
 23 20  1  0  0  0  0
 24 25  1  0  0  0  0
 25 29  1  0  0  0  0
 26 28  2  0  0  0  0
 27 30  1  0  0  0  0
 28 30  1  0  0  0  0
 29 26  1  0  0  0  0
 29 27  2  0  0  0  0
 31 32  2  0  0  0  0
M  END
>  <MODEL>
9

>  <REMARK>
 VINA RESULT:      -7.5      3.171      7.437
  Name = 
  4 active torsions:
  status: ('A' for Active; 'I' for Inactive)
    1  A    between atoms: C_8  and  C_28
    2  A    between atoms: C_19  and  C_24
    3  A    between atoms: C_23  and  C_24
    4  A    between atoms: C_25  and  C_26
                            x       y       z     vdW  Elec       q    Type
                         _______ _______ _______ _____ _____    ______ ____

>  <TORSDO>
F 4

$$$$
