=
 OpenBabel11052420513D

 43 48  0  0  1  0  0  0  0  0999 V2000
  192.3810  178.0850  142.7660 C   0  0  0  0  0  2  0  0  0  0  0  0
  192.7300  176.6070  142.9510 C   0  0  1  0  0  3  0  0  0  0  0  0
  191.4030  178.5350  143.8490 C   0  0  0  0  0  2  0  0  0  0  0  0
  191.4730  175.7390  142.9280 C   0  0  0  0  0  2  0  0  0  0  0  0
  190.4780  176.2090  143.9830 C   0  0  1  0  0  3  0  0  0  0  0  0
  190.1340  177.6900  143.8020 C   0  0  0  0  0  2  0  0  0  0  0  0
  189.9420  171.9070  141.4610 C   0  0  0  0  0  0  0  0  0  0  0  0
  188.7860  174.8560  145.4690 C   0  0  1  0  0  3  0  0  0  0  0  0
  189.6870  172.7890  143.7070 C   0  0  0  0  0  0  0  0  0  0  0  0
  189.7140  173.1780  140.9300 C   0  0  0  0  0  3  0  0  0  0  0  0
  190.1840  170.8060  140.5930 N   0  0  0  0  0  1  0  0  0  0  0  0
  189.4520  174.0770  143.1680 C   0  0  0  0  0  0  0  0  0  0  0  0
  189.9180  171.7130  142.8440 C   0  0  0  0  0  3  0  0  0  0  0  0
  189.4720  174.2600  141.7810 C   0  0  0  0  0  3  0  0  0  0  0  0
  189.2510  175.2770  144.0570 C   0  0  2  0  0  3  0  0  0  0  0  0
  189.6820  173.7660  146.0400 C   0  0  0  0  0  2  0  0  0  0  0  0
  189.5690  172.5080  145.1800 C   0  0  0  0  0  2  0  0  0  0  0  0
  188.6180  176.0090  146.4480 C   0  0  0  0  0  2  0  0  0  0  0  0
  187.1390  176.2850  146.6880 C   0  0  0  0  0  2  0  0  0  0  0  0
  186.0330  176.7410  143.1610 C   0  0  0  0  0  2  0  0  0  0  0  0
  186.1080  178.2680  142.9460 C   0  0  1  0  0  3  0  0  0  0  0  0
  186.8130  178.3460  145.3790 C   0  0  0  0  0  3  0  0  0  0  0  0
  185.6160  176.3640  144.5850 C   0  0  0  0  0  2  0  0  0  0  0  0
  186.5310  177.0490  145.5570 C   0  0  0  0  0  0  0  0  0  0  0  0
  186.1760  179.0990  144.2440 C   0  0  0  0  0  2  0  0  0  0  0  0
  187.4100  177.4200  141.3700 C   0  0  0  0  0  1  0  0  0  0  0  0
  187.1990  178.5720  142.1290 O   0  0  0  0  0  0  0  0  0  0  0  0
  193.7340  176.1330  141.9080 C   0  0  0  0  0  2  0  0  0  0  0  0
  195.3420  175.6830  142.6410 S   0  0  0  0  0  0  0  0  0  0  0  0
  194.7450  174.0190  143.0630 C   0  0  0  0  0  2  0  0  0  0  0  0
  195.5580  173.4290  144.1250 N   0  0  0  0  0  0  0  0  0  0  0  0
  195.6300  174.0520  145.4280 C   0  0  0  0  0  0  0  0  0  0  0  0
  196.6470  173.8610  146.1490 O   0  0  0  0  0  0  0  0  0  0  0  0
  194.5430  174.9110  145.9550 C   0  0  0  0  0  0  0  0  0  0  0  0
  193.7630  177.1080  146.6520 C   0  0  0  0  0  3  0  0  0  0  0  0
  192.2980  175.1940  146.8510 C   0  0  0  0  0  3  0  0  0  0  0  0
  192.5280  176.5620  147.0100 C   0  0  0  0  0  3  0  0  0  0  0  0
  193.3030  174.3730  146.3300 C   0  0  0  0  0  3  0  0  0  0  0  0
  194.7660  176.2860  146.1300 C   0  0  0  0  0  3  0  0  0  0  0  0
  195.2270  171.3250  142.8270 C   0  0  0  0  0  2  0  0  0  0  0  0
  193.5010  171.5790  144.5390 C   0  0  0  0  0  1  0  0  0  0  0  0
  195.9840  172.0330  143.9390 C   0  0  2  0  0  3  0  0  0  0  0  0
  194.8820  171.0080  144.2620 C   0  0  2  0  0  3  0  0  0  0  0  0
  1  2  1  0  0  0  0
  1  3  1  0  0  0  0
  2 28  1  6  0  0  0
  4  2  1  0  0  0  0
  5  4  1  6  0  0  0
  5 15  1  0  0  0  0
  6  3  1  0  0  0  0
  6  5  1  0  0  0  0
  7 13  1  0  0  0  0
  8 16  1  0  0  0  0
  8 18  1  1  0  0  0
  9 17  1  0  0  0  0
 10  7  2  0  0  0  0
 10 14  1  0  0  0  0
 11  7  1  0  0  0  0
 12  9  1  0  0  0  0
 13  9  2  0  0  0  0
 14 12  2  0  0  0  0
 15 12  1  6  0  0  0
 15  8  1  0  0  0  0
 17 16  1  0  0  0  0
 18 19  1  0  0  0  0
 20 23  1  0  0  0  0
 21 27  1  6  0  0  0
 21 20  1  0  0  0  0
 21 25  1  0  0  0  0
 22 24  2  0  0  0  0
 23 24  1  0  0  0  0
 24 19  1  0  0  0  0
 25 22  1  0  0  0  0
 26 27  1  0  0  0  0
 28 29  1  0  0  0  0
 29 30  1  0  0  0  0
 30 31  1  0  0  0  0
 31 32  1  0  0  0  0
 32 34  1  0  0  0  0
 32 33  2  0  0  0  0
 34 39  2  0  0  0  0
 34 38  1  0  0  0  0
 35 37  2  0  0  0  0
 36 37  1  0  0  0  0
 38 36  2  0  0  0  0
 39 35  1  0  0  0  0
 40 42  1  0  0  0  0
 40 43  1  0  0  0  0
 42 31  1  6  0  0  0
 42 43  1  0  0  0  0
 43 41  1  6  0  0  0
M  END
>  <MODEL>
1

>  <REMARK>
 VINA RESULT:      -7.1      0.000      0.000
  Name = 
  11 active torsions:
  status: ('A' for Active; 'I' for Inactive)
    1  A    between atoms: C_1  and  C_34
    2  A    between atoms: C_1  and  C_35
    3  A    between atoms: C_3  and  N_4
    4  A    between atoms: C_3  and  S_12
    5  A    between atoms: N_4  and  C_22
    6  A    between atoms: C_6  and  C_17
    7  A    between atoms: C_8  and  C_34
    8  A    between atoms: C_11  and  C_14
    9  A    between atoms: S_12  and  C_17
   10  A    between atoms: C_19  and  O_37
   11  A    between atoms: C_27  and  C_30
                            x       y       z     vdW  Elec       q    Type
                         _______ _______ _______ _____ _____    ______ ____

>  <TORSDO>
F 11

$$$$
=
 OpenBabel11052420513D

 43 48  0  0  1  0  0  0  0  0999 V2000
  189.4760  172.2970  142.5330 C   0  0  0  0  0  2  0  0  0  0  0  0
  188.9630  173.7270  142.3520 C   0  0  1  0  0  3  0  0  0  0  0  0
  189.3030  171.8550  143.9840 C   0  0  0  0  0  2  0  0  0  0  0  0
  189.6810  174.6920  143.2920 C   0  0  0  0  0  2  0  0  0  0  0  0
  189.5430  174.2340  144.7390 C   0  0  1  0  0  3  0  0  0  0  0  0
  190.0500  172.8000  144.9190 C   0  0  0  0  0  2  0  0  0  0  0  0
  194.3570  175.6380  144.8070 C   0  0  0  0  0  0  0  0  0  0  0  0
  189.4500  176.6200  145.8350 C   0  0  1  0  0  3  0  0  0  0  0  0
  192.1350  176.6130  144.8470 C   0  0  0  0  0  0  0  0  0  0  0  0
  193.8580  174.4650  145.3800 C   0  0  0  0  0  3  0  0  0  0  0  0
  195.7410  175.7450  144.4980 N   0  0  0  0  0  1  0  0  0  0  0  0
  191.6310  175.4260  145.4310 C   0  0  0  0  0  0  0  0  0  0  0  0
  193.4990  176.7100  144.5520 C   0  0  0  0  0  3  0  0  0  0  0  0
  192.5000  174.3590  145.6880 C   0  0  0  0  0  3  0  0  0  0  0  0
  190.1620  175.2530  145.7170 C   0  0  2  0  0  3  0  0  0  0  0  0
  189.7810  177.5150  144.6500 C   0  0  0  0  0  2  0  0  0  0  0  0
  191.2750  177.8310  144.6490 C   0  0  0  0  0  2  0  0  0  0  0  0
  187.9480  176.5300  146.0650 C   0  0  0  0  0  2  0  0  0  0  0  0
  187.2840  177.8620  145.7370 C   0  0  0  0  0  2  0  0  0  0  0  0
  186.2540  176.5850  142.3930 C   0  0  0  0  0  2  0  0  0  0  0  0
  185.3260  177.6910  141.8470 C   0  0  1  0  0  3  0  0  0  0  0  0
  185.7370  178.8210  144.0780 C   0  0  0  0  0  3  0  0  0  0  0  0
  186.1390  176.4130  143.9100 C   0  0  0  0  0  2  0  0  0  0  0  0
  186.3600  177.7420  144.5690 C   0  0  0  0  0  0  0  0  0  0  0  0
  184.7980  178.6740  142.9120 C   0  0  0  0  0  2  0  0  0  0  0  0
  186.8120  177.4530  140.2240 C   0  0  0  0  0  1  0  0  0  0  0  0
  185.9820  178.3940  140.8350 O   0  0  0  0  0  0  0  0  0  0  0  0
  189.0860  174.1880  140.9050 C   0  0  0  0  0  2  0  0  0  0  0  0
  188.4360  172.9610  139.7230 S   0  0  0  0  0  0  0  0  0  0  0  0
  189.9030  173.1250  138.6630 C   0  0  0  0  0  2  0  0  0  0  0  0
  190.7190  171.9130  138.7140 N   0  0  0  0  0  0  0  0  0  0  0  0
  192.1410  171.9950  138.9630 C   0  0  0  0  0  0  0  0  0  0  0  0
  192.8960  171.0780  138.5390 O   0  0  0  0  0  0  0  0  0  0  0  0
  192.7510  173.1220  139.7080 C   0  0  0  0  0  0  0  0  0  0  0  0
  194.1620  175.1050  139.7180 C   0  0  0  0  0  3  0  0  0  0  0  0
  193.1840  174.3140  141.7840 C   0  0  0  0  0  3  0  0  0  0  0  0
  193.9740  175.2380  141.0960 C   0  0  0  0  0  3  0  0  0  0  0  0
  192.5790  173.2600  141.0940 C   0  0  0  0  0  3  0  0  0  0  0  0
  193.5560  174.0500  139.0290 C   0  0  0  0  0  3  0  0  0  0  0  0
  190.7710  169.4550  138.2960 C   0  0  0  0  0  2  0  0  0  0  0  0
  190.1260  170.6730  136.2770 C   0  0  0  0  0  1  0  0  0  0  0  0
  190.0050  170.6370  138.8680 C   0  0  2  0  0  3  0  0  0  0  0  0
  189.5890  170.0000  137.5290 C   0  0  2  0  0  3  0  0  0  0  0  0
  1  3  1  0  0  0  0
  2 28  1  6  0  0  0
  2  1  1  0  0  0  0
  2  4  1  0  0  0  0
  3  6  1  0  0  0  0
  5  4  1  6  0  0  0
  5  6  1  0  0  0  0
  5 15  1  0  0  0  0
  7 10  1  0  0  0  0
  8 18  1  6  0  0  0
  9 12  2  0  0  0  0
 10 14  2  0  0  0  0
 11  7  1  0  0  0  0
 12 14  1  0  0  0  0
 13  7  2  0  0  0  0
 13  9  1  0  0  0  0
 15 12  1  6  0  0  0
 15  8  1  0  0  0  0
 16  8  1  0  0  0  0
 17 16  1  0  0  0  0
 17  9  1  0  0  0  0
 19 18  1  0  0  0  0
 20 23  1  0  0  0  0
 21 27  1  6  0  0  0
 21 20  1  0  0  0  0
 21 25  1  0  0  0  0
 22 24  2  0  0  0  0
 23 24  1  0  0  0  0
 24 19  1  0  0  0  0
 25 22  1  0  0  0  0
 26 27  1  0  0  0  0
 29 28  1  0  0  0  0
 30 31  1  0  0  0  0
 30 29  1  0  0  0  0
 31 32  1  0  0  0  0
 32 34  1  0  0  0  0
 33 32  2  0  0  0  0
 34 38  1  0  0  0  0
 35 37  2  0  0  0  0
 37 36  1  0  0  0  0
 38 36  2  0  0  0  0
 39 34  2  0  0  0  0
 39 35  1  0  0  0  0
 40 42  1  0  0  0  0
 42 31  1  6  0  0  0
 43 41  1  6  0  0  0
 43 40  1  0  0  0  0
 43 42  1  0  0  0  0
M  END
>  <MODEL>
2

>  <REMARK>
 VINA RESULT:      -7.0      2.742      5.531
  Name = 
  11 active torsions:
  status: ('A' for Active; 'I' for Inactive)
    1  A    between atoms: C_1  and  C_34
    2  A    between atoms: C_1  and  C_35
    3  A    between atoms: C_3  and  N_4
    4  A    between atoms: C_3  and  S_12
    5  A    between atoms: N_4  and  C_22
    6  A    between atoms: C_6  and  C_17
    7  A    between atoms: C_8  and  C_34
    8  A    between atoms: C_11  and  C_14
    9  A    between atoms: S_12  and  C_17
   10  A    between atoms: C_19  and  O_37
   11  A    between atoms: C_27  and  C_30
                            x       y       z     vdW  Elec       q    Type
                         _______ _______ _______ _____ _____    ______ ____

>  <TORSDO>
F 11

$$$$
=
 OpenBabel11052420513D

 43 48  0  0  1  0  0  0  0  0999 V2000
  191.3480  172.5630  143.6440 C   0  0  0  0  0  2  0  0  0  0  0  0
  191.2730  173.7750  142.7140 C   0  0  1  0  0  3  0  0  0  0  0  0
  190.0970  172.4890  144.5160 C   0  0  0  0  0  2  0  0  0  0  0  0
  191.1020  175.0670  143.5090 C   0  0  0  0  0  2  0  0  0  0  0  0
  189.8750  174.9840  144.4100 C   0  0  1  0  0  3  0  0  0  0  0  0
  189.9470  173.7670  145.3370 C   0  0  0  0  0  2  0  0  0  0  0  0
  186.1700  178.1940  143.3520 C   0  0  0  0  0  0  0  0  0  0  0  0
  189.5320  176.2630  146.6800 C   0  0  1  0  0  3  0  0  0  0  0  0
  187.1910  177.0970  145.2610 C   0  0  0  0  0  0  0  0  0  0  0  0
  187.3740  178.1030  142.6500 C   0  0  0  0  0  3  0  0  0  0  0  0
  185.0360  178.8020  142.7450 N   0  0  0  0  0  1  0  0  0  0  0  0
  188.4120  177.0090  144.5500 C   0  0  0  0  0  0  0  0  0  0  0  0
  186.0840  177.7010  144.6560 C   0  0  0  0  0  3  0  0  0  0  0  0
  188.4900  177.5110  143.2460 C   0  0  0  0  0  3  0  0  0  0  0  0
  189.6160  176.3200  145.1370 C   0  0  2  0  0  3  0  0  0  0  0  0
  188.1850  175.7220  147.1360 C   0  0  0  0  0  2  0  0  0  0  0  0
  187.0750  176.6770  146.7010 C   0  0  0  0  0  2  0  0  0  0  0  0
  190.6840  175.5280  147.3470 C   0  0  0  0  0  2  0  0  0  0  0  0
  191.8170  176.4970  147.6610 C   0  0  0  0  0  2  0  0  0  0  0  0
  194.6920  177.2210  145.4080 C   0  0  0  0  0  2  0  0  0  0  0  0
  195.0310  175.8480  144.7900 C   0  0  1  0  0  3  0  0  0  0  0  0
  193.1690  174.9780  146.2720 C   0  0  0  0  0  3  0  0  0  0  0  0
  194.2080  177.1140  146.8560 C   0  0  0  0  0  2  0  0  0  0  0  0
  193.0640  176.1460  146.9160 C   0  0  0  0  0  0  0  0  0  0  0  0
  194.4400  174.6380  145.5430 C   0  0  0  0  0  2  0  0  0  0  0  0
  195.7530  175.4230  142.7410 C   0  0  0  0  0  1  0  0  0  0  0  0
  194.6220  175.8220  143.4550 O   0  0  0  0  0  0  0  0  0  0  0  0
  192.4900  173.8580  141.8010 C   0  0  0  0  0  2  0  0  0  0  0  0
  192.6530  172.3980  140.7210 S   0  0  0  0  0  0  0  0  0  0  0  0
  192.0420  173.3260  139.2820 C   0  0  0  0  0  2  0  0  0  0  0  0
  191.1740  172.4900  138.4560 N   0  0  0  0  0  0  0  0  0  0  0  0
  189.8740  172.0790  138.9380 C   0  0  0  0  0  0  0  0  0  0  0  0
  189.3550  171.0200  138.4920 O   0  0  0  0  0  0  0  0  0  0  0  0
  189.1180  172.8640  139.9440 C   0  0  0  0  0  0  0  0  0  0  0  0
  187.8000  172.9290  141.9890 C   0  0  0  0  0  3  0  0  0  0  0  0
  188.1900  174.9660  140.7440 C   0  0  0  0  0  3  0  0  0  0  0  0
  187.6270  174.3070  141.8390 C   0  0  0  0  0  3  0  0  0  0  0  0
  188.9270  174.2460  139.7990 C   0  0  0  0  0  3  0  0  0  0  0  0
  188.5390  172.2110  141.0440 C   0  0  0  0  0  3  0  0  0  0  0  0
  190.9610  171.1380  136.3710 C   0  0  0  0  0  2  0  0  0  0  0  0
  192.7190  170.2480  137.8160 C   0  0  0  0  0  1  0  0  0  0  0  0
  191.5030  172.3990  137.0250 C   0  0  2  0  0  3  0  0  0  0  0  0
  192.4360  171.2220  136.6840 C   0  0  2  0  0  3  0  0  0  0  0  0
  1  3  1  0  0  0  0
  2 28  1  1  0  0  0
  2  4  1  0  0  0  0
  2  1  1  0  0  0  0
  3  6  1  0  0  0  0
  5  4  1  1  0  0  0
  5 15  1  0  0  0  0
  5  6  1  0  0  0  0
  7 13  1  0  0  0  0
  8 16  1  0  0  0  0
  8 18  1  6  0  0  0
  9 17  1  0  0  0  0
 10 14  1  0  0  0  0
 10  7  2  0  0  0  0
 11  7  1  0  0  0  0
 12  9  1  0  0  0  0
 13  9  2  0  0  0  0
 14 12  2  0  0  0  0
 15 12  1  6  0  0  0
 15  8  1  0  0  0  0
 17 16  1  0  0  0  0
 18 19  1  0  0  0  0
 20 23  1  0  0  0  0
 21 27  1  6  0  0  0
 21 20  1  0  0  0  0
 21 25  1  0  0  0  0
 22 24  2  0  0  0  0
 23 24  1  0  0  0  0
 24 19  1  0  0  0  0
 25 22  1  0  0  0  0
 26 27  1  0  0  0  0
 29 28  1  0  0  0  0
 30 29  1  0  0  0  0
 31 32  1  0  0  0  0
 31 30  1  0  0  0  0
 32 34  1  0  0  0  0
 33 32  2  0  0  0  0
 34 39  1  0  0  0  0
 36 37  2  0  0  0  0
 37 35  1  0  0  0  0
 38 34  2  0  0  0  0
 38 36  1  0  0  0  0
 39 35  2  0  0  0  0
 40 43  1  0  0  0  0
 40 42  1  0  0  0  0
 42 31  1  1  0  0  0
 43 42  1  0  0  0  0
 43 41  1  1  0  0  0
M  END
>  <MODEL>
3

>  <REMARK>
 VINA RESULT:      -7.0      2.999      6.779
  Name = 
  11 active torsions:
  status: ('A' for Active; 'I' for Inactive)
    1  A    between atoms: C_1  and  C_34
    2  A    between atoms: C_1  and  C_35
    3  A    between atoms: C_3  and  N_4
    4  A    between atoms: C_3  and  S_12
    5  A    between atoms: N_4  and  C_22
    6  A    between atoms: C_6  and  C_17
    7  A    between atoms: C_8  and  C_34
    8  A    between atoms: C_11  and  C_14
    9  A    between atoms: S_12  and  C_17
   10  A    between atoms: C_19  and  O_37
   11  A    between atoms: C_27  and  C_30
                            x       y       z     vdW  Elec       q    Type
                         _______ _______ _______ _____ _____    ______ ____

>  <TORSDO>
F 11

$$$$
=
 OpenBabel11052420513D

 43 48  0  0  1  0  0  0  0  0999 V2000
  189.4830  173.7790  146.6320 C   0  0  0  0  0  2  0  0  0  0  0  0
  189.8670  173.7600  145.1520 C   0  0  1  0  0  3  0  0  0  0  0  0
  189.2260  175.2120  147.0920 C   0  0  0  0  0  2  0  0  0  0  0  0
  191.0950  174.6310  144.8920 C   0  0  0  0  0  2  0  0  0  0  0  0
  190.8570  176.0540  145.3840 C   0  0  1  0  0  3  0  0  0  0  0  0
  190.4660  176.0720  146.8640 C   0  0  0  0  0  2  0  0  0  0  0  0
  195.6850  174.7000  145.3000 C   0  0  0  0  0  0  0  0  0  0  0  0
  191.9250  177.7680  143.7040 C   0  0  1  0  0  3  0  0  0  0  0  0
  194.0610  175.8780  143.9360 C   0  0  0  0  0  0  0  0  0  0  0  0
  194.9690  175.0360  146.4520 C   0  0  0  0  0  3  0  0  0  0  0  0
  196.8790  173.9340  145.4030 N   0  0  0  0  0  1  0  0  0  0  0  0
  193.3370  176.2220  145.1030 C   0  0  0  0  0  0  0  0  0  0  0  0
  195.2360  175.1300  144.0490 C   0  0  0  0  0  3  0  0  0  0  0  0
  193.7980  175.7910  146.3530 C   0  0  0  0  0  3  0  0  0  0  0  0
  192.0380  176.9800  145.0290 C   0  0  2  0  0  3  0  0  0  0  0  0
  192.2290  176.8780  142.5080 C   0  0  0  0  0  2  0  0  0  0  0  0
  193.6780  176.4030  142.5780 C   0  0  0  0  0  2  0  0  0  0  0  0
  190.6120  178.5160  143.5250 C   0  0  0  0  0  2  0  0  0  0  0  0
  189.6820  177.7360  142.6040 C   0  0  0  0  0  2  0  0  0  0  0  0
  186.2090  176.4110  142.8300 C   0  0  0  0  0  2  0  0  0  0  0  0
  185.7300  176.8680  144.2240 C   0  0  1  0  0  3  0  0  0  0  0  0
  188.0630  177.8320  144.4570 C   0  0  0  0  0  3  0  0  0  0  0  0
  187.7010  176.0680  142.8000 C   0  0  0  0  0  2  0  0  0  0  0  0
  188.4780  177.2340  143.3340 C   0  0  0  0  0  0  0  0  0  0  0  0
  186.8580  177.2990  145.1840 C   0  0  0  0  0  2  0  0  0  0  0  0
  184.5070  177.9370  142.7210 C   0  0  0  0  0  1  0  0  0  0  0  0
  184.8040  177.9040  144.0850 O   0  0  0  0  0  0  0  0  0  0  0  0
  190.0950  172.3400  144.6480 C   0  0  0  0  0  2  0  0  0  0  0  0
  189.2700  172.0250  143.0530 S   0  0  0  0  0  0  0  0  0  0  0  0
  190.6590  171.0050  142.4750 C   0  0  0  0  0  2  0  0  0  0  0  0
  191.5680  171.7890  141.6410 N   0  0  0  0  0  0  0  0  0  0  0  0
  192.8380  172.2420  142.1630 C   0  0  0  0  0  0  0  0  0  0  0  0
  193.3750  173.2730  141.6740 O   0  0  0  0  0  0  0  0  0  0  0  0
  193.5410  171.5340  143.2600 C   0  0  0  0  0  0  0  0  0  0  0  0
  194.1100  171.3690  145.6200 C   0  0  0  0  0  3  0  0  0  0  0  0
  195.0340  169.7810  144.0470 C   0  0  0  0  0  3  0  0  0  0  0  0
  194.9090  170.2540  145.3550 C   0  0  0  0  0  3  0  0  0  0  0  0
  194.3570  170.4210  143.0050 C   0  0  0  0  0  3  0  0  0  0  0  0
  193.4320  172.0070  144.5770 C   0  0  0  0  0  3  0  0  0  0  0  0
  191.9740  172.9450  139.4690 C   0  0  0  0  0  2  0  0  0  0  0  0
  190.2110  174.0640  140.7390 C   0  0  0  0  0  1  0  0  0  0  0  0
  191.3160  171.7810  140.1920 C   0  0  2  0  0  3  0  0  0  0  0  0
  190.4830  172.9820  139.7070 C   0  0  2  0  0  3  0  0  0  0  0  0
  1  3  1  0  0  0  0
  2 28  1  1  0  0  0
  2  1  1  0  0  0  0
  4  2  1  0  0  0  0
  5  4  1  1  0  0  0
  5  6  1  0  0  0  0
  6  3  1  0  0  0  0
  7 11  1  0  0  0  0
  7 10  1  0  0  0  0
  8 18  1  6  0  0  0
  8 15  1  0  0  0  0
  9 13  1  0  0  0  0
  9 12  2  0  0  0  0
 12 14  1  0  0  0  0
 13  7  2  0  0  0  0
 14 10  2  0  0  0  0
 15 12  1  6  0  0  0
 15  5  1  0  0  0  0
 16 17  1  0  0  0  0
 16  8  1  0  0  0  0
 17  9  1  0  0  0  0
 19 24  1  0  0  0  0
 19 18  1  0  0  0  0
 20 21  1  0  0  0  0
 21 27  1  6  0  0  0
 21 25  1  0  0  0  0
 22 25  1  0  0  0  0
 23 20  1  0  0  0  0
 23 24  1  0  0  0  0
 24 22  2  0  0  0  0
 26 27  1  0  0  0  0
 29 28  1  0  0  0  0
 30 29  1  0  0  0  0
 31 32  1  0  0  0  0
 31 30  1  0  0  0  0
 32 34  1  0  0  0  0
 33 32  2  0  0  0  0
 34 39  1  0  0  0  0
 36 37  2  0  0  0  0
 37 35  1  0  0  0  0
 38 34  2  0  0  0  0
 38 36  1  0  0  0  0
 39 35  2  0  0  0  0
 40 43  1  0  0  0  0
 40 42  1  0  0  0  0
 42 31  1  1  0  0  0
 43 42  1  0  0  0  0
 43 41  1  1  0  0  0
M  END
>  <MODEL>
4

>  <REMARK>
 VINA RESULT:      -6.9      2.012      5.180
  Name = 
  11 active torsions:
  status: ('A' for Active; 'I' for Inactive)
    1  A    between atoms: C_1  and  C_34
    2  A    between atoms: C_1  and  C_35
    3  A    between atoms: C_3  and  N_4
    4  A    between atoms: C_3  and  S_12
    5  A    between atoms: N_4  and  C_22
    6  A    between atoms: C_6  and  C_17
    7  A    between atoms: C_8  and  C_34
    8  A    between atoms: C_11  and  C_14
    9  A    between atoms: S_12  and  C_17
   10  A    between atoms: C_19  and  O_37
   11  A    between atoms: C_27  and  C_30
                            x       y       z     vdW  Elec       q    Type
                         _______ _______ _______ _____ _____    ______ ____

>  <TORSDO>
F 11

$$$$
=
 OpenBabel11052420513D

 43 48  0  0  1  0  0  0  0  0999 V2000
  189.7010  172.3920  141.4750 C   0  0  0  0  0  2  0  0  0  0  0  0
  190.7260  173.5220  141.5870 C   0  0  1  0  0  3  0  0  0  0  0  0
  188.3200  172.9630  141.1590 C   0  0  0  0  0  2  0  0  0  0  0  0
  190.3120  174.5350  142.6530 C   0  0  0  0  0  2  0  0  0  0  0  0
  188.9180  175.0800  142.3630 C   0  0  1  0  0  3  0  0  0  0  0  0
  187.8940  173.9480  142.2430 C   0  0  0  0  0  2  0  0  0  0  0  0
  190.6590  175.5220  147.0450 C   0  0  0  0  0  0  0  0  0  0  0  0
  188.6450  177.6450  142.8580 C   0  0  1  0  0  3  0  0  0  0  0  0
  190.2990  176.8710  145.0610 C   0  0  0  0  0  0  0  0  0  0  0  0
  189.6320  174.6610  146.6520 C   0  0  0  0  0  3  0  0  0  0  0  0
  191.3650  175.2820  148.2570 N   0  0  0  0  0  1  0  0  0  0  0  0
  189.2560  176.0000  144.6650 C   0  0  0  0  0  0  0  0  0  0  0  0
  190.9820  176.6290  146.2560 C   0  0  0  0  0  3  0  0  0  0  0  0
  188.9350  174.8970  145.4650 C   0  0  0  0  0  3  0  0  0  0  0  0
  188.5250  176.1880  143.3600 C   0  0  2  0  0  3  0  0  0  0  0  0
  190.0920  178.1130  142.8670 C   0  0  0  0  0  2  0  0  0  0  0  0
  190.6150  178.1310  144.3020 C   0  0  0  0  0  2  0  0  0  0  0  0
  187.9830  177.9040  141.5120 C   0  0  0  0  0  2  0  0  0  0  0  0
  186.5440  177.4020  141.5270 C   0  0  0  0  0  2  0  0  0  0  0  0
  185.8490  179.3240  144.6410 C   0  0  0  0  0  2  0  0  0  0  0  0
  184.3230  179.1870  144.8260 C   0  0  1  0  0  3  0  0  0  0  0  0
  184.4070  177.8860  142.6520 C   0  0  0  0  0  3  0  0  0  0  0  0
  186.2620  179.3960  143.1680 C   0  0  0  0  0  2  0  0  0  0  0  0
  185.6880  178.2150  142.4440 C   0  0  0  0  0  0  0  0  0  0  0  0
  183.5590  178.7280  143.5660 C   0  0  0  0  0  2  0  0  0  0  0  0
  185.0090  178.6330  146.8560 C   0  0  0  0  0  1  0  0  0  0  0  0
  184.0560  178.3160  145.8850 O   0  0  0  0  0  0  0  0  0  0  0  0
  192.1250  172.9860  141.8650 C   0  0  0  0  0  2  0  0  0  0  0  0
  192.5440  173.0150  143.6390 S   0  0  0  0  0  0  0  0  0  0  0  0
  194.2960  173.3380  143.2750 C   0  0  0  0  0  2  0  0  0  0  0  0
  194.6230  174.7440  143.5040 N   0  0  0  0  0  0  0  0  0  0  0  0
  195.4030  175.4840  142.5370 C   0  0  0  0  0  0  0  0  0  0  0  0
  196.0810  176.4770  142.9190 O   0  0  0  0  0  0  0  0  0  0  0  0
  195.4350  175.1200  141.1000 C   0  0  0  0  0  0  0  0  0  0  0  0
  196.6340  174.1760  139.2050 C   0  0  0  0  0  3  0  0  0  0  0  0
  194.4200  175.0970  138.8890 C   0  0  0  0  0  3  0  0  0  0  0  0
  195.5550  174.4710  138.3680 C   0  0  0  0  0  3  0  0  0  0  0  0
  194.3630  175.4230  140.2460 C   0  0  0  0  0  3  0  0  0  0  0  0
  196.5750  174.5010  140.5640 C   0  0  0  0  0  3  0  0  0  0  0  0
  194.6080  176.5990  145.1710 C   0  0  0  0  0  2  0  0  0  0  0  0
  195.7980  174.6490  146.0420 C   0  0  0  0  0  1  0  0  0  0  0  0
  193.8450  175.4490  144.5330 C   0  0  2  0  0  3  0  0  0  0  0  0
  194.4350  175.3160  145.9490 C   0  0  2  0  0  3  0  0  0  0  0  0
  1  2  1  0  0  0  0
  2 28  1  1  0  0  0
  2  4  1  0  0  0  0
  3  1  1  0  0  0  0
  3  6  1  0  0  0  0
  5  6  1  1  0  0  0
  5  4  1  0  0  0  0
  5 15  1  0  0  0  0
  7 11  1  0  0  0  0
  8 18  1  6  0  0  0
  8 16  1  0  0  0  0
  8 15  1  0  0  0  0
  9 13  1  0  0  0  0
 10  7  1  0  0  0  0
 12  9  2  0  0  0  0
 12 14  1  0  0  0  0
 13  7  2  0  0  0  0
 14 10  2  0  0  0  0
 15 12  1  1  0  0  0
 16 17  1  0  0  0  0
 17  9  1  0  0  0  0
 18 19  1  0  0  0  0
 19 24  1  0  0  0  0
 20 21  1  0  0  0  0
 21 27  1  1  0  0  0
 22 25  1  0  0  0  0
 23 20  1  0  0  0  0
 24 22  2  0  0  0  0
 24 23  1  0  0  0  0
 25 21  1  0  0  0  0
 27 26  1  0  0  0  0
 28 29  1  0  0  0  0
 30 31  1  0  0  0  0
 30 29  1  0  0  0  0
 32 33  2  0  0  0  0
 32 31  1  0  0  0  0
 34 32  1  0  0  0  0
 35 39  2  0  0  0  0
 36 38  1  0  0  0  0
 37 36  2  0  0  0  0
 37 35  1  0  0  0  0
 38 34  2  0  0  0  0
 39 34  1  0  0  0  0
 40 43  1  0  0  0  0
 42 31  1  6  0  0  0
 42 40  1  0  0  0  0
 42 43  1  0  0  0  0
 43 41  1  6  0  0  0
M  END
>  <MODEL>
5

>  <REMARK>
 VINA RESULT:      -6.9      2.299      5.075
  Name = 
  11 active torsions:
  status: ('A' for Active; 'I' for Inactive)
    1  A    between atoms: C_1  and  C_34
    2  A    between atoms: C_1  and  C_35
    3  A    between atoms: C_3  and  N_4
    4  A    between atoms: C_3  and  S_12
    5  A    between atoms: N_4  and  C_22
    6  A    between atoms: C_6  and  C_17
    7  A    between atoms: C_8  and  C_34
    8  A    between atoms: C_11  and  C_14
    9  A    between atoms: S_12  and  C_17
   10  A    between atoms: C_19  and  O_37
   11  A    between atoms: C_27  and  C_30
                            x       y       z     vdW  Elec       q    Type
                         _______ _______ _______ _____ _____    ______ ____

>  <TORSDO>
F 11

$$$$
=
 OpenBabel11052420513D

 43 48  0  0  1  0  0  0  0  0999 V2000
  191.7360  177.6490  143.1380 C   0  0  0  0  0  2  0  0  0  0  0  0
  191.6220  176.1440  142.8880 C   0  0  1  0  0  3  0  0  0  0  0  0
  190.7370  178.0830  144.2070 C   0  0  0  0  0  2  0  0  0  0  0  0
  190.2020  175.7620  142.4770 C   0  0  0  0  0  2  0  0  0  0  0  0
  189.1970  176.2270  143.5240 C   0  0  1  0  0  3  0  0  0  0  0  0
  189.3160  177.7320  143.7780 C   0  0  0  0  0  2  0  0  0  0  0  0
  184.9740  178.1320  145.4450 C   0  0  0  0  0  0  0  0  0  0  0  0
  187.4030  175.6660  141.6880 C   0  0  1  0  0  3  0  0  0  0  0  0
  185.9260  177.5100  143.3010 C   0  0  0  0  0  0  0  0  0  0  0  0
  185.7940  177.2000  146.0860 C   0  0  0  0  0  3  0  0  0  0  0  0
  184.0670  178.9220  146.2050 N   0  0  0  0  0  1  0  0  0  0  0  0
  186.7540  176.5630  143.9500 C   0  0  0  0  0  0  0  0  0  0  0  0
  185.0340  178.2780  144.0570 C   0  0  0  0  0  3  0  0  0  0  0  0
  186.6830  176.4210  145.3410 C   0  0  0  0  0  3  0  0  0  0  0  0
  187.7690  175.7510  143.1870 C   0  0  2  0  0  3  0  0  0  0  0  0
  187.1080  177.0440  141.1150 C   0  0  0  0  0  2  0  0  0  0  0  0
  185.8780  177.6320  141.8030 C   0  0  0  0  0  2  0  0  0  0  0  0
  188.4120  174.9110  140.8350 C   0  0  0  0  0  2  0  0  0  0  0  0
  188.1500  173.4120  140.9120 C   0  0  0  0  0  2  0  0  0  0  0  0
  190.9830  171.0400  140.4390 C   0  0  0  0  0  2  0  0  0  0  0  0
  191.2650  170.5140  141.8630 C   0  0  1  0  0  3  0  0  0  0  0  0
  189.4190  172.1020  142.5680 C   0  0  0  0  0  3  0  0  0  0  0  0
  190.5360  172.5050  140.4280 C   0  0  0  0  0  2  0  0  0  0  0  0
  189.3660  172.6630  141.3530 C   0  0  0  0  0  0  0  0  0  0  0  0
  190.6590  171.3670  142.9970 C   0  0  0  0  0  2  0  0  0  0  0  0
  191.9820  168.4300  142.0670 C   0  0  0  0  0  1  0  0  0  0  0  0
  190.8180  169.1960  141.9710 O   0  0  0  0  0  0  0  0  0  0  0  0
  192.6330  175.6680  141.8520 C   0  0  0  0  0  2  0  0  0  0  0  0
  194.3510  175.7740  142.4530 S   0  0  0  0  0  0  0  0  0  0  0  0
  193.9890  174.6650  143.8470 C   0  0  0  0  0  2  0  0  0  0  0  0
  194.5810  175.1750  145.0830 N   0  0  0  0  0  0  0  0  0  0  0  0
  193.7420  175.7160  146.1300 C   0  0  0  0  0  0  0  0  0  0  0  0
  194.2230  176.5650  146.9300 O   0  0  0  0  0  0  0  0  0  0  0  0
  192.3280  175.3080  146.3030 C   0  0  0  0  0  0  0  0  0  0  0  0
  190.4950  173.8130  145.7290 C   0  0  0  0  0  3  0  0  0  0  0  0
  190.1150  175.6520  147.2530 C   0  0  0  0  0  3  0  0  0  0  0  0
  189.6360  174.5400  146.5580 C   0  0  0  0  0  3  0  0  0  0  0  0
  191.4520  176.0360  147.1230 C   0  0  0  0  0  3  0  0  0  0  0  0
  191.8330  174.1970  145.6010 C   0  0  0  0  0  3  0  0  0  0  0  0
  196.5000  173.7350  144.4030 C   0  0  0  0  0  2  0  0  0  0  0  0
  194.8700  172.4630  145.7060 C   0  0  0  0  0  1  0  0  0  0  0  0
  195.9710  174.7870  145.3640 C   0  0  2  0  0  3  0  0  0  0  0  0
  196.1220  173.3190  145.8040 C   0  0  2  0  0  3  0  0  0  0  0  0
  1  3  1  0  0  0  0
  2 28  1  6  0  0  0
  2  1  1  0  0  0  0
  4  2  1  0  0  0  0
  5  4  1  6  0  0  0
  5  6  1  0  0  0  0
  6  3  1  0  0  0  0
  7 10  1  0  0  0  0
  7 11  1  0  0  0  0
  8 18  1  6  0  0  0
  8 15  1  0  0  0  0
  9 12  2  0  0  0  0
  9 13  1  0  0  0  0
 12 14  1  0  0  0  0
 13  7  2  0  0  0  0
 14 10  2  0  0  0  0
 15  5  1  0  0  0  0
 15 12  1  1  0  0  0
 16  8  1  0  0  0  0
 16 17  1  0  0  0  0
 17  9  1  0  0  0  0
 18 19  1  0  0  0  0
 19 24  1  0  0  0  0
 20 21  1  0  0  0  0
 21 27  1  6  0  0  0
 21 25  1  0  0  0  0
 22 25  1  0  0  0  0
 23 20  1  0  0  0  0
 23 24  1  0  0  0  0
 24 22  2  0  0  0  0
 27 26  1  0  0  0  0
 28 29  1  0  0  0  0
 29 30  1  0  0  0  0
 30 31  1  0  0  0  0
 31 32  1  0  0  0  0
 32 34  1  0  0  0  0
 32 33  2  0  0  0  0
 34 38  1  0  0  0  0
 35 37  2  0  0  0  0
 37 36  1  0  0  0  0
 38 36  2  0  0  0  0
 39 35  1  0  0  0  0
 39 34  2  0  0  0  0
 40 42  1  0  0  0  0
 40 43  1  0  0  0  0
 42 31  1  6  0  0  0
 42 43  1  0  0  0  0
 43 41  1  6  0  0  0
M  END
>  <MODEL>
6

>  <REMARK>
 VINA RESULT:      -6.9      2.644      5.565
  Name = 
  11 active torsions:
  status: ('A' for Active; 'I' for Inactive)
    1  A    between atoms: C_1  and  C_34
    2  A    between atoms: C_1  and  C_35
    3  A    between atoms: C_3  and  N_4
    4  A    between atoms: C_3  and  S_12
    5  A    between atoms: N_4  and  C_22
    6  A    between atoms: C_6  and  C_17
    7  A    between atoms: C_8  and  C_34
    8  A    between atoms: C_11  and  C_14
    9  A    between atoms: S_12  and  C_17
   10  A    between atoms: C_19  and  O_37
   11  A    between atoms: C_27  and  C_30
                            x       y       z     vdW  Elec       q    Type
                         _______ _______ _______ _____ _____    ______ ____

>  <TORSDO>
F 11

$$$$
=
 OpenBabel11052420513D

 43 48  0  0  1  0  0  0  0  0999 V2000
  191.3010  174.9170  141.8180 C   0  0  0  0  0  2  0  0  0  0  0  0
  190.3660  174.2650  142.8380 C   0  0  1  0  0  3  0  0  0  0  0  0
  192.2110  175.9290  142.5100 C   0  0  0  0  0  2  0  0  0  0  0  0
  189.5340  175.3150  143.5710 C   0  0  0  0  0  2  0  0  0  0  0  0
  190.4380  176.3490  144.2320 C   0  0  1  0  0  3  0  0  0  0  0  0
  191.3790  176.9970  143.2120 C   0  0  0  0  0  2  0  0  0  0  0  0
  185.7240  177.7810  143.2940 C   0  0  0  0  0  0  0  0  0  0  0  0
  189.5610  177.0890  146.5950 C   0  0  1  0  0  3  0  0  0  0  0  0
  187.1000  177.0090  145.1370 C   0  0  0  0  0  0  0  0  0  0  0  0
  186.8560  178.2920  142.6550 C   0  0  0  0  0  3  0  0  0  0  0  0
  184.4440  177.9160  142.6880 N   0  0  0  0  0  1  0  0  0  0  0  0
  188.2470  177.5300  144.4920 C   0  0  0  0  0  0  0  0  0  0  0  0
  185.8460  177.1510  144.5350 C   0  0  0  0  0  3  0  0  0  0  0  0
  188.1130  178.1640  143.2510 C   0  0  0  0  0  3  0  0  0  0  0  0
  189.6260  177.3540  145.0740 C   0  0  2  0  0  3  0  0  0  0  0  0
  188.5720  175.9790  146.9180 C   0  0  0  0  0  2  0  0  0  0  0  0
  187.1640  176.4160  146.5180 C   0  0  0  0  0  2  0  0  0  0  0  0
  190.9120  176.8420  147.2500 C   0  0  0  0  0  2  0  0  0  0  0  0
  191.3850  175.4230  146.9620 C   0  0  0  0  0  2  0  0  0  0  0  0
  194.5400  176.8960  145.6390 C   0  0  0  0  0  2  0  0  0  0  0  0
  195.3150  175.6780  145.0940 C   0  0  1  0  0  3  0  0  0  0  0  0
  193.3510  174.3290  145.9580 C   0  0  0  0  0  3  0  0  0  0  0  0
  193.7180  176.5630  146.8870 C   0  0  0  0  0  2  0  0  0  0  0  0
  192.8320  175.3900  146.5870 C   0  0  0  0  0  0  0  0  0  0  0  0
  194.8130  174.3110  145.6060 C   0  0  0  0  0  2  0  0  0  0  0  0
  196.3850  176.4920  143.3350 C   0  0  0  0  0  1  0  0  0  0  0  0
  195.2950  175.6970  143.6970 O   0  0  0  0  0  0  0  0  0  0  0  0
  189.4670  173.2200  142.1870 C   0  0  0  0  0  2  0  0  0  0  0  0
  189.6930  171.5600  142.9070 S   0  0  0  0  0  0  0  0  0  0  0  0
  191.4930  171.7930  143.0160 C   0  0  0  0  0  2  0  0  0  0  0  0
  192.2000  170.6530  142.4340 N   0  0  0  0  0  0  0  0  0  0  0  0
  192.2880  170.4970  140.9990 C   0  0  0  0  0  0  0  0  0  0  0  0
  192.4400  169.3440  140.5110 O   0  0  0  0  0  0  0  0  0  0  0  0
  192.2080  171.6500  140.0710 C   0  0  0  0  0  0  0  0  0  0  0  0
  190.9420  172.9480  138.4480 C   0  0  0  0  0  3  0  0  0  0  0  0
  193.2240  173.5630  138.9610 C   0  0  0  0  0  3  0  0  0  0  0  0
  192.0400  173.7900  138.2560 C   0  0  0  0  0  3  0  0  0  0  0  0
  193.3080  172.4960  139.8610 C   0  0  0  0  0  3  0  0  0  0  0  0
  191.0270  171.8820  139.3490 C   0  0  0  0  0  3  0  0  0  0  0  0
  193.4420  170.6640  144.5970 C   0  0  0  0  0  2  0  0  0  0  0  0
  194.6310  171.9570  142.8980 C   0  0  0  0  0  1  0  0  0  0  0  0
  193.1010  169.9060  143.3240 C   0  0  2  0  0  3  0  0  0  0  0  0
  194.4790  170.5710  143.5020 C   0  0  2  0  0  3  0  0  0  0  0  0
  1  3  1  0  0  0  0
  1  2  1  0  0  0  0
  2 28  1  6  0  0  0
  2  4  1  0  0  0  0
  3  6  1  0  0  0  0
  4  5  1  0  0  0  0
  5  6  1  6  0  0  0
  5 15  1  0  0  0  0
  7 13  1  0  0  0  0
  8 16  1  0  0  0  0
  8 18  1  6  0  0  0
  9 17  1  0  0  0  0
 10 14  1  0  0  0  0
 10  7  2  0  0  0  0
 11  7  1  0  0  0  0
 12  9  1  0  0  0  0
 13  9  2  0  0  0  0
 14 12  2  0  0  0  0
 15 12  1  6  0  0  0
 15  8  1  0  0  0  0
 17 16  1  0  0  0  0
 19 18  1  0  0  0  0
 20 23  1  0  0  0  0
 21 27  1  6  0  0  0
 21 25  1  0  0  0  0
 21 20  1  0  0  0  0
 22 24  2  0  0  0  0
 24 23  1  0  0  0  0
 24 19  1  0  0  0  0
 25 22  1  0  0  0  0
 26 27  1  0  0  0  0
 28 29  1  0  0  0  0
 29 30  1  0  0  0  0
 31 30  1  0  0  0  0
 32 31  1  0  0  0  0
 33 32  2  0  0  0  0
 34 32  1  0  0  0  0
 35 39  1  0  0  0  0
 36 38  2  0  0  0  0
 37 35  2  0  0  0  0
 37 36  1  0  0  0  0
 38 34  1  0  0  0  0
 39 34  2  0  0  0  0
 42 31  1  6  0  0  0
 42 43  1  0  0  0  0
 42 40  1  0  0  0  0
 43 41  1  6  0  0  0
 43 40  1  0  0  0  0
M  END
>  <MODEL>
7

>  <REMARK>
 VINA RESULT:      -6.9      2.825      6.244
  Name = 
  11 active torsions:
  status: ('A' for Active; 'I' for Inactive)
    1  A    between atoms: C_1  and  C_34
    2  A    between atoms: C_1  and  C_35
    3  A    between atoms: C_3  and  N_4
    4  A    between atoms: C_3  and  S_12
    5  A    between atoms: N_4  and  C_22
    6  A    between atoms: C_6  and  C_17
    7  A    between atoms: C_8  and  C_34
    8  A    between atoms: C_11  and  C_14
    9  A    between atoms: S_12  and  C_17
   10  A    between atoms: C_19  and  O_37
   11  A    between atoms: C_27  and  C_30
                            x       y       z     vdW  Elec       q    Type
                         _______ _______ _______ _____ _____    ______ ____

>  <TORSDO>
F 11

$$$$
=
 OpenBabel11052420513D

 43 48  0  0  1  0  0  0  0  0999 V2000
  192.3610  177.2750  142.9800 C   0  0  0  0  0  2  0  0  0  0  0  0
  191.9510  175.8020  143.0190 C   0  0  1  0  0  3  0  0  0  0  0  0
  191.5450  178.0760  143.9920 C   0  0  0  0  0  2  0  0  0  0  0  0
  190.4570  175.6400  142.7460 C   0  0  0  0  0  2  0  0  0  0  0  0
  189.6390  176.4680  143.7300 C   0  0  1  0  0  3  0  0  0  0  0  0
  190.0550  177.9420  143.6970 C   0  0  0  0  0  2  0  0  0  0  0  0
  186.0460  178.1750  146.7840 C   0  0  0  0  0  0  0  0  0  0  0  0
  187.5330  176.5790  142.1640 C   0  0  1  0  0  3  0  0  0  0  0  0
  186.5750  178.0580  144.4190 C   0  0  0  0  0  0  0  0  0  0  0  0
  186.8200  177.0360  147.0190 C   0  0  0  0  0  3  0  0  0  0  0  0
  185.3770  178.8150  147.8640 N   0  0  0  0  0  1  0  0  0  0  0  0
  187.3560  176.9020  144.6560 C   0  0  0  0  0  0  0  0  0  0  0  0
  185.9170  178.6760  145.4860 C   0  0  0  0  0  3  0  0  0  0  0  0
  187.4740  176.4030  145.9590 C   0  0  0  0  0  3  0  0  0  0  0  0
  188.1260  176.2310  143.5480 C   0  0  2  0  0  3  0  0  0  0  0  0
  187.3440  178.0810  142.0090 C   0  0  0  0  0  2  0  0  0  0  0  0
  186.3200  178.5760  143.0290 C   0  0  0  0  0  2  0  0  0  0  0  0
  188.2920  175.9870  140.9860 C   0  0  0  0  0  2  0  0  0  0  0  0
  187.5740  174.7500  140.4630 C   0  0  0  0  0  2  0  0  0  0  0  0
  188.7680  172.2870  142.9880 C   0  0  0  0  0  2  0  0  0  0  0  0
  189.9870  171.6250  142.3100 C   0  0  1  0  0  3  0  0  0  0  0  0
  189.4090  173.1120  140.3400 C   0  0  0  0  0  3  0  0  0  0  0  0
  187.6640  172.6530  141.9930 C   0  0  0  0  0  2  0  0  0  0  0  0
  188.2540  173.4930  140.8990 C   0  0  0  0  0  0  0  0  0  0  0  0
  190.0680  171.8340  140.7830 C   0  0  0  0  0  2  0  0  0  0  0  0
  190.8170  172.2990  144.2480 C   0  0  0  0  0  1  0  0  0  0  0  0
  191.1620  172.0790  142.9130 O   0  0  0  0  0  0  0  0  0  0  0  0
  192.7720  174.9650  142.0460 C   0  0  0  0  0  2  0  0  0  0  0  0
  194.5590  175.0330  142.4030 S   0  0  0  0  0  0  0  0  0  0  0  0
  194.5330  173.3670  143.1300 C   0  0  0  0  0  2  0  0  0  0  0  0
  195.6120  173.2080  144.1030 N   0  0  0  0  0  0  0  0  0  0  0  0
  195.7260  174.1100  145.2280 C   0  0  0  0  0  0  0  0  0  0  0  0
  196.8550  174.2970  145.7590 O   0  0  0  0  0  0  0  0  0  0  0  0
  194.5570  174.8290  145.7890 C   0  0  0  0  0  0  0  0  0  0  0  0
  193.5900  176.8720  146.6910 C   0  0  0  0  0  3  0  0  0  0  0  0
  192.2560  174.8580  146.5790 C   0  0  0  0  0  3  0  0  0  0  0  0
  192.3800  176.2090  146.9100 C   0  0  0  0  0  3  0  0  0  0  0  0
  193.3400  174.1710  146.0250 C   0  0  0  0  0  3  0  0  0  0  0  0
  194.6740  176.1840  146.1360 C   0  0  0  0  0  3  0  0  0  0  0  0
  195.5620  170.8220  143.3830 C   0  0  0  0  0  2  0  0  0  0  0  0
  194.2060  171.1590  145.3880 C   0  0  0  0  0  1  0  0  0  0  0  0
  196.3260  171.9230  144.1010 C   0  0  2  0  0  3  0  0  0  0  0  0
  195.6020  170.8180  144.8930 C   0  0  2  0  0  3  0  0  0  0  0  0
  1  2  1  0  0  0  0
  1  3  1  0  0  0  0
  2 28  1  6  0  0  0
  4  2  1  0  0  0  0
  5  4  1  6  0  0  0
  6  5  1  0  0  0  0
  6  3  1  0  0  0  0
  7 10  1  0  0  0  0
  7 11  1  0  0  0  0
  8 18  1  6  0  0  0
  8 15  1  0  0  0  0
  9 12  2  0  0  0  0
  9 13  1  0  0  0  0
 12 14  1  0  0  0  0
 13  7  2  0  0  0  0
 14 10  2  0  0  0  0
 15  5  1  0  0  0  0
 15 12  1  1  0  0  0
 16  8  1  0  0  0  0
 16 17  1  0  0  0  0
 17  9  1  0  0  0  0
 19 24  1  0  0  0  0
 19 18  1  0  0  0  0
 21 27  1  1  0  0  0
 21 20  1  0  0  0  0
 22 25  1  0  0  0  0
 22 24  2  0  0  0  0
 23 20  1  0  0  0  0
 24 23  1  0  0  0  0
 25 21  1  0  0  0  0
 27 26  1  0  0  0  0
 28 29  1  0  0  0  0
 29 30  1  0  0  0  0
 30 31  1  0  0  0  0
 31 32  1  0  0  0  0
 32 33  2  0  0  0  0
 32 34  1  0  0  0  0
 34 38  2  0  0  0  0
 34 39  1  0  0  0  0
 35 37  1  0  0  0  0
 36 37  2  0  0  0  0
 38 36  1  0  0  0  0
 39 35  2  0  0  0  0
 40 42  1  0  0  0  0
 40 43  1  0  0  0  0
 42 31  1  1  0  0  0
 42 43  1  0  0  0  0
 43 41  1  1  0  0  0
M  END
>  <MODEL>
8

>  <REMARK>
 VINA RESULT:      -6.8      2.305      4.871
  Name = 
  11 active torsions:
  status: ('A' for Active; 'I' for Inactive)
    1  A    between atoms: C_1  and  C_34
    2  A    between atoms: C_1  and  C_35
    3  A    between atoms: C_3  and  N_4
    4  A    between atoms: C_3  and  S_12
    5  A    between atoms: N_4  and  C_22
    6  A    between atoms: C_6  and  C_17
    7  A    between atoms: C_8  and  C_34
    8  A    between atoms: C_11  and  C_14
    9  A    between atoms: S_12  and  C_17
   10  A    between atoms: C_19  and  O_37
   11  A    between atoms: C_27  and  C_30
                            x       y       z     vdW  Elec       q    Type
                         _______ _______ _______ _____ _____    ______ ____

>  <TORSDO>
F 11

$$$$
=
 OpenBabel11052420513D

 43 48  0  0  1  0  0  0  0  0999 V2000
  189.4080  173.7110  146.6620 C   0  0  0  0  0  2  0  0  0  0  0  0
  189.8050  173.7160  145.1850 C   0  0  1  0  0  3  0  0  0  0  0  0
  189.1270  175.1340  147.1380 C   0  0  0  0  0  2  0  0  0  0  0  0
  191.0220  174.6070  144.9460 C   0  0  0  0  0  2  0  0  0  0  0  0
  190.7600  176.0200  145.4540 C   0  0  1  0  0  3  0  0  0  0  0  0
  190.3560  176.0140  146.9310 C   0  0  0  0  0  2  0  0  0  0  0  0
  195.5500  174.6370  144.9130 C   0  0  0  0  0  0  0  0  0  0  0  0
  191.7450  177.8910  143.8950 C   0  0  1  0  0  3  0  0  0  0  0  0
  193.8600  175.9670  143.7880 C   0  0  0  0  0  0  0  0  0  0  0  0
  194.9150  174.8570  146.1380 C   0  0  0  0  0  3  0  0  0  0  0  0
  196.7350  173.8530  144.8580 N   0  0  0  0  0  1  0  0  0  0  0  0
  193.2190  176.1930  145.0290 C   0  0  0  0  0  0  0  0  0  0  0  0
  195.0290  175.2000  143.7460 C   0  0  0  0  0  3  0  0  0  0  0  0
  193.7520  175.6300  146.1950 C   0  0  0  0  0  3  0  0  0  0  0  0
  191.9300  176.9680  145.1200 C   0  0  2  0  0  3  0  0  0  0  0  0
  191.9570  177.1280  142.5950 C   0  0  0  0  0  2  0  0  0  0  0  0
  193.4000  176.6340  142.5210 C   0  0  0  0  0  2  0  0  0  0  0  0
  190.4350  178.6660  143.8810 C   0  0  0  0  0  2  0  0  0  0  0  0
  189.5400  178.1680  142.7540 C   0  0  0  0  0  2  0  0  0  0  0  0
  185.9420  179.0440  143.1550 C   0  0  0  0  0  2  0  0  0  0  0  0
  185.5270  178.3140  144.4500 C   0  0  1  0  0  3  0  0  0  0  0  0
  187.9080  177.4440  144.4510 C   0  0  0  0  0  3  0  0  0  0  0  0
  186.9770  178.2620  142.3410 C   0  0  0  0  0  2  0  0  0  0  0  0
  188.1420  177.9300  143.2260 C   0  0  0  0  0  0  0  0  0  0  0  0
  186.4930  177.1970  144.8990 C   0  0  0  0  0  2  0  0  0  0  0  0
  184.4270  178.6660  146.3380 C   0  0  0  0  0  1  0  0  0  0  0  0
  185.3650  179.2430  145.4800 O   0  0  0  0  0  0  0  0  0  0  0  0
  190.0570  172.3060  144.6660 C   0  0  0  0  0  2  0  0  0  0  0  0
  191.7780  172.0620  144.1170 S   0  0  0  0  0  0  0  0  0  0  0  0
  191.2690  170.8110  142.8990 C   0  0  0  0  0  2  0  0  0  0  0  0
  191.7600  171.1530  141.5660 N   0  0  0  0  0  0  0  0  0  0  0  0
  190.9220  171.8820  140.6390 C   0  0  0  0  0  0  0  0  0  0  0  0
  191.1170  171.7550  139.4000 O   0  0  0  0  0  0  0  0  0  0  0  0
  189.8350  172.7820  141.0930 C   0  0  0  0  0  0  0  0  0  0  0  0
  189.0930  175.0070  141.7400 C   0  0  0  0  0  3  0  0  0  0  0  0
  187.5470  173.1490  141.8340 C   0  0  0  0  0  3  0  0  0  0  0  0
  187.8170  174.5080  142.0120 C   0  0  0  0  0  3  0  0  0  0  0  0
  188.5530  172.2910  141.3820 C   0  0  0  0  0  3  0  0  0  0  0  0
  190.0970  174.1480  141.2860 C   0  0  0  0  0  3  0  0  0  0  0  0
  193.5770  170.7880  139.8980 C   0  0  0  0  0  2  0  0  0  0  0  0
  192.5770  168.6660  140.5810 C   0  0  0  0  0  1  0  0  0  0  0  0
  193.2120  171.0610  141.3480 C   0  0  2  0  0  3  0  0  0  0  0  0
  193.6770  169.6630  140.9000 C   0  0  2  0  0  3  0  0  0  0  0  0
  1  3  1  0  0  0  0
  2 28  1  1  0  0  0
  2  1  1  0  0  0  0
  4  2  1  0  0  0  0
  5  4  1  1  0  0  0
  5  6  1  0  0  0  0
  6  3  1  0  0  0  0
  7 10  1  0  0  0  0
  8 18  1  6  0  0  0
  8 15  1  0  0  0  0
  9 12  2  0  0  0  0
 10 14  2  0  0  0  0
 11  7  1  0  0  0  0
 12 14  1  0  0  0  0
 13  9  1  0  0  0  0
 13  7  2  0  0  0  0
 15 12  1  6  0  0  0
 15  5  1  0  0  0  0
 16  8  1  0  0  0  0
 17 16  1  0  0  0  0
 17  9  1  0  0  0  0
 19 24  1  0  0  0  0
 19 18  1  0  0  0  0
 20 21  1  0  0  0  0
 21 25  1  0  0  0  0
 21 27  1  1  0  0  0
 22 25  1  0  0  0  0
 23 20  1  0  0  0  0
 23 24  1  0  0  0  0
 24 22  2  0  0  0  0
 27 26  1  0  0  0  0
 29 28  1  0  0  0  0
 30 29  1  0  0  0  0
 31 30  1  0  0  0  0
 32 34  1  0  0  0  0
 32 31  1  0  0  0  0
 33 32  2  0  0  0  0
 34 39  2  0  0  0  0
 34 38  1  0  0  0  0
 35 37  2  0  0  0  0
 36 37  1  0  0  0  0
 38 36  2  0  0  0  0
 39 35  1  0  0  0  0
 40 43  1  0  0  0  0
 40 42  1  0  0  0  0
 42 31  1  6  0  0  0
 43 41  1  6  0  0  0
 43 42  1  0  0  0  0
M  END
>  <MODEL>
9

>  <REMARK>
 VINA RESULT:      -6.8      2.298      5.411
  Name = 
  11 active torsions:
  status: ('A' for Active; 'I' for Inactive)
    1  A    between atoms: C_1  and  C_34
    2  A    between atoms: C_1  and  C_35
    3  A    between atoms: C_3  and  N_4
    4  A    between atoms: C_3  and  S_12
    5  A    between atoms: N_4  and  C_22
    6  A    between atoms: C_6  and  C_17
    7  A    between atoms: C_8  and  C_34
    8  A    between atoms: C_11  and  C_14
    9  A    between atoms: S_12  and  C_17
   10  A    between atoms: C_19  and  O_37
   11  A    between atoms: C_27  and  C_30
                            x       y       z     vdW  Elec       q    Type
                         _______ _______ _______ _____ _____    ______ ____

>  <TORSDO>
F 11

$$$$
