=
 OpenBabel11052417343D

 25 28  0  0  1  0  0  0  0  0999 V2000
  190.2850  174.6070  143.7200 C   0  0  0  0  0  0  0  0  0  0  0  0
  189.4310  175.0750  142.7140 C   0  0  0  0  0  0  0  0  0  0  0  0
  190.8990  172.7730  142.3470 C   0  0  0  0  0  3  0  0  0  0  0  0
  190.0690  173.2070  141.3620 N   0  0  0  0  0  0  0  0  0  0  0  0
  188.4760  174.8040  140.5200 C   0  0  0  0  0  0  0  0  0  0  0  0
  188.2940  173.9380  139.0040 Cl  0  0  0  0  0  0  0  0  0  0  0  0
  188.7010  176.2120  142.8700 N   0  0  0  0  0  0  0  0  0  0  0  0
  191.0020  173.4680  143.5100 N   0  0  0  0  0  0  0  0  0  0  0  0
  187.7640  175.9440  140.7240 N   0  0  0  0  0  0  0  0  0  0  0  0
  187.8770  176.6490  141.8810 C   0  0  0  0  0  0  0  0  0  0  0  0
  189.3360  174.3400  141.5210 C   0  0  0  0  0  0  0  0  0  0  0  0
  190.4270  175.3520  145.0150 C   0  0  1  0  0  3  0  0  0  0  0  0
  188.3890  176.6260  146.5250 C   0  0  0  0  0  1  0  0  0  0  0  0
  189.8530  174.5260  146.1710 C   0  0  2  0  0  3  0  0  0  0  0  0
  188.7360  175.2110  146.9710 C   0  0  1  0  0  3  0  0  0  0  0  0
  190.1580  175.1940  147.4970 C   0  0  0  0  0  2  0  0  0  0  0  0
  191.7750  175.6340  145.2530 O   0  0  0  0  0  0  0  0  0  0  0  0
  191.9800  176.8990  144.6980 C   0  0  0  0  0  1  0  0  0  0  0  0
  187.0640  177.8770  142.0840 C   0  0  0  0  0  2  0  0  0  0  0  0
  185.6040  177.4950  142.3320 C   0  0  0  0  0  2  0  0  0  0  0  0
  184.9110  178.4340  143.2200 N   0  0  0  0  0  0  0  0  0  0  0  0
  183.5890  178.4170  142.9120 O   0  0  0  0  0  1  0  0  0  0  0  0
  185.0520  177.9920  144.6030 C   0  0  0  0  0  3  0  0  0  0  0  0
  184.1230  178.7990  145.4900 C   0  0  0  0  0  2  0  0  0  0  0  0
  185.5980  179.1300  145.4450 C   0  0  0  0  0  2  0  0  0  0  0  0
  1 12  1  0  0  0  0
  2  7  1  0  0  0  0
  2  1  2  0  0  0  0
  3  8  2  0  0  0  0
  4 11  2  0  0  0  0
  4  3  1  0  0  0  0
  5  9  2  0  0  0  0
  5 11  1  0  0  0  0
  6  5  1  0  0  0  0
  8  1  1  0  0  0  0
  9 10  1  0  0  0  0
 10 19  1  0  0  0  0
 10  7  2  0  0  0  0
 11  2  1  0  0  0  0
 12 17  1  1  0  0  0
 14 12  1  6  0  0  0
 14 15  1  0  0  0  0
 14 16  1  0  0  0  0
 15 13  1  6  0  0  0
 15 16  1  0  0  0  0
 18 17  1  0  0  0  0
 19 20  1  0  0  0  0
 20 21  1  0  0  0  0
 21 23  1  0  0  0  0
 22 21  1  0  0  0  0
 23 25  1  0  0  0  0
 23 24  1  0  0  0  0
 25 24  1  0  0  0  0
M  END
>  <MODEL>
1

>  <REMARK>
 VINA RESULT:      -6.2      0.000      0.000
  Name = 
  7 active torsions:
  status: ('A' for Active; 'I' for Inactive)
    1  A    between atoms: C_1  and  C_5
    2  A    between atoms: C_2  and  N_21
    3  A    between atoms: C_5  and  C_10
    4  A    between atoms: C_5  and  O_17
    5  A    between atoms: C_6  and  C_15
    6  A    between atoms: C_6  and  C_23
    7  A    between atoms: C_15  and  N_21
                            x       y       z     vdW  Elec       q    Type
                         _______ _______ _______ _____ _____    ______ ____

>  <TORSDO>
F 7

$$$$
=
 OpenBabel11052417343D

 25 28  0  0  1  0  0  0  0  0999 V2000
  189.9960  175.8100  142.8960 C   0  0  0  0  0  0  0  0  0  0  0  0
  190.0170  175.9550  144.2890 C   0  0  0  0  0  0  0  0  0  0  0  0
  192.3670  175.8510  142.8550 C   0  0  0  0  0  3  0  0  0  0  0  0
  192.4080  176.0010  144.2050 N   0  0  0  0  0  0  0  0  0  0  0  0
  191.2810  176.2080  146.3230 C   0  0  0  0  0  0  0  0  0  0  0  0
  192.7940  176.3490  147.2010 Cl  0  0  0  0  0  0  0  0  0  0  0  0
  188.8710  176.0030  145.0190 N   0  0  0  0  0  0  0  0  0  0  0  0
  191.1730  175.7560  142.2130 N   0  0  0  0  0  0  0  0  0  0  0  0
  190.1080  176.2550  147.0090 N   0  0  0  0  0  0  0  0  0  0  0  0
  188.9130  176.1460  146.3700 C   0  0  0  0  0  0  0  0  0  0  0  0
  191.2620  176.0540  144.9320 C   0  0  0  0  0  0  0  0  0  0  0  0
  188.6960  175.6970  142.1560 C   0  0  1  0  0  3  0  0  0  0  0  0
  186.0480  176.4530  142.8470 C   0  0  0  0  0  1  0  0  0  0  0  0
  188.2510  177.0720  141.6470 C   0  0  2  0  0  3  0  0  0  0  0  0
  186.8260  177.4850  142.0420 C   0  0  1  0  0  3  0  0  0  0  0  0
  187.1090  176.9260  140.6620 C   0  0  0  0  0  2  0  0  0  0  0  0
  188.8370  174.8150  141.0820 O   0  0  0  0  0  0  0  0  0  0  0  0
  188.3570  173.5920  141.5570 C   0  0  0  0  0  1  0  0  0  0  0  0
  187.6470  176.2280  147.1450 C   0  0  0  0  0  2  0  0  0  0  0  0
  187.0370  177.6230  146.9940 C   0  0  0  0  0  2  0  0  0  0  0  0
  185.9310  177.6610  146.0330 N   0  0  0  0  0  0  0  0  0  0  0  0
  185.0030  176.7470  146.4130 O   0  0  0  0  0  1  0  0  0  0  0  0
  185.3010  178.9760  146.0670 C   0  0  0  0  0  3  0  0  0  0  0  0
  184.1220  178.9980  145.1130 C   0  0  0  0  0  2  0  0  0  0  0  0
  185.4320  179.6360  144.7060 C   0  0  0  0  0  2  0  0  0  0  0  0
  1  2  1  0  0  0  0
  2 11  2  0  0  0  0
  2  7  1  0  0  0  0
  3  4  2  0  0  0  0
  4 11  1  0  0  0  0
  5  9  2  0  0  0  0
  5  6  1  0  0  0  0
  7 10  2  0  0  0  0
  8  3  1  0  0  0  0
  8  1  2  0  0  0  0
 10  9  1  0  0  0  0
 10 19  1  0  0  0  0
 11  5  1  0  0  0  0
 12 17  1  6  0  0  0
 12  1  1  0  0  0  0
 14 15  1  0  0  0  0
 14 12  1  1  0  0  0
 15 13  1  1  0  0  0
 16 14  1  0  0  0  0
 16 15  1  0  0  0  0
 17 18  1  0  0  0  0
 20 19  1  0  0  0  0
 21 23  1  0  0  0  0
 21 22  1  0  0  0  0
 21 20  1  0  0  0  0
 24 23  1  0  0  0  0
 25 24  1  0  0  0  0
 25 23  1  0  0  0  0
M  END
>  <MODEL>
2

>  <REMARK>
 VINA RESULT:      -6.1      2.910      4.767
  Name = 
  7 active torsions:
  status: ('A' for Active; 'I' for Inactive)
    1  A    between atoms: C_1  and  C_5
    2  A    between atoms: C_2  and  N_21
    3  A    between atoms: C_5  and  C_10
    4  A    between atoms: C_5  and  O_17
    5  A    between atoms: C_6  and  C_15
    6  A    between atoms: C_6  and  C_23
    7  A    between atoms: C_15  and  N_21
                            x       y       z     vdW  Elec       q    Type
                         _______ _______ _______ _____ _____    ______ ____

>  <TORSDO>
F 7

$$$$
=
 OpenBabel11052417343D

 25 28  0  0  1  0  0  0  0  0999 V2000
  188.4850  175.5560  142.1800 C   0  0  0  0  0  0  0  0  0  0  0  0
  188.0320  176.3810  143.2170 C   0  0  0  0  0  0  0  0  0  0  0  0
  187.1840  176.7920  140.6280 C   0  0  0  0  0  3  0  0  0  0  0  0
  186.7280  177.5980  141.6220 N   0  0  0  0  0  0  0  0  0  0  0  0
  186.6750  178.2330  143.9440 C   0  0  0  0  0  0  0  0  0  0  0  0
  185.5430  179.5390  143.6410 Cl  0  0  0  0  0  0  0  0  0  0  0  0
  188.4420  176.2020  144.5010 N   0  0  0  0  0  0  0  0  0  0  0  0
  188.0530  175.7850  140.9090 N   0  0  0  0  0  0  0  0  0  0  0  0
  187.1100  178.0120  145.2130 N   0  0  0  0  0  0  0  0  0  0  0  0
  187.9890  177.0140  145.4940 C   0  0  0  0  0  0  0  0  0  0  0  0
  187.1330  177.4140  142.9060 C   0  0  0  0  0  0  0  0  0  0  0  0
  189.4480  174.4380  142.4520 C   0  0  1  0  0  3  0  0  0  0  0  0
  189.8870  172.5090  144.4880 C   0  0  0  0  0  1  0  0  0  0  0  0
  188.7680  173.0840  142.2310 C   0  0  2  0  0  3  0  0  0  0  0  0
  188.9910  172.0510  143.3450 C   0  0  1  0  0  3  0  0  0  0  0  0
  189.8070  171.9920  142.0690 C   0  0  0  0  0  2  0  0  0  0  0  0
  190.5600  174.5560  141.6150 O   0  0  0  0  0  0  0  0  0  0  0  0
  191.5050  175.2520  142.3710 C   0  0  0  0  0  1  0  0  0  0  0  0
  188.4250  176.7800  146.8960 C   0  0  0  0  0  2  0  0  0  0  0  0
  189.8260  177.3580  147.1050 C   0  0  0  0  0  2  0  0  0  0  0  0
  190.8270  176.3310  147.4140 N   0  0  0  0  0  0  0  0  0  0  0  0
  190.1790  175.1650  147.6620 O   0  0  0  0  0  1  0  0  0  0  0  0
  191.6890  176.1260  146.2560 C   0  0  0  0  0  3  0  0  0  0  0  0
  192.5880  174.9290  146.4990 C   0  0  0  0  0  2  0  0  0  0  0  0
  193.1380  176.3290  146.6600 C   0  0  0  0  0  2  0  0  0  0  0  0
  1 12  1  0  0  0  0
  1  2  1  0  0  0  0
  2  7  1  0  0  0  0
  3  8  1  0  0  0  0
  3  4  2  0  0  0  0
  4 11  1  0  0  0  0
  5  9  2  0  0  0  0
  6  5  1  0  0  0  0
  7 10  2  0  0  0  0
  8  1  2  0  0  0  0
  9 10  1  0  0  0  0
 10 19  1  0  0  0  0
 11  2  2  0  0  0  0
 11  5  1  0  0  0  0
 12 17  1  6  0  0  0
 14 12  1  1  0  0  0
 14 15  1  0  0  0  0
 15 13  1  1  0  0  0
 16 14  1  0  0  0  0
 16 15  1  0  0  0  0
 17 18  1  0  0  0  0
 19 20  1  0  0  0  0
 20 21  1  0  0  0  0
 21 22  1  0  0  0  0
 23 24  1  0  0  0  0
 23 25  1  0  0  0  0
 23 21  1  0  0  0  0
 24 25  1  0  0  0  0
M  END
>  <MODEL>
3

>  <REMARK>
 VINA RESULT:      -6.0      2.970      5.590
  Name = 
  7 active torsions:
  status: ('A' for Active; 'I' for Inactive)
    1  A    between atoms: C_1  and  C_5
    2  A    between atoms: C_2  and  N_21
    3  A    between atoms: C_5  and  C_10
    4  A    between atoms: C_5  and  O_17
    5  A    between atoms: C_6  and  C_15
    6  A    between atoms: C_6  and  C_23
    7  A    between atoms: C_15  and  N_21
                            x       y       z     vdW  Elec       q    Type
                         _______ _______ _______ _____ _____    ______ ____

>  <TORSDO>
F 7

$$$$
=
 OpenBabel11052417343D

 25 28  0  0  1  0  0  0  0  0999 V2000
  187.1230  177.7270  144.6700 C   0  0  0  0  0  0  0  0  0  0  0  0
  187.3450  177.0410  143.4700 C   0  0  0  0  0  0  0  0  0  0  0  0
  185.8090  179.3270  143.5120 C   0  0  0  0  0  3  0  0  0  0  0  0
  186.0200  178.6790  142.3360 N   0  0  0  0  0  0  0  0  0  0  0  0
  187.0040  176.8670  141.0930 C   0  0  0  0  0  0  0  0  0  0  0  0
  186.3340  177.4430  139.5760 Cl  0  0  0  0  0  0  0  0  0  0  0  0
  188.0950  175.9070  143.4250 N   0  0  0  0  0  0  0  0  0  0  0  0
  186.3550  178.8520  144.6630 N   0  0  0  0  0  0  0  0  0  0  0  0
  187.7640  175.7400  141.0980 N   0  0  0  0  0  0  0  0  0  0  0  0
  188.3000  175.2560  142.2500 C   0  0  0  0  0  0  0  0  0  0  0  0
  186.7740  177.5490  142.2920 C   0  0  0  0  0  0  0  0  0  0  0  0
  187.7070  177.2290  145.9600 C   0  0  1  0  0  3  0  0  0  0  0  0
  189.2520  175.0180  146.8440 C   0  0  0  0  0  1  0  0  0  0  0  0
  189.2220  177.4540  145.9810 C   0  0  2  0  0  3  0  0  0  0  0  0
  190.0550  176.2480  146.4390 C   0  0  1  0  0  3  0  0  0  0  0  0
  189.7460  177.3780  147.4010 C   0  0  0  0  0  2  0  0  0  0  0  0
  187.1110  177.8920  147.0360 O   0  0  0  0  0  0  0  0  0  0  0  0
  186.1470  177.0020  147.5160 C   0  0  0  0  0  1  0  0  0  0  0  0
  189.1490  174.0350  142.2180 C   0  0  0  0  0  2  0  0  0  0  0  0
  190.6100  174.4280  141.9920 C   0  0  0  0  0  2  0  0  0  0  0  0
  191.2250  175.0440  143.1720 N   0  0  0  0  0  0  0  0  0  0  0  0
  191.9500  174.0970  143.8190 O   0  0  0  0  0  1  0  0  0  0  0  0
  192.1420  176.0970  142.7520 C   0  0  0  0  0  3  0  0  0  0  0  0
  192.7170  176.7870  143.9740 C   0  0  0  0  0  2  0  0  0  0  0  0
  191.6020  177.4450  143.1920 C   0  0  0  0  0  2  0  0  0  0  0  0
  1 12  1  0  0  0  0
  2  1  2  0  0  0  0
  3  8  2  0  0  0  0
  4  3  1  0  0  0  0
  5  9  2  0  0  0  0
  5 11  1  0  0  0  0
  6  5  1  0  0  0  0
  7  2  1  0  0  0  0
  8  1  1  0  0  0  0
  9 10  1  0  0  0  0
 10  7  2  0  0  0  0
 11  4  2  0  0  0  0
 11  2  1  0  0  0  0
 12 17  1  1  0  0  0
 14 12  1  1  0  0  0
 14 15  1  0  0  0  0
 14 16  1  0  0  0  0
 15 13  1  1  0  0  0
 15 16  1  0  0  0  0
 17 18  1  0  0  0  0
 19 10  1  0  0  0  0
 20 19  1  0  0  0  0
 20 21  1  0  0  0  0
 21 22  1  0  0  0  0
 23 21  1  0  0  0  0
 23 25  1  0  0  0  0
 23 24  1  0  0  0  0
 25 24  1  0  0  0  0
M  END
>  <MODEL>
4

>  <REMARK>
 VINA RESULT:      -5.9      2.008      5.377
  Name = 
  7 active torsions:
  status: ('A' for Active; 'I' for Inactive)
    1  A    between atoms: C_1  and  C_5
    2  A    between atoms: C_2  and  N_21
    3  A    between atoms: C_5  and  C_10
    4  A    between atoms: C_5  and  O_17
    5  A    between atoms: C_6  and  C_15
    6  A    between atoms: C_6  and  C_23
    7  A    between atoms: C_15  and  N_21
                            x       y       z     vdW  Elec       q    Type
                         _______ _______ _______ _____ _____    ______ ____

>  <TORSDO>
F 7

$$$$
=
 OpenBabel11052417343D

 25 28  0  0  1  0  0  0  0  0999 V2000
  186.8720  176.9640  143.2270 C   0  0  0  0  0  0  0  0  0  0  0  0
  187.0550  177.2410  144.5870 C   0  0  0  0  0  0  0  0  0  0  0  0
  184.6300  177.7220  143.3720 C   0  0  0  0  0  3  0  0  0  0  0  0
  184.7850  177.9900  144.6960 N   0  0  0  0  0  0  0  0  0  0  0  0
  186.1530  178.0290  146.6760 C   0  0  0  0  0  0  0  0  0  0  0  0
  184.8470  178.6710  147.6590 Cl  0  0  0  0  0  0  0  0  0  0  0  0
  188.2440  177.0190  145.2080 N   0  0  0  0  0  0  0  0  0  0  0  0
  185.6640  177.2160  142.6510 N   0  0  0  0  0  0  0  0  0  0  0  0
  187.3600  177.7860  147.2530 N   0  0  0  0  0  0  0  0  0  0  0  0
  188.4000  177.2930  146.5300 C   0  0  0  0  0  0  0  0  0  0  0  0
  185.9720  177.7610  145.3150 C   0  0  0  0  0  0  0  0  0  0  0  0
  187.9940  176.4100  142.3990 C   0  0  1  0  0  3  0  0  0  0  0  0
  189.9480  174.4890  143.1420 C   0  0  0  0  0  1  0  0  0  0  0  0
  187.6880  174.9670  141.9840 C   0  0  2  0  0  3  0  0  0  0  0  0
  188.7370  173.9290  142.4070 C   0  0  1  0  0  3  0  0  0  0  0  0
  188.7220  174.4730  140.9920 C   0  0  0  0  0  2  0  0  0  0  0  0
  188.1820  177.2030  141.2640 O   0  0  0  0  0  0  0  0  0  0  0  0
  188.9360  178.2910  141.7080 C   0  0  0  0  0  1  0  0  0  0  0  0
  189.7000  177.0120  147.1950 C   0  0  0  0  0  2  0  0  0  0  0  0
  190.7810  176.7750  146.1390 C   0  0  0  0  0  2  0  0  0  0  0  0
  192.0770  176.4140  146.7210 N   0  0  0  0  0  0  0  0  0  0  0  0
  191.9430  175.2250  147.3600 O   0  0  0  0  0  1  0  0  0  0  0  0
  193.0580  176.2400  145.6550 C   0  0  0  0  0  3  0  0  0  0  0  0
  194.3420  175.6790  146.2350 C   0  0  0  0  0  2  0  0  0  0  0  0
  194.2450  177.1520  145.9050 C   0  0  0  0  0  2  0  0  0  0  0  0
  1  2  1  0  0  0  0
  2  7  1  0  0  0  0
  2 11  2  0  0  0  0
  3  4  2  0  0  0  0
  4 11  1  0  0  0  0
  5  9  2  0  0  0  0
  5  6  1  0  0  0  0
  7 10  2  0  0  0  0
  8  1  2  0  0  0  0
  8  3  1  0  0  0  0
 10 19  1  0  0  0  0
 10  9  1  0  0  0  0
 11  5  1  0  0  0  0
 12 17  1  6  0  0  0
 12  1  1  0  0  0  0
 14 12  1  1  0  0  0
 14 15  1  0  0  0  0
 15 13  1  1  0  0  0
 16 14  1  0  0  0  0
 16 15  1  0  0  0  0
 17 18  1  0  0  0  0
 20 21  1  0  0  0  0
 20 19  1  0  0  0  0
 21 22  1  0  0  0  0
 23 25  1  0  0  0  0
 23 24  1  0  0  0  0
 23 21  1  0  0  0  0
 25 24  1  0  0  0  0
M  END
>  <MODEL>
5

>  <REMARK>
 VINA RESULT:      -5.8      3.161      6.797
  Name = 
  7 active torsions:
  status: ('A' for Active; 'I' for Inactive)
    1  A    between atoms: C_1  and  C_5
    2  A    between atoms: C_2  and  N_21
    3  A    between atoms: C_5  and  C_10
    4  A    between atoms: C_5  and  O_17
    5  A    between atoms: C_6  and  C_15
    6  A    between atoms: C_6  and  C_23
    7  A    between atoms: C_15  and  N_21
                            x       y       z     vdW  Elec       q    Type
                         _______ _______ _______ _____ _____    ______ ____

>  <TORSDO>
F 7

$$$$
=
 OpenBabel11052417343D

 25 28  0  0  1  0  0  0  0  0999 V2000
  186.9840  177.8590  144.9000 C   0  0  0  0  0  0  0  0  0  0  0  0
  187.0800  177.3480  143.6000 C   0  0  0  0  0  0  0  0  0  0  0  0
  185.4690  179.5170  144.1370 C   0  0  0  0  0  3  0  0  0  0  0  0
  185.5560  179.0410  142.8670 N   0  0  0  0  0  0  0  0  0  0  0  0
  186.4480  177.4660  141.2790 C   0  0  0  0  0  0  0  0  0  0  0  0
  185.5680  178.1940  139.9470 Cl  0  0  0  0  0  0  0  0  0  0  0  0
  187.8640  176.2750  143.3110 N   0  0  0  0  0  0  0  0  0  0  0  0
  186.1760  178.9290  145.1380 N   0  0  0  0  0  0  0  0  0  0  0  0
  187.2480  176.3930  141.0390 N   0  0  0  0  0  0  0  0  0  0  0  0
  187.9450  175.7950  142.0420 C   0  0  0  0  0  0  0  0  0  0  0  0
  186.3440  177.9720  142.5800 C   0  0  0  0  0  0  0  0  0  0  0  0
  187.7470  177.2320  146.0300 C   0  0  1  0  0  3  0  0  0  0  0  0
  189.4930  175.1160  146.7570 C   0  0  0  0  0  1  0  0  0  0  0  0
  189.2410  177.5400  145.9000 C   0  0  2  0  0  3  0  0  0  0  0  0
  190.1820  176.3850  146.2740 C   0  0  1  0  0  3  0  0  0  0  0  0
  189.9080  177.5030  147.2610 C   0  0  0  0  0  2  0  0  0  0  0  0
  187.2650  177.7130  147.2510 O   0  0  0  0  0  0  0  0  0  0  0  0
  186.2920  176.7900  147.6400 C   0  0  0  0  0  1  0  0  0  0  0  0
  188.8330  174.6400  141.7430 C   0  0  0  0  0  2  0  0  0  0  0  0
  188.0870  173.3320  142.0120 C   0  0  0  0  0  2  0  0  0  0  0  0
  188.9330  172.3120  142.6400 N   0  0  0  0  0  0  0  0  0  0  0  0
  189.7700  171.8120  141.6970 O   0  0  0  0  0  1  0  0  0  0  0  0
  189.7480  172.9270  143.6810 C   0  0  0  0  0  3  0  0  0  0  0  0
  190.9020  172.0070  144.0320 C   0  0  0  0  0  2  0  0  0  0  0  0
  189.6920  172.0790  144.9380 C   0  0  0  0  0  2  0  0  0  0  0  0
  1  8  1  0  0  0  0
  1 12  1  0  0  0  0
  2  1  2  0  0  0  0
  3  8  2  0  0  0  0
  4  3  1  0  0  0  0
  5 11  1  0  0  0  0
  6  5  1  0  0  0  0
  7  2  1  0  0  0  0
  9  5  2  0  0  0  0
  9 10  1  0  0  0  0
 10  7  2  0  0  0  0
 11  4  2  0  0  0  0
 11  2  1  0  0  0  0
 12 17  1  1  0  0  0
 14 12  1  1  0  0  0
 14 15  1  0  0  0  0
 14 16  1  0  0  0  0
 15 13  1  1  0  0  0
 15 16  1  0  0  0  0
 17 18  1  0  0  0  0
 19 20  1  0  0  0  0
 19 10  1  0  0  0  0
 20 21  1  0  0  0  0
 21 23  1  0  0  0  0
 22 21  1  0  0  0  0
 23 24  1  0  0  0  0
 23 25  1  0  0  0  0
 24 25  1  0  0  0  0
M  END
>  <MODEL>
6

>  <REMARK>
 VINA RESULT:      -5.7      2.382      5.574
  Name = 
  7 active torsions:
  status: ('A' for Active; 'I' for Inactive)
    1  A    between atoms: C_1  and  C_5
    2  A    between atoms: C_2  and  N_21
    3  A    between atoms: C_5  and  C_10
    4  A    between atoms: C_5  and  O_17
    5  A    between atoms: C_6  and  C_15
    6  A    between atoms: C_6  and  C_23
    7  A    between atoms: C_15  and  N_21
                            x       y       z     vdW  Elec       q    Type
                         _______ _______ _______ _____ _____    ______ ____

>  <TORSDO>
F 7

$$$$
=
 OpenBabel11052417343D

 25 28  0  0  1  0  0  0  0  0999 V2000
  187.0880  177.7800  144.6580 C   0  0  0  0  0  0  0  0  0  0  0  0
  187.3320  177.1160  143.4490 C   0  0  0  0  0  0  0  0  0  0  0  0
  185.7290  179.3560  143.5190 C   0  0  0  0  0  3  0  0  0  0  0  0
  185.9610  178.7300  142.3350 N   0  0  0  0  0  0  0  0  0  0  0  0
  187.0000  176.9650  141.0690 C   0  0  0  0  0  0  0  0  0  0  0  0
  186.3150  177.5410  139.5580 Cl  0  0  0  0  0  0  0  0  0  0  0  0
  188.1140  176.0060  143.3910 N   0  0  0  0  0  0  0  0  0  0  0  0
  186.2870  178.8820  144.6630 N   0  0  0  0  0  0  0  0  0  0  0  0
  187.7920  175.8600  141.0600 N   0  0  0  0  0  0  0  0  0  0  0  0
  188.3400  175.3770  142.2070 C   0  0  0  0  0  0  0  0  0  0  0  0
  186.7480  177.6240  142.2770 C   0  0  0  0  0  0  0  0  0  0  0  0
  187.6840  177.2820  145.9420 C   0  0  1  0  0  3  0  0  0  0  0  0
  189.2780  175.1160  146.8470 C   0  0  0  0  0  1  0  0  0  0  0  0
  189.1930  177.5430  145.9650 C   0  0  2  0  0  3  0  0  0  0  0  0
  190.0530  176.3610  146.4350 C   0  0  1  0  0  3  0  0  0  0  0  0
  189.7150  177.4910  147.3870 C   0  0  0  0  0  2  0  0  0  0  0  0
  187.0730  177.9190  147.0250 O   0  0  0  0  0  0  0  0  0  0  0  0
  186.1090  177.0140  147.4750 C   0  0  0  0  0  1  0  0  0  0  0  0
  189.2250  174.1820  142.1610 C   0  0  0  0  0  2  0  0  0  0  0  0
  188.5890  173.1020  141.2840 C   0  0  0  0  0  2  0  0  0  0  0  0
  189.2560  172.9530  139.9870 N   0  0  0  0  0  0  0  0  0  0  0  0
  189.9280  171.7750  139.9850 O   0  0  0  0  0  1  0  0  0  0  0  0
  188.2560  172.8990  138.9280 C   0  0  0  0  0  3  0  0  0  0  0  0
  188.9460  172.7170  137.5890 C   0  0  0  0  0  2  0  0  0  0  0  0
  188.4400  174.0830  137.9960 C   0  0  0  0  0  2  0  0  0  0  0  0
  1  8  1  0  0  0  0
  1 12  1  0  0  0  0
  2  1  2  0  0  0  0
  3  8  2  0  0  0  0
  4  3  1  0  0  0  0
  5 11  1  0  0  0  0
  6  5  1  0  0  0  0
  7  2  1  0  0  0  0
  9  5  2  0  0  0  0
  9 10  1  0  0  0  0
 10  7  2  0  0  0  0
 11  4  2  0  0  0  0
 11  2  1  0  0  0  0
 12 17  1  1  0  0  0
 14 12  1  1  0  0  0
 14 15  1  0  0  0  0
 14 16  1  0  0  0  0
 15 13  1  1  0  0  0
 15 16  1  0  0  0  0
 17 18  1  0  0  0  0
 19 10  1  0  0  0  0
 20 19  1  0  0  0  0
 21 20  1  0  0  0  0
 22 21  1  0  0  0  0
 23 21  1  0  0  0  0
 24 25  1  0  0  0  0
 24 23  1  0  0  0  0
 25 23  1  0  0  0  0
M  END
>  <MODEL>
7

>  <REMARK>
 VINA RESULT:      -5.6      2.528      5.777
  Name = 
  7 active torsions:
  status: ('A' for Active; 'I' for Inactive)
    1  A    between atoms: C_1  and  C_5
    2  A    between atoms: C_2  and  N_21
    3  A    between atoms: C_5  and  C_10
    4  A    between atoms: C_5  and  O_17
    5  A    between atoms: C_6  and  C_15
    6  A    between atoms: C_6  and  C_23
    7  A    between atoms: C_15  and  N_21
                            x       y       z     vdW  Elec       q    Type
                         _______ _______ _______ _____ _____    ______ ____

>  <TORSDO>
F 7

$$$$
=
 OpenBabel11052417343D

 25 28  0  0  1  0  0  0  0  0999 V2000
  187.7120  176.7250  143.5540 C   0  0  0  0  0  0  0  0  0  0  0  0
  188.0930  175.6100  142.7970 C   0  0  0  0  0  0  0  0  0  0  0  0
  187.0680  177.8530  141.5690 C   0  0  0  0  0  3  0  0  0  0  0  0
  187.4400  176.7830  140.8170 N   0  0  0  0  0  0  0  0  0  0  0  0
  188.3370  174.5560  140.6460 C   0  0  0  0  0  0  0  0  0  0  0  0
  188.1960  174.5500  138.8960 Cl  0  0  0  0  0  0  0  0  0  0  0  0
  188.5960  174.4890  143.3810 N   0  0  0  0  0  0  0  0  0  0  0  0
  187.2030  177.8180  142.9210 N   0  0  0  0  0  0  0  0  0  0  0  0
  188.8380  173.4600  141.2750 N   0  0  0  0  0  0  0  0  0  0  0  0
  188.9610  173.4180  142.6290 C   0  0  0  0  0  0  0  0  0  0  0  0
  187.9480  175.6670  141.4020 C   0  0  0  0  0  0  0  0  0  0  0  0
  187.8430  176.7200  145.0490 C   0  0  1  0  0  3  0  0  0  0  0  0
  189.0600  175.0690  147.0110 C   0  0  0  0  0  1  0  0  0  0  0  0
  189.2620  177.1260  145.4600 C   0  0  2  0  0  3  0  0  0  0  0  0
  189.9240  176.2170  146.5060 C   0  0  1  0  0  3  0  0  0  0  0  0
  189.2910  177.5310  146.9210 C   0  0  0  0  0  2  0  0  0  0  0  0
  186.9140  177.6000  145.6090 O   0  0  0  0  0  0  0  0  0  0  0  0
  185.8610  176.7870  146.0330 C   0  0  0  0  0  1  0  0  0  0  0  0
  189.5390  172.2150  143.2850 C   0  0  0  0  0  2  0  0  0  0  0  0
  190.1630  172.6070  144.6250 C   0  0  0  0  0  2  0  0  0  0  0  0
  191.6290  172.5860  144.6000 N   0  0  0  0  0  0  0  0  0  0  0  0
  192.0280  171.9630  143.4630 O   0  0  0  0  0  1  0  0  0  0  0  0
  192.1360  173.9530  144.5620 C   0  0  0  0  0  3  0  0  0  0  0  0
  193.6470  173.9290  144.4280 C   0  0  0  0  0  2  0  0  0  0  0  0
  193.0130  174.2030  145.7740 C   0  0  0  0  0  2  0  0  0  0  0  0
  1 12  1  0  0  0  0
  2  7  1  0  0  0  0
  2  1  2  0  0  0  0
  3  8  2  0  0  0  0
  4 11  2  0  0  0  0
  4  3  1  0  0  0  0
  5  9  2  0  0  0  0
  5 11  1  0  0  0  0
  6  5  1  0  0  0  0
  8  1  1  0  0  0  0
  9 10  1  0  0  0  0
 10 19  1  0  0  0  0
 10  7  2  0  0  0  0
 11  2  1  0  0  0  0
 12 17  1  1  0  0  0
 14 12  1  1  0  0  0
 14 15  1  0  0  0  0
 14 16  1  0  0  0  0
 15 16  1  0  0  0  0
 15 13  1  1  0  0  0
 17 18  1  0  0  0  0
 19 20  1  0  0  0  0
 21 20  1  0  0  0  0
 22 21  1  0  0  0  0
 23 21  1  0  0  0  0
 23 25  1  0  0  0  0
 24 23  1  0  0  0  0
 24 25  1  0  0  0  0
M  END
>  <MODEL>
8

>  <REMARK>
 VINA RESULT:      -5.5      2.030      5.571
  Name = 
  7 active torsions:
  status: ('A' for Active; 'I' for Inactive)
    1  A    between atoms: C_1  and  C_5
    2  A    between atoms: C_2  and  N_21
    3  A    between atoms: C_5  and  C_10
    4  A    between atoms: C_5  and  O_17
    5  A    between atoms: C_6  and  C_15
    6  A    between atoms: C_6  and  C_23
    7  A    between atoms: C_15  and  N_21
                            x       y       z     vdW  Elec       q    Type
                         _______ _______ _______ _____ _____    ______ ____

>  <TORSDO>
F 7

$$$$
=
 OpenBabel11052417343D

 25 28  0  0  1  0  0  0  0  0999 V2000
  187.9200  176.9970  145.9260 C   0  0  0  0  0  0  0  0  0  0  0  0
  187.1950  177.0620  144.7300 C   0  0  0  0  0  0  0  0  0  0  0  0
  186.2030  178.2010  147.0340 C   0  0  0  0  0  3  0  0  0  0  0  0
  185.4880  178.2810  145.8810 N   0  0  0  0  0  0  0  0  0  0  0  0
  185.2370  177.7980  143.5360 C   0  0  0  0  0  0  0  0  0  0  0  0
  183.6870  178.6180  143.4540 Cl  0  0  0  0  0  0  0  0  0  0  0  0
  187.6600  176.5010  143.5820 N   0  0  0  0  0  0  0  0  0  0  0  0
  187.4040  177.5650  147.0510 N   0  0  0  0  0  0  0  0  0  0  0  0
  185.7460  177.2260  142.4130 N   0  0  0  0  0  0  0  0  0  0  0  0
  186.9410  176.5770  142.4310 C   0  0  0  0  0  0  0  0  0  0  0  0
  185.9570  177.7260  144.7340 C   0  0  0  0  0  0  0  0  0  0  0  0
  189.2470  176.2990  145.9830 C   0  0  1  0  0  3  0  0  0  0  0  0
  191.0040  175.1890  144.0490 C   0  0  0  0  0  1  0  0  0  0  0  0
  190.3610  177.2300  145.4960 C   0  0  2  0  0  3  0  0  0  0  0  0
  191.2960  176.6330  144.4340 C   0  0  1  0  0  3  0  0  0  0  0  0
  191.7180  176.6800  145.8890 C   0  0  0  0  0  2  0  0  0  0  0  0
  189.5090  175.8850  147.2910 O   0  0  0  0  0  0  0  0  0  0  0  0
  189.2000  174.5230  147.3050 C   0  0  0  0  0  1  0  0  0  0  0  0
  187.4830  175.9850  141.1800 C   0  0  0  0  0  2  0  0  0  0  0  0
  188.2380  174.6940  141.5030 C   0  0  0  0  0  2  0  0  0  0  0  0
  189.0660  174.2220  140.3890 N   0  0  0  0  0  0  0  0  0  0  0  0
  190.0700  173.4630  140.8940 O   0  0  0  0  0  1  0  0  0  0  0  0
  188.2660  173.3760  139.5110 C   0  0  0  0  0  3  0  0  0  0  0  0
  189.1560  172.7670  138.4440 C   0  0  0  0  0  2  0  0  0  0  0  0
  188.2750  173.9500  138.1060 C   0  0  0  0  0  2  0  0  0  0  0  0
  1 12  1  0  0  0  0
  1  8  1  0  0  0  0
  2 11  1  0  0  0  0
  2  1  2  0  0  0  0
  3  8  2  0  0  0  0
  4  3  1  0  0  0  0
  5 11  1  0  0  0  0
  6  5  1  0  0  0  0
  7  2  1  0  0  0  0
  9 10  1  0  0  0  0
  9  5  2  0  0  0  0
 10  7  2  0  0  0  0
 11  4  2  0  0  0  0
 12 17  1  1  0  0  0
 14 16  1  0  0  0  0
 14 12  1  1  0  0  0
 15 13  1  1  0  0  0
 15 14  1  0  0  0  0
 15 16  1  0  0  0  0
 17 18  1  0  0  0  0
 19 20  1  0  0  0  0
 19 10  1  0  0  0  0
 21 22  1  0  0  0  0
 21 20  1  0  0  0  0
 23 21  1  0  0  0  0
 24 23  1  0  0  0  0
 25 24  1  0  0  0  0
 25 23  1  0  0  0  0
M  END
>  <MODEL>
9

>  <REMARK>
 VINA RESULT:      -5.4      2.786      5.716
  Name = 
  7 active torsions:
  status: ('A' for Active; 'I' for Inactive)
    1  A    between atoms: C_1  and  C_5
    2  A    between atoms: C_2  and  N_21
    3  A    between atoms: C_5  and  C_10
    4  A    between atoms: C_5  and  O_17
    5  A    between atoms: C_6  and  C_15
    6  A    between atoms: C_6  and  C_23
    7  A    between atoms: C_15  and  N_21
                            x       y       z     vdW  Elec       q    Type
                         _______ _______ _______ _____ _____    ______ ____

>  <TORSDO>
F 7

$$$$
