=
 OpenBabel11052417243D

 30 32  0  0  1  0  0  0  0  0999 V2000
  190.3980  177.8080  145.2990 C   0  0  0  0  0  2  0  0  0  0  0  0
  190.0080  176.9580  144.0800 C   0  0  2  0  0  3  0  0  0  0  0  0
  191.2170  175.2620  148.0720 C   0  0  0  0  0  1  0  0  0  0  0  0
  188.2530  173.5240  140.6870 C   0  0  0  0  0  2  0  0  0  0  0  0
  187.6050  176.6070  142.7790 P   0  0  1  0  0  4  0  0  0  0  0  0
  190.7810  175.2640  142.3040 C   0  0  0  0  0  2  0  0  0  0  0  0
  190.5140  174.2430  145.2140 O   0  0  0  0  0  1  0  0  0  0  0  0
  185.6760  175.9250  143.1420 Cl  0  0  0  0  0  0  0  0  0  0  0  0
  188.6230  176.3390  144.2630 C   0  0  0  0  0  2  0  0  0  0  0  0
  189.7750  174.1160  142.4300 C   0  0  2  0  0  3  0  0  0  0  0  0
  189.5180  173.0170  140.3530 O   0  0  0  0  0  0  0  0  0  0  0  0
  190.2860  177.0210  146.6030 C   0  0  0  0  0  2  0  0  0  0  0  0
  192.3660  175.6790  145.8320 C   0  0  2  0  0  3  0  0  0  0  0  0
  191.5660  176.2880  147.0080 C   0  0  2  0  0  3  0  0  0  0  0  0
  192.2410  176.7920  143.2920 O   0  0  0  0  0  1  0  0  0  0  0  0
  191.5790  174.9940  144.7060 C   0  0  2  0  0  3  0  0  0  0  0  0
  191.1370  175.9970  143.6130 C   0  0  1  0  0  0  0  0  0  0  0  0
  190.2280  172.9670  141.5610 C   0  0  0  0  0  2  0  0  0  0  0  0
  188.2790  175.7750  141.4620 O   0  0  0  0  0  0  0  0  0  0  0  0
  188.3980  174.4420  141.8780 C   0  0  1  0  0  3  0  0  0  0  0  0
  187.5420  178.3810  142.4050 C   0  0  0  0  0  2  0  0  0  0  0  0
  186.1480  178.9110  142.6620 C   0  0  0  0  0  2  0  0  0  0  0  0
  186.0440  179.3810  144.0960 C   0  0  0  0  0  2  0  0  0  0  0  0
  184.6220  179.2020  144.5840 C   0  0  0  0  0  1  0  0  0  0  0  0
  193.7050  174.9950  146.1640 C   0  0  1  0  0  3  0  0  0  0  0  0
  194.0320  173.8830  145.1670 C   0  0  0  0  0  3  0  0  0  0  0  0
  193.9210  172.6360  145.7860 O   0  0  0  0  0  1  0  0  0  0  0  0
  195.3320  174.0380  144.6840 O   0  0  0  0  0  1  0  0  0  0  0  0
  194.5410  177.1740  145.6160 O   0  0  0  0  0  1  0  0  0  0  0  0
  194.8630  175.9850  146.2720 C   0  0  0  0  0  2  0  0  0  0  0  0
  1 12  1  0  0  0  0
  2  9  1  1  0  0  0
  2  1  1  0  0  0  0
  5  8  1  1  0  0  0
  5  9  1  0  0  0  0
  6 10  1  0  0  0  0
  6 17  1  0  0  0  0
 10 18  1  6  0  0  0
 11  4  1  0  0  0  0
 11 18  1  0  0  0  0
 12 14  1  0  0  0  0
 13 25  1  1  0  0  0
 13 14  1  0  0  0  0
 14  3  1  1  0  0  0
 16  7  1  1  0  0  0
 16 13  1  0  0  0  0
 17 15  1  6  0  0  0
 17  2  1  0  0  0  0
 17 16  1  0  0  0  0
 19 20  1  0  0  0  0
 19  5  1  0  0  0  0
 20  4  1  6  0  0  0
 20 10  1  0  0  0  0
 21 22  1  0  0  0  0
 21  5  1  0  0  0  0
 22 23  1  0  0  0  0
 23 24  1  0  0  0  0
 25 30  1  6  0  0  0
 26 27  1  0  0  0  0
 26 25  1  0  0  0  0
 28 26  1  0  0  0  0
 29 30  1  0  0  0  0
M  END
>  <MODEL>
1

>  <REMARK>
 VINA RESULT:      -6.5      0.000      0.000
  Name = 
  6 active torsions:
  status: ('A' for Active; 'I' for Inactive)
    1  A    between atoms: C_2  and  C_28
    2  A    between atoms: C_6  and  P_8
    3  A    between atoms: C_6  and  C_21
    4  A    between atoms: C_9  and  C_21
    5  A    between atoms: C_19  and  C_28
    6  A    between atoms: C_28  and  C_29
                            x       y       z     vdW  Elec       q    Type
                         _______ _______ _______ _____ _____    ______ ____

>  <TORSDO>
F 6

$$$$
=
 OpenBabel11052417243D

 30 32  0  0  1  0  0  0  0  0999 V2000
  190.1950  178.1470  143.0440 C   0  0  0  0  0  2  0  0  0  0  0  0
  190.5740  176.6990  143.3900 C   0  0  2  0  0  3  0  0  0  0  0  0
  186.5930  177.9420  141.6940 C   0  0  0  0  0  1  0  0  0  0  0  0
  191.3250  171.6270  143.7100 C   0  0  0  0  0  2  0  0  0  0  0  0
  192.3910  174.9570  142.2700 P   0  0  1  0  0  4  0  0  0  0  0  0
  190.1210  174.6580  144.8910 C   0  0  0  0  0  2  0  0  0  0  0  0
  187.9710  175.3690  142.7820 O   0  0  0  0  0  1  0  0  0  0  0  0
  192.8000  174.0170  140.4630 Cl  0  0  0  0  0  0  0  0  0  0  0  0
  190.8310  175.8800  142.1250 C   0  0  0  0  0  2  0  0  0  0  0  0
  189.8790  173.5180  143.8980 C   0  0  2  0  0  3  0  0  0  0  0  0
  190.5210  171.4500  144.8450 O   0  0  0  0  0  0  0  0  0  0  0  0
  189.0220  178.2120  142.0670 C   0  0  0  0  0  2  0  0  0  0  0  0
  187.5120  177.4060  144.0130 C   0  0  2  0  0  3  0  0  0  0  0  0
  187.6480  178.2680  142.7350 C   0  0  2  0  0  3  0  0  0  0  0  0
  189.7190  176.8440  145.5990 O   0  0  0  0  0  1  0  0  0  0  0  0
  188.1530  176.0110  144.0110 C   0  0  2  0  0  3  0  0  0  0  0  0
  189.6370  176.0530  144.4500 C   0  0  1  0  0  0  0  0  0  0  0  0
  189.4190  172.2950  144.6540 C   0  0  0  0  0  2  0  0  0  0  0  0
  192.2650  173.8060  143.5100 O   0  0  0  0  0  0  0  0  0  0  0  0
  191.1370  173.0350  143.1970 C   0  0  1  0  0  3  0  0  0  0  0  0
  193.7390  176.1110  142.6520 C   0  0  0  0  0  2  0  0  0  0  0  0
  194.3040  175.8030  144.0220 C   0  0  0  0  0  2  0  0  0  0  0  0
  193.7140  176.7570  145.0370 C   0  0  0  0  0  2  0  0  0  0  0  0
  193.3270  175.9910  146.2850 C   0  0  0  0  0  1  0  0  0  0  0  0
  186.1770  177.4790  144.7780 C   0  0  1  0  0  3  0  0  0  0  0  0
  186.2570  176.7500  146.1200 C   0  0  0  0  0  3  0  0  0  0  0  0
  184.9730  176.4790  146.5960 O   0  0  0  0  0  1  0  0  0  0  0  0
  186.9330  177.5360  147.0550 O   0  0  0  0  0  1  0  0  0  0  0  0
  184.3780  179.0360  144.4900 O   0  0  0  0  0  1  0  0  0  0  0  0
  185.6830  178.9110  144.9670 C   0  0  0  0  0  2  0  0  0  0  0  0
  1  2  1  0  0  0  0
  2  9  1  6  0  0  0
  2 17  1  0  0  0  0
  4 11  1  0  0  0  0
  5  8  1  6  0  0  0
  5 21  1  0  0  0  0
  5 19  1  0  0  0  0
  9  5  1  0  0  0  0
 10 18  1  1  0  0  0
 10  6  1  0  0  0  0
 12 14  1  0  0  0  0
 12  1  1  0  0  0  0
 13 25  1  6  0  0  0
 14  3  1  6  0  0  0
 14 13  1  0  0  0  0
 16  7  1  6  0  0  0
 16 13  1  0  0  0  0
 16 17  1  0  0  0  0
 17  6  1  0  0  0  0
 17 15  1  1  0  0  0
 18 11  1  0  0  0  0
 20 19  1  0  0  0  0
 20  4  1  1  0  0  0
 20 10  1  0  0  0  0
 21 22  1  0  0  0  0
 22 23  1  0  0  0  0
 23 24  1  0  0  0  0
 25 30  1  1  0  0  0
 25 26  1  0  0  0  0
 26 27  1  0  0  0  0
 26 28  1  0  0  0  0
 29 30  1  0  0  0  0
M  END
>  <MODEL>
2

>  <REMARK>
 VINA RESULT:      -6.3      3.048      6.337
  Name = 
  6 active torsions:
  status: ('A' for Active; 'I' for Inactive)
    1  A    between atoms: C_2  and  C_28
    2  A    between atoms: C_6  and  P_8
    3  A    between atoms: C_6  and  C_21
    4  A    between atoms: C_9  and  C_21
    5  A    between atoms: C_19  and  C_28
    6  A    between atoms: C_28  and  C_29
                            x       y       z     vdW  Elec       q    Type
                         _______ _______ _______ _____ _____    ______ ____

>  <TORSDO>
F 6

$$$$
=
 OpenBabel11052417243D

 30 32  0  0  1  0  0  0  0  0999 V2000
  193.6940  176.7740  145.3890 C   0  0  0  0  0  2  0  0  0  0  0  0
  192.5310  176.0400  144.7050 C   0  0  2  0  0  3  0  0  0  0  0  0
  196.3910  174.0790  145.9410 C   0  0  0  0  0  1  0  0  0  0  0  0
  188.8810  172.8280  143.0450 C   0  0  0  0  0  2  0  0  0  0  0  0
  189.9920  175.4130  145.5720 P   0  0  1  0  0  4  0  0  0  0  0  0
  191.7140  174.7850  142.6130 C   0  0  0  0  0  2  0  0  0  0  0  0
  193.7790  173.3440  144.4120 O   0  0  0  0  0  1  0  0  0  0  0  0
  189.0340  174.3300  147.0640 Cl  0  0  0  0  0  0  0  0  0  0  0  0
  191.7860  175.1460  145.6970 C   0  0  0  0  0  2  0  0  0  0  0  0
  191.1820  173.4580  143.1640 C   0  0  2  0  0  3  0  0  0  0  0  0
  189.4560  172.6240  141.7820 O   0  0  0  0  0  0  0  0  0  0  0  0
  194.6320  175.8090  146.1120 C   0  0  0  0  0  2  0  0  0  0  0  0
  195.4190  175.0120  143.7740 C   0  0  2  0  0  3  0  0  0  0  0  0
  195.7850  175.2880  145.2520 C   0  0  2  0  0  3  0  0  0  0  0  0
  193.3790  176.4150  142.5210 O   0  0  0  0  0  1  0  0  0  0  0  0
  194.0650  174.3470  143.4810 C   0  0  2  0  0  3  0  0  0  0  0  0
  192.9250  175.3860  143.3510 C   0  0  1  0  0  0  0  0  0  0  0  0
  190.8370  172.5470  142.0100 C   0  0  0  0  0  2  0  0  0  0  0  0
  189.4410  174.9150  144.0460 O   0  0  0  0  0  0  0  0  0  0  0  0
  189.8630  173.5850  143.9080 C   0  0  1  0  0  3  0  0  0  0  0  0
  189.6280  177.1760  145.7980 C   0  0  0  0  0  2  0  0  0  0  0  0
  188.3240  177.3390  146.5490 C   0  0  0  0  0  2  0  0  0  0  0  0
  187.1790  177.4070  145.5630 C   0  0  0  0  0  2  0  0  0  0  0  0
  185.9420  176.7910  146.1820 C   0  0  0  0  0  1  0  0  0  0  0  0
  196.5530  174.5590  142.8360 C   0  0  1  0  0  3  0  0  0  0  0  0
  196.0270  173.6820  141.6990 C   0  0  0  0  0  3  0  0  0  0  0  0
  196.4810  172.3710  141.8560 O   0  0  0  0  0  1  0  0  0  0  0  0
  196.4690  174.1740  140.4690 O   0  0  0  0  0  1  0  0  0  0  0  0
  196.6090  176.9000  142.3230 O   0  0  0  0  0  1  0  0  0  0  0  0
  197.3670  175.7290  142.2880 C   0  0  0  0  0  2  0  0  0  0  0  0
  1 12  1  0  0  0  0
  2  1  1  1  0  0  0
  2  9  1  0  0  0  0
  5  9  1  0  0  0  0
  5 21  1  0  0  0  0
  5  8  1  1  0  0  0
  6 10  1  0  0  0  0
  6 17  1  0  0  0  0
 10 18  1  6  0  0  0
 10 20  1  0  0  0  0
 11 18  1  0  0  0  0
 11  4  1  0  0  0  0
 13 25  1  1  0  0  0
 13 14  1  0  0  0  0
 14  3  1  1  0  0  0
 14 12  1  0  0  0  0
 16 13  1  0  0  0  0
 16  7  1  1  0  0  0
 17 15  1  6  0  0  0
 17 16  1  0  0  0  0
 17  2  1  0  0  0  0
 19  5  1  0  0  0  0
 20  4  1  6  0  0  0
 20 19  1  0  0  0  0
 21 22  1  0  0  0  0
 23 24  1  0  0  0  0
 23 22  1  0  0  0  0
 25 30  1  6  0  0  0
 26 27  1  0  0  0  0
 26 25  1  0  0  0  0
 28 26  1  0  0  0  0
 30 29  1  0  0  0  0
M  END
>  <MODEL>
3

>  <REMARK>
 VINA RESULT:      -6.2      2.621      3.617
  Name = 
  6 active torsions:
  status: ('A' for Active; 'I' for Inactive)
    1  A    between atoms: C_2  and  C_28
    2  A    between atoms: C_6  and  P_8
    3  A    between atoms: C_6  and  C_21
    4  A    between atoms: C_9  and  C_21
    5  A    between atoms: C_19  and  C_28
    6  A    between atoms: C_28  and  C_29
                            x       y       z     vdW  Elec       q    Type
                         _______ _______ _______ _____ _____    ______ ____

>  <TORSDO>
F 6

$$$$
=
 OpenBabel11052417243D

 30 32  0  0  1  0  0  0  0  0999 V2000
  192.1300  175.5230  146.0980 C   0  0  0  0  0  2  0  0  0  0  0  0
  191.9470  174.2350  145.2810 C   0  0  2  0  0  3  0  0  0  0  0  0
  190.7810  178.3370  143.8370 C   0  0  0  0  0  1  0  0  0  0  0  0
  191.6060  170.5020  141.7680 C   0  0  0  0  0  2  0  0  0  0  0  0
  193.7680  172.5180  144.1280 P   0  0  1  0  0  4  0  0  0  0  0  0
  190.2880  172.5860  144.2090 C   0  0  0  0  0  2  0  0  0  0  0  0
  190.5600  175.3760  142.8970 O   0  0  0  0  0  1  0  0  0  0  0  0
  195.2810  172.5130  142.7060 Cl  0  0  0  0  0  0  0  0  0  0  0  0
  192.9700  174.1520  144.1490 C   0  0  0  0  0  2  0  0  0  0  0  0
  190.7450  172.5020  142.7500 C   0  0  2  0  0  3  0  0  0  0  0  0
  190.2100  170.3880  141.8390 O   0  0  0  0  0  0  0  0  0  0  0  0
  192.1100  176.7670  145.2110 C   0  0  0  0  0  2  0  0  0  0  0  0
  189.5730  176.3490  144.8860 C   0  0  2  0  0  3  0  0  0  0  0  0
  190.7220  177.3780  145.0130 C   0  0  2  0  0  3  0  0  0  0  0  0
  189.7490  173.8550  146.0900 O   0  0  0  0  0  1  0  0  0  0  0  0
  189.8290  175.0840  144.0530 C   0  0  2  0  0  3  0  0  0  0  0  0
  190.4680  173.9540  144.8960 C   0  0  1  0  0  0  0  0  0  0  0  0
  189.7350  171.7010  141.9620 C   0  0  0  0  0  2  0  0  0  0  0  0
  192.6200  171.3230  143.7610 O   0  0  0  0  0  0  0  0  0  0  0  0
  192.0330  171.7210  142.5520 C   0  0  1  0  0  3  0  0  0  0  0  0
  194.4890  172.1800  145.7580 C   0  0  0  0  0  2  0  0  0  0  0  0
  195.9910  172.3560  145.7010 C   0  0  0  0  0  2  0  0  0  0  0  0
  196.3350  173.8180  145.8850 C   0  0  0  0  0  2  0  0  0  0  0  0
  197.5350  174.1660  145.0300 C   0  0  0  0  0  1  0  0  0  0  0  0
  188.1400  176.8990  144.7620 C   0  0  1  0  0  3  0  0  0  0  0  0
  187.4600  176.4140  143.4810 C   0  0  0  0  0  3  0  0  0  0  0  0
  187.6850  177.3230  142.4450 O   0  0  0  0  0  1  0  0  0  0  0  0
  186.0850  176.2880  143.6850 O   0  0  0  0  0  1  0  0  0  0  0  0
  187.0420  177.7520  146.7140 O   0  0  0  0  0  1  0  0  0  0  0  0
  187.2810  176.5870  145.9850 C   0  0  0  0  0  2  0  0  0  0  0  0
  2  9  1  6  0  0  0
  2  1  1  0  0  0  0
  4 11  1  0  0  0  0
  5  8  1  6  0  0  0
  5  9  1  0  0  0  0
  5 21  1  0  0  0  0
  6 17  1  0  0  0  0
 10 18  1  6  0  0  0
 10  6  1  0  0  0  0
 11 18  1  0  0  0  0
 12  1  1  0  0  0  0
 13 25  1  6  0  0  0
 13 14  1  0  0  0  0
 14  3  1  6  0  0  0
 14 12  1  0  0  0  0
 16  7  1  6  0  0  0
 16 13  1  0  0  0  0
 16 17  1  0  0  0  0
 17  2  1  0  0  0  0
 17 15  1  1  0  0  0
 19  5  1  0  0  0  0
 20  4  1  6  0  0  0
 20 10  1  0  0  0  0
 20 19  1  0  0  0  0
 22 21  1  0  0  0  0
 22 23  1  0  0  0  0
 24 23  1  0  0  0  0
 25 30  1  1  0  0  0
 26 28  1  0  0  0  0
 26 25  1  0  0  0  0
 27 26  1  0  0  0  0
 30 29  1  0  0  0  0
M  END
>  <MODEL>
4

>  <REMARK>
 VINA RESULT:      -6.0      3.276      6.717
  Name = 
  6 active torsions:
  status: ('A' for Active; 'I' for Inactive)
    1  A    between atoms: C_2  and  C_28
    2  A    between atoms: C_6  and  P_8
    3  A    between atoms: C_6  and  C_21
    4  A    between atoms: C_9  and  C_21
    5  A    between atoms: C_19  and  C_28
    6  A    between atoms: C_28  and  C_29
                            x       y       z     vdW  Elec       q    Type
                         _______ _______ _______ _____ _____    ______ ____

>  <TORSDO>
F 6

$$$$
=
 OpenBabel11052417243D

 30 32  0  0  1  0  0  0  0  0999 V2000
  191.1990  174.3590  144.4990 C   0  0  0  0  0  2  0  0  0  0  0  0
  190.1970  175.4910  144.2300 C   0  0  2  0  0  3  0  0  0  0  0  0
  189.8030  171.3170  142.5910 C   0  0  0  0  0  1  0  0  0  0  0  0
  186.1530  178.5520  143.4110 C   0  0  0  0  0  2  0  0  0  0  0  0
  188.4260  176.8070  145.8800 P   0  0  1  0  0  4  0  0  0  0  0  0
  189.1460  177.0620  142.4840 C   0  0  0  0  0  2  0  0  0  0  0  0
  188.3670  174.0700  142.3480 O   0  0  0  0  0  1  0  0  0  0  0  0
  186.7790  176.4240  147.0870 Cl  0  0  0  0  0  0  0  0  0  0  0  0
  188.9040  175.2800  145.0160 C   0  0  0  0  0  2  0  0  0  0  0  0
  187.6400  176.8430  142.6530 C   0  0  2  0  0  3  0  0  0  0  0  0
  186.4520  178.8000  142.0630 O   0  0  0  0  0  0  0  0  0  0  0  0
  190.5870  172.9830  144.2420 C   0  0  0  0  0  2  0  0  0  0  0  0
  190.6510  173.5580  141.7150 C   0  0  2  0  0  3  0  0  0  0  0  0
  190.7630  172.4720  142.8110 C   0  0  2  0  0  3  0  0  0  0  0  0
  191.3020  176.2020  142.2540 O   0  0  0  0  0  1  0  0  0  0  0  0
  189.5580  174.6260  141.8720 C   0  0  2  0  0  3  0  0  0  0  0  0
  190.0390  175.8290  142.7210 C   0  0  1  0  0  0  0  0  0  0  0  0
  186.9090  177.5770  141.5530 C   0  0  0  0  0  2  0  0  0  0  0  0
  188.0500  178.0140  144.7480 O   0  0  0  0  0  0  0  0  0  0  0  0
  187.0660  177.4600  143.9170 C   0  0  1  0  0  3  0  0  0  0  0  0
  189.8030  177.3660  146.9210 C   0  0  0  0  0  2  0  0  0  0  0  0
  190.4200  176.1810  147.6330 C   0  0  0  0  0  2  0  0  0  0  0  0
  191.8280  176.5300  148.0650 C   0  0  0  0  0  2  0  0  0  0  0  0
  192.7610  176.4250  146.8780 C   0  0  0  0  0  1  0  0  0  0  0  0
  190.8960  173.1240  140.2590 C   0  0  1  0  0  3  0  0  0  0  0  0
  189.6830  173.4120  139.3740 C   0  0  0  0  0  3  0  0  0  0  0  0
  188.8810  172.2740  139.2740 O   0  0  0  0  0  1  0  0  0  0  0  0
  190.0990  173.7890  138.0950 O   0  0  0  0  0  1  0  0  0  0  0  0
  193.0920  173.9910  140.6720 O   0  0  0  0  0  1  0  0  0  0  0  0
  192.1610  173.7400  139.6640 C   0  0  0  0  0  2  0  0  0  0  0  0
  2  1  1  6  0  0  0
  2  9  1  0  0  0  0
  5 21  1  0  0  0  0
  5  8  1  1  0  0  0
  6 10  1  0  0  0  0
  6 17  1  0  0  0  0
  9  5  1  0  0  0  0
 10 18  1  6  0  0  0
 10 20  1  0  0  0  0
 11  4  1  0  0  0  0
 12  1  1  0  0  0  0
 13 25  1  6  0  0  0
 13 16  1  0  0  0  0
 13 14  1  0  0  0  0
 14  3  1  6  0  0  0
 14 12  1  0  0  0  0
 16  7  1  1  0  0  0
 16 17  1  0  0  0  0
 17 15  1  6  0  0  0
 17  2  1  0  0  0  0
 18 11  1  0  0  0  0
 19  5  1  0  0  0  0
 20  4  1  6  0  0  0
 20 19  1  0  0  0  0
 21 22  1  0  0  0  0
 22 23  1  0  0  0  0
 24 23  1  0  0  0  0
 25 30  1  6  0  0  0
 26 25  1  0  0  0  0
 27 26  1  0  0  0  0
 28 26  1  0  0  0  0
 30 29  1  0  0  0  0
M  END
>  <MODEL>
5

>  <REMARK>
 VINA RESULT:      -6.0      2.363      5.504
  Name = 
  6 active torsions:
  status: ('A' for Active; 'I' for Inactive)
    1  A    between atoms: C_2  and  C_28
    2  A    between atoms: C_6  and  P_8
    3  A    between atoms: C_6  and  C_21
    4  A    between atoms: C_9  and  C_21
    5  A    between atoms: C_19  and  C_28
    6  A    between atoms: C_28  and  C_29
                            x       y       z     vdW  Elec       q    Type
                         _______ _______ _______ _____ _____    ______ ____

>  <TORSDO>
F 6

$$$$
=
 OpenBabel11052417243D

 30 32  0  0  1  0  0  0  0  0999 V2000
  190.6910  178.0290  143.9760 C   0  0  0  0  0  2  0  0  0  0  0  0
  191.1640  176.5710  144.0850 C   0  0  2  0  0  3  0  0  0  0  0  0
  187.6250  177.9120  141.6450 C   0  0  0  0  0  1  0  0  0  0  0  0
  192.5010  171.6490  143.4720 C   0  0  0  0  0  2  0  0  0  0  0  0
  193.4320  175.3020  143.1710 P   0  0  1  0  0  4  0  0  0  0  0  0
  190.6240  174.1920  144.9040 C   0  0  0  0  0  2  0  0  0  0  0  0
  189.0170  175.2550  142.4820 O   0  0  0  0  0  1  0  0  0  0  0  0
  194.4200  174.8780  141.3940 Cl  0  0  0  0  0  0  0  0  0  0  0  0
  191.8500  176.1180  142.7970 C   0  0  0  0  0  2  0  0  0  0  0  0
  190.8080  173.3240  143.6550 C   0  0  2  0  0  3  0  0  0  0  0  0
  191.4620  171.1360  144.2630 O   0  0  0  0  0  0  0  0  0  0  0  0
  189.8140  178.2530  142.7450 C   0  0  0  0  0  2  0  0  0  0  0  0
  187.9770  176.8780  143.9510 C   0  0  2  0  0  3  0  0  0  0  0  0
  188.3190  178.0410  142.9900 C   0  0  2  0  0  3  0  0  0  0  0  0
  189.7550  176.0950  145.9340 O   0  0  0  0  0  1  0  0  0  0  0  0
  188.7840  175.5780  143.8220 C   0  0  2  0  0  3  0  0  0  0  0  0
  190.0830  175.6150  144.6630 C   0  0  1  0  0  0  0  0  0  0  0  0
  190.3410  171.9200  143.9580 C   0  0  0  0  0  2  0  0  0  0  0  0
  193.1500  173.8700  144.0360 O   0  0  0  0  0  0  0  0  0  0  0  0
  192.2590  173.1240  143.2520 C   0  0  1  0  0  3  0  0  0  0  0  0
  194.4620  176.4160  144.1670 C   0  0  0  0  0  2  0  0  0  0  0  0
  194.6570  175.8340  145.5500 C   0  0  0  0  0  2  0  0  0  0  0  0
  194.1910  176.8320  146.5880 C   0  0  0  0  0  2  0  0  0  0  0  0
  192.8890  176.3560  147.1980 C   0  0  0  0  0  1  0  0  0  0  0  0
  186.4940  176.6610  144.3010 C   0  0  1  0  0  3  0  0  0  0  0  0
  186.0670  177.5140  145.4970 C   0  0  0  0  0  3  0  0  0  0  0  0
  187.1890  177.9160  146.2240 O   0  0  0  0  0  1  0  0  0  0  0  0
  185.2210  176.7820  146.3320 O   0  0  0  0  0  1  0  0  0  0  0  0
  184.6630  177.9160  143.3960 O   0  0  0  0  0  1  0  0  0  0  0  0
  185.5660  176.8910  143.1110 C   0  0  0  0  0  2  0  0  0  0  0  0
  1  2  1  0  0  0  0
  2  9  1  6  0  0  0
  2 17  1  0  0  0  0
  4 11  1  0  0  0  0
  5  8  1  6  0  0  0
  5 19  1  0  0  0  0
  5 21  1  0  0  0  0
  9  5  1  0  0  0  0
 10 18  1  1  0  0  0
 10  6  1  0  0  0  0
 12 14  1  0  0  0  0
 12  1  1  0  0  0  0
 13 25  1  6  0  0  0
 14  3  1  6  0  0  0
 14 13  1  0  0  0  0
 16  7  1  6  0  0  0
 16 13  1  0  0  0  0
 16 17  1  0  0  0  0
 17  6  1  0  0  0  0
 17 15  1  1  0  0  0
 18 11  1  0  0  0  0
 20  4  1  1  0  0  0
 20 10  1  0  0  0  0
 20 19  1  0  0  0  0
 21 22  1  0  0  0  0
 22 23  1  0  0  0  0
 23 24  1  0  0  0  0
 25 30  1  6  0  0  0
 25 26  1  0  0  0  0
 26 27  1  0  0  0  0
 26 28  1  0  0  0  0
 30 29  1  0  0  0  0
M  END
>  <MODEL>
6

>  <REMARK>
 VINA RESULT:      -5.7      3.072      6.457
  Name = 
  6 active torsions:
  status: ('A' for Active; 'I' for Inactive)
    1  A    between atoms: C_2  and  C_28
    2  A    between atoms: C_6  and  P_8
    3  A    between atoms: C_6  and  C_21
    4  A    between atoms: C_9  and  C_21
    5  A    between atoms: C_19  and  C_28
    6  A    between atoms: C_28  and  C_29
                            x       y       z     vdW  Elec       q    Type
                         _______ _______ _______ _____ _____    ______ ____

>  <TORSDO>
F 6

$$$$
=
 OpenBabel11052417243D

 30 32  0  0  1  0  0  0  0  0999 V2000
  190.1040  177.0150  144.5030 C   0  0  0  0  0  2  0  0  0  0  0  0
  190.3260  175.9910  143.3790 C   0  0  2  0  0  3  0  0  0  0  0  0
  191.4140  175.2960  147.6930 C   0  0  0  0  0  1  0  0  0  0  0  0
  190.7950  171.8910  140.3190 C   0  0  0  0  0  2  0  0  0  0  0  0
  188.5600  174.5300  141.8500 P   0  0  1  0  0  4  0  0  0  0  0  0
  192.0360  174.6760  141.9760 C   0  0  0  0  0  2  0  0  0  0  0  0
  191.7150  173.8610  144.9440 O   0  0  0  0  0  1  0  0  0  0  0  0
  187.0640  173.1050  142.0610 Cl  0  0  0  0  0  0  0  0  0  0  0  0
  189.3190  174.8450  143.4730 C   0  0  0  0  0  2  0  0  0  0  0  0
  191.5980  173.2170  142.1370 C   0  0  2  0  0  3  0  0  0  0  0  0
  192.1930  171.9630  140.2240 O   0  0  0  0  0  0  0  0  0  0  0  0
  190.1050  176.3570  145.8820 C   0  0  0  0  0  2  0  0  0  0  0  0
  192.6560  176.0040  145.5790 C   0  0  2  0  0  3  0  0  0  0  0  0
  191.4820  176.2890  146.5460 C   0  0  2  0  0  3  0  0  0  0  0  0
  192.5230  176.7560  142.9110 O   0  0  0  0  0  1  0  0  0  0  0  0
  192.4380  174.9610  144.4730 C   0  0  2  0  0  3  0  0  0  0  0  0
  191.8160  175.5860  143.2000 C   0  0  1  0  0  0  0  0  0  0  0  0
  192.6350  172.3190  141.5050 C   0  0  0  0  0  2  0  0  0  0  0  0
  189.7390  173.9800  140.7610 O   0  0  0  0  0  0  0  0  0  0  0  0
  190.3310  172.8670  141.3750 C   0  0  1  0  0  3  0  0  0  0  0  0
  187.8270  176.0660  141.2210 C   0  0  0  0  0  2  0  0  0  0  0  0
  186.8100  176.5910  142.2100 C   0  0  0  0  0  2  0  0  0  0  0  0
  187.1690  178.0090  142.5990 C   0  0  0  0  0  2  0  0  0  0  0  0
  186.6920  178.2820  144.0100 C   0  0  0  0  0  1  0  0  0  0  0  0
  194.0770  175.9990  146.1720 C   0  0  1  0  0  3  0  0  0  0  0  0
  195.0390  175.1710  145.3200 C   0  0  0  0  0  3  0  0  0  0  0  0
  195.9660  174.5220  146.1380 O   0  0  0  0  0  1  0  0  0  0  0  0
  195.7210  175.9970  144.4250 O   0  0  0  0  0  1  0  0  0  0  0  0
  194.1830  178.2630  145.3910 O   0  0  0  0  0  1  0  0  0  0  0  0
  194.6250  177.4060  146.4000 C   0  0  0  0  0  2  0  0  0  0  0  0
  1 12  1  0  0  0  0
  2  9  1  1  0  0  0
  2  1  1  0  0  0  0
  5  8  1  1  0  0  0
  5  9  1  0  0  0  0
  6 10  1  0  0  0  0
  6 17  1  0  0  0  0
 10 18  1  6  0  0  0
 11  4  1  0  0  0  0
 11 18  1  0  0  0  0
 12 14  1  0  0  0  0
 13 25  1  1  0  0  0
 13 14  1  0  0  0  0
 14  3  1  1  0  0  0
 16  7  1  1  0  0  0
 16 13  1  0  0  0  0
 17 15  1  6  0  0  0
 17  2  1  0  0  0  0
 17 16  1  0  0  0  0
 19 20  1  0  0  0  0
 19  5  1  0  0  0  0
 20  4  1  6  0  0  0
 20 10  1  0  0  0  0
 21  5  1  0  0  0  0
 21 22  1  0  0  0  0
 22 23  1  0  0  0  0
 23 24  1  0  0  0  0
 25 30  1  6  0  0  0
 26 27  1  0  0  0  0
 26 25  1  0  0  0  0
 28 26  1  0  0  0  0
 29 30  1  0  0  0  0
M  END
>  <MODEL>
7

>  <REMARK>
 VINA RESULT:      -5.7      1.536      1.947
  Name = 
  6 active torsions:
  status: ('A' for Active; 'I' for Inactive)
    1  A    between atoms: C_2  and  C_28
    2  A    between atoms: C_6  and  P_8
    3  A    between atoms: C_6  and  C_21
    4  A    between atoms: C_9  and  C_21
    5  A    between atoms: C_19  and  C_28
    6  A    between atoms: C_28  and  C_29
                            x       y       z     vdW  Elec       q    Type
                         _______ _______ _______ _____ _____    ______ ____

>  <TORSDO>
F 6

$$$$
=
 OpenBabel11052417243D

 30 32  0  0  1  0  0  0  0  0999 V2000
  190.7230  173.9210  145.8290 C   0  0  0  0  0  2  0  0  0  0  0  0
  191.8790  174.0610  144.8270 C   0  0  2  0  0  3  0  0  0  0  0  0
  189.6850  177.5370  146.6650 C   0  0  0  0  0  1  0  0  0  0  0  0
  196.0170  175.3100  142.0500 C   0  0  0  0  0  2  0  0  0  0  0  0
  194.5670  173.4910  145.0320 P   0  0  1  0  0  4  0  0  0  0  0  0
  192.6090  174.8200  142.4790 C   0  0  0  0  0  2  0  0  0  0  0  0
  191.8870  177.0310  144.5210 O   0  0  0  0  0  1  0  0  0  0  0  0
  196.2360  174.0350  146.1440 Cl  0  0  0  0  0  0  0  0  0  0  0  0
  193.1570  174.5300  145.5230 C   0  0  0  0  0  2  0  0  0  0  0  0
  193.7790  175.7710  142.7480 C   0  0  2  0  0  3  0  0  0  0  0  0
  195.2920  175.7480  140.9320 O   0  0  0  0  0  0  0  0  0  0  0  0
  190.5060  175.2040  146.6310 C   0  0  0  0  0  2  0  0  0  0  0  0
  189.5860  176.2680  144.4540 C   0  0  2  0  0  3  0  0  0  0  0  0
  189.5170  176.1830  145.9970 C   0  0  2  0  0  3  0  0  0  0  0  0
  190.4390  174.1010  142.9420 O   0  0  0  0  0  1  0  0  0  0  0  0
  190.9740  176.2590  143.7950 C   0  0  2  0  0  3  0  0  0  0  0  0
  191.4820  174.8210  143.5310 C   0  0  1  0  0  0  0  0  0  0  0  0
  194.1840  176.4320  141.4520 C   0  0  0  0  0  2  0  0  0  0  0  0
  194.8800  173.6920  143.3760 O   0  0  0  0  0  0  0  0  0  0  0  0
  195.0530  175.0700  143.1890 C   0  0  1  0  0  3  0  0  0  0  0  0
  194.1780  171.7510  145.3670 C   0  0  0  0  0  2  0  0  0  0  0  0
  194.0850  170.9870  144.0630 C   0  0  0  0  0  2  0  0  0  0  0  0
  192.6700  170.4880  143.8700 C   0  0  0  0  0  2  0  0  0  0  0  0
  192.1050  171.0560  142.5850 C   0  0  0  0  0  1  0  0  0  0  0  0
  188.5650  177.1770  143.7470 C   0  0  1  0  0  3  0  0  0  0  0  0
  188.6600  177.0550  142.2250 C   0  0  0  0  0  3  0  0  0  0  0  0
  188.5360  178.3140  141.6340 O   0  0  0  0  0  1  0  0  0  0  0  0
  187.6440  176.2250  141.7460 O   0  0  0  0  0  1  0  0  0  0  0  0
  186.4960  178.1570  144.4580 O   0  0  0  0  0  1  0  0  0  0  0  0
  187.1340  176.9390  144.2230 C   0  0  0  0  0  2  0  0  0  0  0  0
  1 12  1  0  0  0  0
  2  9  1  1  0  0  0
  2  1  1  0  0  0  0
  5 21  1  0  0  0  0
  5  9  1  0  0  0  0
  5  8  1  1  0  0  0
  6 10  1  0  0  0  0
  6 17  1  0  0  0  0
 10 18  1  6  0  0  0
 10 20  1  0  0  0  0
 11 18  1  0  0  0  0
 11  4  1  0  0  0  0
 13 25  1  1  0  0  0
 13 14  1  0  0  0  0
 14 12  1  0  0  0  0
 14  3  1  1  0  0  0
 16 13  1  0  0  0  0
 16  7  1  1  0  0  0
 17 15  1  6  0  0  0
 17 16  1  0  0  0  0
 17  2  1  0  0  0  0
 19  5  1  0  0  0  0
 20  4  1  6  0  0  0
 20 19  1  0  0  0  0
 22 21  1  0  0  0  0
 23 22  1  0  0  0  0
 24 23  1  0  0  0  0
 25 30  1  1  0  0  0
 26 25  1  0  0  0  0
 27 26  1  0  0  0  0
 28 26  1  0  0  0  0
 30 29  1  0  0  0  0
M  END
>  <MODEL>
8

>  <REMARK>
 VINA RESULT:      -5.7      3.369      6.806
  Name = 
  6 active torsions:
  status: ('A' for Active; 'I' for Inactive)
    1  A    between atoms: C_2  and  C_28
    2  A    between atoms: C_6  and  P_8
    3  A    between atoms: C_6  and  C_21
    4  A    between atoms: C_9  and  C_21
    5  A    between atoms: C_19  and  C_28
    6  A    between atoms: C_28  and  C_29
                            x       y       z     vdW  Elec       q    Type
                         _______ _______ _______ _____ _____    ______ ____

>  <TORSDO>
F 6

$$$$
=
 OpenBabel11052417243D

 30 32  0  0  1  0  0  0  0  0999 V2000
  189.0880  173.8770  142.8080 C   0  0  0  0  0  2  0  0  0  0  0  0
  190.1840  174.4440  143.7230 C   0  0  2  0  0  3  0  0  0  0  0  0
  190.9260  172.7990  139.5970 C   0  0  0  0  0  1  0  0  0  0  0  0
  194.2270  176.7180  145.9280 C   0  0  0  0  0  2  0  0  0  0  0  0
  190.6930  177.0010  144.6130 P   0  0  1  0  0  4  0  0  0  0  0  0
  192.3050  173.9530  145.0950 C   0  0  0  0  0  2  0  0  0  0  0  0
  192.5660  173.8870  142.0110 O   0  0  0  0  0  1  0  0  0  0  0  0
  191.1450  178.8900  143.8760 Cl  0  0  0  0  0  0  0  0  0  0  0  0
  190.6530  175.8140  143.2350 C   0  0  0  0  0  2  0  0  0  0  0  0
  193.3230  174.9720  144.5730 C   0  0  2  0  0  3  0  0  0  0  0  0
  194.8780  175.5220  146.2660 O   0  0  0  0  0  0  0  0  0  0  0  0
  189.5250  173.8500  141.3440 C   0  0  0  0  0  2  0  0  0  0  0  0
  191.1400  171.9270  141.9860 C   0  0  2  0  0  3  0  0  0  0  0  0
  190.2140  172.5530  140.9160 C   0  0  2  0  0  3  0  0  0  0  0  0
  190.6750  172.3340  144.6920 O   0  0  0  0  0  1  0  0  0  0  0  0
  192.0290  172.8710  142.8080 C   0  0  2  0  0  3  0  0  0  0  0  0
  191.2980  173.4140  144.0600 C   0  0  1  0  0  0  0  0  0  0  0  0
  194.6750  174.6680  145.1730 C   0  0  0  0  0  2  0  0  0  0  0  0
  191.8610  176.5240  145.7480 O   0  0  0  0  0  0  0  0  0  0  0  0
  193.0570  176.3960  145.0290 C   0  0  1  0  0  3  0  0  0  0  0  0
  189.0630  177.0530  145.4100 C   0  0  0  0  0  2  0  0  0  0  0  0
  188.0410  177.6210  144.4490 C   0  0  0  0  0  2  0  0  0  0  0  0
  186.8550  176.6850  144.3620 C   0  0  0  0  0  2  0  0  0  0  0  0
  186.4550  176.5100  142.9120 C   0  0  0  0  0  1  0  0  0  0  0  0
  191.8030  170.5790  141.6470 C   0  0  1  0  0  3  0  0  0  0  0  0
  193.0110  170.3060  142.5440 C   0  0  0  0  0  3  0  0  0  0  0  0
  194.0050  169.6440  141.8200 O   0  0  0  0  0  1  0  0  0  0  0  0
  192.6340  169.5140  143.6300 O   0  0  0  0  0  1  0  0  0  0  0  0
  190.6730  168.8630  140.4130 O   0  0  0  0  0  1  0  0  0  0  0  0
  190.8210  169.4110  141.6880 C   0  0  0  0  0  2  0  0  0  0  0  0
  2  1  1  6  0  0  0
  2 17  1  0  0  0  0
  4 11  1  0  0  0  0
  5  8  1  6  0  0  0
  5 21  1  0  0  0  0
  5 19  1  0  0  0  0
  9  2  1  0  0  0  0
  9  5  1  0  0  0  0
 10 20  1  0  0  0  0
 10  6  1  1  0  0  0
 10 18  1  0  0  0  0
 12  1  1  0  0  0  0
 13 25  1  6  0  0  0
 13 16  1  0  0  0  0
 14  3  1  6  0  0  0
 14 12  1  0  0  0  0
 14 13  1  0  0  0  0
 16  7  1  6  0  0  0
 16 17  1  0  0  0  0
 17 15  1  1  0  0  0
 17  6  1  0  0  0  0
 18 11  1  0  0  0  0
 20 19  1  0  0  0  0
 20  4  1  1  0  0  0
 22 21  1  0  0  0  0
 23 22  1  0  0  0  0
 24 23  1  0  0  0  0
 25 30  1  1  0  0  0
 25 26  1  0  0  0  0
 26 28  1  0  0  0  0
 27 26  1  0  0  0  0
 29 30  1  0  0  0  0
M  END
>  <MODEL>
9

>  <REMARK>
 VINA RESULT:      -5.6      2.653      5.685
  Name = 
  6 active torsions:
  status: ('A' for Active; 'I' for Inactive)
    1  A    between atoms: C_2  and  C_28
    2  A    between atoms: C_6  and  P_8
    3  A    between atoms: C_6  and  C_21
    4  A    between atoms: C_9  and  C_21
    5  A    between atoms: C_19  and  C_28
    6  A    between atoms: C_28  and  C_29
                            x       y       z     vdW  Elec       q    Type
                         _______ _______ _______ _____ _____    ______ ____

>  <TORSDO>
F 6

$$$$
