=
 OpenBabel11052419353D

 55 60  0  0  1  0  0  0  0  0999 V2000
  189.5000  173.2610  139.6370 N   0  0  0  0  0  0  0  0  0  0  0  0
  189.2240  172.1760  138.7130 C   0  0  0  0  0  2  0  0  0  0  0  0
  189.2180  172.7090  137.2870 C   0  0  0  0  0  2  0  0  0  0  0  0
  190.6520  170.8230  136.9730 O   0  0  0  0  0  1  0  0  0  0  0  0
  190.2510  172.0260  136.3830 C   0  0  1  0  0  0  0  0  0  0  0  0
  189.5420  171.6780  135.0790 C   0  0  0  0  0  1  0  0  0  0  0  0
  192.5960  174.9210  137.1140 C   0  0  2  0  0  3  0  0  0  0  0  0
  194.3450  173.9290  135.8040 O   0  0  0  0  0  1  0  0  0  0  0  0
  191.5050  172.9300  136.1370 C   0  0  1  0  0  0  0  0  0  0  0  0
  192.4790  171.9910  138.1580 O   0  0  0  0  0  1  0  0  0  0  0  0
  192.7790  172.5040  136.8900 C   0  0  2  0  0  3  0  0  0  0  0  0
  190.7240  175.1670  135.5660 O   0  0  0  0  0  1  0  0  0  0  0  0
  193.0080  176.0750  136.4370 O   0  0  0  0  0  1  0  0  0  0  0  0
  193.6210  173.7870  136.9940 C   0  0  2  0  0  0  0  0  0  0  0  0
  191.8070  172.9240  134.7680 O   0  0  0  0  0  1  0  0  0  0  0  0
  191.2620  174.3780  136.5900 C   0  0  2  0  0  3  0  0  0  0  0  0
  194.6150  173.8270  138.1730 C   0  0  1  0  0  3  0  0  0  0  0  0
  195.8860  174.2440  137.7650 O   0  0  0  0  0  1  0  0  0  0  0  0
  194.1150  174.7020  139.3150 C   0  0  0  0  0  2  0  0  0  0  0  0
  195.0930  175.6360  139.6580 O   0  0  0  0  0  1  0  0  0  0  0  0
  188.2160  173.7180  140.1550 C   0  0  0  0  0  2  0  0  0  0  0  0
  188.0750  175.2220  139.9730 C   0  0  0  0  0  2  0  0  0  0  0  0
  187.3240  175.7740  141.0440 O   0  0  0  0  0  0  0  0  0  0  0  0
  188.2370  175.2170  143.0710 O   0  0  0  0  0  0  0  0  0  0  0  0
  188.1650  177.4970  142.5710 N   0  0  0  0  0  2  0  0  0  0  0  0
  187.9270  176.1220  142.2520 C   0  0  0  0  0  0  0  0  0  0  0  0
  192.2450  176.8310  142.8660 N   0  0  0  0  0  0  0  0  0  0  0  0
  186.4860  177.5850  144.8750 C   0  0  0  0  0  3  0  0  0  0  0  0
  192.6090  176.0350  146.4300 C   0  0  0  0  0  3  0  0  0  0  0  0
  185.6590  177.2430  145.9490 C   0  0  0  0  0  3  0  0  0  0  0  0
  188.4440  177.1300  146.2300 C   0  0  0  0  0  0  0  0  0  0  0  0
  187.6120  176.7990  147.3050 C   0  0  0  0  0  3  0  0  0  0  0  0
  186.2230  176.8480  147.1640 C   0  0  0  0  0  3  0  0  0  0  0  0
  187.8830  177.5170  144.9960 C   0  0  0  0  0  0  0  0  0  0  0  0
  190.9780  177.3140  142.8000 C   0  0  0  0  0  3  0  0  0  0  0  0
  194.6580  175.4590  145.2560 C   0  0  0  0  0  0  0  0  0  0  0  0
  190.7110  176.9660  145.1800 C   0  0  0  0  0  0  0  0  0  0  0  0
  192.7800  176.3980  144.0340 C   0  0  0  0  0  0  0  0  0  0  0  0
  189.9240  177.1460  146.4510 C   0  0  0  0  0  2  0  0  0  0  0  0
  194.0840  175.8960  144.0540 C   0  0  0  0  0  3  0  0  0  0  0  0
  188.7650  177.9230  143.8330 C   0  0  1  0  0  3  0  0  0  0  0  0
  193.9130  175.5350  146.4420 C   0  0  0  0  0  3  0  0  0  0  0  0
  190.1710  177.3730  143.9430 C   0  0  0  0  0  0  0  0  0  0  0  0
  192.0280  176.4660  145.2270 C   0  0  0  0  0  0  0  0  0  0  0  0
  196.0280  174.9250  145.2660 C   0  0  0  0  0  0  0  0  0  0  0  0
  196.9210  175.2630  144.2560 O   0  0  0  0  0  0  0  0  0  0  0  0
  196.4050  174.1520  146.1880 O   0  0  0  0  0  1  0  0  0  0  0  0
  190.2460  172.6850  140.7450 C   0  0  0  0  0  2  0  0  0  0  0  0
  191.0800  173.7690  141.4020 C   0  0  0  0  0  2  0  0  0  0  0  0
  193.5370  172.0540  144.4330 C   0  0  0  0  0  3  0  0  0  0  0  0
  191.9390  173.1900  142.4710 C   0  0  0  0  0  0  0  0  0  0  0  0
  193.1760  172.7110  142.1650 N   0  0  0  0  0  0  0  0  0  0  0  0
  192.2710  172.5410  144.7670 C   0  0  0  0  0  3  0  0  0  0  0  0
  193.9770  172.1500  143.1110 C   0  0  0  0  0  3  0  0  0  0  0  0
  191.4640  173.1140  143.7830 C   0  0  0  0  0  3  0  0  0  0  0  0
  1 21  1  0  0  0  0
  1 48  1  0  0  0  0
  2  1  1  0  0  0  0
  3  2  1  0  0  0  0
  5  6  1  6  0  0  0
  5  4  1  0  0  0  0
  5  3  1  0  0  0  0
  7 13  1  6  0  0  0
  9 15  1  6  0  0  0
  9  5  1  0  0  0  0
  9 16  1  0  0  0  0
  9 11  1  0  0  0  0
 11 14  1  0  0  0  0
 11 10  1  1  0  0  0
 14  8  1  6  0  0  0
 14  7  1  0  0  0  0
 14 17  1  0  0  0  0
 16 12  1  6  0  0  0
 16  7  1  0  0  0  0
 17 18  1  6  0  0  0
 17 19  1  0  0  0  0
 19 20  1  0  0  0  0
 22 21  1  0  0  0  0
 22 23  1  0  0  0  0
 23 26  1  0  0  0  0
 26 25  1  0  0  0  0
 26 24  2  0  0  0  0
 27 38  1  0  0  0  0
 28 34  2  0  0  0  0
 28 30  1  0  0  0  0
 29 42  1  0  0  0  0
 30 33  2  0  0  0  0
 31 39  1  0  0  0  0
 31 32  2  0  0  0  0
 33 32  1  0  0  0  0
 34 31  1  0  0  0  0
 35 27  2  0  0  0  0
 35 43  1  0  0  0  0
 36 45  1  0  0  0  0
 36 42  2  0  0  0  0
 37 44  1  0  0  0  0
 37 39  1  0  0  0  0
 38 40  2  0  0  0  0
 38 44  1  0  0  0  0
 40 36  1  0  0  0  0
 41 25  1  6  0  0  0
 41 43  1  0  0  0  0
 41 34  1  0  0  0  0
 43 37  2  0  0  0  0
 44 29  2  0  0  0  0
 45 47  1  0  0  0  0
 46 45  2  0  0  0  0
 48 49  1  0  0  0  0
 49 51  1  0  0  0  0
 50 53  1  0  0  0  0
 51 55  1  0  0  0  0
 52 51  2  0  0  0  0
 52 54  1  0  0  0  0
 54 50  2  0  0  0  0
 55 53  2  0  0  0  0
M  END
>  <MODEL>
1

>  <REMARK>
 VINA RESULT:      -6.9      0.000      0.000
  Name = 
  15 active torsions:
  status: ('A' for Active; 'I' for Inactive)
    1  A    between atoms: O_4  and  C_37
    2  A    between atoms: O_4  and  C_40
    3  A    between atoms: C_6  and  C_20
    4  A    between atoms: C_8  and  C_22
    5  A    between atoms: C_8  and  N_43
    6  A    between atoms: C_10  and  C_32
    7  A    between atoms: C_11  and  C_29
    8  A    between atoms: N_19  and  C_45
    9  A    between atoms: C_20  and  C_22
   10  A    between atoms: C_27  and  C_54
   11  A    between atoms: C_29  and  C_38
   12  A    between atoms: C_35  and  C_37
   13  A    between atoms: C_35  and  N_43
   14  A    between atoms: N_43  and  C_51
   15  A    between atoms: C_51  and  C_54
                            x       y       z     vdW  Elec       q    Type
                         _______ _______ _______ _____ _____    ______ ____

>  <TORSDO>
F 15

$$$$
=
 OpenBabel11052419353D

 55 60  0  0  1  0  0  0  0  0999 V2000
  194.3310  175.6910  145.6110 N   0  0  0  0  0  0  0  0  0  0  0  0
  194.0900  175.7920  144.1830 C   0  0  0  0  0  2  0  0  0  0  0  0
  195.4190  175.8240  143.4420 C   0  0  0  0  0  2  0  0  0  0  0  0
  193.9400  176.0740  141.5810 O   0  0  0  0  0  1  0  0  0  0  0  0
  195.2620  175.7650  141.9180 C   0  0  1  0  0  0  0  0  0  0  0  0
  196.1460  176.8620  141.3350 C   0  0  0  0  0  1  0  0  0  0  0  0
  194.6180  172.5790  139.9580 C   0  0  2  0  0  3  0  0  0  0  0  0
  196.9650  172.0920  139.8370 O   0  0  0  0  0  1  0  0  0  0  0  0
  195.6310  174.3570  141.3430 C   0  0  1  0  0  0  0  0  0  0  0  0
  195.7220  175.3700  139.1340 O   0  0  0  0  0  1  0  0  0  0  0  0
  196.2700  174.3660  139.9420 C   0  0  2  0  0  3  0  0  0  0  0  0
  194.1340  172.7160  142.3460 O   0  0  0  0  0  1  0  0  0  0  0  0
  194.5480  171.2130  140.2560 O   0  0  0  0  0  1  0  0  0  0  0  0
  195.9780  172.9690  139.3680 C   0  0  2  0  0  0  0  0  0  0  0  0
  196.5390  173.7360  142.2130 O   0  0  0  0  0  1  0  0  0  0  0  0
  194.3920  173.4610  141.1890 C   0  0  2  0  0  3  0  0  0  0  0  0
  195.9480  172.8840  137.8290 C   0  0  1  0  0  3  0  0  0  0  0  0
  196.6390  171.7630  137.3570 O   0  0  0  0  0  1  0  0  0  0  0  0
  194.5260  172.8950  137.2820 C   0  0  0  0  0  2  0  0  0  0  0  0
  194.4250  172.0090  136.2090 O   0  0  0  0  0  1  0  0  0  0  0  0
  193.0420  175.4440  146.2460 C   0  0  0  0  0  2  0  0  0  0  0  0
  192.5440  176.6990  146.9450 C   0  0  0  0  0  2  0  0  0  0  0  0
  191.3180  176.4340  147.6100 O   0  0  0  0  0  0  0  0  0  0  0  0
  189.7280  174.7900  147.4660 O   0  0  0  0  0  0  0  0  0  0  0  0
  189.7850  176.3170  145.7000 N   0  0  0  0  0  2  0  0  0  0  0  0
  190.2550  175.8130  146.9550 C   0  0  0  0  0  0  0  0  0  0  0  0
  190.9970  173.9430  142.5270 N   0  0  0  0  0  0  0  0  0  0  0  0
  187.2430  177.6110  145.7250 C   0  0  0  0  0  3  0  0  0  0  0  0
  188.3060  174.5220  140.1010 C   0  0  0  0  0  3  0  0  0  0  0  0
  186.1940  178.5150  145.5390 C   0  0  0  0  0  3  0  0  0  0  0  0
  186.8190  176.6590  143.5360 C   0  0  0  0  0  0  0  0  0  0  0  0
  185.7630  177.5590  143.3600 C   0  0  0  0  0  3  0  0  0  0  0  0
  185.4550  178.4910  144.3540 C   0  0  0  0  0  3  0  0  0  0  0  0
  187.5790  176.6860  144.7240 C   0  0  0  0  0  0  0  0  0  0  0  0
  190.4920  174.4870  143.6630 C   0  0  0  0  0  3  0  0  0  0  0  0
  190.1620  173.4000  139.0020 C   0  0  0  0  0  0  0  0  0  0  0  0
  188.4710  175.1020  142.4800 C   0  0  0  0  0  0  0  0  0  0  0  0
  190.3060  173.9620  141.3610 C   0  0  0  0  0  0  0  0  0  0  0  0
  187.0590  175.6250  142.4820 C   0  0  0  0  0  2  0  0  0  0  0  0
  190.8700  173.4030  140.2120 C   0  0  0  0  0  3  0  0  0  0  0  0
  188.6970  175.6910  144.9550 C   0  0  1  0  0  3  0  0  0  0  0  0
  188.8770  173.9600  138.9560 C   0  0  0  0  0  3  0  0  0  0  0  0
  189.2320  175.1010  143.6680 C   0  0  0  0  0  0  0  0  0  0  0  0
  189.0150  174.5340  141.3120 C   0  0  0  0  0  0  0  0  0  0  0  0
  190.7670  172.8160  137.7960 C   0  0  0  0  0  0  0  0  0  0  0  0
  191.3470  171.5530  137.8430 O   0  0  0  0  0  1  0  0  0  0  0  0
  190.7690  173.4540  136.7100 O   0  0  0  0  0  0  0  0  0  0  0  0
  195.1590  174.5120  145.8120 C   0  0  0  0  0  2  0  0  0  0  0  0
  194.2890  173.2710  145.7380 C   0  0  0  0  0  2  0  0  0  0  0  0
  196.6850  169.7520  145.5590 C   0  0  0  0  0  3  0  0  0  0  0  0
  195.1310  172.0470  145.6540 C   0  0  0  0  0  0  0  0  0  0  0  0
  194.5540  170.8170  145.7360 N   0  0  0  0  0  0  0  0  0  0  0  0
  197.2950  171.0050  145.4730 C   0  0  0  0  0  3  0  0  0  0  0  0
  195.2960  169.6770  145.6910 C   0  0  0  0  0  3  0  0  0  0  0  0
  196.5170  172.1630  145.5200 C   0  0  0  0  0  3  0  0  0  0  0  0
  1 48  1  0  0  0  0
  1 21  1  0  0  0  0
  2  1  1  0  0  0  0
  3  2  1  0  0  0  0
  4  5  1  0  0  0  0
  5  6  1  6  0  0  0
  5  3  1  0  0  0  0
  7 13  1  1  0  0  0
  7 16  1  0  0  0  0
  9  5  1  0  0  0  0
  9 15  1  1  0  0  0
 11 10  1  6  0  0  0
 11  9  1  0  0  0  0
 14  8  1  1  0  0  0
 14 11  1  0  0  0  0
 14  7  1  0  0  0  0
 16  9  1  0  0  0  0
 16 12  1  1  0  0  0
 17 18  1  1  0  0  0
 17 14  1  0  0  0  0
 19 17  1  0  0  0  0
 20 19  1  0  0  0  0
 21 22  1  0  0  0  0
 22 23  1  0  0  0  0
 25 26  1  0  0  0  0
 26 24  2  0  0  0  0
 26 23  1  0  0  0  0
 27 35  1  0  0  0  0
 29 44  1  0  0  0  0
 30 28  1  0  0  0  0
 31 34  1  0  0  0  0
 32 31  2  0  0  0  0
 32 33  1  0  0  0  0
 33 30  2  0  0  0  0
 34 41  1  0  0  0  0
 34 28  2  0  0  0  0
 35 43  2  0  0  0  0
 36 40  2  0  0  0  0
 37 39  1  0  0  0  0
 37 43  1  0  0  0  0
 38 27  2  0  0  0  0
 39 31  1  0  0  0  0
 40 38  1  0  0  0  0
 41 25  1  6  0  0  0
 42 36  1  0  0  0  0
 42 29  2  0  0  0  0
 43 41  1  0  0  0  0
 44 38  1  0  0  0  0
 44 37  2  0  0  0  0
 45 46  1  0  0  0  0
 45 36  1  0  0  0  0
 47 45  2  0  0  0  0
 49 48  1  0  0  0  0
 50 54  1  0  0  0  0
 51 52  1  0  0  0  0
 51 49  1  0  0  0  0
 53 55  1  0  0  0  0
 53 50  2  0  0  0  0
 54 52  2  0  0  0  0
 55 51  2  0  0  0  0
M  END
>  <MODEL>
2

>  <REMARK>
 VINA RESULT:      -6.8      2.417      6.080
  Name = 
  15 active torsions:
  status: ('A' for Active; 'I' for Inactive)
    1  A    between atoms: O_4  and  C_37
    2  A    between atoms: O_4  and  C_40
    3  A    between atoms: C_6  and  C_20
    4  A    between atoms: C_8  and  C_22
    5  A    between atoms: C_8  and  N_43
    6  A    between atoms: C_10  and  C_32
    7  A    between atoms: C_11  and  C_29
    8  A    between atoms: N_19  and  C_45
    9  A    between atoms: C_20  and  C_22
   10  A    between atoms: C_27  and  C_54
   11  A    between atoms: C_29  and  C_38
   12  A    between atoms: C_35  and  C_37
   13  A    between atoms: C_35  and  N_43
   14  A    between atoms: N_43  and  C_51
   15  A    between atoms: C_51  and  C_54
                            x       y       z     vdW  Elec       q    Type
                         _______ _______ _______ _____ _____    ______ ____

>  <TORSDO>
F 15

$$$$
=
 OpenBabel11052419353D

 55 60  0  0  1  0  0  0  0  0999 V2000
  187.8780  176.4670  141.8510 N   0  0  0  0  0  0  0  0  0  0  0  0
  188.8190  176.9760  142.8320 C   0  0  0  0  0  2  0  0  0  0  0  0
  189.0510  175.9260  143.9100 C   0  0  0  0  0  2  0  0  0  0  0  0
  189.7420  177.8960  145.0730 O   0  0  0  0  0  1  0  0  0  0  0  0
  189.6230  176.5080  145.2070 C   0  0  1  0  0  0  0  0  0  0  0  0
  188.5980  176.2450  146.3040 C   0  0  0  0  0  1  0  0  0  0  0  0
  192.7630  174.4900  144.5180 C   0  0  2  0  0  3  0  0  0  0  0  0
  193.9300  175.5520  146.3270 O   0  0  0  0  0  1  0  0  0  0  0  0
  191.0190  175.8970  145.5610 C   0  0  1  0  0  0  0  0  0  0  0  0
  192.0150  177.4640  143.9900 O   0  0  0  0  0  1  0  0  0  0  0  0
  192.2320  176.7690  145.1860 C   0  0  2  0  0  3  0  0  0  0  0  0
  190.8050  173.4690  145.5580 O   0  0  0  0  0  1  0  0  0  0  0  0
  193.3610  173.3460  145.0610 O   0  0  0  0  0  1  0  0  0  0  0  0
  193.4010  175.7790  145.0490 C   0  0  2  0  0  0  0  0  0  0  0  0
  191.0780  175.6710  146.9440 O   0  0  0  0  0  1  0  0  0  0  0  0
  191.2640  174.5700  144.8250 C   0  0  2  0  0  3  0  0  0  0  0  0
  194.5470  176.2380  144.1260 C   0  0  1  0  0  3  0  0  0  0  0  0
  195.7970  176.0890  144.7360 O   0  0  0  0  0  1  0  0  0  0  0  0
  194.5260  175.5170  142.7840 C   0  0  0  0  0  2  0  0  0  0  0  0
  194.1510  176.4060  141.7750 O   0  0  0  0  0  1  0  0  0  0  0  0
  187.9780  175.0130  141.8770 C   0  0  0  0  0  2  0  0  0  0  0  0
  188.5670  174.4980  140.5730 C   0  0  0  0  0  2  0  0  0  0  0  0
  189.0510  173.1740  140.7450 O   0  0  0  0  0  0  0  0  0  0  0  0
  191.1820  173.5880  141.4810 O   0  0  0  0  0  0  0  0  0  0  0  0
  190.9500  171.8500  139.9380 N   0  0  0  0  0  2  0  0  0  0  0  0
  190.4170  172.8950  140.7590 C   0  0  0  0  0  0  0  0  0  0  0  0
  192.3760  169.7480  143.2120 N   0  0  0  0  0  0  0  0  0  0  0  0
  192.6360  173.5610  138.3990 C   0  0  0  0  0  3  0  0  0  0  0  0
  195.7630  171.1170  143.5530 C   0  0  0  0  0  3  0  0  0  0  0  0
  193.3640  174.6540  137.9210 C   0  0  0  0  0  3  0  0  0  0  0  0
  194.4520  173.0040  139.9050 C   0  0  0  0  0  0  0  0  0  0  0  0
  195.1810  174.0930  139.4150 C   0  0  0  0  0  3  0  0  0  0  0  0
  194.6350  174.9210  138.4310 C   0  0  0  0  0  3  0  0  0  0  0  0
  193.1620  172.7350  139.4040 C   0  0  0  0  0  0  0  0  0  0  0  0
  191.9900  170.2150  141.9980 C   0  0  0  0  0  3  0  0  0  0  0  0
  195.2000  169.8410  145.5430 C   0  0  0  0  0  0  0  0  0  0  0  0
  194.1210  171.3330  141.7400 C   0  0  0  0  0  0  0  0  0  0  0  0
  193.5900  170.0460  143.7350 C   0  0  0  0  0  0  0  0  0  0  0  0
  195.1080  172.0940  140.8950 C   0  0  0  0  0  2  0  0  0  0  0  0
  193.9420  169.5550  144.9950 C   0  0  0  0  0  3  0  0  0  0  0  0
  192.3750  171.5340  139.8880 C   0  0  1  0  0  3  0  0  0  0  0  0
  196.1070  170.6220  144.8130 C   0  0  0  0  0  3  0  0  0  0  0  0
  192.8360  171.0370  141.2420 C   0  0  0  0  0  0  0  0  0  0  0  0
  194.5020  170.8400  143.0040 C   0  0  0  0  0  0  0  0  0  0  0  0
  195.5580  169.3260  146.8740 C   0  0  0  0  0  0  0  0  0  0  0  0
  194.5690  168.8760  147.7410 O   0  0  0  0  0  1  0  0  0  0  0  0
  196.7620  169.2920  147.2420 O   0  0  0  0  0  0  0  0  0  0  0  0
  186.5500  176.8300  142.3200 C   0  0  0  0  0  2  0  0  0  0  0  0
  186.5950  178.2240  142.9190 C   0  0  0  0  0  2  0  0  0  0  0  0
  184.9560  178.2410  146.8530 C   0  0  0  0  0  3  0  0  0  0  0  0
  186.0030  178.2250  144.2840 C   0  0  0  0  0  0  0  0  0  0  0  0
  185.9370  179.3820  144.9970 N   0  0  0  0  0  0  0  0  0  0  0  0
  185.0150  177.0430  146.1370 C   0  0  0  0  0  3  0  0  0  0  0  0
  185.4270  179.4140  146.2590 C   0  0  0  0  0  3  0  0  0  0  0  0
  185.5400  177.0310  144.8440 C   0  0  0  0  0  3  0  0  0  0  0  0
  1 21  1  0  0  0  0
  1 48  1  0  0  0  0
  1  2  1  0  0  0  0
  2  3  1  0  0  0  0
  3  5  1  0  0  0  0
  4  5  1  0  0  0  0
  5  9  1  0  0  0  0
  5  6  1  1  0  0  0
  7 16  1  0  0  0  0
  7 14  1  0  0  0  0
  7 13  1  1  0  0  0
  9 15  1  1  0  0  0
 11 10  1  6  0  0  0
 11  9  1  0  0  0  0
 14 11  1  0  0  0  0
 14  8  1  1  0  0  0
 16 12  1  1  0  0  0
 16  9  1  0  0  0  0
 17 18  1  1  0  0  0
 17 14  1  0  0  0  0
 19 17  1  0  0  0  0
 20 19  1  0  0  0  0
 22 23  1  0  0  0  0
 22 21  1  0  0  0  0
 23 26  1  0  0  0  0
 25 26  1  0  0  0  0
 26 24  2  0  0  0  0
 27 38  1  0  0  0  0
 28 34  1  0  0  0  0
 29 42  1  0  0  0  0
 30 28  2  0  0  0  0
 30 33  1  0  0  0  0
 31 39  1  0  0  0  0
 32 31  1  0  0  0  0
 33 32  2  0  0  0  0
 34 41  1  0  0  0  0
 34 31  2  0  0  0  0
 35 27  2  0  0  0  0
 36 45  1  0  0  0  0
 37 44  1  0  0  0  0
 38 40  2  0  0  0  0
 39 37  1  0  0  0  0
 40 36  1  0  0  0  0
 41 25  1  1  0  0  0
 41 43  1  0  0  0  0
 42 36  2  0  0  0  0
 43 37  2  0  0  0  0
 43 35  1  0  0  0  0
 44 29  2  0  0  0  0
 44 38  1  0  0  0  0
 45 47  2  0  0  0  0
 45 46  1  0  0  0  0
 48 49  1  0  0  0  0
 49 51  1  0  0  0  0
 51 55  2  0  0  0  0
 51 52  1  0  0  0  0
 52 54  2  0  0  0  0
 53 50  2  0  0  0  0
 54 50  1  0  0  0  0
 55 53  1  0  0  0  0
M  END
>  <MODEL>
3

>  <REMARK>
 VINA RESULT:      -6.7      2.764      8.084
  Name = 
  15 active torsions:
  status: ('A' for Active; 'I' for Inactive)
    1  A    between atoms: O_4  and  C_37
    2  A    between atoms: O_4  and  C_40
    3  A    between atoms: C_6  and  C_20
    4  A    between atoms: C_8  and  C_22
    5  A    between atoms: C_8  and  N_43
    6  A    between atoms: C_10  and  C_32
    7  A    between atoms: C_11  and  C_29
    8  A    between atoms: N_19  and  C_45
    9  A    between atoms: C_20  and  C_22
   10  A    between atoms: C_27  and  C_54
   11  A    between atoms: C_29  and  C_38
   12  A    between atoms: C_35  and  C_37
   13  A    between atoms: C_35  and  N_43
   14  A    between atoms: N_43  and  C_51
   15  A    between atoms: C_51  and  C_54
                            x       y       z     vdW  Elec       q    Type
                         _______ _______ _______ _____ _____    ______ ____

>  <TORSDO>
F 15

$$$$
=
 OpenBabel11052419353D

 55 60  0  0  1  0  0  0  0  0999 V2000
  194.3490  169.8880  142.5460 N   0  0  0  0  0  0  0  0  0  0  0  0
  195.5890  170.6260  142.3950 C   0  0  0  0  0  2  0  0  0  0  0  0
  195.7420  171.6100  143.5460 C   0  0  0  0  0  2  0  0  0  0  0  0
  197.8780  172.4870  144.1630 O   0  0  0  0  0  1  0  0  0  0  0  0
  196.8050  172.6830  143.2870 C   0  0  1  0  0  0  0  0  0  0  0  0
  197.3290  172.4600  141.8720 C   0  0  0  0  0  1  0  0  0  0  0  0
  194.0890  175.2480  143.9610 C   0  0  2  0  0  3  0  0  0  0  0  0
  195.7130  176.9360  144.4860 O   0  0  0  0  0  1  0  0  0  0  0  0
  196.2390  174.1300  143.4730 C   0  0  1  0  0  0  0  0  0  0  0  0
  195.9760  173.6380  145.8400 O   0  0  0  0  0  1  0  0  0  0  0  0
  196.2470  174.6580  144.9200 C   0  0  2  0  0  3  0  0  0  0  0  0
  194.6350  174.5500  141.6870 O   0  0  0  0  0  1  0  0  0  0  0  0
  193.5070  176.3050  143.2500 O   0  0  0  0  0  1  0  0  0  0  0  0
  195.1530  175.7390  144.9500 C   0  0  2  0  0  0  0  0  0  0  0  0
  197.0000  175.0180  142.7000 O   0  0  0  0  0  1  0  0  0  0  0  0
  194.7670  174.2260  143.0420 C   0  0  2  0  0  3  0  0  0  0  0  0
  194.5270  176.0010  146.3350 C   0  0  1  0  0  3  0  0  0  0  0  0
  194.5060  177.3660  146.6440 O   0  0  0  0  0  1  0  0  0  0  0  0
  193.1270  175.4130  146.4520 C   0  0  0  0  0  2  0  0  0  0  0  0
  192.2220  176.4140  146.8060 O   0  0  0  0  0  1  0  0  0  0  0  0
  193.2770  170.8710  142.6590 C   0  0  0  0  0  2  0  0  0  0  0  0
  192.1500  170.3310  143.5260 C   0  0  0  0  0  2  0  0  0  0  0  0
  191.4710  171.4000  144.1660 O   0  0  0  0  0  0  0  0  0  0  0  0
  189.4900  172.1400  143.2830 O   0  0  0  0  0  0  0  0  0  0  0  0
  191.3630  173.4660  142.8500 N   0  0  0  0  0  2  0  0  0  0  0  0
  190.7250  172.3280  143.4380 C   0  0  0  0  0  0  0  0  0  0  0  0
  189.0520  176.1140  145.0450 N   0  0  0  0  0  0  0  0  0  0  0  0
  190.7140  172.7780  140.1580 C   0  0  0  0  0  3  0  0  0  0  0  0
  186.1970  176.6410  142.8010 C   0  0  0  0  0  3  0  0  0  0  0  0
  190.1700  172.1810  139.0180 C   0  0  0  0  0  3  0  0  0  0  0  0
  188.7760  174.2240  140.3330 C   0  0  0  0  0  0  0  0  0  0  0  0
  188.2410  173.6310  139.1850 C   0  0  0  0  0  3  0  0  0  0  0  0
  188.9310  172.6060  138.5330 C   0  0  0  0  0  3  0  0  0  0  0  0
  190.0200  173.7920  140.8370 C   0  0  0  0  0  0  0  0  0  0  0  0
  189.9420  175.4740  144.2450 C   0  0  0  0  0  3  0  0  0  0  0  0
  185.6750  177.5310  145.0020 C   0  0  0  0  0  0  0  0  0  0  0  0
  188.3690  175.5670  142.4070 C   0  0  0  0  0  0  0  0  0  0  0  0
  187.8280  176.4830  144.5950 C   0  0  0  0  0  0  0  0  0  0  0  0
  188.0440  175.3740  140.9500 C   0  0  0  0  0  2  0  0  0  0  0  0
  186.9380  177.1290  145.4570 C   0  0  0  0  0  3  0  0  0  0  0  0
  190.6390  174.4520  142.0520 C   0  0  1  0  0  3  0  0  0  0  0  0
  185.3130  177.2860  143.6690 C   0  0  0  0  0  3  0  0  0  0  0  0
  189.6200  175.1610  142.9180 C   0  0  0  0  0  0  0  0  0  0  0  0
  187.4590  176.2290  143.2550 C   0  0  0  0  0  0  0  0  0  0  0  0
  184.7410  178.2030  145.9190 C   0  0  0  0  0  0  0  0  0  0  0  0
  184.8190  177.9760  147.2880 O   0  0  0  0  0  1  0  0  0  0  0  0
  183.8610  178.9860  145.4730 O   0  0  0  0  0  0  0  0  0  0  0  0
  194.1480  169.1530  141.3070 C   0  0  0  0  0  2  0  0  0  0  0  0
  193.7820  170.1260  140.2020 C   0  0  0  0  0  2  0  0  0  0  0  0
  190.6110  168.6120  137.7910 C   0  0  0  0  0  3  0  0  0  0  0  0
  192.6810  169.5770  139.3650 C   0  0  0  0  0  0  0  0  0  0  0  0
  192.6960  169.7560  138.0160 N   0  0  0  0  0  0  0  0  0  0  0  0
  190.5780  168.4170  139.1730 C   0  0  0  0  0  3  0  0  0  0  0  0
  191.6920  169.2910  137.2240 C   0  0  0  0  0  3  0  0  0  0  0  0
  191.6180  168.9000  139.9690 C   0  0  0  0  0  3  0  0  0  0  0  0
  1 21  1  0  0  0  0
  2  1  1  0  0  0  0
  2  3  1  0  0  0  0
  5  6  1  6  0  0  0
  5  9  1  0  0  0  0
  5  3  1  0  0  0  0
  5  4  1  0  0  0  0
  7 13  1  6  0  0  0
  7 14  1  0  0  0  0
  9 15  1  6  0  0  0
  9 11  1  0  0  0  0
 11 14  1  0  0  0  0
 11 10  1  1  0  0  0
 14  8  1  6  0  0  0
 14 17  1  0  0  0  0
 16 12  1  6  0  0  0
 16  9  1  0  0  0  0
 16  7  1  0  0  0  0
 17 19  1  0  0  0  0
 17 18  1  6  0  0  0
 19 20  1  0  0  0  0
 21 22  1  0  0  0  0
 22 23  1  0  0  0  0
 24 26  2  0  0  0  0
 25 26  1  0  0  0  0
 26 23  1  0  0  0  0
 28 34  1  0  0  0  0
 29 44  2  0  0  0  0
 29 42  1  0  0  0  0
 30 28  2  0  0  0  0
 31 34  2  0  0  0  0
 31 39  1  0  0  0  0
 32 31  1  0  0  0  0
 33 30  1  0  0  0  0
 33 32  2  0  0  0  0
 34 41  1  0  0  0  0
 35 27  2  0  0  0  0
 36 40  1  0  0  0  0
 36 45  1  0  0  0  0
 37 43  2  0  0  0  0
 37 44  1  0  0  0  0
 38 27  1  0  0  0  0
 38 40  2  0  0  0  0
 39 37  1  0  0  0  0
 41 25  1  1  0  0  0
 41 43  1  0  0  0  0
 42 36  2  0  0  0  0
 43 35  1  0  0  0  0
 44 38  1  0  0  0  0
 45 46  1  0  0  0  0
 47 45  2  0  0  0  0
 48  1  1  0  0  0  0
 49 48  1  0  0  0  0
 50 53  1  0  0  0  0
 51 55  1  0  0  0  0
 51 49  1  0  0  0  0
 52 51  2  0  0  0  0
 53 55  2  0  0  0  0
 54 50  2  0  0  0  0
 54 52  1  0  0  0  0
M  END
>  <MODEL>
4

>  <REMARK>
 VINA RESULT:      -6.7      3.121      7.707
  Name = 
  15 active torsions:
  status: ('A' for Active; 'I' for Inactive)
    1  A    between atoms: O_4  and  C_37
    2  A    between atoms: O_4  and  C_40
    3  A    between atoms: C_6  and  C_20
    4  A    between atoms: C_8  and  C_22
    5  A    between atoms: C_8  and  N_43
    6  A    between atoms: C_10  and  C_32
    7  A    between atoms: C_11  and  C_29
    8  A    between atoms: N_19  and  C_45
    9  A    between atoms: C_20  and  C_22
   10  A    between atoms: C_27  and  C_54
   11  A    between atoms: C_29  and  C_38
   12  A    between atoms: C_35  and  C_37
   13  A    between atoms: C_35  and  N_43
   14  A    between atoms: N_43  and  C_51
   15  A    between atoms: C_51  and  C_54
                            x       y       z     vdW  Elec       q    Type
                         _______ _______ _______ _____ _____    ______ ____

>  <TORSDO>
F 15

$$$$
=
 OpenBabel11052419353D

 55 60  0  0  1  0  0  0  0  0999 V2000
  190.1830  175.7550  145.8330 N   0  0  0  0  0  0  0  0  0  0  0  0
  189.6280  174.7960  144.8950 C   0  0  0  0  0  2  0  0  0  0  0  0
  190.1510  175.0880  143.4960 C   0  0  0  0  0  2  0  0  0  0  0  0
  188.4260  173.5170  142.9810 O   0  0  0  0  0  1  0  0  0  0  0  0
  189.4800  174.2390  142.4110 C   0  0  1  0  0  0  0  0  0  0  0  0
  188.8740  175.2040  141.3990 C   0  0  0  0  0  1  0  0  0  0  0  0
  192.8000  172.4370  142.0340 C   0  0  2  0  0  3  0  0  0  0  0  0
  191.8120  170.7550  140.6360 O   0  0  0  0  0  1  0  0  0  0  0  0
  190.4840  173.2470  141.7350 C   0  0  1  0  0  0  0  0  0  0  0  0
  190.2310  171.7960  143.6690 O   0  0  0  0  0  1  0  0  0  0  0  0
  190.4630  171.8100  142.2880 C   0  0  2  0  0  3  0  0  0  0  0  0
  192.3630  174.5420  140.8770 O   0  0  0  0  0  1  0  0  0  0  0  0
  193.8060  172.3780  141.0620 O   0  0  0  0  0  1  0  0  0  0  0  0
  191.8500  171.2380  141.9510 C   0  0  2  0  0  0  0  0  0  0  0  0
  190.1950  173.1720  140.3650 O   0  0  0  0  0  1  0  0  0  0  0  0
  191.9420  173.7010  141.9140 C   0  0  2  0  0  3  0  0  0  0  0  0
  192.3310  170.0980  142.8700 C   0  0  1  0  0  3  0  0  0  0  0  0
  192.2540  168.8520  142.2370 O   0  0  0  0  0  1  0  0  0  0  0  0
  193.7430  170.3380  143.3890 C   0  0  0  0  0  2  0  0  0  0  0  0
  194.5230  169.1990  143.1840 O   0  0  0  0  0  1  0  0  0  0  0  0
  191.3990  176.2880  145.2300 C   0  0  0  0  0  2  0  0  0  0  0  0
  192.5310  176.3070  146.2460 C   0  0  0  0  0  2  0  0  0  0  0  0
  193.1590  175.0350  146.3010 O   0  0  0  0  0  0  0  0  0  0  0  0
  195.4060  175.4320  146.5110 O   0  0  0  0  0  0  0  0  0  0  0  0
  194.7710  174.0490  144.7390 N   0  0  0  0  0  2  0  0  0  0  0  0
  194.4780  174.8560  145.8850 C   0  0  0  0  0  0  0  0  0  0  0  0
  195.4730  175.6050  140.9630 N   0  0  0  0  0  0  0  0  0  0  0  0
  196.2450  171.8250  145.7470 C   0  0  0  0  0  3  0  0  0  0  0  0
  197.8290  173.1560  139.5800 C   0  0  0  0  0  3  0  0  0  0  0  0
  196.6950  170.5360  146.0480 C   0  0  0  0  0  3  0  0  0  0  0  0
  197.4390  171.7540  143.6380 C   0  0  0  0  0  0  0  0  0  0  0  0
  197.8950  170.4690  143.9500 C   0  0  0  0  0  3  0  0  0  0  0  0
  197.5180  169.8570  145.1480 C   0  0  0  0  0  3  0  0  0  0  0  0
  196.5970  172.4410  144.5360 C   0  0  0  0  0  0  0  0  0  0  0  0
  195.4390  175.2720  142.2780 C   0  0  0  0  0  3  0  0  0  0  0  0
  197.0160  174.5940  137.7980 C   0  0  0  0  0  0  0  0  0  0  0  0
  197.0140  173.4790  141.8740 C   0  0  0  0  0  0  0  0  0  0  0  0
  196.2310  174.9170  140.0750 C   0  0  0  0  0  0  0  0  0  0  0  0
  197.9360  172.4030  142.3850 C   0  0  0  0  0  2  0  0  0  0  0  0
  196.2250  175.2850  138.7270 C   0  0  0  0  0  3  0  0  0  0  0  0
  196.1290  173.8510  144.2390 C   0  0  1  0  0  3  0  0  0  0  0  0
  197.8190  173.5310  138.2350 C   0  0  0  0  0  3  0  0  0  0  0  0
  196.1850  174.1900  142.7650 C   0  0  0  0  0  0  0  0  0  0  0  0
  197.0330  173.8390  140.5120 C   0  0  0  0  0  0  0  0  0  0  0  0
  196.9970  174.9850  136.3800 C   0  0  0  0  0  0  0  0  0  0  0  0
  196.7280  176.3000  136.0180 O   0  0  0  0  0  1  0  0  0  0  0  0
  197.2210  174.1320  135.4800 O   0  0  0  0  0  0  0  0  0  0  0  0
  189.2230  176.8440  145.9320 C   0  0  0  0  0  2  0  0  0  0  0  0
  187.8940  176.2960  146.4200 C   0  0  0  0  0  2  0  0  0  0  0  0
  184.6720  178.8500  145.3000 C   0  0  0  0  0  3  0  0  0  0  0  0
  186.7810  177.2050  146.0350 C   0  0  0  0  0  0  0  0  0  0  0  0
  185.5980  177.1530  146.7050 N   0  0  0  0  0  0  0  0  0  0  0  0
  185.8800  178.9190  144.6020 C   0  0  0  0  0  3  0  0  0  0  0  0
  184.5490  177.9510  146.3620 C   0  0  0  0  0  3  0  0  0  0  0  0
  186.9440  178.0930  144.9690 C   0  0  0  0  0  3  0  0  0  0  0  0
  1 48  1  0  0  0  0
  2  1  1  0  0  0  0
  3  2  1  0  0  0  0
  5  6  1  6  0  0  0
  5  4  1  0  0  0  0
  5  3  1  0  0  0  0
  7 13  1  6  0  0  0
  9 15  1  6  0  0  0
  9 16  1  0  0  0  0
  9 11  1  0  0  0  0
  9  5  1  0  0  0  0
 11 10  1  1  0  0  0
 14  8  1  6  0  0  0
 14  7  1  0  0  0  0
 14 11  1  0  0  0  0
 14 17  1  0  0  0  0
 16 12  1  6  0  0  0
 16  7  1  0  0  0  0
 17 18  1  6  0  0  0
 17 19  1  0  0  0  0
 20 19  1  0  0  0  0
 21  1  1  0  0  0  0
 21 22  1  0  0  0  0
 22 23  1  0  0  0  0
 25 26  1  0  0  0  0
 26 23  1  0  0  0  0
 26 24  2  0  0  0  0
 27 35  1  0  0  0  0
 28 30  1  0  0  0  0
 29 44  1  0  0  0  0
 31 32  2  0  0  0  0
 31 34  1  0  0  0  0
 32 33  1  0  0  0  0
 33 30  2  0  0  0  0
 34 28  2  0  0  0  0
 35 43  2  0  0  0  0
 36 42  1  0  0  0  0
 36 40  2  0  0  0  0
 37 39  1  0  0  0  0
 37 43  1  0  0  0  0
 38 44  1  0  0  0  0
 38 27  2  0  0  0  0
 39 31  1  0  0  0  0
 40 38  1  0  0  0  0
 41 34  1  0  0  0  0
 41 25  1  6  0  0  0
 42 29  2  0  0  0  0
 43 41  1  0  0  0  0
 44 37  2  0  0  0  0
 45 36  1  0  0  0  0
 46 45  1  0  0  0  0
 47 45  2  0  0  0  0
 48 49  1  0  0  0  0
 50 54  1  0  0  0  0
 51 49  1  0  0  0  0
 51 52  1  0  0  0  0
 53 55  1  0  0  0  0
 53 50  2  0  0  0  0
 54 52  2  0  0  0  0
 55 51  2  0  0  0  0
M  END
>  <MODEL>
5

>  <REMARK>
 VINA RESULT:      -6.5      3.104      8.059
  Name = 
  15 active torsions:
  status: ('A' for Active; 'I' for Inactive)
    1  A    between atoms: O_4  and  C_37
    2  A    between atoms: O_4  and  C_40
    3  A    between atoms: C_6  and  C_20
    4  A    between atoms: C_8  and  C_22
    5  A    between atoms: C_8  and  N_43
    6  A    between atoms: C_10  and  C_32
    7  A    between atoms: C_11  and  C_29
    8  A    between atoms: N_19  and  C_45
    9  A    between atoms: C_20  and  C_22
   10  A    between atoms: C_27  and  C_54
   11  A    between atoms: C_29  and  C_38
   12  A    between atoms: C_35  and  C_37
   13  A    between atoms: C_35  and  N_43
   14  A    between atoms: N_43  and  C_51
   15  A    between atoms: C_51  and  C_54
                            x       y       z     vdW  Elec       q    Type
                         _______ _______ _______ _____ _____    ______ ____

>  <TORSDO>
F 15

$$$$
=
 OpenBabel11052419353D

 55 60  0  0  1  0  0  0  0  0999 V2000
  195.6840  171.9240  142.7870 N   0  0  0  0  0  0  0  0  0  0  0  0
  196.0340  173.2420  142.2910 C   0  0  0  0  0  2  0  0  0  0  0  0
  196.3540  173.1610  140.8050 C   0  0  0  0  0  2  0  0  0  0  0  0
  195.6520  175.4410  140.9530 O   0  0  0  0  0  1  0  0  0  0  0  0
  196.2420  174.5120  140.0890 C   0  0  1  0  0  0  0  0  0  0  0  0
  197.6620  174.9890  139.8110 C   0  0  0  0  0  1  0  0  0  0  0  0
  193.9990  172.7690  137.5710 C   0  0  2  0  0  3  0  0  0  0  0  0
  193.3220  174.8640  136.6140 O   0  0  0  0  0  1  0  0  0  0  0  0
  195.3970  174.4130  138.7760 C   0  0  1  0  0  0  0  0  0  0  0  0
  193.3960  174.3900  140.1570 O   0  0  0  0  0  1  0  0  0  0  0  0
  193.9110  174.7930  138.9190 C   0  0  2  0  0  3  0  0  0  0  0  0
  196.4290  172.7360  137.3380 O   0  0  0  0  0  1  0  0  0  0  0  0
  194.0960  172.4060  136.2220 O   0  0  0  0  0  1  0  0  0  0  0  0
  193.2060  174.0670  137.7610 C   0  0  2  0  0  0  0  0  0  0  0  0
  195.9550  175.2650  137.8120 O   0  0  0  0  0  1  0  0  0  0  0  0
  195.3700  172.9790  138.2210 C   0  0  2  0  0  3  0  0  0  0  0  0
  191.7120  173.7620  137.9890 C   0  0  1  0  0  3  0  0  0  0  0  0
  190.9200  174.2290  136.9350 O   0  0  0  0  0  1  0  0  0  0  0  0
  191.4580  172.2780  138.2210 C   0  0  0  0  0  2  0  0  0  0  0  0
  191.0350  172.0700  139.5340 O   0  0  0  0  0  1  0  0  0  0  0  0
  195.2700  171.1300  141.6360 C   0  0  0  0  0  2  0  0  0  0  0  0
  193.9950  170.3630  141.9510 C   0  0  0  0  0  2  0  0  0  0  0  0
  192.8820  171.2450  141.9480 O   0  0  0  0  0  0  0  0  0  0  0  0
  192.1390  170.9890  144.1010 O   0  0  0  0  0  0  0  0  0  0  0  0
  192.0530  173.1570  143.2380 N   0  0  0  0  0  2  0  0  0  0  0  0
  192.3610  171.7630  143.1330 C   0  0  0  0  0  0  0  0  0  0  0  0
  188.2230  174.6670  142.7680 N   0  0  0  0  0  0  0  0  0  0  0  0
  193.8510  174.1980  145.1940 C   0  0  0  0  0  3  0  0  0  0  0  0
  188.2950  177.5760  145.0040 C   0  0  0  0  0  3  0  0  0  0  0  0
  194.8070  174.9620  145.8680 C   0  0  0  0  0  3  0  0  0  0  0  0
  192.1300  175.7860  145.8230 C   0  0  0  0  0  0  0  0  0  0  0  0
  193.0900  176.5410  146.5060 C   0  0  0  0  0  3  0  0  0  0  0  0
  194.4260  176.1360  146.5220 C   0  0  0  0  0  3  0  0  0  0  0  0
  192.5090  174.6070  145.1490 C   0  0  0  0  0  0  0  0  0  0  0  0
  189.3590  174.0070  143.1070 C   0  0  0  0  0  3  0  0  0  0  0  0
  186.3200  177.6870  143.5920 C   0  0  0  0  0  0  0  0  0  0  0  0
  189.8690  175.7090  144.7510 C   0  0  0  0  0  0  0  0  0  0  0  0
  187.8750  175.8340  143.3640 C   0  0  0  0  0  0  0  0  0  0  0  0
  190.6980  176.2120  145.9030 C   0  0  0  0  0  2  0  0  0  0  0  0
  186.7030  176.4880  142.9750 C   0  0  0  0  0  3  0  0  0  0  0  0
  191.4780  173.7500  144.4430 C   0  0  1  0  0  3  0  0  0  0  0  0
  187.1210  178.2230  144.6100 C   0  0  0  0  0  3  0  0  0  0  0  0
  190.2230  174.5170  144.0850 C   0  0  0  0  0  0  0  0  0  0  0  0
  188.6860  176.3800  144.3830 C   0  0  0  0  0  0  0  0  0  0  0  0
  185.0880  178.3720  143.1700 C   0  0  0  0  0  0  0  0  0  0  0  0
  184.3550  177.8940  142.0900 O   0  0  0  0  0  0  0  0  0  0  0  0
  184.6890  179.4000  143.7790 O   0  0  0  0  0  1  0  0  0  0  0  0
  196.9070  171.3380  143.3130 C   0  0  0  0  0  2  0  0  0  0  0  0
  197.0290  171.6750  144.7880 C   0  0  0  0  0  2  0  0  0  0  0  0
  195.2790  168.6400  147.2140 C   0  0  0  0  0  3  0  0  0  0  0  0
  196.4260  170.6000  145.6210 C   0  0  0  0  0  0  0  0  0  0  0  0
  195.0730  170.5140  145.7460 N   0  0  0  0  0  0  0  0  0  0  0  0
  196.6690  168.7120  147.0970 C   0  0  0  0  0  3  0  0  0  0  0  0
  194.4880  169.5600  146.5210 C   0  0  0  0  0  3  0  0  0  0  0  0
  197.2500  169.6960  146.2960 C   0  0  0  0  0  3  0  0  0  0  0  0
  1 48  1  0  0  0  0
  2  1  1  0  0  0  0
  3  2  1  0  0  0  0
  5  6  1  6  0  0  0
  5  3  1  0  0  0  0
  5  4  1  0  0  0  0
  7 13  1  6  0  0  0
  7 14  1  0  0  0  0
  7 16  1  0  0  0  0
  9 15  1  6  0  0  0
  9 11  1  0  0  0  0
  9  5  1  0  0  0  0
 11 10  1  1  0  0  0
 14  8  1  6  0  0  0
 14 17  1  0  0  0  0
 14 11  1  0  0  0  0
 16 12  1  6  0  0  0
 16  9  1  0  0  0  0
 17 18  1  6  0  0  0
 17 19  1  0  0  0  0
 19 20  1  0  0  0  0
 21 22  1  0  0  0  0
 21  1  1  0  0  0  0
 23 22  1  0  0  0  0
 23 26  1  0  0  0  0
 26 25  1  0  0  0  0
 26 24  2  0  0  0  0
 27 35  2  0  0  0  0
 27 38  1  0  0  0  0
 28 30  1  0  0  0  0
 30 33  2  0  0  0  0
 31 39  1  0  0  0  0
 31 32  2  0  0  0  0
 32 33  1  0  0  0  0
 34 28  2  0  0  0  0
 34 31  1  0  0  0  0
 35 43  1  0  0  0  0
 36 42  2  0  0  0  0
 37 39  1  0  0  0  0
 38 44  1  0  0  0  0
 40 38  2  0  0  0  0
 40 36  1  0  0  0  0
 41 25  1  6  0  0  0
 41 34  1  0  0  0  0
 42 29  1  0  0  0  0
 43 41  1  0  0  0  0
 43 37  2  0  0  0  0
 44 37  1  0  0  0  0
 44 29  2  0  0  0  0
 45 36  1  0  0  0  0
 45 47  1  0  0  0  0
 46 45  2  0  0  0  0
 48 49  1  0  0  0  0
 49 51  1  0  0  0  0
 51 52  2  0  0  0  0
 51 55  1  0  0  0  0
 52 54  1  0  0  0  0
 53 50  1  0  0  0  0
 54 50  2  0  0  0  0
 55 53  2  0  0  0  0
M  END
>  <MODEL>
6

>  <REMARK>
 VINA RESULT:      -6.5      2.563      6.475
  Name = 
  15 active torsions:
  status: ('A' for Active; 'I' for Inactive)
    1  A    between atoms: O_4  and  C_37
    2  A    between atoms: O_4  and  C_40
    3  A    between atoms: C_6  and  C_20
    4  A    between atoms: C_8  and  C_22
    5  A    between atoms: C_8  and  N_43
    6  A    between atoms: C_10  and  C_32
    7  A    between atoms: C_11  and  C_29
    8  A    between atoms: N_19  and  C_45
    9  A    between atoms: C_20  and  C_22
   10  A    between atoms: C_27  and  C_54
   11  A    between atoms: C_29  and  C_38
   12  A    between atoms: C_35  and  C_37
   13  A    between atoms: C_35  and  N_43
   14  A    between atoms: N_43  and  C_51
   15  A    between atoms: C_51  and  C_54
                            x       y       z     vdW  Elec       q    Type
                         _______ _______ _______ _____ _____    ______ ____

>  <TORSDO>
F 15

$$$$
=
 OpenBabel11052419353D

 55 60  0  0  1  0  0  0  0  0999 V2000
  189.0550  173.8700  138.8180 N   0  0  0  0  0  0  0  0  0  0  0  0
  189.1400  173.2550  137.5050 C   0  0  0  0  0  2  0  0  0  0  0  0
  190.3300  173.8280  136.7490 C   0  0  0  0  0  2  0  0  0  0  0  0
  190.6220  171.5300  136.1610 O   0  0  0  0  0  1  0  0  0  0  0  0
  191.2970  172.7530  136.2410 C   0  0  1  0  0  0  0  0  0  0  0  0
  191.6960  173.1450  134.8230 C   0  0  0  0  0  1  0  0  0  0  0  0
  195.0020  172.8550  137.0650 C   0  0  2  0  0  3  0  0  0  0  0  0
  194.5500  172.9170  139.4220 O   0  0  0  0  0  1  0  0  0  0  0  0
  192.5460  172.5990  137.1720 C   0  0  1  0  0  0  0  0  0  0  0  0
  192.7670  175.0200  137.1460 O   0  0  0  0  0  1  0  0  0  0  0  0
  192.9660  173.8740  137.9260 C   0  0  2  0  0  3  0  0  0  0  0  0
  193.9350  170.8040  136.2820 O   0  0  0  0  0  1  0  0  0  0  0  0
  195.9660  171.9250  137.4720 O   0  0  0  0  0  1  0  0  0  0  0  0
  194.4570  173.6700  138.2440 C   0  0  2  0  0  0  0  0  0  0  0  0
  192.2750  171.6150  138.1340 O   0  0  0  0  0  1  0  0  0  0  0  0
  193.8000  172.1940  136.3820 C   0  0  2  0  0  3  0  0  0  0  0  0
  195.2720  174.9650  138.4320 C   0  0  1  0  0  3  0  0  0  0  0  0
  195.3690  175.3260  139.7810 O   0  0  0  0  0  1  0  0  0  0  0  0
  196.6600  174.8640  137.8130 C   0  0  0  0  0  2  0  0  0  0  0  0
  196.7300  175.6670  136.6740 O   0  0  0  0  0  1  0  0  0  0  0  0
  188.0310  174.9050  138.7400 C   0  0  0  0  0  2  0  0  0  0  0  0
  187.4410  175.1740  140.1160 C   0  0  0  0  0  2  0  0  0  0  0  0
  187.2150  176.5650  140.2860 O   0  0  0  0  0  0  0  0  0  0  0  0
  188.1360  178.4720  141.1630 O   0  0  0  0  0  0  0  0  0  0  0  0
  188.0200  176.6350  142.6000 N   0  0  0  0  0  2  0  0  0  0  0  0
  187.7930  177.2730  141.3390 C   0  0  0  0  0  0  0  0  0  0  0  0
  192.1320  176.1730  142.8330 N   0  0  0  0  0  0  0  0  0  0  0  0
  186.4270  177.1110  144.9170 C   0  0  0  0  0  3  0  0  0  0  0  0
  192.6630  176.0940  146.4630 C   0  0  0  0  0  3  0  0  0  0  0  0
  185.6560  176.9580  146.0740 C   0  0  0  0  0  3  0  0  0  0  0  0
  188.4520  176.9920  146.2450 C   0  0  0  0  0  0  0  0  0  0  0  0
  187.6760  176.8490  147.4000 C   0  0  0  0  0  3  0  0  0  0  0  0
  186.2820  176.8240  147.3150 C   0  0  0  0  0  3  0  0  0  0  0  0
  187.8290  177.1150  144.9860 C   0  0  0  0  0  0  0  0  0  0  0  0
  190.8450  176.5920  142.7320 C   0  0  0  0  0  3  0  0  0  0  0  0
  194.6870  175.3690  145.3310 C   0  0  0  0  0  0  0  0  0  0  0  0
  190.6830  176.7030  145.1450 C   0  0  0  0  0  0  0  0  0  0  0  0
  192.7280  175.9920  144.0370 C   0  0  0  0  0  0  0  0  0  0  0  0
  189.9370  177.0990  146.3920 C   0  0  0  0  0  2  0  0  0  0  0  0
  194.0510  175.5460  144.0950 C   0  0  0  0  0  3  0  0  0  0  0  0
  188.6490  177.3160  143.7290 C   0  0  1  0  0  3  0  0  0  0  0  0
  193.9860  175.6490  146.5130 C   0  0  0  0  0  3  0  0  0  0  0  0
  190.0790  176.8440  143.8780 C   0  0  0  0  0  0  0  0  0  0  0  0
  192.0190  176.2650  145.2280 C   0  0  0  0  0  0  0  0  0  0  0  0
  196.0780  174.8920  145.3820 C   0  0  0  0  0  0  0  0  0  0  0  0
  196.9760  175.2390  144.3790 O   0  0  0  0  0  0  0  0  0  0  0  0
  196.4680  174.1610  146.3320 O   0  0  0  0  0  1  0  0  0  0  0  0
  188.5780  172.8410  139.7300 C   0  0  0  0  0  2  0  0  0  0  0  0
  189.7620  172.0400  140.2410 C   0  0  0  0  0  2  0  0  0  0  0  0
  190.5830  173.0890  144.2890 C   0  0  0  0  0  3  0  0  0  0  0  0
  190.0510  172.3850  141.6590 C   0  0  0  0  0  0  0  0  0  0  0  0
  189.0780  172.9270  142.4410 N   0  0  0  0  0  0  0  0  0  0  0  0
  191.5950  172.5330  143.5040 C   0  0  0  0  0  3  0  0  0  0  0  0
  189.3150  173.2800  143.7340 C   0  0  0  0  0  3  0  0  0  0  0  0
  191.3310  172.1760  142.1800 C   0  0  0  0  0  3  0  0  0  0  0  0
  1 48  1  0  0  0  0
  2  1  1  0  0  0  0
  3  2  1  0  0  0  0
  4  5  1  0  0  0  0
  5  6  1  6  0  0  0
  5  3  1  0  0  0  0
  5  9  1  0  0  0  0
  7 13  1  1  0  0  0
  7 14  1  0  0  0  0
  9 11  1  0  0  0  0
  9 15  1  1  0  0  0
 11 10  1  6  0  0  0
 11 14  1  0  0  0  0
 14 17  1  0  0  0  0
 14  8  1  1  0  0  0
 16 12  1  1  0  0  0
 16  7  1  0  0  0  0
 16  9  1  0  0  0  0
 17 18  1  1  0  0  0
 19 17  1  0  0  0  0
 20 19  1  0  0  0  0
 21  1  1  0  0  0  0
 21 22  1  0  0  0  0
 22 23  1  0  0  0  0
 23 26  1  0  0  0  0
 24 26  2  0  0  0  0
 26 25  1  0  0  0  0
 27 38  1  0  0  0  0
 28 34  2  0  0  0  0
 28 30  1  0  0  0  0
 29 42  1  0  0  0  0
 30 33  2  0  0  0  0
 31 39  1  0  0  0  0
 31 32  2  0  0  0  0
 33 32  1  0  0  0  0
 34 31  1  0  0  0  0
 35 27  2  0  0  0  0
 35 43  1  0  0  0  0
 36 45  1  0  0  0  0
 36 42  2  0  0  0  0
 37 44  1  0  0  0  0
 37 39  1  0  0  0  0
 38 40  2  0  0  0  0
 38 44  1  0  0  0  0
 40 36  1  0  0  0  0
 41 25  1  6  0  0  0
 41 43  1  0  0  0  0
 41 34  1  0  0  0  0
 43 37  2  0  0  0  0
 44 29  2  0  0  0  0
 45 47  1  0  0  0  0
 46 45  2  0  0  0  0
 48 49  1  0  0  0  0
 49 51  1  0  0  0  0
 51 55  2  0  0  0  0
 51 52  1  0  0  0  0
 52 54  2  0  0  0  0
 53 50  2  0  0  0  0
 54 50  1  0  0  0  0
 55 53  1  0  0  0  0
M  END
>  <MODEL>
7

>  <REMARK>
 VINA RESULT:      -6.4      1.304      2.186
  Name = 
  15 active torsions:
  status: ('A' for Active; 'I' for Inactive)
    1  A    between atoms: O_4  and  C_37
    2  A    between atoms: O_4  and  C_40
    3  A    between atoms: C_6  and  C_20
    4  A    between atoms: C_8  and  C_22
    5  A    between atoms: C_8  and  N_43
    6  A    between atoms: C_10  and  C_32
    7  A    between atoms: C_11  and  C_29
    8  A    between atoms: N_19  and  C_45
    9  A    between atoms: C_20  and  C_22
   10  A    between atoms: C_27  and  C_54
   11  A    between atoms: C_29  and  C_38
   12  A    between atoms: C_35  and  C_37
   13  A    between atoms: C_35  and  N_43
   14  A    between atoms: N_43  and  C_51
   15  A    between atoms: C_51  and  C_54
                            x       y       z     vdW  Elec       q    Type
                         _______ _______ _______ _____ _____    ______ ____

>  <TORSDO>
F 15

$$$$
=
 OpenBabel11052419353D

 55 60  0  0  1  0  0  0  0  0999 V2000
  194.7660  171.8140  139.7410 N   0  0  0  0  0  0  0  0  0  0  0  0
  195.1600  171.5360  138.3710 C   0  0  0  0  0  2  0  0  0  0  0  0
  193.9220  171.4740  137.4870 C   0  0  0  0  0  2  0  0  0  0  0  0
  194.3500  173.8040  137.1700 O   0  0  0  0  0  1  0  0  0  0  0  0
  193.7870  172.6820  136.5520 C   0  0  1  0  0  0  0  0  0  0  0  0
  194.6200  172.3810  135.3110 C   0  0  0  0  0  1  0  0  0  0  0  0
  190.0490  172.0190  136.5690 C   0  0  2  0  0  3  0  0  0  0  0  0
  189.5710  174.2830  135.9340 O   0  0  0  0  0  1  0  0  0  0  0  0
  192.2940  172.9800  136.1900 C   0  0  1  0  0  0  0  0  0  0  0  0
  191.9230  173.5510  138.5240 O   0  0  0  0  0  1  0  0  0  0  0  0
  191.5290  173.8410  137.2130 C   0  0  2  0  0  3  0  0  0  0  0  0
  191.4790  171.1630  134.7850 O   0  0  0  0  0  1  0  0  0  0  0  0
  189.0730  171.7470  135.6020 O   0  0  0  0  0  1  0  0  0  0  0  0
  190.0470  173.4930  136.9880 C   0  0  2  0  0  0  0  0  0  0  0  0
  192.2520  173.6550  134.9610 O   0  0  0  0  0  1  0  0  0  0  0  0
  191.4640  171.6910  136.0820 C   0  0  2  0  0  3  0  0  0  0  0  0
  189.1290  173.7100  138.2080 C   0  0  1  0  0  3  0  0  0  0  0  0
  188.0340  174.5230  137.8950 O   0  0  0  0  0  1  0  0  0  0  0  0
  188.6540  172.3940  138.8090 C   0  0  0  0  0  2  0  0  0  0  0  0
  189.4680  172.0440  139.8870 O   0  0  0  0  0  1  0  0  0  0  0  0
  194.9430  170.5790  140.4950 C   0  0  0  0  0  2  0  0  0  0  0  0
  193.5940  170.0080  140.9050 C   0  0  0  0  0  2  0  0  0  0  0  0
  192.6540  171.0570  141.0790 O   0  0  0  0  0  0  0  0  0  0  0  0
  191.8370  170.5690  143.1640 O   0  0  0  0  0  0  0  0  0  0  0  0
  192.1990  172.8300  142.7100 N   0  0  0  0  0  2  0  0  0  0  0  0
  192.2250  171.4460  142.3480 C   0  0  0  0  0  0  0  0  0  0  0  0
  188.4530  174.6030  142.6720 N   0  0  0  0  0  0  0  0  0  0  0  0
  194.1650  173.5120  144.6600 C   0  0  0  0  0  3  0  0  0  0  0  0
  188.8370  177.1970  145.2390 C   0  0  0  0  0  3  0  0  0  0  0  0
  195.2050  174.1290  145.3610 C   0  0  0  0  0  3  0  0  0  0  0  0
  192.5880  175.1030  145.5870 C   0  0  0  0  0  0  0  0  0  0  0  0
  193.6310  175.7100  146.2950 C   0  0  0  0  0  3  0  0  0  0  0  0
  194.9380  175.2300  146.1770 C   0  0  0  0  0  3  0  0  0  0  0  0
  192.8520  173.9990  144.7510 C   0  0  0  0  0  0  0  0  0  0  0  0
  189.5610  173.8410  142.8550 C   0  0  0  0  0  3  0  0  0  0  0  0
  186.7970  177.5970  143.9800 C   0  0  0  0  0  0  0  0  0  0  0  0
  190.2710  175.2900  144.6600 C   0  0  0  0  0  0  0  0  0  0  0  0
  188.2140  175.7030  143.4280 C   0  0  0  0  0  0  0  0  0  0  0  0
  191.1940  175.5960  145.8100 C   0  0  0  0  0  2  0  0  0  0  0  0
  187.0670  176.4670  143.1970 C   0  0  0  0  0  3  0  0  0  0  0  0
  191.7300  173.2980  144.0120 C   0  0  1  0  0  3  0  0  0  0  0  0
  187.6870  177.9550  145.0030 C   0  0  0  0  0  3  0  0  0  0  0  0
  190.5090  174.1740  143.8310 C   0  0  0  0  0  0  0  0  0  0  0  0
  189.1150  176.0690  144.4530 C   0  0  0  0  0  0  0  0  0  0  0  0
  185.5910  178.3990  143.7240 C   0  0  0  0  0  0  0  0  0  0  0  0
  185.6640  179.7870  143.6930 O   0  0  0  0  0  1  0  0  0  0  0  0
  184.4790  177.8370  143.5340 O   0  0  0  0  0  0  0  0  0  0  0  0
  195.7140  172.7890  140.2570 C   0  0  0  0  0  2  0  0  0  0  0  0
  194.9630  174.0370  140.6840 C   0  0  0  0  0  2  0  0  0  0  0  0
  197.3740  176.4790  143.2120 C   0  0  0  0  0  3  0  0  0  0  0  0
  195.8070  174.8730  141.5810 C   0  0  0  0  0  0  0  0  0  0  0  0
  195.2720  175.9590  142.2020 N   0  0  0  0  0  0  0  0  0  0  0  0
  197.9410  175.3670  142.5850 C   0  0  0  0  0  3  0  0  0  0  0  0
  196.0210  176.7620  143.0060 C   0  0  0  0  0  3  0  0  0  0  0  0
  197.1560  174.5560  141.7640 C   0  0  0  0  0  3  0  0  0  0  0  0
  1 48  1  0  0  0  0
  1 21  1  0  0  0  0
  2  1  1  0  0  0  0
  3  2  1  0  0  0  0
  5  6  1  6  0  0  0
  5  4  1  0  0  0  0
  5  3  1  0  0  0  0
  7 13  1  6  0  0  0
  7 14  1  0  0  0  0
  9 15  1  6  0  0  0
  9  5  1  0  0  0  0
  9 11  1  0  0  0  0
 11 10  1  1  0  0  0
 14  8  1  6  0  0  0
 14 11  1  0  0  0  0
 14 17  1  0  0  0  0
 16 12  1  6  0  0  0
 16  9  1  0  0  0  0
 16  7  1  0  0  0  0
 17 18  1  6  0  0  0
 17 19  1  0  0  0  0
 19 20  1  0  0  0  0
 21 22  1  0  0  0  0
 22 23  1  0  0  0  0
 23 26  1  0  0  0  0
 26 25  1  0  0  0  0
 26 24  2  0  0  0  0
 27 35  2  0  0  0  0
 27 38  1  0  0  0  0
 28 34  2  0  0  0  0
 28 30  1  0  0  0  0
 30 33  2  0  0  0  0
 31 39  1  0  0  0  0
 31 32  2  0  0  0  0
 33 32  1  0  0  0  0
 34 31  1  0  0  0  0
 35 43  1  0  0  0  0
 36 42  2  0  0  0  0
 37 39  1  0  0  0  0
 38 44  1  0  0  0  0
 40 38  2  0  0  0  0
 40 36  1  0  0  0  0
 41 25  1  6  0  0  0
 41 34  1  0  0  0  0
 42 29  1  0  0  0  0
 43 41  1  0  0  0  0
 43 37  2  0  0  0  0
 44 37  1  0  0  0  0
 44 29  2  0  0  0  0
 45 36  1  0  0  0  0
 46 45  1  0  0  0  0
 47 45  2  0  0  0  0
 48 49  1  0  0  0  0
 49 51  1  0  0  0  0
 51 55  2  0  0  0  0
 51 52  1  0  0  0  0
 52 54  2  0  0  0  0
 53 50  2  0  0  0  0
 54 50  1  0  0  0  0
 55 53  1  0  0  0  0
M  END
>  <MODEL>
8

>  <REMARK>
 VINA RESULT:      -6.4      2.312      6.067
  Name = 
  15 active torsions:
  status: ('A' for Active; 'I' for Inactive)
    1  A    between atoms: O_4  and  C_37
    2  A    between atoms: O_4  and  C_40
    3  A    between atoms: C_6  and  C_20
    4  A    between atoms: C_8  and  C_22
    5  A    between atoms: C_8  and  N_43
    6  A    between atoms: C_10  and  C_32
    7  A    between atoms: C_11  and  C_29
    8  A    between atoms: N_19  and  C_45
    9  A    between atoms: C_20  and  C_22
   10  A    between atoms: C_27  and  C_54
   11  A    between atoms: C_29  and  C_38
   12  A    between atoms: C_35  and  C_37
   13  A    between atoms: C_35  and  N_43
   14  A    between atoms: N_43  and  C_51
   15  A    between atoms: C_51  and  C_54
                            x       y       z     vdW  Elec       q    Type
                         _______ _______ _______ _____ _____    ______ ____

>  <TORSDO>
F 15

$$$$
=
 OpenBabel11052419353D

 55 60  0  0  1  0  0  0  0  0999 V2000
  187.0070  175.1710  137.0890 N   0  0  0  0  0  0  0  0  0  0  0  0
  188.2230  174.9090  136.3410 C   0  0  0  0  0  2  0  0  0  0  0  0
  189.3270  174.4760  137.2960 C   0  0  0  0  0  2  0  0  0  0  0  0
  189.0030  172.2430  136.5100 O   0  0  0  0  0  1  0  0  0  0  0  0
  189.9920  173.1560  136.8910 C   0  0  1  0  0  0  0  0  0  0  0  0
  190.8420  173.4440  135.6590 C   0  0  0  0  0  1  0  0  0  0  0  0
  191.4670  173.0670  140.3870 C   0  0  2  0  0  3  0  0  0  0  0  0
  191.9270  170.7170  140.2120 O   0  0  0  0  0  1  0  0  0  0  0  0
  190.8450  172.5470  138.0530 C   0  0  1  0  0  0  0  0  0  0  0  0
  188.7660  172.0580  139.2160 O   0  0  0  0  0  1  0  0  0  0  0  0
  190.0790  171.6160  139.0120 C   0  0  2  0  0  3  0  0  0  0  0  0
  192.6810  174.0770  138.5270 O   0  0  0  0  0  1  0  0  0  0  0  0
  192.7560  173.0800  140.9340 O   0  0  0  0  0  1  0  0  0  0  0  0
  190.8870  171.6490  140.3200 C   0  0  2  0  0  0  0  0  0  0  0  0
  191.8980  171.8030  137.5010 O   0  0  0  0  0  1  0  0  0  0  0  0
  191.4270  173.6370  138.9660 C   0  0  2  0  0  3  0  0  0  0  0  0
  190.0830  171.3300  141.5970 C   0  0  1  0  0  3  0  0  0  0  0  0
  190.6750  170.3030  142.3400 O   0  0  0  0  0  1  0  0  0  0  0  0
  189.8810  172.5620  142.4690 C   0  0  0  0  0  2  0  0  0  0  0  0
  189.3040  172.1910  143.6850 O   0  0  0  0  0  1  0  0  0  0  0  0
  187.4050  175.4830  138.4560 C   0  0  0  0  0  2  0  0  0  0  0  0
  186.8780  176.8500  138.8640 C   0  0  0  0  0  2  0  0  0  0  0  0
  186.3240  176.7900  140.1700 O   0  0  0  0  0  0  0  0  0  0  0  0
  187.0780  178.7010  141.1860 O   0  0  0  0  0  0  0  0  0  0  0  0
  187.3690  176.7190  142.3870 N   0  0  0  0  0  2  0  0  0  0  0  0
  186.9180  177.4540  141.2440 C   0  0  0  0  0  0  0  0  0  0  0  0
  191.3980  175.8360  142.7820 N   0  0  0  0  0  0  0  0  0  0  0  0
  185.7530  177.4100  144.6340 C   0  0  0  0  0  3  0  0  0  0  0  0
  191.7890  175.7810  146.4300 C   0  0  0  0  0  3  0  0  0  0  0  0
  184.9300  177.3620  145.7630 C   0  0  0  0  0  3  0  0  0  0  0  0
  187.7060  177.1080  146.0380 C   0  0  0  0  0  0  0  0  0  0  0  0
  186.8790  177.0720  147.1660 C   0  0  0  0  0  3  0  0  0  0  0  0
  185.4940  177.1900  147.0290 C   0  0  0  0  0  3  0  0  0  0  0  0
  187.1440  177.2680  144.7550 C   0  0  0  0  0  0  0  0  0  0  0  0
  190.1670  176.3850  142.6260 C   0  0  0  0  0  3  0  0  0  0  0  0
  193.7650  174.8250  145.3880 C   0  0  0  0  0  0  0  0  0  0  0  0
  189.9320  176.5640  145.0280 C   0  0  0  0  0  0  0  0  0  0  0  0
  191.9290  175.6200  144.0100 C   0  0  0  0  0  0  0  0  0  0  0  0
  189.1880  177.0630  146.2390 C   0  0  0  0  0  2  0  0  0  0  0  0
  193.1950  175.0400  144.1260 C   0  0  0  0  0  3  0  0  0  0  0  0
  188.0250  177.3560  143.5260 C   0  0  1  0  0  3  0  0  0  0  0  0
  193.0550  175.2020  146.5370 C   0  0  0  0  0  3  0  0  0  0  0  0
  189.3920  176.7400  143.7370 C   0  0  0  0  0  0  0  0  0  0  0  0
  191.2110  175.9910  145.1690 C   0  0  0  0  0  0  0  0  0  0  0  0
  195.0950  174.2060  145.4990 C   0  0  0  0  0  0  0  0  0  0  0  0
  195.2310  172.8230  145.4650 O   0  0  0  0  0  0  0  0  0  0  0  0
  196.1230  174.9230  145.6310 O   0  0  0  0  0  1  0  0  0  0  0  0
  186.4140  176.3690  136.5140 C   0  0  0  0  0  2  0  0  0  0  0  0
  185.6400  175.9930  135.2640 C   0  0  0  0  0  2  0  0  0  0  0  0
  181.4800  175.6680  136.1310 C   0  0  0  0  0  3  0  0  0  0  0  0
  184.1840  175.9000  135.5590 C   0  0  0  0  0  0  0  0  0  0  0  0
  183.7570  175.7780  136.8460 N   0  0  0  0  0  0  0  0  0  0  0  0
  181.8990  175.7940  134.8050 C   0  0  0  0  0  3  0  0  0  0  0  0
  182.4360  175.6630  137.1500 C   0  0  0  0  0  3  0  0  0  0  0  0
  183.2580  175.9120  134.5130 C   0  0  0  0  0  3  0  0  0  0  0  0
  1 21  1  0  0  0  0
  2  1  1  0  0  0  0
  2  3  1  0  0  0  0
  4  5  1  0  0  0  0
  5  6  1  6  0  0  0
  5  3  1  0  0  0  0
  5  9  1  0  0  0  0
  7 13  1  6  0  0  0
  9 15  1  6  0  0  0
  9 16  1  0  0  0  0
  9 11  1  0  0  0  0
 11 10  1  1  0  0  0
 11 14  1  0  0  0  0
 14  8  1  6  0  0  0
 14  7  1  0  0  0  0
 14 17  1  0  0  0  0
 16 12  1  6  0  0  0
 16  7  1  0  0  0  0
 17 18  1  1  0  0  0
 17 19  1  0  0  0  0
 19 20  1  0  0  0  0
 21 22  1  0  0  0  0
 22 23  1  0  0  0  0
 23 26  1  0  0  0  0
 24 26  2  0  0  0  0
 26 25  1  0  0  0  0
 27 38  1  0  0  0  0
 28 34  2  0  0  0  0
 28 30  1  0  0  0  0
 29 42  1  0  0  0  0
 30 33  2  0  0  0  0
 31 39  1  0  0  0  0
 31 32  2  0  0  0  0
 33 32  1  0  0  0  0
 34 31  1  0  0  0  0
 35 27  2  0  0  0  0
 35 43  1  0  0  0  0
 36 45  1  0  0  0  0
 36 42  2  0  0  0  0
 37 44  1  0  0  0  0
 37 39  1  0  0  0  0
 38 40  2  0  0  0  0
 38 44  1  0  0  0  0
 40 36  1  0  0  0  0
 41 25  1  6  0  0  0
 41 43  1  0  0  0  0
 41 34  1  0  0  0  0
 43 37  2  0  0  0  0
 44 29  2  0  0  0  0
 45 47  1  0  0  0  0
 46 45  2  0  0  0  0
 48  1  1  0  0  0  0
 49 51  1  0  0  0  0
 49 48  1  0  0  0  0
 50 54  1  0  0  0  0
 51 52  1  0  0  0  0
 52 54  2  0  0  0  0
 53 50  2  0  0  0  0
 55 53  1  0  0  0  0
 55 51  2  0  0  0  0
M  END
>  <MODEL>
9

>  <REMARK>
 VINA RESULT:      -6.4      3.037      5.425
  Name = 
  15 active torsions:
  status: ('A' for Active; 'I' for Inactive)
    1  A    between atoms: O_4  and  C_37
    2  A    between atoms: O_4  and  C_40
    3  A    between atoms: C_6  and  C_20
    4  A    between atoms: C_8  and  C_22
    5  A    between atoms: C_8  and  N_43
    6  A    between atoms: C_10  and  C_32
    7  A    between atoms: C_11  and  C_29
    8  A    between atoms: N_19  and  C_45
    9  A    between atoms: C_20  and  C_22
   10  A    between atoms: C_27  and  C_54
   11  A    between atoms: C_29  and  C_38
   12  A    between atoms: C_35  and  C_37
   13  A    between atoms: C_35  and  N_43
   14  A    between atoms: N_43  and  C_51
   15  A    between atoms: C_51  and  C_54
                            x       y       z     vdW  Elec       q    Type
                         _______ _______ _______ _____ _____    ______ ____

>  <TORSDO>
F 15

$$$$
