=
 OpenBabel11052418333D

 27 31  0  0  1  0  0  0  0  0999 V2000
  189.0420  175.2880  143.6190 C   0  0  0  0  0  2  0  0  0  0  0  0
  188.3880  176.4520  145.6080 C   0  0  1  0  0  3  0  0  0  0  0  0
  189.6660  174.3530  146.3140 C   0  0  0  0  0  2  0  0  0  0  0  0
  186.5730  177.6860  146.3640 C   0  0  1  0  0  3  0  0  0  0  0  0
  187.9690  177.6970  146.1280 O   0  0  0  0  0  0  0  0  0  0  0  0
  187.3920  177.9390  141.2740 C   0  0  0  0  0  2  0  0  0  0  0  0
  188.0300  177.4610  143.4670 C   0  0  1  0  0  3  0  0  0  0  0  0
  193.1510  174.1480  144.5980 C   0  0  0  0  0  2  0  0  0  0  0  0
  186.6970  176.8060  143.0950 C   0  0  2  0  0  3  0  0  0  0  0  0
  192.8420  175.3270  143.7400 C   0  0  0  0  0  0  0  0  0  0  0  0
  188.9380  176.6080  144.2500 N   0  0  2  0  0  0  0  0  0  0  0  0
  185.7030  178.0820  145.1610 C   0  0  2  0  0  3  0  0  0  0  0  0
  190.4300  174.6880  143.8200 C   0  0  1  0  0  3  0  0  0  0  0  0
  189.4190  175.8450  146.5710 C   0  0  1  0  0  3  0  0  0  0  0  0
  192.1220  174.0870  145.7220 C   0  0  0  0  0  2  0  0  0  0  0  0
  186.0430  176.4970  147.1680 C   0  0  0  0  0  1  0  0  0  0  0  0
  193.7680  176.0490  143.2890 O   0  0  0  0  0  0  0  0  0  0  0  0
  186.3830  177.3620  141.8110 N   0  0  0  0  0  2  0  0  0  0  0  0
  191.4810  175.6280  143.4420 N   0  0  0  0  0  2  0  0  0  0  0  0
  185.5460  176.9880  144.0930 C   0  0  0  0  0  2  0  0  0  0  0  0
  190.6740  174.0240  145.2030 C   0  0  1  0  0  3  0  0  0  0  0  0
  188.6120  177.9010  142.1330 C   0  0  0  0  0  2  0  0  0  0  0  0
  190.4830  177.7050  147.6390 O   0  0  0  0  0  0  0  0  0  0  0  0
  191.2240  176.5940  148.0780 C   0  0  0  0  0  2  0  0  0  0  0  0
  190.6930  176.6790  146.7000 C   0  0  1  0  0  3  0  0  0  0  0  0
  184.9310  179.8870  144.1370 C   0  0  0  0  0  1  0  0  0  0  0  0
  186.1060  179.3020  144.6100 O   0  0  0  0  0  0  0  0  0  0  0  0
  2  5  1  1  0  0  0
  2 14  1  0  0  0  0
  4 16  1  6  0  0  0
  5  4  1  0  0  0  0
  6 18  1  0  0  0  0
  6 22  1  0  0  0  0
  7 22  1  6  0  0  0
  7 11  1  0  0  0  0
  8 15  1  0  0  0  0
  9  7  1  0  0  0  0
  9 20  1  1  0  0  0
 10  8  1  0  0  0  0
 11  1  1  6  0  0  0
 11  2  1  0  0  0  0
 12 27  1  6  0  0  0
 12  4  1  0  0  0  0
 13  1  1  1  0  0  0
 13 21  1  0  0  0  0
 14  3  1  6  0  0  0
 14 25  1  0  0  0  0
 17 10  2  0  0  0  0
 18  9  1  0  0  0  0
 19 10  1  0  0  0  0
 19 13  1  0  0  0  0
 20 12  1  0  0  0  0
 21 15  1  1  0  0  0
 21  3  1  0  0  0  0
 23 24  1  0  0  0  0
 25 23  1  0  0  0  0
 25 24  1  1  0  0  0
 26 27  1  0  0  0  0
M  END
>  <MODEL>
1

>  <REMARK>
 VINA RESULT:      -7.6      0.000      0.000
  Name = 
  2 active torsions:
  status: ('A' for Active; 'I' for Inactive)
    1  A    between atoms: C_14  and  C_19
    2  A    between atoms: O_16  and  C_17
                            x       y       z     vdW  Elec       q    Type
                         _______ _______ _______ _____ _____    ______ ____

>  <TORSDO>
F 2

$$$$
=
 OpenBabel11052418333D

 27 31  0  0  1  0  0  0  0  0999 V2000
  187.9100  175.9730  146.3210 C   0  0  0  0  0  2  0  0  0  0  0  0
  188.0510  176.3660  143.9630 C   0  0  1  0  0  3  0  0  0  0  0  0
  185.5760  176.2060  144.5830 C   0  0  0  0  0  2  0  0  0  0  0  0
  189.4150  175.7420  142.1900 C   0  0  1  0  0  3  0  0  0  0  0  0
  188.8840  176.8330  142.9210 O   0  0  0  0  0  0  0  0  0  0  0  0
  191.7900  175.9880  146.7670 C   0  0  0  0  0  2  0  0  0  0  0  0
  190.0330  176.4490  145.3020 C   0  0  1  0  0  3  0  0  0  0  0  0
  184.6530  178.6650  147.4520 C   0  0  0  0  0  2  0  0  0  0  0  0
  190.3790  174.9580  145.3420 C   0  0  2  0  0  3  0  0  0  0  0  0
  186.0840  179.0290  147.6540 C   0  0  0  0  0  0  0  0  0  0  0  0
  188.5920  176.7470  145.2790 N   0  0  2  0  0  0  0  0  0  0  0  0
  190.7210  175.1560  142.7480 C   0  0  2  0  0  3  0  0  0  0  0  0
  186.7210  176.7390  146.8900 C   0  0  1  0  0  3  0  0  0  0  0  0
  186.6390  176.9280  143.7450 C   0  0  1  0  0  3  0  0  0  0  0  0
  184.5250  177.9340  146.1190 C   0  0  0  0  0  2  0  0  0  0  0  0
  188.4010  174.7000  141.7180 C   0  0  0  0  0  1  0  0  0  0  0  0
  186.3960  180.1460  148.1390 O   0  0  0  0  0  0  0  0  0  0  0  0
  191.5780  174.9000  146.1250 N   0  0  0  0  0  2  0  0  0  0  0  0
  187.0950  178.0950  147.2830 N   0  0  0  0  0  2  0  0  0  0  0  0
  190.5470  174.2610  143.9860 C   0  0  0  0  0  2  0  0  0  0  0  0
  185.4260  176.6880  146.0330 C   0  0  1  0  0  3  0  0  0  0  0  0
  190.7520  177.0280  146.5110 C   0  0  0  0  0  2  0  0  0  0  0  0
  186.8690  178.9990  142.5660 O   0  0  0  0  0  0  0  0  0  0  0  0
  185.5130  178.9700  142.9360 C   0  0  0  0  0  2  0  0  0  0  0  0
  186.5740  178.4520  143.8280 C   0  0  1  0  0  3  0  0  0  0  0  0
  192.9000  175.5310  142.6180 C   0  0  0  0  0  1  0  0  0  0  0  0
  191.6900  176.1450  142.9450 O   0  0  0  0  0  0  0  0  0  0  0  0
  2  5  1  6  0  0  0
  2 11  1  0  0  0  0
  4 16  1  1  0  0  0
  4 12  1  0  0  0  0
  4  5  1  0  0  0  0
  7  9  1  0  0  0  0
  7 22  1  1  0  0  0
  8 10  1  0  0  0  0
  9 20  1  6  0  0  0
  9 18  1  0  0  0  0
 10 17  2  0  0  0  0
 11  7  1  0  0  0  0
 11  1  1  1  0  0  0
 12 27  1  1  0  0  0
 12 20  1  0  0  0  0
 13  1  1  6  0  0  0
 13 19  1  0  0  0  0
 14 25  1  0  0  0  0
 14  2  1  0  0  0  0
 14  3  1  1  0  0  0
 15  8  1  0  0  0  0
 18  6  1  0  0  0  0
 19 10  1  0  0  0  0
 21  3  1  6  0  0  0
 21 15  1  0  0  0  0
 21 13  1  0  0  0  0
 22  6  1  0  0  0  0
 23 24  1  0  0  0  0
 23 25  1  0  0  0  0
 25 24  1  6  0  0  0
 26 27  1  0  0  0  0
M  END
>  <MODEL>
2

>  <REMARK>
 VINA RESULT:      -7.5      2.061      6.303
  Name = 
  2 active torsions:
  status: ('A' for Active; 'I' for Inactive)
    1  A    between atoms: C_14  and  C_19
    2  A    between atoms: O_16  and  C_17
                            x       y       z     vdW  Elec       q    Type
                         _______ _______ _______ _____ _____    ______ ____

>  <TORSDO>
F 2

$$$$
=
 OpenBabel11052418333D

 27 31  0  0  1  0  0  0  0  0999 V2000
  191.5590  176.5960  142.8290 C   0  0  0  0  0  2  0  0  0  0  0  0
  192.1090  176.0930  145.1050 C   0  0  1  0  0  3  0  0  0  0  0  0
  190.1160  177.6940  145.1170 C   0  0  0  0  0  2  0  0  0  0  0  0
  194.0170  175.7270  146.3760 C   0  0  1  0  0  3  0  0  0  0  0  0
  192.7790  175.1830  145.9540 O   0  0  0  0  0  0  0  0  0  0  0  0
  194.4180  174.3390  141.4210 C   0  0  0  0  0  2  0  0  0  0  0  0
  193.2120  174.9270  143.3300 C   0  0  1  0  0  3  0  0  0  0  0  0
  187.1910  176.3620  142.9240 C   0  0  0  0  0  2  0  0  0  0  0  0
  194.3180  175.9360  143.0080 C   0  0  2  0  0  3  0  0  0  0  0  0
  188.0310  175.2410  142.4160 C   0  0  0  0  0  0  0  0  0  0  0  0
  191.9380  175.5250  143.7570 N   0  0  2  0  0  0  0  0  0  0  0  0
  195.2020  175.4640  145.4330 C   0  0  2  0  0  3  0  0  0  0  0  0
  190.0430  176.6930  142.6860 C   0  0  1  0  0  3  0  0  0  0  0  0
  190.7600  176.4520  145.7460 C   0  0  1  0  0  3  0  0  0  0  0  0
  187.8860  176.9720  144.1380 C   0  0  0  0  0  2  0  0  0  0  0  0
  193.9620  177.1430  146.9490 C   0  0  0  0  0  1  0  0  0  0  0  0
  187.4980  174.1730  142.0190 O   0  0  0  0  0  0  0  0  0  0  0  0
  195.0560  175.3170  141.9460 N   0  0  0  0  0  2  0  0  0  0  0  0
  189.4480  175.3920  142.3920 N   0  0  0  0  0  2  0  0  0  0  0  0
  195.2280  176.3450  144.1740 C   0  0  0  0  0  2  0  0  0  0  0  0
  189.3150  177.4520  143.8280 C   0  0  1  0  0  3  0  0  0  0  0  0
  193.0960  174.0900  142.0650 C   0  0  0  0  0  2  0  0  0  0  0  0
  190.1020  174.5760  147.0790 O   0  0  0  0  0  0  0  0  0  0  0  0
  188.9700  175.4080  147.0860 C   0  0  0  0  0  2  0  0  0  0  0  0
  189.8170  175.2570  145.8820 C   0  0  1  0  0  3  0  0  0  0  0  0
  196.4430  173.6790  145.8540 C   0  0  0  0  0  1  0  0  0  0  0  0
  195.3300  174.1050  145.1290 O   0  0  0  0  0  0  0  0  0  0  0  0
  2 14  1  0  0  0  0
  2  5  1  1  0  0  0
  4 16  1  6  0  0  0
  5  4  1  0  0  0  0
  6 18  1  0  0  0  0
  6 22  1  0  0  0  0
  7 22  1  6  0  0  0
  7 11  1  0  0  0  0
  8 15  1  0  0  0  0
  9  7  1  0  0  0  0
  9 20  1  1  0  0  0
 10  8  1  0  0  0  0
 11  1  1  6  0  0  0
 11  2  1  0  0  0  0
 12 27  1  6  0  0  0
 12  4  1  0  0  0  0
 13  1  1  1  0  0  0
 13 21  1  0  0  0  0
 14  3  1  6  0  0  0
 14 25  1  0  0  0  0
 17 10  2  0  0  0  0
 18  9  1  0  0  0  0
 19 10  1  0  0  0  0
 19 13  1  0  0  0  0
 20 12  1  0  0  0  0
 21 15  1  1  0  0  0
 21  3  1  0  0  0  0
 23 24  1  0  0  0  0
 25 23  1  0  0  0  0
 25 24  1  1  0  0  0
 27 26  1  0  0  0  0
M  END
>  <MODEL>
3

>  <REMARK>
 VINA RESULT:      -6.7      2.526      6.486
  Name = 
  2 active torsions:
  status: ('A' for Active; 'I' for Inactive)
    1  A    between atoms: C_14  and  C_19
    2  A    between atoms: O_16  and  C_17
                            x       y       z     vdW  Elec       q    Type
                         _______ _______ _______ _____ _____    ______ ____

>  <TORSDO>
F 2

$$$$
=
 OpenBabel11052418333D

 27 31  0  0  1  0  0  0  0  0999 V2000
  187.8420  174.3670  142.2430 C   0  0  0  0  0  2  0  0  0  0  0  0
  188.7140  175.5150  144.1560 C   0  0  1  0  0  3  0  0  0  0  0  0
  189.5970  173.1170  144.2130 C   0  0  0  0  0  2  0  0  0  0  0  0
  187.9980  177.1120  145.6820 C   0  0  1  0  0  3  0  0  0  0  0  0
  188.9790  176.7860  144.7140 O   0  0  0  0  0  0  0  0  0  0  0  0
  185.8930  177.5100  140.9860 C   0  0  0  0  0  2  0  0  0  0  0  0
  187.4950  176.7310  142.4930 C   0  0  1  0  0  3  0  0  0  0  0  0
  191.3630  172.1580  140.8820 C   0  0  0  0  0  2  0  0  0  0  0  0
  186.0670  176.4630  142.9750 C   0  0  2  0  0  3  0  0  0  0  0  0
  190.9360  173.4340  140.2430 C   0  0  0  0  0  0  0  0  0  0  0  0
  188.4370  175.6230  142.7130 N   0  0  2  0  0  0  0  0  0  0  0  0
  186.7390  177.8000  145.1310 C   0  0  2  0  0  3  0  0  0  0  0  0
  188.9050  173.4230  141.6940 C   0  0  1  0  0  3  0  0  0  0  0  0
  189.9150  174.6010  144.4370 C   0  0  1  0  0  3  0  0  0  0  0  0
  191.1530  172.2800  142.3890 C   0  0  0  0  0  2  0  0  0  0  0  0
  187.7260  176.0430  146.7410 C   0  0  0  0  0  1  0  0  0  0  0  0
  191.6020  173.9280  139.2970 O   0  0  0  0  0  0  0  0  0  0  0  0
  185.2450  177.1700  142.0370 N   0  0  0  0  0  2  0  0  0  0  0  0
  189.7650  174.0910  140.7220 N   0  0  0  0  0  2  0  0  0  0  0  0
  185.7510  176.8590  144.4240 C   0  0  0  0  0  2  0  0  0  0  0  0
  189.7000  172.6230  142.7620 C   0  0  1  0  0  3  0  0  0  0  0  0
  187.3270  177.1030  141.0280 C   0  0  0  0  0  2  0  0  0  0  0  0
  191.7320  176.1580  144.4950 O   0  0  0  0  0  0  0  0  0  0  0  0
  192.3490  174.9120  144.6960 C   0  0  0  0  0  2  0  0  0  0  0  0
  191.2060  175.0730  143.7710 C   0  0  1  0  0  3  0  0  0  0  0  0
  185.9280  179.7300  144.4090 C   0  0  0  0  0  1  0  0  0  0  0  0
  187.0580  178.9140  144.3490 O   0  0  0  0  0  0  0  0  0  0  0  0
  2 14  1  0  0  0  0
  2  5  1  6  0  0  0
  4 16  1  6  0  0  0
  5  4  1  0  0  0  0
  6 22  1  0  0  0  0
  6 18  1  0  0  0  0
  7 22  1  6  0  0  0
  7 11  1  0  0  0  0
  7  9  1  0  0  0  0
  8 15  1  0  0  0  0
  9 20  1  1  0  0  0
 10 19  1  0  0  0  0
 10  8  1  0  0  0  0
 11  1  1  1  0  0  0
 11  2  1  0  0  0  0
 12 27  1  6  0  0  0
 12  4  1  0  0  0  0
 13  1  1  1  0  0  0
 13 21  1  0  0  0  0
 14  3  1  6  0  0  0
 17 10  2  0  0  0  0
 18  9  1  0  0  0  0
 19 13  1  0  0  0  0
 20 12  1  0  0  0  0
 21 15  1  6  0  0  0
 21  3  1  0  0  0  0
 23 24  1  0  0  0  0
 25 14  1  0  0  0  0
 25 23  1  0  0  0  0
 25 24  1  1  0  0  0
 27 26  1  0  0  0  0
M  END
>  <MODEL>
4

>  <REMARK>
 VINA RESULT:      -6.3      2.155      2.708
  Name = 
  2 active torsions:
  status: ('A' for Active; 'I' for Inactive)
    1  A    between atoms: C_14  and  C_19
    2  A    between atoms: O_16  and  C_17
                            x       y       z     vdW  Elec       q    Type
                         _______ _______ _______ _____ _____    ______ ____

>  <TORSDO>
F 2

$$$$
=
 OpenBabel11052418333D

 27 31  0  0  1  0  0  0  0  0999 V2000
  191.4290  173.4680  144.3740 C   0  0  0  0  0  2  0  0  0  0  0  0
  190.0560  175.1440  143.3550 C   0  0  1  0  0  3  0  0  0  0  0  0
  190.5330  175.8780  145.7570 C   0  0  0  0  0  2  0  0  0  0  0  0
  188.2870  175.2460  141.8540 C   0  0  1  0  0  3  0  0  0  0  0  0
  189.6100  175.6750  142.1230 O   0  0  0  0  0  0  0  0  0  0  0  0
  191.5010  171.2680  141.1480 C   0  0  0  0  0  2  0  0  0  0  0  0
  190.9230  173.3500  142.0290 C   0  0  1  0  0  3  0  0  0  0  0  0
  194.3490  175.9250  146.5130 C   0  0  0  0  0  2  0  0  0  0  0  0
  189.8640  172.2830  142.3190 C   0  0  2  0  0  3  0  0  0  0  0  0
  194.6570  175.2990  145.1960 C   0  0  0  0  0  0  0  0  0  0  0  0
  191.2110  174.2530  143.1540 N   0  0  2  0  0  0  0  0  0  0  0  0
  188.1740  173.8970  141.1250 C   0  0  2  0  0  3  0  0  0  0  0  0
  192.4490  174.1380  145.2880 C   0  0  1  0  0  3  0  0  0  0  0  0
  190.3960  176.3130  144.2920 C   0  0  1  0  0  3  0  0  0  0  0  0
  192.9060  176.4190  146.4850 C   0  0  0  0  0  2  0  0  0  0  0  0
  187.2790  175.4430  142.9860 C   0  0  0  0  0  1  0  0  0  0  0  0
  195.7740  175.4850  144.6470 O   0  0  0  0  0  0  0  0  0  0  0  0
  190.2910  171.1510  141.5490 N   0  0  0  0  0  2  0  0  0  0  0  0
  193.6670  174.4920  144.5640 N   0  0  0  0  0  2  0  0  0  0  0  0
  188.4090  172.6650  142.0140 C   0  0  0  0  0  2  0  0  0  0  0  0
  191.8990  175.3010  146.1580 C   0  0  1  0  0  3  0  0  0  0  0  0
  192.1320  172.5540  141.5640 C   0  0  0  0  0  2  0  0  0  0  0  0
  191.1150  177.9190  142.6690 O   0  0  0  0  0  0  0  0  0  0  0  0
  191.1910  178.6140  143.8880 C   0  0  0  0  0  2  0  0  0  0  0  0
  191.5470  177.1810  143.7850 C   0  0  1  0  0  3  0  0  0  0  0  0
  188.2440  173.0630  139.0750 C   0  0  0  0  0  1  0  0  0  0  0  0
  188.9550  173.8680  139.9660 O   0  0  0  0  0  0  0  0  0  0  0  0
  2  5  1  6  0  0  0
  2 14  1  0  0  0  0
  4  5  1  0  0  0  0
  4 16  1  1  0  0  0
  6 18  1  0  0  0  0
  6 22  1  0  0  0  0
  7 22  1  1  0  0  0
  7  9  1  0  0  0  0
  7 11  1  0  0  0  0
  9 20  1  6  0  0  0
 10  8  1  0  0  0  0
 11  2  1  0  0  0  0
 11  1  1  1  0  0  0
 12 27  1  6  0  0  0
 12  4  1  0  0  0  0
 12 20  1  0  0  0  0
 13  1  1  6  0  0  0
 13 21  1  0  0  0  0
 14  3  1  1  0  0  0
 15  8  1  0  0  0  0
 17 10  2  0  0  0  0
 18  9  1  0  0  0  0
 19 10  1  0  0  0  0
 19 13  1  0  0  0  0
 21  3  1  6  0  0  0
 21 15  1  0  0  0  0
 23 25  1  0  0  0  0
 23 24  1  0  0  0  0
 25 24  1  1  0  0  0
 25 14  1  0  0  0  0
 26 27  1  0  0  0  0
M  END
>  <MODEL>
5

>  <REMARK>
 VINA RESULT:      -6.1      3.136      4.877
  Name = 
  2 active torsions:
  status: ('A' for Active; 'I' for Inactive)
    1  A    between atoms: C_14  and  C_19
    2  A    between atoms: O_16  and  C_17
                            x       y       z     vdW  Elec       q    Type
                         _______ _______ _______ _____ _____    ______ ____

>  <TORSDO>
F 2

$$$$
=
 OpenBabel11052418333D

 27 31  0  0  1  0  0  0  0  0999 V2000
  190.8860  175.0600  142.7880 C   0  0  0  0  0  2  0  0  0  0  0  0
  190.8370  175.5430  145.1330 C   0  0  1  0  0  3  0  0  0  0  0  0
  192.5510  173.6840  144.7520 C   0  0  0  0  0  2  0  0  0  0  0  0
  189.2660  176.1180  146.7430 C   0  0  1  0  0  3  0  0  0  0  0  0
  190.4700  176.5020  146.1040 O   0  0  0  0  0  0  0  0  0  0  0  0
  188.1680  177.7420  141.9680 C   0  0  0  0  0  2  0  0  0  0  0  0
  189.6060  176.9190  143.6110 C   0  0  1  0  0  3  0  0  0  0  0  0
  195.1850  174.6870  142.0710 C   0  0  0  0  0  2  0  0  0  0  0  0
  188.3280  176.0850  143.4870 C   0  0  2  0  0  3  0  0  0  0  0  0
  194.4350  175.9330  141.7430 C   0  0  0  0  0  0  0  0  0  0  0  0
  190.8390  176.1350  143.7850 N   0  0  2  0  0  0  0  0  0  0  0  0
  187.9780  176.5780  146.0410 C   0  0  2  0  0  3  0  0  0  0  0  0
  192.3200  174.7610  142.3640 C   0  0  1  0  0  3  0  0  0  0  0  0
  192.2160  174.9780  145.5070 C   0  0  1  0  0  3  0  0  0  0  0  0
  194.6440  174.1310  143.3850 C   0  0  0  0  0  2  0  0  0  0  0  0
  189.2220  174.6850  147.2760 C   0  0  0  0  0  1  0  0  0  0  0  0
  195.0330  176.9320  141.2680 O   0  0  0  0  0  0  0  0  0  0  0  0
  187.5040  176.8410  142.5900 N   0  0  0  0  0  2  0  0  0  0  0  0
  193.0300  175.9780  141.9820 N   0  0  0  0  0  2  0  0  0  0  0  0
  187.5980  175.7600  144.7970 C   0  0  0  0  0  2  0  0  0  0  0  0
  193.1280  173.8650  143.3400 C   0  0  1  0  0  3  0  0  0  0  0  0
  189.6070  177.7810  142.3580 C   0  0  0  0  0  2  0  0  0  0  0  0
  193.3560  176.7020  146.7140 O   0  0  0  0  0  0  0  0  0  0  0  0
  194.3420  175.7210  146.5150 C   0  0  0  0  0  2  0  0  0  0  0  0
  193.3280  176.0250  145.4810 C   0  0  1  0  0  3  0  0  0  0  0  0
  186.6490  178.3320  145.7990 C   0  0  0  0  0  1  0  0  0  0  0  0
  187.9910  177.9520  145.7840 O   0  0  0  0  0  0  0  0  0  0  0  0
  2 14  1  0  0  0  0
  2  5  1  1  0  0  0
  4 16  1  6  0  0  0
  5  4  1  0  0  0  0
  6 22  1  0  0  0  0
  6 18  1  0  0  0  0
  7 22  1  6  0  0  0
  7 11  1  0  0  0  0
  8 15  1  0  0  0  0
  9  7  1  0  0  0  0
  9 20  1  1  0  0  0
 10 19  1  0  0  0  0
 10  8  1  0  0  0  0
 11  1  1  6  0  0  0
 11  2  1  0  0  0  0
 12 27  1  6  0  0  0
 12  4  1  0  0  0  0
 13  1  1  1  0  0  0
 13 21  1  0  0  0  0
 14  3  1  6  0  0  0
 17 10  2  0  0  0  0
 18  9  1  0  0  0  0
 19 13  1  0  0  0  0
 20 12  1  0  0  0  0
 21 15  1  1  0  0  0
 21  3  1  0  0  0  0
 24 23  1  0  0  0  0
 25 14  1  0  0  0  0
 25 24  1  1  0  0  0
 25 23  1  0  0  0  0
 27 26  1  0  0  0  0
M  END
>  <MODEL>
6

>  <REMARK>
 VINA RESULT:      -6.1      1.695      2.685
  Name = 
  2 active torsions:
  status: ('A' for Active; 'I' for Inactive)
    1  A    between atoms: C_14  and  C_19
    2  A    between atoms: O_16  and  C_17
                            x       y       z     vdW  Elec       q    Type
                         _______ _______ _______ _____ _____    ______ ____

>  <TORSDO>
F 2

$$$$
=
 OpenBabel11052418333D

 27 31  0  0  1  0  0  0  0  0999 V2000
  193.8280  176.6230  144.5250 C   0  0  0  0  0  2  0  0  0  0  0  0
  193.7980  174.2280  144.5300 C   0  0  1  0  0  3  0  0  0  0  0  0
  192.1720  175.0350  146.3300 C   0  0  0  0  0  2  0  0  0  0  0  0
  195.3030  172.4840  144.2420 C   0  0  1  0  0  3  0  0  0  0  0  0
  194.1010  173.0710  143.7770 O   0  0  0  0  0  0  0  0  0  0  0  0
  196.4540  176.7900  141.6390 C   0  0  0  0  0  2  0  0  0  0  0  0
  195.0100  175.3980  142.8300 C   0  0  1  0  0  3  0  0  0  0  0  0
  189.5670  177.5420  144.8930 C   0  0  0  0  0  2  0  0  0  0  0  0
  196.3230  175.6460  143.5760 C   0  0  2  0  0  3  0  0  0  0  0  0
  190.2740  177.5850  143.5810 C   0  0  0  0  0  0  0  0  0  0  0  0
  193.8060  175.4270  143.6750 N   0  0  2  0  0  0  0  0  0  0  0  0
  196.5880  173.0350  143.6040 C   0  0  2  0  0  3  0  0  0  0  0  0
  192.4190  177.1460  144.7800 C   0  0  1  0  0  3  0  0  0  0  0  0
  192.4340  174.0230  145.2080 C   0  0  1  0  0  3  0  0  0  0  0  0
  190.0970  176.3510  145.6860 C   0  0  0  0  0  2  0  0  0  0  0  0
  195.3920  172.2520  145.7510 C   0  0  0  0  0  1  0  0  0  0  0  0
  189.6480  177.8670  142.5280 O   0  0  0  0  0  0  0  0  0  0  0  0
  197.1380  176.3430  142.6250 N   0  0  0  0  0  2  0  0  0  0  0  0
  191.6690  177.2960  143.5370 N   0  0  0  0  0  2  0  0  0  0  0  0
  197.0330  174.4060  144.1370 C   0  0  0  0  0  2  0  0  0  0  0  0
  191.6230  176.3990  145.8850 C   0  0  1  0  0  3  0  0  0  0  0  0
  195.0050  176.4480  141.7310 C   0  0  0  0  0  2  0  0  0  0  0  0
  191.3420  172.5970  143.6250 O   0  0  0  0  0  0  0  0  0  0  0  0
  190.3840  172.7730  144.6380 C   0  0  0  0  0  2  0  0  0  0  0  0
  191.2820  173.8720  144.2160 C   0  0  1  0  0  3  0  0  0  0  0  0
  197.8390  172.7810  141.7940 C   0  0  0  0  0  1  0  0  0  0  0  0
  196.5260  173.0080  142.2070 O   0  0  0  0  0  0  0  0  0  0  0  0
  2  5  1  6  0  0  0
  2 14  1  0  0  0  0
  4 16  1  1  0  0  0
  5  4  1  0  0  0  0
  6 22  1  0  0  0  0
  6 18  1  0  0  0  0
  7 22  1  6  0  0  0
  7  9  1  0  0  0  0
  7 11  1  0  0  0  0
  8 15  1  0  0  0  0
  9 20  1  6  0  0  0
 10  8  1  0  0  0  0
 11  1  1  1  0  0  0
 11  2  1  0  0  0  0
 12 27  1  6  0  0  0
 12 20  1  0  0  0  0
 12  4  1  0  0  0  0
 13  1  1  6  0  0  0
 13 21  1  0  0  0  0
 14  3  1  1  0  0  0
 17 10  2  0  0  0  0
 18  9  1  0  0  0  0
 19 10  1  0  0  0  0
 19 13  1  0  0  0  0
 21 15  1  6  0  0  0
 21  3  1  0  0  0  0
 23 25  1  0  0  0  0
 23 24  1  0  0  0  0
 25 24  1  1  0  0  0
 25 14  1  0  0  0  0
 26 27  1  0  0  0  0
M  END
>  <MODEL>
7

>  <REMARK>
 VINA RESULT:      -6.0      3.141      7.726
  Name = 
  2 active torsions:
  status: ('A' for Active; 'I' for Inactive)
    1  A    between atoms: C_14  and  C_19
    2  A    between atoms: O_16  and  C_17
                            x       y       z     vdW  Elec       q    Type
                         _______ _______ _______ _____ _____    ______ ____

>  <TORSDO>
F 2

$$$$
=
 OpenBabel11052418333D

 27 31  0  0  1  0  0  0  0  0999 V2000
  191.1010  173.5970  144.1160 C   0  0  0  0  0  2  0  0  0  0  0  0
  191.2040  175.8880  144.8060 C   0  0  1  0  0  3  0  0  0  0  0  0
  192.6450  174.5210  146.4160 C   0  0  0  0  0  2  0  0  0  0  0  0
  189.7830  177.7210  144.9170 C   0  0  1  0  0  3  0  0  0  0  0  0
  191.0020  177.2250  144.3940 O   0  0  0  0  0  0  0  0  0  0  0  0
  188.7290  174.3900  141.1170 C   0  0  0  0  0  2  0  0  0  0  0  0
  190.1070  175.3110  142.7580 C   0  0  1  0  0  3  0  0  0  0  0  0
  195.2850  172.3850  144.5190 C   0  0  0  0  0  2  0  0  0  0  0  0
  188.7280  174.9340  143.3040 C   0  0  2  0  0  3  0  0  0  0  0  0
  194.6930  172.7510  143.2020 C   0  0  0  0  0  0  0  0  0  0  0  0
  191.2330  174.9800  143.6460 N   0  0  2  0  0  0  0  0  0  0  0  0
  188.5410  177.4410  144.0550 C   0  0  2  0  0  3  0  0  0  0  0  0
  192.4670  172.9490  144.3150 C   0  0  1  0  0  3  0  0  0  0  0  0
  192.5100  175.8210  145.6120 C   0  0  1  0  0  3  0  0  0  0  0  0
  194.7250  173.3300  145.5780 C   0  0  0  0  0  2  0  0  0  0  0  0
  189.5720  177.5230  146.4180 C   0  0  0  0  0  1  0  0  0  0  0  0
  195.3980  172.7440  142.1610 O   0  0  0  0  0  0  0  0  0  0  0  0
  187.9770  174.5780  142.1360 N   0  0  0  0  0  2  0  0  0  0  0  0
  193.3160  173.1150  143.1390 N   0  0  0  0  0  2  0  0  0  0  0  0
  188.0100  176.0020  144.1410 C   0  0  0  0  0  2  0  0  0  0  0  0
  193.1880  173.3100  145.6430 C   0  0  1  0  0  3  0  0  0  0  0  0
  190.1740  174.6140  141.4090 C   0  0  0  0  0  2  0  0  0  0  0  0
  193.8590  177.5830  144.7150 O   0  0  0  0  0  0  0  0  0  0  0  0
  194.7110  176.9360  145.6260 C   0  0  0  0  0  2  0  0  0  0  0  0
  193.7480  176.1830  144.7930 C   0  0  1  0  0  3  0  0  0  0  0  0
  187.4580  178.2580  142.3050 C   0  0  0  0  0  1  0  0  0  0  0  0
  188.7240  177.8570  142.7330 O   0  0  0  0  0  0  0  0  0  0  0  0
  2  5  1  6  0  0  0
  2 14  1  0  0  0  0
  4 16  1  1  0  0  0
  5  4  1  0  0  0  0
  6 22  1  0  0  0  0
  6 18  1  0  0  0  0
  7 22  1  6  0  0  0
  7  9  1  0  0  0  0
  7 11  1  0  0  0  0
  8 15  1  0  0  0  0
  9 20  1  6  0  0  0
 10  8  1  0  0  0  0
 11  1  1  1  0  0  0
 11  2  1  0  0  0  0
 12 27  1  6  0  0  0
 12 20  1  0  0  0  0
 12  4  1  0  0  0  0
 13  1  1  6  0  0  0
 13 21  1  0  0  0  0
 14  3  1  6  0  0  0
 17 10  2  0  0  0  0
 18  9  1  0  0  0  0
 19 10  1  0  0  0  0
 19 13  1  0  0  0  0
 21 15  1  6  0  0  0
 21  3  1  0  0  0  0
 23 25  1  0  0  0  0
 23 24  1  0  0  0  0
 25 14  1  0  0  0  0
 25 24  1  1  0  0  0
 26 27  1  0  0  0  0
M  END
>  <MODEL>
8

>  <REMARK>
 VINA RESULT:      -6.0      2.332      3.311
  Name = 
  2 active torsions:
  status: ('A' for Active; 'I' for Inactive)
    1  A    between atoms: C_14  and  C_19
    2  A    between atoms: O_16  and  C_17
                            x       y       z     vdW  Elec       q    Type
                         _______ _______ _______ _____ _____    ______ ____

>  <TORSDO>
F 2

$$$$
=
 OpenBabel11052418333D

 27 31  0  0  1  0  0  0  0  0999 V2000
  192.6900  175.2670  146.2810 C   0  0  0  0  0  2  0  0  0  0  0  0
  192.1260  176.2740  144.1830 C   0  0  1  0  0  3  0  0  0  0  0  0
  194.6660  176.3870  144.4470 C   0  0  0  0  0  2  0  0  0  0  0  0
  190.4350  177.6050  143.3090 C   0  0  1  0  0  3  0  0  0  0  0  0
  191.1290  176.3770  143.1860 O   0  0  0  0  0  0  0  0  0  0  0  0
  188.9640  174.4740  147.1400 C   0  0  0  0  0  2  0  0  0  0  0  0
  190.4320  175.1740  145.4670 C   0  0  1  0  0  3  0  0  0  0  0  0
  196.1900  172.8840  145.1810 C   0  0  0  0  0  2  0  0  0  0  0  0
  190.0500  176.3120  146.4170 C   0  0  2  0  0  3  0  0  0  0  0  0
  194.8340  172.2790  145.3180 C   0  0  0  0  0  0  0  0  0  0  0  0
  191.8520  175.1420  145.0840 N   0  0  2  0  0  0  0  0  0  0  0  0
  189.2370  177.5850  144.2710 C   0  0  2  0  0  3  0  0  0  0  0  0
  193.9900  174.4830  146.1310 C   0  0  1  0  0  3  0  0  0  0  0  0
  193.4910  176.1350  143.4930 C   0  0  1  0  0  3  0  0  0  0  0  0
  196.0420  174.2530  144.5260 C   0  0  0  0  0  2  0  0  0  0  0  0
  191.3080  178.8570  143.4080 C   0  0  0  0  0  1  0  0  0  0  0  0
  194.6560  171.0550  145.0940 O   0  0  0  0  0  0  0  0  0  0  0  0
  189.0160  175.7500  147.2360 N   0  0  0  0  0  2  0  0  0  0  0  0
  193.7410  173.1100  145.7020 N   0  0  0  0  0  2  0  0  0  0  0  0
  189.6090  177.6280  145.7620 C   0  0  0  0  0  2  0  0  0  0  0  0
  195.0990  175.1890  145.3050 C   0  0  1  0  0  3  0  0  0  0  0  0
  189.9710  173.9180  146.1910 C   0  0  0  0  0  2  0  0  0  0  0  0
  192.9080  175.0180  141.4570 O   0  0  0  0  0  0  0  0  0  0  0  0
  194.3050  175.1540  141.3800 C   0  0  0  0  0  2  0  0  0  0  0  0
  193.6210  174.8610  142.6590 C   0  0  1  0  0  3  0  0  0  0  0  0
  187.0920  177.0360  144.2990 C   0  0  0  0  0  1  0  0  0  0  0  0
  188.3550  176.5400  143.9780 O   0  0  0  0  0  0  0  0  0  0  0  0
  2  5  1  6  0  0  0
  2 11  1  0  0  0  0
  4 16  1  1  0  0  0
  4 12  1  0  0  0  0
  5  4  1  0  0  0  0
  6 18  1  0  0  0  0
  7 22  1  1  0  0  0
  7  9  1  0  0  0  0
  8 10  1  0  0  0  0
  9 20  1  6  0  0  0
  9 18  1  0  0  0  0
 10 19  1  0  0  0  0
 11  7  1  0  0  0  0
 11  1  1  1  0  0  0
 12 27  1  1  0  0  0
 12 20  1  0  0  0  0
 13  1  1  6  0  0  0
 14  2  1  0  0  0  0
 14  3  1  1  0  0  0
 15  8  1  0  0  0  0
 15 21  1  0  0  0  0
 17 10  2  0  0  0  0
 19 13  1  0  0  0  0
 21  3  1  6  0  0  0
 21 13  1  0  0  0  0
 22  6  1  0  0  0  0
 23 25  1  0  0  0  0
 24 23  1  0  0  0  0
 25 24  1  6  0  0  0
 25 14  1  0  0  0  0
 27 26  1  0  0  0  0
M  END
>  <MODEL>
9

>  <REMARK>
 VINA RESULT:      -6.0      2.524      5.024
  Name = 
  2 active torsions:
  status: ('A' for Active; 'I' for Inactive)
    1  A    between atoms: C_14  and  C_19
    2  A    between atoms: O_16  and  C_17
                            x       y       z     vdW  Elec       q    Type
                         _______ _______ _______ _____ _____    ______ ____

>  <TORSDO>
F 2

$$$$
