=
 OpenBabel11052417293D

 25 28  0  0  1  0  0  0  0  0999 V2000
  185.7680  177.9250  143.7740 C   0  0  0  0  0  0  0  0  0  0  0  0
  186.7340  177.8340  144.7790 C   0  0  0  0  0  0  0  0  0  0  0  0
  184.0930  178.7220  145.3180 C   0  0  0  0  0  3  0  0  0  0  0  0
  185.8700  177.9050  142.2940 C   0  0  2  0  0  3  0  0  0  0  0  0
  185.2350  177.6280  139.5560 C   0  0  0  0  0  2  0  0  0  0  0  0
  185.0210  178.5780  146.3640 C   0  0  0  0  0  3  0  0  0  0  0  0
  184.4850  177.8200  141.8350 N   0  0  2  0  0  0  0  0  0  0  0  0
  184.4390  178.4970  140.5510 C   0  0  0  0  0  2  0  0  0  0  0  0
  187.3230  178.0210  147.1990 C   0  0  0  0  0  0  0  0  0  0  0  0
  186.9990  178.2920  148.3860 O   0  0  0  0  0  0  0  0  0  0  0  0
  188.1340  177.3770  144.4700 C   0  0  0  0  0  2  0  0  0  0  0  0
  186.6580  177.2940  140.0760 C   0  0  0  0  0  2  0  0  0  0  0  0
  184.5080  178.3880  144.0320 C   0  0  0  0  0  0  0  0  0  0  0  0
  183.7560  178.4890  142.8340 N   0  0  0  0  0  2  0  0  0  0  0  0
  188.7130  177.5400  146.9080 C   0  0  0  0  0  2  0  0  0  0  0  0
  186.6810  176.8650  141.5570 C   0  0  0  0  0  2  0  0  0  0  0  0
  189.1320  177.9290  145.4870 C   0  0  1  0  0  3  0  0  0  0  0  0
  186.3370  178.1290  146.1060 C   0  0  0  0  0  0  0  0  0  0  0  0
  190.5150  177.3870  145.1790 C   0  0  0  0  0  2  0  0  0  0  0  0
  190.8410  176.2190  146.0950 C   0  0  0  0  0  2  0  0  0  0  0  0
  189.8030  173.9390  145.8680 C   0  0  0  0  0  0  0  0  0  0  0  0
  189.6870  172.8480  145.2490 O   0  0  0  0  0  0  0  0  0  0  0  0
  189.0680  174.1440  147.0300 O   0  0  0  0  0  1  0  0  0  0  0  0
  190.6850  174.9610  145.3800 N   0  0  0  0  0  0  0  0  0  0  0  0
  191.5270  174.7170  144.2210 C   0  0  0  0  0  1  0  0  0  0  0  0
  1 13  2  0  0  0  0
  1  2  1  0  0  0  0
  2 18  2  0  0  0  0
  3  6  2  0  0  0  0
  4 16  1  1  0  0  0
  4  1  1  0  0  0  0
  5 12  1  0  0  0  0
  5  8  1  0  0  0  0
  7  8  1  6  0  0  0
  7  4  1  0  0  0  0
  7 14  1  0  0  0  0
  9 10  2  0  0  0  0
 11  2  1  0  0  0  0
 11 17  1  0  0  0  0
 12 16  1  0  0  0  0
 13  3  1  0  0  0  0
 14 13  1  0  0  0  0
 15  9  1  0  0  0  0
 17 19  1  6  0  0  0
 17 15  1  0  0  0  0
 18  6  1  0  0  0  0
 18  9  1  0  0  0  0
 19 20  1  0  0  0  0
 21 23  1  0  0  0  0
 22 21  2  0  0  0  0
 24 21  1  0  0  0  0
 24 20  1  0  0  0  0
 25 24  1  0  0  0  0
M  END
>  <MODEL>
1

>  <REMARK>
 VINA RESULT:      -7.5      0.000      0.000
  Name = 
  3 active torsions:
  status: ('A' for Active; 'I' for Inactive)
    1  A    between atoms: C_6  and  C_15
    2  A    between atoms: C_6  and  C_23
    3  A    between atoms: C_15  and  N_21
                            x       y       z     vdW  Elec       q    Type
                         _______ _______ _______ _____ _____    ______ ____

>  <TORSDO>
F 3

$$$$
=
 OpenBabel11052417293D

 25 28  0  0  1  0  0  0  0  0999 V2000
  185.7000  177.5120  143.4690 C   0  0  0  0  0  0  0  0  0  0  0  0
  185.9970  177.3500  144.8240 C   0  0  0  0  0  0  0  0  0  0  0  0
  183.9310  179.0850  143.9410 C   0  0  0  0  0  3  0  0  0  0  0  0
  186.4470  177.1500  142.2390 C   0  0  2  0  0  3  0  0  0  0  0  0
  187.0720  176.5040  139.5610 C   0  0  0  0  0  2  0  0  0  0  0  0
  184.1580  178.8930  145.3150 C   0  0  0  0  0  3  0  0  0  0  0  0
  185.4990  177.3910  141.1540 N   0  0  2  0  0  0  0  0  0  0  0  0
  186.2920  177.7620  139.9950 C   0  0  0  0  0  2  0  0  0  0  0  0
  185.4450  177.8590  147.2070 C   0  0  0  0  0  0  0  0  0  0  0  0
  184.7430  178.4590  148.0630 O   0  0  0  0  0  0  0  0  0  0  0  0
  187.1060  176.4380  145.2720 C   0  0  0  0  0  2  0  0  0  0  0  0
  187.8700  175.8750  140.7350 C   0  0  0  0  0  2  0  0  0  0  0  0
  184.7290  178.3770  143.0470 C   0  0  0  0  0  0  0  0  0  0  0  0
  184.6980  178.4440  141.6300 N   0  0  0  0  0  2  0  0  0  0  0  0
  186.5310  176.9320  147.6660 C   0  0  0  0  0  2  0  0  0  0  0  0
  187.0600  175.7820  142.0430 C   0  0  0  0  0  2  0  0  0  0  0  0
  187.6580  176.8670  146.6310 C   0  0  1  0  0  3  0  0  0  0  0  0
  185.1800  178.0250  145.7640 C   0  0  0  0  0  0  0  0  0  0  0  0
  188.7230  175.8810  147.0740 C   0  0  0  0  0  2  0  0  0  0  0  0
  189.5030  175.3690  145.8740 C   0  0  0  0  0  2  0  0  0  0  0  0
  191.0510  176.8060  144.5090 C   0  0  0  0  0  0  0  0  0  0  0  0
  192.1360  177.4340  144.3880 O   0  0  0  0  0  1  0  0  0  0  0  0
  190.1520  176.7900  143.4480 O   0  0  0  0  0  0  0  0  0  0  0  0
  190.7440  176.1130  145.7280 N   0  0  0  0  0  0  0  0  0  0  0  0
  191.7190  176.0460  146.8030 C   0  0  0  0  0  1  0  0  0  0  0  0
  1  2  1  0  0  0  0
  2 11  1  0  0  0  0
  2 18  2  0  0  0  0
  3  6  2  0  0  0  0
  4 16  1  1  0  0  0
  4  1  1  0  0  0  0
  5  8  1  0  0  0  0
  5 12  1  0  0  0  0
  6 18  1  0  0  0  0
  7  8  1  6  0  0  0
  7 14  1  0  0  0  0
  7  4  1  0  0  0  0
  9 15  1  0  0  0  0
  9 10  2  0  0  0  0
 11 17  1  0  0  0  0
 12 16  1  0  0  0  0
 13  1  2  0  0  0  0
 13  3  1  0  0  0  0
 14 13  1  0  0  0  0
 17 19  1  1  0  0  0
 17 15  1  0  0  0  0
 18  9  1  0  0  0  0
 20 19  1  0  0  0  0
 21 24  1  0  0  0  0
 22 21  1  0  0  0  0
 23 21  2  0  0  0  0
 24 20  1  0  0  0  0
 24 25  1  0  0  0  0
M  END
>  <MODEL>
2

>  <REMARK>
 VINA RESULT:      -7.4      1.798      2.285
  Name = 
  3 active torsions:
  status: ('A' for Active; 'I' for Inactive)
    1  A    between atoms: C_6  and  C_15
    2  A    between atoms: C_6  and  C_23
    3  A    between atoms: C_15  and  N_21
                            x       y       z     vdW  Elec       q    Type
                         _______ _______ _______ _____ _____    ______ ____

>  <TORSDO>
F 3

$$$$
=
 OpenBabel11052417293D

 25 28  0  0  1  0  0  0  0  0999 V2000
  187.0730  177.4430  144.1440 C   0  0  0  0  0  0  0  0  0  0  0  0
  188.4000  177.2670  144.5440 C   0  0  0  0  0  0  0  0  0  0  0  0
  186.3040  177.6250  146.4250 C   0  0  0  0  0  3  0  0  0  0  0  0
  186.4670  177.7720  142.8300 C   0  0  2  0  0  3  0  0  0  0  0  0
  184.6240  178.0310  140.7050 C   0  0  0  0  0  2  0  0  0  0  0  0
  187.6180  177.3830  146.8620 C   0  0  0  0  0  3  0  0  0  0  0  0
  185.0310  177.5960  143.0370 N   0  0  2  0  0  0  0  0  0  0  0  0
  184.3720  178.5310  142.1420 C   0  0  0  0  0  2  0  0  0  0  0  0
  190.0530  176.9870  146.3940 C   0  0  0  0  0  0  0  0  0  0  0  0
  190.3200  176.9340  147.6240 O   0  0  0  0  0  0  0  0  0  0  0  0
  189.4980  177.0960  143.5310 C   0  0  0  0  0  2  0  0  0  0  0  0
  186.1310  177.7950  140.4220 C   0  0  0  0  0  2  0  0  0  0  0  0
  186.0730  177.6520  145.0530 C   0  0  0  0  0  0  0  0  0  0  0  0
  184.8430  177.9120  144.3950 N   0  0  0  0  0  2  0  0  0  0  0  0
  191.1520  176.7870  145.3940 C   0  0  0  0  0  2  0  0  0  0  0  0
  186.8570  177.0510  141.5610 C   0  0  0  0  0  2  0  0  0  0  0  0
  190.8460  177.5420  144.0980 C   0  0  1  0  0  3  0  0  0  0  0  0
  188.6670  177.1960  145.9320 C   0  0  0  0  0  0  0  0  0  0  0  0
  191.9320  177.2850  143.0700 C   0  0  0  0  0  2  0  0  0  0  0  0
  192.6870  176.0090  143.4050 C   0  0  0  0  0  2  0  0  0  0  0  0
  195.0820  176.3830  144.0760 C   0  0  0  0  0  0  0  0  0  0  0  0
  196.2950  176.5220  143.7650 O   0  0  0  0  0  0  0  0  0  0  0  0
  194.7090  176.4560  145.4130 O   0  0  0  0  0  1  0  0  0  0  0  0
  194.0930  176.1530  143.0610 N   0  0  0  0  0  0  0  0  0  0  0  0
  194.4620  176.1710  141.6550 C   0  0  0  0  0  1  0  0  0  0  0  0
  1  2  2  0  0  0  0
  1 13  1  0  0  0  0
  2 18  1  0  0  0  0
  3  6  1  0  0  0  0
  4 16  1  6  0  0  0
  4  7  1  0  0  0  0
  4  1  1  0  0  0  0
  5  8  1  0  0  0  0
  7  8  1  6  0  0  0
  7 14  1  0  0  0  0
  9 10  2  0  0  0  0
 11 17  1  0  0  0  0
 11  2  1  0  0  0  0
 12  5  1  0  0  0  0
 12 16  1  0  0  0  0
 13  3  2  0  0  0  0
 14 13  1  0  0  0  0
 15  9  1  0  0  0  0
 17 19  1  6  0  0  0
 17 15  1  0  0  0  0
 18  9  1  0  0  0  0
 18  6  2  0  0  0  0
 19 20  1  0  0  0  0
 21 23  1  0  0  0  0
 22 21  2  0  0  0  0
 24 20  1  0  0  0  0
 24 21  1  0  0  0  0
 25 24  1  0  0  0  0
M  END
>  <MODEL>
3

>  <REMARK>
 VINA RESULT:      -7.4      2.742      3.294
  Name = 
  3 active torsions:
  status: ('A' for Active; 'I' for Inactive)
    1  A    between atoms: C_6  and  C_15
    2  A    between atoms: C_6  and  C_23
    3  A    between atoms: C_15  and  N_21
                            x       y       z     vdW  Elec       q    Type
                         _______ _______ _______ _____ _____    ______ ____

>  <TORSDO>
F 3

$$$$
=
 OpenBabel11052417293D

 25 28  0  0  1  0  0  0  0  0999 V2000
  186.1700  177.4790  143.7790 C   0  0  0  0  0  0  0  0  0  0  0  0
  187.0590  176.6980  143.0390 C   0  0  0  0  0  0  0  0  0  0  0  0
  184.8850  178.0560  141.8180 C   0  0  0  0  0  3  0  0  0  0  0  0
  185.9120  177.5790  145.2370 C   0  0  2  0  0  3  0  0  0  0  0  0
  185.1120  178.5420  147.7690 C   0  0  0  0  0  2  0  0  0  0  0  0
  185.8020  177.3320  141.0340 C   0  0  0  0  0  3  0  0  0  0  0  0
  185.0210  178.7300  145.3710 N   0  0  2  0  0  0  0  0  0  0  0  0
  184.1910  178.4690  146.5340 C   0  0  0  0  0  2  0  0  0  0  0  0
  187.8270  175.8640  140.8130 C   0  0  0  0  0  0  0  0  0  0  0  0
  187.6920  175.8020  139.5620 O   0  0  0  0  0  0  0  0  0  0  0  0
  188.1960  175.9730  143.7060 C   0  0  0  0  0  2  0  0  0  0  0  0
  186.3570  177.6270  147.6270 C   0  0  0  0  0  2  0  0  0  0  0  0
  185.1030  178.1010  143.1920 C   0  0  0  0  0  0  0  0  0  0  0  0
  184.2930  178.7360  144.1680 N   0  0  0  0  0  2  0  0  0  0  0  0
  188.9790  175.1600  141.4640 C   0  0  0  0  0  2  0  0  0  0  0  0
  187.0310  177.7230  146.2440 C   0  0  0  0  0  2  0  0  0  0  0  0
  188.6220  174.7500  142.8950 C   0  0  1  0  0  3  0  0  0  0  0  0
  186.8920  176.6590  141.6330 C   0  0  0  0  0  0  0  0  0  0  0  0
  189.8130  174.0920  143.5670 C   0  0  0  0  0  2  0  0  0  0  0  0
  189.5070  173.8120  145.0290 C   0  0  0  0  0  2  0  0  0  0  0  0
  190.0410  174.9610  147.2020 C   0  0  0  0  0  0  0  0  0  0  0  0
  190.8410  175.6090  147.9270 O   0  0  0  0  0  1  0  0  0  0  0  0
  188.7760  174.6540  147.6900 O   0  0  0  0  0  0  0  0  0  0  0  0
  190.4280  174.5450  145.8840 N   0  0  0  0  0  0  0  0  0  0  0  0
  191.7120  174.9450  145.3320 C   0  0  0  0  0  1  0  0  0  0  0  0
  1  4  1  0  0  0  0
  2 11  1  0  0  0  0
  2  1  2  0  0  0  0
  3 13  2  0  0  0  0
  4  7  1  0  0  0  0
  4 16  1  1  0  0  0
  6 18  2  0  0  0  0
  6  3  1  0  0  0  0
  7  8  1  1  0  0  0
  8  5  1  0  0  0  0
  9 15  1  0  0  0  0
  9 18  1  0  0  0  0
 10  9  2  0  0  0  0
 12  5  1  0  0  0  0
 13  1  1  0  0  0  0
 13 14  1  0  0  0  0
 14  7  1  0  0  0  0
 15 17  1  0  0  0  0
 16 12  1  0  0  0  0
 17 19  1  1  0  0  0
 17 11  1  0  0  0  0
 18  2  1  0  0  0  0
 19 20  1  0  0  0  0
 20 24  1  0  0  0  0
 21 23  2  0  0  0  0
 21 22  1  0  0  0  0
 24 21  1  0  0  0  0
 25 24  1  0  0  0  0
M  END
>  <MODEL>
4

>  <REMARK>
 VINA RESULT:      -7.2      2.063      4.519
  Name = 
  3 active torsions:
  status: ('A' for Active; 'I' for Inactive)
    1  A    between atoms: C_6  and  C_15
    2  A    between atoms: C_6  and  C_23
    3  A    between atoms: C_15  and  N_21
                            x       y       z     vdW  Elec       q    Type
                         _______ _______ _______ _____ _____    ______ ____

>  <TORSDO>
F 3

$$$$
=
 OpenBabel11052417293D

 25 28  0  0  1  0  0  0  0  0999 V2000
  186.9500  176.9100  144.1500 C   0  0  0  0  0  0  0  0  0  0  0  0
  188.0340  176.0850  143.8400 C   0  0  0  0  0  0  0  0  0  0  0  0
  186.2270  176.9960  141.8490 C   0  0  0  0  0  3  0  0  0  0  0  0
  186.3040  177.2570  145.4400 C   0  0  2  0  0  3  0  0  0  0  0  0
  184.8150  178.6010  147.4290 C   0  0  0  0  0  2  0  0  0  0  0  0
  187.3450  176.2220  141.4930 C   0  0  0  0  0  3  0  0  0  0  0  0
  185.3710  178.3300  145.1020 N   0  0  2  0  0  0  0  0  0  0  0  0
  184.2660  178.2200  146.0380 C   0  0  0  0  0  2  0  0  0  0  0  0
  189.4040  174.9210  142.1060 C   0  0  0  0  0  0  0  0  0  0  0  0
  189.6160  174.6150  140.9020 O   0  0  0  0  0  0  0  0  0  0  0  0
  188.9710  175.5990  144.9120 C   0  0  0  0  0  2  0  0  0  0  0  0
  186.0830  177.7880  147.8020 C   0  0  0  0  0  2  0  0  0  0  0  0
  186.0620  177.3150  143.1930 C   0  0  0  0  0  0  0  0  0  0  0  0
  184.9960  178.0480  143.7760 N   0  0  0  0  0  2  0  0  0  0  0  0
  190.3600  174.4540  143.1620 C   0  0  0  0  0  2  0  0  0  0  0  0
  187.1020  177.6830  146.6510 C   0  0  0  0  0  2  0  0  0  0  0  0
  189.6430  174.2880  144.5040 C   0  0  1  0  0  3  0  0  0  0  0  0
  188.2550  175.7700  142.4770 C   0  0  0  0  0  0  0  0  0  0  0  0
  190.6280  173.8740  145.5810 C   0  0  0  0  0  2  0  0  0  0  0  0
  192.0200  174.3880  145.2500 C   0  0  0  0  0  2  0  0  0  0  0  0
  193.6450  176.1270  146.0640 C   0  0  0  0  0  0  0  0  0  0  0  0
  194.0130  176.9520  146.9410 O   0  0  0  0  0  1  0  0  0  0  0  0
  194.4110  175.9680  144.9140 O   0  0  0  0  0  0  0  0  0  0  0  0
  192.4470  175.3570  146.2470 N   0  0  0  0  0  0  0  0  0  0  0  0
  191.6950  175.4490  147.4870 C   0  0  0  0  0  1  0  0  0  0  0  0
  1  4  1  0  0  0  0
  2  1  1  0  0  0  0
  2 11  1  0  0  0  0
  3 13  1  0  0  0  0
  4 16  1  1  0  0  0
  5 12  1  0  0  0  0
  6  3  2  0  0  0  0
  6 18  1  0  0  0  0
  7  4  1  0  0  0  0
  7  8  1  1  0  0  0
  8  5  1  0  0  0  0
  9 18  1  0  0  0  0
  9 15  1  0  0  0  0
 10  9  2  0  0  0  0
 13 14  1  0  0  0  0
 13  1  2  0  0  0  0
 14  7  1  0  0  0  0
 15 17  1  0  0  0  0
 16 12  1  0  0  0  0
 17 11  1  0  0  0  0
 17 19  1  1  0  0  0
 18  2  2  0  0  0  0
 20 19  1  0  0  0  0
 20 24  1  0  0  0  0
 21 24  1  0  0  0  0
 21 22  1  0  0  0  0
 23 21  2  0  0  0  0
 24 25  1  0  0  0  0
M  END
>  <MODEL>
5

>  <REMARK>
 VINA RESULT:      -7.1      2.583      4.829
  Name = 
  3 active torsions:
  status: ('A' for Active; 'I' for Inactive)
    1  A    between atoms: C_6  and  C_15
    2  A    between atoms: C_6  and  C_23
    3  A    between atoms: C_15  and  N_21
                            x       y       z     vdW  Elec       q    Type
                         _______ _______ _______ _____ _____    ______ ____

>  <TORSDO>
F 3

$$$$
=
 OpenBabel11052417293D

 25 28  0  0  1  0  0  0  0  0999 V2000
  186.0100  177.5920  143.5400 C   0  0  0  0  0  0  0  0  0  0  0  0
  186.8350  176.7790  142.7610 C   0  0  0  0  0  0  0  0  0  0  0  0
  184.8110  178.4000  141.6070 C   0  0  0  0  0  3  0  0  0  0  0  0
  185.7410  177.6270  144.9990 C   0  0  2  0  0  3  0  0  0  0  0  0
  184.9950  178.5030  147.5790 C   0  0  0  0  0  2  0  0  0  0  0  0
  185.6690  177.6450  140.7890 C   0  0  0  0  0  3  0  0  0  0  0  0
  184.9560  178.8430  145.1960 N   0  0  2  0  0  0  0  0  0  0  0  0
  184.0890  178.5900  146.3340 C   0  0  0  0  0  2  0  0  0  0  0  0
  187.5560  176.0150  140.4950 C   0  0  0  0  0  0  0  0  0  0  0  0
  187.4340  176.0400  139.2410 O   0  0  0  0  0  0  0  0  0  0  0  0
  187.8920  175.9140  143.3930 C   0  0  0  0  0  2  0  0  0  0  0  0
  186.1550  177.4890  147.3920 C   0  0  0  0  0  2  0  0  0  0  0  0
  185.0120  178.3420  142.9830 C   0  0  0  0  0  0  0  0  0  0  0  0
  184.2490  178.9890  143.9890 N   0  0  0  0  0  2  0  0  0  0  0  0
  188.6310  175.1700  141.1110 C   0  0  0  0  0  2  0  0  0  0  0  0
  186.8540  177.6070  146.0220 C   0  0  0  0  0  2  0  0  0  0  0  0
  188.2170  174.7090  142.5120 C   0  0  1  0  0  3  0  0  0  0  0  0
  186.6860  176.8400  141.3540 C   0  0  0  0  0  0  0  0  0  0  0  0
  189.3340  173.9060  143.1520 C   0  0  0  0  0  2  0  0  0  0  0  0
  189.8300  174.5990  144.4110 C   0  0  0  0  0  2  0  0  0  0  0  0
  191.5200  176.4170  144.8150 C   0  0  0  0  0  0  0  0  0  0  0  0
  192.6500  176.9270  144.5930 O   0  0  0  0  0  0  0  0  0  0  0  0
  190.6450  177.0560  145.6860 O   0  0  0  0  0  1  0  0  0  0  0  0
  191.1390  175.1900  144.1760 N   0  0  0  0  0  0  0  0  0  0  0  0
  192.0100  174.5680  143.1930 C   0  0  0  0  0  1  0  0  0  0  0  0
  1  4  1  0  0  0  0
  2 11  1  0  0  0  0
  2  1  2  0  0  0  0
  3 13  2  0  0  0  0
  4  7  1  0  0  0  0
  4 16  1  1  0  0  0
  6 18  2  0  0  0  0
  6  3  1  0  0  0  0
  7  8  1  1  0  0  0
  8  5  1  0  0  0  0
  9 15  1  0  0  0  0
  9 18  1  0  0  0  0
 10  9  2  0  0  0  0
 12  5  1  0  0  0  0
 13  1  1  0  0  0  0
 13 14  1  0  0  0  0
 14  7  1  0  0  0  0
 15 17  1  0  0  0  0
 16 12  1  0  0  0  0
 17 19  1  1  0  0  0
 17 11  1  0  0  0  0
 18  2  1  0  0  0  0
 19 20  1  0  0  0  0
 21 23  1  0  0  0  0
 22 21  2  0  0  0  0
 24 20  1  0  0  0  0
 24 21  1  0  0  0  0
 25 24  1  0  0  0  0
M  END
>  <MODEL>
6

>  <REMARK>
 VINA RESULT:      -7.1      2.413      4.687
  Name = 
  3 active torsions:
  status: ('A' for Active; 'I' for Inactive)
    1  A    between atoms: C_6  and  C_15
    2  A    between atoms: C_6  and  C_23
    3  A    between atoms: C_15  and  N_21
                            x       y       z     vdW  Elec       q    Type
                         _______ _______ _______ _____ _____    ______ ____

>  <TORSDO>
F 3

$$$$
=
 OpenBabel11052417293D

 25 28  0  0  1  0  0  0  0  0999 V2000
  186.6250  177.7530  144.6860 C   0  0  0  0  0  0  0  0  0  0  0  0
  187.9820  177.5620  144.9560 C   0  0  0  0  0  0  0  0  0  0  0  0
  186.0930  178.0180  147.0250 C   0  0  0  0  0  3  0  0  0  0  0  0
  185.8960  178.0560  143.4290 C   0  0  2  0  0  3  0  0  0  0  0  0
  183.8540  178.2900  141.4910 C   0  0  0  0  0  2  0  0  0  0  0  0
  187.4400  177.7620  147.3360 C   0  0  0  0  0  3  0  0  0  0  0  0
  184.4860  177.9160  143.7840 N   0  0  2  0  0  0  0  0  0  0  0  0
  183.7570  178.8370  142.9300 C   0  0  0  0  0  2  0  0  0  0  0  0
  189.8080  177.3010  146.6400 C   0  0  0  0  0  0  0  0  0  0  0  0
  190.1970  177.2790  147.8390 O   0  0  0  0  0  0  0  0  0  0  0  0
  188.9700  177.3380  143.8440 C   0  0  0  0  0  2  0  0  0  0  0  0
  185.3210  178.0150  141.0670 C   0  0  0  0  0  2  0  0  0  0  0  0
  185.7260  178.0090  145.6830 C   0  0  0  0  0  0  0  0  0  0  0  0
  184.4410  178.2750  145.1430 N   0  0  0  0  0  2  0  0  0  0  0  0
  190.7980  177.0500  145.5420 C   0  0  0  0  0  2  0  0  0  0  0  0
  186.1440  177.2900  142.1500 C   0  0  0  0  0  2  0  0  0  0  0  0
  190.3760  177.7720  144.2600 C   0  0  1  0  0  3  0  0  0  0  0  0
  188.3870  177.5260  146.3130 C   0  0  0  0  0  0  0  0  0  0  0  0
  191.3490  177.4640  143.1370 C   0  0  0  0  0  2  0  0  0  0  0  0
  192.2820  176.3350  143.5420 C   0  0  0  0  0  2  0  0  0  0  0  0
  191.3190  174.2230  142.5740 C   0  0  0  0  0  0  0  0  0  0  0  0
  191.3320  173.3160  141.7000 O   0  0  0  0  0  0  0  0  0  0  0  0
  190.3660  174.1780  143.5850 O   0  0  0  0  0  1  0  0  0  0  0  0
  192.2760  175.2910  142.5280 N   0  0  0  0  0  0  0  0  0  0  0  0
  193.3330  175.2910  141.5310 C   0  0  0  0  0  1  0  0  0  0  0  0
  1  2  2  0  0  0  0
  1 13  1  0  0  0  0
  2 18  1  0  0  0  0
  3  6  1  0  0  0  0
  4 16  1  6  0  0  0
  4  7  1  0  0  0  0
  4  1  1  0  0  0  0
  5  8  1  0  0  0  0
  7  8  1  6  0  0  0
  7 14  1  0  0  0  0
  9 10  2  0  0  0  0
 11 17  1  0  0  0  0
 11  2  1  0  0  0  0
 12  5  1  0  0  0  0
 12 16  1  0  0  0  0
 13  3  2  0  0  0  0
 14 13  1  0  0  0  0
 15  9  1  0  0  0  0
 17 19  1  6  0  0  0
 17 15  1  0  0  0  0
 18  9  1  0  0  0  0
 18  6  2  0  0  0  0
 19 20  1  0  0  0  0
 21 23  1  0  0  0  0
 22 21  2  0  0  0  0
 24 21  1  0  0  0  0
 24 20  1  0  0  0  0
 25 24  1  0  0  0  0
M  END
>  <MODEL>
7

>  <REMARK>
 VINA RESULT:      -7.0      1.834      2.538
  Name = 
  3 active torsions:
  status: ('A' for Active; 'I' for Inactive)
    1  A    between atoms: C_6  and  C_15
    2  A    between atoms: C_6  and  C_23
    3  A    between atoms: C_15  and  N_21
                            x       y       z     vdW  Elec       q    Type
                         _______ _______ _______ _____ _____    ______ ____

>  <TORSDO>
F 3

$$$$
=
 OpenBabel11052417293D

 25 28  0  0  1  0  0  0  0  0999 V2000
  191.4320  176.5930  145.2320 C   0  0  0  0  0  0  0  0  0  0  0  0
  190.0740  176.8990  145.1140 C   0  0  0  0  0  0  0  0  0  0  0  0
  191.3350  176.6330  147.6430 C   0  0  0  0  0  3  0  0  0  0  0  0
  192.4210  176.0730  144.2550 C   0  0  2  0  0  3  0  0  0  0  0  0
  194.8530  175.4470  142.9610 C   0  0  0  0  0  2  0  0  0  0  0  0
  189.9820  177.0080  147.5590 C   0  0  0  0  0  3  0  0  0  0  0  0
  193.7050  176.1800  144.9460 N   0  0  2  0  0  0  0  0  0  0  0  0
  194.5360  175.1060  144.4310 C   0  0  0  0  0  2  0  0  0  0  0  0
  187.9170  177.5020  146.2180 C   0  0  0  0  0  0  0  0  0  0  0  0
  187.2440  177.7170  147.2620 O   0  0  0  0  0  0  0  0  0  0  0  0
  189.4220  177.0210  143.7640 C   0  0  0  0  0  2  0  0  0  0  0  0
  193.5710  175.7450  142.1380 C   0  0  0  0  0  2  0  0  0  0  0  0
  192.0250  176.4290  146.4530 C   0  0  0  0  0  0  0  0  0  0  0  0
  193.3740  176.0150  146.3030 N   0  0  0  0  0  2  0  0  0  0  0  0
  187.2620  177.6530  144.8780 C   0  0  0  0  0  2  0  0  0  0  0  0
  192.5740  176.6630  142.8720 C   0  0  0  0  0  2  0  0  0  0  0  0
  187.9230  176.7320  143.8480 C   0  0  1  0  0  3  0  0  0  0  0  0
  189.3480  177.1510  146.3030 C   0  0  0  0  0  0  0  0  0  0  0  0
  187.2950  176.9350  142.4820 C   0  0  0  0  0  2  0  0  0  0  0  0
  186.6330  178.3000  142.4010 C   0  0  0  0  0  2  0  0  0  0  0  0
  184.1180  178.2900  142.3500 C   0  0  0  0  0  0  0  0  0  0  0  0
  183.0390  178.1930  141.7080 O   0  0  0  0  0  0  0  0  0  0  0  0
  184.0770  178.4780  143.7270 O   0  0  0  0  0  1  0  0  0  0  0  0
  185.3790  178.2080  141.6690 N   0  0  0  0  0  0  0  0  0  0  0  0
  185.4310  177.9160  140.2460 C   0  0  0  0  0  1  0  0  0  0  0  0
  1 13  1  0  0  0  0
  2  1  2  0  0  0  0
  2 18  1  0  0  0  0
  4 16  1  6  0  0  0
  4  7  1  0  0  0  0
  4  1  1  0  0  0  0
  5  8  1  0  0  0  0
  6  3  1  0  0  0  0
  7  8  1  6  0  0  0
  7 14  1  0  0  0  0
  9 18  1  0  0  0  0
  9 10  2  0  0  0  0
 11 17  1  0  0  0  0
 11  2  1  0  0  0  0
 12 16  1  0  0  0  0
 12  5  1  0  0  0  0
 13  3  2  0  0  0  0
 14 13  1  0  0  0  0
 15  9  1  0  0  0  0
 17 19  1  6  0  0  0
 17 15  1  0  0  0  0
 18  6  2  0  0  0  0
 20 19  1  0  0  0  0
 21 23  1  0  0  0  0
 22 21  2  0  0  0  0
 24 21  1  0  0  0  0
 24 20  1  0  0  0  0
 25 24  1  0  0  0  0
M  END
>  <MODEL>
8

>  <REMARK>
 VINA RESULT:      -6.9      2.638      6.904
  Name = 
  3 active torsions:
  status: ('A' for Active; 'I' for Inactive)
    1  A    between atoms: C_6  and  C_15
    2  A    between atoms: C_6  and  C_23
    3  A    between atoms: C_15  and  N_21
                            x       y       z     vdW  Elec       q    Type
                         _______ _______ _______ _____ _____    ______ ____

>  <TORSDO>
F 3

$$$$
=
 OpenBabel11052417293D

 25 28  0  0  1  0  0  0  0  0999 V2000
  190.5400  174.5970  144.3750 C   0  0  0  0  0  0  0  0  0  0  0  0
  190.1670  175.5530  145.3220 C   0  0  0  0  0  0  0  0  0  0  0  0
  192.5400  174.0190  145.5970 C   0  0  0  0  0  3  0  0  0  0  0  0
  189.7900  173.9460  143.2720 C   0  0  2  0  0  3  0  0  0  0  0  0
  189.1670  172.5830  140.8770 C   0  0  0  0  0  2  0  0  0  0  0  0
  192.2280  175.0190  146.5340 C   0  0  0  0  0  3  0  0  0  0  0  0
  190.8080  173.2120  142.5230 N   0  0  2  0  0  0  0  0  0  0  0  0
  190.1400  172.0560  141.9520 C   0  0  0  0  0  2  0  0  0  0  0  0
  190.7050  176.8130  147.4100 C   0  0  0  0  0  0  0  0  0  0  0  0
  191.4680  177.0370  148.3880 O   0  0  0  0  0  0  0  0  0  0  0  0
  188.8970  176.3440  145.1670 C   0  0  0  0  0  2  0  0  0  0  0  0
  188.2260  173.6870  141.4280 C   0  0  0  0  0  2  0  0  0  0  0  0
  191.6640  173.8350  144.5300 C   0  0  0  0  0  0  0  0  0  0  0  0
  191.7620  172.8680  143.4970 N   0  0  0  0  0  2  0  0  0  0  0  0
  189.4560  177.6270  147.2520 C   0  0  0  0  0  2  0  0  0  0  0  0
  188.9540  174.7370  142.2910 C   0  0  0  0  0  2  0  0  0  0  0  0
  188.3760  176.8230  146.5220 C   0  0  1  0  0  3  0  0  0  0  0  0
  191.0520  175.7940  146.4010 C   0  0  0  0  0  0  0  0  0  0  0  0
  187.1380  177.6730  146.3120 C   0  0  0  0  0  2  0  0  0  0  0  0
  185.9720  176.8080  145.8600 C   0  0  0  0  0  2  0  0  0  0  0  0
  185.0790  177.4060  143.5870 C   0  0  0  0  0  0  0  0  0  0  0  0
  184.3090  178.0890  142.8600 O   0  0  0  0  0  0  0  0  0  0  0  0
  185.9340  176.4850  142.9940 O   0  0  0  0  0  1  0  0  0  0  0  0
  185.0750  177.5780  145.0120 N   0  0  0  0  0  0  0  0  0  0  0  0
  184.2540  178.6050  145.6290 C   0  0  0  0  0  1  0  0  0  0  0  0
  1 13  2  0  0  0  0
  1  2  1  0  0  0  0
  2 18  2  0  0  0  0
  3  6  2  0  0  0  0
  4 16  1  6  0  0  0
  4  1  1  0  0  0  0
  5 12  1  0  0  0  0
  5  8  1  0  0  0  0
  7  8  1  1  0  0  0
  7  4  1  0  0  0  0
  7 14  1  0  0  0  0
  9 10  2  0  0  0  0
 11  2  1  0  0  0  0
 11 17  1  0  0  0  0
 12 16  1  0  0  0  0
 13  3  1  0  0  0  0
 14 13  1  0  0  0  0
 15  9  1  0  0  0  0
 17 19  1  6  0  0  0
 17 15  1  0  0  0  0
 18  6  1  0  0  0  0
 18  9  1  0  0  0  0
 20 19  1  0  0  0  0
 21 24  1  0  0  0  0
 22 21  2  0  0  0  0
 23 21  1  0  0  0  0
 24 25  1  0  0  0  0
 24 20  1  0  0  0  0
M  END
>  <MODEL>
9

>  <REMARK>
 VINA RESULT:      -6.9      2.799      6.211
  Name = 
  3 active torsions:
  status: ('A' for Active; 'I' for Inactive)
    1  A    between atoms: C_6  and  C_15
    2  A    between atoms: C_6  and  C_23
    3  A    between atoms: C_15  and  N_21
                            x       y       z     vdW  Elec       q    Type
                         _______ _______ _______ _____ _____    ______ ____

>  <TORSDO>
F 3

$$$$
