=
 OpenBabel11052417383D

 25 28  0  0  1  0  0  0  0  0999 V2000
  186.6710  176.6990  143.4040 C   0  0  0  0  0  0  0  0  0  0  0  0
  187.6500  175.5660  143.4420 C   0  0  1  0  0  3  0  0  0  0  0  0
  186.8220  177.0520  141.0390 N   0  0  0  0  0  0  0  0  0  0  0  0
  185.8910  177.2220  144.3290 C   0  0  0  0  0  0  0  0  0  0  0  0
  183.9830  178.7660  145.7610 C   0  0  0  0  0  3  0  0  0  0  0  0
  187.7830  175.9810  140.9550 C   0  0  0  0  0  3  0  0  0  0  0  0
  185.0600  178.2230  143.6750 C   0  0  0  0  0  0  0  0  0  0  0  0
  184.0220  178.9240  144.4280 C   0  0  0  0  0  3  0  0  0  0  0  0
  185.0450  177.9870  146.5250 C   0  0  0  0  0  2  0  0  0  0  0  0
  186.3260  177.3830  142.1880 C   0  0  0  0  0  0  0  0  0  0  0  0
  185.2880  178.3370  142.4020 N   0  0  0  0  0  0  0  0  0  0  0  0
  185.6490  176.8040  145.7410 C   0  0  0  0  0  2  0  0  0  0  0  0
  188.1850  175.2720  142.0410 C   0  0  0  0  0  0  0  0  0  0  0  0
  188.7620  175.8530  144.4080 C   0  0  0  0  0  0  0  0  0  0  0  0
  190.6120  177.2270  145.1710 C   0  0  0  0  0  3  0  0  0  0  0  0
  188.9770  174.9810  145.4780 C   0  0  0  0  0  3  0  0  0  0  0  0
  190.0050  175.2290  146.3920 C   0  0  0  0  0  3  0  0  0  0  0  0
  189.5850  176.9800  144.2570 C   0  0  0  0  0  3  0  0  0  0  0  0
  190.8300  176.3520  146.2450 C   0  0  0  0  0  0  0  0  0  0  0  0
  191.9130  176.6140  147.2090 C   0  0  0  0  0  0  0  0  0  0  0  0
  193.2760  176.4680  146.8210 N   0  0  0  0  0  1  0  0  0  0  0  0
  191.6440  176.9690  148.3870 O   0  0  0  0  0  0  0  0  0  0  0  0
  189.1540  174.1370  141.8760 C   0  0  0  0  0  3  0  0  0  0  0  0
  189.5960  173.9920  140.4310 C   0  0  0  0  0  1  0  0  0  0  0  0
  188.5700  172.8300  142.3820 C   0  0  0  0  0  1  0  0  0  0  0  0
  1  2  1  0  0  0  0
  1  4  2  0  0  0  0
  2 14  1  1  0  0  0
  3 10  2  0  0  0  0
  4 12  1  0  0  0  0
  5  9  1  0  0  0  0
  6  3  1  0  0  0  0
  6 13  2  0  0  0  0
  7  4  1  0  0  0  0
  7  8  1  0  0  0  0
  8  5  2  0  0  0  0
 10 11  1  0  0  0  0
 10  1  1  0  0  0  0
 11  7  2  0  0  0  0
 12  9  1  0  0  0  0
 13  2  1  0  0  0  0
 14 16  1  0  0  0  0
 15 19  2  0  0  0  0
 16 17  2  0  0  0  0
 18 14  2  0  0  0  0
 18 15  1  0  0  0  0
 19 17  1  0  0  0  0
 19 20  1  0  0  0  0
 20 22  2  0  0  0  0
 21 20  1  0  0  0  0
 23 13  1  0  0  0  0
 23 25  1  0  0  0  0
 24 23  1  0  0  0  0
M  END
>  <MODEL>
1

>  <REMARK>
 VINA RESULT:      -7.8      0.000      0.000
  Name = 
  3 active torsions:
  status: ('A' for Active; 'I' for Inactive)
    1  A    between atoms: C_2  and  C_25
    2  A    between atoms: C_3  and  C_6
    3  A    between atoms: C_13  and  C_24
                            x       y       z     vdW  Elec       q    Type
                         _______ _______ _______ _____ _____    ______ ____

>  <TORSDO>
F 3

$$$$
=
 OpenBabel11052417383D

 25 28  0  0  1  0  0  0  0  0999 V2000
  186.4870  176.8740  143.5560 C   0  0  0  0  0  0  0  0  0  0  0  0
  187.4430  175.7690  143.2270 C   0  0  1  0  0  3  0  0  0  0  0  0
  186.1180  177.5400  141.2840 N   0  0  0  0  0  0  0  0  0  0  0  0
  185.9320  177.2530  144.6900 C   0  0  0  0  0  0  0  0  0  0  0  0
  184.3950  178.5490  146.6970 C   0  0  0  0  0  3  0  0  0  0  0  0
  187.0310  176.5120  140.8500 C   0  0  0  0  0  3  0  0  0  0  0  0
  184.9850  178.3110  144.3730 C   0  0  0  0  0  0  0  0  0  0  0  0
  184.1420  178.8820  145.4220 C   0  0  0  0  0  3  0  0  0  0  0  0
  185.5930  177.7000  147.0990 C   0  0  0  0  0  2  0  0  0  0  0  0
  185.8890  177.7050  142.5470 C   0  0  0  0  0  0  0  0  0  0  0  0
  184.9290  178.5980  143.1080 N   0  0  0  0  0  0  0  0  0  0  0  0
  186.0030  176.6450  146.0520 C   0  0  0  0  0  2  0  0  0  0  0  0
  187.6560  175.6750  141.7170 C   0  0  0  0  0  0  0  0  0  0  0  0
  188.7420  175.9510  143.9570 C   0  0  0  0  0  0  0  0  0  0  0  0
  190.4590  175.1450  145.4710 C   0  0  0  0  0  3  0  0  0  0  0  0
  189.4610  177.1370  143.7840 C   0  0  0  0  0  3  0  0  0  0  0  0
  190.6740  177.3280  144.4510 C   0  0  0  0  0  3  0  0  0  0  0  0
  189.2470  174.9530  144.8050 C   0  0  0  0  0  3  0  0  0  0  0  0
  191.1820  176.3350  145.3000 C   0  0  0  0  0  0  0  0  0  0  0  0
  192.4610  176.5360  146.0030 C   0  0  0  0  0  0  0  0  0  0  0  0
  193.6760  176.6570  145.2700 N   0  0  0  0  0  1  0  0  0  0  0  0
  192.4920  176.6020  147.2600 O   0  0  0  0  0  0  0  0  0  0  0  0
  188.5580  174.5940  141.1950 C   0  0  0  0  0  3  0  0  0  0  0  0
  188.5030  174.5110  139.6800 C   0  0  0  0  0  1  0  0  0  0  0  0
  188.2250  173.2470  141.8090 C   0  0  0  0  0  1  0  0  0  0  0  0
  1  4  2  0  0  0  0
  2  1  1  0  0  0  0
  2 14  1  1  0  0  0
  3 10  2  0  0  0  0
  4 12  1  0  0  0  0
  5  9  1  0  0  0  0
  6  3  1  0  0  0  0
  6 13  2  0  0  0  0
  7  4  1  0  0  0  0
  7  8  1  0  0  0  0
  8  5  2  0  0  0  0
 10 11  1  0  0  0  0
 10  1  1  0  0  0  0
 11  7  2  0  0  0  0
 12  9  1  0  0  0  0
 13  2  1  0  0  0  0
 14 18  1  0  0  0  0
 16 14  2  0  0  0  0
 16 17  1  0  0  0  0
 17 19  2  0  0  0  0
 18 15  2  0  0  0  0
 19 15  1  0  0  0  0
 19 20  1  0  0  0  0
 20 22  2  0  0  0  0
 21 20  1  0  0  0  0
 23 13  1  0  0  0  0
 23 25  1  0  0  0  0
 24 23  1  0  0  0  0
M  END
>  <MODEL>
2

>  <REMARK>
 VINA RESULT:      -7.7      0.892      1.326
  Name = 
  3 active torsions:
  status: ('A' for Active; 'I' for Inactive)
    1  A    between atoms: C_2  and  C_25
    2  A    between atoms: C_3  and  C_6
    3  A    between atoms: C_13  and  C_24
                            x       y       z     vdW  Elec       q    Type
                         _______ _______ _______ _____ _____    ______ ____

>  <TORSDO>
F 3

$$$$
=
 OpenBabel11052417383D

 25 28  0  0  1  0  0  0  0  0999 V2000
  187.2340  176.9540  143.7790 C   0  0  0  0  0  0  0  0  0  0  0  0
  187.9480  175.6850  143.4300 C   0  0  1  0  0  3  0  0  0  0  0  0
  186.8600  177.6370  141.5130 N   0  0  0  0  0  0  0  0  0  0  0  0
  186.8270  177.4500  144.9310 C   0  0  0  0  0  0  0  0  0  0  0  0
  185.6780  179.0450  146.9820 C   0  0  0  0  0  3  0  0  0  0  0  0
  187.5400  176.4490  141.0590 C   0  0  0  0  0  3  0  0  0  0  0  0
  186.0740  178.6600  144.6370 C   0  0  0  0  0  0  0  0  0  0  0  0
  185.4150  179.3970  145.7130 C   0  0  0  0  0  3  0  0  0  0  0  0
  186.7200  177.9960  147.3420 C   0  0  0  0  0  2  0  0  0  0  0  0
  186.7400  177.8640  142.7810 C   0  0  0  0  0  0  0  0  0  0  0  0
  185.9970  178.9290  143.3690 N   0  0  0  0  0  0  0  0  0  0  0  0
  186.8650  176.8640  146.3040 C   0  0  0  0  0  2  0  0  0  0  0  0
  188.0500  175.5260  141.9140 C   0  0  0  0  0  0  0  0  0  0  0  0
  189.3000  175.6360  144.0820 C   0  0  0  0  0  0  0  0  0  0  0  0
  191.5240  176.5420  144.4310 C   0  0  0  0  0  3  0  0  0  0  0  0
  189.5870  174.6030  144.9780 C   0  0  0  0  0  3  0  0  0  0  0  0
  190.8370  174.5380  145.5990 C   0  0  0  0  0  3  0  0  0  0  0  0
  190.2750  176.6080  143.8100 C   0  0  0  0  0  3  0  0  0  0  0  0
  191.8150  175.5050  145.3300 C   0  0  0  0  0  0  0  0  0  0  0  0
  193.1330  175.4370  145.9860 C   0  0  0  0  0  0  0  0  0  0  0  0
  194.0000  174.3320  145.7500 N   0  0  0  0  0  1  0  0  0  0  0  0
  193.5050  176.3560  146.7620 O   0  0  0  0  0  0  0  0  0  0  0  0
  188.7050  174.2870  141.3740 C   0  0  0  0  0  3  0  0  0  0  0  0
  188.7030  174.2780  139.8560 C   0  0  0  0  0  1  0  0  0  0  0  0
  188.0430  173.0310  141.9100 C   0  0  0  0  0  1  0  0  0  0  0  0
  1  4  2  0  0  0  0
  2  1  1  0  0  0  0
  2 14  1  1  0  0  0
  3 10  2  0  0  0  0
  4 12  1  0  0  0  0
  5  9  1  0  0  0  0
  6  3  1  0  0  0  0
  6 13  2  0  0  0  0
  7  4  1  0  0  0  0
  7  8  1  0  0  0  0
  8  5  2  0  0  0  0
 10 11  1  0  0  0  0
 10  1  1  0  0  0  0
 11  7  2  0  0  0  0
 12  9  1  0  0  0  0
 13  2  1  0  0  0  0
 14 16  1  0  0  0  0
 15 19  2  0  0  0  0
 16 17  2  0  0  0  0
 18 14  2  0  0  0  0
 18 15  1  0  0  0  0
 19 17  1  0  0  0  0
 19 20  1  0  0  0  0
 20 22  2  0  0  0  0
 21 20  1  0  0  0  0
 23 25  1  0  0  0  0
 23 13  1  0  0  0  0
 24 23  1  0  0  0  0
M  END
>  <MODEL>
3

>  <REMARK>
 VINA RESULT:      -7.6      1.340      1.394
  Name = 
  3 active torsions:
  status: ('A' for Active; 'I' for Inactive)
    1  A    between atoms: C_2  and  C_25
    2  A    between atoms: C_3  and  C_6
    3  A    between atoms: C_13  and  C_24
                            x       y       z     vdW  Elec       q    Type
                         _______ _______ _______ _____ _____    ______ ____

>  <TORSDO>
F 3

$$$$
=
 OpenBabel11052417383D

 25 28  0  0  1  0  0  0  0  0999 V2000
  187.8970  177.6070  145.3400 C   0  0  0  0  0  0  0  0  0  0  0  0
  189.0820  177.5290  144.4280 C   0  0  1  0  0  3  0  0  0  0  0  0
  189.1000  177.0130  147.3260 N   0  0  0  0  0  0  0  0  0  0  0  0
  186.6550  178.0050  145.1430 C   0  0  0  0  0  0  0  0  0  0  0  0
  183.9230  178.7260  145.4370 C   0  0  0  0  0  3  0  0  0  0  0  0
  190.3050  176.8980  146.5440 C   0  0  0  0  0  3  0  0  0  0  0  0
  185.9860  177.9790  146.4350 C   0  0  0  0  0  0  0  0  0  0  0  0
  184.6090  178.4530  146.5590 C   0  0  0  0  0  3  0  0  0  0  0  0
  184.4820  178.4480  144.0490 C   0  0  0  0  0  2  0  0  0  0  0  0
  187.9860  177.3290  146.7480 C   0  0  0  0  0  0  0  0  0  0  0  0
  186.7500  177.5900  147.4100 N   0  0  0  0  0  0  0  0  0  0  0  0
  186.0120  178.6050  143.9380 C   0  0  0  0  0  2  0  0  0  0  0  0
  190.3350  177.1320  145.2070 C   0  0  0  0  0  0  0  0  0  0  0  0
  188.8180  176.5850  143.2890 C   0  0  0  0  0  0  0  0  0  0  0  0
  188.1770  176.1610  140.9880 C   0  0  0  0  0  3  0  0  0  0  0  0
  188.9840  175.2130  143.4900 C   0  0  0  0  0  3  0  0  0  0  0  0
  188.7470  174.3150  142.4450 C   0  0  0  0  0  3  0  0  0  0  0  0
  188.4130  177.0580  142.0320 C   0  0  0  0  0  3  0  0  0  0  0  0
  188.3420  174.7820  141.1870 C   0  0  0  0  0  0  0  0  0  0  0  0
  188.0930  173.8360  140.0850 C   0  0  0  0  0  0  0  0  0  0  0  0
  188.1270  174.2790  138.7320 N   0  0  0  0  0  1  0  0  0  0  0  0
  187.8450  172.6260  140.3300 O   0  0  0  0  0  0  0  0  0  0  0  0
  191.6350  177.0410  144.4600 C   0  0  0  0  0  3  0  0  0  0  0  0
  192.7990  176.8030  145.4040 C   0  0  0  0  0  1  0  0  0  0  0  0
  191.8810  178.2810  143.6210 C   0  0  0  0  0  1  0  0  0  0  0  0
  1 10  1  0  0  0  0
  2 14  1  6  0  0  0
  2 13  1  0  0  0  0
  2  1  1  0  0  0  0
  4  1  2  0  0  0  0
  4  7  1  0  0  0  0
  5  8  2  0  0  0  0
  6  3  1  0  0  0  0
  7  8  1  0  0  0  0
  7 11  2  0  0  0  0
  9  5  1  0  0  0  0
 10  3  2  0  0  0  0
 10 11  1  0  0  0  0
 12  9  1  0  0  0  0
 12  4  1  0  0  0  0
 13  6  2  0  0  0  0
 14 16  1  0  0  0  0
 15 19  2  0  0  0  0
 15 18  1  0  0  0  0
 17 16  2  0  0  0  0
 18 14  2  0  0  0  0
 19 17  1  0  0  0  0
 20 22  2  0  0  0  0
 20 19  1  0  0  0  0
 21 20  1  0  0  0  0
 23 13  1  0  0  0  0
 23 24  1  0  0  0  0
 25 23  1  0  0  0  0
M  END
>  <MODEL>
4

>  <REMARK>
 VINA RESULT:      -7.1      2.805      5.129
  Name = 
  3 active torsions:
  status: ('A' for Active; 'I' for Inactive)
    1  A    between atoms: C_2  and  C_25
    2  A    between atoms: C_3  and  C_6
    3  A    between atoms: C_13  and  C_24
                            x       y       z     vdW  Elec       q    Type
                         _______ _______ _______ _____ _____    ______ ____

>  <TORSDO>
F 3

$$$$
=
 OpenBabel11052417383D

 25 28  0  0  1  0  0  0  0  0999 V2000
  187.7540  176.7780  145.5600 C   0  0  0  0  0  0  0  0  0  0  0  0
  189.0430  176.6010  144.8180 C   0  0  1  0  0  3  0  0  0  0  0  0
  188.4680  175.6240  147.5350 N   0  0  0  0  0  0  0  0  0  0  0  0
  186.6600  177.4570  145.2780 C   0  0  0  0  0  0  0  0  0  0  0  0
  184.0980  178.6830  145.3360 C   0  0  0  0  0  3  0  0  0  0  0  0
  189.7480  175.3850  146.9160 C   0  0  0  0  0  3  0  0  0  0  0  0
  185.7850  177.3620  146.4370 C   0  0  0  0  0  0  0  0  0  0  0  0
  184.5180  178.0900  146.4650 C   0  0  0  0  0  3  0  0  0  0  0  0
  184.8260  178.5250  144.0080 C   0  0  0  0  0  2  0  0  0  0  0  0
  187.5470  176.2590  146.8850 C   0  0  0  0  0  0  0  0  0  0  0  0
  186.2860  176.6640  147.4120 N   0  0  0  0  0  0  0  0  0  0  0  0
  186.3550  178.3690  144.1380 C   0  0  0  0  0  2  0  0  0  0  0  0
  190.0490  175.8240  145.6670 C   0  0  0  0  0  0  0  0  0  0  0  0
  188.8100  175.9350  143.4920 C   0  0  0  0  0  0  0  0  0  0  0  0
  188.4980  173.9430  142.1420 C   0  0  0  0  0  3  0  0  0  0  0  0
  188.6800  176.7240  142.3470 C   0  0  0  0  0  3  0  0  0  0  0  0
  188.4590  176.1270  141.1030 C   0  0  0  0  0  3  0  0  0  0  0  0
  188.7190  174.5390  143.3860 C   0  0  0  0  0  3  0  0  0  0  0  0
  188.3680  174.7330  140.9900 C   0  0  0  0  0  0  0  0  0  0  0  0
  188.1350  174.1040  139.6790 C   0  0  0  0  0  0  0  0  0  0  0  0
  188.1920  172.6880  139.5370 N   0  0  0  0  0  1  0  0  0  0  0  0
  187.8850  174.8140  138.6690 O   0  0  0  0  0  0  0  0  0  0  0  0
  191.4190  175.5830  145.0990 C   0  0  0  0  0  3  0  0  0  0  0  0
  192.3000  174.8320  146.0810 C   0  0  0  0  0  1  0  0  0  0  0  0
  192.0830  176.8820  144.6820 C   0  0  0  0  0  1  0  0  0  0  0  0
  1 10  1  0  0  0  0
  2 14  1  6  0  0  0
  2  1  1  0  0  0  0
  2 13  1  0  0  0  0
  4  1  2  0  0  0  0
  4  7  1  0  0  0  0
  5  8  2  0  0  0  0
  6  3  1  0  0  0  0
  7  8  1  0  0  0  0
  7 11  2  0  0  0  0
  9 12  1  0  0  0  0
  9  5  1  0  0  0  0
 10 11  1  0  0  0  0
 10  3  2  0  0  0  0
 12  4  1  0  0  0  0
 13  6  2  0  0  0  0
 15 18  2  0  0  0  0
 16 14  2  0  0  0  0
 17 16  1  0  0  0  0
 18 14  1  0  0  0  0
 19 17  2  0  0  0  0
 19 15  1  0  0  0  0
 20 19  1  0  0  0  0
 21 20  1  0  0  0  0
 22 20  2  0  0  0  0
 23 13  1  0  0  0  0
 23 24  1  0  0  0  0
 25 23  1  0  0  0  0
M  END
>  <MODEL>
5

>  <REMARK>
 VINA RESULT:      -6.9      2.998      5.232
  Name = 
  3 active torsions:
  status: ('A' for Active; 'I' for Inactive)
    1  A    between atoms: C_2  and  C_25
    2  A    between atoms: C_3  and  C_6
    3  A    between atoms: C_13  and  C_24
                            x       y       z     vdW  Elec       q    Type
                         _______ _______ _______ _____ _____    ______ ____

>  <TORSDO>
F 3

$$$$
=
 OpenBabel11052417383D

 25 28  0  0  1  0  0  0  0  0999 V2000
  189.1650  177.1210  144.8910 C   0  0  0  0  0  0  0  0  0  0  0  0
  190.5310  176.6130  144.5430 C   0  0  1  0  0  3  0  0  0  0  0  0
  189.5050  177.0810  147.2630 N   0  0  0  0  0  0  0  0  0  0  0  0
  188.1740  177.5690  144.1460 C   0  0  0  0  0  0  0  0  0  0  0  0
  185.7250  178.6500  143.1950 C   0  0  0  0  0  3  0  0  0  0  0  0
  190.8390  176.5790  147.0490 C   0  0  0  0  0  3  0  0  0  0  0  0
  187.1380  178.0450  145.0510 C   0  0  0  0  0  0  0  0  0  0  0  0
  185.9360  178.6860  144.5200 C   0  0  0  0  0  3  0  0  0  0  0  0
  186.6220  177.8700  142.2440 C   0  0  0  0  0  2  0  0  0  0  0  0
  188.7340  177.3120  146.2490 C   0  0  0  0  0  0  0  0  0  0  0  0
  187.4430  177.9140  146.3060 N   0  0  0  0  0  0  0  0  0  0  0  0
  188.1020  177.8070  142.6750 C   0  0  0  0  0  2  0  0  0  0  0  0
  191.3470  176.3560  145.8100 C   0  0  0  0  0  0  0  0  0  0  0  0
  190.4420  175.3840  143.6850 C   0  0  0  0  0  0  0  0  0  0  0  0
  190.9490  174.1810  141.6390 C   0  0  0  0  0  3  0  0  0  0  0  0
  189.7500  174.2680  144.1630 C   0  0  0  0  0  3  0  0  0  0  0  0
  189.6570  173.1120  143.3830 C   0  0  0  0  0  3  0  0  0  0  0  0
  191.0430  175.3370  142.4180 C   0  0  0  0  0  3  0  0  0  0  0  0
  190.2540  173.0600  142.1170 C   0  0  0  0  0  0  0  0  0  0  0  0
  190.1560  171.8410  141.2950 C   0  0  0  0  0  0  0  0  0  0  0  0
  190.4420  170.5650  141.8590 N   0  0  0  0  0  1  0  0  0  0  0  0
  189.8190  171.9160  140.0830 O   0  0  0  0  0  0  0  0  0  0  0  0
  192.7620  175.8780  145.6560 C   0  0  0  0  0  3  0  0  0  0  0  0
  192.9180  174.4470  146.1370 C   0  0  0  0  0  1  0  0  0  0  0  0
  193.7370  176.7880  146.3800 C   0  0  0  0  0  1  0  0  0  0  0  0
  1 10  1  0  0  0  0
  2 14  1  1  0  0  0
  2  1  1  0  0  0  0
  2 13  1  0  0  0  0
  4  1  2  0  0  0  0
  4  7  1  0  0  0  0
  5  8  2  0  0  0  0
  6  3  1  0  0  0  0
  7 11  2  0  0  0  0
  8  7  1  0  0  0  0
  9 12  1  0  0  0  0
  9  5  1  0  0  0  0
 10 11  1  0  0  0  0
 10  3  2  0  0  0  0
 12  4  1  0  0  0  0
 13  6  2  0  0  0  0
 14 16  1  0  0  0  0
 15 19  2  0  0  0  0
 15 18  1  0  0  0  0
 17 16  2  0  0  0  0
 18 14  2  0  0  0  0
 19 17  1  0  0  0  0
 20 21  1  0  0  0  0
 20 19  1  0  0  0  0
 22 20  2  0  0  0  0
 23 13  1  0  0  0  0
 23 24  1  0  0  0  0
 23 25  1  0  0  0  0
M  END
>  <MODEL>
6

>  <REMARK>
 VINA RESULT:      -6.9      3.138      5.211
  Name = 
  3 active torsions:
  status: ('A' for Active; 'I' for Inactive)
    1  A    between atoms: C_2  and  C_25
    2  A    between atoms: C_3  and  C_6
    3  A    between atoms: C_13  and  C_24
                            x       y       z     vdW  Elec       q    Type
                         _______ _______ _______ _____ _____    ______ ____

>  <TORSDO>
F 3

$$$$
=
 OpenBabel11052417383D

 25 28  0  0  1  0  0  0  0  0999 V2000
  187.1700  177.4250  144.1500 C   0  0  0  0  0  0  0  0  0  0  0  0
  188.5850  177.3320  144.6320 C   0  0  1  0  0  3  0  0  0  0  0  0
  186.1740  177.1100  146.3070 N   0  0  0  0  0  0  0  0  0  0  0  0
  186.6570  177.7210  142.9730 C   0  0  0  0  0  0  0  0  0  0  0  0
  184.9170  178.2910  140.8010 C   0  0  0  0  0  3  0  0  0  0  0  0
  187.4910  176.9950  146.8820 C   0  0  0  0  0  3  0  0  0  0  0  0
  185.2120  177.7810  143.1370 C   0  0  0  0  0  0  0  0  0  0  0  0
  184.3600  178.1760  142.0170 C   0  0  0  0  0  3  0  0  0  0  0  0
  186.3650  177.9130  140.5240 C   0  0  0  0  0  2  0  0  0  0  0  0
  186.0430  177.2940  145.0330 C   0  0  0  0  0  0  0  0  0  0  0  0
  184.8150  177.5400  144.3500 N   0  0  0  0  0  0  0  0  0  0  0  0
  187.3210  178.1550  141.7090 C   0  0  0  0  0  2  0  0  0  0  0  0
  188.6240  177.0960  146.1420 C   0  0  0  0  0  0  0  0  0  0  0  0
  189.3350  176.2650  143.8880 C   0  0  0  0  0  0  0  0  0  0  0  0
  189.6210  173.9540  143.2050 C   0  0  0  0  0  3  0  0  0  0  0  0
  190.4750  176.6150  143.1600 C   0  0  0  0  0  3  0  0  0  0  0  0
  191.1870  175.6390  142.4570 C   0  0  0  0  0  3  0  0  0  0  0  0
  188.9090  174.9280  143.9080 C   0  0  0  0  0  3  0  0  0  0  0  0
  190.7670  174.3020  142.4740 C   0  0  0  0  0  0  0  0  0  0  0  0
  191.5170  173.2740  141.7330 C   0  0  0  0  0  0  0  0  0  0  0  0
  192.1110  173.5800  140.4750 N   0  0  0  0  0  1  0  0  0  0  0  0
  191.6400  172.1120  142.2040 O   0  0  0  0  0  0  0  0  0  0  0  0
  189.9660  177.0140  146.8120 C   0  0  0  0  0  3  0  0  0  0  0  0
  190.2660  175.6000  147.2770 C   0  0  0  0  0  1  0  0  0  0  0  0
  190.0660  177.9840  147.9750 C   0  0  0  0  0  1  0  0  0  0  0  0
  1  2  1  0  0  0  0
  1 10  1  0  0  0  0
  2 14  1  6  0  0  0
  2 13  1  0  0  0  0
  3  6  1  0  0  0  0
  4  7  1  0  0  0  0
  4  1  2  0  0  0  0
  5  8  2  0  0  0  0
  7 11  2  0  0  0  0
  8  7  1  0  0  0  0
  9  5  1  0  0  0  0
  9 12  1  0  0  0  0
 10  3  2  0  0  0  0
 11 10  1  0  0  0  0
 12  4  1  0  0  0  0
 13 23  1  0  0  0  0
 13  6  2  0  0  0  0
 14 18  1  0  0  0  0
 15 18  2  0  0  0  0
 16 14  2  0  0  0  0
 17 19  2  0  0  0  0
 17 16  1  0  0  0  0
 19 15  1  0  0  0  0
 20 22  2  0  0  0  0
 20 19  1  0  0  0  0
 21 20  1  0  0  0  0
 23 24  1  0  0  0  0
 23 25  1  0  0  0  0
M  END
>  <MODEL>
7

>  <REMARK>
 VINA RESULT:      -6.7      2.732      4.740
  Name = 
  3 active torsions:
  status: ('A' for Active; 'I' for Inactive)
    1  A    between atoms: C_2  and  C_25
    2  A    between atoms: C_3  and  C_6
    3  A    between atoms: C_13  and  C_24
                            x       y       z     vdW  Elec       q    Type
                         _______ _______ _______ _____ _____    ______ ____

>  <TORSDO>
F 3

$$$$
=
 OpenBabel11052417383D

 25 28  0  0  1  0  0  0  0  0999 V2000
  191.4420  174.4000  144.3580 C   0  0  0  0  0  0  0  0  0  0  0  0
  190.2110  174.8730  143.6490 C   0  0  1  0  0  3  0  0  0  0  0  0
  191.1130  172.0780  143.8590 N   0  0  0  0  0  0  0  0  0  0  0  0
  192.4360  175.0490  144.9310 C   0  0  0  0  0  0  0  0  0  0  0  0
  194.8370  175.7700  146.2680 C   0  0  0  0  0  3  0  0  0  0  0  0
  189.9000  172.4170  143.1570 C   0  0  0  0  0  3  0  0  0  0  0  0
  193.4180  174.0570  145.3420 C   0  0  0  0  0  0  0  0  0  0  0  0
  194.6850  174.4780  145.9370 C   0  0  0  0  0  3  0  0  0  0  0  0
  193.7050  176.7820  146.1590 C   0  0  0  0  0  2  0  0  0  0  0  0
  191.8100  173.0110  144.4250 C   0  0  0  0  0  0  0  0  0  0  0  0
  193.0800  172.8370  145.0490 N   0  0  0  0  0  0  0  0  0  0  0  0
  192.7230  176.5120  145.0010 C   0  0  0  0  0  2  0  0  0  0  0  0
  189.4560  173.6940  143.0370 C   0  0  0  0  0  0  0  0  0  0  0  0
  189.3350  175.6680  144.5740 C   0  0  0  0  0  0  0  0  0  0  0  0
  188.0140  177.6420  145.0760 C   0  0  0  0  0  3  0  0  0  0  0  0
  189.0160  175.1430  145.8290 C   0  0  0  0  0  3  0  0  0  0  0  0
  188.2000  175.8640  146.7060 C   0  0  0  0  0  3  0  0  0  0  0  0
  188.8300  176.9230  144.1990 C   0  0  0  0  0  3  0  0  0  0  0  0
  187.6940  177.1170  146.3370 C   0  0  0  0  0  0  0  0  0  0  0  0
  186.8330  177.8760  147.2610 C   0  0  0  0  0  0  0  0  0  0  0  0
  185.4180  177.7170  147.2250 N   0  0  0  0  0  1  0  0  0  0  0  0
  187.3410  178.6760  148.0910 O   0  0  0  0  0  0  0  0  0  0  0  0
  188.2100  173.9820  142.2500 C   0  0  0  0  0  3  0  0  0  0  0  0
  187.5200  172.7010  141.8190 C   0  0  0  0  0  1  0  0  0  0  0  0
  188.5040  174.8540  141.0430 C   0  0  0  0  0  1  0  0  0  0  0  0
  1 10  1  0  0  0  0
  1  4  2  0  0  0  0
  2  1  1  0  0  0  0
  2 14  1  1  0  0  0
  3 10  2  0  0  0  0
  4 12  1  0  0  0  0
  4  7  1  0  0  0  0
  6  3  1  0  0  0  0
  7  8  1  0  0  0  0
  8  5  2  0  0  0  0
  9  5  1  0  0  0  0
 10 11  1  0  0  0  0
 11  7  2  0  0  0  0
 12  9  1  0  0  0  0
 13  6  2  0  0  0  0
 13  2  1  0  0  0  0
 14 16  1  0  0  0  0
 15 19  2  0  0  0  0
 16 17  2  0  0  0  0
 18 14  2  0  0  0  0
 18 15  1  0  0  0  0
 19 17  1  0  0  0  0
 19 20  1  0  0  0  0
 20 22  2  0  0  0  0
 21 20  1  0  0  0  0
 23 13  1  0  0  0  0
 24 23  1  0  0  0  0
 25 23  1  0  0  0  0
M  END
>  <MODEL>
8

>  <REMARK>
 VINA RESULT:      -6.7      2.818      6.145
  Name = 
  3 active torsions:
  status: ('A' for Active; 'I' for Inactive)
    1  A    between atoms: C_2  and  C_25
    2  A    between atoms: C_3  and  C_6
    3  A    between atoms: C_13  and  C_24
                            x       y       z     vdW  Elec       q    Type
                         _______ _______ _______ _____ _____    ______ ____

>  <TORSDO>
F 3

$$$$
=
 OpenBabel11052417383D

 25 28  0  0  1  0  0  0  0  0999 V2000
  189.6530  175.6790  145.6090 C   0  0  0  0  0  0  0  0  0  0  0  0
  188.2620  176.2090  145.7730 C   0  0  1  0  0  3  0  0  0  0  0  0
  190.6580  177.1870  147.1780 N   0  0  0  0  0  0  0  0  0  0  0  0
  190.1320  174.6480  144.9410 C   0  0  0  0  0  0  0  0  0  0  0  0
  191.7950  172.6420  143.8090 C   0  0  0  0  0  3  0  0  0  0  0  0
  189.3660  177.7820  147.4100 C   0  0  0  0  0  3  0  0  0  0  0  0
  191.5490  174.5510  145.2580 C   0  0  0  0  0  0  0  0  0  0  0  0
  192.3470  173.4450  144.7320 C   0  0  0  0  0  3  0  0  0  0  0  0
  190.4230  172.9090  143.2060 C   0  0  0  0  0  2  0  0  0  0  0  0
  190.7760  176.2200  146.3250 C   0  0  0  0  0  0  0  0  0  0  0  0
  191.9620  175.4650  146.0830 N   0  0  0  0  0  0  0  0  0  0  0  0
  189.4260  173.5830  144.1710 C   0  0  0  0  0  2  0  0  0  0  0  0
  188.2400  177.3550  146.7840 C   0  0  0  0  0  0  0  0  0  0  0  0
  187.6900  176.6290  144.4500 C   0  0  0  0  0  0  0  0  0  0  0  0
  185.9590  176.5190  142.7530 C   0  0  0  0  0  3  0  0  0  0  0  0
  188.3870  177.5560  143.6700 C   0  0  0  0  0  3  0  0  0  0  0  0
  187.8730  177.9640  142.4360 C   0  0  0  0  0  3  0  0  0  0  0  0
  186.4720  176.1100  143.9860 C   0  0  0  0  0  3  0  0  0  0  0  0
  186.6570  177.4490  141.9680 C   0  0  0  0  0  0  0  0  0  0  0  0
  186.1140  177.8800  140.6680 C   0  0  0  0  0  0  0  0  0  0  0  0
  186.7030  177.4240  139.4540 N   0  0  0  0  0  1  0  0  0  0  0  0
  185.1250  178.6580  140.6180 O   0  0  0  0  0  0  0  0  0  0  0  0
  186.9170  177.9880  147.1080 C   0  0  0  0  0  3  0  0  0  0  0  0
  187.0630  179.0580  148.1750 C   0  0  0  0  0  1  0  0  0  0  0  0
  185.8950  176.9510  147.5370 C   0  0  0  0  0  1  0  0  0  0  0  0
  1  2  1  0  0  0  0
  1 10  1  0  0  0  0
  2 14  1  6  0  0  0
  2 13  1  0  0  0  0
  3  6  1  0  0  0  0
  4  7  1  0  0  0  0
  4  1  2  0  0  0  0
  5  8  2  0  0  0  0
  7 11  2  0  0  0  0
  8  7  1  0  0  0  0
  9  5  1  0  0  0  0
  9 12  1  0  0  0  0
 10  3  2  0  0  0  0
 11 10  1  0  0  0  0
 12  4  1  0  0  0  0
 13 23  1  0  0  0  0
 13  6  2  0  0  0  0
 15 18  2  0  0  0  0
 16 14  2  0  0  0  0
 17 16  1  0  0  0  0
 18 14  1  0  0  0  0
 19 17  2  0  0  0  0
 19 15  1  0  0  0  0
 20 19  1  0  0  0  0
 21 20  1  0  0  0  0
 22 20  2  0  0  0  0
 23 25  1  0  0  0  0
 23 24  1  0  0  0  0
M  END
>  <MODEL>
9

>  <REMARK>
 VINA RESULT:      -6.7      2.838      6.978
  Name = 
  3 active torsions:
  status: ('A' for Active; 'I' for Inactive)
    1  A    between atoms: C_2  and  C_25
    2  A    between atoms: C_3  and  C_6
    3  A    between atoms: C_13  and  C_24
                            x       y       z     vdW  Elec       q    Type
                         _______ _______ _______ _____ _____    ______ ____

>  <TORSDO>
F 3

$$$$
