=
 OpenBabel11052421343D

 32 36  0  0  1  0  0  0  0  0999 V2000
  185.6560  178.5840  142.4610 C   0  0  0  0  0  3  0  0  0  0  0  0
  190.1680  176.1840  143.7900 C   0  0  0  0  0  0  0  0  0  0  0  0
  190.5160  177.6670  148.4510 C   0  0  0  0  0  3  0  0  0  0  0  0
  191.6640  176.9960  148.5550 C   0  0  0  0  0  3  0  0  0  0  0  0
  188.3050  176.8700  142.3760 C   0  0  0  0  0  0  0  0  0  0  0  0
  188.4250  177.5940  144.6920 C   0  0  0  0  0  3  0  0  0  0  0  0
  186.5060  178.3520  143.4510 C   0  0  0  0  0  3  0  0  0  0  0  0
  189.7930  177.6460  147.2150 N   0  0  0  0  0  0  0  0  0  0  0  0
  189.6240  176.9000  144.8680 C   0  0  0  0  0  0  0  0  0  0  0  0
  190.3040  176.9070  146.0930 C   0  0  1  0  0  3  0  0  0  0  0  0
  192.0120  175.4700  145.1190 C   0  0  0  0  0  0  0  0  0  0  0  0
  186.3720  176.7290  138.8260 S   0  0  0  0  0  1  0  0  0  0  0  0
  186.5880  177.3240  140.5080 C   0  0  0  0  0  0  0  0  0  0  0  0
  187.7540  177.5910  143.4620 C   0  0  0  0  0  0  0  0  0  0  0  0
  187.7870  176.7700  141.1530 C   0  0  0  0  0  3  0  0  0  0  0  0
  185.6790  178.1590  141.0570 C   0  0  0  0  0  0  0  0  0  0  0  0
  192.1780  176.2350  147.3980 C   0  0  0  0  0  3  0  0  0  0  0  0
  191.5140  176.1940  146.2280 C   0  0  0  0  0  0  0  0  0  0  0  0
  189.5070  176.1750  142.5630 C   0  0  0  0  0  3  0  0  0  0  0  0
  191.3310  175.5000  143.9400 N   0  0  0  0  0  0  0  0  0  0  0  0
  194.3650  172.5670  145.5790 C   0  0  0  0  0  0  0  0  0  0  0  0
  195.6080  173.1540  145.3400 C   0  0  0  0  0  3  0  0  0  0  0  0
  194.5330  175.2970  144.9560 C   0  0  0  0  0  0  0  0  0  0  0  0
  196.9160  175.0660  144.8180 F   0  0  0  0  0  0  0  0  0  0  0  0
  195.6960  174.5130  145.0310 C   0  0  0  0  0  0  0  0  0  0  0  0
  193.2040  173.3380  145.5030 C   0  0  0  0  0  3  0  0  0  0  0  0
  194.2840  171.2510  145.8860 F   0  0  0  0  0  0  0  0  0  0  0  0
  194.6600  176.7610  144.6820 C   0  0  0  0  0  1  0  0  0  0  0  0
  193.2720  174.6980  145.1790 C   0  0  0  0  0  0  0  0  0  0  0  0
  184.5830  178.6600  140.2820 N   0  0  0  0  0  2  0  0  0  0  0  0
  183.2460  178.3150  140.5320 C   0  0  0  0  0  0  0  0  0  0  0  0
  182.1430  178.0300  140.7380 N   0  0  0  0  0  0  0  0  0  0  0  0
  1  7  1  0  0  0  0
  2 20  2  0  0  0  0
  2  9  1  0  0  0  0
  3  4  1  0  0  0  0
  5 19  2  0  0  0  0
  5 14  1  0  0  0  0
  6  9  2  0  0  0  0
  7 14  2  0  0  0  0
  8  3  2  0  0  0  0
 10  9  1  6  0  0  0
 10 18  1  0  0  0  0
 10  8  1  0  0  0  0
 11 29  1  0  0  0  0
 11 18  2  0  0  0  0
 12 13  1  0  0  0  0
 13 16  1  0  0  0  0
 13 15  2  0  0  0  0
 14  6  1  0  0  0  0
 15  5  1  0  0  0  0
 16  1  2  0  0  0  0
 17  4  2  0  0  0  0
 18 17  1  0  0  0  0
 19  2  1  0  0  0  0
 20 11  1  0  0  0  0
 21 27  1  0  0  0  0
 22 21  2  0  0  0  0
 23 25  2  0  0  0  0
 23 29  1  0  0  0  0
 24 25  1  0  0  0  0
 25 22  1  0  0  0  0
 26 21  1  0  0  0  0
 28 23  1  0  0  0  0
 29 26  2  0  0  0  0
 30 31  1  0  0  0  0
 30 16  1  0  0  0  0
 31 32  3  0  0  0  0
M  END
>  <MODEL>
1

>  <REMARK>
 VINA RESULT:      -8.3      0.000      0.000
  Name = 
  3 active torsions:
  status: ('A' for Active; 'I' for Inactive)
    1  A    between atoms: C_1  and  N_10
    2  A    between atoms: N_10  and  C_24
    3  A    between atoms: C_16  and  C_32
                            x       y       z     vdW  Elec       q    Type
                         _______ _______ _______ _____ _____    ______ ____

>  <TORSDO>
F 3

$$$$
=
 OpenBabel11052421343D

 32 36  0  0  1  0  0  0  0  0999 V2000
  185.3640  178.3600  142.6170 C   0  0  0  0  0  3  0  0  0  0  0  0
  190.2390  176.5300  143.4940 C   0  0  0  0  0  0  0  0  0  0  0  0
  190.5900  177.4650  148.2940 C   0  0  0  0  0  3  0  0  0  0  0  0
  191.8280  176.9680  148.2770 C   0  0  0  0  0  3  0  0  0  0  0  0
  188.2290  177.0920  142.2350 C   0  0  0  0  0  0  0  0  0  0  0  0
  188.3530  177.5370  144.6200 C   0  0  0  0  0  3  0  0  0  0  0  0
  186.2860  178.1400  143.5440 C   0  0  0  0  0  3  0  0  0  0  0  0
  189.8190  177.4860  147.0870 N   0  0  0  0  0  0  0  0  0  0  0  0
  189.6490  177.0170  144.6700 C   0  0  0  0  0  0  0  0  0  0  0  0
  190.3780  176.9770  145.8650 C   0  0  1  0  0  3  0  0  0  0  0  0
  192.2300  175.9470  144.6650 C   0  0  0  0  0  0  0  0  0  0  0  0
  186.1680  177.0950  138.7550 S   0  0  0  0  0  1  0  0  0  0  0  0
  186.3750  177.5060  140.4920 C   0  0  0  0  0  0  0  0  0  0  0  0
  187.6320  177.5820  143.4200 C   0  0  0  0  0  0  0  0  0  0  0  0
  187.6730  177.0650  141.0250 C   0  0  0  0  0  3  0  0  0  0  0  0
  185.3810  178.1190  141.1710 C   0  0  0  0  0  0  0  0  0  0  0  0
  192.3920  176.4430  147.0170 C   0  0  0  0  0  3  0  0  0  0  0  0
  191.6860  176.4450  145.8720 C   0  0  0  0  0  0  0  0  0  0  0  0
  189.5280  176.5710  142.2960 C   0  0  0  0  0  3  0  0  0  0  0  0
  191.4970  176.0180  143.5200 N   0  0  0  0  0  0  0  0  0  0  0  0
  195.9490  175.7270  144.1260 C   0  0  0  0  0  0  0  0  0  0  0  0
  196.2080  174.3820  144.3900 C   0  0  0  0  0  3  0  0  0  0  0  0
  193.8510  174.0080  144.8380 C   0  0  0  0  0  0  0  0  0  0  0  0
  195.4370  172.2150  144.9820 F   0  0  0  0  0  0  0  0  0  0  0  0
  195.1650  173.5220  144.7440 C   0  0  0  0  0  0  0  0  0  0  0  0
  194.6470  176.2190  144.2200 C   0  0  0  0  0  3  0  0  0  0  0  0
  196.9620  176.5550  143.7750 F   0  0  0  0  0  0  0  0  0  0  0  0
  192.7450  173.0550  145.1600 C   0  0  0  0  0  1  0  0  0  0  0  0
  193.5920  175.3750  144.5880 C   0  0  0  0  0  0  0  0  0  0  0  0
  184.1870  178.5390  140.4990 N   0  0  0  0  0  2  0  0  0  0  0  0
  182.8980  178.2490  140.9740 C   0  0  0  0  0  0  0  0  0  0  0  0
  181.8350  178.0110  141.3650 N   0  0  0  0  0  0  0  0  0  0  0  0
  1  7  1  0  0  0  0
  2 20  2  0  0  0  0
  2  9  1  0  0  0  0
  4  3  1  0  0  0  0
  5 19  2  0  0  0  0
  5 14  1  0  0  0  0
  6  9  2  0  0  0  0
  8  3  2  0  0  0  0
 10  9  1  6  0  0  0
 10 18  1  0  0  0  0
 10  8  1  0  0  0  0
 11 18  2  0  0  0  0
 12 13  1  0  0  0  0
 13 15  2  0  0  0  0
 13 16  1  0  0  0  0
 14  7  2  0  0  0  0
 14  6  1  0  0  0  0
 15  5  1  0  0  0  0
 16  1  2  0  0  0  0
 17  4  2  0  0  0  0
 18 17  1  0  0  0  0
 19  2  1  0  0  0  0
 20 11  1  0  0  0  0
 21 26  2  0  0  0  0
 21 22  1  0  0  0  0
 22 25  2  0  0  0  0
 23 28  1  0  0  0  0
 25 23  1  0  0  0  0
 25 24  1  0  0  0  0
 26 29  1  0  0  0  0
 27 21  1  0  0  0  0
 29 11  1  0  0  0  0
 29 23  2  0  0  0  0
 30 31  1  0  0  0  0
 30 16  1  0  0  0  0
 31 32  3  0  0  0  0
M  END
>  <MODEL>
2

>  <REMARK>
 VINA RESULT:      -8.0      0.727      1.817
  Name = 
  3 active torsions:
  status: ('A' for Active; 'I' for Inactive)
    1  A    between atoms: C_1  and  N_10
    2  A    between atoms: N_10  and  C_24
    3  A    between atoms: C_16  and  C_32
                            x       y       z     vdW  Elec       q    Type
                         _______ _______ _______ _____ _____    ______ ____

>  <TORSDO>
F 3

$$$$
=
 OpenBabel11052421343D

 32 36  0  0  0  0  0  0  0  0999 V2000
  186.3100  176.7750  143.7760 C   0  0  0  0  0  3  0  0  0  0  0  0
  190.9680  174.4950  144.7710 C   0  0  0  0  0  0  0  0  0  0  0  0
  192.0970  172.9820  140.2460 C   0  0  0  0  0  3  0  0  0  0  0  0
  193.2250  172.4560  140.7270 C   0  0  0  0  0  3  0  0  0  0  0  0
  188.8900  175.6840  145.2300 C   0  0  0  0  0  0  0  0  0  0  0  0
  189.4340  174.9820  142.9680 C   0  0  0  0  0  3  0  0  0  0  0  0
  187.3500  176.1580  143.2320 C   0  0  0  0  0  3  0  0  0  0  0  0
  191.2010  173.6660  141.1290 N   0  0  0  0  0  2  0  0  0  0  0  0
  190.6360  174.4220  143.4090 C   0  0  0  0  0  0  0  0  0  0  0  0
  191.5150  173.7820  142.5260 C   0  0  0  0  0  0  0  0  0  0  0  0
  193.0200  173.3450  144.3900 C   0  0  0  0  0  0  0  0  0  0  0  0
  186.4490  177.5820  147.8370 S   0  0  0  0  0  1  0  0  0  0  0  0
  186.8580  176.9270  146.2140 C   0  0  0  0  0  0  0  0  0  0  0  0
  188.5540  175.6130  143.8570 C   0  0  0  0  0  0  0  0  0  0  0  0
  188.1630  176.2490  146.1910 C   0  0  0  0  0  3  0  0  0  0  0  0
  186.0190  177.1160  145.1720 C   0  0  0  0  0  0  0  0  0  0  0  0
  193.5400  172.5850  142.1640 C   0  0  0  0  0  3  0  0  0  0  0  0
  192.7190  173.2280  143.0130 C   0  0  0  0  0  0  0  0  0  0  0  0
  190.0990  175.1210  145.6620 C   0  0  0  0  0  3  0  0  0  0  0  0
  192.1330  173.9600  145.2210 N   0  0  0  0  0  0  0  0  0  0  0  0
  195.4180  170.8690  145.9030 C   0  0  0  0  0  0  0  0  0  0  0  0
  196.5520  171.6520  146.1240 C   0  0  0  0  0  3  0  0  0  0  0  0
  195.4000  173.5890  145.2200 C   0  0  0  0  0  0  0  0  0  0  0  0
  197.6540  173.7540  146.0230 F   0  0  0  0  0  0  0  0  0  0  0  0
  196.5460  173.0080  145.7860 C   0  0  0  0  0  0  0  0  0  0  0  0
  194.2770  171.4380  145.3370 C   0  0  0  0  0  3  0  0  0  0  0  0
  195.4250  169.5570  146.2390 F   0  0  0  0  0  0  0  0  0  0  0  0
  195.4010  175.0540  144.9230 C   0  0  0  0  0  1  0  0  0  0  0  0
  194.2590  172.7920  144.9790 C   0  0  0  0  0  0  0  0  0  0  0  0
  184.7490  177.7520  145.3610 N   0  0  0  0  0  2  0  0  0  0  0  0
  184.1250  178.5270  144.3710 C   0  0  0  0  0  0  0  0  0  0  0  0
  183.6120  179.1660  143.5540 N   0  0  0  0  0  0  0  0  0  0  0  0
  1 16  1  0  0  0  0
  2 20  1  0  0  0  0
  2 19  2  0  0  0  0
  3  4  2  0  0  0  0
  3  8  1  0  0  0  0
  4 17  1  0  0  0  0
  5 19  1  0  0  0  0
  5 15  2  0  0  0  0
  6  9  1  0  0  0  0
  6 14  2  0  0  0  0
  7  1  2  0  0  0  0
  7 14  1  0  0  0  0
  8 10  1  0  0  0  0
  9  2  1  0  0  0  0
 10 18  1  0  0  0  0
 10  9  2  0  0  0  0
 11 29  1  0  0  0  0
 11 20  2  0  0  0  0
 13 12  1  0  0  0  0
 14  5  1  0  0  0  0
 15 13  1  0  0  0  0
 16 30  1  0  0  0  0
 16 13  2  0  0  0  0
 17 18  2  0  0  0  0
 18 11  1  0  0  0  0
 21 22  1  0  0  0  0
 21 27  1  0  0  0  0
 23 25  1  0  0  0  0
 25 24  1  0  0  0  0
 25 22  2  0  0  0  0
 26 21  2  0  0  0  0
 28 23  1  0  0  0  0
 29 23  2  0  0  0  0
 29 26  1  0  0  0  0
 31 30  1  0  0  0  0
 32 31  3  0  0  0  0
M  END
>  <MODEL>
3

>  <REMARK>
 VINA RESULT:      -7.3      2.907      4.466
  Name = 
  3 active torsions:
  status: ('A' for Active; 'I' for Inactive)
    1  A    between atoms: C_1  and  N_10
    2  A    between atoms: N_10  and  C_24
    3  A    between atoms: C_16  and  C_32
                            x       y       z     vdW  Elec       q    Type
                         _______ _______ _______ _____ _____    ______ ____

>  <TORSDO>
F 3

$$$$
=
 OpenBabel11052421343D

 32 36  0  0  1  0  0  0  0  0999 V2000
  194.3620  171.8400  145.1430 C   0  0  0  0  0  3  0  0  0  0  0  0
  190.1100  174.9710  145.1630 C   0  0  0  0  0  0  0  0  0  0  0  0
  191.3170  177.9310  148.8800 C   0  0  0  0  0  3  0  0  0  0  0  0
  190.1590  178.5740  148.7140 C   0  0  0  0  0  3  0  0  0  0  0  0
  191.5760  173.1550  144.4580 C   0  0  0  0  0  0  0  0  0  0  0  0
  192.2240  174.6260  146.2810 C   0  0  0  0  0  3  0  0  0  0  0  0
  193.8020  172.9000  145.7100 C   0  0  0  0  0  3  0  0  0  0  0  0
  191.6480  176.8370  148.0180 N   0  0  0  0  0  0  0  0  0  0  0  0
  191.0350  175.3470  146.1480 C   0  0  0  0  0  0  0  0  0  0  0  0
  190.7390  176.4340  146.9820 C   0  0  1  0  0  3  0  0  0  0  0  0
  188.6330  176.7310  145.7940 C   0  0  0  0  0  0  0  0  0  0  0  0
  192.3830  170.0820  141.9570 S   0  0  0  0  0  1  0  0  0  0  0  0
  192.7420  171.1290  143.3720 C   0  0  0  0  0  0  0  0  0  0  0  0
  192.5110  173.5340  145.4500 C   0  0  0  0  0  0  0  0  0  0  0  0
  191.7060  172.1490  143.5970 C   0  0  0  0  0  3  0  0  0  0  0  0
  193.8810  170.9560  144.0770 C   0  0  0  0  0  0  0  0  0  0  0  0
  189.2330  178.1550  147.6430 C   0  0  0  0  0  3  0  0  0  0  0  0
  189.5250  177.1350  146.8160 C   0  0  0  0  0  0  0  0  0  0  0  0
  190.3880  173.8870  144.3320 C   0  0  0  0  0  3  0  0  0  0  0  0
  188.9490  175.6600  145.0140 N   0  0  0  0  0  0  0  0  0  0  0  0
  186.0480  178.9550  144.2000 C   0  0  0  0  0  0  0  0  0  0  0  0
  184.9440  178.7690  145.0330 C   0  0  0  0  0  3  0  0  0  0  0  0
  186.2300  177.2380  146.4100 C   0  0  0  0  0  0  0  0  0  0  0  0
  183.9500  177.7620  146.9400 F   0  0  0  0  0  0  0  0  0  0  0  0
  185.0310  177.9160  146.1350 C   0  0  0  0  0  0  0  0  0  0  0  0
  187.2420  178.2820  144.4630 C   0  0  0  0  0  3  0  0  0  0  0  0
  185.9620  179.7890  143.1360 F   0  0  0  0  0  0  0  0  0  0  0  0
  186.3140  176.3770  147.6300 C   0  0  0  0  0  1  0  0  0  0  0  0
  187.3420  177.4120  145.5560 C   0  0  0  0  0  0  0  0  0  0  0  0
  194.7740  169.8770  143.7710 N   0  0  0  0  0  2  0  0  0  0  0  0
  195.5680  169.2420  144.7390 C   0  0  0  0  0  0  0  0  0  0  0  0
  196.2220  168.7180  145.5370 N   0  0  0  0  0  0  0  0  0  0  0  0
  1  7  1  0  0  0  0
  2  9  1  0  0  0  0
  4  3  1  0  0  0  0
  5 14  1  0  0  0  0
  8  3  2  0  0  0  0
  9  6  2  0  0  0  0
 10  9  1  1  0  0  0
 10  8  1  0  0  0  0
 11 18  2  0  0  0  0
 12 13  1  0  0  0  0
 13 15  2  0  0  0  0
 13 16  1  0  0  0  0
 14  7  2  0  0  0  0
 14  6  1  0  0  0  0
 15  5  1  0  0  0  0
 16  1  2  0  0  0  0
 17  4  2  0  0  0  0
 18 10  1  0  0  0  0
 18 17  1  0  0  0  0
 19  5  2  0  0  0  0
 19  2  1  0  0  0  0
 20  2  2  0  0  0  0
 20 11  1  0  0  0  0
 21 26  2  0  0  0  0
 21 22  1  0  0  0  0
 22 25  2  0  0  0  0
 23 28  1  0  0  0  0
 25 23  1  0  0  0  0
 25 24  1  0  0  0  0
 26 29  1  0  0  0  0
 27 21  1  0  0  0  0
 29 11  1  0  0  0  0
 29 23  2  0  0  0  0
 30 16  1  0  0  0  0
 30 31  1  0  0  0  0
 31 32  3  0  0  0  0
M  END
>  <MODEL>
4

>  <REMARK>
 VINA RESULT:      -7.3      4.508      8.752
  Name = 
  3 active torsions:
  status: ('A' for Active; 'I' for Inactive)
    1  A    between atoms: C_1  and  N_10
    2  A    between atoms: N_10  and  C_24
    3  A    between atoms: C_16  and  C_32
                            x       y       z     vdW  Elec       q    Type
                         _______ _______ _______ _____ _____    ______ ____

>  <TORSDO>
F 3

$$$$
=
 OpenBabel11052421343D

 32 36  0  0  1  0  0  0  0  0999 V2000
  192.5400  170.8760  141.2230 C   0  0  0  0  0  3  0  0  0  0  0  0
  189.1230  174.4700  143.0380 C   0  0  0  0  0  0  0  0  0  0  0  0
  191.5110  175.8660  147.0870 C   0  0  0  0  0  3  0  0  0  0  0  0
  190.5090  176.7020  147.3620 C   0  0  0  0  0  3  0  0  0  0  0  0
  190.0320  172.7640  141.5530 C   0  0  0  0  0  0  0  0  0  0  0  0
  191.2610  173.4570  143.5310 C   0  0  0  0  0  3  0  0  0  0  0  0
  192.3190  171.7760  142.1710 C   0  0  0  0  0  3  0  0  0  0  0  0
  191.4580  175.0640  145.9010 N   0  0  0  0  0  0  0  0  0  0  0  0
  190.2510  174.3620  143.8660 C   0  0  0  0  0  0  0  0  0  0  0  0
  190.3320  175.1600  145.0150 C   0  0  1  0  0  3  0  0  0  0  0  0
  188.1810  176.1480  144.4420 C   0  0  0  0  0  0  0  0  0  0  0  0
  189.7520  170.5570  138.1760 S   0  0  0  0  0  1  0  0  0  0  0  0
  190.5460  171.0300  139.7170 C   0  0  0  0  0  0  0  0  0  0  0  0
  191.1710  172.6550  142.3860 C   0  0  0  0  0  0  0  0  0  0  0  0
  189.8040  172.0760  140.4370 C   0  0  0  0  0  3  0  0  0  0  0  0
  191.7170  170.4640  140.0810 C   0  0  0  0  0  0  0  0  0  0  0  0
  189.3570  176.7970  146.4420 C   0  0  0  0  0  3  0  0  0  0  0  0
  189.2880  176.0600  145.3190 C   0  0  0  0  0  0  0  0  0  0  0  0
  189.0250  173.6760  141.8970 C   0  0  0  0  0  3  0  0  0  0  0  0
  188.1300  175.3440  143.3440 N   0  0  0  0  0  0  0  0  0  0  0  0
  185.0010  177.5250  145.9130 C   0  0  0  0  0  0  0  0  0  0  0  0
  184.8470  178.7230  145.2150 C   0  0  0  0  0  3  0  0  0  0  0  0
  186.8810  178.2700  143.9690 C   0  0  0  0  0  0  0  0  0  0  0  0
  185.6030  180.2600  143.5690 F   0  0  0  0  0  0  0  0  0  0  0  0
  185.7800  179.0970  144.2450 C   0  0  0  0  0  0  0  0  0  0  0  0
  186.0930  176.6990  145.6470 C   0  0  0  0  0  3  0  0  0  0  0  0
  184.0890  177.1630  146.8460 F   0  0  0  0  0  0  0  0  0  0  0  0
  187.8330  178.6640  142.8860 C   0  0  0  0  0  1  0  0  0  0  0  0
  187.0470  177.0650  144.6890 C   0  0  0  0  0  0  0  0  0  0  0  0
  192.2960  169.4110  139.3000 N   0  0  0  0  0  2  0  0  0  0  0  0
  193.4930  169.5590  138.5810 C   0  0  0  0  0  0  0  0  0  0  0  0
  194.4790  169.6810  137.9880 N   0  0  0  0  0  0  0  0  0  0  0  0
  1  7  1  0  0  0  0
  2 20  2  0  0  0  0
  2  9  1  0  0  0  0
  3  4  1  0  0  0  0
  5 19  2  0  0  0  0
  5 14  1  0  0  0  0
  6  9  2  0  0  0  0
  7 14  2  0  0  0  0
  8  3  2  0  0  0  0
 10  9  1  1  0  0  0
 10 18  1  0  0  0  0
 10  8  1  0  0  0  0
 11 29  1  0  0  0  0
 11 18  2  0  0  0  0
 12 13  1  0  0  0  0
 13 16  1  0  0  0  0
 13 15  2  0  0  0  0
 14  6  1  0  0  0  0
 15  5  1  0  0  0  0
 16  1  2  0  0  0  0
 17  4  2  0  0  0  0
 18 17  1  0  0  0  0
 19  2  1  0  0  0  0
 20 11  1  0  0  0  0
 21 27  1  0  0  0  0
 22 21  2  0  0  0  0
 23 25  2  0  0  0  0
 23 29  1  0  0  0  0
 24 25  1  0  0  0  0
 25 22  1  0  0  0  0
 26 21  1  0  0  0  0
 28 23  1  0  0  0  0
 29 26  2  0  0  0  0
 30 16  1  0  0  0  0
 31 30  1  0  0  0  0
 32 31  3  0  0  0  0
M  END
>  <MODEL>
5

>  <REMARK>
 VINA RESULT:      -7.3      4.936      8.004
  Name = 
  3 active torsions:
  status: ('A' for Active; 'I' for Inactive)
    1  A    between atoms: C_1  and  N_10
    2  A    between atoms: N_10  and  C_24
    3  A    between atoms: C_16  and  C_32
                            x       y       z     vdW  Elec       q    Type
                         _______ _______ _______ _____ _____    ______ ____

>  <TORSDO>
F 3

$$$$
=
 OpenBabel11052421343D

 32 36  0  0  0  0  0  0  0  0999 V2000
  193.5740  176.0780  146.5090 C   0  0  0  0  0  3  0  0  0  0  0  0
  189.0390  177.0880  144.0000 C   0  0  0  0  0  0  0  0  0  0  0  0
  186.1460  177.8920  147.8760 C   0  0  0  0  0  3  0  0  0  0  0  0
  185.1230  178.0920  147.0430 C   0  0  0  0  0  3  0  0  0  0  0  0
  191.3950  176.5230  144.2700 C   0  0  0  0  0  0  0  0  0  0  0  0
  190.0000  176.9520  146.2130 C   0  0  0  0  0  3  0  0  0  0  0  0
  192.3050  176.4270  146.6680 C   0  0  0  0  0  3  0  0  0  0  0  0
  187.4420  177.5920  147.3470 N   0  0  0  0  0  0  0  0  0  0  0  0
  188.8940  177.1850  145.3920 C   0  0  0  0  0  0  0  0  0  0  0  0
  187.6390  177.5060  145.9260 C   0  0  0  0  0  0  0  0  0  0  0  0
  186.7470  177.6430  143.6640 C   0  0  0  0  0  0  0  0  0  0  0  0
  194.9990  175.6800  142.6400 S   0  0  0  0  0  1  0  0  0  0  0  0
  193.8820  175.8900  144.0320 C   0  0  0  0  0  0  0  0  0  0  0  0
  191.2510  176.6230  145.6740 C   0  0  0  0  0  0  0  0  0  0  0  0
  192.5130  176.2230  143.6120 C   0  0  0  0  0  3  0  0  0  0  0  0
  194.3410  175.7740  145.2970 C   0  0  0  0  0  0  0  0  0  0  0  0
  185.3370  178.0050  145.5840 C   0  0  0  0  0  2  0  0  0  0  0  0
  186.5460  177.7320  145.0620 C   0  0  0  0  0  0  0  0  0  0  0  0
  190.2800  176.7610  143.4560 C   0  0  0  0  0  3  0  0  0  0  0  0
  187.9780  177.3130  143.1840 N   0  0  0  0  0  0  0  0  0  0  0  0
  183.3620  178.5600  142.2950 C   0  0  0  0  0  0  0  0  0  0  0  0
  183.5120  178.2950  140.9330 C   0  0  0  0  0  3  0  0  0  0  0  0
  185.8010  177.5790  141.3160 C   0  0  0  0  0  0  0  0  0  0  0  0
  184.8440  177.5400  139.1170 F   0  0  0  0  0  0  0  0  0  0  0  0
  184.7250  177.8050  140.4420 C   0  0  0  0  0  0  0  0  0  0  0  0
  184.4270  178.3410  143.1700 C   0  0  0  0  0  3  0  0  0  0  0  0
  182.1820  179.0270  142.7680 F   0  0  0  0  0  0  0  0  0  0  0  0
  187.0670  176.9980  140.7740 C   0  0  0  0  0  1  0  0  0  0  0  0
  185.6540  177.8640  142.6920 C   0  0  0  0  0  0  0  0  0  0  0  0
  195.6980  175.3870  145.5510 N   0  0  0  0  0  2  0  0  0  0  0  0
  196.0880  174.0550  145.7630 C   0  0  0  0  0  0  0  0  0  0  0  0
  196.4100  172.9580  145.9380 N   0  0  0  0  0  0  0  0  0  0  0  0
  1  7  1  0  0  0  0
  2  9  1  0  0  0  0
  4  3  2  0  0  0  0
  5 14  1  0  0  0  0
  8  3  1  0  0  0  0
  9 10  1  0  0  0  0
  9  6  2  0  0  0  0
 10  8  2  0  0  0  0
 11 18  2  0  0  0  0
 12 13  1  0  0  0  0
 13 16  1  0  0  0  0
 14  6  1  0  0  0  0
 14  7  2  0  0  0  0
 15 13  2  0  0  0  0
 15  5  1  0  0  0  0
 16 30  1  0  0  0  0
 16  1  2  0  0  0  0
 17  4  1  0  0  0  0
 18 17  1  0  0  0  0
 18 10  1  0  0  0  0
 19  2  1  0  0  0  0
 19  5  2  0  0  0  0
 20 11  1  0  0  0  0
 20  2  2  0  0  0  0
 21 27  1  0  0  0  0
 21 26  1  0  0  0  0
 22 21  2  0  0  0  0
 23 29  1  0  0  0  0
 24 25  1  0  0  0  0
 25 22  1  0  0  0  0
 25 23  2  0  0  0  0
 28 23  1  0  0  0  0
 29 26  2  0  0  0  0
 29 11  1  0  0  0  0
 30 31  1  0  0  0  0
 31 32  3  0  0  0  0
M  END
>  <MODEL>
6

>  <REMARK>
 VINA RESULT:      -7.2      4.418      8.946
  Name = 
  3 active torsions:
  status: ('A' for Active; 'I' for Inactive)
    1  A    between atoms: C_1  and  N_10
    2  A    between atoms: N_10  and  C_24
    3  A    between atoms: C_16  and  C_32
                            x       y       z     vdW  Elec       q    Type
                         _______ _______ _______ _____ _____    ______ ____

>  <TORSDO>
F 3

$$$$
=
 OpenBabel11052421343D

 32 36  0  0  0  0  0  0  0  0999 V2000
  190.3950  171.1110  138.8010 C   0  0  0  0  0  3  0  0  0  0  0  0
  188.5840  174.2380  142.6530 C   0  0  0  0  0  0  0  0  0  0  0  0
  186.3530  177.6480  139.9280 C   0  0  0  0  0  3  0  0  0  0  0  0
  186.0160  178.2910  141.0470 C   0  0  0  0  0  3  0  0  0  0  0  0
  189.7370  172.3490  141.6290 C   0  0  0  0  0  0  0  0  0  0  0  0
  188.6100  174.0000  140.2480 C   0  0  0  0  0  3  0  0  0  0  0  0
  189.6790  172.1960  139.0680 C   0  0  0  0  0  3  0  0  0  0  0  0
  187.0910  176.4240  140.0080 N   0  0  0  0  0  2  0  0  0  0  0  0
  188.2160  174.7110  141.3840 C   0  0  0  0  0  0  0  0  0  0  0  0
  187.4690  175.8930  141.2880 C   0  0  0  0  0  0  0  0  0  0  0  0
  187.4700  176.0530  143.7190 C   0  0  0  0  0  0  0  0  0  0  0  0
  191.8270  168.9070  142.0030 S   0  0  0  0  0  1  0  0  0  0  0  0
  191.0780  170.2280  141.0420 C   0  0  0  0  0  0  0  0  0  0  0  0
  189.3650  172.8250  140.3490 C   0  0  0  0  0  0  0  0  0  0  0  0
  190.4470  171.2530  141.8870 C   0  0  0  0  0  3  0  0  0  0  0  0
  191.1030  170.1870  139.6920 C   0  0  0  0  0  0  0  0  0  0  0  0
  186.4050  177.7340  142.3590 C   0  0  0  0  0  3  0  0  0  0  0  0
  187.0930  176.5820  142.4620 C   0  0  0  0  0  0  0  0  0  0  0  0
  189.3350  173.0690  142.7620 C   0  0  0  0  0  3  0  0  0  0  0  0
  188.2100  174.9120  143.7710 N   0  0  0  0  0  0  0  0  0  0  0  0
  185.3780  177.4120  146.5380 C   0  0  0  0  0  0  0  0  0  0  0  0
  186.3410  177.9700  147.3790 C   0  0  0  0  0  3  0  0  0  0  0  0
  188.0910  177.2970  145.8350 C   0  0  0  0  0  0  0  0  0  0  0  0
  188.6110  178.4800  147.8570 F   0  0  0  0  0  0  0  0  0  0  0  0
  187.6930  177.9170  147.0320 C   0  0  0  0  0  0  0  0  0  0  0  0
  185.7640  176.7910  145.3500 C   0  0  0  0  0  3  0  0  0  0  0  0
  184.0670  177.4730  146.8750 F   0  0  0  0  0  0  0  0  0  0  0  0
  189.5370  177.3060  145.4590 C   0  0  0  0  0  1  0  0  0  0  0  0
  187.1160  176.7150  144.9930 C   0  0  0  0  0  0  0  0  0  0  0  0
  191.8080  169.1460  139.0050 N   0  0  0  0  0  2  0  0  0  0  0  0
  191.5810  168.8260  137.6560 C   0  0  0  0  0  0  0  0  0  0  0  0
  191.3930  168.5630  136.5450 N   0  0  0  0  0  0  0  0  0  0  0  0
  1  7  2  0  0  0  0
  1 16  1  0  0  0  0
  2 19  2  0  0  0  0
  2 20  1  0  0  0  0
  3  8  1  0  0  0  0
  3  4  2  0  0  0  0
  4 17  1  0  0  0  0
  5 15  2  0  0  0  0
  5 19  1  0  0  0  0
  6 14  2  0  0  0  0
  6  9  1  0  0  0  0
  7 14  1  0  0  0  0
  8 10  1  0  0  0  0
  9  2  1  0  0  0  0
 10  9  2  0  0  0  0
 10 18  1  0  0  0  0
 11 20  2  0  0  0  0
 11 29  1  0  0  0  0
 13 15  1  0  0  0  0
 13 12  1  0  0  0  0
 14  5  1  0  0  0  0
 16 13  2  0  0  0  0
 17 18  2  0  0  0  0
 18 11  1  0  0  0  0
 21 27  1  0  0  0  0
 21 22  1  0  0  0  0
 23 25  1  0  0  0  0
 25 22  2  0  0  0  0
 25 24  1  0  0  0  0
 26 21  2  0  0  0  0
 28 23  1  0  0  0  0
 29 26  1  0  0  0  0
 29 23  2  0  0  0  0
 30 16  1  0  0  0  0
 31 30  1  0  0  0  0
 32 31  3  0  0  0  0
M  END
>  <MODEL>
7

>  <REMARK>
 VINA RESULT:      -7.2      5.264      8.312
  Name = 
  3 active torsions:
  status: ('A' for Active; 'I' for Inactive)
    1  A    between atoms: C_1  and  N_10
    2  A    between atoms: N_10  and  C_24
    3  A    between atoms: C_16  and  C_32
                            x       y       z     vdW  Elec       q    Type
                         _______ _______ _______ _____ _____    ______ ____

>  <TORSDO>
F 3

$$$$
=
 OpenBabel11052421343D

 32 36  0  0  0  0  0  0  0  0999 V2000
  186.6610  176.9960  143.1470 C   0  0  0  0  0  3  0  0  0  0  0  0
  191.2310  174.6850  144.4330 C   0  0  0  0  0  0  0  0  0  0  0  0
  192.8350  173.5360  139.9450 C   0  0  0  0  0  3  0  0  0  0  0  0
  193.9160  172.9830  140.4970 C   0  0  0  0  0  3  0  0  0  0  0  0
  189.0990  175.8170  144.7680 C   0  0  0  0  0  0  0  0  0  0  0  0
  189.8780  175.2970  142.5260 C   0  0  0  0  0  3  0  0  0  0  0  0
  187.7600  176.4320  142.6660 C   0  0  0  0  0  3  0  0  0  0  0  0
  191.8430  174.1410  140.7820 N   0  0  0  0  0  2  0  0  0  0  0  0
  191.0390  174.7150  143.0440 C   0  0  0  0  0  0  0  0  0  0  0  0
  192.0130  174.1520  142.2080 C   0  0  0  0  0  0  0  0  0  0  0  0
  193.3290  173.5850  144.1770 C   0  0  0  0  0  0  0  0  0  0  0  0
  186.3780  177.4880  147.2500 S   0  0  0  0  0  1  0  0  0  0  0  0
  186.9580  176.9640  145.6320 C   0  0  0  0  0  0  0  0  0  0  0  0
  188.9040  175.8500  143.3670 C   0  0  0  0  0  0  0  0  0  0  0  0
  188.2700  176.3010  145.6910 C   0  0  0  0  0  3  0  0  0  0  0  0
  186.2260  177.2250  144.5280 C   0  0  0  0  0  0  0  0  0  0  0  0
  194.0830  173.0030  141.9640 C   0  0  0  0  0  3  0  0  0  0  0  0
  193.1700  173.5720  142.7720 C   0  0  0  0  0  0  0  0  0  0  0  0
  190.2670  175.2340  145.2760 C   0  0  0  0  0  3  0  0  0  0  0  0
  192.3530  174.1270  144.9570 N   0  0  0  0  0  0  0  0  0  0  0  0
  196.7280  173.3350  145.7760 C   0  0  0  0  0  0  0  0  0  0  0  0
  196.8080  171.9780  146.0900 C   0  0  0  0  0  3  0  0  0  0  0  0
  194.5990  171.6210  145.1470 C   0  0  0  0  0  0  0  0  0  0  0  0
  195.8560  169.8020  146.0780 F   0  0  0  0  0  0  0  0  0  0  0  0
  195.7500  171.1200  145.7770 C   0  0  0  0  0  0  0  0  0  0  0  0
  195.5870  173.8410  145.1530 C   0  0  0  0  0  3  0  0  0  0  0  0
  197.7590  174.1610  146.0740 F   0  0  0  0  0  0  0  0  0  0  0  0
  193.5080  170.6720  144.7690 C   0  0  0  0  0  1  0  0  0  0  0  0
  194.5110  172.9980  144.8450 C   0  0  0  0  0  0  0  0  0  0  0  0
  184.9330  177.8350  144.6350 N   0  0  0  0  0  2  0  0  0  0  0  0
  184.2020  178.2810  143.5220 C   0  0  0  0  0  0  0  0  0  0  0  0
  183.5990  178.6490  142.6050 N   0  0  0  0  0  0  0  0  0  0  0  0
  1 16  1  0  0  0  0
  2 20  1  0  0  0  0
  2 19  2  0  0  0  0
  3  4  2  0  0  0  0
  3  8  1  0  0  0  0
  4 17  1  0  0  0  0
  5 19  1  0  0  0  0
  5 15  2  0  0  0  0
  6  9  1  0  0  0  0
  6 14  2  0  0  0  0
  7  1  2  0  0  0  0
  7 14  1  0  0  0  0
  8 10  1  0  0  0  0
  9  2  1  0  0  0  0
 10 18  1  0  0  0  0
 10  9  2  0  0  0  0
 11 29  1  0  0  0  0
 11 20  2  0  0  0  0
 13 15  1  0  0  0  0
 13 12  1  0  0  0  0
 14  5  1  0  0  0  0
 16 30  1  0  0  0  0
 16 13  2  0  0  0  0
 17 18  2  0  0  0  0
 18 11  1  0  0  0  0
 21 27  1  0  0  0  0
 21 22  1  0  0  0  0
 23 25  1  0  0  0  0
 25 24  1  0  0  0  0
 25 22  2  0  0  0  0
 26 21  2  0  0  0  0
 28 23  1  0  0  0  0
 29 23  2  0  0  0  0
 29 26  1  0  0  0  0
 31 30  1  0  0  0  0
 32 31  3  0  0  0  0
M  END
>  <MODEL>
8

>  <REMARK>
 VINA RESULT:      -7.1      2.771      4.675
  Name = 
  3 active torsions:
  status: ('A' for Active; 'I' for Inactive)
    1  A    between atoms: C_1  and  N_10
    2  A    between atoms: N_10  and  C_24
    3  A    between atoms: C_16  and  C_32
                            x       y       z     vdW  Elec       q    Type
                         _______ _______ _______ _____ _____    ______ ____

>  <TORSDO>
F 3

$$$$
=
 OpenBabel11052421343D

 32 36  0  0  0  0  0  0  0  0999 V2000
  185.1380  177.5510  142.2990 C   0  0  0  0  0  3  0  0  0  0  0  0
  189.8040  175.5040  143.6830 C   0  0  0  0  0  0  0  0  0  0  0  0
  190.9610  173.2480  139.4860 C   0  0  0  0  0  3  0  0  0  0  0  0
  192.0890  172.8190  140.0540 C   0  0  0  0  0  3  0  0  0  0  0  0
  187.7180  176.7400  143.9260 C   0  0  0  0  0  0  0  0  0  0  0  0
  188.2750  175.6660  141.8190 C   0  0  0  0  0  3  0  0  0  0  0  0
  186.1840  176.8570  141.8720 C   0  0  0  0  0  3  0  0  0  0  0  0
  190.0570  174.0660  140.2370 N   0  0  0  0  0  2  0  0  0  0  0  0
  189.4780  175.1980  142.3530 C   0  0  0  0  0  0  0  0  0  0  0  0
  190.3650  174.4220  141.5950 C   0  0  0  0  0  0  0  0  0  0  0  0
  191.8640  174.3190  143.5120 C   0  0  0  0  0  0  0  0  0  0  0  0
  185.2550  179.0390  146.1630 S   0  0  0  0  0  1  0  0  0  0  0  0
  185.6740  178.1210  144.6770 C   0  0  0  0  0  0  0  0  0  0  0  0
  187.3880  176.4340  142.5850 C   0  0  0  0  0  0  0  0  0  0  0  0
  186.9830  177.4570  144.7750 C   0  0  0  0  0  3  0  0  0  0  0  0
  184.8390  178.1230  143.6160 C   0  0  0  0  0  0  0  0  0  0  0  0
  192.3980  173.1930  141.4490 C   0  0  0  0  0  3  0  0  0  0  0  0
  191.5690  173.9670  142.1740 C   0  0  0  0  0  0  0  0  0  0  0  0
  188.9280  176.2670  144.4510 C   0  0  0  0  0  3  0  0  0  0  0  0
  190.9700  175.0610  144.2220 N   0  0  0  0  0  0  0  0  0  0  0  0
  194.2510  172.1780  145.4840 C   0  0  0  0  0  0  0  0  0  0  0  0
  195.3970  172.9720  145.5240 C   0  0  0  0  0  3  0  0  0  0  0  0
  194.2590  174.6940  144.2460 C   0  0  0  0  0  0  0  0  0  0  0  0
  196.5250  174.9880  144.9730 F   0  0  0  0  0  0  0  0  0  0  0  0
  195.4050  174.2270  144.9090 C   0  0  0  0  0  0  0  0  0  0  0  0
  193.1090  172.6330  144.8240 C   0  0  0  0  0  3  0  0  0  0  0  0
  194.2450  170.9660  146.0880 F   0  0  0  0  0  0  0  0  0  0  0  0
  194.2740  176.0640  143.6480 C   0  0  0  0  0  1  0  0  0  0  0  0
  193.1040  173.8820  144.1900 C   0  0  0  0  0  0  0  0  0  0  0  0
  183.5640  178.7740  143.6890 N   0  0  0  0  0  2  0  0  0  0  0  0
  182.5890  178.6660  142.6850 C   0  0  0  0  0  0  0  0  0  0  0  0
  181.7850  178.5760  141.8580 N   0  0  0  0  0  0  0  0  0  0  0  0
  1 16  1  0  0  0  0
  2 20  1  0  0  0  0
  2 19  2  0  0  0  0
  3  4  2  0  0  0  0
  3  8  1  0  0  0  0
  4 17  1  0  0  0  0
  5 19  1  0  0  0  0
  5 15  2  0  0  0  0
  6  9  1  0  0  0  0
  6 14  2  0  0  0  0
  7  1  2  0  0  0  0
  7 14  1  0  0  0  0
  8 10  1  0  0  0  0
  9  2  1  0  0  0  0
 10 18  1  0  0  0  0
 10  9  2  0  0  0  0
 11 29  1  0  0  0  0
 11 20  2  0  0  0  0
 13 15  1  0  0  0  0
 13 12  1  0  0  0  0
 14  5  1  0  0  0  0
 16 30  1  0  0  0  0
 16 13  2  0  0  0  0
 17 18  2  0  0  0  0
 18 11  1  0  0  0  0
 21 22  1  0  0  0  0
 21 27  1  0  0  0  0
 23 25  1  0  0  0  0
 25 24  1  0  0  0  0
 25 22  2  0  0  0  0
 26 21  2  0  0  0  0
 28 23  1  0  0  0  0
 29 23  2  0  0  0  0
 29 26  1  0  0  0  0
 31 30  1  0  0  0  0
 32 31  3  0  0  0  0
M  END
>  <MODEL>
9

>  <REMARK>
 VINA RESULT:      -7.0      2.489      3.999
  Name = 
  3 active torsions:
  status: ('A' for Active; 'I' for Inactive)
    1  A    between atoms: C_1  and  N_10
    2  A    between atoms: N_10  and  C_24
    3  A    between atoms: C_16  and  C_32
                            x       y       z     vdW  Elec       q    Type
                         _______ _______ _______ _____ _____    ______ ____

>  <TORSDO>
F 3

$$$$
