=
 OpenBabel11052420173D

 34 38  0  0  1  0  0  0  0  0999 V2000
  192.1630  173.5830  144.5040 C   0  0  2  0  0  3  0  0  0  0  0  0
  195.6780  174.5060  145.7670 C   0  0  0  0  0  2  0  0  0  0  0  0
  193.4580  175.4460  146.3000 C   0  0  0  0  0  2  0  0  0  0  0  0
  190.0180  173.9610  145.7610 C   0  0  0  0  0  3  0  0  0  0  0  0
  189.9090  175.4980  147.6300 C   0  0  0  0  0  3  0  0  0  0  0  0
  189.2820  174.5890  146.7710 C   0  0  0  0  0  3  0  0  0  0  0  0
  192.0070  175.1460  146.4750 C   0  0  0  0  0  0  0  0  0  0  0  0
  191.3810  174.2330  145.6120 C   0  0  0  0  0  0  0  0  0  0  0  0
  191.2700  175.7810  147.4790 C   0  0  0  0  0  3  0  0  0  0  0  0
  196.5860  173.3110  146.0240 C   0  0  0  0  0  2  0  0  0  0  0  0
  196.3640  172.2560  145.0340 N   0  0  0  0  0  0  0  0  0  0  0  0
  195.2540  171.4650  145.5620 C   0  0  0  0  0  2  0  0  0  0  0  0
  194.2200  174.1550  146.0260 C   0  0  1  0  0  3  0  0  0  0  0  0
  193.9300  171.8540  144.9030 C   0  0  0  0  0  2  0  0  0  0  0  0
  193.6590  173.3630  144.8180 C   0  0  1  0  0  3  0  0  0  0  0  0
  197.5590  171.4010  145.0070 C   0  0  0  0  0  3  0  0  0  0  0  0
  197.3290  170.1030  145.7670 C   0  0  0  0  0  1  0  0  0  0  0  0
  197.9410  171.0340  143.5810 C   0  0  0  0  0  1  0  0  0  0  0  0
  191.9820  174.3330  143.1870 C   0  0  0  0  0  2  0  0  0  0  0  0
  192.7770  175.4850  143.1600 O   0  0  0  0  0  0  0  0  0  0  0  0
  192.0670  176.3990  142.3780 C   0  0  0  0  0  2  0  0  0  0  0  0
  189.8730  177.9240  145.1540 C   0  0  0  0  0  2  0  0  0  0  0  0
  189.6910  176.3420  142.7900 N   0  0  0  0  0  0  0  0  0  0  0  0
  186.1170  177.4870  144.7500 C   0  0  0  0  0  0  0  0  0  0  0  0
  187.3590  177.9120  145.2470 C   0  0  0  0  0  3  0  0  0  0  0  0
  188.5370  177.5530  144.5860 C   0  0  0  0  0  0  0  0  0  0  0  0
  187.2450  176.3030  142.9570 C   0  0  0  0  0  3  0  0  0  0  0  0
  188.4800  176.7400  143.4420 C   0  0  0  0  0  0  0  0  0  0  0  0
  186.0670  176.6780  143.6090 C   0  0  0  0  0  3  0  0  0  0  0  0
  190.8440  176.8560  143.1000 C   0  0  0  0  0  0  0  0  0  0  0  0
  190.9350  178.0180  144.0550 C   0  0  0  0  0  2  0  0  0  0  0  0
  184.8400  177.8760  145.4210 C   0  0  1  0  0  3  0  0  0  0  0  0
  185.1120  178.6340  146.7080 C   0  0  0  0  0  1  0  0  0  0  0  0
  184.0560  178.6540  144.5640 O   0  0  0  0  0  1  0  0  0  0  0  0
  1 19  1  6  0  0  0
  1 15  1  0  0  0  0
  1  8  1  0  0  0  0
  2 10  1  0  0  0  0
  3  7  1  0  0  0  0
  4  6  1  0  0  0  0
  6  5  2  0  0  0  0
  7  9  2  0  0  0  0
  8  4  2  0  0  0  0
  8  7  1  0  0  0  0
  9  5  1  0  0  0  0
 11 12  1  0  0  0  0
 11 10  1  0  0  0  0
 13  2  1  6  0  0  0
 13  3  1  0  0  0  0
 14 12  1  0  0  0  0
 15 14  1  1  0  0  0
 15 13  1  0  0  0  0
 16 11  1  0  0  0  0
 16 17  1  0  0  0  0
 18 16  1  0  0  0  0
 20 19  1  0  0  0  0
 21 30  1  0  0  0  0
 21 20  1  0  0  0  0
 23 30  2  0  0  0  0
 23 28  1  0  0  0  0
 24 25  1  0  0  0  0
 24 32  1  0  0  0  0
 26 22  1  0  0  0  0
 26 25  2  0  0  0  0
 27 28  2  0  0  0  0
 27 29  1  0  0  0  0
 28 26  1  0  0  0  0
 29 24  2  0  0  0  0
 30 31  1  0  0  0  0
 31 22  1  0  0  0  0
 32 33  1  1  0  0  0
 34 32  1  0  0  0  0
M  END
>  <MODEL>
1

>  <REMARK>
 VINA RESULT:      -8.3      0.000      0.000
  Name = 
  6 active torsions:
  status: ('A' for Active; 'I' for Inactive)
    1  A    between atoms: C_1  and  C_9
    2  A    between atoms: C_3  and  N_25
    3  A    between atoms: C_7  and  C_11
    4  A    between atoms: O_8  and  C_9
    5  A    between atoms: O_8  and  C_18
    6  A    between atoms: C_18  and  C_30
                            x       y       z     vdW  Elec       q    Type
                         _______ _______ _______ _____ _____    ______ ____

>  <TORSDO>
F 6

$$$$
=
 OpenBabel11052420173D

 34 38  0  0  1  0  0  0  0  0999 V2000
  195.6840  174.6410  145.2990 C   0  0  2  0  0  3  0  0  0  0  0  0
  193.6720  171.4110  144.7280 C   0  0  0  0  0  2  0  0  0  0  0  0
  193.8050  173.4990  143.4180 C   0  0  0  0  0  2  0  0  0  0  0  0
  196.4190  176.2360  143.5000 C   0  0  0  0  0  3  0  0  0  0  0  0
  195.4050  176.2040  141.3000 C   0  0  0  0  0  3  0  0  0  0  0  0
  196.3230  176.7500  142.2030 C   0  0  0  0  0  3  0  0  0  0  0  0
  194.6830  174.6250  142.9860 C   0  0  0  0  0  0  0  0  0  0  0  0
  195.6040  175.1700  143.8940 C   0  0  0  0  0  0  0  0  0  0  0  0
  194.5810  175.1450  141.6930 C   0  0  0  0  0  3  0  0  0  0  0  0
  194.4310  170.1330  145.0580 C   0  0  0  0  0  2  0  0  0  0  0  0
  195.2960  170.3180  146.2250 N   0  0  0  0  0  0  0  0  0  0  0  0
  196.5430  170.8630  145.6910 C   0  0  0  0  0  2  0  0  0  0  0  0
  194.6150  172.4970  144.2310 C   0  0  1  0  0  3  0  0  0  0  0  0
  196.6060  172.3820  145.8640 C   0  0  0  0  0  2  0  0  0  0  0  0
  195.3410  173.1410  145.4400 C   0  0  1  0  0  3  0  0  0  0  0  0
  195.5840  168.9920  146.7900 C   0  0  0  0  0  3  0  0  0  0  0  0
  196.9160  168.9810  147.5260 C   0  0  0  0  0  1  0  0  0  0  0  0
  194.5100  168.5730  147.7830 C   0  0  0  0  0  1  0  0  0  0  0  0
  194.8500  175.4880  146.2560 C   0  0  0  0  0  2  0  0  0  0  0  0
  193.5100  175.0840  146.2370 O   0  0  0  0  0  0  0  0  0  0  0  0
  192.8190  176.0800  146.9300 C   0  0  0  0  0  2  0  0  0  0  0  0
  190.5590  177.7650  144.3040 C   0  0  0  0  0  2  0  0  0  0  0  0
  190.4280  176.3630  146.7820 N   0  0  0  0  0  0  0  0  0  0  0  0
  186.8120  177.4300  144.8560 C   0  0  0  0  0  0  0  0  0  0  0  0
  188.0440  177.7380  144.2600 C   0  0  0  0  0  3  0  0  0  0  0  0
  189.2370  177.3650  144.8840 C   0  0  0  0  0  0  0  0  0  0  0  0
  187.9770  176.4170  146.7290 C   0  0  0  0  0  3  0  0  0  0  0  0
  189.2030  176.7090  146.1260 C   0  0  0  0  0  0  0  0  0  0  0  0
  186.7850  176.7740  146.0940 C   0  0  0  0  0  3  0  0  0  0  0  0
  191.5810  176.4610  146.1900 C   0  0  0  0  0  0  0  0  0  0  0  0
  191.6650  176.7930  144.7220 C   0  0  0  0  0  2  0  0  0  0  0  0
  185.5190  177.7930  144.1990 C   0  0  1  0  0  3  0  0  0  0  0  0
  185.4310  179.2910  143.9680 C   0  0  0  0  0  1  0  0  0  0  0  0
  185.3800  177.1120  142.9860 O   0  0  0  0  0  1  0  0  0  0  0  0
  1 15  1  0  0  0  0
  1 19  1  1  0  0  0
  2 10  1  0  0  0  0
  4  8  1  0  0  0  0
  5  9  2  0  0  0  0
  5  6  1  0  0  0  0
  6  4  2  0  0  0  0
  7  3  1  0  0  0  0
  7  8  2  0  0  0  0
  8  1  1  0  0  0  0
  9  7  1  0  0  0  0
 10 11  1  0  0  0  0
 11 16  1  0  0  0  0
 12 14  1  0  0  0  0
 12 11  1  0  0  0  0
 13  3  1  1  0  0  0
 13  2  1  0  0  0  0
 13 15  1  0  0  0  0
 15 14  1  6  0  0  0
 16 17  1  0  0  0  0
 16 18  1  0  0  0  0
 20 19  1  0  0  0  0
 20 21  1  0  0  0  0
 22 31  1  0  0  0  0
 22 26  1  0  0  0  0
 24 29  1  0  0  0  0
 25 24  2  0  0  0  0
 25 26  1  0  0  0  0
 26 28  2  0  0  0  0
 28 27  1  0  0  0  0
 28 23  1  0  0  0  0
 29 27  2  0  0  0  0
 30 23  2  0  0  0  0
 30 21  1  0  0  0  0
 31 30  1  0  0  0  0
 32 33  1  6  0  0  0
 32 24  1  0  0  0  0
 34 32  1  0  0  0  0
M  END
>  <MODEL>
2

>  <REMARK>
 VINA RESULT:      -7.8      2.141      4.016
  Name = 
  6 active torsions:
  status: ('A' for Active; 'I' for Inactive)
    1  A    between atoms: C_1  and  C_9
    2  A    between atoms: C_3  and  N_25
    3  A    between atoms: C_7  and  C_11
    4  A    between atoms: O_8  and  C_9
    5  A    between atoms: O_8  and  C_18
    6  A    between atoms: C_18  and  C_30
                            x       y       z     vdW  Elec       q    Type
                         _______ _______ _______ _____ _____    ______ ____

>  <TORSDO>
F 6

$$$$
=
 OpenBabel11052420173D

 34 38  0  0  1  0  0  0  0  0999 V2000
  193.5450  174.4750  145.6980 C   0  0  2  0  0  3  0  0  0  0  0  0
  192.1210  175.5490  142.2890 C   0  0  0  0  0  2  0  0  0  0  0  0
  194.4100  175.6680  143.2070 C   0  0  0  0  0  2  0  0  0  0  0  0
  195.9320  173.8150  146.1370 C   0  0  0  0  0  3  0  0  0  0  0  0
  197.6990  174.3800  144.5790 C   0  0  0  0  0  3  0  0  0  0  0  0
  197.2830  173.7910  145.7780 C   0  0  0  0  0  3  0  0  0  0  0  0
  195.4130  175.0100  144.0930 C   0  0  0  0  0  0  0  0  0  0  0  0
  194.9930  174.4200  145.2950 C   0  0  0  0  0  0  0  0  0  0  0  0
  196.7660  174.9940  143.7390 C   0  0  0  0  0  3  0  0  0  0  0  0
  191.0930  174.5890  141.7080 C   0  0  0  0  0  2  0  0  0  0  0  0
  190.2510  174.0160  142.7600 N   0  0  0  0  0  0  0  0  0  0  0  0
  190.9910  172.8520  143.2480 C   0  0  0  0  0  2  0  0  0  0  0  0
  193.1540  174.8090  143.1270 C   0  0  1  0  0  3  0  0  0  0  0  0
  191.7470  173.1740  144.5380 C   0  0  0  0  0  2  0  0  0  0  0  0
  192.5500  174.4830  144.5170 C   0  0  1  0  0  3  0  0  0  0  0  0
  189.0100  173.5360  142.1370 C   0  0  0  0  0  3  0  0  0  0  0  0
  188.5480  172.2260  142.7570 C   0  0  0  0  0  1  0  0  0  0  0  0
  187.8830  174.5450  142.3090 C   0  0  0  0  0  1  0  0  0  0  0  0
  193.2810  175.6410  146.6470 C   0  0  0  0  0  2  0  0  0  0  0  0
  192.4040  176.5640  146.0650 O   0  0  0  0  0  0  0  0  0  0  0  0
  191.2960  176.5990  146.9160 C   0  0  0  0  0  2  0  0  0  0  0  0
  187.5610  176.9400  146.0370 C   0  0  0  0  0  2  0  0  0  0  0  0
  190.1520  177.1690  144.8710 N   0  0  0  0  0  0  0  0  0  0  0  0
  186.7720  178.1810  142.5300 C   0  0  0  0  0  0  0  0  0  0  0  0
  186.6080  177.7730  143.8620 C   0  0  0  0  0  3  0  0  0  0  0  0
  187.7260  177.4620  144.6420 C   0  0  0  0  0  0  0  0  0  0  0  0
  189.1750  177.9160  142.7490 C   0  0  0  0  0  3  0  0  0  0  0  0
  189.0120  177.5270  144.0810 C   0  0  0  0  0  0  0  0  0  0  0  0
  188.0570  178.2450  141.9770 C   0  0  0  0  0  3  0  0  0  0  0  0
  190.0690  176.9640  146.1510 C   0  0  0  0  0  0  0  0  0  0  0  0
  188.7900  177.2540  146.8940 C   0  0  0  0  0  2  0  0  0  0  0  0
  185.5970  178.5450  141.6800 C   0  0  1  0  0  3  0  0  0  0  0  0
  185.7080  177.9150  140.3040 C   0  0  0  0  0  1  0  0  0  0  0  0
  184.4080  178.1460  142.2960 O   0  0  0  0  0  1  0  0  0  0  0  0
  1 19  1  6  0  0  0
  3  7  1  0  0  0  0
  5  6  2  0  0  0  0
  6  4  1  0  0  0  0
  7  8  1  0  0  0  0
  8  1  1  0  0  0  0
  8  4  2  0  0  0  0
  9  7  2  0  0  0  0
  9  5  1  0  0  0  0
 10  2  1  0  0  0  0
 10 11  1  0  0  0  0
 11 12  1  0  0  0  0
 12 14  1  0  0  0  0
 13  2  1  6  0  0  0
 13  3  1  0  0  0  0
 13 15  1  0  0  0  0
 15 14  1  6  0  0  0
 15  1  1  0  0  0  0
 16 18  1  0  0  0  0
 16 17  1  0  0  0  0
 16 11  1  0  0  0  0
 20 19  1  0  0  0  0
 20 21  1  0  0  0  0
 22 31  1  0  0  0  0
 23 30  2  0  0  0  0
 24 25  1  0  0  0  0
 25 26  2  0  0  0  0
 26 22  1  0  0  0  0
 27 28  2  0  0  0  0
 28 26  1  0  0  0  0
 28 23  1  0  0  0  0
 29 24  2  0  0  0  0
 29 27  1  0  0  0  0
 30 31  1  0  0  0  0
 30 21  1  0  0  0  0
 32 33  1  6  0  0  0
 32 34  1  0  0  0  0
 32 24  1  0  0  0  0
M  END
>  <MODEL>
3

>  <REMARK>
 VINA RESULT:      -7.7      2.251      5.117
  Name = 
  6 active torsions:
  status: ('A' for Active; 'I' for Inactive)
    1  A    between atoms: C_1  and  C_9
    2  A    between atoms: C_3  and  N_25
    3  A    between atoms: C_7  and  C_11
    4  A    between atoms: O_8  and  C_9
    5  A    between atoms: O_8  and  C_18
    6  A    between atoms: C_18  and  C_30
                            x       y       z     vdW  Elec       q    Type
                         _______ _______ _______ _____ _____    ______ ____

>  <TORSDO>
F 6

$$$$
=
 OpenBabel11052420173D

 34 38  0  0  1  0  0  0  0  0999 V2000
  188.3310  176.6620  143.6170 C   0  0  2  0  0  3  0  0  0  0  0  0
  190.4530  173.9150  145.2760 C   0  0  0  0  0  2  0  0  0  0  0  0
  188.9410  175.6100  146.2430 C   0  0  0  0  0  2  0  0  0  0  0  0
  186.2270  177.6530  144.5730 C   0  0  0  0  0  3  0  0  0  0  0  0
  185.6700  177.4020  146.9170 C   0  0  0  0  0  3  0  0  0  0  0  0
  185.3660  177.9020  145.6460 C   0  0  0  0  0  3  0  0  0  0  0  0
  187.6920  176.3990  146.0410 C   0  0  0  0  0  0  0  0  0  0  0  0
  187.3890  176.8990  144.7650 C   0  0  0  0  0  0  0  0  0  0  0  0
  186.8360  176.6550  147.1160 C   0  0  0  0  0  3  0  0  0  0  0  0
  190.4730  172.5940  144.5190 C   0  0  0  0  0  2  0  0  0  0  0  0
  190.4750  172.8150  143.0720 N   0  0  0  0  0  0  0  0  0  0  0  0
  189.0660  172.9490  142.7050 C   0  0  0  0  0  2  0  0  0  0  0  0
  189.1290  174.6390  145.0830 C   0  0  1  0  0  3  0  0  0  0  0  0
  188.6660  174.4180  142.5580 C   0  0  0  0  0  2  0  0  0  0  0  0
  189.1220  175.3380  143.6990 C   0  0  1  0  0  3  0  0  0  0  0  0
  190.9990  171.6020  142.4290 C   0  0  0  0  0  3  0  0  0  0  0  0
  191.6930  171.9270  141.1140 C   0  0  0  0  0  1  0  0  0  0  0  0
  192.0150  170.9030  143.3200 C   0  0  0  0  0  1  0  0  0  0  0  0
  189.2680  177.8500  143.4180 C   0  0  0  0  0  2  0  0  0  0  0  0
  190.4770  177.4370  142.8450 O   0  0  0  0  0  0  0  0  0  0  0  0
  191.4710  178.0160  143.6380 C   0  0  0  0  0  2  0  0  0  0  0  0
  193.7950  176.2340  146.1410 C   0  0  0  0  0  2  0  0  0  0  0  0
  192.8910  176.0760  143.4430 N   0  0  0  0  0  0  0  0  0  0  0  0
  195.4260  173.0230  144.9200 C   0  0  0  0  0  0  0  0  0  0  0  0
  195.0200  174.0690  145.7630 C   0  0  0  0  0  3  0  0  0  0  0  0
  194.1640  175.0640  145.2810 C   0  0  0  0  0  0  0  0  0  0  0  0
  194.1530  174.0010  143.1000 C   0  0  0  0  0  3  0  0  0  0  0  0
  193.7360  175.0330  143.9440 C   0  0  0  0  0  0  0  0  0  0  0  0
  194.9940  172.9970  143.5880 C   0  0  0  0  0  3  0  0  0  0  0  0
  192.3450  176.9580  144.2250 C   0  0  0  0  0  0  0  0  0  0  0  0
  192.4470  176.8250  145.7230 C   0  0  0  0  0  2  0  0  0  0  0  0
  196.3190  171.9310  145.4140 C   0  0  1  0  0  3  0  0  0  0  0  0
  195.5110  170.7160  145.8320 C   0  0  0  0  0  1  0  0  0  0  0  0
  197.2450  171.5750  144.4290 O   0  0  0  0  0  1  0  0  0  0  0  0
  1 19  1  1  0  0  0
  1 15  1  0  0  0  0
  1  8  1  0  0  0  0
  4  8  2  0  0  0  0
  4  6  1  0  0  0  0
  5  9  1  0  0  0  0
  6  5  2  0  0  0  0
  7  3  1  0  0  0  0
  7  9  2  0  0  0  0
  8  7  1  0  0  0  0
 10  2  1  0  0  0  0
 11 10  1  0  0  0  0
 12 11  1  0  0  0  0
 13  2  1  1  0  0  0
 13  3  1  0  0  0  0
 14 12  1  0  0  0  0
 15 14  1  6  0  0  0
 15 13  1  0  0  0  0
 16 11  1  0  0  0  0
 16 18  1  0  0  0  0
 17 16  1  0  0  0  0
 20 19  1  0  0  0  0
 20 21  1  0  0  0  0
 21 30  1  0  0  0  0
 23 28  1  0  0  0  0
 23 30  2  0  0  0  0
 24 32  1  0  0  0  0
 24 25  1  0  0  0  0
 26 25  2  0  0  0  0
 26 22  1  0  0  0  0
 27 29  1  0  0  0  0
 27 28  2  0  0  0  0
 28 26  1  0  0  0  0
 29 24  2  0  0  0  0
 30 31  1  0  0  0  0
 31 22  1  0  0  0  0
 32 33  1  6  0  0  0
 34 32  1  0  0  0  0
M  END
>  <MODEL>
4

>  <REMARK>
 VINA RESULT:      -7.6      2.176      6.883
  Name = 
  6 active torsions:
  status: ('A' for Active; 'I' for Inactive)
    1  A    between atoms: C_1  and  C_9
    2  A    between atoms: C_3  and  N_25
    3  A    between atoms: C_7  and  C_11
    4  A    between atoms: O_8  and  C_9
    5  A    between atoms: O_8  and  C_18
    6  A    between atoms: C_18  and  C_30
                            x       y       z     vdW  Elec       q    Type
                         _______ _______ _______ _____ _____    ______ ____

>  <TORSDO>
F 6

$$$$
=
 OpenBabel11052420173D

 34 38  0  0  1  0  0  0  0  0999 V2000
  193.4070  173.5460  145.4080 C   0  0  2  0  0  3  0  0  0  0  0  0
  192.0810  174.8310  142.0320 C   0  0  0  0  0  2  0  0  0  0  0  0
  194.3820  174.4030  142.8210 C   0  0  0  0  0  2  0  0  0  0  0  0
  195.5790  172.3250  145.7500 C   0  0  0  0  0  3  0  0  0  0  0  0
  197.3290  172.3790  144.0760 C   0  0  0  0  0  3  0  0  0  0  0  0
  196.8570  171.9520  145.3220 C   0  0  0  0  0  3  0  0  0  0  0  0
  195.2450  173.5440  143.6820 C   0  0  0  0  0  0  0  0  0  0  0  0
  194.7680  173.1170  144.9310 C   0  0  0  0  0  0  0  0  0  0  0  0
  196.5260  173.1790  143.2580 C   0  0  0  0  0  3  0  0  0  0  0  0
  190.8130  174.1390  141.5520 C   0  0  0  0  0  2  0  0  0  0  0  0
  189.9240  173.8290  142.6730 N   0  0  0  0  0  0  0  0  0  0  0  0
  190.3810  172.5350  143.1760 C   0  0  0  0  0  2  0  0  0  0  0  0
  192.9490  173.8830  142.8470 C   0  0  1  0  0  3  0  0  0  0  0  0
  191.2730  172.6990  144.4070 C   0  0  0  0  0  2  0  0  0  0  0  0
  192.3730  173.7640  144.2820 C   0  0  1  0  0  3  0  0  0  0  0  0
  188.5650  173.6550  142.1400 C   0  0  0  0  0  3  0  0  0  0  0  0
  187.8330  174.9860  142.0440 C   0  0  0  0  0  1  0  0  0  0  0  0
  188.5960  173.0500  140.7440 C   0  0  0  0  0  1  0  0  0  0  0  0
  193.5010  174.7720  146.3130 C   0  0  0  0  0  2  0  0  0  0  0  0
  192.3060  174.9590  147.0180 O   0  0  0  0  0  0  0  0  0  0  0  0
  192.1040  176.3410  147.0310 C   0  0  0  0  0  2  0  0  0  0  0  0
  189.8490  177.9160  144.3340 C   0  0  0  0  0  2  0  0  0  0  0  0
  189.7140  176.6140  146.8660 N   0  0  0  0  0  0  0  0  0  0  0  0
  186.1010  177.5980  144.8890 C   0  0  0  0  0  0  0  0  0  0  0  0
  187.3340  177.8840  144.2840 C   0  0  0  0  0  3  0  0  0  0  0  0
  188.5260  177.5380  144.9260 C   0  0  0  0  0  0  0  0  0  0  0  0
  187.2630  176.6630  146.8040 C   0  0  0  0  0  3  0  0  0  0  0  0
  188.4900  176.9320  146.1930 C   0  0  0  0  0  0  0  0  0  0  0  0
  186.0710  176.9930  146.1520 C   0  0  0  0  0  3  0  0  0  0  0  0
  190.8680  176.6900  146.2730 C   0  0  0  0  0  0  0  0  0  0  0  0
  190.9550  176.9630  144.7940 C   0  0  0  0  0  2  0  0  0  0  0  0
  184.8100  177.9340  144.2150 C   0  0  1  0  0  3  0  0  0  0  0  0
  184.4710  179.4030  144.3920 C   0  0  0  0  0  1  0  0  0  0  0  0
  184.8740  177.6170  142.8550 O   0  0  0  0  0  1  0  0  0  0  0  0
  1 19  1  6  0  0  0
  3 13  1  0  0  0  0
  3  7  1  0  0  0  0
  5  6  2  0  0  0  0
  6  4  1  0  0  0  0
  7  8  1  0  0  0  0
  8  1  1  0  0  0  0
  8  4  2  0  0  0  0
  9  7  2  0  0  0  0
  9  5  1  0  0  0  0
 10  2  1  0  0  0  0
 10 11  1  0  0  0  0
 11 12  1  0  0  0  0
 12 14  1  0  0  0  0
 13  2  1  6  0  0  0
 13 15  1  0  0  0  0
 15 14  1  6  0  0  0
 15  1  1  0  0  0  0
 16 11  1  0  0  0  0
 17 16  1  0  0  0  0
 18 16  1  0  0  0  0
 19 20  1  0  0  0  0
 20 21  1  0  0  0  0
 22 31  1  0  0  0  0
 22 26  1  0  0  0  0
 24 29  1  0  0  0  0
 25 24  2  0  0  0  0
 25 26  1  0  0  0  0
 26 28  2  0  0  0  0
 28 27  1  0  0  0  0
 28 23  1  0  0  0  0
 29 27  2  0  0  0  0
 30 23  2  0  0  0  0
 30 21  1  0  0  0  0
 31 30  1  0  0  0  0
 32 33  1  6  0  0  0
 32 24  1  0  0  0  0
 34 32  1  0  0  0  0
M  END
>  <MODEL>
5

>  <REMARK>
 VINA RESULT:      -7.6      2.020      5.161
  Name = 
  6 active torsions:
  status: ('A' for Active; 'I' for Inactive)
    1  A    between atoms: C_1  and  C_9
    2  A    between atoms: C_3  and  N_25
    3  A    between atoms: C_7  and  C_11
    4  A    between atoms: O_8  and  C_9
    5  A    between atoms: O_8  and  C_18
    6  A    between atoms: C_18  and  C_30
                            x       y       z     vdW  Elec       q    Type
                         _______ _______ _______ _____ _____    ______ ____

>  <TORSDO>
F 6

$$$$
=
 OpenBabel11052420173D

 34 38  0  0  1  0  0  0  0  0999 V2000
  194.4670  173.5820  145.3970 C   0  0  2  0  0  3  0  0  0  0  0  0
  192.8330  174.3850  142.0070 C   0  0  0  0  0  2  0  0  0  0  0  0
  195.0750  173.5150  142.5680 C   0  0  0  0  0  2  0  0  0  0  0  0
  196.3070  171.9080  145.7670 C   0  0  0  0  0  3  0  0  0  0  0  0
  197.6440  171.0810  143.9240 C   0  0  0  0  0  3  0  0  0  0  0  0
  197.3450  171.1010  145.2900 C   0  0  0  0  0  3  0  0  0  0  0  0
  195.8630  172.6670  143.5080 C   0  0  0  0  0  0  0  0  0  0  0  0
  195.5610  172.6890  144.8780 C   0  0  0  0  0  0  0  0  0  0  0  0
  196.9070  171.8670  143.0330 C   0  0  0  0  0  3  0  0  0  0  0  0
  191.3660  173.9900  141.9090 C   0  0  0  0  0  2  0  0  0  0  0  0
  190.6740  174.2090  143.1810 N   0  0  0  0  0  0  0  0  0  0  0  0
  190.9010  172.9880  143.9530 C   0  0  0  0  0  2  0  0  0  0  0  0
  193.5950  173.4420  142.9280 C   0  0  1  0  0  3  0  0  0  0  0  0
  192.0360  173.1690  144.9610 C   0  0  0  0  0  2  0  0  0  0  0  0
  193.3090  173.8210  144.4030 C   0  0  1  0  0  3  0  0  0  0  0  0
  189.2340  174.3100  142.9020 C   0  0  0  0  0  3  0  0  0  0  0  0
  188.9540  175.3150  141.7950 C   0  0  0  0  0  1  0  0  0  0  0  0
  188.6660  172.9700  142.4580 C   0  0  0  0  0  1  0  0  0  0  0  0
  195.0320  174.9040  145.9110 C   0  0  0  0  0  2  0  0  0  0  0  0
  194.2810  175.9840  145.4300 O   0  0  0  0  0  0  0  0  0  0  0  0
  193.7490  176.5910  146.5700 C   0  0  0  0  0  2  0  0  0  0  0  0
  190.2190  175.2510  147.3340 C   0  0  0  0  0  2  0  0  0  0  0  0
  191.5880  177.0530  145.6020 N   0  0  0  0  0  0  0  0  0  0  0  0
  187.3650  176.8430  145.3910 C   0  0  0  0  0  0  0  0  0  0  0  0
  188.0620  176.0590  146.3220 C   0  0  0  0  0  3  0  0  0  0  0  0
  189.4540  176.1460  146.4080 C   0  0  0  0  0  0  0  0  0  0  0  0
  189.4660  177.7640  144.5990 C   0  0  0  0  0  3  0  0  0  0  0  0
  190.1590  176.9950  145.5380 C   0  0  0  0  0  0  0  0  0  0  0  0
  188.0720  177.6890  144.5280 C   0  0  0  0  0  3  0  0  0  0  0  0
  192.2600  176.4900  146.5610 C   0  0  0  0  0  0  0  0  0  0  0  0
  191.5500  175.8850  147.7450 C   0  0  0  0  0  2  0  0  0  0  0  0
  185.8740  176.7900  145.2940 C   0  0  1  0  0  3  0  0  0  0  0  0
  185.2290  177.4820  146.4810 C   0  0  0  0  0  1  0  0  0  0  0  0
  185.4410  177.3800  144.1030 O   0  0  0  0  0  1  0  0  0  0  0  0
  1 19  1  6  0  0  0
  3 13  1  0  0  0  0
  3  7  1  0  0  0  0
  5  6  2  0  0  0  0
  6  4  1  0  0  0  0
  7  8  1  0  0  0  0
  8  1  1  0  0  0  0
  8  4  2  0  0  0  0
  9  7  2  0  0  0  0
  9  5  1  0  0  0  0
 10  2  1  0  0  0  0
 10 11  1  0  0  0  0
 11 12  1  0  0  0  0
 12 14  1  0  0  0  0
 13  2  1  6  0  0  0
 13 15  1  0  0  0  0
 15 14  1  1  0  0  0
 15  1  1  0  0  0  0
 16 11  1  0  0  0  0
 17 16  1  0  0  0  0
 18 16  1  0  0  0  0
 20 19  1  0  0  0  0
 20 21  1  0  0  0  0
 22 31  1  0  0  0  0
 23 30  2  0  0  0  0
 24 25  1  0  0  0  0
 25 26  2  0  0  0  0
 26 22  1  0  0  0  0
 27 28  2  0  0  0  0
 28 23  1  0  0  0  0
 28 26  1  0  0  0  0
 29 27  1  0  0  0  0
 29 24  2  0  0  0  0
 30 21  1  0  0  0  0
 30 31  1  0  0  0  0
 32 24  1  0  0  0  0
 32 33  1  1  0  0  0
 34 32  1  0  0  0  0
M  END
>  <MODEL>
6

>  <REMARK>
 VINA RESULT:      -7.6      1.791      5.254
  Name = 
  6 active torsions:
  status: ('A' for Active; 'I' for Inactive)
    1  A    between atoms: C_1  and  C_9
    2  A    between atoms: C_3  and  N_25
    3  A    between atoms: C_7  and  C_11
    4  A    between atoms: O_8  and  C_9
    5  A    between atoms: O_8  and  C_18
    6  A    between atoms: C_18  and  C_30
                            x       y       z     vdW  Elec       q    Type
                         _______ _______ _______ _____ _____    ______ ____

>  <TORSDO>
F 6

$$$$
=
 OpenBabel11052420173D

 34 38  0  0  1  0  0  0  0  0999 V2000
  189.3380  175.7720  145.1780 C   0  0  2  0  0  3  0  0  0  0  0  0
  186.9750  177.3290  142.5710 C   0  0  0  0  0  2  0  0  0  0  0  0
  188.5320  175.4190  142.4200 C   0  0  0  0  0  2  0  0  0  0  0  0
  190.1270  173.3840  145.1850 C   0  0  0  0  0  3  0  0  0  0  0  0
  189.9560  171.9970  143.2070 C   0  0  0  0  0  3  0  0  0  0  0  0
  190.3360  172.1590  144.5430 C   0  0  0  0  0  3  0  0  0  0  0  0
  189.1520  174.2790  143.1550 C   0  0  0  0  0  0  0  0  0  0  0  0
  189.5310  174.4450  144.4960 C   0  0  0  0  0  0  0  0  0  0  0  0
  189.3690  173.0580  142.5100 C   0  0  0  0  0  3  0  0  0  0  0  0
  185.6210  177.7530  143.1260 C   0  0  0  0  0  2  0  0  0  0  0  0
  185.7510  178.2890  144.4820 N   0  0  0  0  0  0  0  0  0  0  0  0
  185.6910  177.1230  145.3610 C   0  0  0  0  0  2  0  0  0  0  0  0
  187.5210  176.1220  143.3190 C   0  0  1  0  0  3  0  0  0  0  0  0
  187.0890  176.6820  145.7970 C   0  0  0  0  0  2  0  0  0  0  0  0
  188.1260  176.5840  144.6690 C   0  0  1  0  0  3  0  0  0  0  0  0
  184.5720  179.1240  144.7530 C   0  0  0  0  0  3  0  0  0  0  0  0
  183.5330  178.9920  143.6490 C   0  0  0  0  0  1  0  0  0  0  0  0
  183.9030  178.7220  146.0600 C   0  0  0  0  0  1  0  0  0  0  0  0
  190.6160  176.6050  145.1330 C   0  0  0  0  0  2  0  0  0  0  0  0
  190.4410  177.7380  144.3280 O   0  0  0  0  0  0  0  0  0  0  0  0
  191.7040  178.0030  143.7940 C   0  0  0  0  0  2  0  0  0  0  0  0
  192.8190  174.4170  142.9330 C   0  0  0  0  0  2  0  0  0  0  0  0
  193.3560  176.5360  144.7620 N   0  0  0  0  0  0  0  0  0  0  0  0
  195.7590  173.0530  144.9220 C   0  0  0  0  0  0  0  0  0  0  0  0
  194.7420  173.1620  143.9620 C   0  0  0  0  0  3  0  0  0  0  0  0
  193.9650  174.3220  143.8940 C   0  0  0  0  0  0  0  0  0  0  0  0
  195.1820  175.2500  145.7760 C   0  0  0  0  0  3  0  0  0  0  0  0
  194.1800  175.3660  144.8090 C   0  0  0  0  0  0  0  0  0  0  0  0
  195.9700  174.0980  145.8310 C   0  0  0  0  0  3  0  0  0  0  0  0
  192.5310  176.7610  143.7840 C   0  0  0  0  0  0  0  0  0  0  0  0
  192.5220  175.8730  142.5660 C   0  0  0  0  0  2  0  0  0  0  0  0
  196.6230  171.8360  145.0020 C   0  0  1  0  0  3  0  0  0  0  0  0
  197.9410  172.0590  144.2830 C   0  0  0  0  0  1  0  0  0  0  0  0
  196.8570  171.4910  146.3360 O   0  0  0  0  0  1  0  0  0  0  0  0
  1 19  1  6  0  0  0
  2 10  1  0  0  0  0
  2 13  1  0  0  0  0
  3  7  1  0  0  0  0
  5  6  2  0  0  0  0
  6  4  1  0  0  0  0
  7  8  1  0  0  0  0
  8  1  1  0  0  0  0
  8  4  2  0  0  0  0
  9  7  2  0  0  0  0
  9  5  1  0  0  0  0
 10 11  1  0  0  0  0
 11 16  1  0  0  0  0
 11 12  1  0  0  0  0
 12 14  1  0  0  0  0
 13  3  1  6  0  0  0
 13 15  1  0  0  0  0
 15  1  1  0  0  0  0
 15 14  1  1  0  0  0
 16 18  1  0  0  0  0
 17 16  1  0  0  0  0
 20 19  1  0  0  0  0
 21 20  1  0  0  0  0
 22 26  1  0  0  0  0
 23 28  1  0  0  0  0
 24 32  1  0  0  0  0
 24 29  1  0  0  0  0
 25 24  2  0  0  0  0
 26 25  1  0  0  0  0
 26 28  2  0  0  0  0
 27 29  2  0  0  0  0
 28 27  1  0  0  0  0
 30 21  1  0  0  0  0
 30 23  2  0  0  0  0
 31 22  1  0  0  0  0
 31 30  1  0  0  0  0
 32 33  1  1  0  0  0
 32 34  1  0  0  0  0
M  END
>  <MODEL>
7

>  <REMARK>
 VINA RESULT:      -7.5      2.224      8.986
  Name = 
  6 active torsions:
  status: ('A' for Active; 'I' for Inactive)
    1  A    between atoms: C_1  and  C_9
    2  A    between atoms: C_3  and  N_25
    3  A    between atoms: C_7  and  C_11
    4  A    between atoms: O_8  and  C_9
    5  A    between atoms: O_8  and  C_18
    6  A    between atoms: C_18  and  C_30
                            x       y       z     vdW  Elec       q    Type
                         _______ _______ _______ _____ _____    ______ ____

>  <TORSDO>
F 6

$$$$
=
 OpenBabel11052420173D

 34 38  0  0  1  0  0  0  0  0999 V2000
  191.4870  177.0180  144.3460 C   0  0  2  0  0  3  0  0  0  0  0  0
  189.1910  174.6250  146.2970 C   0  0  0  0  0  2  0  0  0  0  0  0
  191.5710  174.4420  145.6630 C   0  0  0  0  0  2  0  0  0  0  0  0
  193.9890  177.1420  144.5700 C   0  0  0  0  0  3  0  0  0  0  0  0
  195.2510  175.3450  145.5920 C   0  0  0  0  0  3  0  0  0  0  0  0
  195.2130  176.5960  144.9670 C   0  0  0  0  0  3  0  0  0  0  0  0
  192.8410  175.1900  145.4310 C   0  0  0  0  0  0  0  0  0  0  0  0
  192.8000  176.4440  144.8050 C   0  0  0  0  0  0  0  0  0  0  0  0
  194.0650  174.6390  145.8200 C   0  0  0  0  0  3  0  0  0  0  0  0
  188.2410  175.3170  147.2640 C   0  0  0  0  0  2  0  0  0  0  0  0
  187.7600  176.5860  146.7150 N   0  0  0  0  0  0  0  0  0  0  0  0
  188.7750  177.5700  147.0850 C   0  0  0  0  0  2  0  0  0  0  0  0
  190.4930  175.4010  146.1550 C   0  0  1  0  0  3  0  0  0  0  0  0
  189.7280  177.8510  145.9220 C   0  0  0  0  0  2  0  0  0  0  0  0
  190.2720  176.6060  145.2060 C   0  0  1  0  0  3  0  0  0  0  0  0
  186.5130  176.9360  147.4100 C   0  0  0  0  0  3  0  0  0  0  0  0
  186.5250  178.3850  147.8730 C   0  0  0  0  0  1  0  0  0  0  0  0
  185.3070  176.7590  146.4980 C   0  0  0  0  0  1  0  0  0  0  0  0
  191.2410  176.7210  142.8690 C   0  0  0  0  0  2  0  0  0  0  0  0
  189.8730  176.5620  142.6170 O   0  0  0  0  0  0  0  0  0  0  0  0
  189.3990  177.8510  142.3610 C   0  0  0  0  0  2  0  0  0  0  0  0
  186.2850  177.6700  140.1000 C   0  0  0  0  0  2  0  0  0  0  0  0
  187.0590  178.2590  142.7790 N   0  0  0  0  0  0  0  0  0  0  0  0
  182.9370  178.2400  141.8110 C   0  0  0  0  0  0  0  0  0  0  0  0
  183.8910  177.9290  140.8300 C   0  0  0  0  0  3  0  0  0  0  0  0
  185.2500  177.9120  141.1560 C   0  0  0  0  0  0  0  0  0  0  0  0
  184.7150  178.5640  143.4310 C   0  0  0  0  0  3  0  0  0  0  0  0
  185.6630  178.2380  142.4590 C   0  0  0  0  0  0  0  0  0  0  0  0
  183.3550  178.5620  143.1080 C   0  0  0  0  0  3  0  0  0  0  0  0
  187.9620  177.8040  141.9630 C   0  0  0  0  0  0  0  0  0  0  0  0
  187.5640  177.0820  140.7020 C   0  0  0  0  0  2  0  0  0  0  0  0
  181.4760  178.2400  141.4980 C   0  0  1  0  0  3  0  0  0  0  0  0
  180.8000  179.4740  142.0670 C   0  0  0  0  0  1  0  0  0  0  0  0
  181.2730  178.1770  140.1160 O   0  0  0  0  0  1  0  0  0  0  0  0
  1 19  1  6  0  0  0
  1  8  1  0  0  0  0
  1 15  1  0  0  0  0
  2 10  1  0  0  0  0
  4  8  2  0  0  0  0
  4  6  1  0  0  0  0
  5  9  1  0  0  0  0
  6  5  2  0  0  0  0
  7  3  1  0  0  0  0
  7  9  2  0  0  0  0
  8  7  1  0  0  0  0
 11 12  1  0  0  0  0
 11 10  1  0  0  0  0
 11 16  1  0  0  0  0
 13  3  1  6  0  0  0
 13  2  1  0  0  0  0
 14 12  1  0  0  0  0
 15 14  1  1  0  0  0
 15 13  1  0  0  0  0
 16 17  1  0  0  0  0
 18 16  1  0  0  0  0
 20 19  1  0  0  0  0
 21 20  1  0  0  0  0
 22 31  1  0  0  0  0
 22 26  1  0  0  0  0
 24 29  1  0  0  0  0
 25 26  1  0  0  0  0
 25 24  2  0  0  0  0
 26 28  2  0  0  0  0
 28 23  1  0  0  0  0
 28 27  1  0  0  0  0
 29 27  2  0  0  0  0
 30 21  1  0  0  0  0
 30 23  2  0  0  0  0
 31 30  1  0  0  0  0
 32 24  1  0  0  0  0
 32 33  1  6  0  0  0
 34 32  1  0  0  0  0
M  END
>  <MODEL>
8

>  <REMARK>
 VINA RESULT:      -7.4      3.009      6.391
  Name = 
  6 active torsions:
  status: ('A' for Active; 'I' for Inactive)
    1  A    between atoms: C_1  and  C_9
    2  A    between atoms: C_3  and  N_25
    3  A    between atoms: C_7  and  C_11
    4  A    between atoms: O_8  and  C_9
    5  A    between atoms: O_8  and  C_18
    6  A    between atoms: C_18  and  C_30
                            x       y       z     vdW  Elec       q    Type
                         _______ _______ _______ _____ _____    ______ ____

>  <TORSDO>
F 6

$$$$
=
 OpenBabel11052420173D

 34 38  0  0  1  0  0  0  0  0999 V2000
  188.2720  175.4890  143.2000 C   0  0  2  0  0  3  0  0  0  0  0  0
  191.4960  177.5820  143.0330 C   0  0  0  0  0  2  0  0  0  0  0  0
  189.1730  178.1160  142.3880 C   0  0  0  0  0  2  0  0  0  0  0  0
  185.9410  176.4160  143.3860 C   0  0  0  0  0  3  0  0  0  0  0  0
  185.4640  178.7330  142.8650 C   0  0  0  0  0  3  0  0  0  0  0  0
  185.0270  177.4670  143.2690 C   0  0  0  0  0  3  0  0  0  0  0  0
  187.7310  177.8990  142.7010 C   0  0  0  0  0  0  0  0  0  0  0  0
  187.2950  176.6290  143.1070 C   0  0  0  0  0  0  0  0  0  0  0  0
  186.8150  178.9480  142.5750 C   0  0  0  0  0  3  0  0  0  0  0  0
  192.4160  177.4140  144.2350 C   0  0  0  0  0  2  0  0  0  0  0  0
  192.4060  176.0320  144.7180 N   0  0  0  0  0  0  0  0  0  0  0  0
  191.2710  175.9580  145.6380 C   0  0  0  0  0  2  0  0  0  0  0  0
  190.0360  177.4150  143.4310 C   0  0  1  0  0  3  0  0  0  0  0  0
  190.0460  175.3410  144.9610 C   0  0  0  0  0  2  0  0  0  0  0  0
  189.7110  175.9060  143.5730 C   0  0  1  0  0  3  0  0  0  0  0  0
  193.6350  175.8150  145.4950 C   0  0  0  0  0  3  0  0  0  0  0  0
  194.8370  176.4580  144.8200 C   0  0  0  0  0  1  0  0  0  0  0  0
  193.5180  176.4160  146.8880 C   0  0  0  0  0  1  0  0  0  0  0  0
  188.2560  174.6440  141.9280 C   0  0  0  0  0  2  0  0  0  0  0  0
  188.8500  173.3960  142.1550 O   0  0  0  0  0  0  0  0  0  0  0  0
  189.8230  173.2710  141.1610 C   0  0  0  0  0  2  0  0  0  0  0  0
  193.6260  173.8150  141.4530 C   0  0  0  0  0  2  0  0  0  0  0  0
  191.4430  172.5830  142.8100 N   0  0  0  0  0  0  0  0  0  0  0  0
  195.2610  172.5400  144.6410 C   0  0  0  0  0  0  0  0  0  0  0  0
  195.0810  173.1800  143.4050 C   0  0  0  0  0  3  0  0  0  0  0  0
  193.8150  173.2140  142.8130 C   0  0  0  0  0  0  0  0  0  0  0  0
  192.9130  171.9280  144.6610 C   0  0  0  0  0  3  0  0  0  0  0  0
  192.7300  172.5790  143.4390 C   0  0  0  0  0  0  0  0  0  0  0  0
  194.1750  171.9110  145.2610 C   0  0  0  0  0  3  0  0  0  0  0  0
  191.1870  173.3120  141.7660 C   0  0  0  0  0  0  0  0  0  0  0  0
  192.1920  174.3160  141.2640 C   0  0  0  0  0  2  0  0  0  0  0  0
  196.5970  172.5100  145.3110 C   0  0  1  0  0  3  0  0  0  0  0  0
  196.8170  173.7640  146.1380 C   0  0  0  0  0  1  0  0  0  0  0  0
  196.7110  171.3760  146.1200 O   0  0  0  0  0  1  0  0  0  0  0  0
  1 19  1  6  0  0  0
  1 15  1  0  0  0  0
  2 13  1  0  0  0  0
  2 10  1  0  0  0  0
  3  7  1  0  0  0  0
  5  6  2  0  0  0  0
  6  4  1  0  0  0  0
  7  8  1  0  0  0  0
  8  1  1  0  0  0  0
  8  4  2  0  0  0  0
  9  7  2  0  0  0  0
  9  5  1  0  0  0  0
 10 11  1  0  0  0  0
 11 16  1  0  0  0  0
 11 12  1  0  0  0  0
 13  3  1  6  0  0  0
 13 15  1  0  0  0  0
 14 12  1  0  0  0  0
 15 14  1  1  0  0  0
 16 18  1  0  0  0  0
 17 16  1  0  0  0  0
 19 20  1  0  0  0  0
 21 30  1  0  0  0  0
 21 20  1  0  0  0  0
 22 26  1  0  0  0  0
 23 28  1  0  0  0  0
 24 29  1  0  0  0  0
 24 32  1  0  0  0  0
 25 24  2  0  0  0  0
 26 25  1  0  0  0  0
 26 28  2  0  0  0  0
 27 29  2  0  0  0  0
 28 27  1  0  0  0  0
 30 23  2  0  0  0  0
 31 22  1  0  0  0  0
 31 30  1  0  0  0  0
 32 34  1  0  0  0  0
 32 33  1  1  0  0  0
M  END
>  <MODEL>
9

>  <REMARK>
 VINA RESULT:      -7.3      2.498      7.254
  Name = 
  6 active torsions:
  status: ('A' for Active; 'I' for Inactive)
    1  A    between atoms: C_1  and  C_9
    2  A    between atoms: C_3  and  N_25
    3  A    between atoms: C_7  and  C_11
    4  A    between atoms: O_8  and  C_9
    5  A    between atoms: O_8  and  C_18
    6  A    between atoms: C_18  and  C_30
                            x       y       z     vdW  Elec       q    Type
                         _______ _______ _______ _____ _____    ______ ____

>  <TORSDO>
F 6

$$$$
