=
 OpenBabel11052419253D

 55 62  0  0  1  0  0  0  0  0999 V2000
  190.0970  173.4440  142.0130 C   0  0  0  0  0  2  0  0  0  0  0  0
  194.6580  174.1940  139.7360 C   0  0  0  0  0  2  0  0  0  0  0  0
  194.6010  175.2220  142.5900 O   0  0  0  0  0  1  0  0  0  0  0  0
  193.4420  175.7090  146.5750 C   0  0  0  0  0  2  0  0  0  0  0  0
  192.5990  176.4390  147.6020 C   0  0  0  0  0  3  0  0  0  0  0  0
  192.1660  177.1640  144.9030 C   0  0  0  0  0  2  0  0  0  0  0  0
  190.4430  176.0250  146.4100 C   0  0  0  0  0  2  0  0  0  0  0  0
  192.3810  175.5570  142.2710 C   0  0  0  0  0  2  0  0  0  0  0  0
  191.2630  176.5710  147.5440 C   0  0  0  0  0  3  0  0  0  0  0  0
  188.7500  171.8150  140.8160 O   0  0  0  0  0  0  0  0  0  0  0  0
  193.0780  175.9410  145.0920 C   0  0  2  0  0  3  0  0  0  0  0  0
  190.7780  171.1580  139.0910 C   0  0  2  0  0  3  0  0  0  0  0  0
  191.2080  173.4790  143.0600 C   0  0  0  0  0  2  0  0  0  0  0  0
  191.1870  171.9170  140.3560 C   0  0  0  0  0  2  0  0  0  0  0  0
  190.4120  175.7140  143.9410 C   0  0  2  0  0  3  0  0  0  0  0  0
  193.8140  172.9900  139.4740 C   0  0  0  0  0  3  0  0  0  0  0  0
  190.7180  176.7170  145.0600 C   0  0  2  0  0  3  0  0  0  0  0  0
  193.8330  175.2370  140.4740 C   0  0  0  0  0  2  0  0  0  0  0  0
  193.5540  174.8050  141.8350 N   0  0  0  0  0  0  0  0  0  0  0  0
  188.6430  172.4430  139.5640 C   0  0  0  0  0  2  0  0  0  0  0  0
  194.1590  171.9810  138.6630 C   0  0  0  0  0  0  0  0  0  0  0  0
  190.0340  172.0700  141.3600 C   0  0  1  0  0  3  0  0  0  0  0  0
  192.5590  174.7210  144.5570 O   0  0  0  0  0  0  0  0  0  0  0  0
  191.6580  174.8920  143.4670 C   0  0  2  0  0  0  0  0  0  0  0  0
  193.2220  170.8170  138.4990 C   0  0  0  0  0  2  0  0  0  0  0  0
  191.8510  171.2710  138.0090 C   0  0  0  0  0  2  0  0  0  0  0  0
  189.4580  171.6820  138.5220 C   0  0  0  0  0  2  0  0  0  0  0  0
  188.1150  175.7670  142.9460 C   0  0  0  0  0  3  0  0  0  0  0  0
  187.2840  177.7070  141.7640 N   0  0  0  0  0  0  0  0  0  0  0  0
  189.5270  177.8270  142.7830 C   0  0  0  0  0  2  0  0  0  0  0  0
  188.6280  178.2860  141.6390 C   0  0  0  0  0  2  0  0  0  0  0  0
  187.0880  176.4390  142.4120 C   0  0  0  0  0  3  0  0  0  0  0  0
  189.5180  176.2970  142.8330 C   0  0  1  0  0  3  0  0  0  0  0  0
  186.1480  178.2990  141.0680 C   0  0  0  0  0  3  0  0  0  0  0  0
  185.8460  177.5550  139.7830 C   0  0  0  0  0  1  0  0  0  0  0  0
  184.9310  178.3220  141.9630 C   0  0  0  0  0  1  0  0  0  0  0  0
  195.4850  171.9840  137.9470 C   0  0  0  0  0  2  0  0  0  0  0  0
  195.3770  171.8170  136.4240 C   0  0  2  0  0  3  0  0  0  0  0  0
  194.8340  169.5330  135.5960 C   0  0  0  0  0  2  0  0  0  0  0  0
  195.9590  170.4810  135.9730 C   0  0  0  0  0  3  0  0  0  0  0  0
  195.6170  170.2370  134.5130 C   0  0  0  0  0  2  0  0  0  0  0  0
  196.0330  172.9810  135.6850 C   0  0  0  0  0  2  0  0  0  0  0  0
  192.8820  175.3100  136.7810 O   0  0  0  0  0  0  0  0  0  0  0  0
  195.0200  174.0660  135.3550 C   0  0  1  0  0  3  0  0  0  0  0  0
  192.5620  174.6240  135.5970 C   0  0  2  0  0  3  0  0  0  0  0  0
  193.5910  173.4920  135.4060 C   0  0  0  0  0  2  0  0  0  0  0  0
  193.4860  176.5530  134.9630 C   0  0  1  0  0  3  0  0  0  0  0  0
  193.9190  176.1410  136.3550 C   0  0  2  0  0  3  0  0  0  0  0  0
  192.6350  175.5300  134.5150 O   0  0  0  0  0  0  0  0  0  0  0  0
  195.2020  175.2800  136.2960 C   0  0  2  0  0  3  0  0  0  0  0  0
  196.4100  176.0930  135.9340 C   0  0  0  0  0  0  0  0  0  0  0  0
  196.3600  176.9360  134.9980 O   0  0  0  0  0  0  0  0  0  0  0  0
  197.5900  175.9230  136.6440 O   0  0  0  0  0  1  0  0  0  0  0  0
  192.7330  177.8720  135.0240 C   0  0  0  0  0  2  0  0  0  0  0  0
  193.6940  179.0280  134.8390 C   0  0  0  0  0  1  0  0  0  0  0  0
  1 13  1  0  0  0  0
  2 18  1  0  0  0  0
  4  5  1  0  0  0  0
  7  9  1  0  0  0  0
  9  5  2  0  0  0  0
 10 22  1  0  0  0  0
 11  6  1  1  0  0  0
 11  4  1  0  0  0  0
 12 26  1  6  0  0  0
 12 14  1  0  0  0  0
 13 24  1  0  0  0  0
 15 33  1  6  0  0  0
 15 17  1  0  0  0  0
 16  2  1  0  0  0  0
 17  6  1  1  0  0  0
 17  7  1  0  0  0  0
 18 19  1  0  0  0  0
 19  8  1  0  0  0  0
 19  3  1  0  0  0  0
 20 10  1  0  0  0  0
 21 16  2  0  0  0  0
 22 14  1  6  0  0  0
 22  1  1  0  0  0  0
 23 11  1  0  0  0  0
 24  8  1  6  0  0  0
 24 15  1  0  0  0  0
 24 23  1  0  0  0  0
 25 21  1  0  0  0  0
 26 25  1  0  0  0  0
 27 12  1  0  0  0  0
 27 20  1  0  0  0  0
 29 32  1  0  0  0  0
 31 29  1  0  0  0  0
 31 30  1  0  0  0  0
 32 28  2  0  0  0  0
 33 30  1  1  0  0  0
 33 28  1  0  0  0  0
 34 29  1  0  0  0  0
 34 36  1  0  0  0  0
 35 34  1  0  0  0  0
 37 21  1  0  0  0  0
 38 42  1  6  0  0  0
 38 37  1  0  0  0  0
 39 40  1  0  0  0  0
 40 38  1  0  0  0  0
 41 39  1  0  0  0  0
 41 40  1  0  0  0  0
 44 46  1  0  0  0  0
 44 42  1  1  0  0  0
 44 50  1  0  0  0  0
 45 46  1  6  0  0  0
 45 43  1  0  0  0  0
 47 54  1  1  0  0  0
 47 48  1  0  0  0  0
 48 43  1  6  0  0  0
 49 47  1  0  0  0  0
 49 45  1  0  0  0  0
 50 51  1  6  0  0  0
 50 48  1  0  0  0  0
 51 53  1  0  0  0  0
 52 51  2  0  0  0  0
 55 54  1  0  0  0  0
M  END
>  <MODEL>
1

>  <REMARK>
 VINA RESULT:      -7.0      0.000      0.000
  Name = 
  9 active torsions:
  status: ('A' for Active; 'I' for Inactive)
    1  A    between atoms: C_1  and  C_53
    2  A    between atoms: C_6  and  C_46
    3  A    between atoms: C_8  and  C_22
    4  A    between atoms: C_8  and  C_43
    5  A    between atoms: C_10  and  N_32
    6  A    between atoms: C_11  and  C_29
    7  A    between atoms: C_20  and  C_22
    8  A    between atoms: C_22  and  C_46
    9  A    between atoms: C_33  and  C_52
                            x       y       z     vdW  Elec       q    Type
                         _______ _______ _______ _____ _____    ______ ____

>  <TORSDO>
F 9

$$$$
=
 OpenBabel11052419253D

 55 62  0  0  1  0  0  0  0  0999 V2000
  189.7830  173.4860  141.6720 C   0  0  0  0  0  2  0  0  0  0  0  0
  194.4200  175.0790  140.0880 C   0  0  0  0  0  2  0  0  0  0  0  0
  194.0180  175.4570  143.0710 O   0  0  0  0  0  1  0  0  0  0  0  0
  192.4820  174.9750  146.9270 C   0  0  0  0  0  2  0  0  0  0  0  0
  191.4860  175.3950  147.9900 C   0  0  0  0  0  3  0  0  0  0  0  0
  191.2110  176.6480  145.4700 C   0  0  0  0  0  2  0  0  0  0  0  0
  189.4910  175.0750  146.5200 C   0  0  0  0  0  2  0  0  0  0  0  0
  191.8100  175.6720  142.6000 C   0  0  0  0  0  2  0  0  0  0  0  0
  190.1530  175.4270  147.8220 C   0  0  0  0  0  3  0  0  0  0  0  0
  188.7150  172.0500  140.0290 O   0  0  0  0  0  0  0  0  0  0  0  0
  192.2240  175.4920  145.4950 C   0  0  2  0  0  3  0  0  0  0  0  0
  190.9370  171.9490  138.4260 C   0  0  2  0  0  3  0  0  0  0  0  0
  190.7920  173.3840  142.8130 C   0  0  0  0  0  2  0  0  0  0  0  0
  191.1580  172.4470  139.8570 C   0  0  0  0  0  2  0  0  0  0  0  0
  189.7010  175.3030  144.0510 C   0  0  2  0  0  3  0  0  0  0  0  0
  193.7280  173.8960  139.4950 C   0  0  0  0  0  3  0  0  0  0  0  0
  189.8080  176.0620  145.3790 C   0  0  2  0  0  3  0  0  0  0  0  0
  193.4330  175.8670  140.9360 C   0  0  0  0  0  2  0  0  0  0  0  0
  193.0860  175.1290  142.1410 N   0  0  0  0  0  0  0  0  0  0  0  0
  188.6500  172.9240  138.9310 C   0  0  0  0  0  2  0  0  0  0  0  0
  194.2400  173.1180  138.5330 C   0  0  0  0  0  0  0  0  0  0  0  0
  189.9150  172.2860  140.7450 C   0  0  1  0  0  3  0  0  0  0  0  0
  191.8780  174.3780  144.6680 O   0  0  0  0  0  0  0  0  0  0  0  0
  191.0600  174.7070  143.5490 C   0  0  2  0  0  0  0  0  0  0  0  0
  193.4440  171.9440  138.0350 C   0  0  0  0  0  2  0  0  0  0  0  0
  192.0800  172.3800  137.5090 C   0  0  0  0  0  2  0  0  0  0  0  0
  189.6230  172.4750  137.8440 C   0  0  0  0  0  2  0  0  0  0  0  0
  187.4200  175.5690  143.0510 C   0  0  0  0  0  3  0  0  0  0  0  0
  186.6990  177.6550  142.0630 N   0  0  0  0  0  0  0  0  0  0  0  0
  188.9330  177.5620  143.1040 C   0  0  0  0  0  2  0  0  0  0  0  0
  188.0710  178.1770  142.0060 C   0  0  0  0  0  2  0  0  0  0  0  0
  186.4340  176.3410  142.5800 C   0  0  0  0  0  3  0  0  0  0  0  0
  188.8490  176.0380  143.0010 C   0  0  1  0  0  3  0  0  0  0  0  0
  185.6010  178.3700  141.4220 C   0  0  0  0  0  3  0  0  0  0  0  0
  185.3800  177.8750  140.0070 C   0  0  0  0  0  1  0  0  0  0  0  0
  184.3340  178.2320  142.2340 C   0  0  0  0  0  1  0  0  0  0  0  0
  195.6150  173.3830  137.9760 C   0  0  0  0  0  2  0  0  0  0  0  0
  196.7350  173.3540  139.0270 C   0  0  2  0  0  3  0  0  0  0  0  0
  197.4620  175.4250  137.8540 C   0  0  0  0  0  2  0  0  0  0  0  0
  197.9390  174.1760  138.5750 C   0  0  0  0  0  3  0  0  0  0  0  0
  197.9410  175.5190  139.2840 C   0  0  0  0  0  2  0  0  0  0  0  0
  197.1440  171.9230  139.3700 C   0  0  0  0  0  2  0  0  0  0  0  0
  194.9620  172.3380  142.7790 O   0  0  0  0  0  0  0  0  0  0  0  0
  196.9450  171.6310  140.8480 C   0  0  1  0  0  3  0  0  0  0  0  0
  196.2830  172.7540  143.0200 C   0  0  2  0  0  3  0  0  0  0  0  0
  196.9820  172.9410  141.6590 C   0  0  0  0  0  2  0  0  0  0  0  0
  196.2230  170.5780  143.5060 C   0  0  1  0  0  3  0  0  0  0  0  0
  195.1370  170.9760  142.5290 C   0  0  2  0  0  3  0  0  0  0  0  0
  196.9440  171.7540  143.7680 O   0  0  0  0  0  0  0  0  0  0  0  0
  195.6360  170.8380  141.0710 C   0  0  2  0  0  3  0  0  0  0  0  0
  195.7730  169.4020  140.6560 C   0  0  0  0  0  0  0  0  0  0  0  0
  194.7850  168.7700  140.1940 O   0  0  0  0  0  0  0  0  0  0  0  0
  197.0020  168.7700  140.7700 O   0  0  0  0  0  1  0  0  0  0  0  0
  195.5990  170.0500  144.7880 C   0  0  0  0  0  2  0  0  0  0  0  0
  196.3720  170.5550  145.9890 C   0  0  0  0  0  1  0  0  0  0  0  0
  1 13  1  0  0  0  0
  2 18  1  0  0  0  0
  4  5  1  0  0  0  0
  7  9  1  0  0  0  0
  9  5  2  0  0  0  0
 10 22  1  0  0  0  0
 11  6  1  1  0  0  0
 11  4  1  0  0  0  0
 12 26  1  6  0  0  0
 12 14  1  0  0  0  0
 13 24  1  0  0  0  0
 15 33  1  6  0  0  0
 15 17  1  0  0  0  0
 16  2  1  0  0  0  0
 17  6  1  1  0  0  0
 17  7  1  0  0  0  0
 18 19  1  0  0  0  0
 19  8  1  0  0  0  0
 19  3  1  0  0  0  0
 20 10  1  0  0  0  0
 21 16  2  0  0  0  0
 22 14  1  6  0  0  0
 22  1  1  0  0  0  0
 23 11  1  0  0  0  0
 24  8  1  6  0  0  0
 24 15  1  0  0  0  0
 24 23  1  0  0  0  0
 25 21  1  0  0  0  0
 26 25  1  0  0  0  0
 27 12  1  0  0  0  0
 27 20  1  0  0  0  0
 29 32  1  0  0  0  0
 31 29  1  0  0  0  0
 31 30  1  0  0  0  0
 32 28  2  0  0  0  0
 33 28  1  1  0  0  0
 33 30  1  0  0  0  0
 34 29  1  0  0  0  0
 34 36  1  0  0  0  0
 35 34  1  0  0  0  0
 37 21  1  0  0  0  0
 38 37  1  6  0  0  0
 38 42  1  0  0  0  0
 39 40  1  0  0  0  0
 39 41  1  0  0  0  0
 40 38  1  0  0  0  0
 40 41  1  0  0  0  0
 43 45  1  0  0  0  0
 44 42  1  6  0  0  0
 44 50  1  0  0  0  0
 44 46  1  0  0  0  0
 45 46  1  6  0  0  0
 45 49  1  0  0  0  0
 47 49  1  0  0  0  0
 47 54  1  1  0  0  0
 48 43  1  1  0  0  0
 48 47  1  0  0  0  0
 50 51  1  1  0  0  0
 50 48  1  0  0  0  0
 51 53  1  0  0  0  0
 52 51  2  0  0  0  0
 54 55  1  0  0  0  0
M  END
>  <MODEL>
2

>  <REMARK>
 VINA RESULT:      -6.7      2.882      4.943
  Name = 
  9 active torsions:
  status: ('A' for Active; 'I' for Inactive)
    1  A    between atoms: C_1  and  C_53
    2  A    between atoms: C_6  and  C_46
    3  A    between atoms: C_8  and  C_22
    4  A    between atoms: C_8  and  C_43
    5  A    between atoms: C_10  and  N_32
    6  A    between atoms: C_11  and  C_29
    7  A    between atoms: C_20  and  C_22
    8  A    between atoms: C_22  and  C_46
    9  A    between atoms: C_33  and  C_52
                            x       y       z     vdW  Elec       q    Type
                         _______ _______ _______ _____ _____    ______ ____

>  <TORSDO>
F 9

$$$$
=
 OpenBabel11052419253D

 55 62  0  0  1  0  0  0  0  0999 V2000
  194.6840  171.5380  141.3490 C   0  0  0  0  0  2  0  0  0  0  0  0
  190.4840  174.1200  142.8470 C   0  0  0  0  0  2  0  0  0  0  0  0
  189.8870  172.0950  140.6680 O   0  0  0  0  0  1  0  0  0  0  0  0
  190.2830  168.7660  138.1740 C   0  0  0  0  0  2  0  0  0  0  0  0
  190.7940  168.1680  136.8780 C   0  0  0  0  0  3  0  0  0  0  0  0
  191.5020  170.8630  137.3630 C   0  0  0  0  0  2  0  0  0  0  0  0
  193.1520  168.9130  137.2400 C   0  0  0  0  0  2  0  0  0  0  0  0
  192.0220  172.4250  139.9780 C   0  0  0  0  0  2  0  0  0  0  0  0
  192.0720  168.2150  136.4630 C   0  0  0  0  0  3  0  0  0  0  0  0
  196.4930  171.7510  142.9560 O   0  0  0  0  0  0  0  0  0  0  0  0
  190.8250  170.1620  138.5520 C   0  0  2  0  0  3  0  0  0  0  0  0
  194.9310  173.0560  144.7930 C   0  0  2  0  0  3  0  0  0  0  0  0
  193.4350  170.6880  141.1210 C   0  0  0  0  0  2  0  0  0  0  0  0
  194.1870  172.3240  143.6730 C   0  0  0  0  0  2  0  0  0  0  0  0
  193.6330  170.9350  138.6100 C   0  0  2  0  0  3  0  0  0  0  0  0
  191.5760  173.7370  143.7920 C   0  0  0  0  0  3  0  0  0  0  0  0
  192.9660  170.4410  137.3210 C   0  0  2  0  0  3  0  0  0  0  0  0
  190.9640  173.9250  141.4180 C   0  0  0  0  0  2  0  0  0  0  0  0
  191.1010  172.5090  141.1090 N   0  0  0  0  0  0  0  0  0  0  0  0
  196.6740  173.1440  142.9520 C   0  0  0  0  0  2  0  0  0  0  0  0
  191.5660  173.9890  145.1080 C   0  0  0  0  0  0  0  0  0  0  0  0
  195.1150  171.4580  142.8070 C   0  0  1  0  0  3  0  0  0  0  0  0
  191.6500  170.0280  139.7120 O   0  0  0  0  0  0  0  0  0  0  0  0
  192.6610  171.0230  139.8350 C   0  0  2  0  0  0  0  0  0  0  0  0
  192.7240  173.5350  145.9510 C   0  0  0  0  0  2  0  0  0  0  0  0
  194.0420  174.1140  145.4450 C   0  0  0  0  0  2  0  0  0  0  0  0
  196.1980  173.7400  144.2740 C   0  0  0  0  0  2  0  0  0  0  0  0
  195.9530  171.6860  138.0410 C   0  0  0  0  0  3  0  0  0  0  0  0
  196.3740  173.7990  136.9430 N   0  0  0  0  0  0  0  0  0  0  0  0
  194.0330  173.1360  137.3510 C   0  0  0  0  0  2  0  0  0  0  0  0
  195.0210  174.2920  137.2330 C   0  0  0  0  0  2  0  0  0  0  0  0
  196.7910  172.4960  137.3830 C   0  0  0  0  0  3  0  0  0  0  0  0
  194.5620  172.1410  138.3870 C   0  0  1  0  0  3  0  0  0  0  0  0
  197.3850  174.6840  136.3770 C   0  0  0  0  0  3  0  0  0  0  0  0
  196.8480  175.4260  135.1700 C   0  0  0  0  0  1  0  0  0  0  0  0
  197.8800  175.6590  137.4200 C   0  0  0  0  0  1  0  0  0  0  0  0
  190.3950  174.6850  145.7530 C   0  0  0  0  0  2  0  0  0  0  0  0
  190.7280  176.0690  146.3310 C   0  0  2  0  0  3  0  0  0  0  0  0
  192.7020  176.9090  147.5940 C   0  0  0  0  0  2  0  0  0  0  0  0
  191.5260  175.9480  147.6260 C   0  0  0  0  0  3  0  0  0  0  0  0
  191.4680  177.2590  148.3910 C   0  0  0  0  0  2  0  0  0  0  0  0
  189.4680  176.9070  146.5370 C   0  0  0  0  0  2  0  0  0  0  0  0
  186.2240  178.1900  144.4450 O   0  0  0  0  0  0  0  0  0  0  0  0
  188.4970  176.7360  145.3810 C   0  0  1  0  0  3  0  0  0  0  0  0
  186.0280  176.8530  144.8310 C   0  0  2  0  0  3  0  0  0  0  0  0
  187.0700  176.5090  145.9140 C   0  0  0  0  0  2  0  0  0  0  0  0
  187.0150  176.7800  142.8320 C   0  0  1  0  0  3  0  0  0  0  0  0
  187.3000  178.0750  143.5640 C   0  0  2  0  0  3  0  0  0  0  0  0
  186.2140  176.0230  143.7030 O   0  0  0  0  0  0  0  0  0  0  0  0
  188.5810  177.9470  144.4210 C   0  0  2  0  0  3  0  0  0  0  0  0
  189.8220  177.9070  143.5780 C   0  0  0  0  0  0  0  0  0  0  0  0
  189.8570  177.2240  142.5190 O   0  0  0  0  0  0  0  0  0  0  0  0
  190.9360  178.6400  143.9600 O   0  0  0  0  0  1  0  0  0  0  0  0
  186.2610  177.0680  141.5440 C   0  0  0  0  0  2  0  0  0  0  0  0
  187.2320  177.4670  140.4520 C   0  0  0  0  0  1  0  0  0  0  0  0
  2 16  1  0  0  0  0
  3 19  1  0  0  0  0
  4 11  1  0  0  0  0
  5  4  1  0  0  0  0
  8 19  1  0  0  0  0
  9  5  2  0  0  0  0
  9  7  1  0  0  0  0
 11  6  1  6  0  0  0
 11 23  1  0  0  0  0
 12 14  1  6  0  0  0
 12 26  1  0  0  0  0
 13  1  1  0  0  0  0
 15 33  1  6  0  0  0
 15 24  1  0  0  0  0
 16 21  2  0  0  0  0
 17  7  1  1  0  0  0
 17  6  1  0  0  0  0
 17 15  1  0  0  0  0
 18  2  1  0  0  0  0
 19 18  1  0  0  0  0
 20 10  1  0  0  0  0
 20 27  1  0  0  0  0
 21 37  1  0  0  0  0
 21 25  1  0  0  0  0
 22  1  1  6  0  0  0
 22 10  1  0  0  0  0
 22 14  1  0  0  0  0
 23 24  1  0  0  0  0
 24  8  1  1  0  0  0
 24 13  1  0  0  0  0
 26 25  1  0  0  0  0
 27 12  1  0  0  0  0
 28 33  1  0  0  0  0
 29 31  1  0  0  0  0
 29 32  1  0  0  0  0
 31 30  1  0  0  0  0
 32 28  2  0  0  0  0
 33 30  1  6  0  0  0
 34 29  1  0  0  0  0
 34 36  1  0  0  0  0
 35 34  1  0  0  0  0
 38 37  1  1  0  0  0
 38 42  1  0  0  0  0
 38 40  1  0  0  0  0
 39 40  1  0  0  0  0
 39 41  1  0  0  0  0
 40 41  1  0  0  0  0
 43 45  1  0  0  0  0
 44 46  1  0  0  0  0
 44 42  1  1  0  0  0
 45 46  1  1  0  0  0
 47 54  1  6  0  0  0
 47 48  1  0  0  0  0
 47 49  1  0  0  0  0
 48 50  1  0  0  0  0
 48 43  1  1  0  0  0
 49 45  1  0  0  0  0
 50 51  1  6  0  0  0
 50 44  1  0  0  0  0
 51 53  1  0  0  0  0
 52 51  2  0  0  0  0
 55 54  1  0  0  0  0
M  END
>  <MODEL>
3

>  <REMARK>
 VINA RESULT:      -6.4      3.114      9.860
  Name = 
  9 active torsions:
  status: ('A' for Active; 'I' for Inactive)
    1  A    between atoms: C_1  and  C_53
    2  A    between atoms: C_6  and  C_46
    3  A    between atoms: C_8  and  C_22
    4  A    between atoms: C_8  and  C_43
    5  A    between atoms: C_10  and  N_32
    6  A    between atoms: C_11  and  C_29
    7  A    between atoms: C_20  and  C_22
    8  A    between atoms: C_22  and  C_46
    9  A    between atoms: C_33  and  C_52
                            x       y       z     vdW  Elec       q    Type
                         _______ _______ _______ _____ _____    ______ ____

>  <TORSDO>
F 9

$$$$
=
 OpenBabel11052419253D

 55 62  0  0  1  0  0  0  0  0999 V2000
  188.4080  174.2630  142.0490 C   0  0  0  0  0  2  0  0  0  0  0  0
  192.6070  176.3340  144.2010 C   0  0  0  0  0  2  0  0  0  0  0  0
  190.0610  177.7840  144.9900 O   0  0  0  0  0  1  0  0  0  0  0  0
  186.0080  178.5260  145.6810 C   0  0  0  0  0  2  0  0  0  0  0  0
  184.6750  179.0380  145.1690 C   0  0  0  0  0  3  0  0  0  0  0  0
  186.7880  178.9850  143.2890 C   0  0  0  0  0  2  0  0  0  0  0  0
  184.6660  177.5640  143.1510 C   0  0  0  0  0  2  0  0  0  0  0  0
  189.2360  177.1250  142.9830 C   0  0  0  0  0  2  0  0  0  0  0  0
  184.0650  178.6040  144.0540 C   0  0  0  0  0  3  0  0  0  0  0  0
  188.8420  172.0300  141.1960 O   0  0  0  0  0  0  0  0  0  0  0  0
  187.1120  178.2980  144.6250 C   0  0  2  0  0  3  0  0  0  0  0  0
  191.3610  171.9270  142.2730 C   0  0  2  0  0  3  0  0  0  0  0  0
  188.0420  174.9460  143.3640 C   0  0  0  0  0  2  0  0  0  0  0  0
  190.4360  173.0160  142.8220 C   0  0  0  0  0  2  0  0  0  0  0  0
  186.8100  176.7940  142.1490 C   0  0  2  0  0  3  0  0  0  0  0  0
  192.4600  174.8660  143.9700 C   0  0  0  0  0  3  0  0  0  0  0  0
  185.9540  178.0310  142.4430 C   0  0  2  0  0  3  0  0  0  0  0  0
  191.5250  177.0760  143.4320 C   0  0  0  0  0  2  0  0  0  0  0  0
  190.2170  176.8410  144.0270 N   0  0  0  0  0  0  0  0  0  0  0  0
  189.8570  172.3050  140.2650 C   0  0  0  0  0  2  0  0  0  0  0  0
  193.3680  173.9460  144.3190 C   0  0  0  0  0  0  0  0  0  0  0  0
  188.9910  172.8830  142.3180 C   0  0  1  0  0  3  0  0  0  0  0  0
  187.3620  176.8940  144.5280 O   0  0  0  0  0  0  0  0  0  0  0  0
  187.8630  176.4700  143.2630 C   0  0  2  0  0  0  0  0  0  0  0  0
  193.0880  172.4950  144.0430 C   0  0  0  0  0  2  0  0  0  0  0  0
  192.8260  172.2510  142.5600 C   0  0  0  0  0  2  0  0  0  0  0  0
  191.1900  171.7510  140.7630 C   0  0  0  0  0  2  0  0  0  0  0  0
  187.4560  175.3140  140.2350 C   0  0  0  0  0  3  0  0  0  0  0  0
  187.2320  176.0350  137.9370 N   0  0  0  0  0  0  0  0  0  0  0  0
  186.4620  177.5530  139.7220 C   0  0  0  0  0  2  0  0  0  0  0  0
  187.0690  177.4420  138.3270 C   0  0  0  0  0  2  0  0  0  0  0  0
  187.4370  175.0170  138.9300 C   0  0  0  0  0  3  0  0  0  0  0  0
  187.3150  176.7390  140.6970 C   0  0  1  0  0  3  0  0  0  0  0  0
  187.3850  175.6620  136.5360 C   0  0  0  0  0  3  0  0  0  0  0  0
  187.3540  176.8830  135.6390 C   0  0  0  0  0  1  0  0  0  0  0  0
  188.6660  174.8880  136.3300 C   0  0  0  0  0  1  0  0  0  0  0  0
  194.6430  174.3450  145.0180 C   0  0  0  0  0  2  0  0  0  0  0  0
  195.8400  173.4340  144.7070 C   0  0  2  0  0  3  0  0  0  0  0  0
  195.7520  171.1420  145.6770 C   0  0  0  0  0  2  0  0  0  0  0  0
  196.2060  172.5730  145.9130 C   0  0  0  0  0  3  0  0  0  0  0  0
  197.2080  171.5080  145.5010 C   0  0  0  0  0  2  0  0  0  0  0  0
  197.0430  174.2380  144.2200 C   0  0  0  0  0  2  0  0  0  0  0  0
  195.5670  173.0950  140.6050 O   0  0  0  0  0  0  0  0  0  0  0  0
  197.1660  174.1840  142.7060 C   0  0  1  0  0  3  0  0  0  0  0  0
  196.8760  172.6040  140.7480 C   0  0  2  0  0  3  0  0  0  0  0  0
  197.2730  172.7210  142.2330 C   0  0  0  0  0  2  0  0  0  0  0  0
  197.0700  174.6090  139.7900 C   0  0  1  0  0  3  0  0  0  0  0  0
  195.7840  174.4740  140.5780 C   0  0  2  0  0  3  0  0  0  0  0  0
  197.7440  173.3880  139.9540 O   0  0  0  0  0  0  0  0  0  0  0  0
  195.9880  174.9340  142.0400 C   0  0  2  0  0  3  0  0  0  0  0  0
  196.1410  176.4230  142.1470 C   0  0  0  0  0  0  0  0  0  0  0  0
  195.6690  177.1820  141.2580 O   0  0  0  0  0  0  0  0  0  0  0  0
  196.7970  176.9690  143.2400 O   0  0  0  0  0  1  0  0  0  0  0  0
  196.7550  174.8410  138.3200 C   0  0  0  0  0  2  0  0  0  0  0  0
  197.9410  174.4430  137.4660 C   0  0  0  0  0  1  0  0  0  0  0  0
  1 13  1  0  0  0  0
  5  4  1  0  0  0  0
  7  9  1  0  0  0  0
  8 19  1  0  0  0  0
  9  5  2  0  0  0  0
 10 22  1  0  0  0  0
 11  6  1  6  0  0  0
 11  4  1  0  0  0  0
 12 27  1  6  0  0  0
 12 26  1  0  0  0  0
 12 14  1  0  0  0  0
 15 33  1  6  0  0  0
 15 17  1  0  0  0  0
 15 24  1  0  0  0  0
 16  2  1  0  0  0  0
 16 21  2  0  0  0  0
 17  7  1  1  0  0  0
 17  6  1  0  0  0  0
 18 19  1  0  0  0  0
 18  2  1  0  0  0  0
 19  3  1  0  0  0  0
 20 27  1  0  0  0  0
 20 10  1  0  0  0  0
 21 37  1  0  0  0  0
 22  1  1  6  0  0  0
 22 14  1  0  0  0  0
 23 11  1  0  0  0  0
 24  8  1  6  0  0  0
 24 13  1  0  0  0  0
 24 23  1  0  0  0  0
 25 21  1  0  0  0  0
 26 25  1  0  0  0  0
 28 33  1  0  0  0  0
 29 31  1  0  0  0  0
 29 32  1  0  0  0  0
 31 30  1  0  0  0  0
 32 28  2  0  0  0  0
 33 30  1  6  0  0  0
 34 29  1  0  0  0  0
 35 34  1  0  0  0  0
 36 34  1  0  0  0  0
 38 42  1  1  0  0  0
 38 37  1  0  0  0  0
 38 40  1  0  0  0  0
 39 40  1  0  0  0  0
 41 39  1  0  0  0  0
 41 40  1  0  0  0  0
 43 45  1  0  0  0  0
 44 42  1  1  0  0  0
 45 46  1  1  0  0  0
 46 44  1  0  0  0  0
 47 54  1  6  0  0  0
 47 49  1  0  0  0  0
 47 48  1  0  0  0  0
 48 43  1  1  0  0  0
 48 50  1  0  0  0  0
 49 45  1  0  0  0  0
 50 51  1  6  0  0  0
 50 44  1  0  0  0  0
 51 53  1  0  0  0  0
 52 51  2  0  0  0  0
 55 54  1  0  0  0  0
M  END
>  <MODEL>
4

>  <REMARK>
 VINA RESULT:      -6.0      3.312      6.015
  Name = 
  9 active torsions:
  status: ('A' for Active; 'I' for Inactive)
    1  A    between atoms: C_1  and  C_53
    2  A    between atoms: C_6  and  C_46
    3  A    between atoms: C_8  and  C_22
    4  A    between atoms: C_8  and  C_43
    5  A    between atoms: C_10  and  N_32
    6  A    between atoms: C_11  and  C_29
    7  A    between atoms: C_20  and  C_22
    8  A    between atoms: C_22  and  C_46
    9  A    between atoms: C_33  and  C_52
                            x       y       z     vdW  Elec       q    Type
                         _______ _______ _______ _____ _____    ______ ____

>  <TORSDO>
F 9

$$$$
=
 OpenBabel11052419253D

 55 62  0  0  1  0  0  0  0  0999 V2000
  191.4140  176.6050  143.7980 C   0  0  0  0  0  2  0  0  0  0  0  0
  191.3900  171.4710  144.2390 C   0  0  0  0  0  2  0  0  0  0  0  0
  189.5170  172.4590  142.0650 O   0  0  0  0  0  1  0  0  0  0  0  0
  187.8100  174.9450  139.1740 C   0  0  0  0  0  2  0  0  0  0  0  0
  186.7980  176.0170  138.8150 C   0  0  0  0  0  3  0  0  0  0  0  0
  186.9620  175.3330  141.5550 C   0  0  0  0  0  2  0  0  0  0  0  0
  187.5790  177.6120  140.5730 C   0  0  0  0  0  2  0  0  0  0  0  0
  189.3130  174.3480  143.3030 C   0  0  0  0  0  2  0  0  0  0  0  0
  186.7000  177.2120  139.4230 C   0  0  0  0  0  3  0  0  0  0  0  0
  193.3450  177.5930  144.8920 O   0  0  0  0  0  0  0  0  0  0  0  0
  188.0570  174.7050  140.6790 C   0  0  2  0  0  3  0  0  0  0  0  0
  194.4980  175.1630  145.4210 C   0  0  2  0  0  3  0  0  0  0  0  0
  191.0450  175.9640  142.4610 C   0  0  0  0  0  2  0  0  0  0  0  0
  193.3770  175.1650  144.3780 C   0  0  0  0  0  2  0  0  0  0  0  0
  188.6510  176.7630  142.6530 C   0  0  2  0  0  3  0  0  0  0  0  0
  192.6200  172.2920  144.4430 C   0  0  0  0  0  3  0  0  0  0  0  0
  187.3450  176.7780  141.8490 C   0  0  2  0  0  3  0  0  0  0  0  0
  190.1730  172.3830  144.2180 C   0  0  0  0  0  2  0  0  0  0  0  0
  190.1570  173.1940  143.0100 N   0  0  0  0  0  0  0  0  0  0  0  0
  193.1420  177.1560  146.2110 C   0  0  0  0  0  2  0  0  0  0  0  0
  193.8300  171.7930  144.7240 C   0  0  0  0  0  0  0  0  0  0  0  0
  192.9230  176.5820  143.9930 C   0  0  1  0  0  3  0  0  0  0  0  0
  189.3870  175.1280  140.9920 O   0  0  0  0  0  0  0  0  0  0  0  0
  189.5730  175.5350  142.3440 C   0  0  2  0  0  0  0  0  0  0  0  0
  194.9930  172.7310  144.8910 C   0  0  0  0  0  2  0  0  0  0  0  0
  194.7240  173.7610  145.9840 C   0  0  0  0  0  2  0  0  0  0  0  0
  194.1870  176.1080  146.5840 C   0  0  0  0  0  2  0  0  0  0  0  0
  187.4990  178.2640  144.2930 C   0  0  0  0  0  3  0  0  0  0  0  0
  186.9700  177.5310  146.5360 N   0  0  0  0  0  0  0  0  0  0  0  0
  188.0130  175.9160  144.9900 C   0  0  0  0  0  2  0  0  0  0  0  0
  187.8690  176.3730  146.4380 C   0  0  0  0  0  2  0  0  0  0  0  0
  186.8360  178.4500  145.4410 C   0  0  0  0  0  3  0  0  0  0  0  0
  188.4500  177.1090  144.1380 C   0  0  1  0  0  3  0  0  0  0  0  0
  186.3450  177.8850  147.8050 C   0  0  0  0  0  3  0  0  0  0  0  0
  187.0630  179.0460  148.4620 C   0  0  0  0  0  1  0  0  0  0  0  0
  184.8840  178.2160  147.6020 C   0  0  0  0  0  1  0  0  0  0  0  0
  194.0450  170.3050  144.8360 C   0  0  0  0  0  2  0  0  0  0  0  0
  194.7620  169.6820  143.6290 C   0  0  2  0  0  3  0  0  0  0  0  0
  196.6960  168.1950  143.1330 C   0  0  0  0  0  2  0  0  0  0  0  0
  196.2250  169.3880  143.9470 C   0  0  0  0  0  3  0  0  0  0  0  0
  197.0740  169.5930  142.7050 C   0  0  0  0  0  2  0  0  0  0  0  0
  194.6350  170.5610  142.3870 C   0  0  0  0  0  2  0  0  0  0  0  0
  190.8740  169.3030  141.4810 O   0  0  0  0  0  0  0  0  0  0  0  0
  193.6490  169.9720  141.3920 C   0  0  1  0  0  3  0  0  0  0  0  0
  191.7850  168.2660  141.2200 C   0  0  2  0  0  3  0  0  0  0  0  0
  193.1210  168.6180  141.9040 C   0  0  0  0  0  2  0  0  0  0  0  0
  191.6170  169.4310  139.3250 C   0  0  1  0  0  3  0  0  0  0  0  0
  191.2580  170.2600  140.5400 C   0  0  2  0  0  3  0  0  0  0  0  0
  191.9710  168.1660  139.8230 O   0  0  0  0  0  0  0  0  0  0  0  0
  192.5090  170.9770  141.1010 C   0  0  2  0  0  3  0  0  0  0  0  0
  192.9630  172.0970  140.2110 C   0  0  0  0  0  0  0  0  0  0  0  0
  193.9150  171.9280  139.4020 O   0  0  0  0  0  0  0  0  0  0  0  0
  192.3210  173.3240  140.2710 O   0  0  0  0  0  1  0  0  0  0  0  0
  190.4130  169.3130  138.4050 C   0  0  0  0  0  2  0  0  0  0  0  0
  189.7570  170.6670  138.2310 C   0  0  0  0  0  1  0  0  0  0  0  0
  2 16  1  0  0  0  0
  3 19  1  0  0  0  0
  5  4  1  0  0  0  0
  5  9  2  0  0  0  0
  6 17  1  0  0  0  0
  9  7  1  0  0  0  0
 10 20  1  0  0  0  0
 11  4  1  6  0  0  0
 11 23  1  0  0  0  0
 11  6  1  0  0  0  0
 12 14  1  6  0  0  0
 12 26  1  0  0  0  0
 12 27  1  0  0  0  0
 13  1  1  0  0  0  0
 15 33  1  1  0  0  0
 16 21  2  0  0  0  0
 17  7  1  6  0  0  0
 17 15  1  0  0  0  0
 18  2  1  0  0  0  0
 19  8  1  0  0  0  0
 19 18  1  0  0  0  0
 20 27  1  0  0  0  0
 21 37  1  0  0  0  0
 21 25  1  0  0  0  0
 22  1  1  1  0  0  0
 22 14  1  0  0  0  0
 22 10  1  0  0  0  0
 23 24  1  0  0  0  0
 24 13  1  1  0  0  0
 24 15  1  0  0  0  0
 24  8  1  0  0  0  0
 25 26  1  0  0  0  0
 28 32  2  0  0  0  0
 29 34  1  0  0  0  0
 30 31  1  0  0  0  0
 31 29  1  0  0  0  0
 32 29  1  0  0  0  0
 33 28  1  6  0  0  0
 33 30  1  0  0  0  0
 34 35  1  0  0  0  0
 36 34  1  0  0  0  0
 38 42  1  6  0  0  0
 38 40  1  0  0  0  0
 38 37  1  0  0  0  0
 39 40  1  0  0  0  0
 41 39  1  0  0  0  0
 41 40  1  0  0  0  0
 44 46  1  0  0  0  0
 44 42  1  1  0  0  0
 45 43  1  0  0  0  0
 45 46  1  1  0  0  0
 47 54  1  6  0  0  0
 47 49  1  0  0  0  0
 47 48  1  0  0  0  0
 48 50  1  0  0  0  0
 48 43  1  1  0  0  0
 49 45  1  0  0  0  0
 50 51  1  6  0  0  0
 50 44  1  0  0  0  0
 51 53  1  0  0  0  0
 52 51  2  0  0  0  0
 55 54  1  0  0  0  0
M  END
>  <MODEL>
5

>  <REMARK>
 VINA RESULT:      -6.0      3.876      6.974
  Name = 
  9 active torsions:
  status: ('A' for Active; 'I' for Inactive)
    1  A    between atoms: C_1  and  C_53
    2  A    between atoms: C_6  and  C_46
    3  A    between atoms: C_8  and  C_22
    4  A    between atoms: C_8  and  C_43
    5  A    between atoms: C_10  and  N_32
    6  A    between atoms: C_11  and  C_29
    7  A    between atoms: C_20  and  C_22
    8  A    between atoms: C_22  and  C_46
    9  A    between atoms: C_33  and  C_52
                            x       y       z     vdW  Elec       q    Type
                         _______ _______ _______ _____ _____    ______ ____

>  <TORSDO>
F 9

$$$$
=
 OpenBabel11052419253D

 55 62  0  0  1  0  0  0  0  0999 V2000
  192.9980  172.9160  140.4690 C   0  0  0  0  0  2  0  0  0  0  0  0
  189.0110  173.5360  143.6730 C   0  0  0  0  0  2  0  0  0  0  0  0
  191.6830  173.6570  145.1060 O   0  0  0  0  0  1  0  0  0  0  0  0
  195.7850  174.1260  145.7510 C   0  0  0  0  0  2  0  0  0  0  0  0
  197.1660  173.5060  145.8310 C   0  0  0  0  0  3  0  0  0  0  0  0
  195.0750  171.7760  145.0350 C   0  0  0  0  0  2  0  0  0  0  0  0
  197.0440  172.4720  143.5600 C   0  0  0  0  0  2  0  0  0  0  0  0
  192.4540  172.2810  143.4770 C   0  0  0  0  0  2  0  0  0  0  0  0
  197.7400  172.7820  144.8550 C   0  0  0  0  0  3  0  0  0  0  0  0
  192.3500  173.2430  138.1500 O   0  0  0  0  0  0  0  0  0  0  0  0
  194.6720  173.2570  145.1250 C   0  0  2  0  0  3  0  0  0  0  0  0
  189.8240  174.0880  138.8020 C   0  0  2  0  0  3  0  0  0  0  0  0
  193.4210  173.7470  141.6780 C   0  0  0  0  0  2  0  0  0  0  0  0
  190.8490  174.0840  139.9390 C   0  0  0  0  0  2  0  0  0  0  0  0
  194.8420  171.8550  142.5770 C   0  0  2  0  0  3  0  0  0  0  0  0
  189.0120  174.0630  142.2750 C   0  0  0  0  0  3  0  0  0  0  0  0
  195.8160  171.5540  143.7220 C   0  0  2  0  0  3  0  0  0  0  0  0
  190.1690  172.5660  143.8460 C   0  0  0  0  0  2  0  0  0  0  0  0
  191.4410  173.2720  143.8280 N   0  0  0  0  0  0  0  0  0  0  0  0
  191.3750  172.2410  138.0150 C   0  0  0  0  0  2  0  0  0  0  0  0
  188.0130  174.7660  141.7260 C   0  0  0  0  0  0  0  0  0  0  0  0
  192.2780  173.7930  139.4550 C   0  0  1  0  0  3  0  0  0  0  0  0
  194.2830  173.8450  143.8820 O   0  0  0  0  0  0  0  0  0  0  0  0
  193.7530  172.9240  142.9340 C   0  0  2  0  0  0  0  0  0  0  0  0
  188.1480  175.2520  140.3100 C   0  0  0  0  0  2  0  0  0  0  0  0
  188.3960  174.0950  139.3470 C   0  0  0  0  0  2  0  0  0  0  0  0
  189.9890  172.8690  137.8920 C   0  0  0  0  0  2  0  0  0  0  0  0
  192.8770  170.3790  142.0980 C   0  0  0  0  0  3  0  0  0  0  0  0
  192.7250  169.0830  140.0610 N   0  0  0  0  0  0  0  0  0  0  0  0
  194.6670  170.5750  140.3600 C   0  0  0  0  0  2  0  0  0  0  0  0
  194.1500  169.2710  139.7600 C   0  0  0  0  0  2  0  0  0  0  0  0
  192.1460  169.6460  141.2500 C   0  0  0  0  0  3  0  0  0  0  0  0
  194.3460  170.5900  141.8560 C   0  0  1  0  0  3  0  0  0  0  0  0
  191.9100  168.1660  139.2740 C   0  0  0  0  0  3  0  0  0  0  0  0
  190.4410  168.3060  139.6200 C   0  0  0  0  0  1  0  0  0  0  0  0
  192.1290  168.3970  137.7960 C   0  0  0  0  0  1  0  0  0  0  0  0
  186.7790  175.1050  142.5220 C   0  0  0  0  0  2  0  0  0  0  0  0
  186.6950  176.5780  142.9520 C   0  0  2  0  0  3  0  0  0  0  0  0
  184.5910  177.9010  142.8160 C   0  0  0  0  0  2  0  0  0  0  0  0
  185.7760  177.3710  142.0270 C   0  0  0  0  0  3  0  0  0  0  0  0
  185.7340  178.8250  142.4650 C   0  0  0  0  0  2  0  0  0  0  0  0
  188.0790  177.2170  143.0320 C   0  0  0  0  0  2  0  0  0  0  0  0
  188.9150  175.5910  146.6660 O   0  0  0  0  0  0  0  0  0  0  0  0
  188.5290  177.3810  144.4750 C   0  0  1  0  0  3  0  0  0  0  0  0
  187.9700  176.6190  146.8240 C   0  0  2  0  0  3  0  0  0  0  0  0
  187.3980  176.9630  145.4350 C   0  0  0  0  0  2  0  0  0  0  0  0
  189.9710  177.5800  147.0390 C   0  0  1  0  0  3  0  0  0  0  0  0
  190.0350  176.3000  146.2310 C   0  0  2  0  0  3  0  0  0  0  0  0
  188.6170  177.7490  147.3720 O   0  0  0  0  0  0  0  0  0  0  0  0
  189.8370  176.5930  144.7260 C   0  0  2  0  0  3  0  0  0  0  0  0
  191.0270  177.2790  144.1230 C   0  0  0  0  0  0  0  0  0  0  0  0
  192.0460  176.6180  143.7860 O   0  0  0  0  0  0  0  0  0  0  0  0
  191.0010  178.6510  143.9230 O   0  0  0  0  0  1  0  0  0  0  0  0
  190.8080  177.4400  148.3000 C   0  0  0  0  0  2  0  0  0  0  0  0
  191.9980  176.5390  148.0370 C   0  0  0  0  0  1  0  0  0  0  0  0
  1 13  1  0  0  0  0
  2 18  1  0  0  0  0
  4  5  1  0  0  0  0
  7  9  1  0  0  0  0
  8 19  1  0  0  0  0
  9  5  2  0  0  0  0
 10 22  1  0  0  0  0
 11  6  1  6  0  0  0
 11  4  1  0  0  0  0
 12 27  1  1  0  0  0
 12 26  1  0  0  0  0
 12 14  1  0  0  0  0
 15 33  1  1  0  0  0
 15 24  1  0  0  0  0
 15 17  1  0  0  0  0
 16  2  1  0  0  0  0
 17  7  1  1  0  0  0
 17  6  1  0  0  0  0
 19 18  1  0  0  0  0
 19  3  1  0  0  0  0
 20 10  1  0  0  0  0
 21 16  2  0  0  0  0
 21 37  1  0  0  0  0
 22 14  1  1  0  0  0
 22  1  1  0  0  0  0
 23 11  1  0  0  0  0
 24 13  1  6  0  0  0
 24  8  1  0  0  0  0
 24 23  1  0  0  0  0
 25 21  1  0  0  0  0
 26 25  1  0  0  0  0
 27 20  1  0  0  0  0
 29 32  1  0  0  0  0
 31 29  1  0  0  0  0
 31 30  1  0  0  0  0
 32 28  2  0  0  0  0
 33 30  1  6  0  0  0
 33 28  1  0  0  0  0
 34 35  1  0  0  0  0
 34 29  1  0  0  0  0
 36 34  1  0  0  0  0
 38 37  1  6  0  0  0
 38 42  1  0  0  0  0
 40 41  1  0  0  0  0
 40 39  1  0  0  0  0
 40 38  1  0  0  0  0
 41 39  1  0  0  0  0
 43 45  1  0  0  0  0
 44 42  1  6  0  0  0
 44 50  1  0  0  0  0
 44 46  1  0  0  0  0
 45 46  1  6  0  0  0
 45 49  1  0  0  0  0
 47 49  1  0  0  0  0
 47 54  1  1  0  0  0
 48 43  1  1  0  0  0
 48 47  1  0  0  0  0
 50 51  1  1  0  0  0
 50 48  1  0  0  0  0
 52 51  2  0  0  0  0
 53 51  1  0  0  0  0
 55 54  1  0  0  0  0
M  END
>  <MODEL>
6

>  <REMARK>
 VINA RESULT:      -5.8      3.373      8.927
  Name = 
  9 active torsions:
  status: ('A' for Active; 'I' for Inactive)
    1  A    between atoms: C_1  and  C_53
    2  A    between atoms: C_6  and  C_46
    3  A    between atoms: C_8  and  C_22
    4  A    between atoms: C_8  and  C_43
    5  A    between atoms: C_10  and  N_32
    6  A    between atoms: C_11  and  C_29
    7  A    between atoms: C_20  and  C_22
    8  A    between atoms: C_22  and  C_46
    9  A    between atoms: C_33  and  C_52
                            x       y       z     vdW  Elec       q    Type
                         _______ _______ _______ _____ _____    ______ ____

>  <TORSDO>
F 9

$$$$
=
 OpenBabel11052419253D

 55 62  0  0  1  0  0  0  0  0999 V2000
  189.2930  173.8240  144.5820 C   0  0  0  0  0  2  0  0  0  0  0  0
  194.2610  175.0950  145.0870 C   0  0  0  0  0  2  0  0  0  0  0  0
  192.4320  176.8920  146.7080 O   0  0  0  0  0  1  0  0  0  0  0  0
  189.0610  178.2350  148.7800 C   0  0  0  0  0  2  0  0  0  0  0  0
  187.7380  178.9760  148.7670 C   0  0  0  0  0  3  0  0  0  0  0  0
  189.0180  178.6790  146.2620 C   0  0  0  0  0  2  0  0  0  0  0  0
  186.7780  177.6220  146.8990 C   0  0  0  0  0  2  0  0  0  0  0  0
  190.8590  176.4700  145.1300 C   0  0  0  0  0  2  0  0  0  0  0  0
  186.7120  178.6990  147.9440 C   0  0  0  0  0  3  0  0  0  0  0  0
  189.0240  171.5940  143.6570 O   0  0  0  0  0  0  0  0  0  0  0  0
  189.6710  177.8850  147.4050 C   0  0  2  0  0  3  0  0  0  0  0  0
  191.7060  171.0400  143.7750 C   0  0  2  0  0  3  0  0  0  0  0  0
  189.5300  174.4930  145.9340 C   0  0  0  0  0  2  0  0  0  0  0  0
  191.2270  172.2350  144.6030 C   0  0  0  0  0  2  0  0  0  0  0  0
  188.2750  176.5690  145.2120 C   0  0  2  0  0  3  0  0  0  0  0  0
  193.8010  173.6810  144.9400 C   0  0  0  0  0  3  0  0  0  0  0  0
  187.7940  177.9120  145.7760 C   0  0  2  0  0  3  0  0  0  0  0  0
  193.1170  176.0350  144.7420 C   0  0  0  0  0  2  0  0  0  0  0  0
  192.0820  175.9840  145.7630 N   0  0  0  0  0  0  0  0  0  0  0  0
  189.6790  171.7490  142.4240 C   0  0  0  0  0  2  0  0  0  0  0  0
  194.6080  172.6130  144.9560 C   0  0  0  0  0  0  0  0  0  0  0  0
  189.6960  172.3570  144.6440 C   0  0  1  0  0  3  0  0  0  0  0  0
  189.6340  176.4650  147.2410 O   0  0  0  0  0  0  0  0  0  0  0  0
  189.5820  176.0290  145.8860 C   0  0  2  0  0  0  0  0  0  0  0  0
  194.0130  171.2400  144.8130 C   0  0  0  0  0  2  0  0  0  0  0  0
  193.2110  171.1120  143.5210 C   0  0  0  0  0  2  0  0  0  0  0  0
  190.9900  170.9670  142.4240 C   0  0  0  0  0  2  0  0  0  0  0  0
  186.8510  176.1040  143.2060 C   0  0  0  0  0  3  0  0  0  0  0  0
  187.2690  177.1670  141.0740 N   0  0  0  0  0  0  0  0  0  0  0  0
  188.6850  177.7940  142.9940 C   0  0  0  0  0  2  0  0  0  0  0  0
  188.6110  177.6030  141.4820 C   0  0  0  0  0  2  0  0  0  0  0  0
  186.4400  176.4090  141.9690 C   0  0  0  0  0  3  0  0  0  0  0  0
  188.2220  176.5050  143.6760 C   0  0  1  0  0  3  0  0  0  0  0  0
  186.8220  177.3200  139.6950 C   0  0  0  0  0  3  0  0  0  0  0  0
  187.0540  176.0500  138.9010 C   0  0  0  0  0  1  0  0  0  0  0  0
  185.3630  177.7110  139.6510 C   0  0  0  0  0  1  0  0  0  0  0  0
  196.0940  172.7700  145.1530 C   0  0  0  0  0  2  0  0  0  0  0  0
  196.9470  172.0400  144.1050 C   0  0  2  0  0  3  0  0  0  0  0  0
  197.1790  170.0610  145.5980 C   0  0  0  0  0  2  0  0  0  0  0  0
  197.9350  171.0830  144.7670 C   0  0  0  0  0  3  0  0  0  0  0  0
  197.7200  169.6750  144.2400 C   0  0  0  0  0  2  0  0  0  0  0  0
  197.6660  173.0240  143.1850 C   0  0  0  0  0  2  0  0  0  0  0  0
  194.1070  173.3480  141.2410 O   0  0  0  0  0  0  0  0  0  0  0  0
  196.8840  173.2520  141.9020 C   0  0  1  0  0  3  0  0  0  0  0  0
  194.8930  172.3690  140.6090 C   0  0  2  0  0  3  0  0  0  0  0  0
  196.0530  172.0010  141.5560 C   0  0  0  0  0  2  0  0  0  0  0  0
  195.3740  174.2960  139.5950 C   0  0  1  0  0  3  0  0  0  0  0  0
  194.8490  174.5050  141.0000 C   0  0  2  0  0  3  0  0  0  0  0  0
  195.4040  172.9050  139.4060 O   0  0  0  0  0  0  0  0  0  0  0  0
  196.0120  174.5240  142.0200 C   0  0  2  0  0  3  0  0  0  0  0  0
  196.8320  175.7770  141.9160 C   0  0  0  0  0  0  0  0  0  0  0  0
  197.9330  175.7740  141.3030 O   0  0  0  0  0  0  0  0  0  0  0  0
  196.3660  176.9510  142.4890 O   0  0  0  0  0  1  0  0  0  0  0  0
  194.4330  174.9410  138.5890 C   0  0  0  0  0  2  0  0  0  0  0  0
  195.1090  175.0440  137.2380 C   0  0  0  0  0  1  0  0  0  0  0  0
  1 13  1  0  0  0  0
  5  4  1  0  0  0  0
  7  9  1  0  0  0  0
  8 19  1  0  0  0  0
  9  5  2  0  0  0  0
 10 22  1  0  0  0  0
 11  6  1  6  0  0  0
 11  4  1  0  0  0  0
 12 27  1  6  0  0  0
 12 14  1  0  0  0  0
 14 22  1  0  0  0  0
 15 33  1  6  0  0  0
 15 17  1  0  0  0  0
 15 24  1  0  0  0  0
 16 21  2  0  0  0  0
 16  2  1  0  0  0  0
 17  6  1  1  0  0  0
 17  7  1  0  0  0  0
 18  2  1  0  0  0  0
 18 19  1  0  0  0  0
 19  3  1  0  0  0  0
 20 27  1  0  0  0  0
 20 10  1  0  0  0  0
 21 37  1  0  0  0  0
 22  1  1  6  0  0  0
 23 11  1  0  0  0  0
 24  8  1  6  0  0  0
 24 13  1  0  0  0  0
 24 23  1  0  0  0  0
 25 21  1  0  0  0  0
 26 12  1  0  0  0  0
 26 25  1  0  0  0  0
 28 33  1  0  0  0  0
 29 31  1  0  0  0  0
 29 32  1  0  0  0  0
 31 30  1  0  0  0  0
 32 28  2  0  0  0  0
 33 30  1  6  0  0  0
 34 29  1  0  0  0  0
 35 34  1  0  0  0  0
 36 34  1  0  0  0  0
 38 42  1  1  0  0  0
 38 40  1  0  0  0  0
 38 37  1  0  0  0  0
 40 39  1  0  0  0  0
 41 40  1  0  0  0  0
 41 39  1  0  0  0  0
 44 50  1  0  0  0  0
 44 42  1  1  0  0  0
 45 43  1  0  0  0  0
 45 46  1  1  0  0  0
 46 44  1  0  0  0  0
 47 54  1  6  0  0  0
 47 48  1  0  0  0  0
 48 43  1  1  0  0  0
 48 50  1  0  0  0  0
 49 47  1  0  0  0  0
 49 45  1  0  0  0  0
 50 51  1  6  0  0  0
 51 53  1  0  0  0  0
 52 51  2  0  0  0  0
 55 54  1  0  0  0  0
M  END
>  <MODEL>
7

>  <REMARK>
 VINA RESULT:      -5.8      3.130      5.165
  Name = 
  9 active torsions:
  status: ('A' for Active; 'I' for Inactive)
    1  A    between atoms: C_1  and  C_53
    2  A    between atoms: C_6  and  C_46
    3  A    between atoms: C_8  and  C_22
    4  A    between atoms: C_8  and  C_43
    5  A    between atoms: C_10  and  N_32
    6  A    between atoms: C_11  and  C_29
    7  A    between atoms: C_20  and  C_22
    8  A    between atoms: C_22  and  C_46
    9  A    between atoms: C_33  and  C_52
                            x       y       z     vdW  Elec       q    Type
                         _______ _______ _______ _____ _____    ______ ____

>  <TORSDO>
F 9

$$$$
=
 OpenBabel11052419253D

 55 62  0  0  1  0  0  0  0  0999 V2000
  191.5370  175.8600  142.9670 C   0  0  0  0  0  2  0  0  0  0  0  0
  192.7800  171.1540  144.6590 C   0  0  0  0  0  2  0  0  0  0  0  0
  191.2700  171.0820  142.0280 O   0  0  0  0  0  1  0  0  0  0  0  0
  189.6800  172.3210  138.3680 C   0  0  0  0  0  2  0  0  0  0  0  0
  188.5310  172.9360  137.5930 C   0  0  0  0  0  3  0  0  0  0  0  0
  188.2310  172.8650  140.4040 C   0  0  0  0  0  2  0  0  0  0  0  0
  188.4290  174.9960  139.0040 C   0  0  0  0  0  2  0  0  0  0  0  0
  190.2870  173.0100  142.7060 C   0  0  0  0  0  2  0  0  0  0  0  0
  187.9800  174.1320  137.8590 C   0  0  0  0  0  3  0  0  0  0  0  0
  192.8260  177.5890  144.0860 O   0  0  0  0  0  0  0  0  0  0  0  0
  189.6270  172.4570  139.9060 C   0  0  2  0  0  3  0  0  0  0  0  0
  194.4300  175.7850  145.3860 C   0  0  2  0  0  3  0  0  0  0  0  0
  191.6720  174.8970  141.7900 C   0  0  0  0  0  2  0  0  0  0  0  0
  193.6230  175.2410  144.2040 C   0  0  0  0  0  2  0  0  0  0  0  0
  189.1750  174.9300  141.3770 C   0  0  2  0  0  3  0  0  0  0  0  0
  193.6650  172.3420  144.8540 C   0  0  0  0  0  3  0  0  0  0  0  0
  188.1360  174.3860  140.3890 C   0  0  2  0  0  3  0  0  0  0  0  0
  191.4040  171.6200  144.2110 C   0  0  0  0  0  2  0  0  0  0  0  0
  191.4530  172.1430  142.8540 N   0  0  0  0  0  0  0  0  0  0  0  0
  192.4470  177.3660  145.4200 C   0  0  0  0  0  2  0  0  0  0  0  0
  194.8650  172.3070  145.4470 C   0  0  0  0  0  0  0  0  0  0  0  0
  192.9100  176.3460  143.4090 C   0  0  1  0  0  3  0  0  0  0  0  0
  190.6850  173.3250  140.3190 O   0  0  0  0  0  0  0  0  0  0  0  0
  190.4370  174.0160  141.5400 C   0  0  2  0  0  0  0  0  0  0  0  0
  195.6640  173.5750  145.5660 C   0  0  0  0  0  2  0  0  0  0  0  0
  194.8850  174.6550  146.3090 C   0  0  0  0  0  2  0  0  0  0  0  0
  193.6180  176.7870  146.2100 C   0  0  0  0  0  2  0  0  0  0  0  0
  189.0390  176.8630  142.9640 C   0  0  0  0  0  3  0  0  0  0  0  0
  187.0610  177.2850  144.2890 N   0  0  0  0  0  0  0  0  0  0  0  0
  187.0220  175.4070  142.6900 C   0  0  0  0  0  2  0  0  0  0  0  0
  186.5220  175.9450  144.0270 C   0  0  0  0  0  2  0  0  0  0  0  0
  188.3290  177.6850  143.7450 C   0  0  0  0  0  3  0  0  0  0  0  0
  188.5510  175.4700  142.6760 C   0  0  1  0  0  3  0  0  0  0  0  0
  186.4250  178.1700  145.2580 C   0  0  0  0  0  3  0  0  0  0  0  0
  185.4030  179.0680  144.5890 C   0  0  0  0  0  1  0  0  0  0  0  0
  185.7790  177.3680  146.3640 C   0  0  0  0  0  1  0  0  0  0  0  0
  195.4370  171.0090  145.9590 C   0  0  0  0  0  2  0  0  0  0  0  0
  196.4360  170.3430  145.0010 C   0  0  2  0  0  3  0  0  0  0  0  0
  196.9730  168.1740  146.0990 C   0  0  0  0  0  2  0  0  0  0  0  0
  197.4980  169.5600  145.7690 C   0  0  0  0  0  3  0  0  0  0  0  0
  197.9410  168.3580  144.9540 C   0  0  0  0  0  2  0  0  0  0  0  0
  197.0760  171.3620  144.0610 C   0  0  0  0  0  2  0  0  0  0  0  0
  194.2160  170.9150  141.2030 O   0  0  0  0  0  0  0  0  0  0  0  0
  196.6910  171.0970  142.6150 C   0  0  1  0  0  3  0  0  0  0  0  0
  195.0450  169.7810  141.2100 C   0  0  2  0  0  3  0  0  0  0  0  0
  195.8690  169.7980  142.5130 C   0  0  0  0  0  2  0  0  0  0  0  0
  195.9620  171.2070  139.7610 C   0  0  1  0  0  3  0  0  0  0  0  0
  195.1020  171.9110  140.7900 C   0  0  2  0  0  3  0  0  0  0  0  0
  195.9090  169.8430  140.0940 O   0  0  0  0  0  0  0  0  0  0  0  0
  195.9450  172.3150  142.0220 C   0  0  2  0  0  3  0  0  0  0  0  0
  196.8780  173.4500  141.7190 C   0  0  0  0  0  0  0  0  0  0  0  0
  197.9320  173.2550  141.0560 O   0  0  0  0  0  0  0  0  0  0  0  0
  196.5700  174.7280  142.1610 O   0  0  0  0  0  1  0  0  0  0  0  0
  195.3910  171.4290  138.3690 C   0  0  0  0  0  2  0  0  0  0  0  0
  196.3280  172.2980  137.5550 C   0  0  0  0  0  1  0  0  0  0  0  0
  2 16  1  0  0  0  0
  3 19  1  0  0  0  0
  5  9  2  0  0  0  0
  5  4  1  0  0  0  0
  8 19  1  0  0  0  0
  9  7  1  0  0  0  0
 10 20  1  0  0  0  0
 11  4  1  6  0  0  0
 11 23  1  0  0  0  0
 11  6  1  0  0  0  0
 12 14  1  6  0  0  0
 12 27  1  0  0  0  0
 12 26  1  0  0  0  0
 13  1  1  0  0  0  0
 15 24  1  0  0  0  0
 15 33  1  1  0  0  0
 16 21  2  0  0  0  0
 17  7  1  6  0  0  0
 17  6  1  0  0  0  0
 17 15  1  0  0  0  0
 18  2  1  0  0  0  0
 19 18  1  0  0  0  0
 20 27  1  0  0  0  0
 21 25  1  0  0  0  0
 21 37  1  0  0  0  0
 22  1  1  1  0  0  0
 22 10  1  0  0  0  0
 22 14  1  0  0  0  0
 23 24  1  0  0  0  0
 24 13  1  1  0  0  0
 24  8  1  0  0  0  0
 25 26  1  0  0  0  0
 28 32  2  0  0  0  0
 29 34  1  0  0  0  0
 30 31  1  0  0  0  0
 31 29  1  0  0  0  0
 32 29  1  0  0  0  0
 33 30  1  6  0  0  0
 33 28  1  0  0  0  0
 34 36  1  0  0  0  0
 35 34  1  0  0  0  0
 38 42  1  1  0  0  0
 38 40  1  0  0  0  0
 38 37  1  0  0  0  0
 40 39  1  0  0  0  0
 41 40  1  0  0  0  0
 41 39  1  0  0  0  0
 43 45  1  0  0  0  0
 44 42  1  1  0  0  0
 45 46  1  1  0  0  0
 46 44  1  0  0  0  0
 47 54  1  6  0  0  0
 47 49  1  0  0  0  0
 47 48  1  0  0  0  0
 48 43  1  1  0  0  0
 48 50  1  0  0  0  0
 49 45  1  0  0  0  0
 50 51  1  6  0  0  0
 50 44  1  0  0  0  0
 51 53  1  0  0  0  0
 52 51  2  0  0  0  0
 55 54  1  0  0  0  0
M  END
>  <MODEL>
8

>  <REMARK>
 VINA RESULT:      -5.6      3.400      6.951
  Name = 
  9 active torsions:
  status: ('A' for Active; 'I' for Inactive)
    1  A    between atoms: C_1  and  C_53
    2  A    between atoms: C_6  and  C_46
    3  A    between atoms: C_8  and  C_22
    4  A    between atoms: C_8  and  C_43
    5  A    between atoms: C_10  and  N_32
    6  A    between atoms: C_11  and  C_29
    7  A    between atoms: C_20  and  C_22
    8  A    between atoms: C_22  and  C_46
    9  A    between atoms: C_33  and  C_52
                            x       y       z     vdW  Elec       q    Type
                         _______ _______ _______ _____ _____    ______ ____

>  <TORSDO>
F 9

$$$$
=
 OpenBabel11052419253D

 55 62  0  0  1  0  0  0  0  0999 V2000
  191.5860  176.5080  143.8820 C   0  0  0  0  0  2  0  0  0  0  0  0
  191.8830  171.3840  144.3300 C   0  0  0  0  0  2  0  0  0  0  0  0
  189.9940  172.2490  142.1190 O   0  0  0  0  0  1  0  0  0  0  0  0
  188.1880  174.6200  139.1900 C   0  0  0  0  0  2  0  0  0  0  0  0
  187.1170  175.6240  138.8110 C   0  0  0  0  0  3  0  0  0  0  0  0
  187.2700  174.9530  141.5540 C   0  0  0  0  0  2  0  0  0  0  0  0
  187.7590  177.2670  140.5810 C   0  0  0  0  0  2  0  0  0  0  0  0
  189.6440  174.1220  143.3490 C   0  0  0  0  0  2  0  0  0  0  0  0
  186.9300  176.8100  139.4140 C   0  0  0  0  0  3  0  0  0  0  0  0
  193.4280  177.6190  145.0120 O   0  0  0  0  0  0  0  0  0  0  0  0
  188.4210  174.3960  140.7000 C   0  0  2  0  0  3  0  0  0  0  0  0
  194.7240  175.2680  145.5680 C   0  0  2  0  0  3  0  0  0  0  0  0
  191.2850  175.8450  142.5400 C   0  0  0  0  0  2  0  0  0  0  0  0
  193.6260  175.1980  144.5030 C   0  0  0  0  0  2  0  0  0  0  0  0
  188.8420  176.4880  142.6830 C   0  0  2  0  0  3  0  0  0  0  0  0
  193.0540  172.2820  144.5580 C   0  0  0  0  0  3  0  0  0  0  0  0
  187.5540  176.4200  141.8530 C   0  0  2  0  0  3  0  0  0  0  0  0
  190.6110  172.2160  144.2840 C   0  0  0  0  0  2  0  0  0  0  0  0
  190.5670  173.0230  143.0750 N   0  0  0  0  0  0  0  0  0  0  0  0
  193.2270  177.1700  146.3280 C   0  0  0  0  0  2  0  0  0  0  0  0
  194.2880  171.8610  144.8630 C   0  0  0  0  0  0  0  0  0  0  0  0
  193.0900  176.5820  144.1070 C   0  0  1  0  0  3  0  0  0  0  0  0
  189.7140  174.9040  141.0390 O   0  0  0  0  0  0  0  0  0  0  0  0
  189.8470  175.3220  142.3940 C   0  0  2  0  0  0  0  0  0  0  0  0
  195.3840  172.8720  145.0510 C   0  0  0  0  0  2  0  0  0  0  0  0
  195.0280  173.8830  146.1380 C   0  0  0  0  0  2  0  0  0  0  0  0
  194.3300  176.1910  146.7230 C   0  0  0  0  0  2  0  0  0  0  0  0
  187.7510  178.0630  144.2960 C   0  0  0  0  0  3  0  0  0  0  0  0
  187.0220  177.3390  146.4850 N   0  0  0  0  0  0  0  0  0  0  0  0
  187.9870  175.6610  144.9570 C   0  0  0  0  0  2  0  0  0  0  0  0
  187.8050  176.0990  146.4070 C   0  0  0  0  0  2  0  0  0  0  0  0
  187.0430  178.2910  145.4090 C   0  0  0  0  0  3  0  0  0  0  0  0
  188.5900  176.8220  144.1640 C   0  0  1  0  0  3  0  0  0  0  0  0
  186.3610  177.7280  147.7260 C   0  0  0  0  0  3  0  0  0  0  0  0
  187.0770  178.8910  148.3840 C   0  0  0  0  0  1  0  0  0  0  0  0
  184.9130  178.0760  147.4690 C   0  0  0  0  0  1  0  0  0  0  0  0
  194.5950  170.3900  144.9820 C   0  0  0  0  0  2  0  0  0  0  0  0
  194.9540  169.7150  143.6490 C   0  0  2  0  0  3  0  0  0  0  0  0
  196.9750  168.3330  144.1020 C   0  0  0  0  0  2  0  0  0  0  0  0
  195.4740  168.2980  143.8720 C   0  0  0  0  0  3  0  0  0  0  0  0
  196.0380  168.1700  145.2760 C   0  0  0  0  0  2  0  0  0  0  0  0
  195.9540  170.5490  142.8510 C   0  0  0  0  0  2  0  0  0  0  0  0
  193.0340  172.6270  140.9250 O   0  0  0  0  0  0  0  0  0  0  0  0
  195.3370  171.0620  141.5600 C   0  0  1  0  0  3  0  0  0  0  0  0
  193.1030  171.3270  140.3970 C   0  0  2  0  0  3  0  0  0  0  0  0
  193.9320  170.4590  141.3650 C   0  0  0  0  0  2  0  0  0  0  0  0
  194.4920  172.5660  139.1690 C   0  0  1  0  0  3  0  0  0  0  0  0
  194.2720  173.1510  140.5480 C   0  0  2  0  0  3  0  0  0  0  0  0
  193.7370  171.3820  139.1360 O   0  0  0  0  0  0  0  0  0  0  0  0
  195.3220  172.6090  141.5460 C   0  0  2  0  0  3  0  0  0  0  0  0
  196.6860  173.1800  141.2930 C   0  0  0  0  0  0  0  0  0  0  0  0
  197.5210  172.5580  140.5810 O   0  0  0  0  0  0  0  0  0  0  0  0
  197.0280  174.4090  141.8380 O   0  0  0  0  0  1  0  0  0  0  0  0
  193.9930  173.5350  138.1090 C   0  0  0  0  0  2  0  0  0  0  0  0
  194.4950  174.9330  138.4060 C   0  0  0  0  0  1  0  0  0  0  0  0
  2 16  1  0  0  0  0
  3 19  1  0  0  0  0
  5  4  1  0  0  0  0
  5  9  2  0  0  0  0
  6 17  1  0  0  0  0
  9  7  1  0  0  0  0
 10 20  1  0  0  0  0
 11  4  1  6  0  0  0
 11 23  1  0  0  0  0
 11  6  1  0  0  0  0
 12 14  1  6  0  0  0
 12 26  1  0  0  0  0
 12 27  1  0  0  0  0
 13  1  1  0  0  0  0
 15 33  1  1  0  0  0
 16 21  2  0  0  0  0
 17  7  1  6  0  0  0
 17 15  1  0  0  0  0
 18  2  1  0  0  0  0
 19  8  1  0  0  0  0
 19 18  1  0  0  0  0
 20 27  1  0  0  0  0
 21 37  1  0  0  0  0
 21 25  1  0  0  0  0
 22  1  1  1  0  0  0
 22 14  1  0  0  0  0
 22 10  1  0  0  0  0
 23 24  1  0  0  0  0
 24 13  1  1  0  0  0
 24 15  1  0  0  0  0
 24  8  1  0  0  0  0
 25 26  1  0  0  0  0
 28 32  2  0  0  0  0
 29 34  1  0  0  0  0
 30 31  1  0  0  0  0
 31 29  1  0  0  0  0
 32 29  1  0  0  0  0
 33 28  1  6  0  0  0
 33 30  1  0  0  0  0
 34 35  1  0  0  0  0
 36 34  1  0  0  0  0
 38 42  1  1  0  0  0
 38 40  1  0  0  0  0
 38 37  1  0  0  0  0
 39 41  1  0  0  0  0
 40 39  1  0  0  0  0
 40 41  1  0  0  0  0
 44 42  1  1  0  0  0
 45 43  1  0  0  0  0
 45 46  1  1  0  0  0
 46 44  1  0  0  0  0
 47 54  1  6  0  0  0
 47 48  1  0  0  0  0
 48 43  1  1  0  0  0
 48 50  1  0  0  0  0
 49 47  1  0  0  0  0
 49 45  1  0  0  0  0
 50 51  1  6  0  0  0
 50 44  1  0  0  0  0
 51 53  1  0  0  0  0
 52 51  2  0  0  0  0
 54 55  1  0  0  0  0
M  END
>  <MODEL>
9

>  <REMARK>
 VINA RESULT:      -5.3      3.265      6.542
  Name = 
  9 active torsions:
  status: ('A' for Active; 'I' for Inactive)
    1  A    between atoms: C_1  and  C_53
    2  A    between atoms: C_6  and  C_46
    3  A    between atoms: C_8  and  C_22
    4  A    between atoms: C_8  and  C_43
    5  A    between atoms: C_10  and  N_32
    6  A    between atoms: C_11  and  C_29
    7  A    between atoms: C_20  and  C_22
    8  A    between atoms: C_22  and  C_46
    9  A    between atoms: C_33  and  C_52
                            x       y       z     vdW  Elec       q    Type
                         _______ _______ _______ _____ _____    ______ ____

>  <TORSDO>
F 9

$$$$
