=
 OpenBabel11052420343D

 34 40  0  0  1  0  0  0  0  0999 V2000
  189.1410  174.8920  144.2880 C   0  0  1  0  0  3  0  0  0  0  0  0
  192.6460  174.0310  145.3240 C   0  0  0  0  0  3  0  0  0  0  0  0
  185.1100  178.2600  143.7820 C   0  0  0  0  0  2  0  0  0  0  0  0
  191.1420  172.7530  143.9050 C   0  0  0  0  0  2  0  0  0  0  0  0
  186.1320  177.6200  141.0140 C   0  0  0  0  0  2  0  0  0  0  0  0
  181.9750  178.5810  141.6740 C   0  0  0  0  0  0  0  0  0  0  0  0
  187.7670  176.3320  142.6180 C   0  0  2  0  0  0  0  0  0  0  0  0
  188.1640  176.0760  144.0880 C   0  0  0  0  0  2  0  0  0  0  0  0
  188.3150  174.0410  141.9690 C   0  0  0  0  0  0  0  0  0  0  0  0
  188.6790  172.9320  141.0430 C   0  0  0  0  0  3  0  0  0  0  0  0
  182.8650  178.6000  142.7550 C   0  0  0  0  0  3  0  0  0  0  0  0
  184.2170  178.2940  142.5730 C   0  0  0  0  0  0  0  0  0  0  0  0
  187.7180  175.1810  141.6450 C   0  0  0  0  0  2  0  0  0  0  0  0
  188.4630  177.5520  142.0330 C   0  0  0  0  0  2  0  0  0  0  0  0
  189.9490  172.9260  143.0070 C   0  0  0  0  0  0  0  0  0  0  0  0
  189.0660  173.8840  143.1870 C   0  0  1  0  0  3  0  0  0  0  0  0
  189.7870  172.2780  141.7460 N   0  0  0  0  0  0  0  0  0  0  0  0
  193.0890  175.1690  146.1810 C   0  0  0  0  0  2  0  0  0  0  0  0
  193.3590  176.3940  145.3680 C   0  0  0  0  0  0  0  0  0  0  0  0
  183.7950  177.9170  140.2110 C   0  0  0  0  0  3  0  0  0  0  0  0
  192.3780  177.0050  144.6970 C   0  0  0  0  0  3  0  0  0  0  0  0
  184.6850  177.9330  141.2870 C   0  0  0  0  0  0  0  0  0  0  0  0
  182.4480  178.2380  140.4010 C   0  0  0  0  0  3  0  0  0  0  0  0
  186.9690  177.5870  142.2920 C   0  0  1  0  0  0  0  0  0  0  0  0
  186.5670  178.5210  143.4230 C   0  0  0  0  0  2  0  0  0  0  0  0
  191.5250  174.0460  144.6010 C   0  0  0  0  0  0  0  0  0  0  0  0
  190.9960  176.5050  144.5470 C   0  0  0  0  0  3  0  0  0  0  0  0
  190.5920  175.2230  144.5510 C   0  0  0  0  0  0  0  0  0  0  0  0
  194.7070  176.9870  145.4010 C   0  0  0  0  0  0  0  0  0  0  0  0
  195.7130  176.4750  144.5910 O   0  0  0  0  0  0  0  0  0  0  0  0
  194.9610  177.9640  146.1560 O   0  0  0  0  0  1  0  0  0  0  0  0
  180.5930  178.9050  141.8690 N   0  0  0  0  0  0  0  0  0  0  0  0
  180.1500  179.3230  143.0780 O   0  0  0  0  0  0  0  0  0  0  0  0
  179.7120  178.7960  140.8460 O   0  0  0  0  0  0  0  0  0  0  0  0
  1  8  1  6  0  0  0
  1 28  1  0  0  0  0
  2 18  1  0  0  0  0
  4 26  1  0  0  0  0
  5 22  1  0  0  0  0
  6 32  1  0  0  0  0
  6 11  1  0  0  0  0
  7 13  1  6  0  0  0
  7  8  1  0  0  0  0
 10 17  1  0  0  0  0
 10  9  2  0  0  0  0
 12 11  2  0  0  0  0
 12  3  1  0  0  0  0
 13  9  1  0  0  0  0
 14 24  1  0  0  0  0
 14  7  1  0  0  0  0
 15 16  1  0  0  0  0
 15  4  1  0  0  0  0
 16  9  1  6  0  0  0
 16  1  1  0  0  0  0
 17 15  2  0  0  0  0
 19 29  1  0  0  0  0
 19 18  1  0  0  0  0
 20 23  1  0  0  0  0
 20 22  2  0  0  0  0
 21 19  2  0  0  0  0
 22 12  1  0  0  0  0
 23  6  2  0  0  0  0
 24  5  1  6  0  0  0
 24  7  1  0  0  0  0
 24 25  1  0  0  0  0
 25  3  1  0  0  0  0
 26  2  2  0  0  0  0
 27 28  2  0  0  0  0
 27 21  1  0  0  0  0
 28 26  1  0  0  0  0
 29 31  1  0  0  0  0
 30 29  2  0  0  0  0
 32 33  2  0  0  0  0
 34 32  2  0  0  0  0
M  END
>  <MODEL>
1

>  <REMARK>
 VINA RESULT:      -9.2      0.000      0.000
  Name = 
  2 active torsions:
  status: ('A' for Active; 'I' for Inactive)
    1  A    between atoms: C_3  and  C_25
    2  A    between atoms: C_7  and  N_11
                            x       y       z     vdW  Elec       q    Type
                         _______ _______ _______ _____ _____    ______ ____

>  <TORSDO>
F 2

$$$$
=
 OpenBabel11052420343D

 34 40  0  0  1  0  0  0  0  0999 V2000
  189.1970  176.8330  143.1210 C   0  0  1  0  0  3  0  0  0  0  0  0
  186.0590  178.8940  143.0580 C   0  0  0  0  0  3  0  0  0  0  0  0
  193.1870  174.4700  145.6380 C   0  0  0  0  0  2  0  0  0  0  0  0
  187.0020  177.5390  141.2740 C   0  0  0  0  0  2  0  0  0  0  0  0
  191.3900  172.3130  144.5270 C   0  0  0  0  0  2  0  0  0  0  0  0
  195.6310  171.6460  144.9870 C   0  0  0  0  0  0  0  0  0  0  0  0
  190.1650  174.5550  143.9080 C   0  0  2  0  0  0  0  0  0  0  0  0
  190.1720  176.0910  144.0670 C   0  0  0  0  0  2  0  0  0  0  0  0
  189.2760  174.6940  141.6360 C   0  0  0  0  0  0  0  0  0  0  0  0
  188.5820  174.2160  140.4080 C   0  0  0  0  0  3  0  0  0  0  0  0
  195.0790  172.8680  145.3900 C   0  0  0  0  0  3  0  0  0  0  0  0
  193.7100  173.1140  145.2550 C   0  0  0  0  0  0  0  0  0  0  0  0
  189.8490  173.9420  142.5670 C   0  0  0  0  0  2  0  0  0  0  0  0
  189.4350  173.8570  145.0470 C   0  0  0  0  0  2  0  0  0  0  0  0
  187.9090  176.3620  141.0520 C   0  0  0  0  0  0  0  0  0  0  0  0
  188.8820  176.0560  141.8830 C   0  0  1  0  0  3  0  0  0  0  0  0
  187.6630  175.3190  140.1100 N   0  0  0  0  0  0  0  0  0  0  0  0
  185.9630  179.5000  144.4180 C   0  0  0  0  0  2  0  0  0  0  0  0
  185.5780  178.4840  145.4440 C   0  0  0  0  0  0  0  0  0  0  0  0
  193.4290  170.9080  144.2760 C   0  0  0  0  0  3  0  0  0  0  0  0
  186.3810  177.4530  145.7280 C   0  0  0  0  0  3  0  0  0  0  0  0
  192.8760  172.1270  144.6760 C   0  0  0  0  0  0  0  0  0  0  0  0
  194.7970  170.6680  144.4290 C   0  0  0  0  0  3  0  0  0  0  0  0
  190.9400  173.7200  144.9190 C   0  0  1  0  0  0  0  0  0  0  0  0
  191.7130  174.4270  146.0210 C   0  0  0  0  0  2  0  0  0  0  0  0
  186.9330  177.9390  142.7360 C   0  0  0  0  0  0  0  0  0  0  0  0
  187.6220  177.1040  145.0070 C   0  0  0  0  0  3  0  0  0  0  0  0
  187.9070  177.3490  143.7170 C   0  0  0  0  0  0  0  0  0  0  0  0
  184.3450  178.6900  146.2220 C   0  0  0  0  0  0  0  0  0  0  0  0
  184.3590  178.5370  147.6030 O   0  0  0  0  0  1  0  0  0  0  0  0
  183.2690  179.0100  145.6490 O   0  0  0  0  0  0  0  0  0  0  0  0
  197.0340  171.3990  145.1380 N   0  0  0  0  0  0  0  0  0  0  0  0
  197.9410  172.2580  144.6160 O   0  0  0  0  0  0  0  0  0  0  0  0
  197.4710  170.3040  145.8040 O   0  0  0  0  0  0  0  0  0  0  0  0
  1 28  1  0  0  0  0
  1  8  1  1  0  0  0
  2 18  1  0  0  0  0
  3 25  1  0  0  0  0
  4 26  1  0  0  0  0
  5 22  1  0  0  0  0
  6 32  1  0  0  0  0
  6 11  1  0  0  0  0
  7 13  1  6  0  0  0
  7  8  1  0  0  0  0
  7 24  1  0  0  0  0
  7 14  1  0  0  0  0
  9 16  1  0  0  0  0
  9 13  1  0  0  0  0
 10  9  2  0  0  0  0
 12 11  2  0  0  0  0
 12  3  1  0  0  0  0
 15  4  1  0  0  0  0
 16 15  1  1  0  0  0
 16  1  1  0  0  0  0
 17 10  1  0  0  0  0
 17 15  2  0  0  0  0
 18 19  1  0  0  0  0
 19 21  2  0  0  0  0
 19 29  1  0  0  0  0
 20 23  1  0  0  0  0
 20 22  2  0  0  0  0
 22 12  1  0  0  0  0
 23  6  2  0  0  0  0
 24  5  1  6  0  0  0
 24 14  1  0  0  0  0
 24 25  1  0  0  0  0
 26  2  2  0  0  0  0
 26 28  1  0  0  0  0
 27 21  1  0  0  0  0
 28 27  2  0  0  0  0
 29 30  1  0  0  0  0
 31 29  2  0  0  0  0
 32 34  2  0  0  0  0
 33 32  2  0  0  0  0
M  END
>  <MODEL>
2

>  <REMARK>
 VINA RESULT:      -9.1      3.036      9.789
  Name = 
  2 active torsions:
  status: ('A' for Active; 'I' for Inactive)
    1  A    between atoms: C_3  and  C_25
    2  A    between atoms: C_7  and  N_11
                            x       y       z     vdW  Elec       q    Type
                         _______ _______ _______ _____ _____    ______ ____

>  <TORSDO>
F 2

$$$$
=
 OpenBabel11052420343D

 34 40  0  0  1  0  0  0  0  0999 V2000
  189.3390  174.9020  145.7250 C   0  0  1  0  0  3  0  0  0  0  0  0
  186.4600  177.1270  144.7950 C   0  0  0  0  0  3  0  0  0  0  0  0
  192.8880  171.1520  144.6380 C   0  0  0  0  0  2  0  0  0  0  0  0
  187.9280  177.2970  146.7250 C   0  0  0  0  0  2  0  0  0  0  0  0
  194.3700  173.7640  144.9430 C   0  0  0  0  0  2  0  0  0  0  0  0
  196.2560  170.0150  145.9560 C   0  0  0  0  0  0  0  0  0  0  0  0
  191.8400  174.4230  145.2090 C   0  0  2  0  0  0  0  0  0  0  0  0
  190.3820  173.9180  145.1410 C   0  0  0  0  0  2  0  0  0  0  0  0
  191.3240  175.9660  147.0330 C   0  0  0  0  0  0  0  0  0  0  0  0
  191.5120  177.1500  147.9170 C   0  0  0  0  0  2  0  0  0  0  0  0
  194.9510  170.0130  145.4480 C   0  0  0  0  0  3  0  0  0  0  0  0
  194.3140  171.2110  145.1100 C   0  0  0  0  0  0  0  0  0  0  0  0
  192.2600  175.3490  146.3230 C   0  0  0  0  0  2  0  0  0  0  0  0
  192.3590  174.8810  143.8540 C   0  0  0  0  0  2  0  0  0  0  0  0
  189.3030  176.9060  147.1890 C   0  0  0  0  0  0  0  0  0  0  0  0
  189.9220  175.8380  146.7340 C   0  0  0  0  0  0  0  0  0  0  0  0
  190.1770  177.7550  147.9320 N   0  0  0  0  0  0  0  0  0  0  0  0
  185.9280  176.5640  143.5200 C   0  0  0  0  0  2  0  0  0  0  0  0
  186.8460  176.8450  142.3740 C   0  0  0  0  0  0  0  0  0  0  0  0
  196.2870  172.4390  145.8160 C   0  0  0  0  0  3  0  0  0  0  0  0
  188.0780  176.3280  142.3350 C   0  0  0  0  0  3  0  0  0  0  0  0
  194.9840  172.4410  145.3120 C   0  0  0  0  0  0  0  0  0  0  0  0
  196.9200  171.2360  146.1380 C   0  0  0  0  0  3  0  0  0  0  0  0
  192.9170  173.6220  144.4910 C   0  0  1  0  0  0  0  0  0  0  0  0
  192.5250  172.3450  143.7640 C   0  0  0  0  0  2  0  0  0  0  0  0
  187.6070  176.7350  145.3530 C   0  0  0  0  0  0  0  0  0  0  0  0
  188.7300  175.5730  143.4240 C   0  0  0  0  0  3  0  0  0  0  0  0
  188.5070  175.6960  144.7440 C   0  0  0  0  0  0  0  0  0  0  0  0
  186.3370  177.6150  141.2260 C   0  0  0  0  0  0  0  0  0  0  0  0
  185.3370  178.5620  141.4120 O   0  0  0  0  0  1  0  0  0  0  0  0
  186.8010  177.4280  140.0690 O   0  0  0  0  0  0  0  0  0  0  0  0
  196.9050  168.7830  146.2900 N   0  0  0  0  0  0  0  0  0  0  0  0
  197.7110  168.1660  145.3940 O   0  0  0  0  0  0  0  0  0  0  0  0
  196.7200  168.2180  147.5080 O   0  0  0  0  0  0  0  0  0  0  0  0
  1  8  1  6  0  0  0
  1 16  1  0  0  0  0
  2 26  2  0  0  0  0
  3 12  1  0  0  0  0
  4 15  1  0  0  0  0
  5 22  1  0  0  0  0
  6 23  1  0  0  0  0
  6 32  1  0  0  0  0
  7 14  1  6  0  0  0
  7 13  1  0  0  0  0
  8  7  1  0  0  0  0
  9 10  1  0  0  0  0
 10 17  1  0  0  0  0
 11  6  2  0  0  0  0
 12 22  2  0  0  0  0
 12 11  1  0  0  0  0
 13  9  1  0  0  0  0
 14 24  1  0  0  0  0
 15 17  2  0  0  0  0
 16  9  2  0  0  0  0
 16 15  1  0  0  0  0
 18  2  1  0  0  0  0
 19 18  1  0  0  0  0
 20 23  2  0  0  0  0
 21 19  2  0  0  0  0
 21 27  1  0  0  0  0
 22 20  1  0  0  0  0
 24 25  1  6  0  0  0
 24  5  1  0  0  0  0
 24  7  1  0  0  0  0
 25  3  1  0  0  0  0
 26  4  1  0  0  0  0
 27 28  2  0  0  0  0
 28 26  1  0  0  0  0
 28  1  1  0  0  0  0
 29 30  1  0  0  0  0
 29 19  1  0  0  0  0
 31 29  2  0  0  0  0
 32 34  2  0  0  0  0
 33 32  2  0  0  0  0
M  END
>  <MODEL>
3

>  <REMARK>
 VINA RESULT:      -8.9      4.098     10.662
  Name = 
  2 active torsions:
  status: ('A' for Active; 'I' for Inactive)
    1  A    between atoms: C_3  and  C_25
    2  A    between atoms: C_7  and  N_11
                            x       y       z     vdW  Elec       q    Type
                         _______ _______ _______ _____ _____    ______ ____

>  <TORSDO>
F 2

$$$$
=
 OpenBabel11052420343D

 34 40  0  0  1  0  0  0  0  0999 V2000
  189.4880  174.0820  143.7710 C   0  0  1  0  0  3  0  0  0  0  0  0
  192.9230  172.8900  144.7100 C   0  0  0  0  0  3  0  0  0  0  0  0
  185.6200  177.6700  143.7870 C   0  0  0  0  0  2  0  0  0  0  0  0
  191.4080  171.9540  143.0560 C   0  0  0  0  0  2  0  0  0  0  0  0
  186.6920  177.4810  140.9710 C   0  0  0  0  0  2  0  0  0  0  0  0
  182.5620  178.5030  141.7060 C   0  0  0  0  0  0  0  0  0  0  0  0
  188.2250  175.8560  142.3540 C   0  0  2  0  0  0  0  0  0  0  0  0
  188.5690  175.3270  143.7640 C   0  0  0  0  0  2  0  0  0  0  0  0
  188.6940  173.6920  141.3210 C   0  0  0  0  0  0  0  0  0  0  0  0
  189.0370  172.7480  140.2210 C   0  0  0  0  0  3  0  0  0  0  0  0
  183.4210  178.2900  142.7900 C   0  0  0  0  0  3  0  0  0  0  0  0
  184.7640  177.9580  142.5850 C   0  0  0  0  0  0  0  0  0  0  0  0
  188.1560  174.8980  141.1920 C   0  0  0  0  0  2  0  0  0  0  0  0
  188.9880  177.1260  142.0090 C   0  0  0  0  0  2  0  0  0  0  0  0
  190.2500  172.3370  142.1780 C   0  0  0  0  0  0  0  0  0  0  0  0
  189.4020  173.2880  142.5070 C   0  0  1  0  0  3  0  0  0  0  0  0
  190.0960  171.9300  140.8190 N   0  0  0  0  0  0  0  0  0  0  0  0
  193.3900  173.8370  145.7640 C   0  0  0  0  0  2  0  0  0  0  0  0
  193.7340  175.1720  145.1860 C   0  0  0  0  0  0  0  0  0  0  0  0
  184.3930  178.0240  140.1850 C   0  0  0  0  0  3  0  0  0  0  0  0
  192.7990  175.9370  144.6140 C   0  0  0  0  0  3  0  0  0  0  0  0
  185.2520  177.8080  141.2650 C   0  0  0  0  0  0  0  0  0  0  0  0
  183.0570  178.3680  140.4020 C   0  0  0  0  0  3  0  0  0  0  0  0
  187.4900  177.1850  142.2390 C   0  0  1  0  0  0  0  0  0  0  0  0
  187.0960  177.9220  143.5100 C   0  0  0  0  0  2  0  0  0  0  0  0
  191.8250  173.0840  143.9780 C   0  0  0  0  0  0  0  0  0  0  0  0
  191.4030  175.5370  144.3490 C   0  0  0  0  0  3  0  0  0  0  0  0
  190.9440  174.2940  144.1180 C   0  0  0  0  0  0  0  0  0  0  0  0
  195.1040  175.6870  145.3510 C   0  0  0  0  0  0  0  0  0  0  0  0
  195.3760  177.0300  145.1170 O   0  0  0  0  0  0  0  0  0  0  0  0
  196.0400  174.9220  145.7090 O   0  0  0  0  0  1  0  0  0  0  0  0
  181.1900  178.8510  141.9260 N   0  0  0  0  0  0  0  0  0  0  0  0
  180.2610  178.6210  140.9680 O   0  0  0  0  0  0  0  0  0  0  0  0
  180.8040  179.4160  143.0960 O   0  0  0  0  0  0  0  0  0  0  0  0
  1  8  1  6  0  0  0
  1 28  1  0  0  0  0
  2 18  1  0  0  0  0
  4 26  1  0  0  0  0
  5 22  1  0  0  0  0
  6 32  1  0  0  0  0
  6 11  1  0  0  0  0
  7 13  1  6  0  0  0
  7  8  1  0  0  0  0
 10 17  1  0  0  0  0
 10  9  2  0  0  0  0
 12 11  2  0  0  0  0
 12  3  1  0  0  0  0
 13  9  1  0  0  0  0
 14 24  1  0  0  0  0
 14  7  1  0  0  0  0
 15 16  1  0  0  0  0
 15  4  1  0  0  0  0
 16  9  1  6  0  0  0
 16  1  1  0  0  0  0
 17 15  2  0  0  0  0
 19 29  1  0  0  0  0
 19 18  1  0  0  0  0
 20 23  1  0  0  0  0
 20 22  2  0  0  0  0
 21 19  2  0  0  0  0
 22 12  1  0  0  0  0
 23  6  2  0  0  0  0
 24  5  1  6  0  0  0
 24  7  1  0  0  0  0
 24 25  1  0  0  0  0
 25  3  1  0  0  0  0
 26 28  1  0  0  0  0
 26  2  2  0  0  0  0
 27 21  1  0  0  0  0
 28 27  2  0  0  0  0
 29 31  1  0  0  0  0
 30 29  2  0  0  0  0
 32 34  2  0  0  0  0
 33 32  2  0  0  0  0
M  END
>  <MODEL>
4

>  <REMARK>
 VINA RESULT:      -8.6      0.898      1.204
  Name = 
  2 active torsions:
  status: ('A' for Active; 'I' for Inactive)
    1  A    between atoms: C_3  and  C_25
    2  A    between atoms: C_7  and  N_11
                            x       y       z     vdW  Elec       q    Type
                         _______ _______ _______ _____ _____    ______ ____

>  <TORSDO>
F 2

$$$$
=
 OpenBabel11052420343D

 34 40  0  0  1  0  0  0  0  0999 V2000
  191.1400  171.7290  144.2520 C   0  0  1  0  0  3  0  0  0  0  0  0
  194.1230  169.4770  143.8880 C   0  0  0  0  0  3  0  0  0  0  0  0
  188.5430  175.7110  146.5400 C   0  0  0  0  0  2  0  0  0  0  0  0
  192.2670  169.7740  142.3460 C   0  0  0  0  0  2  0  0  0  0  0  0
  189.2760  176.5750  143.7420 C   0  0  0  0  0  2  0  0  0  0  0  0
  185.7180  178.0840  145.6660 C   0  0  0  0  0  0  0  0  0  0  0  0
  190.3570  174.1920  143.9850 C   0  0  2  0  0  0  0  0  0  0  0  0
  190.6400  173.0180  144.9480 C   0  0  0  0  0  2  0  0  0  0  0  0
  190.0690  172.6890  142.0800 C   0  0  0  0  0  0  0  0  0  0  0  0
  190.0220  172.2950  140.6450 C   0  0  0  0  0  3  0  0  0  0  0  0
  186.5580  177.2090  146.3640 C   0  0  0  0  0  3  0  0  0  0  0  0
  187.7180  176.7030  145.7690 C   0  0  0  0  0  0  0  0  0  0  0  0
  189.9090  173.9110  142.5730 C   0  0  0  0  0  2  0  0  0  0  0  0
  191.4360  175.2630  144.0450 C   0  0  0  0  0  2  0  0  0  0  0  0
  191.2100  170.7720  141.9630 C   0  0  0  0  0  0  0  0  0  0  0  0
  190.7170  171.6390  142.8210 C   0  0  1  0  0  3  0  0  0  0  0  0
  190.8320  171.0730  140.6210 N   0  0  0  0  0  0  0  0  0  0  0  0
  194.9360  169.7050  145.1170 C   0  0  0  0  0  2  0  0  0  0  0  0
  195.6170  171.0350  145.0830 C   0  0  0  0  0  0  0  0  0  0  0  0
  187.1910  177.9340  143.7410 C   0  0  0  0  0  3  0  0  0  0  0  0
  194.9120  172.1710  145.0830 C   0  0  0  0  0  3  0  0  0  0  0  0
  188.0300  177.0580  144.4340 C   0  0  0  0  0  0  0  0  0  0  0  0
  186.0420  178.4430  144.3510 C   0  0  0  0  0  3  0  0  0  0  0  0
  190.0490  175.5590  144.5820 C   0  0  1  0  0  0  0  0  0  0  0  0
  189.9990  175.7090  146.0950 C   0  0  0  0  0  2  0  0  0  0  0  0
  193.0780  170.2320  143.5440 C   0  0  0  0  0  0  0  0  0  0  0  0
  193.4430  172.2720  144.9700 C   0  0  0  0  0  3  0  0  0  0  0  0
  192.6160  171.4150  144.3480 C   0  0  0  0  0  0  0  0  0  0  0  0
  197.0870  171.0840  145.1590 C   0  0  0  0  0  0  0  0  0  0  0  0
  197.8120  169.9210  145.3920 O   0  0  0  0  0  1  0  0  0  0  0  0
  197.7030  172.1750  145.0110 O   0  0  0  0  0  0  0  0  0  0  0  0
  184.5370  178.6040  146.2870 N   0  0  0  0  0  0  0  0  0  0  0  0
  183.5000  179.0410  145.5330 O   0  0  0  0  0  0  0  0  0  0  0  0
  184.4410  178.6660  147.6370 O   0  0  0  0  0  0  0  0  0  0  0  0
  1 28  1  0  0  0  0
  1  8  1  6  0  0  0
  2 18  1  0  0  0  0
  4 26  1  0  0  0  0
  5 22  1  0  0  0  0
  6 32  1  0  0  0  0
  6 11  1  0  0  0  0
  7 13  1  6  0  0  0
  7 14  1  0  0  0  0
  7 24  1  0  0  0  0
  7  8  1  0  0  0  0
  9 13  1  0  0  0  0
  9 16  1  0  0  0  0
 10  9  2  0  0  0  0
 12 11  2  0  0  0  0
 12  3  1  0  0  0  0
 14 24  1  0  0  0  0
 15  4  1  0  0  0  0
 16 15  1  6  0  0  0
 16  1  1  0  0  0  0
 17 10  1  0  0  0  0
 17 15  2  0  0  0  0
 19 21  2  0  0  0  0
 19 18  1  0  0  0  0
 19 29  1  0  0  0  0
 20 23  1  0  0  0  0
 20 22  2  0  0  0  0
 22 12  1  0  0  0  0
 23  6  2  0  0  0  0
 24  5  1  6  0  0  0
 24 25  1  0  0  0  0
 25  3  1  0  0  0  0
 26  2  2  0  0  0  0
 26 28  1  0  0  0  0
 27 21  1  0  0  0  0
 28 27  2  0  0  0  0
 29 30  1  0  0  0  0
 31 29  2  0  0  0  0
 32 34  2  0  0  0  0
 33 32  2  0  0  0  0
M  END
>  <MODEL>
5

>  <REMARK>
 VINA RESULT:      -8.6      3.188      4.826
  Name = 
  2 active torsions:
  status: ('A' for Active; 'I' for Inactive)
    1  A    between atoms: C_3  and  C_25
    2  A    between atoms: C_7  and  N_11
                            x       y       z     vdW  Elec       q    Type
                         _______ _______ _______ _____ _____    ______ ____

>  <TORSDO>
F 2

$$$$
=
 OpenBabel11052420343D

 34 40  0  0  1  0  0  0  0  0999 V2000
  190.8800  171.9630  144.2190 C   0  0  1  0  0  3  0  0  0  0  0  0
  193.9350  169.7970  144.4960 C   0  0  0  0  0  3  0  0  0  0  0  0
  187.9970  176.1720  145.5660 C   0  0  0  0  0  2  0  0  0  0  0  0
  192.2170  169.7590  142.7770 C   0  0  0  0  0  2  0  0  0  0  0  0
  188.9550  176.5780  142.7320 C   0  0  0  0  0  2  0  0  0  0  0  0
  185.2070  178.2540  144.0650 C   0  0  0  0  0  0  0  0  0  0  0  0
  190.0660  174.3140  143.4700 C   0  0  2  0  0  0  0  0  0  0  0  0
  190.2900  173.3310  144.6400 C   0  0  0  0  0  2  0  0  0  0  0  0
  189.9830  172.5010  141.8330 C   0  0  0  0  0  0  0  0  0  0  0  0
  190.0730  171.8690  140.4880 C   0  0  0  0  0  3  0  0  0  0  0  0
  186.0020  177.5410  144.9710 C   0  0  0  0  0  3  0  0  0  0  0  0
  187.2210  176.9870  144.5700 C   0  0  0  0  0  0  0  0  0  0  0  0
  189.7520  173.7810  142.0950 C   0  0  0  0  0  2  0  0  0  0  0  0
  191.1100  175.4200  143.4340 C   0  0  0  0  0  2  0  0  0  0  0  0
  191.1750  170.6360  142.1420 C   0  0  0  0  0  0  0  0  0  0  0  0
  190.5880  171.6170  142.7950 C   0  0  1  0  0  3  0  0  0  0  0  0
  190.9100  170.6920  140.7410 N   0  0  0  0  0  0  0  0  0  0  0  0
  194.6310  170.2610  145.7320 C   0  0  0  0  0  2  0  0  0  0  0  0
  195.2810  171.5910  145.5270 C   0  0  0  0  0  0  0  0  0  0  0  0
  186.8470  177.8370  142.3250 C   0  0  0  0  0  3  0  0  0  0  0  0
  194.5520  172.6820  145.2730 C   0  0  0  0  0  3  0  0  0  0  0  0
  187.6420  177.1230  143.2250 C   0  0  0  0  0  0  0  0  0  0  0  0
  185.6370  178.3980  142.7400 C   0  0  0  0  0  3  0  0  0  0  0  0
  189.6740  175.7490  143.7950 C   0  0  1  0  0  0  0  0  0  0  0  0
  189.4870  176.1500  145.2500 C   0  0  0  0  0  2  0  0  0  0  0  0
  192.9070  170.4430  143.9420 C   0  0  0  0  0  0  0  0  0  0  0  0
  193.0970  172.7070  145.0230 C   0  0  0  0  0  3  0  0  0  0  0  0
  192.3480  171.7260  144.4900 C   0  0  0  0  0  0  0  0  0  0  0  0
  196.7370  171.7090  145.7160 C   0  0  0  0  0  0  0  0  0  0  0  0
  197.5550  170.6000  145.5310 O   0  0  0  0  0  0  0  0  0  0  0  0
  197.2570  172.8100  146.0410 O   0  0  0  0  0  1  0  0  0  0  0  0
  183.9630  178.8260  144.4880 N   0  0  0  0  0  0  0  0  0  0  0  0
  183.0290  179.1860  143.5770 O   0  0  0  0  0  0  0  0  0  0  0  0
  183.7050  179.0130  145.8050 O   0  0  0  0  0  0  0  0  0  0  0  0
  1 28  1  0  0  0  0
  1  8  1  6  0  0  0
  2 18  1  0  0  0  0
  4 26  1  0  0  0  0
  5 22  1  0  0  0  0
  6 32  1  0  0  0  0
  6 11  1  0  0  0  0
  7 13  1  6  0  0  0
  7 24  1  0  0  0  0
  7  8  1  0  0  0  0
  9 13  1  0  0  0  0
 10 17  1  0  0  0  0
 10  9  2  0  0  0  0
 12 11  2  0  0  0  0
 12  3  1  0  0  0  0
 14  7  1  0  0  0  0
 14 24  1  0  0  0  0
 15  4  1  0  0  0  0
 15 16  1  0  0  0  0
 16  9  1  6  0  0  0
 16  1  1  0  0  0  0
 17 15  2  0  0  0  0
 19 29  1  0  0  0  0
 19 18  1  0  0  0  0
 20 23  1  0  0  0  0
 20 22  2  0  0  0  0
 21 19  2  0  0  0  0
 22 12  1  0  0  0  0
 23  6  2  0  0  0  0
 24  5  1  6  0  0  0
 24 25  1  0  0  0  0
 25  3  1  0  0  0  0
 26 28  1  0  0  0  0
 26  2  2  0  0  0  0
 27 21  1  0  0  0  0
 28 27  2  0  0  0  0
 29 31  1  0  0  0  0
 30 29  2  0  0  0  0
 32 34  2  0  0  0  0
 33 32  2  0  0  0  0
M  END
>  <MODEL>
6

>  <REMARK>
 VINA RESULT:      -8.5      2.686      4.054
  Name = 
  2 active torsions:
  status: ('A' for Active; 'I' for Inactive)
    1  A    between atoms: C_3  and  C_25
    2  A    between atoms: C_7  and  N_11
                            x       y       z     vdW  Elec       q    Type
                         _______ _______ _______ _____ _____    ______ ____

>  <TORSDO>
F 2

$$$$
=
 OpenBabel11052420343D

 34 40  0  0  1  0  0  0  0  0999 V2000
  193.6720  174.4710  143.7140 C   0  0  1  0  0  3  0  0  0  0  0  0
  196.7270  172.4930  144.6410 C   0  0  0  0  0  3  0  0  0  0  0  0
  188.5060  174.9050  142.7340 C   0  0  0  0  0  2  0  0  0  0  0  0
  196.4630  174.9090  144.5770 C   0  0  0  0  0  2  0  0  0  0  0  0
  189.0820  176.3650  145.3130 C   0  0  0  0  0  2  0  0  0  0  0  0
  185.8770  177.6370  142.7150 C   0  0  0  0  0  0  0  0  0  0  0  0
  191.3950  175.3210  144.6330 C   0  0  2  0  0  0  0  0  0  0  0  0
  192.1280  174.3980  143.6340 C   0  0  0  0  0  2  0  0  0  0  0  0
  193.3360  176.7910  144.8490 C   0  0  0  0  0  0  0  0  0  0  0  0
  194.2160  177.8080  145.4900 C   0  0  0  0  0  2  0  0  0  0  0  0
  186.6360  176.5120  142.3700 C   0  0  0  0  0  3  0  0  0  0  0  0
  187.6800  176.0750  143.1910 C   0  0  0  0  0  0  0  0  0  0  0  0
  192.0390  176.6130  145.0680 C   0  0  0  0  0  2  0  0  0  0  0  0
  190.7990  174.5520  145.8030 C   0  0  0  0  0  2  0  0  0  0  0  0
  195.4070  175.9750  144.6590 C   0  0  0  0  0  0  0  0  0  0  0  0
  194.1660  175.7660  144.2730 C   0  0  0  0  0  0  0  0  0  0  0  0
  195.5430  177.1930  145.3880 N   0  0  0  0  0  0  0  0  0  0  0  0
  196.3190  171.0640  144.5150 C   0  0  0  0  0  2  0  0  0  0  0  0
  195.4060  170.6560  145.6260 C   0  0  0  0  0  0  0  0  0  0  0  0
  187.2310  177.9160  144.7110 C   0  0  0  0  0  3  0  0  0  0  0  0
  194.1980  171.2090  145.7630 C   0  0  0  0  0  3  0  0  0  0  0  0
  187.9920  176.7950  144.3690 C   0  0  0  0  0  0  0  0  0  0  0  0
  186.1810  178.3360  143.8900 C   0  0  0  0  0  3  0  0  0  0  0  0
  189.8850  175.1840  144.7700 C   0  0  1  0  0  0  0  0  0  0  0  0
  189.1540  174.1720  143.9010 C   0  0  0  0  0  2  0  0  0  0  0  0
  195.8690  173.5130  144.5840 C   0  0  0  0  0  0  0  0  0  0  0  0
  193.6760  172.3430  144.9750 C   0  0  0  0  0  3  0  0  0  0  0  0
  194.3870  173.3340  144.4090 C   0  0  0  0  0  0  0  0  0  0  0  0
  195.8130  169.5510  146.5120 C   0  0  0  0  0  0  0  0  0  0  0  0
  194.8640  168.8930  147.2850 O   0  0  0  0  0  1  0  0  0  0  0  0
  197.0190  169.1890  146.5750 O   0  0  0  0  0  0  0  0  0  0  0  0
  184.8040  178.0720  141.8720 N   0  0  0  0  0  0  0  0  0  0  0  0
  185.0090  178.2730  140.5490 O   0  0  0  0  0  0  0  0  0  0  0  0
  183.5700  178.2890  142.3880 O   0  0  0  0  0  0  0  0  0  0  0  0
  1  8  1  1  0  0  0
  1 16  1  0  0  0  0
  1 28  1  0  0  0  0
  3 12  1  0  0  0  0
  3 25  1  0  0  0  0
  4 26  1  0  0  0  0
  4 15  1  0  0  0  0
  6 23  1  0  0  0  0
  7  8  1  6  0  0  0
  7 24  1  0  0  0  0
  7 13  1  0  0  0  0
  7 14  1  0  0  0  0
  9 13  1  0  0  0  0
  9 10  1  0  0  0  0
 11  6  2  0  0  0  0
 11 12  1  0  0  0  0
 12 22  2  0  0  0  0
 15 17  2  0  0  0  0
 16 15  1  0  0  0  0
 16  9  2  0  0  0  0
 17 10  1  0  0  0  0
 18  2  1  0  0  0  0
 18 19  1  0  0  0  0
 19 21  2  0  0  0  0
 19 29  1  0  0  0  0
 22 20  1  0  0  0  0
 22  5  1  0  0  0  0
 23 20  2  0  0  0  0
 24 25  1  6  0  0  0
 24  5  1  0  0  0  0
 24 14  1  0  0  0  0
 26  2  2  0  0  0  0
 27 21  1  0  0  0  0
 28 26  1  0  0  0  0
 28 27  2  0  0  0  0
 29 31  2  0  0  0  0
 29 30  1  0  0  0  0
 32 34  2  0  0  0  0
 32  6  1  0  0  0  0
 33 32  2  0  0  0  0
M  END
>  <MODEL>
7

>  <REMARK>
 VINA RESULT:      -8.4      3.480      5.691
  Name = 
  2 active torsions:
  status: ('A' for Active; 'I' for Inactive)
    1  A    between atoms: C_3  and  C_25
    2  A    between atoms: C_7  and  N_11
                            x       y       z     vdW  Elec       q    Type
                         _______ _______ _______ _____ _____    ______ ____

>  <TORSDO>
F 2

$$$$
=
 OpenBabel11052420343D

 34 40  0  0  1  0  0  0  0  0999 V2000
  193.9820  176.4010  142.6240 C   0  0  1  0  0  3  0  0  0  0  0  0
  196.8420  175.2000  140.5080 C   0  0  0  0  0  3  0  0  0  0  0  0
  188.8780  177.4920  143.4000 C   0  0  0  0  0  2  0  0  0  0  0  0
  196.8000  175.5630  142.9110 C   0  0  0  0  0  2  0  0  0  0  0  0
  189.5810  175.1050  145.1080 C   0  0  0  0  0  2  0  0  0  0  0  0
  186.5100  177.8800  146.3350 C   0  0  0  0  0  0  0  0  0  0  0  0
  191.7910  175.6220  143.7830 C   0  0  2  0  0  0  0  0  0  0  0  0
  192.4380  176.4910  142.6820 C   0  0  0  0  0  2  0  0  0  0  0  0
  193.8570  175.5640  145.0870 C   0  0  0  0  0  0  0  0  0  0  0  0
  194.8250  175.0420  146.0920 C   0  0  0  0  0  2  0  0  0  0  0  0
  187.1640  178.0740  145.1120 C   0  0  0  0  0  3  0  0  0  0  0  0
  188.1620  177.1930  144.6870 C   0  0  0  0  0  0  0  0  0  0  0  0
  192.5490  175.3410  145.0560 C   0  0  0  0  0  2  0  0  0  0  0  0
  191.1250  174.3750  143.2220 C   0  0  0  0  0  2  0  0  0  0  0  0
  195.8450  175.6260  144.0700 C   0  0  0  0  0  0  0  0  0  0  0  0
  194.5910  175.9990  143.9290 C   0  0  0  0  0  0  0  0  0  0  0  0
  196.0910  175.0500  145.3520 N   0  0  0  0  0  0  0  0  0  0  0  0
  196.3060  175.1540  139.1170 C   0  0  0  0  0  2  0  0  0  0  0  0
  195.3580  174.0130  138.9330 C   0  0  0  0  0  0  0  0  0  0  0  0
  187.8810  175.9160  146.7350 C   0  0  0  0  0  3  0  0  0  0  0  0
  194.2040  173.9600  139.6060 C   0  0  0  0  0  3  0  0  0  0  0  0
  188.5370  176.1080  145.5160 C   0  0  0  0  0  0  0  0  0  0  0  0
  186.8750  176.7960  147.1440 C   0  0  0  0  0  3  0  0  0  0  0  0
  190.2740  175.4880  143.8020 C   0  0  1  0  0  0  0  0  0  0  0  0
  189.4550  176.2360  142.7610 C   0  0  0  0  0  2  0  0  0  0  0  0
  196.0810  175.3920  141.5860 C   0  0  0  0  0  0  0  0  0  0  0  0
  193.7890  174.8880  140.6770 C   0  0  0  0  0  3  0  0  0  0  0  0
  194.5880  175.5630  141.5220 C   0  0  0  0  0  0  0  0  0  0  0  0
  195.6610  172.9930  137.9140 C   0  0  0  0  0  0  0  0  0  0  0  0
  196.8140  173.0970  137.1460 O   0  0  0  0  0  0  0  0  0  0  0  0
  194.8840  172.0170  137.7310 O   0  0  0  0  0  1  0  0  0  0  0  0
  185.4820  178.7840  146.7580 N   0  0  0  0  0  0  0  0  0  0  0  0
  185.7340  179.7110  147.7130 O   0  0  0  0  0  0  0  0  0  0  0  0
  184.2450  178.7230  146.2090 O   0  0  0  0  0  0  0  0  0  0  0  0
  1  8  1  1  0  0  0
  1 16  1  0  0  0  0
  2 26  2  0  0  0  0
  3 12  1  0  0  0  0
  4 15  1  0  0  0  0
  5 22  1  0  0  0  0
  6 32  1  0  0  0  0
  6 23  1  0  0  0  0
  7  8  1  6  0  0  0
  7 24  1  0  0  0  0
  7 13  1  0  0  0  0
  9 10  1  0  0  0  0
 11  6  2  0  0  0  0
 12 11  1  0  0  0  0
 12 22  2  0  0  0  0
 13  9  1  0  0  0  0
 14  7  1  0  0  0  0
 14 24  1  0  0  0  0
 15 17  2  0  0  0  0
 16 15  1  0  0  0  0
 16  9  2  0  0  0  0
 17 10  1  0  0  0  0
 18  2  1  0  0  0  0
 19 18  1  0  0  0  0
 19 21  2  0  0  0  0
 20 23  2  0  0  0  0
 21 27  1  0  0  0  0
 22 20  1  0  0  0  0
 24 25  1  6  0  0  0
 24  5  1  0  0  0  0
 25  3  1  0  0  0  0
 26  4  1  0  0  0  0
 27 28  2  0  0  0  0
 28 26  1  0  0  0  0
 28  1  1  0  0  0  0
 29 19  1  0  0  0  0
 30 29  2  0  0  0  0
 31 29  1  0  0  0  0
 32 33  2  0  0  0  0
 34 32  2  0  0  0  0
M  END
>  <MODEL>
8

>  <REMARK>
 VINA RESULT:      -8.2      4.442      6.460
  Name = 
  2 active torsions:
  status: ('A' for Active; 'I' for Inactive)
    1  A    between atoms: C_3  and  C_25
    2  A    between atoms: C_7  and  N_11
                            x       y       z     vdW  Elec       q    Type
                         _______ _______ _______ _____ _____    ______ ____

>  <TORSDO>
F 2

$$$$
=
 OpenBabel11052420343D

 34 40  0  0  1  0  0  0  0  0999 V2000
  193.4500  175.4890  142.7470 C   0  0  1  0  0  3  0  0  0  0  0  0
  196.6310  173.6890  141.8820 C   0  0  0  0  0  3  0  0  0  0  0  0
  188.1920  175.8000  143.0580 C   0  0  0  0  0  2  0  0  0  0  0  0
  196.3580  175.6970  143.2250 C   0  0  0  0  0  2  0  0  0  0  0  0
  189.2770  175.6630  145.8720 C   0  0  0  0  0  2  0  0  0  0  0  0
  185.6130  177.7770  145.0100 C   0  0  0  0  0  0  0  0  0  0  0  0
  191.4060  175.4330  144.3490 C   0  0  2  0  0  0  0  0  0  0  0  0
  191.9220  175.2980  142.9000 C   0  0  0  0  0  2  0  0  0  0  0  0
  193.3490  176.7530  145.0220 C   0  0  0  0  0  0  0  0  0  0  0  0
  194.3400  177.3450  145.9640 C   0  0  0  0  0  2  0  0  0  0  0  0
  186.2870  177.1190  143.9740 C   0  0  0  0  0  3  0  0  0  0  0  0
  187.4750  176.4260  144.2220 C   0  0  0  0  0  0  0  0  0  0  0  0
  192.1230  176.3390  145.3180 C   0  0  0  0  0  2  0  0  0  0  0  0
  191.0590  174.0870  144.9690 C   0  0  0  0  0  2  0  0  0  0  0  0
  195.3390  176.4160  144.0650 C   0  0  0  0  0  0  0  0  0  0  0  0
  194.0460  176.3140  143.8430 C   0  0  0  0  0  0  0  0  0  0  0  0
  195.6190  177.0420  145.3160 N   0  0  0  0  0  0  0  0  0  0  0  0
  196.2060  172.5270  141.0490 C   0  0  0  0  0  2  0  0  0  0  0  0
  195.5370  171.4760  141.8760 C   0  0  0  0  0  0  0  0  0  0  0  0
  187.3420  177.0690  146.5610 C   0  0  0  0  0  3  0  0  0  0  0  0
  194.3810  171.7230  142.4980 C   0  0  0  0  0  3  0  0  0  0  0  0
  188.0180  176.4140  145.5290 C   0  0  0  0  0  0  0  0  0  0  0  0
  186.1480  177.7480  146.3050 C   0  0  0  0  0  3  0  0  0  0  0  0
  189.9540  175.0730  144.6370 C   0  0  1  0  0  0  0  0  0  0  0  0
  189.0640  174.6270  143.4880 C   0  0  0  0  0  2  0  0  0  0  0  0
  195.7780  174.4680  142.5500 C   0  0  0  0  0  0  0  0  0  0  0  0
  193.7100  173.0360  142.5810 C   0  0  0  0  0  3  0  0  0  0  0  0
  194.2910  174.2480  142.5560 C   0  0  0  0  0  0  0  0  0  0  0  0
  196.1150  170.1220  141.9090 C   0  0  0  0  0  0  0  0  0  0  0  0
  197.3910  169.8970  141.4070 O   0  0  0  0  0  0  0  0  0  0  0  0
  195.4650  169.1570  142.3960 O   0  0  0  0  0  1  0  0  0  0  0  0
  184.3910  178.4780  144.7490 N   0  0  0  0  0  0  0  0  0  0  0  0
  183.9190  178.5860  143.4840 O   0  0  0  0  0  0  0  0  0  0  0  0
  183.6920  179.0420  145.7630 O   0  0  0  0  0  0  0  0  0  0  0  0
  1  8  1  1  0  0  0
  1 16  1  0  0  0  0
  2 26  2  0  0  0  0
  3 25  1  0  0  0  0
  3 12  1  0  0  0  0
  4 15  1  0  0  0  0
  6 23  1  0  0  0  0
  7  8  1  6  0  0  0
  7 24  1  0  0  0  0
  7 14  1  0  0  0  0
  7 13  1  0  0  0  0
  9 13  1  0  0  0  0
  9 10  1  0  0  0  0
 11 12  1  0  0  0  0
 11  6  2  0  0  0  0
 12 22  2  0  0  0  0
 15 17  2  0  0  0  0
 16 15  1  0  0  0  0
 16  9  2  0  0  0  0
 17 10  1  0  0  0  0
 18 19  1  0  0  0  0
 18  2  1  0  0  0  0
 19 29  1  0  0  0  0
 19 21  2  0  0  0  0
 21 27  1  0  0  0  0
 22  5  1  0  0  0  0
 22 20  1  0  0  0  0
 23 20  2  0  0  0  0
 24 25  1  6  0  0  0
 24 14  1  0  0  0  0
 24  5  1  0  0  0  0
 26 28  1  0  0  0  0
 26  4  1  0  0  0  0
 28 27  2  0  0  0  0
 28  1  1  0  0  0  0
 29 31  1  0  0  0  0
 30 29  2  0  0  0  0
 32  6  1  0  0  0  0
 32 34  2  0  0  0  0
 33 32  2  0  0  0  0
M  END
>  <MODEL>
9

>  <REMARK>
 VINA RESULT:      -7.8      3.707      5.941
  Name = 
  2 active torsions:
  status: ('A' for Active; 'I' for Inactive)
    1  A    between atoms: C_3  and  C_25
    2  A    between atoms: C_7  and  N_11
                            x       y       z     vdW  Elec       q    Type
                         _______ _______ _______ _____ _____    ______ ____

>  <TORSDO>
F 2

$$$$
