=
 OpenBabel11052418563D

 34 41  0  0  1  0  0  0  0  0999 V2000
  189.4130  174.3260  141.8100 C   0  0  0  0  0  0  0  0  0  0  0  0
  191.4990  173.6690  142.8640 C   0  0  0  0  0  0  0  0  0  0  0  0
  189.8710  175.0320  144.0620 C   0  0  0  0  0  0  0  0  0  0  0  0
  190.5930  176.1010  146.1410 C   0  0  2  0  0  3  0  0  0  0  0  0
  190.9880  172.9980  140.6460 C   0  0  0  0  0  3  0  0  0  0  0  0
  191.8270  173.0040  141.7240 N   0  0  0  0  0  0  0  0  0  0  0  0
  192.1480  174.8700  144.9610 C   0  0  2  0  0  3  0  0  0  0  0  0
  190.2600  174.3440  142.9190 C   0  0  0  0  0  0  0  0  0  0  0  0
  191.6720  175.7760  147.1700 C   0  0  0  0  0  2  0  0  0  0  0  0
  189.7930  173.6540  140.6920 N   0  0  0  0  0  0  0  0  0  0  0  0
  188.6320  175.6710  144.1380 C   0  0  0  0  0  0  0  0  0  0  0  0
  188.1770  174.9870  141.8910 C   0  0  0  0  0  3  0  0  0  0  0  0
  192.4280  173.6400  144.0800 C   0  0  0  0  0  2  0  0  0  0  0  0
  189.1330  176.2130  146.5780 C   0  0  0  0  0  2  0  0  0  0  0  0
  188.2550  176.3390  145.3830 N   0  0  0  0  0  0  0  0  0  0  0  0
  192.7260  174.9540  146.3720 C   0  0  2  0  0  3  0  0  0  0  0  0
  190.6970  174.9160  145.2670 C   0  0  2  0  0  3  0  0  0  0  0  0
  187.8150  175.6350  143.0410 N   0  0  0  0  0  0  0  0  0  0  0  0
  185.5980  178.9630  144.9320 C   0  0  0  0  0  0  0  0  0  0  0  0
  184.6330  178.5280  145.8410 C   0  0  0  0  0  3  0  0  0  0  0  0
  187.0200  177.0740  145.5200 C   0  0  0  0  0  0  0  0  0  0  0  0
  184.8560  177.3730  146.5950 C   0  0  0  0  0  3  0  0  0  0  0  0
  186.7850  178.2430  144.7760 C   0  0  0  0  0  3  0  0  0  0  0  0
  186.0430  176.6520  146.4370 C   0  0  0  0  0  3  0  0  0  0  0  0
  185.3660  180.1950  144.1350 C   0  0  0  0  0  1  0  0  0  0  0  0
  194.0600  175.6890  146.3670 C   0  0  0  0  0  2  0  0  0  0  0  0
  194.1550  176.6830  145.2160 C   0  0  0  0  0  2  0  0  0  0  0  0
  195.5090  176.6030  144.5210 C   0  0  0  0  0  2  0  0  0  0  0  0
  197.0240  174.9630  144.1340 C   0  0  0  0  0  2  0  0  0  0  0  0
  196.8220  174.9870  142.7300 C   0  0  1  0  0  3  0  0  0  0  0  0
  196.0260  176.6380  141.6040 C   0  0  0  0  0  2  0  0  0  0  0  0
  194.9480  175.8700  142.3520 C   0  0  0  0  0  2  0  0  0  0  0  0
  195.6000  175.3620  143.6330 C   0  0  2  0  0  0  0  0  0  0  0  0
  197.2360  176.1640  142.1070 O   0  0  0  0  0  0  0  0  0  0  0  0
  1 12  2  0  0  0  0
  1  8  1  0  0  0  0
  2  8  1  0  0  0  0
  2 13  1  0  0  0  0
  3 11  1  0  0  0  0
  4 14  1  1  0  0  0
  4  9  1  0  0  0  0
  5 10  2  0  0  0  0
  5  6  1  0  0  0  0
  6  2  2  0  0  0  0
  7 13  1  1  0  0  0
  7 17  1  0  0  0  0
  7 16  1  0  0  0  0
  8  3  2  0  0  0  0
 10  1  1  0  0  0  0
 11 15  1  0  0  0  0
 12 18  1  0  0  0  0
 15 21  1  0  0  0  0
 15 14  1  0  0  0  0
 16 26  1  6  0  0  0
 16  9  1  0  0  0  0
 17  3  1  6  0  0  0
 17  4  1  0  0  0  0
 18 11  2  0  0  0  0
 19 20  1  0  0  0  0
 20 22  2  0  0  0  0
 21 24  2  0  0  0  0
 23 19  2  0  0  0  0
 23 21  1  0  0  0  0
 24 22  1  0  0  0  0
 25 19  1  0  0  0  0
 27 26  1  0  0  0  0
 28 27  1  0  0  0  0
 30 33  1  0  0  0  0
 30 29  1  1  0  0  0
 31 34  1  0  0  0  0
 31 32  1  0  0  0  0
 32 33  1  0  0  0  0
 33 29  1  0  0  0  0
 33 28  1  6  0  0  0
 34 30  1  0  0  0  0
M  END
>  <MODEL>
1

>  <REMARK>
 VINA RESULT:      -8.7      0.000      0.000
  Name = 
  5 active torsions:
  status: ('A' for Active; 'I' for Inactive)
    1  A    between atoms: C_3  and  C_13
    2  A    between atoms: C_3  and  C_17
    3  A    between atoms: C_12  and  N_28
    4  A    between atoms: C_13  and  C_33
    5  A    between atoms: C_17  and  C_29
                            x       y       z     vdW  Elec       q    Type
                         _______ _______ _______ _____ _____    ______ ____

>  <TORSDO>
F 5

$$$$
=
 OpenBabel11052418563D

 34 41  0  0  1  0  0  0  0  0999 V2000
  190.8870  173.5100  141.5720 C   0  0  0  0  0  0  0  0  0  0  0  0
  189.1220  174.9520  142.4090 C   0  0  0  0  0  0  0  0  0  0  0  0
  191.1060  174.4990  143.7520 C   0  0  0  0  0  0  0  0  0  0  0  0
  191.0500  175.1380  146.1140 C   0  0  2  0  0  3  0  0  0  0  0  0
  188.9660  173.9520  140.2630 C   0  0  0  0  0  3  0  0  0  0  0  0
  188.4520  174.7530  141.2420 N   0  0  0  0  0  0  0  0  0  0  0  0
  189.1510  175.4940  144.8520 C   0  0  2  0  0  3  0  0  0  0  0  0
  190.3750  174.3240  142.5840 C   0  0  0  0  0  0  0  0  0  0  0  0
  190.2680  176.1860  146.9000 C   0  0  0  0  0  2  0  0  0  0  0  0
  190.1720  173.3380  140.4300 N   0  0  0  0  0  0  0  0  0  0  0  0
  192.3610  173.9120  143.9180 C   0  0  0  0  0  0  0  0  0  0  0  0
  192.1420  172.9090  141.7570 C   0  0  0  0  0  3  0  0  0  0  0  0
  188.5570  175.8810  143.4860 C   0  0  0  0  0  2  0  0  0  0  0  0
  192.5780  175.1510  146.1350 C   0  0  0  0  0  2  0  0  0  0  0  0
  193.1060  174.1700  145.1490 N   0  0  0  0  0  0  0  0  0  0  0  0
  188.9830  176.4200  146.0540 C   0  0  2  0  0  3  0  0  0  0  0  0
  190.6300  175.4730  144.7390 C   0  0  2  0  0  3  0  0  0  0  0  0
  192.8460  173.1230  142.9110 N   0  0  0  0  0  0  0  0  0  0  0  0
  195.7290  171.5650  145.8490 C   0  0  0  0  0  0  0  0  0  0  0  0
  196.8620  172.3620  146.0150 C   0  0  0  0  0  3  0  0  0  0  0  0
  194.3810  173.5500  145.4230 C   0  0  0  0  0  0  0  0  0  0  0  0
  196.7630  173.7500  145.8910 C   0  0  0  0  0  3  0  0  0  0  0  0
  194.4960  172.1560  145.5600 C   0  0  0  0  0  3  0  0  0  0  0  0
  195.5290  174.3400  145.5990 C   0  0  0  0  0  3  0  0  0  0  0  0
  195.8310  170.0890  145.9880 C   0  0  0  0  0  1  0  0  0  0  0  0
  187.7530  176.0350  146.8660 C   0  0  0  0  0  2  0  0  0  0  0  0
  186.8080  177.2160  147.0590 C   0  0  0  0  0  2  0  0  0  0  0  0
  185.7430  177.2610  145.9710 C   0  0  0  0  0  2  0  0  0  0  0  0
  184.0060  178.7130  145.8820 C   0  0  0  0  0  2  0  0  0  0  0  0
  184.3280  179.1560  144.5740 C   0  0  1  0  0  3  0  0  0  0  0  0
  185.4930  178.0660  143.1300 C   0  0  0  0  0  2  0  0  0  0  0  0
  186.3530  178.7040  144.2090 C   0  0  0  0  0  2  0  0  0  0  0  0
  185.5150  178.6920  145.4830 C   0  0  2  0  0  0  0  0  0  0  0  0
  184.1810  178.1860  143.5820 O   0  0  0  0  0  0  0  0  0  0  0  0
  1 12  2  0  0  0  0
  1  8  1  0  0  0  0
  2  8  1  0  0  0  0
  2 13  1  0  0  0  0
  3 11  1  0  0  0  0
  4 14  1  6  0  0  0
  4  9  1  0  0  0  0
  5 10  2  0  0  0  0
  5  6  1  0  0  0  0
  6  2  2  0  0  0  0
  7 13  1  6  0  0  0
  7 16  1  0  0  0  0
  8  3  2  0  0  0  0
 10  1  1  0  0  0  0
 11 15  1  0  0  0  0
 12 18  1  0  0  0  0
 15 21  1  0  0  0  0
 15 14  1  0  0  0  0
 16 26  1  1  0  0  0
 16  9  1  0  0  0  0
 17  3  1  6  0  0  0
 17  7  1  0  0  0  0
 17  4  1  0  0  0  0
 18 11  2  0  0  0  0
 19 25  1  0  0  0  0
 19 20  1  0  0  0  0
 21 23  1  0  0  0  0
 21 24  2  0  0  0  0
 22 20  2  0  0  0  0
 23 19  2  0  0  0  0
 24 22  1  0  0  0  0
 26 27  1  0  0  0  0
 28 27  1  0  0  0  0
 30 33  1  0  0  0  0
 30 29  1  1  0  0  0
 31 34  1  0  0  0  0
 31 32  1  0  0  0  0
 32 33  1  0  0  0  0
 33 29  1  0  0  0  0
 33 28  1  6  0  0  0
 34 30  1  0  0  0  0
M  END
>  <MODEL>
2

>  <REMARK>
 VINA RESULT:      -8.6      2.966      8.083
  Name = 
  5 active torsions:
  status: ('A' for Active; 'I' for Inactive)
    1  A    between atoms: C_3  and  C_13
    2  A    between atoms: C_3  and  C_17
    3  A    between atoms: C_12  and  N_28
    4  A    between atoms: C_13  and  C_33
    5  A    between atoms: C_17  and  C_29
                            x       y       z     vdW  Elec       q    Type
                         _______ _______ _______ _____ _____    ______ ____

>  <TORSDO>
F 5

$$$$
=
 OpenBabel11052418563D

 34 41  0  0  1  0  0  0  0  0999 V2000
  190.7110  173.8700  141.0480 C   0  0  0  0  0  0  0  0  0  0  0  0
  188.7880  174.9320  142.0820 C   0  0  0  0  0  0  0  0  0  0  0  0
  190.9980  175.0870  143.1010 C   0  0  0  0  0  0  0  0  0  0  0  0
  191.1350  175.9190  145.3970 C   0  0  2  0  0  3  0  0  0  0  0  0
  188.5690  173.7210  140.0530 C   0  0  0  0  0  3  0  0  0  0  0  0
  188.0240  174.4710  141.0560 N   0  0  0  0  0  0  0  0  0  0  0  0
  189.0420  175.6980  144.4510 C   0  0  2  0  0  3  0  0  0  0  0  0
  190.1690  174.6340  142.0820 C   0  0  0  0  0  0  0  0  0  0  0  0
  190.2440  176.8260  146.2410 C   0  0  0  0  0  2  0  0  0  0  0  0
  189.9000  173.4260  140.0520 N   0  0  0  0  0  0  0  0  0  0  0  0
  192.3700  174.8290  143.0890 C   0  0  0  0  0  0  0  0  0  0  0  0
  192.0880  173.5990  141.0560 C   0  0  0  0  0  3  0  0  0  0  0  0
  188.1770  175.8020  143.1830 C   0  0  0  0  0  2  0  0  0  0  0  0
  192.5980  176.2920  145.1640 C   0  0  0  0  0  2  0  0  0  0  0  0
  193.2010  175.3710  144.1620 N   0  0  0  0  0  0  0  0  0  0  0  0
  188.8300  176.6700  145.6090 C   0  0  2  0  0  3  0  0  0  0  0  0
  190.4480  176.0130  144.0950 C   0  0  2  0  0  3  0  0  0  0  0  0
  192.8800  174.0830  142.0630 N   0  0  0  0  0  0  0  0  0  0  0  0
  196.4820  173.8860  145.2500 C   0  0  0  0  0  0  0  0  0  0  0  0
  197.3790  174.6130  144.4680 C   0  0  0  0  0  3  0  0  0  0  0  0
  194.6160  175.0960  144.2550 C   0  0  0  0  0  0  0  0  0  0  0  0
  196.9050  175.5850  143.5830 C   0  0  0  0  0  3  0  0  0  0  0  0
  195.1090  174.1300  145.1470 C   0  0  0  0  0  3  0  0  0  0  0  0
  195.5310  175.8260  143.4800 C   0  0  0  0  0  3  0  0  0  0  0  0
  196.9850  172.8570  146.1970 C   0  0  0  0  0  1  0  0  0  0  0  0
  187.8660  176.0880  146.6340 C   0  0  0  0  0  2  0  0  0  0  0  0
  186.7120  177.0380  146.9310 C   0  0  0  0  0  2  0  0  0  0  0  0
  185.7850  177.1800  145.7300 C   0  0  0  0  0  2  0  0  0  0  0  0
  184.0640  178.6380  145.9500 C   0  0  0  0  0  2  0  0  0  0  0  0
  184.2630  179.2030  144.6640 C   0  0  1  0  0  3  0  0  0  0  0  0
  185.2690  178.2530  143.0160 C   0  0  0  0  0  2  0  0  0  0  0  0
  186.2370  178.7830  144.0610 C   0  0  0  0  0  2  0  0  0  0  0  0
  185.5270  178.6510  145.4050 C   0  0  2  0  0  0  0  0  0  0  0  0
  184.0080  178.3320  143.6040 O   0  0  0  0  0  0  0  0  0  0  0  0
  1 12  2  0  0  0  0
  1  8  1  0  0  0  0
  2  8  1  0  0  0  0
  2 13  1  0  0  0  0
  4 14  1  6  0  0  0
  4  9  1  0  0  0  0
  5  6  1  0  0  0  0
  6  2  2  0  0  0  0
  7 13  1  6  0  0  0
  7 16  1  0  0  0  0
  8  3  2  0  0  0  0
 10  5  2  0  0  0  0
 10  1  1  0  0  0  0
 11  3  1  0  0  0  0
 11 15  1  0  0  0  0
 12 18  1  0  0  0  0
 15 21  1  0  0  0  0
 15 14  1  0  0  0  0
 16  9  1  0  0  0  0
 16 26  1  1  0  0  0
 17  3  1  6  0  0  0
 17  7  1  0  0  0  0
 17  4  1  0  0  0  0
 18 11  2  0  0  0  0
 19 25  1  0  0  0  0
 20 19  2  0  0  0  0
 21 23  2  0  0  0  0
 22 20  1  0  0  0  0
 23 19  1  0  0  0  0
 24 22  2  0  0  0  0
 24 21  1  0  0  0  0
 26 27  1  0  0  0  0
 28 27  1  0  0  0  0
 30 33  1  0  0  0  0
 30 29  1  1  0  0  0
 31 34  1  0  0  0  0
 31 32  1  0  0  0  0
 32 33  1  0  0  0  0
 33 28  1  6  0  0  0
 33 29  1  0  0  0  0
 34 30  1  0  0  0  0
M  END
>  <MODEL>
3

>  <REMARK>
 VINA RESULT:      -8.5      2.753      8.024
  Name = 
  5 active torsions:
  status: ('A' for Active; 'I' for Inactive)
    1  A    between atoms: C_3  and  C_13
    2  A    between atoms: C_3  and  C_17
    3  A    between atoms: C_12  and  N_28
    4  A    between atoms: C_13  and  C_33
    5  A    between atoms: C_17  and  C_29
                            x       y       z     vdW  Elec       q    Type
                         _______ _______ _______ _____ _____    ______ ____

>  <TORSDO>
F 5

$$$$
=
 OpenBabel11052418563D

 34 41  0  0  1  0  0  0  0  0999 V2000
  194.2730  175.5760  142.3310 C   0  0  0  0  0  0  0  0  0  0  0  0
  194.0290  175.7090  144.7430 C   0  0  0  0  0  0  0  0  0  0  0  0
  192.2730  174.7320  143.3620 C   0  0  0  0  0  0  0  0  0  0  0  0
  190.0960  174.3330  144.4050 C   0  0  2  0  0  3  0  0  0  0  0  0
  195.9820  176.5210  143.6680 C   0  0  0  0  0  3  0  0  0  0  0  0
  195.2580  176.2880  144.8020 N   0  0  0  0  0  0  0  0  0  0  0  0
  191.7420  175.3260  145.6830 C   0  0  2  0  0  3  0  0  0  0  0  0
  193.5200  175.3340  143.4800 C   0  0  0  0  0  0  0  0  0  0  0  0
  189.6490  174.0950  145.8450 C   0  0  0  0  0  2  0  0  0  0  0  0
  195.4920  176.1670  142.4460 N   0  0  0  0  0  0  0  0  0  0  0  0
  191.7780  174.3240  142.1220 C   0  0  0  0  0  0  0  0  0  0  0  0
  193.7580  175.1800  141.0870 C   0  0  0  0  0  3  0  0  0  0  0  0
  193.2390  175.4180  146.0210 C   0  0  0  0  0  2  0  0  0  0  0  0
  189.7810  173.2960  143.3280 C   0  0  0  0  0  2  0  0  0  0  0  0
  190.4820  173.6520  142.0640 N   0  0  0  0  0  0  0  0  0  0  0  0
  190.7530  174.7730  146.7070 C   0  0  2  0  0  3  0  0  0  0  0  0
  191.5610  174.3460  144.5840 C   0  0  2  0  0  3  0  0  0  0  0  0
  192.5370  174.5660  141.0100 N   0  0  0  0  0  0  0  0  0  0  0  0
  189.5950  171.6540  139.0020 C   0  0  0  0  0  0  0  0  0  0  0  0
  188.7240  172.5290  138.3520 C   0  0  0  0  0  3  0  0  0  0  0  0
  189.8730  173.2570  140.8150 C   0  0  0  0  0  0  0  0  0  0  0  0
  188.4270  173.7700  138.9230 C   0  0  0  0  0  3  0  0  0  0  0  0
  190.1690  172.0180  140.2230 C   0  0  0  0  0  3  0  0  0  0  0  0
  189.0010  174.1320  140.1460 C   0  0  0  0  0  3  0  0  0  0  0  0
  189.9170  170.3380  138.3920 C   0  0  0  0  0  1  0  0  0  0  0  0
  190.1460  175.8970  147.5350 C   0  0  0  0  0  2  0  0  0  0  0  0
  189.8230  177.1190  146.6820 C   0  0  0  0  0  2  0  0  0  0  0  0
  188.3390  177.4590  146.7360 C   0  0  0  0  0  2  0  0  0  0  0  0
  188.4310  177.6840  144.4840 C   0  0  0  0  0  2  0  0  0  0  0  0
  187.0190  177.7190  144.3410 C   0  0  1  0  0  3  0  0  0  0  0  0
  185.6140  178.2520  145.8810 C   0  0  0  0  0  2  0  0  0  0  0  0
  186.1660  176.8460  146.0580 C   0  0  0  0  0  2  0  0  0  0  0  0
  187.5970  176.8810  145.5320 C   0  0  2  0  0  0  0  0  0  0  0  0
  186.4090  178.8410  144.9010 O   0  0  0  0  0  0  0  0  0  0  0  0
  1 10  2  0  0  0  0
  1  8  1  0  0  0  0
  2  6  1  0  0  0  0
  2 13  1  0  0  0  0
  3  8  1  0  0  0  0
  4 14  1  6  0  0  0
  4 17  1  0  0  0  0
  4  9  1  0  0  0  0
  5  6  2  0  0  0  0
  7 13  1  1  0  0  0
  7 16  1  0  0  0  0
  8  2  2  0  0  0  0
  9 16  1  0  0  0  0
 10  5  1  0  0  0  0
 11  3  2  0  0  0  0
 12  1  1  0  0  0  0
 15 11  1  0  0  0  0
 15 14  1  0  0  0  0
 16 26  1  6  0  0  0
 17  3  1  6  0  0  0
 17  7  1  0  0  0  0
 18 12  2  0  0  0  0
 18 11  1  0  0  0  0
 19 23  1  0  0  0  0
 20 22  1  0  0  0  0
 20 19  2  0  0  0  0
 21 15  1  0  0  0  0
 22 24  2  0  0  0  0
 23 21  2  0  0  0  0
 24 21  1  0  0  0  0
 25 19  1  0  0  0  0
 27 28  1  0  0  0  0
 27 26  1  0  0  0  0
 29 33  1  0  0  0  0
 30 29  1  6  0  0  0
 30 34  1  0  0  0  0
 30 33  1  0  0  0  0
 31 32  1  0  0  0  0
 33 32  1  0  0  0  0
 33 28  1  1  0  0  0
 34 31  1  0  0  0  0
M  END
>  <MODEL>
4

>  <REMARK>
 VINA RESULT:      -7.9      2.828      6.967
  Name = 
  5 active torsions:
  status: ('A' for Active; 'I' for Inactive)
    1  A    between atoms: C_3  and  C_13
    2  A    between atoms: C_3  and  C_17
    3  A    between atoms: C_12  and  N_28
    4  A    between atoms: C_13  and  C_33
    5  A    between atoms: C_17  and  C_29
                            x       y       z     vdW  Elec       q    Type
                         _______ _______ _______ _____ _____    ______ ____

>  <TORSDO>
F 5

$$$$
=
 OpenBabel11052418563D

 34 41  0  0  1  0  0  0  0  0999 V2000
  192.4870  174.4090  145.1250 C   0  0  0  0  0  0  0  0  0  0  0  0
  190.7350  176.0370  145.5480 C   0  0  0  0  0  0  0  0  0  0  0  0
  190.4870  174.3650  143.7910 C   0  0  0  0  0  0  0  0  0  0  0  0
  188.6700  174.6670  142.1810 C   0  0  2  0  0  3  0  0  0  0  0  0
  192.7290  176.0280  146.8340 C   0  0  0  0  0  3  0  0  0  0  0  0
  191.5000  176.5510  146.5480 N   0  0  0  0  0  0  0  0  0  0  0  0
  188.9590  176.2840  143.8020 C   0  0  2  0  0  3  0  0  0  0  0  0
  191.2300  174.9340  144.8170 C   0  0  0  0  0  0  0  0  0  0  0  0
  187.3250  175.3860  142.2380 C   0  0  0  0  0  2  0  0  0  0  0  0
  193.2140  174.9670  146.1280 N   0  0  0  0  0  0  0  0  0  0  0  0
  190.9530  173.2520  143.0890 C   0  0  0  0  0  0  0  0  0  0  0  0
  192.9540  173.3020  144.4000 C   0  0  0  0  0  3  0  0  0  0  0  0
  189.3440  176.6050  145.2570 C   0  0  0  0  0  2  0  0  0  0  0  0
  188.7230  173.1760  141.8550 C   0  0  0  0  0  2  0  0  0  0  0  0
  190.1070  172.6650  142.0510 N   0  0  0  0  0  0  0  0  0  0  0  0
  187.5220  176.4830  143.3250 C   0  0  2  0  0  3  0  0  0  0  0  0
  189.1120  174.8250  143.5800 C   0  0  2  0  0  3  0  0  0  0  0  0
  192.1840  172.7510  143.4110 N   0  0  0  0  0  0  0  0  0  0  0  0
  191.3480  170.6610  139.1190 C   0  0  0  0  0  0  0  0  0  0  0  0
  191.3340  169.3700  139.6490 C   0  0  0  0  0  3  0  0  0  0  0  0
  190.5430  171.5530  141.2380 C   0  0  0  0  0  0  0  0  0  0  0  0
  190.9220  169.1630  140.9690 C   0  0  0  0  0  3  0  0  0  0  0  0
  190.9500  171.7440  139.9070 C   0  0  0  0  0  3  0  0  0  0  0  0
  190.5270  170.2480  141.7570 C   0  0  0  0  0  3  0  0  0  0  0  0
  191.7780  170.8820  137.7140 C   0  0  0  0  0  1  0  0  0  0  0  0
  187.3440  177.8630  142.7050 C   0  0  0  0  0  2  0  0  0  0  0  0
  186.1720  178.6150  143.3230 C   0  0  0  0  0  2  0  0  0  0  0  0
  186.2320  178.5880  144.8450 C   0  0  0  0  0  2  0  0  0  0  0  0
  184.0940  178.9580  145.4980 C   0  0  0  0  0  2  0  0  0  0  0  0
  184.2190  178.1600  146.6650 C   0  0  1  0  0  3  0  0  0  0  0  0
  186.0630  177.6660  147.6560 C   0  0  0  0  0  2  0  0  0  0  0  0
  185.8470  176.8510  146.3920 C   0  0  0  0  0  2  0  0  0  0  0  0
  185.0890  177.7560  145.4270 C   0  0  2  0  0  0  0  0  0  0  0  0
  185.0970  178.6690  147.6220 O   0  0  0  0  0  0  0  0  0  0  0  0
  1 10  2  0  0  0  0
  2  6  1  0  0  0  0
  3  8  1  0  0  0  0
  4 14  1  1  0  0  0
  4  9  1  0  0  0  0
  4 17  1  0  0  0  0
  6  5  2  0  0  0  0
  7 13  1  1  0  0  0
  8  1  1  0  0  0  0
  8  2  2  0  0  0  0
  9 16  1  0  0  0  0
 10  5  1  0  0  0  0
 11 18  1  0  0  0  0
 11  3  2  0  0  0  0
 12  1  1  0  0  0  0
 13  2  1  0  0  0  0
 14 15  1  0  0  0  0
 15 11  1  0  0  0  0
 16 26  1  6  0  0  0
 16  7  1  0  0  0  0
 17  3  1  6  0  0  0
 17  7  1  0  0  0  0
 18 12  2  0  0  0  0
 19 20  2  0  0  0  0
 19 23  1  0  0  0  0
 20 22  1  0  0  0  0
 21 24  1  0  0  0  0
 21 15  1  0  0  0  0
 22 24  2  0  0  0  0
 23 21  2  0  0  0  0
 25 19  1  0  0  0  0
 26 27  1  0  0  0  0
 27 28  1  0  0  0  0
 30 29  1  6  0  0  0
 30 34  1  0  0  0  0
 32 31  1  0  0  0  0
 33 28  1  1  0  0  0
 33 29  1  0  0  0  0
 33 32  1  0  0  0  0
 33 30  1  0  0  0  0
 34 31  1  0  0  0  0
M  END
>  <MODEL>
5

>  <REMARK>
 VINA RESULT:      -7.8      3.225      8.423
  Name = 
  5 active torsions:
  status: ('A' for Active; 'I' for Inactive)
    1  A    between atoms: C_3  and  C_13
    2  A    between atoms: C_3  and  C_17
    3  A    between atoms: C_12  and  N_28
    4  A    between atoms: C_13  and  C_33
    5  A    between atoms: C_17  and  C_29
                            x       y       z     vdW  Elec       q    Type
                         _______ _______ _______ _____ _____    ______ ____

>  <TORSDO>
F 5

$$$$
=
 OpenBabel11052418563D

 34 41  0  0  1  0  0  0  0  0999 V2000
  188.9230  174.5390  141.2130 C   0  0  0  0  0  0  0  0  0  0  0  0
  191.2370  174.0690  141.7790 C   0  0  0  0  0  0  0  0  0  0  0  0
  189.8190  175.3560  143.2890 C   0  0  0  0  0  0  0  0  0  0  0  0
  190.9040  176.5470  145.1300 C   0  0  2  0  0  3  0  0  0  0  0  0
  190.2950  173.2850  139.7480 C   0  0  0  0  0  3  0  0  0  0  0  0
  191.3510  173.3890  140.6070 N   0  0  0  0  0  0  0  0  0  0  0  0
  192.2450  175.3880  143.6520 C   0  0  2  0  0  3  0  0  0  0  0  0
  189.9930  174.6560  142.1010 C   0  0  0  0  0  0  0  0  0  0  0  0
  192.2090  176.3360  145.8930 C   0  0  0  0  0  2  0  0  0  0  0  0
  189.0930  173.8560  140.0510 N   0  0  0  0  0  0  0  0  0  0  0  0
  188.5830  175.9070  143.6320 C   0  0  0  0  0  0  0  0  0  0  0  0
  187.6900  175.1130  141.5590 C   0  0  0  0  0  3  0  0  0  0  0  0
  192.4140  174.1500  142.7540 C   0  0  0  0  0  2  0  0  0  0  0  0
  189.5760  176.5710  145.8840 C   0  0  0  0  0  2  0  0  0  0  0  0
  188.4450  176.5910  144.9170 N   0  0  0  0  0  0  0  0  0  0  0  0
  193.1170  175.5630  144.8940 C   0  0  2  0  0  3  0  0  0  0  0  0
  190.9000  175.3420  144.2780 C   0  0  2  0  0  3  0  0  0  0  0  0
  187.5470  175.7740  142.7490 N   0  0  0  0  0  0  0  0  0  0  0  0
  185.5550  178.9970  145.0250 C   0  0  0  0  0  0  0  0  0  0  0  0
  184.8600  178.5340  146.1420 C   0  0  0  0  0  3  0  0  0  0  0  0
  187.2190  177.2410  145.3160 C   0  0  0  0  0  0  0  0  0  0  0  0
  185.3400  177.4300  146.8530 C   0  0  0  0  0  3  0  0  0  0  0  0
  186.7290  178.3580  144.6180 C   0  0  0  0  0  3  0  0  0  0  0  0
  186.5130  176.7900  146.4430 C   0  0  0  0  0  3  0  0  0  0  0  0
  185.0510  180.1750  144.2720 C   0  0  0  0  0  1  0  0  0  0  0  0
  194.3550  176.3900  144.5730 C   0  0  0  0  0  2  0  0  0  0  0  0
  195.6370  175.6730  144.9780 C   0  0  0  0  0  2  0  0  0  0  0  0
  195.6180  174.2110  144.5500 C   0  0  0  0  0  2  0  0  0  0  0  0
  197.1580  173.6240  146.1050 C   0  0  0  0  0  2  0  0  0  0  0  0
  196.8130  172.2480  146.0550 C   0  0  1  0  0  3  0  0  0  0  0  0
  195.8320  171.2580  144.4160 C   0  0  0  0  0  2  0  0  0  0  0  0
  194.8720  172.0880  145.2540 C   0  0  0  0  0  2  0  0  0  0  0  0
  195.6740  173.2810  145.7630 C   0  0  2  0  0  0  0  0  0  0  0  0
  197.1070  171.6230  144.8440 O   0  0  0  0  0  0  0  0  0  0  0  0
  1 12  2  0  0  0  0
  1  8  1  0  0  0  0
  2  8  1  0  0  0  0
  2 13  1  0  0  0  0
  3 11  1  0  0  0  0
  4 14  1  1  0  0  0
  4  9  1  0  0  0  0
  5 10  2  0  0  0  0
  5  6  1  0  0  0  0
  6  2  2  0  0  0  0
  7 13  1  1  0  0  0
  7 17  1  0  0  0  0
  7 16  1  0  0  0  0
  8  3  2  0  0  0  0
 10  1  1  0  0  0  0
 11 15  1  0  0  0  0
 12 18  1  0  0  0  0
 15 21  1  0  0  0  0
 15 14  1  0  0  0  0
 16 26  1  6  0  0  0
 16  9  1  0  0  0  0
 17  3  1  6  0  0  0
 17  4  1  0  0  0  0
 18 11  2  0  0  0  0
 19 20  1  0  0  0  0
 20 22  2  0  0  0  0
 21 24  2  0  0  0  0
 23 19  2  0  0  0  0
 23 21  1  0  0  0  0
 24 22  1  0  0  0  0
 25 19  1  0  0  0  0
 26 27  1  0  0  0  0
 28 27  1  0  0  0  0
 30 29  1  6  0  0  0
 31 34  1  0  0  0  0
 31 32  1  0  0  0  0
 32 33  1  0  0  0  0
 33 28  1  6  0  0  0
 33 30  1  0  0  0  0
 33 29  1  0  0  0  0
 34 30  1  0  0  0  0
M  END
>  <MODEL>
6

>  <REMARK>
 VINA RESULT:      -7.8      1.719      2.139
  Name = 
  5 active torsions:
  status: ('A' for Active; 'I' for Inactive)
    1  A    between atoms: C_3  and  C_13
    2  A    between atoms: C_3  and  C_17
    3  A    between atoms: C_12  and  N_28
    4  A    between atoms: C_13  and  C_33
    5  A    between atoms: C_17  and  C_29
                            x       y       z     vdW  Elec       q    Type
                         _______ _______ _______ _____ _____    ______ ____

>  <TORSDO>
F 5

$$$$
=
 OpenBabel11052418563D

 34 41  0  0  1  0  0  0  0  0999 V2000
  184.9710  177.9430  144.6780 C   0  0  0  0  0  0  0  0  0  0  0  0
  186.6520  177.9430  146.4300 C   0  0  0  0  0  0  0  0  0  0  0  0
  187.2020  177.2040  144.1730 C   0  0  0  0  0  0  0  0  0  0  0  0
  189.3250  176.0330  143.8450 C   0  0  2  0  0  3  0  0  0  0  0  0
  184.4340  178.6650  146.8670 C   0  0  0  0  0  3  0  0  0  0  0  0
  185.7130  178.4310  147.2850 N   0  0  0  0  0  0  0  0  0  0  0  0
  188.7610  176.6690  145.9910 C   0  0  2  0  0  3  0  0  0  0  0  0
  186.2810  177.6960  145.0900 C   0  0  0  0  0  0  0  0  0  0  0  0
  190.6530  176.0350  144.5980 C   0  0  0  0  0  2  0  0  0  0  0  0
  184.0700  178.4220  145.5750 N   0  0  0  0  0  0  0  0  0  0  0  0
  186.8540  176.9930  142.8370 C   0  0  0  0  0  0  0  0  0  0  0  0
  184.6270  177.7090  143.3380 C   0  0  0  0  0  3  0  0  0  0  0  0
  188.0920  177.7170  146.8970 C   0  0  0  0  0  2  0  0  0  0  0  0
  189.2880  176.4020  142.3630 C   0  0  0  0  0  2  0  0  0  0  0  0
  187.8770  176.5200  141.9060 N   0  0  0  0  0  0  0  0  0  0  0  0
  190.2720  176.4550  146.0470 C   0  0  2  0  0  3  0  0  0  0  0  0
  188.6060  177.0940  144.5780 C   0  0  2  0  0  3  0  0  0  0  0  0
  185.5660  177.2470  142.4550 N   0  0  0  0  0  0  0  0  0  0  0  0
  187.8170  174.7840  138.5690 C   0  0  0  0  0  0  0  0  0  0  0  0
  187.0460  175.6710  137.8180 C   0  0  0  0  0  3  0  0  0  0  0  0
  187.5820  176.2170  140.5250 C   0  0  0  0  0  0  0  0  0  0  0  0
  186.5440  176.8340  138.4100 C   0  0  0  0  0  3  0  0  0  0  0  0
  188.0860  175.0580  139.9130 C   0  0  0  0  0  3  0  0  0  0  0  0
  186.8130  177.1050  139.7550 C   0  0  0  0  0  3  0  0  0  0  0  0
  188.3560  173.5510  137.9390 C   0  0  0  0  0  1  0  0  0  0  0  0
  190.6230  175.3360  147.0190 C   0  0  0  0  0  2  0  0  0  0  0  0
  192.1190  175.2830  147.3060 C   0  0  0  0  0  2  0  0  0  0  0  0
  192.8620  176.4110  146.6010 C   0  0  0  0  0  2  0  0  0  0  0  0
  194.7420  177.4910  145.9430 C   0  0  0  0  0  2  0  0  0  0  0  0
  195.1720  176.4220  145.1140 C   0  0  1  0  0  3  0  0  0  0  0  0
  193.9080  174.8940  144.2800 C   0  0  0  0  0  2  0  0  0  0  0  0
  194.2020  174.6660  145.7540 C   0  0  0  0  0  2  0  0  0  0  0  0
  194.3310  176.0500  146.3820 C   0  0  2  0  0  0  0  0  0  0  0  0
  194.3550  176.1850  144.0090 O   0  0  0  0  0  0  0  0  0  0  0  0
  1  8  1  0  0  0  0
  1 10  2  0  0  0  0
  2 13  1  0  0  0  0
  2  6  1  0  0  0  0
  3  8  1  0  0  0  0
  4 14  1  6  0  0  0
  4 17  1  0  0  0  0
  4  9  1  0  0  0  0
  5  6  2  0  0  0  0
  7 16  1  0  0  0  0
  7 13  1  1  0  0  0
  8  2  2  0  0  0  0
  9 16  1  0  0  0  0
 10  5  1  0  0  0  0
 11  3  2  0  0  0  0
 12  1  1  0  0  0  0
 15 14  1  0  0  0  0
 15 11  1  0  0  0  0
 16 26  1  1  0  0  0
 17  3  1  6  0  0  0
 17  7  1  0  0  0  0
 18 11  1  0  0  0  0
 18 12  2  0  0  0  0
 19 23  1  0  0  0  0
 20 22  1  0  0  0  0
 20 19  2  0  0  0  0
 21 15  1  0  0  0  0
 22 24  2  0  0  0  0
 23 21  2  0  0  0  0
 24 21  1  0  0  0  0
 25 19  1  0  0  0  0
 26 27  1  0  0  0  0
 28 27  1  0  0  0  0
 29 33  1  0  0  0  0
 30 29  1  1  0  0  0
 30 33  1  0  0  0  0
 31 32  1  0  0  0  0
 32 33  1  0  0  0  0
 33 28  1  6  0  0  0
 34 31  1  0  0  0  0
 34 30  1  0  0  0  0
M  END
>  <MODEL>
7

>  <REMARK>
 VINA RESULT:      -7.6      2.298      5.708
  Name = 
  5 active torsions:
  status: ('A' for Active; 'I' for Inactive)
    1  A    between atoms: C_3  and  C_13
    2  A    between atoms: C_3  and  C_17
    3  A    between atoms: C_12  and  N_28
    4  A    between atoms: C_13  and  C_33
    5  A    between atoms: C_17  and  C_29
                            x       y       z     vdW  Elec       q    Type
                         _______ _______ _______ _____ _____    ______ ____

>  <TORSDO>
F 5

$$$$
=
 OpenBabel11052418563D

 34 41  0  0  1  0  0  0  0  0999 V2000
  193.1890  174.8650  142.8630 C   0  0  0  0  0  0  0  0  0  0  0  0
  191.6290  176.4710  143.8030 C   0  0  0  0  0  0  0  0  0  0  0  0
  190.8580  174.7180  142.2940 C   0  0  0  0  0  0  0  0  0  0  0  0
  188.5920  174.9100  141.3910 C   0  0  2  0  0  3  0  0  0  0  0  0
  193.9400  176.5620  144.3320 C   0  0  0  0  0  3  0  0  0  0  0  0
  192.6700  177.0450  144.4640 N   0  0  0  0  0  0  0  0  0  0  0  0
  189.3580  176.6030  142.7610 C   0  0  2  0  0  3  0  0  0  0  0  0
  191.8850  175.3490  142.9850 C   0  0  0  0  0  0  0  0  0  0  0  0
  187.3220  175.6020  141.8790 C   0  0  0  0  0  2  0  0  0  0  0  0
  194.1940  175.4820  143.5380 N   0  0  0  0  0  0  0  0  0  0  0  0
  191.0970  173.5860  141.5130 C   0  0  0  0  0  0  0  0  0  0  0  0
  193.4210  173.7380  142.0600 C   0  0  0  0  0  3  0  0  0  0  0  0
  190.2030  176.9950  143.9850 C   0  0  0  0  0  2  0  0  0  0  0  0
  188.5850  173.4080  141.1170 C   0  0  0  0  0  2  0  0  0  0  0  0
  189.9700  172.9360  140.8460 N   0  0  0  0  0  0  0  0  0  0  0  0
  187.8380  176.7490  142.7960 C   0  0  2  0  0  3  0  0  0  0  0  0
  189.4780  175.1390  142.5490 C   0  0  2  0  0  3  0  0  0  0  0  0
  192.3810  173.1270  141.4120 N   0  0  0  0  0  0  0  0  0  0  0  0
  190.0100  170.7830  137.7610 C   0  0  0  0  0  0  0  0  0  0  0  0
  190.4280  169.5610  138.2910 C   0  0  0  0  0  3  0  0  0  0  0  0
  190.1430  171.8000  139.9720 C   0  0  0  0  0  0  0  0  0  0  0  0
  190.7000  169.4500  139.6570 C   0  0  0  0  0  3  0  0  0  0  0  0
  189.8650  171.8930  138.5980 C   0  0  0  0  0  3  0  0  0  0  0  0
  190.5560  170.5620  140.4920 C   0  0  0  0  0  3  0  0  0  0  0  0
  189.7150  170.9010  136.3100 C   0  0  0  0  0  1  0  0  0  0  0  0
  187.4110  178.0960  142.2280 C   0  0  0  0  0  2  0  0  0  0  0  0
  186.1690  178.6380  142.9250 C   0  0  0  0  0  2  0  0  0  0  0  0
  186.3180  178.5980  144.4400 C   0  0  0  0  0  2  0  0  0  0  0  0
  184.1860  179.0520  145.0570 C   0  0  0  0  0  2  0  0  0  0  0  0
  184.2990  178.3530  146.2860 C   0  0  1  0  0  3  0  0  0  0  0  0
  186.1350  177.9170  147.3190 C   0  0  0  0  0  2  0  0  0  0  0  0
  185.9070  177.0020  146.1270 C   0  0  0  0  0  2  0  0  0  0  0  0
  185.1630  177.8340  145.0880 C   0  0  2  0  0  0  0  0  0  0  0  0
  185.1830  178.9270  147.1980 O   0  0  0  0  0  0  0  0  0  0  0  0
  1  8  1  0  0  0  0
  1 10  2  0  0  0  0
  2 13  1  0  0  0  0
  2  6  1  0  0  0  0
  3  8  1  0  0  0  0
  4 14  1  1  0  0  0
  4  9  1  0  0  0  0
  4 17  1  0  0  0  0
  5  6  2  0  0  0  0
  7 16  1  0  0  0  0
  7 13  1  1  0  0  0
  8  2  2  0  0  0  0
  9 16  1  0  0  0  0
 10  5  1  0  0  0  0
 11  3  2  0  0  0  0
 12  1  1  0  0  0  0
 15 14  1  0  0  0  0
 15 11  1  0  0  0  0
 16 26  1  6  0  0  0
 17  3  1  6  0  0  0
 17  7  1  0  0  0  0
 18 11  1  0  0  0  0
 18 12  2  0  0  0  0
 19 20  2  0  0  0  0
 19 23  1  0  0  0  0
 20 22  1  0  0  0  0
 21 24  1  0  0  0  0
 21 15  1  0  0  0  0
 22 24  2  0  0  0  0
 23 21  2  0  0  0  0
 25 19  1  0  0  0  0
 26 27  1  0  0  0  0
 27 28  1  0  0  0  0
 29 33  1  0  0  0  0
 30 29  1  6  0  0  0
 30 34  1  0  0  0  0
 32 31  1  0  0  0  0
 33 28  1  1  0  0  0
 33 32  1  0  0  0  0
 33 30  1  0  0  0  0
 34 31  1  0  0  0  0
M  END
>  <MODEL>
8

>  <REMARK>
 VINA RESULT:      -7.5      3.216      8.426
  Name = 
  5 active torsions:
  status: ('A' for Active; 'I' for Inactive)
    1  A    between atoms: C_3  and  C_13
    2  A    between atoms: C_3  and  C_17
    3  A    between atoms: C_12  and  N_28
    4  A    between atoms: C_13  and  C_33
    5  A    between atoms: C_17  and  C_29
                            x       y       z     vdW  Elec       q    Type
                         _______ _______ _______ _____ _____    ______ ____

>  <TORSDO>
F 5

$$$$
=
 OpenBabel11052418563D

 34 41  0  0  1  0  0  0  0  0999 V2000
  194.6130  175.3060  143.5070 C   0  0  0  0  0  0  0  0  0  0  0  0
  193.6160  176.3240  145.4720 C   0  0  0  0  0  0  0  0  0  0  0  0
  192.5310  174.4510  144.3510 C   0  0  0  0  0  0  0  0  0  0  0  0
  190.2160  173.9450  144.9620 C   0  0  2  0  0  3  0  0  0  0  0  0
  195.6710  177.1210  144.5960 C   0  0  0  0  0  3  0  0  0  0  0  0
  194.6710  177.1800  145.5230 N   0  0  0  0  0  0  0  0  0  0  0  0
  191.2270  175.7620  145.9630 C   0  0  2  0  0  3  0  0  0  0  0  0
  193.5810  175.3550  144.4450 C   0  0  0  0  0  0  0  0  0  0  0  0
  189.3820  174.1950  146.2150 C   0  0  0  0  0  2  0  0  0  0  0  0
  195.6400  176.1910  143.5990 N   0  0  0  0  0  0  0  0  0  0  0  0
  192.5080  173.4660  143.3610 C   0  0  0  0  0  0  0  0  0  0  0  0
  194.5710  174.3240  142.5050 C   0  0  0  0  0  3  0  0  0  0  0  0
  192.5170  176.3730  146.5370 C   0  0  0  0  0  2  0  0  0  0  0  0
  190.4000  172.5210  144.4400 C   0  0  0  0  0  2  0  0  0  0  0  0
  191.4020  172.5110  143.3390 N   0  0  0  0  0  0  0  0  0  0  0  0
  190.0570  175.4260  146.8860 C   0  0  2  0  0  3  0  0  0  0  0  0
  191.5360  174.4140  145.4260 C   0  0  2  0  0  3  0  0  0  0  0  0
  193.5320  173.4330  142.4560 N   0  0  0  0  0  0  0  0  0  0  0  0
  190.5300  170.8160  140.0960 C   0  0  0  0  0  0  0  0  0  0  0  0
  190.9760  169.5170  140.3420 C   0  0  0  0  0  3  0  0  0  0  0  0
  191.2730  171.5040  142.3120 C   0  0  0  0  0  0  0  0  0  0  0  0
  191.5660  169.2030  141.5700 C   0  0  0  0  0  3  0  0  0  0  0  0
  190.6740  171.8010  141.0760 C   0  0  0  0  0  3  0  0  0  0  0  0
  191.7100  170.1910  142.5490 C   0  0  0  0  0  3  0  0  0  0  0  0
  189.8970  171.1490  138.7940 C   0  0  0  0  0  1  0  0  0  0  0  0
  189.0710  176.5850  146.9520 C   0  0  0  0  0  2  0  0  0  0  0  0
  189.1490  177.4680  145.7130 C   0  0  0  0  0  2  0  0  0  0  0  0
  187.8790  177.3670  144.8760 C   0  0  0  0  0  2  0  0  0  0  0  0
  189.3570  177.4760  143.1630 C   0  0  0  0  0  2  0  0  0  0  0  0
  188.3630  177.2540  142.1750 C   0  0  1  0  0  3  0  0  0  0  0  0
  186.2560  177.6180  142.4090 C   0  0  0  0  0  2  0  0  0  0  0  0
  186.7070  176.3440  143.1050 C   0  0  0  0  0  2  0  0  0  0  0  0
  188.1340  176.6000  143.5790 C   0  0  2  0  0  0  0  0  0  0  0  0
  187.4280  178.2810  142.0540 O   0  0  0  0  0  0  0  0  0  0  0  0
  1 10  2  0  0  0  0
  1  8  1  0  0  0  0
  2  6  1  0  0  0  0
  2 13  1  0  0  0  0
  3  8  1  0  0  0  0
  4 14  1  1  0  0  0
  4 17  1  0  0  0  0
  4  9  1  0  0  0  0
  5  6  2  0  0  0  0
  7 13  1  1  0  0  0
  7 16  1  0  0  0  0
  8  2  2  0  0  0  0
  9 16  1  0  0  0  0
 10  5  1  0  0  0  0
 11  3  2  0  0  0  0
 12  1  1  0  0  0  0
 15 11  1  0  0  0  0
 15 14  1  0  0  0  0
 16 26  1  6  0  0  0
 17  3  1  6  0  0  0
 17  7  1  0  0  0  0
 18 12  2  0  0  0  0
 18 11  1  0  0  0  0
 19 20  2  0  0  0  0
 19 23  1  0  0  0  0
 20 22  1  0  0  0  0
 21 24  1  0  0  0  0
 21 15  1  0  0  0  0
 22 24  2  0  0  0  0
 23 21  2  0  0  0  0
 25 19  1  0  0  0  0
 27 26  1  0  0  0  0
 28 27  1  0  0  0  0
 29 33  1  0  0  0  0
 30 29  1  1  0  0  0
 30 33  1  0  0  0  0
 31 32  1  0  0  0  0
 32 33  1  0  0  0  0
 33 28  1  1  0  0  0
 34 30  1  0  0  0  0
 34 31  1  0  0  0  0
M  END
>  <MODEL>
9

>  <REMARK>
 VINA RESULT:      -7.4      2.889      7.139
  Name = 
  5 active torsions:
  status: ('A' for Active; 'I' for Inactive)
    1  A    between atoms: C_3  and  C_13
    2  A    between atoms: C_3  and  C_17
    3  A    between atoms: C_12  and  N_28
    4  A    between atoms: C_13  and  C_33
    5  A    between atoms: C_17  and  C_29
                            x       y       z     vdW  Elec       q    Type
                         _______ _______ _______ _____ _____    ______ ____

>  <TORSDO>
F 5

$$$$
