=
 OpenBabel11052418593D

 34 38  0  0  1  0  0  0  0  0999 V2000
  194.5350  172.8480  144.3990 C   0  0  2  0  0  3  0  0  0  0  0  0
  195.0410  175.2390  144.9580 C   0  0  1  0  0  3  0  0  0  0  0  0
  192.6290  174.3440  144.4360 C   0  0  2  0  0  3  0  0  0  0  0  0
  196.3400  173.1940  145.7130 C   0  0  0  0  0  2  0  0  0  0  0  0
  190.4150  173.3080  143.6490 C   0  0  1  0  0  3  0  0  0  0  0  0
  188.2690  172.9480  142.6010 O   0  0  0  0  0  1  0  0  0  0  0  0
  195.7370  174.5620  146.1390 C   0  0  0  0  0  2  0  0  0  0  0  0
  192.9570  176.4970  145.6450 C   0  0  0  0  0  2  0  0  0  0  0  0
  188.9260  175.1550  141.3690 O   0  0  0  0  0  1  0  0  0  0  0  0
  194.1320  174.2830  144.1690 C   0  0  2  0  0  3  0  0  0  0  0  0
  189.9720  173.6300  140.0670 F   0  0  0  0  0  0  0  0  0  0  0  0
  195.9320  172.7470  144.4270 O   0  0  0  0  0  0  0  0  0  0  0  0
  191.9450  173.4190  143.3610 C   0  0  1  0  0  0  0  0  0  0  0  0
  189.6410  173.0660  142.3530 C   0  0  1  0  0  3  0  0  0  0  0  0
  193.8800  172.0560  143.2850 C   0  0  0  0  0  2  0  0  0  0  0  0
  194.4260  176.6020  145.2660 C   0  0  0  0  0  2  0  0  0  0  0  0
  191.2690  174.8580  141.6320 C   0  0  0  0  0  2  0  0  0  0  0  0
  189.9280  174.1830  141.3330 C   0  0  2  0  0  0  0  0  0  0  0  0
  192.2220  173.9040  142.0420 O   0  0  0  0  0  0  0  0  0  0  0  0
  190.0720  172.2870  144.7290 C   0  0  0  0  0  1  0  0  0  0  0  0
  192.1590  175.8100  144.5370 C   0  0  2  0  0  3  0  0  0  0  0  0
  192.4720  172.0900  143.4580 O   0  0  0  0  0  0  0  0  0  0  0  0
  190.6810  175.9210  144.8950 C   0  0  0  0  0  2  0  0  0  0  0  0
  187.4490  177.4270  144.3880 C   0  0  0  0  0  3  0  0  0  0  0  0
  188.7300  177.2290  144.2620 C   0  0  0  0  0  0  0  0  0  0  0  0
  190.0140  177.0250  144.1410 C   0  0  0  0  0  0  0  0  0  0  0  0
  190.8360  177.9710  143.3420 C   0  0  0  0  0  1  0  0  0  0  0  0
  185.6620  179.0750  146.1840 C   0  0  0  0  0  1  0  0  0  0  0  0
  186.8430  178.7340  143.9760 C   0  0  2  0  0  3  0  0  0  0  0  0
  185.5060  179.0190  144.6750 C   0  0  1  0  0  3  0  0  0  0  0  0
  183.9970  178.2130  142.5310 S   0  0  0  0  0  0  0  0  0  0  0  0
  185.6690  177.7940  141.9400 C   0  0  0  0  0  2  0  0  0  0  0  0
  186.6910  178.8030  142.4570 C   0  0  0  0  0  2  0  0  0  0  0  0
  184.4340  178.0080  144.2880 C   0  0  0  0  0  2  0  0  0  0  0  0
  1 15  1  6  0  0  0
  1 12  1  0  0  0  0
  2 16  1  1  0  0  0
  2  7  1  0  0  0  0
  3 21  1  0  0  0  0
  4  7  1  0  0  0  0
  5 20  1  0  0  0  0
 10  1  1  0  0  0  0
 10  3  1  0  0  0  0
 10  2  1  0  0  0  0
 11 18  1  0  0  0  0
 12  4  1  0  0  0  0
 13 22  1  0  0  0  0
 13  5  1  0  0  0  0
 13  3  1  0  0  0  0
 14  6  1  0  0  0  0
 14  5  1  0  0  0  0
 15 22  1  0  0  0  0
 16  8  1  0  0  0  0
 17 19  1  0  0  0  0
 18  9  1  0  0  0  0
 18 17  1  0  0  0  0
 18 14  1  0  0  0  0
 19 13  1  0  0  0  0
 21 23  1  0  0  0  0
 21  8  1  0  0  0  0
 25 24  2  0  0  0  0
 26 25  2  0  0  0  0
 26 23  1  0  0  0  0
 27 26  1  0  0  0  0
 29 24  1  0  0  0  0
 29 30  1  0  0  0  0
 30 28  1  0  0  0  0
 31 34  1  0  0  0  0
 32 33  1  0  0  0  0
 32 31  1  0  0  0  0
 33 29  1  0  0  0  0
 34 30  1  0  0  0  0
M  END
>  <MODEL>
1

>  <REMARK>
 VINA RESULT:      -8.2      0.000      0.000
  Name = 
  3 active torsions:
  status: ('A' for Active; 'I' for Inactive)
    1  A    between atoms: C_3  and  C_13
    2  A    between atoms: C_5  and  C_18
    3  A    between atoms: C_5  and  C_31
                            x       y       z     vdW  Elec       q    Type
                         _______ _______ _______ _____ _____    ______ ____

>  <TORSDO>
F 3

$$$$
=
 OpenBabel11052418593D

 34 38  0  0  1  0  0  0  0  0999 V2000
  186.9830  177.8990  147.0640 C   0  0  2  0  0  3  0  0  0  0  0  0
  185.5650  178.2790  145.0310 C   0  0  1  0  0  3  0  0  0  0  0  0
  187.6470  176.6800  145.0770 C   0  0  2  0  0  3  0  0  0  0  0  0
  184.8250  178.4480  147.4520 C   0  0  0  0  0  2  0  0  0  0  0  0
  189.8510  175.3800  145.2820 C   0  0  1  0  0  3  0  0  0  0  0  0
  192.0140  174.4020  144.8370 O   0  0  0  0  0  1  0  0  0  0  0  0
  184.4640  177.9310  146.0320 C   0  0  0  0  0  2  0  0  0  0  0  0
  185.9170  176.4720  143.2970 C   0  0  0  0  0  2  0  0  0  0  0  0
  191.9070  176.0270  142.7960 O   0  0  0  0  0  1  0  0  0  0  0  0
  186.9750  177.9660  145.5570 C   0  0  2  0  0  3  0  0  0  0  0  0
  192.7100  177.4180  144.3880 F   0  0  0  0  0  0  0  0  0  0  0  0
  186.1630  178.9070  147.5870 O   0  0  0  0  0  0  0  0  0  0  0  0
  189.1290  176.7250  145.6060 C   0  0  1  0  0  0  0  0  0  0  0  0
  191.3530  175.6040  145.1110 C   0  0  1  0  0  3  0  0  0  0  0  0
  188.4380  178.0100  147.4710 C   0  0  0  0  0  2  0  0  0  0  0  0
  185.3000  177.8300  143.5960 C   0  0  0  0  0  2  0  0  0  0  0  0
  190.4090  177.5600  143.8220 C   0  0  0  0  0  2  0  0  0  0  0  0
  191.6240  176.6500  144.0130 C   0  0  2  0  0  0  0  0  0  0  0  0
  189.8140  177.8600  145.0640 O   0  0  0  0  0  0  0  0  0  0  0  0
  189.5410  174.2680  146.2800 C   0  0  0  0  0  1  0  0  0  0  0  0
  187.4210  176.4890  143.5630 C   0  0  2  0  0  3  0  0  0  0  0  0
  189.1320  176.8530  147.0340 O   0  0  0  0  0  0  0  0  0  0  0  0
  187.9960  175.1700  143.0550 C   0  0  0  0  0  2  0  0  0  0  0  0
  190.3220  173.6940  140.7350 C   0  0  0  0  0  3  0  0  0  0  0  0
  189.3920  174.4900  141.1830 C   0  0  0  0  0  0  0  0  0  0  0  0
  188.4620  175.2830  141.6400 C   0  0  0  0  0  0  0  0  0  0  0  0
  187.7770  176.2220  140.7130 C   0  0  0  0  0  1  0  0  0  0  0  0
  188.2430  172.4640  138.9180 C   0  0  0  0  0  1  0  0  0  0  0  0
  190.5150  173.5160  139.2600 C   0  0  2  0  0  3  0  0  0  0  0  0
  189.7380  172.3180  138.6960 C   0  0  1  0  0  3  0  0  0  0  0  0
  191.9270  170.6650  138.6780 S   0  0  0  0  0  0  0  0  0  0  0  0
  192.6280  172.1400  139.4850 C   0  0  0  0  0  2  0  0  0  0  0  0
  192.0020  173.4120  138.9190 C   0  0  0  0  0  2  0  0  0  0  0  0
  190.2350  170.9970  139.2680 C   0  0  0  0  0  2  0  0  0  0  0  0
  1 15  1  1  0  0  0
  1 12  1  0  0  0  0
  2 16  1  6  0  0  0
  2 10  1  0  0  0  0
  2  7  1  0  0  0  0
  3 10  1  0  0  0  0
  3 13  1  0  0  0  0
  4 12  1  0  0  0  0
  5 13  1  0  0  0  0
  5 20  1  0  0  0  0
  6 14  1  0  0  0  0
  7  4  1  0  0  0  0
  8 21  1  0  0  0  0
  8 16  1  0  0  0  0
  9 18  1  0  0  0  0
 10  1  1  0  0  0  0
 13 22  1  0  0  0  0
 14  5  1  0  0  0  0
 17 18  1  0  0  0  0
 17 19  1  0  0  0  0
 18 11  1  0  0  0  0
 18 14  1  0  0  0  0
 19 13  1  0  0  0  0
 21  3  1  0  0  0  0
 22 15  1  0  0  0  0
 23 21  1  0  0  0  0
 24 25  2  0  0  0  0
 25 26  2  0  0  0  0
 26 23  1  0  0  0  0
 27 26  1  0  0  0  0
 29 24  1  0  0  0  0
 30 28  1  0  0  0  0
 30 29  1  0  0  0  0
 30 34  1  0  0  0  0
 31 34  1  0  0  0  0
 31 32  1  0  0  0  0
 33 29  1  0  0  0  0
 33 32  1  0  0  0  0
M  END
>  <MODEL>
2

>  <REMARK>
 VINA RESULT:      -8.1      3.561      7.618
  Name = 
  3 active torsions:
  status: ('A' for Active; 'I' for Inactive)
    1  A    between atoms: C_3  and  C_13
    2  A    between atoms: C_5  and  C_18
    3  A    between atoms: C_5  and  C_31
                            x       y       z     vdW  Elec       q    Type
                         _______ _______ _______ _____ _____    ______ ____

>  <TORSDO>
F 3

$$$$
=
 OpenBabel11052418593D

 34 38  0  0  1  0  0  0  0  0999 V2000
  191.2580  173.8650  141.1390 C   0  0  2  0  0  3  0  0  0  0  0  0
  190.1310  172.1220  142.5450 C   0  0  1  0  0  3  0  0  0  0  0  0
  191.3120  174.2500  143.5310 C   0  0  2  0  0  3  0  0  0  0  0  0
  189.5570  172.7500  140.1550 C   0  0  0  0  0  2  0  0  0  0  0  0
  192.7340  176.2520  144.2820 C   0  0  1  0  0  3  0  0  0  0  0  0
  194.2530  177.6920  145.4840 O   0  0  0  0  0  1  0  0  0  0  0  0
  188.9950  172.4130  141.5640 C   0  0  0  0  0  2  0  0  0  0  0  0
  189.6480  172.9740  144.8770 C   0  0  0  0  0  2  0  0  0  0  0  0
  194.8470  175.4430  146.6700 O   0  0  0  0  0  1  0  0  0  0  0  0
  191.2690  173.1520  142.4690 C   0  0  2  0  0  3  0  0  0  0  0  0
  196.1870  175.3160  144.8530 F   0  0  0  0  0  0  0  0  0  0  0  0
  190.9630  172.9540  140.1160 O   0  0  0  0  0  0  0  0  0  0  0  0
  192.6700  175.0180  143.3270 C   0  0  1  0  0  0  0  0  0  0  0  0
  194.1830  176.5780  144.6420 C   0  0  1  0  0  3  0  0  0  0  0  0
  192.6210  174.5160  141.0130 C   0  0  0  0  0  2  0  0  0  0  0  0
  189.6860  171.7610  143.9600 C   0  0  0  0  0  2  0  0  0  0  0  0
  194.1720  174.0610  144.8590 C   0  0  0  0  0  2  0  0  0  0  0  0
  194.8720  175.3560  145.2770 C   0  0  2  0  0  0  0  0  0  0  0  0
  193.7760  174.1260  143.5080 O   0  0  0  0  0  0  0  0  0  0  0  0
  191.9790  177.4680  143.7540 C   0  0  0  0  0  1  0  0  0  0  0  0
  191.0130  173.6600  144.9250 C   0  0  2  0  0  3  0  0  0  0  0  0
  192.7400  175.5360  141.9920 O   0  0  0  0  0  0  0  0  0  0  0  0
  190.9540  174.7340  146.0070 C   0  0  0  0  0  2  0  0  0  0  0  0
  188.0430  176.3930  144.6860 C   0  0  0  0  0  3  0  0  0  0  0  0
  188.7900  175.7350  145.5270 C   0  0  0  0  0  0  0  0  0  0  0  0
  189.5440  175.0760  146.3640 C   0  0  0  0  0  0  0  0  0  0  0  0
  188.9600  174.5600  147.6290 C   0  0  0  0  0  1  0  0  0  0  0  0
  186.1260  176.8060  142.3860 C   0  0  0  0  0  1  0  0  0  0  0  0
  186.5530  176.3960  144.8430 C   0  0  2  0  0  3  0  0  0  0  0  0
  185.8450  177.2750  143.8030 C   0  0  1  0  0  3  0  0  0  0  0  0
  185.5310  179.3880  145.5230 S   0  0  0  0  0  0  0  0  0  0  0  0
  186.5210  178.2590  146.5550 C   0  0  0  0  0  2  0  0  0  0  0  0
  186.1610  176.8060  146.2630 C   0  0  0  0  0  2  0  0  0  0  0  0
  186.2090  178.7460  143.9580 C   0  0  0  0  0  2  0  0  0  0  0  0
  1 15  1  6  0  0  0
  1 10  1  0  0  0  0
  2  7  1  6  0  0  0
  2 16  1  0  0  0  0
  3 21  1  0  0  0  0
  4  7  1  0  0  0  0
  5 14  1  0  0  0  0
  8 21  1  0  0  0  0
 10  2  1  0  0  0  0
 10  3  1  0  0  0  0
 11 18  1  0  0  0  0
 12  4  1  0  0  0  0
 12  1  1  0  0  0  0
 13 19  1  0  0  0  0
 13  3  1  0  0  0  0
 13  5  1  0  0  0  0
 14 18  1  0  0  0  0
 14  6  1  0  0  0  0
 15 22  1  0  0  0  0
 16  8  1  0  0  0  0
 17 18  1  0  0  0  0
 18  9  1  0  0  0  0
 19 17  1  0  0  0  0
 20  5  1  0  0  0  0
 21 23  1  0  0  0  0
 22 13  1  0  0  0  0
 23 26  1  0  0  0  0
 24 29  1  0  0  0  0
 24 25  2  0  0  0  0
 25 26  2  0  0  0  0
 26 27  1  0  0  0  0
 28 30  1  0  0  0  0
 29 33  1  0  0  0  0
 30 34  1  0  0  0  0
 30 29  1  0  0  0  0
 31 32  1  0  0  0  0
 33 32  1  0  0  0  0
 34 31  1  0  0  0  0
M  END
>  <MODEL>
3

>  <REMARK>
 VINA RESULT:      -8.1      2.375      5.023
  Name = 
  3 active torsions:
  status: ('A' for Active; 'I' for Inactive)
    1  A    between atoms: C_3  and  C_13
    2  A    between atoms: C_5  and  C_18
    3  A    between atoms: C_5  and  C_31
                            x       y       z     vdW  Elec       q    Type
                         _______ _______ _______ _____ _____    ______ ____

>  <TORSDO>
F 3

$$$$
=
 OpenBabel11052418593D

 34 38  0  0  1  0  0  0  0  0999 V2000
  191.0820  171.7310  142.8590 C   0  0  2  0  0  3  0  0  0  0  0  0
  188.9980  172.5280  141.7140 C   0  0  1  0  0  3  0  0  0  0  0  0
  190.4970  174.0520  143.2380 C   0  0  2  0  0  3  0  0  0  0  0  0
  190.5450  170.6720  140.9370 C   0  0  0  0  0  2  0  0  0  0  0  0
  191.9570  175.2780  144.9590 C   0  0  1  0  0  3  0  0  0  0  0  0
  192.7190  176.6880  146.7640 O   0  0  0  0  0  1  0  0  0  0  0  0
  189.7170  171.9160  140.5110 C   0  0  0  0  0  2  0  0  0  0  0  0
  188.8980  175.0530  141.6110 C   0  0  0  0  0  2  0  0  0  0  0  0
  190.1540  176.8280  147.2330 O   0  0  0  0  0  1  0  0  0  0  0  0
  189.9070  172.6740  142.9450 C   0  0  2  0  0  3  0  0  0  0  0  0
  190.6680  174.9150  148.3260 F   0  0  0  0  0  0  0  0  0  0  0  0
  190.6640  170.4980  142.3420 O   0  0  0  0  0  0  0  0  0  0  0  0
  191.2010  173.9490  144.6420 C   0  0  1  0  0  0  0  0  0  0  0  0
  192.0290  175.5080  146.4680 C   0  0  1  0  0  3  0  0  0  0  0  0
  191.6480  171.6550  144.2630 C   0  0  0  0  0  2  0  0  0  0  0  0
  188.1400  173.7510  141.4000 C   0  0  0  0  0  2  0  0  0  0  0  0
  189.6340  174.7540  146.1950 C   0  0  0  0  0  2  0  0  0  0  0  0
  190.6170  175.5190  147.0830 C   0  0  2  0  0  0  0  0  0  0  0  0
  190.2460  173.6070  145.6520 O   0  0  0  0  0  0  0  0  0  0  0  0
  193.3250  175.3730  144.2910 C   0  0  0  0  0  1  0  0  0  0  0  0
  189.4270  175.1470  143.0420 C   0  0  2  0  0  3  0  0  0  0  0  0
  192.1950  172.9160  144.6120 O   0  0  0  0  0  0  0  0  0  0  0  0
  189.9940  176.5500  143.2330 C   0  0  0  0  0  2  0  0  0  0  0  0
  187.2010  177.9110  145.0550 C   0  0  0  0  0  3  0  0  0  0  0  0
  188.0620  177.7540  144.0900 C   0  0  0  0  0  0  0  0  0  0  0  0
  188.9280  177.5920  143.1270 C   0  0  0  0  0  0  0  0  0  0  0  0
  188.9290  178.5290  141.9740 C   0  0  0  0  0  1  0  0  0  0  0  0
  185.6090  178.6860  147.5050 C   0  0  0  0  0  1  0  0  0  0  0  0
  186.4010  179.1740  145.1550 C   0  0  2  0  0  3  0  0  0  0  0  0
  185.1900  179.0420  146.0890 C   0  0  1  0  0  3  0  0  0  0  0  0
  183.4090  178.6660  144.0380 S   0  0  0  0  0  0  0  0  0  0  0  0
  184.9810  178.6910  143.1170 C   0  0  0  0  0  2  0  0  0  0  0  0
  185.9710  179.6520  143.7680 C   0  0  0  0  0  2  0  0  0  0  0  0
  184.1750  178.0340  145.5660 C   0  0  0  0  0  2  0  0  0  0  0  0
  1 10  1  0  0  0  0
  1 15  1  1  0  0  0
  2  7  1  6  0  0  0
  2 10  1  0  0  0  0
  3 13  1  0  0  0  0
  4 12  1  0  0  0  0
  5 14  1  0  0  0  0
  7  4  1  0  0  0  0
  8 21  1  0  0  0  0
 10  3  1  0  0  0  0
 12  1  1  0  0  0  0
 13  5  1  0  0  0  0
 13 19  1  0  0  0  0
 14  6  1  0  0  0  0
 14 18  1  0  0  0  0
 15 22  1  0  0  0  0
 16  8  1  0  0  0  0
 16  2  1  0  0  0  0
 17 18  1  0  0  0  0
 18  9  1  0  0  0  0
 18 11  1  0  0  0  0
 19 17  1  0  0  0  0
 20  5  1  0  0  0  0
 21 23  1  0  0  0  0
 21  3  1  0  0  0  0
 22 13  1  0  0  0  0
 24 29  1  0  0  0  0
 25 24  2  0  0  0  0
 26 23  1  0  0  0  0
 26 25  2  0  0  0  0
 27 26  1  0  0  0  0
 29 30  1  0  0  0  0
 30 28  1  0  0  0  0
 31 34  1  0  0  0  0
 32 33  1  0  0  0  0
 32 31  1  0  0  0  0
 33 29  1  0  0  0  0
 34 30  1  0  0  0  0
M  END
>  <MODEL>
4

>  <REMARK>
 VINA RESULT:      -8.0      2.592      4.580
  Name = 
  3 active torsions:
  status: ('A' for Active; 'I' for Inactive)
    1  A    between atoms: C_3  and  C_13
    2  A    between atoms: C_5  and  C_18
    3  A    between atoms: C_5  and  C_31
                            x       y       z     vdW  Elec       q    Type
                         _______ _______ _______ _____ _____    ______ ____

>  <TORSDO>
F 3

$$$$
=
 OpenBabel11052418593D

 34 38  0  0  1  0  0  0  0  0999 V2000
  186.8620  177.5830  145.0350 C   0  0  2  0  0  3  0  0  0  0  0  0
  187.3890  176.9700  142.6620 C   0  0  1  0  0  3  0  0  0  0  0  0
  188.6080  175.9290  144.7410 C   0  0  2  0  0  3  0  0  0  0  0  0
  185.1620  177.7880  143.5620 C   0  0  0  0  0  2  0  0  0  0  0  0
  189.8310  175.2400  146.8910 C   0  0  1  0  0  3  0  0  0  0  0  0
  191.5280  174.6220  148.4940 O   0  0  0  0  0  1  0  0  0  0  0  0
  185.8740  176.7640  142.6340 C   0  0  0  0  0  2  0  0  0  0  0  0
  188.6720  174.7950  142.5240 C   0  0  0  0  0  2  0  0  0  0  0  0
  193.1000  175.4140  146.5660 O   0  0  0  0  0  1  0  0  0  0  0  0
  187.9460  177.1390  144.0850 C   0  0  2  0  0  3  0  0  0  0  0  0
  192.6660  177.3890  147.5800 F   0  0  0  0  0  0  0  0  0  0  0  0
  186.0360  178.5240  144.4060 O   0  0  0  0  0  0  0  0  0  0  0  0
  189.2530  176.4430  146.0810 C   0  0  1  0  0  0  0  0  0  0  0  0
  191.0110  175.6890  147.7510 C   0  0  1  0  0  3  0  0  0  0  0  0
  187.5830  178.1130  146.2590 C   0  0  0  0  0  2  0  0  0  0  0  0
  188.1850  176.0230  141.7690 C   0  0  0  0  0  2  0  0  0  0  0  0
  191.5060  176.8710  145.5740 C   0  0  0  0  0  2  0  0  0  0  0  0
  192.1020  176.3390  146.8790 C   0  0  2  0  0  0  0  0  0  0  0  0
  190.2390  177.4440  145.8050 O   0  0  0  0  0  0  0  0  0  0  0  0
  188.7770  174.4890  147.6990 C   0  0  0  0  0  1  0  0  0  0  0  0
  189.5180  175.2000  143.7300 C   0  0  2  0  0  3  0  0  0  0  0  0
  188.2440  177.0390  146.9080 O   0  0  0  0  0  0  0  0  0  0  0  0
  190.1300  173.9310  144.3130 C   0  0  0  0  0  2  0  0  0  0  0  0
  193.3780  174.8800  143.0810 C   0  0  0  0  0  3  0  0  0  0  0  0
  192.3170  174.1490  143.2710 C   0  0  0  0  0  0  0  0  0  0  0  0
  191.2510  173.4220  143.4660 C   0  0  0  0  0  0  0  0  0  0  0  0
  191.2040  172.0320  142.9420 C   0  0  0  0  0  1  0  0  0  0  0  0
  195.2360  173.2750  144.8440 C   0  0  0  0  0  1  0  0  0  0  0  0
  194.6480  174.2540  142.5900 C   0  0  2  0  0  3  0  0  0  0  0  0
  195.7160  174.1310  143.6860 C   0  0  1  0  0  3  0  0  0  0  0  0
  197.0850  176.3620  142.8670 S   0  0  0  0  0  0  0  0  0  0  0  0
  195.6460  176.4240  141.7510 C   0  0  0  0  0  2  0  0  0  0  0  0
  195.1920  175.0150  141.3800 C   0  0  0  0  0  2  0  0  0  0  0  0
  196.1780  175.4940  144.1870 C   0  0  0  0  0  2  0  0  0  0  0  0
  1 15  1  1  0  0  0
  2 16  1  1  0  0  0
  2 10  1  0  0  0  0
  3 13  1  0  0  0  0
  4 12  1  0  0  0  0
  5 20  1  0  0  0  0
  5 14  1  0  0  0  0
  7  2  1  0  0  0  0
  7  4  1  0  0  0  0
  8 21  1  0  0  0  0
  9 18  1  0  0  0  0
 10  3  1  0  0  0  0
 10  1  1  0  0  0  0
 12  1  1  0  0  0  0
 13  5  1  0  0  0  0
 13 22  1  0  0  0  0
 14  6  1  0  0  0  0
 15 22  1  0  0  0  0
 16  8  1  0  0  0  0
 17 19  1  0  0  0  0
 17 18  1  0  0  0  0
 18 11  1  0  0  0  0
 18 14  1  0  0  0  0
 19 13  1  0  0  0  0
 21 23  1  0  0  0  0
 21  3  1  0  0  0  0
 24 25  2  0  0  0  0
 25 26  2  0  0  0  0
 26 23  1  0  0  0  0
 27 26  1  0  0  0  0
 29 24  1  0  0  0  0
 29 30  1  0  0  0  0
 30 34  1  0  0  0  0
 30 28  1  0  0  0  0
 31 34  1  0  0  0  0
 32 31  1  0  0  0  0
 33 32  1  0  0  0  0
 33 29  1  0  0  0  0
M  END
>  <MODEL>
5

>  <REMARK>
 VINA RESULT:      -7.8      3.809      7.974
  Name = 
  3 active torsions:
  status: ('A' for Active; 'I' for Inactive)
    1  A    between atoms: C_3  and  C_13
    2  A    between atoms: C_5  and  C_18
    3  A    between atoms: C_5  and  C_31
                            x       y       z     vdW  Elec       q    Type
                         _______ _______ _______ _____ _____    ______ ____

>  <TORSDO>
F 3

$$$$
=
 OpenBabel11052418593D

 34 38  0  0  1  0  0  0  0  0999 V2000
  192.9100  172.1290  141.3950 C   0  0  2  0  0  3  0  0  0  0  0  0
  190.6200  171.4450  142.1530 C   0  0  1  0  0  3  0  0  0  0  0  0
  191.7850  173.6840  142.8760 C   0  0  2  0  0  3  0  0  0  0  0  0
  191.7600  170.7950  139.9810 C   0  0  0  0  0  2  0  0  0  0  0  0
  193.2080  175.6770  143.6490 C   0  0  1  0  0  3  0  0  0  0  0  0
  194.2330  177.4150  144.9750 O   0  0  0  0  0  1  0  0  0  0  0  0
  190.4380  171.2720  140.6450 C   0  0  0  0  0  2  0  0  0  0  0  0
  189.3180  173.4070  143.0750 C   0  0  0  0  0  2  0  0  0  0  0  0
  193.1320  176.0590  146.9160 O   0  0  0  0  0  1  0  0  0  0  0  0
  191.9060  172.2030  142.5190 C   0  0  2  0  0  3  0  0  0  0  0  0
  195.0690  174.9180  146.6640 F   0  0  0  0  0  0  0  0  0  0  0  0
  192.8970  170.8470  140.8310 O   0  0  0  0  0  0  0  0  0  0  0  0
  193.2010  174.1360  143.3950 C   0  0  1  0  0  0  0  0  0  0  0  0
  194.2050  176.0350  144.7500 C   0  0  1  0  0  3  0  0  0  0  0  0
  194.2390  172.5220  142.0090 C   0  0  0  0  0  2  0  0  0  0  0  0
  189.3720  171.8960  142.9070 C   0  0  0  0  0  2  0  0  0  0  0  0
  193.0870  173.9960  145.7370 C   0  0  0  0  0  2  0  0  0  0  0  0
  193.8830  175.2670  146.0450 C   0  0  2  0  0  0  0  0  0  0  0  0
  193.5650  173.3860  144.5590 O   0  0  0  0  0  0  0  0  0  0  0  0
  193.4210  176.5000  142.3830 C   0  0  0  0  0  1  0  0  0  0  0  0
  190.5660  173.9180  143.7930 C   0  0  2  0  0  3  0  0  0  0  0  0
  194.1900  173.8880  142.3870 O   0  0  0  0  0  0  0  0  0  0  0  0
  190.3500  175.3960  144.1010 C   0  0  0  0  0  2  0  0  0  0  0  0
  187.1720  177.0320  144.5350 C   0  0  0  0  0  3  0  0  0  0  0  0
  188.2180  176.3130  144.8270 C   0  0  0  0  0  0  0  0  0  0  0  0
  189.2690  175.5940  145.1130 C   0  0  0  0  0  0  0  0  0  0  0  0
  189.3330  174.8690  146.4090 C   0  0  0  0  0  1  0  0  0  0  0  0
  184.5120  178.1990  143.6970 C   0  0  0  0  0  1  0  0  0  0  0  0
  185.9240  176.9170  145.3560 C   0  0  2  0  0  3  0  0  0  0  0  0
  184.9590  178.0930  145.1440 C   0  0  1  0  0  3  0  0  0  0  0  0
  185.7450  179.3950  147.4270 S   0  0  0  0  0  0  0  0  0  0  0  0
  186.9200  178.0020  147.4140 C   0  0  0  0  0  2  0  0  0  0  0  0
  186.2650  176.7500  146.8370 C   0  0  0  0  0  2  0  0  0  0  0  0
  185.5580  179.4120  145.6150 C   0  0  0  0  0  2  0  0  0  0  0  0
  1 15  1  1  0  0  0
  1 10  1  0  0  0  0
  2  7  1  6  0  0  0
  2 10  1  0  0  0  0
  2 16  1  0  0  0  0
  3 13  1  0  0  0  0
  3 21  1  0  0  0  0
  4  7  1  0  0  0  0
  4 12  1  0  0  0  0
  5 14  1  0  0  0  0
  8 21  1  0  0  0  0
 10  3  1  0  0  0  0
 12  1  1  0  0  0  0
 13  5  1  0  0  0  0
 13 19  1  0  0  0  0
 14  6  1  0  0  0  0
 14 18  1  0  0  0  0
 15 22  1  0  0  0  0
 16  8  1  0  0  0  0
 17 18  1  0  0  0  0
 18 11  1  0  0  0  0
 18  9  1  0  0  0  0
 19 17  1  0  0  0  0
 20  5  1  0  0  0  0
 21 23  1  0  0  0  0
 22 13  1  0  0  0  0
 23 26  1  0  0  0  0
 24 25  2  0  0  0  0
 24 29  1  0  0  0  0
 25 26  2  0  0  0  0
 26 27  1  0  0  0  0
 28 30  1  0  0  0  0
 29 33  1  0  0  0  0
 30 29  1  0  0  0  0
 30 34  1  0  0  0  0
 32 31  1  0  0  0  0
 33 32  1  0  0  0  0
 34 31  1  0  0  0  0
M  END
>  <MODEL>
6

>  <REMARK>
 VINA RESULT:      -7.6      2.684      4.819
  Name = 
  3 active torsions:
  status: ('A' for Active; 'I' for Inactive)
    1  A    between atoms: C_3  and  C_13
    2  A    between atoms: C_5  and  C_18
    3  A    between atoms: C_5  and  C_31
                            x       y       z     vdW  Elec       q    Type
                         _______ _______ _______ _____ _____    ______ ____

>  <TORSDO>
F 3

$$$$
=
 OpenBabel11052418593D

 34 38  0  0  1  0  0  0  0  0999 V2000
  186.7550  177.7650  145.2070 C   0  0  2  0  0  3  0  0  0  0  0  0
  187.1080  177.2190  142.7850 C   0  0  1  0  0  3  0  0  0  0  0  0
  188.4370  176.0820  144.7440 C   0  0  2  0  0  3  0  0  0  0  0  0
  184.9660  178.0560  143.8580 C   0  0  0  0  0  2  0  0  0  0  0  0
  189.7830  175.2960  146.7840 C   0  0  1  0  0  3  0  0  0  0  0  0
  191.5670  174.5880  148.2500 O   0  0  0  0  0  1  0  0  0  0  0  0
  185.5900  177.0480  142.8540 C   0  0  0  0  0  2  0  0  0  0  0  0
  188.3250  175.0210  142.4930 C   0  0  0  0  0  2  0  0  0  0  0  0
  193.0260  175.4070  146.2460 O   0  0  0  0  0  1  0  0  0  0  0  0
  187.7620  177.3280  144.1720 C   0  0  2  0  0  3  0  0  0  0  0  0
  192.7090  177.3570  147.3480 F   0  0  0  0  0  0  0  0  0  0  0  0
  185.9130  178.7440  144.6650 O   0  0  0  0  0  0  0  0  0  0  0  0
  189.1820  176.5380  146.0540 C   0  0  1  0  0  0  0  0  0  0  0  0
  191.0280  175.6900  147.5770 C   0  0  1  0  0  3  0  0  0  0  0  0
  187.5690  178.2380  146.3950 C   0  0  0  0  0  2  0  0  0  0  0  0
  187.8200  176.2830  141.8110 C   0  0  0  0  0  2  0  0  0  0  0  0
  191.4060  176.9310  145.4090 C   0  0  0  0  0  2  0  0  0  0  0  0
  192.0750  176.3430  146.6540 C   0  0  2  0  0  0  0  0  0  0  0  0
  190.1720  177.5240  145.7430 O   0  0  0  0  0  0  0  0  0  0  0  0
  188.7670  174.5420  147.6370 C   0  0  0  0  0  1  0  0  0  0  0  0
  189.2600  175.3670  143.6520 C   0  0  2  0  0  3  0  0  0  0  0  0
  188.2460  177.1290  146.9650 O   0  0  0  0  0  0  0  0  0  0  0  0
  189.8770  174.0660  144.1530 C   0  0  0  0  0  2  0  0  0  0  0  0
  192.8190  172.0450  144.6370 C   0  0  0  0  0  3  0  0  0  0  0  0
  192.0440  172.9610  144.1280 C   0  0  0  0  0  0  0  0  0  0  0  0
  191.2610  173.8750  143.6230 C   0  0  0  0  0  0  0  0  0  0  0  0
  191.7070  174.6490  142.4360 C   0  0  0  0  0  1  0  0  0  0  0  0
  193.7240  169.1620  144.5790 C   0  0  0  0  0  1  0  0  0  0  0  0
  194.0240  171.5730  143.8830 C   0  0  2  0  0  3  0  0  0  0  0  0
  194.6810  170.3390  144.5190 C   0  0  1  0  0  3  0  0  0  0  0  0
  196.6470  171.7920  145.7630 S   0  0  0  0  0  0  0  0  0  0  0  0
  195.6370  173.1330  145.0550 C   0  0  0  0  0  2  0  0  0  0  0  0
  195.0370  172.7070  143.7180 C   0  0  0  0  0  2  0  0  0  0  0  0
  195.2400  170.6420  145.9030 C   0  0  0  0  0  2  0  0  0  0  0  0
  1 15  1  1  0  0  0
  2 16  1  1  0  0  0
  2  7  1  0  0  0  0
  2 10  1  0  0  0  0
  3 13  1  0  0  0  0
  4 12  1  0  0  0  0
  5 14  1  0  0  0  0
  5 20  1  0  0  0  0
  7  4  1  0  0  0  0
  8 21  1  0  0  0  0
  9 18  1  0  0  0  0
 10  3  1  0  0  0  0
 10  1  1  0  0  0  0
 12  1  1  0  0  0  0
 13  5  1  0  0  0  0
 13 22  1  0  0  0  0
 14  6  1  0  0  0  0
 15 22  1  0  0  0  0
 16  8  1  0  0  0  0
 17 19  1  0  0  0  0
 17 18  1  0  0  0  0
 18 11  1  0  0  0  0
 18 14  1  0  0  0  0
 19 13  1  0  0  0  0
 21 23  1  0  0  0  0
 21  3  1  0  0  0  0
 25 24  2  0  0  0  0
 26 25  2  0  0  0  0
 26 23  1  0  0  0  0
 27 26  1  0  0  0  0
 29 30  1  0  0  0  0
 29 24  1  0  0  0  0
 30 28  1  0  0  0  0
 30 34  1  0  0  0  0
 31 34  1  0  0  0  0
 32 31  1  0  0  0  0
 33 29  1  0  0  0  0
 33 32  1  0  0  0  0
M  END
>  <MODEL>
7

>  <REMARK>
 VINA RESULT:      -7.6      3.915      8.382
  Name = 
  3 active torsions:
  status: ('A' for Active; 'I' for Inactive)
    1  A    between atoms: C_3  and  C_13
    2  A    between atoms: C_5  and  C_18
    3  A    between atoms: C_5  and  C_31
                            x       y       z     vdW  Elec       q    Type
                         _______ _______ _______ _____ _____    ______ ____

>  <TORSDO>
F 3

$$$$
=
 OpenBabel11052418593D

 34 38  0  0  1  0  0  0  0  0999 V2000
  186.9580  177.4520  145.4110 C   0  0  2  0  0  3  0  0  0  0  0  0
  186.7470  177.9750  142.9680 C   0  0  1  0  0  3  0  0  0  0  0  0
  188.5780  176.3770  143.9640 C   0  0  2  0  0  3  0  0  0  0  0  0
  184.8810  177.9710  144.6870 C   0  0  0  0  0  2  0  0  0  0  0  0
  190.4230  175.0670  145.1770 C   0  0  1  0  0  3  0  0  0  0  0  0
  192.5480  174.1240  145.8280 O   0  0  0  0  0  1  0  0  0  0  0  0
  185.3050  177.5550  143.2510 C   0  0  0  0  0  2  0  0  0  0  0  0
  187.9910  176.2940  141.5440 C   0  0  0  0  0  2  0  0  0  0  0  0
  193.4270  175.8900  144.1170 O   0  0  0  0  0  1  0  0  0  0  0  0
  187.7100  177.6260  144.1150 C   0  0  2  0  0  3  0  0  0  0  0  0
  193.2660  177.1660  145.9780 F   0  0  0  0  0  0  0  0  0  0  0  0
  185.9500  178.4210  145.5080 O   0  0  0  0  0  0  0  0  0  0  0  0
  189.5880  176.3860  145.1710 C   0  0  1  0  0  0  0  0  0  0  0  0
  191.7960  175.3040  145.8030 C   0  0  1  0  0  3  0  0  0  0  0  0
  188.0040  177.5350  146.5050 C   0  0  0  0  0  2  0  0  0  0  0  0
  187.2590  177.6270  141.5720 C   0  0  0  0  0  2  0  0  0  0  0  0
  191.5620  177.3460  144.3350 C   0  0  0  0  0  2  0  0  0  0  0  0
  192.5460  176.4250  145.0590 C   0  0  2  0  0  0  0  0  0  0  0  0
  190.4110  177.5570  145.1210 O   0  0  0  0  0  0  0  0  0  0  0  0
  189.6920  173.8880  145.8110 C   0  0  0  0  0  1  0  0  0  0  0  0
  189.1550  176.2940  142.5350 C   0  0  2  0  0  3  0  0  0  0  0  0
  188.8650  176.4120  146.4090 O   0  0  0  0  0  0  0  0  0  0  0  0
  189.9540  175.0150  142.3080 C   0  0  0  0  0  2  0  0  0  0  0  0
  190.1160  173.4150  139.0860 C   0  0  0  0  0  3  0  0  0  0  0  0
  189.6590  173.7280  140.2660 C   0  0  0  0  0  0  0  0  0  0  0  0
  189.2100  174.0460  141.4490 C   0  0  0  0  0  0  0  0  0  0  0  0
  188.0140  173.3500  141.9910 C   0  0  0  0  0  1  0  0  0  0  0  0
  190.8190  170.6120  139.9710 C   0  0  0  0  0  1  0  0  0  0  0  0
  189.6250  172.1820  138.3900 C   0  0  2  0  0  3  0  0  0  0  0  0
  190.5950  170.9990  138.5200 C   0  0  1  0  0  3  0  0  0  0  0  0
  191.6800  171.3690  136.0280 S   0  0  0  0  0  0  0  0  0  0  0  0
  190.5770  172.8160  136.1320 C   0  0  0  0  0  2  0  0  0  0  0  0
  189.3160  172.4770  136.9220 C   0  0  0  0  0  2  0  0  0  0  0  0
  191.9260  171.2740  137.8310 C   0  0  0  0  0  2  0  0  0  0  0  0
  1 12  1  0  0  0  0
  1 15  1  1  0  0  0
  2 16  1  6  0  0  0
  2  7  1  0  0  0  0
  2 10  1  0  0  0  0
  3 10  1  0  0  0  0
  3 13  1  0  0  0  0
  4 12  1  0  0  0  0
  5 14  1  0  0  0  0
  5 20  1  0  0  0  0
  7  4  1  0  0  0  0
  8 16  1  0  0  0  0
  8 21  1  0  0  0  0
  9 18  1  0  0  0  0
 10  1  1  0  0  0  0
 13  5  1  0  0  0  0
 13 22  1  0  0  0  0
 14  6  1  0  0  0  0
 17 18  1  0  0  0  0
 17 19  1  0  0  0  0
 18 14  1  0  0  0  0
 18 11  1  0  0  0  0
 19 13  1  0  0  0  0
 21  3  1  0  0  0  0
 22 15  1  0  0  0  0
 23 21  1  0  0  0  0
 24 25  2  0  0  0  0
 25 26  2  0  0  0  0
 26 27  1  0  0  0  0
 26 23  1  0  0  0  0
 29 30  1  0  0  0  0
 29 24  1  0  0  0  0
 30 28  1  0  0  0  0
 31 32  1  0  0  0  0
 31 34  1  0  0  0  0
 32 33  1  0  0  0  0
 33 29  1  0  0  0  0
 34 30  1  0  0  0  0
M  END
>  <MODEL>
8

>  <REMARK>
 VINA RESULT:      -7.4      3.757      7.763
  Name = 
  3 active torsions:
  status: ('A' for Active; 'I' for Inactive)
    1  A    between atoms: C_3  and  C_13
    2  A    between atoms: C_5  and  C_18
    3  A    between atoms: C_5  and  C_31
                            x       y       z     vdW  Elec       q    Type
                         _______ _______ _______ _____ _____    ______ ____

>  <TORSDO>
F 3

$$$$
=
 OpenBabel11052418593D

 34 38  0  0  1  0  0  0  0  0999 V2000
  189.2080  177.4420  143.4510 C   0  0  2  0  0  3  0  0  0  0  0  0
  188.5120  175.4010  142.1730 C   0  0  1  0  0  3  0  0  0  0  0  0
  190.4870  175.4330  143.9030 C   0  0  2  0  0  3  0  0  0  0  0  0
  187.0340  177.3520  142.8420 C   0  0  0  0  0  2  0  0  0  0  0  0
  192.5240  175.7580  145.4310 C   0  0  1  0  0  3  0  0  0  0  0  0
  194.7260  175.6320  146.4140 O   0  0  0  0  0  1  0  0  0  0  0  0
  187.1520  175.8060  142.7420 C   0  0  0  0  0  2  0  0  0  0  0  0
  189.4190  173.2870  143.2250 C   0  0  0  0  0  2  0  0  0  0  0  0
  195.2590  174.4630  144.1410 O   0  0  0  0  0  1  0  0  0  0  0  0
  189.6830  176.1560  142.8220 C   0  0  2  0  0  3  0  0  0  0  0  0
  195.4960  176.6350  143.5520 F   0  0  0  0  0  0  0  0  0  0  0  0
  188.2530  178.0500  142.6250 O   0  0  0  0  0  0  0  0  0  0  0  0
  191.7210  176.3530  144.2310 C   0  0  1  0  0  0  0  0  0  0  0  0
  193.9990  176.1460  145.3350 C   0  0  1  0  0  3  0  0  0  0  0  0
  190.4560  178.2740  143.6700 C   0  0  0  0  0  2  0  0  0  0  0  0
  188.7240  173.8970  142.0170 C   0  0  0  0  0  2  0  0  0  0  0  0
  193.4950  175.5110  142.9420 C   0  0  0  0  0  2  0  0  0  0  0  0
  194.5950  175.6820  143.9920 C   0  0  2  0  0  0  0  0  0  0  0  0
  192.5310  176.5320  143.0640 O   0  0  0  0  0  0  0  0  0  0  0  0
  191.9230  176.0970  146.7920 C   0  0  0  0  0  1  0  0  0  0  0  0
  190.7600  173.9740  143.4830 C   0  0  2  0  0  3  0  0  0  0  0  0
  191.2660  177.6460  144.6510 O   0  0  0  0  0  0  0  0  0  0  0  0
  191.4810  173.1850  144.5720 C   0  0  0  0  0  2  0  0  0  0  0  0
  194.1110  170.9310  145.5570 C   0  0  0  0  0  3  0  0  0  0  0  0
  193.3050  171.5890  144.7730 C   0  0  0  0  0  0  0  0  0  0  0  0
  192.4930  172.2510  143.9940 C   0  0  0  0  0  0  0  0  0  0  0  0
  192.4970  171.9820  142.5320 C   0  0  0  0  0  1  0  0  0  0  0  0
  195.4350  168.9020  147.3640 C   0  0  0  0  0  1  0  0  0  0  0  0
  194.8380  169.7230  145.0490 C   0  0  2  0  0  3  0  0  0  0  0  0
  195.9640  169.2660  145.9880 C   0  0  1  0  0  3  0  0  0  0  0  0
  197.9400  170.4590  144.5070 S   0  0  0  0  0  0  0  0  0  0  0  0
  196.4590  171.0340  143.6140 C   0  0  0  0  0  2  0  0  0  0  0  0
  195.3690  169.9660  143.6370 C   0  0  0  0  0  2  0  0  0  0  0  0
  197.0690  170.3080  146.1010 C   0  0  0  0  0  2  0  0  0  0  0  0
  1 15  1  6  0  0  0
  2 16  1  1  0  0  0
  2  7  1  0  0  0  0
  2 10  1  0  0  0  0
  3 13  1  0  0  0  0
  5 20  1  0  0  0  0
  7  4  1  0  0  0  0
  8 21  1  0  0  0  0
 10  1  1  0  0  0  0
 10  3  1  0  0  0  0
 11 18  1  0  0  0  0
 12  4  1  0  0  0  0
 12  1  1  0  0  0  0
 13 22  1  0  0  0  0
 13  5  1  0  0  0  0
 14  5  1  0  0  0  0
 14  6  1  0  0  0  0
 15 22  1  0  0  0  0
 16  8  1  0  0  0  0
 17 19  1  0  0  0  0
 17 18  1  0  0  0  0
 18  9  1  0  0  0  0
 18 14  1  0  0  0  0
 19 13  1  0  0  0  0
 21  3  1  0  0  0  0
 21 23  1  0  0  0  0
 25 24  2  0  0  0  0
 26 23  1  0  0  0  0
 26 25  2  0  0  0  0
 27 26  1  0  0  0  0
 29 24  1  0  0  0  0
 29 30  1  0  0  0  0
 30 34  1  0  0  0  0
 30 28  1  0  0  0  0
 31 34  1  0  0  0  0
 32 33  1  0  0  0  0
 32 31  1  0  0  0  0
 33 29  1  0  0  0  0
M  END
>  <MODEL>
9

>  <REMARK>
 VINA RESULT:      -7.3      3.763      8.496
  Name = 
  3 active torsions:
  status: ('A' for Active; 'I' for Inactive)
    1  A    between atoms: C_3  and  C_13
    2  A    between atoms: C_5  and  C_18
    3  A    between atoms: C_5  and  C_31
                            x       y       z     vdW  Elec       q    Type
                         _______ _______ _______ _____ _____    ______ ____

>  <TORSDO>
F 3

$$$$
