=
 OpenBabel11052421093D

 43 46  0  0  1  0  0  0  0  0999 V2000
  193.2420  175.7980  146.3030 C   0  0  0  0  0  1  0  0  0  0  0  0
  195.4310  175.1540  143.2550 C   0  0  0  0  0  0  0  0  0  0  0  0
  192.9050  176.2770  143.8310 C   0  0  0  0  0  0  0  0  0  0  0  0
  196.4100  174.9840  140.5640 C   0  0  0  0  0  0  0  0  0  0  0  0
  195.0720  175.6440  140.7660 C   0  0  2  0  0  3  0  0  0  0  0  0
  197.0610  175.2120  139.5570 O   0  0  0  0  0  0  0  0  0  0  0  0
  193.3800  176.2180  142.5210 C   0  0  0  0  0  3  0  0  0  0  0  0
  194.6220  175.6600  142.2150 C   0  0  0  0  0  0  0  0  0  0  0  0
  196.8330  174.6800  142.9580 C   0  0  0  0  0  2  0  0  0  0  0  0
  194.9700  175.2000  144.5880 C   0  0  0  0  0  0  0  0  0  0  0  0
  193.7050  175.7610  144.8800 C   0  0  0  0  0  0  0  0  0  0  0  0
  196.9320  174.0320  141.5870 C   0  0  0  0  0  2  0  0  0  0  0  0
  195.8250  174.6420  145.6940 C   0  0  0  0  0  2  0  0  0  0  0  0
  194.4810  171.1030  145.5820 C   0  0  0  0  0  3  0  0  0  0  0  0
  195.6420  170.3490  145.7880 C   0  0  0  0  0  0  0  0  0  0  0  0
  196.9300  172.4030  145.9240 C   0  0  0  0  0  3  0  0  0  0  0  0
  194.5410  172.4980  145.5480 C   0  0  0  0  0  3  0  0  0  0  0  0
  195.7650  173.1500  145.7190 C   0  0  0  0  0  0  0  0  0  0  0  0
  196.8700  171.0090  145.9580 C   0  0  0  0  0  3  0  0  0  0  0  0
  195.5460  168.9560  145.8180 O   0  0  0  0  0  0  0  0  0  0  0  0
  196.0580  168.1750  146.8880 C   0  0  0  0  0  1  0  0  0  0  0  0
  191.6060  176.8600  144.0200 N   0  0  0  0  0  2  0  0  0  0  0  0
  190.3630  176.1510  144.2840 C   0  0  0  0  0  2  0  0  0  0  0  0
  189.6850  175.8000  142.9730 C   0  0  1  0  0  3  0  0  0  0  0  0
  189.8800  174.3260  142.6770 C   0  0  0  0  0  1  0  0  0  0  0  0
  188.1920  176.1030  143.0680 C   0  0  0  0  0  2  0  0  0  0  0  0
  187.8440  177.5030  142.7900 N   0  0  0  0  0  0  0  0  0  0  0  0
  186.3250  177.9610  143.5180 S   0  0  0  0  0  0  0  0  0  0  0  0
  185.8540  179.2780  142.9650 O   0  0  0  0  0  0  0  0  0  0  0  0
  185.2960  176.9070  143.2140 O   0  0  0  0  0  0  0  0  0  0  0  0
  186.5280  178.1060  145.2360 N   0  0  0  0  0  0  0  0  0  0  0  0
  186.1400  176.8710  147.3720 C   0  0  0  0  0  2  0  0  0  0  0  0
  185.7520  179.3590  147.2190 C   0  0  0  0  0  2  0  0  0  0  0  0
  186.5400  178.2440  147.9120 C   0  0  0  0  0  2  0  0  0  0  0  0
  185.5720  179.1030  145.7170 C   0  0  0  0  0  2  0  0  0  0  0  0
  186.1940  176.8090  145.8360 C   0  0  0  0  0  2  0  0  0  0  0  0
  187.9130  177.8430  141.3630 C   0  0  0  0  0  2  0  0  0  0  0  0
  186.4320  177.4720  139.7680 C   0  0  0  0  0  1  0  0  0  0  0  0
  187.3830  176.8290  140.5600 O   0  0  0  0  0  0  0  0  0  0  0  0
  194.0160  175.0590  139.8230 C   0  0  0  0  0  2  0  0  0  0  0  0
  193.9920  173.5340  139.8530 C   0  0  0  0  0  2  0  0  0  0  0  0
  192.7640  173.0360  140.5960 C   0  0  0  0  0  2  0  0  0  0  0  0
  193.1620  172.4070  141.9190 C   0  0  0  0  0  1  0  0  0  0  0  0
  2 10  1  0  0  0  0
  3 22  1  0  0  0  0
  3 11  1  0  0  0  0
  4  5  1  0  0  0  0
  4 12  1  0  0  0  0
  5 40  1  6  0  0  0
  5  8  1  0  0  0  0
  6  4  2  0  0  0  0
  7  3  2  0  0  0  0
  8  7  1  0  0  0  0
  8  2  2  0  0  0  0
  9  2  1  0  0  0  0
 10 11  2  0  0  0  0
 10 13  1  0  0  0  0
 11  1  1  0  0  0  0
 12  9  1  0  0  0  0
 13 18  1  0  0  0  0
 14 15  1  0  0  0  0
 15 20  1  0  0  0  0
 15 19  2  0  0  0  0
 16 19  1  0  0  0  0
 17 14  2  0  0  0  0
 17 18  1  0  0  0  0
 18 16  2  0  0  0  0
 20 21  1  0  0  0  0
 22 23  1  0  0  0  0
 24 25  1  1  0  0  0
 24 26  1  0  0  0  0
 24 23  1  0  0  0  0
 27 26  1  0  0  0  0
 27 28  1  0  0  0  0
 28 31  1  0  0  0  0
 29 28  2  0  0  0  0
 30 28  2  0  0  0  0
 31 35  1  0  0  0  0
 31 36  1  0  0  0  0
 32 34  1  0  0  0  0
 33 34  1  0  0  0  0
 35 33  1  0  0  0  0
 36 32  1  0  0  0  0
 37 27  1  0  0  0  0
 38 39  1  0  0  0  0
 39 37  1  0  0  0  0
 40 41  1  0  0  0  0
 41 42  1  0  0  0  0
 42 43  1  0  0  0  0
M  END
>  <MODEL>
1

>  <REMARK>
 VINA RESULT:      -6.7      0.000      0.000
  Name = 
  15 active torsions:
  status: ('A' for Active; 'I' for Inactive)
    1  A    between atoms: C_1  and  C_34
    2  A    between atoms: C_1  and  C_35
    3  A    between atoms: N_2  and  C_6
    4  A    between atoms: N_2  and  C_13
    5  A    between atoms: C_3  and  N_4
    6  A    between atoms: C_3  and  C_12
    7  A    between atoms: N_4  and  S_14
    8  A    between atoms: N_4  and  C_42
    9  A    between atoms: C_5  and  C_18
   10  A    between atoms: C_6  and  C_12
   11  A    between atoms: N_11  and  S_14
   12  A    between atoms: O_15  and  C_42
   13  A    between atoms: C_18  and  C_24
   14  A    between atoms: C_19  and  O_25
   15  A    between atoms: C_21  and  C_24
                            x       y       z     vdW  Elec       q    Type
                         _______ _______ _______ _____ _____    ______ ____

>  <TORSDO>
F 15

$$$$
=
 OpenBabel11052421093D

 43 46  0  0  1  0  0  0  0  0999 V2000
  189.5660  172.3910  144.8440 C   0  0  0  0  0  1  0  0  0  0  0  0
  192.0210  175.1810  145.6720 C   0  0  0  0  0  0  0  0  0  0  0  0
  191.8420  172.9970  143.8910 C   0  0  0  0  0  0  0  0  0  0  0  0
  194.3310  176.8820  145.7200 C   0  0  0  0  0  0  0  0  0  0  0  0
  194.3160  175.7750  144.6990 C   0  0  2  0  0  3  0  0  0  0  0  0
  195.0500  177.8550  145.5590 O   0  0  0  0  0  0  0  0  0  0  0  0
  192.9610  173.8290  143.8920 C   0  0  0  0  0  3  0  0  0  0  0  0
  193.0720  174.9090  144.7690 C   0  0  0  0  0  0  0  0  0  0  0  0
  192.0620  176.4260  146.5250 C   0  0  0  0  0  2  0  0  0  0  0  0
  190.8810  174.3500  145.6910 C   0  0  0  0  0  0  0  0  0  0  0  0
  190.7870  173.2550  144.8020 C   0  0  0  0  0  0  0  0  0  0  0  0
  193.4800  176.7790  146.9420 C   0  0  0  0  0  2  0  0  0  0  0  0
  189.7690  174.6300  146.6680 C   0  0  0  0  0  2  0  0  0  0  0  0
  186.9620  177.1650  146.4790 C   0  0  0  0  0  3  0  0  0  0  0  0
  187.1710  177.7300  145.2160 C   0  0  0  0  0  0  0  0  0  0  0  0
  189.0880  176.2730  144.9010 C   0  0  0  0  0  3  0  0  0  0  0  0
  187.8080  176.1600  146.9530 C   0  0  0  0  0  3  0  0  0  0  0  0
  188.8720  175.7130  146.1650 C   0  0  0  0  0  0  0  0  0  0  0  0
  188.2420  177.2780  144.4280 C   0  0  0  0  0  3  0  0  0  0  0  0
  186.3050  178.7320  144.7720 O   0  0  0  0  0  0  0  0  0  0  0  0
  185.9440  178.8850  143.4070 C   0  0  0  0  0  1  0  0  0  0  0  0
  191.8490  171.9090  142.9530 N   0  0  0  0  0  2  0  0  0  0  0  0
  192.5880  171.8430  141.7010 C   0  0  0  0  0  2  0  0  0  0  0  0
  192.3340  170.5080  141.0260 C   0  0  1  0  0  3  0  0  0  0  0  0
  191.1470  169.8260  141.6750 C   0  0  0  0  0  1  0  0  0  0  0  0
  192.0420  170.7290  139.5440 C   0  0  0  0  0  2  0  0  0  0  0  0
  191.7520  172.1250  139.1890 N   0  0  0  0  0  0  0  0  0  0  0  0
  190.1070  172.3370  138.6470 S   0  0  0  0  0  0  0  0  0  0  0  0
  190.0780  173.0650  137.3310 O   0  0  0  0  0  0  0  0  0  0  0  0
  189.4670  170.9870  138.4730 O   0  0  0  0  0  0  0  0  0  0  0  0
  189.2240  173.2590  139.8240 N   0  0  0  0  0  0  0  0  0  0  0  0
  189.5510  174.8510  141.7200 C   0  0  0  0  0  2  0  0  0  0  0  0
  187.7860  173.0520  141.8230 C   0  0  0  0  0  2  0  0  0  0  0  0
  188.0570  174.5580  141.8560 C   0  0  0  0  0  2  0  0  0  0  0  0
  188.6620  172.3220  140.7970 C   0  0  0  0  0  2  0  0  0  0  0  0
  190.1800  174.1320  140.5150 C   0  0  0  0  0  2  0  0  0  0  0  0
  192.7340  172.7000  138.2610 C   0  0  0  0  0  2  0  0  0  0  0  0
  193.1850  174.7710  137.6400 C   0  0  0  0  0  1  0  0  0  0  0  0
  193.2520  173.9090  138.7350 O   0  0  0  0  0  0  0  0  0  0  0  0
  195.6110  174.9570  144.7470 C   0  0  0  0  0  2  0  0  0  0  0  0
  195.8820  174.3790  146.1330 C   0  0  0  0  0  2  0  0  0  0  0  0
  197.1010  173.4740  146.1030 C   0  0  0  0  0  2  0  0  0  0  0  0
  196.6850  172.0310  145.8770 C   0  0  0  0  0  1  0  0  0  0  0  0
  2 10  1  0  0  0  0
  2  9  1  0  0  0  0
  3  7  2  0  0  0  0
  3 11  1  0  0  0  0
  4 12  1  0  0  0  0
  5 40  1  1  0  0  0
  5  8  1  0  0  0  0
  5  4  1  0  0  0  0
  6  4  2  0  0  0  0
  7  8  1  0  0  0  0
  8  2  2  0  0  0  0
  9 12  1  0  0  0  0
 10 13  1  0  0  0  0
 11  1  1  0  0  0  0
 11 10  2  0  0  0  0
 14 17  1  0  0  0  0
 15 14  2  0  0  0  0
 16 18  1  0  0  0  0
 18 13  1  0  0  0  0
 18 17  2  0  0  0  0
 19 16  2  0  0  0  0
 19 15  1  0  0  0  0
 20 15  1  0  0  0  0
 21 20  1  0  0  0  0
 22  3  1  0  0  0  0
 23 22  1  0  0  0  0
 24 25  1  1  0  0  0
 24 23  1  0  0  0  0
 26 24  1  0  0  0  0
 27 26  1  0  0  0  0
 28 27  1  0  0  0  0
 28 31  1  0  0  0  0
 29 28  2  0  0  0  0
 30 28  2  0  0  0  0
 31 36  1  0  0  0  0
 31 35  1  0  0  0  0
 32 34  1  0  0  0  0
 33 34  1  0  0  0  0
 35 33  1  0  0  0  0
 36 32  1  0  0  0  0
 37 39  1  0  0  0  0
 37 27  1  0  0  0  0
 38 39  1  0  0  0  0
 40 41  1  0  0  0  0
 42 41  1  0  0  0  0
 43 42  1  0  0  0  0
M  END
>  <MODEL>
2

>  <REMARK>
 VINA RESULT:      -6.5      3.348      7.485
  Name = 
  15 active torsions:
  status: ('A' for Active; 'I' for Inactive)
    1  A    between atoms: C_1  and  C_34
    2  A    between atoms: C_1  and  C_35
    3  A    between atoms: N_2  and  C_6
    4  A    between atoms: N_2  and  C_13
    5  A    between atoms: C_3  and  N_4
    6  A    between atoms: C_3  and  C_12
    7  A    between atoms: N_4  and  S_14
    8  A    between atoms: N_4  and  C_42
    9  A    between atoms: C_5  and  C_18
   10  A    between atoms: C_6  and  C_12
   11  A    between atoms: N_11  and  S_14
   12  A    between atoms: O_15  and  C_42
   13  A    between atoms: C_18  and  C_24
   14  A    between atoms: C_19  and  O_25
   15  A    between atoms: C_21  and  C_24
                            x       y       z     vdW  Elec       q    Type
                         _______ _______ _______ _____ _____    ______ ____

>  <TORSDO>
F 15

$$$$
=
 OpenBabel11052421093D

 43 46  0  0  1  0  0  0  0  0999 V2000
  187.8670  175.0880  141.2620 C   0  0  0  0  0  1  0  0  0  0  0  0
  190.7280  176.6070  143.2630 C   0  0  0  0  0  0  0  0  0  0  0  0
  189.7760  174.0400  142.5720 C   0  0  0  0  0  0  0  0  0  0  0  0
  193.0400  176.9430  144.9280 C   0  0  0  0  0  0  0  0  0  0  0  0
  192.6450  175.5320  144.5800 C   0  0  2  0  0  3  0  0  0  0  0  0
  194.1830  177.1910  145.2790 O   0  0  0  0  0  0  0  0  0  0  0  0
  190.9130  174.1910  143.3650 C   0  0  0  0  0  3  0  0  0  0  0  0
  191.3950  175.4510  143.7240 C   0  0  0  0  0  0  0  0  0  0  0  0
  191.3170  177.9720  143.5230 C   0  0  0  0  0  2  0  0  0  0  0  0
  189.5740  176.4780  142.4620 C   0  0  0  0  0  0  0  0  0  0  0  0
  189.0930  175.1940  142.1140 C   0  0  0  0  0  0  0  0  0  0  0  0
  192.0270  178.0360  144.8660 C   0  0  0  0  0  2  0  0  0  0  0  0
  188.8520  177.7110  141.9880 C   0  0  0  0  0  2  0  0  0  0  0  0
  186.6990  178.0420  145.0870 C   0  0  0  0  0  3  0  0  0  0  0  0
  185.5400  178.6290  144.5690 C   0  0  0  0  0  0  0  0  0  0  0  0
  186.5470  178.6270  142.3590 C   0  0  0  0  0  3  0  0  0  0  0  0
  187.7770  177.7460  144.2490 C   0  0  0  0  0  3  0  0  0  0  0  0
  187.7030  178.0390  142.8850 C   0  0  0  0  0  0  0  0  0  0  0  0
  185.4700  178.9220  143.1970 C   0  0  0  0  0  3  0  0  0  0  0  0
  184.4790  178.9100  145.4340 O   0  0  0  0  0  0  0  0  0  0  0  0
  184.3480  178.2980  146.7090 C   0  0  0  0  0  1  0  0  0  0  0  0
  189.3680  172.6940  142.2810 N   0  0  0  0  0  2  0  0  0  0  0  0
  189.9710  171.4720  142.7920 C   0  0  0  0  0  2  0  0  0  0  0  0
  190.5850  170.6860  141.6480 C   0  0  1  0  0  3  0  0  0  0  0  0
  190.6490  171.5560  140.4090 C   0  0  0  0  0  1  0  0  0  0  0  0
  191.9950  170.2430  142.0280 C   0  0  0  0  0  2  0  0  0  0  0  0
  192.6200  171.0580  143.0790 N   0  0  0  0  0  0  0  0  0  0  0  0
  194.1170  171.7810  142.5500 S   0  0  0  0  0  0  0  0  0  0  0  0
  195.0500  170.7270  142.0180 O   0  0  0  0  0  0  0  0  0  0  0  0
  193.8250  172.7720  141.4570 O   0  0  0  0  0  0  0  0  0  0  0  0
  194.8750  172.5870  143.8870 N   0  0  0  0  0  0  0  0  0  0  0  0
  196.3310  174.5410  144.4340 C   0  0  0  0  0  2  0  0  0  0  0  0
  196.6200  172.3320  145.6180 C   0  0  0  0  0  2  0  0  0  0  0  0
  196.3100  173.8220  145.7840 C   0  0  0  0  0  2  0  0  0  0  0  0
  195.9570  171.7310  144.3720 C   0  0  0  0  0  2  0  0  0  0  0  0
  195.4570  173.8370  143.3840 C   0  0  0  0  0  2  0  0  0  0  0  0
  192.7550  170.3470  144.3570 C   0  0  0  0  0  2  0  0  0  0  0  0
  193.9140  168.6250  145.1110 C   0  0  0  0  0  1  0  0  0  0  0  0
  192.9440  168.9740  144.1710 O   0  0  0  0  0  0  0  0  0  0  0  0
  192.5650  174.6520  145.8320 C   0  0  0  0  0  2  0  0  0  0  0  0
  191.9710  175.3940  147.0260 C   0  0  0  0  0  2  0  0  0  0  0  0
  190.5180  175.0030  147.2260 C   0  0  0  0  0  2  0  0  0  0  0  0
  189.6060  176.1870  146.9550 C   0  0  0  0  0  1  0  0  0  0  0  0
  1 11  1  0  0  0  0
  2  9  1  0  0  0  0
  2  8  1  0  0  0  0
  3  7  1  0  0  0  0
  4  6  2  0  0  0  0
  5  4  1  0  0  0  0
  5 40  1  1  0  0  0
  7  8  2  0  0  0  0
  8  5  1  0  0  0  0
  9 12  1  0  0  0  0
 10  2  2  0  0  0  0
 11 10  1  0  0  0  0
 11  3  2  0  0  0  0
 12  4  1  0  0  0  0
 13 10  1  0  0  0  0
 13 18  1  0  0  0  0
 15 14  1  0  0  0  0
 15 20  1  0  0  0  0
 16 18  2  0  0  0  0
 16 19  1  0  0  0  0
 17 14  2  0  0  0  0
 18 17  1  0  0  0  0
 19 15  2  0  0  0  0
 20 21  1  0  0  0  0
 22  3  1  0  0  0  0
 22 23  1  0  0  0  0
 24 25  1  6  0  0  0
 24 26  1  0  0  0  0
 24 23  1  0  0  0  0
 26 27  1  0  0  0  0
 27 37  1  0  0  0  0
 28 27  1  0  0  0  0
 28 31  1  0  0  0  0
 29 28  2  0  0  0  0
 30 28  2  0  0  0  0
 31 35  1  0  0  0  0
 32 34  1  0  0  0  0
 33 34  1  0  0  0  0
 35 33  1  0  0  0  0
 36 31  1  0  0  0  0
 36 32  1  0  0  0  0
 39 37  1  0  0  0  0
 39 38  1  0  0  0  0
 40 41  1  0  0  0  0
 41 42  1  0  0  0  0
 43 42  1  0  0  0  0
M  END
>  <MODEL>
3

>  <REMARK>
 VINA RESULT:      -6.5      3.158      9.166
  Name = 
  15 active torsions:
  status: ('A' for Active; 'I' for Inactive)
    1  A    between atoms: C_1  and  C_34
    2  A    between atoms: C_1  and  C_35
    3  A    between atoms: N_2  and  C_6
    4  A    between atoms: N_2  and  C_13
    5  A    between atoms: C_3  and  N_4
    6  A    between atoms: C_3  and  C_12
    7  A    between atoms: N_4  and  S_14
    8  A    between atoms: N_4  and  C_42
    9  A    between atoms: C_5  and  C_18
   10  A    between atoms: C_6  and  C_12
   11  A    between atoms: N_11  and  S_14
   12  A    between atoms: O_15  and  C_42
   13  A    between atoms: C_18  and  C_24
   14  A    between atoms: C_19  and  O_25
   15  A    between atoms: C_21  and  C_24
                            x       y       z     vdW  Elec       q    Type
                         _______ _______ _______ _____ _____    ______ ____

>  <TORSDO>
F 15

$$$$
=
 OpenBabel11052421093D

 43 46  0  0  1  0  0  0  0  0999 V2000
  189.7050  173.4080  144.3750 C   0  0  0  0  0  1  0  0  0  0  0  0
  190.6130  172.6280  140.7610 C   0  0  0  0  0  0  0  0  0  0  0  0
  188.8890  174.3660  142.1670 C   0  0  0  0  0  0  0  0  0  0  0  0
  190.6960  172.6060  137.8930 C   0  0  0  0  0  0  0  0  0  0  0  0
  189.7770  173.6050  138.5450 C   0  0  2  0  0  3  0  0  0  0  0  0
  191.0830  172.7830  136.7490 O   0  0  0  0  0  0  0  0  0  0  0  0
  188.9360  174.3780  140.7740 C   0  0  0  0  0  3  0  0  0  0  0  0
  189.7760  173.5220  140.0600 C   0  0  0  0  0  0  0  0  0  0  0  0
  191.6270  171.7990  140.0110 C   0  0  0  0  0  2  0  0  0  0  0  0
  190.5800  172.5950  142.1710 C   0  0  0  0  0  0  0  0  0  0  0  0
  189.7180  173.4640  142.8800 C   0  0  0  0  0  0  0  0  0  0  0  0
  191.1170  171.3850  138.6400 C   0  0  0  0  0  2  0  0  0  0  0  0
  191.4600  171.6270  142.9170 C   0  0  0  0  0  2  0  0  0  0  0  0
  194.1750  172.8560  145.2560 C   0  0  0  0  0  3  0  0  0  0  0  0
  194.9900  173.5890  144.3870 C   0  0  0  0  0  0  0  0  0  0  0  0
  193.5030  173.0340  142.5500 C   0  0  0  0  0  3  0  0  0  0  0  0
  193.0290  172.2150  144.7780 C   0  0  0  0  0  3  0  0  0  0  0  0
  192.6920  172.3030  143.4250 C   0  0  0  0  0  0  0  0  0  0  0  0
  194.6470  173.6740  143.0280 C   0  0  0  0  0  3  0  0  0  0  0  0
  196.1270  174.2200  144.8990 O   0  0  0  0  0  0  0  0  0  0  0  0
  196.8270  173.7350  146.0360 C   0  0  0  0  0  1  0  0  0  0  0  0
  187.9750  175.2830  142.7900 N   0  0  0  0  0  2  0  0  0  0  0  0
  187.5180  176.5560  142.2520 C   0  0  0  0  0  2  0  0  0  0  0  0
  186.7660  177.3240  143.3240 C   0  0  1  0  0  3  0  0  0  0  0  0
  185.2910  177.3690  142.9790 C   0  0  0  0  0  1  0  0  0  0  0  0
  186.9490  176.6360  144.6740 C   0  0  0  0  0  2  0  0  0  0  0  0
  187.4990  177.5060  145.7230 N   0  0  0  0  0  0  0  0  0  0  0  0
  189.0000  176.8920  146.3670 S   0  0  0  0  0  0  0  0  0  0  0  0
  189.5760  177.8570  147.3670 O   0  0  0  0  0  0  0  0  0  0  0  0
  188.7420  175.5770  147.0490 O   0  0  0  0  0  0  0  0  0  0  0  0
  190.1370  176.6710  145.0730 N   0  0  0  0  0  0  0  0  0  0  0  0
  192.5680  176.3020  144.6350 C   0  0  0  0  0  2  0  0  0  0  0  0
  191.1930  177.8110  143.1520 C   0  0  0  0  0  2  0  0  0  0  0  0
  192.0630  176.5520  143.2140 C   0  0  0  0  0  2  0  0  0  0  0  0
  190.2730  177.9470  144.3730 C   0  0  0  0  0  2  0  0  0  0  0  0
  191.4310  176.3240  145.6710 C   0  0  0  0  0  2  0  0  0  0  0  0
  186.5240  177.8330  146.7720 C   0  0  0  0  0  2  0  0  0  0  0  0
  184.3520  178.2120  146.6580 C   0  0  0  0  0  1  0  0  0  0  0  0
  185.2990  177.1920  146.5620 O   0  0  0  0  0  0  0  0  0  0  0  0
  188.3680  173.5380  137.9460 C   0  0  0  0  0  2  0  0  0  0  0  0
  187.9150  174.8790  137.3750 C   0  0  0  0  0  2  0  0  0  0  0  0
  188.4930  175.0870  135.9860 C   0  0  0  0  0  2  0  0  0  0  0  0
  187.9970  176.3960  135.3950 C   0  0  0  0  0  1  0  0  0  0  0  0
  2 10  1  0  0  0  0
  3 22  1  0  0  0  0
  3 11  1  0  0  0  0
  4  5  1  0  0  0  0
  4 12  1  0  0  0  0
  5 40  1  6  0  0  0
  5  8  1  0  0  0  0
  6  4  2  0  0  0  0
  7  3  2  0  0  0  0
  8  2  2  0  0  0  0
  8  7  1  0  0  0  0
  9  2  1  0  0  0  0
 10 11  2  0  0  0  0
 10 13  1  0  0  0  0
 11  1  1  0  0  0  0
 12  9  1  0  0  0  0
 13 18  1  0  0  0  0
 15 20  1  0  0  0  0
 15 14  2  0  0  0  0
 16 19  2  0  0  0  0
 16 18  1  0  0  0  0
 17 14  1  0  0  0  0
 18 17  2  0  0  0  0
 19 15  1  0  0  0  0
 20 21  1  0  0  0  0
 23 22  1  0  0  0  0
 23 24  1  0  0  0  0
 24 25  1  6  0  0  0
 24 26  1  0  0  0  0
 26 27  1  0  0  0  0
 27 28  1  0  0  0  0
 27 37  1  0  0  0  0
 28 30  2  0  0  0  0
 28 29  2  0  0  0  0
 31 36  1  0  0  0  0
 31 28  1  0  0  0  0
 32 36  1  0  0  0  0
 33 34  1  0  0  0  0
 33 35  1  0  0  0  0
 34 32  1  0  0  0  0
 35 31  1  0  0  0  0
 39 38  1  0  0  0  0
 39 37  1  0  0  0  0
 41 40  1  0  0  0  0
 42 41  1  0  0  0  0
 43 42  1  0  0  0  0
M  END
>  <MODEL>
4

>  <REMARK>
 VINA RESULT:      -6.3      2.952      5.537
  Name = 
  15 active torsions:
  status: ('A' for Active; 'I' for Inactive)
    1  A    between atoms: C_1  and  C_34
    2  A    between atoms: C_1  and  C_35
    3  A    between atoms: N_2  and  C_6
    4  A    between atoms: N_2  and  C_13
    5  A    between atoms: C_3  and  N_4
    6  A    between atoms: C_3  and  C_12
    7  A    between atoms: N_4  and  S_14
    8  A    between atoms: N_4  and  C_42
    9  A    between atoms: C_5  and  C_18
   10  A    between atoms: C_6  and  C_12
   11  A    between atoms: N_11  and  S_14
   12  A    between atoms: O_15  and  C_42
   13  A    between atoms: C_18  and  C_24
   14  A    between atoms: C_19  and  O_25
   15  A    between atoms: C_21  and  C_24
                            x       y       z     vdW  Elec       q    Type
                         _______ _______ _______ _____ _____    ______ ____

>  <TORSDO>
F 15

$$$$
=
 OpenBabel11052421093D

 43 46  0  0  1  0  0  0  0  0999 V2000
  189.7270  172.1880  144.6730 C   0  0  0  0  0  1  0  0  0  0  0  0
  193.4910  172.7370  144.8250 C   0  0  0  0  0  0  0  0  0  0  0  0
  191.1340  174.1260  145.5230 C   0  0  0  0  0  0  0  0  0  0  0  0
  196.0830  173.8980  145.2340 C   0  0  0  0  0  0  0  0  0  0  0  0
  194.8930  174.7020  145.6850 C   0  0  2  0  0  3  0  0  0  0  0  0
  197.1870  174.1170  145.7060 O   0  0  0  0  0  0  0  0  0  0  0  0
  192.3890  174.6910  145.7440 C   0  0  0  0  0  3  0  0  0  0  0  0
  193.5660  174.0240  145.4000 C   0  0  0  0  0  0  0  0  0  0  0  0
  194.7530  171.9460  144.5790 C   0  0  0  0  0  2  0  0  0  0  0  0
  192.2320  172.1470  144.5880 C   0  0  0  0  0  0  0  0  0  0  0  0
  191.0490  172.8390  144.9350 C   0  0  0  0  0  0  0  0  0  0  0  0
  195.9170  172.8440  144.1900 C   0  0  0  0  0  2  0  0  0  0  0  0
  192.1540  170.7820  143.9560 C   0  0  0  0  0  2  0  0  0  0  0  0
  192.7480  171.8020  140.3560 C   0  0  0  0  0  3  0  0  0  0  0  0
  191.7370  171.1010  139.6900 C   0  0  0  0  0  0  0  0  0  0  0  0
  190.9990  170.1810  141.8120 C   0  0  0  0  0  3  0  0  0  0  0  0
  192.8860  171.6960  141.7420 C   0  0  0  0  0  3  0  0  0  0  0  0
  192.0120  170.8850  142.4720 C   0  0  0  0  0  0  0  0  0  0  0  0
  190.8620  170.2870  140.4270 C   0  0  0  0  0  3  0  0  0  0  0  0
  191.6260  171.2310  138.3030 O   0  0  0  0  0  0  0  0  0  0  0  0
  192.6820  171.7230  137.4920 C   0  0  0  0  0  1  0  0  0  0  0  0
  189.9950  174.9140  145.9060 N   0  0  0  0  0  2  0  0  0  0  0  0
  189.0650  175.5900  145.0140 C   0  0  0  0  0  2  0  0  0  0  0  0
  188.5030  176.8220  145.7000 C   0  0  1  0  0  3  0  0  0  0  0  0
  189.5860  177.4830  146.5290 C   0  0  0  0  0  1  0  0  0  0  0  0
  187.9970  177.8090  144.6510 C   0  0  0  0  0  2  0  0  0  0  0  0
  187.1170  177.2110  143.6380 N   0  0  0  0  0  0  0  0  0  0  0  0
  187.7760  177.3540  142.0280 S   0  0  0  0  0  0  0  0  0  0  0  0
  186.7370  177.8930  141.0820 O   0  0  0  0  0  0  0  0  0  0  0  0
  188.9470  178.2990  142.0570 O   0  0  0  0  0  0  0  0  0  0  0  0
  188.2940  175.7930  141.4730 N   0  0  0  0  0  0  0  0  0  0  0  0
  187.8780  173.3530  141.8050 C   0  0  0  0  0  2  0  0  0  0  0  0
  190.2150  174.2390  141.4550 C   0  0  0  0  0  2  0  0  0  0  0  0
  189.1250  173.3060  140.9200 C   0  0  0  0  0  2  0  0  0  0  0  0
  189.6470  175.5630  141.9810 C   0  0  0  0  0  2  0  0  0  0  0  0
  187.3970  174.7910  142.0600 C   0  0  0  0  0  2  0  0  0  0  0  0
  185.7300  177.6820  143.7260 C   0  0  0  0  0  2  0  0  0  0  0  0
  184.3780  178.5800  145.2240 C   0  0  0  0  0  1  0  0  0  0  0  0
  185.1860  177.4660  144.9960 O   0  0  0  0  0  0  0  0  0  0  0  0
  194.9550  176.1360  145.1470 C   0  0  0  0  0  2  0  0  0  0  0  0
  195.3070  176.1840  143.6630 C   0  0  0  0  0  2  0  0  0  0  0  0
  194.0460  176.1660  142.8170 C   0  0  0  0  0  2  0  0  0  0  0  0
  194.1380  175.0920  141.7470 C   0  0  0  0  0  1  0  0  0  0  0  0
  1 11  1  0  0  0  0
  2  8  1  0  0  0  0
  3  7  1  0  0  0  0
  3 22  1  0  0  0  0
  4  5  1  0  0  0  0
  4  6  2  0  0  0  0
  5 40  1  6  0  0  0
  8  5  1  0  0  0  0
  8  7  2  0  0  0  0
  9  2  1  0  0  0  0
 10  2  2  0  0  0  0
 10 11  1  0  0  0  0
 11  3  2  0  0  0  0
 12  9  1  0  0  0  0
 12  4  1  0  0  0  0
 13 10  1  0  0  0  0
 14 17  1  0  0  0  0
 15 14  2  0  0  0  0
 15 19  1  0  0  0  0
 16 18  1  0  0  0  0
 17 18  2  0  0  0  0
 18 13  1  0  0  0  0
 19 16  2  0  0  0  0
 20 15  1  0  0  0  0
 21 20  1  0  0  0  0
 23 24  1  0  0  0  0
 23 22  1  0  0  0  0
 24 25  1  6  0  0  0
 26 24  1  0  0  0  0
 27 37  1  0  0  0  0
 27 26  1  0  0  0  0
 28 30  2  0  0  0  0
 28 27  1  0  0  0  0
 29 28  2  0  0  0  0
 31 35  1  0  0  0  0
 31 28  1  0  0  0  0
 31 36  1  0  0  0  0
 32 36  1  0  0  0  0
 33 35  1  0  0  0  0
 34 33  1  0  0  0  0
 34 32  1  0  0  0  0
 37 39  1  0  0  0  0
 39 38  1  0  0  0  0
 41 40  1  0  0  0  0
 42 41  1  0  0  0  0
 43 42  1  0  0  0  0
M  END
>  <MODEL>
5

>  <REMARK>
 VINA RESULT:      -6.3      2.417      5.326
  Name = 
  15 active torsions:
  status: ('A' for Active; 'I' for Inactive)
    1  A    between atoms: C_1  and  C_34
    2  A    between atoms: C_1  and  C_35
    3  A    between atoms: N_2  and  C_6
    4  A    between atoms: N_2  and  C_13
    5  A    between atoms: C_3  and  N_4
    6  A    between atoms: C_3  and  C_12
    7  A    between atoms: N_4  and  S_14
    8  A    between atoms: N_4  and  C_42
    9  A    between atoms: C_5  and  C_18
   10  A    between atoms: C_6  and  C_12
   11  A    between atoms: N_11  and  S_14
   12  A    between atoms: O_15  and  C_42
   13  A    between atoms: C_18  and  C_24
   14  A    between atoms: C_19  and  O_25
   15  A    between atoms: C_21  and  C_24
                            x       y       z     vdW  Elec       q    Type
                         _______ _______ _______ _____ _____    ______ ____

>  <TORSDO>
F 15

$$$$
=
 OpenBabel11052421093D

 43 46  0  0  1  0  0  0  0  0999 V2000
  196.3720  174.8230  142.9550 C   0  0  0  0  0  1  0  0  0  0  0  0
  193.3380  175.5820  145.1250 C   0  0  0  0  0  0  0  0  0  0  0  0
  194.0740  175.7580  142.4050 C   0  0  0  0  0  0  0  0  0  0  0  0
  190.7520  176.4360  146.0300 C   0  0  0  0  0  0  0  0  0  0  0  0
  191.0260  176.5280  144.5520 C   0  0  2  0  0  3  0  0  0  0  0  0
  189.6030  176.3980  146.4390 O   0  0  0  0  0  0  0  0  0  0  0  0
  192.8080  176.1570  142.8310 C   0  0  0  0  0  3  0  0  0  0  0  0
  192.4270  176.0850  144.1710 C   0  0  0  0  0  0  0  0  0  0  0  0
  192.8930  175.3640  146.5510 C   0  0  0  0  0  2  0  0  0  0  0  0
  194.6260  175.1750  144.7190 C   0  0  0  0  0  0  0  0  0  0  0  0
  194.9990  175.2620  143.3580 C   0  0  0  0  0  0  0  0  0  0  0  0
  191.8880  176.4140  146.9970 C   0  0  0  0  0  2  0  0  0  0  0  0
  195.6030  174.6570  145.7410 C   0  0  0  0  0  2  0  0  0  0  0  0
  194.5620  171.0170  145.5960 C   0  0  0  0  0  3  0  0  0  0  0  0
  195.7970  170.3640  145.6710 C   0  0  0  0  0  0  0  0  0  0  0  0
  196.9110  172.5180  145.7830 C   0  0  0  0  0  3  0  0  0  0  0  0
  194.4990  172.4130  145.6160 C   0  0  0  0  0  3  0  0  0  0  0  0
  195.6730  173.1650  145.7080 C   0  0  0  0  0  0  0  0  0  0  0  0
  196.9740  171.1240  145.7630 C   0  0  0  0  0  3  0  0  0  0  0  0
  195.8240  168.9670  145.6510 O   0  0  0  0  0  0  0  0  0  0  0  0
  194.7680  168.1870  145.1110 C   0  0  0  0  0  1  0  0  0  0  0  0
  194.3550  175.8930  141.0030 N   0  0  0  0  0  2  0  0  0  0  0  0
  194.6300  174.8170  140.0630 C   0  0  0  0  0  2  0  0  0  0  0  0
  193.3950  174.5420  139.2250 C   0  0  1  0  0  3  0  0  0  0  0  0
  193.6620  174.9240  137.7830 C   0  0  0  0  0  1  0  0  0  0  0  0
  193.0430  173.0590  139.2970 C   0  0  0  0  0  2  0  0  0  0  0  0
  191.6210  172.7890  139.5470 N   0  0  0  0  0  0  0  0  0  0  0  0
  191.3840  171.3710  140.5380 S   0  0  0  0  0  0  0  0  0  0  0  0
  190.4460  170.4100  139.8610 O   0  0  0  0  0  0  0  0  0  0  0  0
  192.7090  170.6930  140.7510 O   0  0  0  0  0  0  0  0  0  0  0  0
  190.7110  171.8400  142.0680 N   0  0  0  0  0  0  0  0  0  0  0  0
  189.3150  173.6130  143.1400 C   0  0  0  0  0  2  0  0  0  0  0  0
  191.3090  172.6270  144.3330 C   0  0  0  0  0  2  0  0  0  0  0  0
  189.7940  172.8480  144.3750 C   0  0  0  0  0  2  0  0  0  0  0  0
  191.8110  172.2820  142.9240 C   0  0  0  0  0  2  0  0  0  0  0  0
  189.8150  172.9780  141.8310 C   0  0  0  0  0  2  0  0  0  0  0  0
  190.8130  172.7650  138.3210 C   0  0  0  0  0  2  0  0  0  0  0  0
  188.6350  173.1260  138.2680 C   0  0  0  0  0  1  0  0  0  0  0  0
  189.8620  173.7890  138.3040 O   0  0  0  0  0  0  0  0  0  0  0  0
  190.6740  177.9150  144.0060 C   0  0  0  0  0  2  0  0  0  0  0  0
  189.6940  177.8480  142.8380 C   0  0  0  0  0  2  0  0  0  0  0  0
  188.4560  177.0590  143.2280 C   0  0  0  0  0  2  0  0  0  0  0  0
  187.5170  177.9170  144.0570 C   0  0  0  0  0  1  0  0  0  0  0  0
  1 11  1  0  0  0  0
  2  9  1  0  0  0  0
  3  7  2  0  0  0  0
  3 11  1  0  0  0  0
  4  6  2  0  0  0  0
  4 12  1  0  0  0  0
  5 40  1  1  0  0  0
  5  4  1  0  0  0  0
  7  8  1  0  0  0  0
  8  5  1  0  0  0  0
  8  2  2  0  0  0  0
  9 12  1  0  0  0  0
 10  2  1  0  0  0  0
 10 13  1  0  0  0  0
 11 10  2  0  0  0  0
 14 17  2  0  0  0  0
 14 15  1  0  0  0  0
 15 19  2  0  0  0  0
 17 18  1  0  0  0  0
 18 13  1  0  0  0  0
 18 16  2  0  0  0  0
 19 16  1  0  0  0  0
 20 15  1  0  0  0  0
 21 20  1  0  0  0  0
 22  3  1  0  0  0  0
 23 22  1  0  0  0  0
 24 25  1  6  0  0  0
 24 26  1  0  0  0  0
 24 23  1  0  0  0  0
 26 27  1  0  0  0  0
 27 28  1  0  0  0  0
 28 30  2  0  0  0  0
 28 31  1  0  0  0  0
 29 28  2  0  0  0  0
 31 35  1  0  0  0  0
 32 34  1  0  0  0  0
 33 34  1  0  0  0  0
 35 33  1  0  0  0  0
 36 31  1  0  0  0  0
 36 32  1  0  0  0  0
 37 27  1  0  0  0  0
 38 39  1  0  0  0  0
 39 37  1  0  0  0  0
 41 42  1  0  0  0  0
 41 40  1  0  0  0  0
 42 43  1  0  0  0  0
M  END
>  <MODEL>
6

>  <REMARK>
 VINA RESULT:      -6.3      3.182      5.919
  Name = 
  15 active torsions:
  status: ('A' for Active; 'I' for Inactive)
    1  A    between atoms: C_1  and  C_34
    2  A    between atoms: C_1  and  C_35
    3  A    between atoms: N_2  and  C_6
    4  A    between atoms: N_2  and  C_13
    5  A    between atoms: C_3  and  N_4
    6  A    between atoms: C_3  and  C_12
    7  A    between atoms: N_4  and  S_14
    8  A    between atoms: N_4  and  C_42
    9  A    between atoms: C_5  and  C_18
   10  A    between atoms: C_6  and  C_12
   11  A    between atoms: N_11  and  S_14
   12  A    between atoms: O_15  and  C_42
   13  A    between atoms: C_18  and  C_24
   14  A    between atoms: C_19  and  O_25
   15  A    between atoms: C_21  and  C_24
                            x       y       z     vdW  Elec       q    Type
                         _______ _______ _______ _____ _____    ______ ____

>  <TORSDO>
F 15

$$$$
=
 OpenBabel11052421093D

 43 46  0  0  1  0  0  0  0  0999 V2000
  190.5810  172.1760  144.1010 C   0  0  0  0  0  1  0  0  0  0  0  0
  188.3340  175.0740  143.0750 C   0  0  0  0  0  0  0  0  0  0  0  0
  190.3400  174.5450  144.9890 C   0  0  0  0  0  0  0  0  0  0  0  0
  187.0160  177.6200  142.9580 C   0  0  0  0  0  0  0  0  0  0  0  0
  188.1050  177.4580  143.9850 C   0  0  2  0  0  3  0  0  0  0  0  0
  186.6900  178.7340  142.5790 O   0  0  0  0  0  0  0  0  0  0  0  0
  189.7210  175.7920  144.9290 C   0  0  0  0  0  3  0  0  0  0  0  0
  188.7220  176.0720  143.9940 C   0  0  0  0  0  0  0  0  0  0  0  0
  187.3600  175.4040  141.9690 C   0  0  0  0  0  2  0  0  0  0  0  0
  188.9440  173.8030  143.1190 C   0  0  0  0  0  0  0  0  0  0  0  0
  189.9490  173.5330  144.0770 C   0  0  0  0  0  0  0  0  0  0  0  0
  186.3180  176.4170  142.4170 C   0  0  0  0  0  2  0  0  0  0  0  0
  188.5160  172.7330  142.1500 C   0  0  0  0  0  2  0  0  0  0  0  0
  188.7790  173.1790  138.3980 C   0  0  0  0  0  3  0  0  0  0  0  0
  190.1480  173.4230  138.2350 C   0  0  0  0  0  0  0  0  0  0  0  0
  190.4520  173.2260  140.6350 C   0  0  0  0  0  3  0  0  0  0  0  0
  188.2480  172.9580  139.6710 C   0  0  0  0  0  3  0  0  0  0  0  0
  189.0830  172.9820  140.7910 C   0  0  0  0  0  0  0  0  0  0  0  0
  190.9830  173.4470  139.3630 C   0  0  0  0  0  3  0  0  0  0  0  0
  190.6460  173.6390  136.9470 O   0  0  0  0  0  0  0  0  0  0  0  0
  190.1040  173.0040  135.7980 C   0  0  0  0  0  1  0  0  0  0  0  0
  191.3440  174.3730  146.0030 N   0  0  0  0  0  2  0  0  0  0  0  0
  192.7730  174.1990  145.7920 C   0  0  0  0  0  2  0  0  0  0  0  0
  193.4570  175.5530  145.7780 C   0  0  1  0  0  3  0  0  0  0  0  0
  192.9010  176.4170  146.8930 C   0  0  0  0  0  1  0  0  0  0  0  0
  194.9590  175.3730  145.9810 C   0  0  0  0  0  2  0  0  0  0  0  0
  195.6230  174.6130  144.9130 N   0  0  0  0  0  0  0  0  0  0  0  0
  196.6630  173.3610  145.5440 S   0  0  0  0  0  0  0  0  0  0  0  0
  197.8200  173.1210  144.6140 O   0  0  0  0  0  0  0  0  0  0  0  0
  197.1940  173.7920  146.8840 O   0  0  0  0  0  0  0  0  0  0  0  0
  195.7570  171.8900  145.7170 N   0  0  0  0  0  0  0  0  0  0  0  0
  196.0470  169.4190  145.9350 C   0  0  0  0  0  2  0  0  0  0  0  0
  194.1790  170.3920  144.5460 C   0  0  0  0  0  2  0  0  0  0  0  0
  194.5330  169.5070  145.7450 C   0  0  0  0  0  2  0  0  0  0  0  0
  195.0790  171.6310  144.4470 C   0  0  0  0  0  2  0  0  0  0  0  0
  196.7130  170.8050  145.9670 C   0  0  0  0  0  2  0  0  0  0  0  0
  196.3000  175.4690  143.9300 C   0  0  0  0  0  2  0  0  0  0  0  0
  196.8480  175.8030  141.8170 C   0  0  0  0  0  1  0  0  0  0  0  0
  195.8920  175.1850  142.6230 O   0  0  0  0  0  0  0  0  0  0  0  0
  187.6320  177.9060  145.3720 C   0  0  0  0  0  2  0  0  0  0  0  0
  186.6860  176.8970  146.0170 C   0  0  0  0  0  2  0  0  0  0  0  0
  185.3370  177.5360  146.2950 C   0  0  0  0  0  2  0  0  0  0  0  0
  185.3600  179.0100  145.9260 C   0  0  0  0  0  1  0  0  0  0  0  0
  2 10  2  0  0  0  0
  2  8  1  0  0  0  0
  3 22  1  0  0  0  0
  4  5  1  0  0  0  0
  5  8  1  0  0  0  0
  5 40  1  1  0  0  0
  6  4  2  0  0  0  0
  7  3  1  0  0  0  0
  8  7  2  0  0  0  0
  9 12  1  0  0  0  0
  9  2  1  0  0  0  0
 10 11  1  0  0  0  0
 11  1  1  0  0  0  0
 11  3  2  0  0  0  0
 12  4  1  0  0  0  0
 13 10  1  0  0  0  0
 14 17  1  0  0  0  0
 15 14  2  0  0  0  0
 15 19  1  0  0  0  0
 16 18  1  0  0  0  0
 17 18  2  0  0  0  0
 18 13  1  0  0  0  0
 19 16  2  0  0  0  0
 20 15  1  0  0  0  0
 21 20  1  0  0  0  0
 23 22  1  0  0  0  0
 24 23  1  0  0  0  0
 24 26  1  0  0  0  0
 24 25  1  1  0  0  0
 27 28  1  0  0  0  0
 27 26  1  0  0  0  0
 28 31  1  0  0  0  0
 28 30  2  0  0  0  0
 29 28  2  0  0  0  0
 31 36  1  0  0  0  0
 32 36  1  0  0  0  0
 33 34  1  0  0  0  0
 34 32  1  0  0  0  0
 35 33  1  0  0  0  0
 35 31  1  0  0  0  0
 37 27  1  0  0  0  0
 38 39  1  0  0  0  0
 39 37  1  0  0  0  0
 40 41  1  0  0  0  0
 41 42  1  0  0  0  0
 43 42  1  0  0  0  0
M  END
>  <MODEL>
7

>  <REMARK>
 VINA RESULT:      -6.2      3.254      9.420
  Name = 
  15 active torsions:
  status: ('A' for Active; 'I' for Inactive)
    1  A    between atoms: C_1  and  C_34
    2  A    between atoms: C_1  and  C_35
    3  A    between atoms: N_2  and  C_6
    4  A    between atoms: N_2  and  C_13
    5  A    between atoms: C_3  and  N_4
    6  A    between atoms: C_3  and  C_12
    7  A    between atoms: N_4  and  S_14
    8  A    between atoms: N_4  and  C_42
    9  A    between atoms: C_5  and  C_18
   10  A    between atoms: C_6  and  C_12
   11  A    between atoms: N_11  and  S_14
   12  A    between atoms: O_15  and  C_42
   13  A    between atoms: C_18  and  C_24
   14  A    between atoms: C_19  and  O_25
   15  A    between atoms: C_21  and  C_24
                            x       y       z     vdW  Elec       q    Type
                         _______ _______ _______ _____ _____    ______ ____

>  <TORSDO>
F 15

$$$$
=
 OpenBabel11052421093D

 43 46  0  0  1  0  0  0  0  0999 V2000
  189.3720  172.3130  145.0920 C   0  0  0  0  0  1  0  0  0  0  0  0
  191.8140  175.1140  145.9200 C   0  0  0  0  0  0  0  0  0  0  0  0
  191.7260  172.8180  144.2800 C   0  0  0  0  0  0  0  0  0  0  0  0
  194.1490  176.7780  146.0340 C   0  0  0  0  0  0  0  0  0  0  0  0
  194.1880  175.6050  145.0910 C   0  0  2  0  0  3  0  0  0  0  0  0
  194.8980  177.7270  145.8650 O   0  0  0  0  0  0  0  0  0  0  0  0
  192.8580  173.6310  144.3120 C   0  0  0  0  0  3  0  0  0  0  0  0
  192.9250  174.7660  145.1210 C   0  0  0  0  0  0  0  0  0  0  0  0
  191.8170  176.4130  146.6900 C   0  0  0  0  0  2  0  0  0  0  0  0
  190.6590  174.3050  145.9070 C   0  0  0  0  0  0  0  0  0  0  0  0
  190.6110  173.1530  145.0870 C   0  0  0  0  0  0  0  0  0  0  0  0
  193.2060  176.7720  147.1910 C   0  0  0  0  0  2  0  0  0  0  0  0
  189.4830  174.6660  146.7750 C   0  0  0  0  0  2  0  0  0  0  0  0
  186.8040  177.2900  146.2390 C   0  0  0  0  0  3  0  0  0  0  0  0
  187.0720  177.7090  144.9320 C   0  0  0  0  0  0  0  0  0  0  0  0
  188.9250  176.1450  144.8280 C   0  0  0  0  0  3  0  0  0  0  0  0
  187.5890  176.3030  146.8400 C   0  0  0  0  0  3  0  0  0  0  0  0
  188.6510  175.7300  146.1350 C   0  0  0  0  0  0  0  0  0  0  0  0
  188.1400  177.1310  144.2280 C   0  0  0  0  0  3  0  0  0  0  0  0
  186.2650  178.6970  144.3600 O   0  0  0  0  0  0  0  0  0  0  0  0
  184.8470  178.6500  144.4050 C   0  0  0  0  0  1  0  0  0  0  0  0
  191.7810  171.6690  143.4190 N   0  0  0  0  0  2  0  0  0  0  0  0
  192.9510  171.1640  142.7160 C   0  0  0  0  0  2  0  0  0  0  0  0
  192.5130  170.3290  141.5270 C   0  0  1  0  0  3  0  0  0  0  0  0
  191.0400  169.9950  141.6530 C   0  0  0  0  0  1  0  0  0  0  0  0
  192.7450  171.1100  140.2370 C   0  0  0  0  0  2  0  0  0  0  0  0
  193.4740  172.3720  140.4200 N   0  0  0  0  0  0  0  0  0  0  0  0
  192.4600  173.7650  140.1400 S   0  0  0  0  0  0  0  0  0  0  0  0
  192.9080  174.9200  140.9940 O   0  0  0  0  0  0  0  0  0  0  0  0
  192.5560  174.1610  138.6920 O   0  0  0  0  0  0  0  0  0  0  0  0
  190.8160  173.3710  140.5340 N   0  0  0  0  0  0  0  0  0  0  0  0
  188.5270  173.2710  139.5390 C   0  0  0  0  0  2  0  0  0  0  0  0
  188.8850  174.0860  141.9010 C   0  0  0  0  0  2  0  0  0  0  0  0
  188.2010  173.0400  141.0150 C   0  0  0  0  0  2  0  0  0  0  0  0
  190.3080  174.4110  141.4290 C   0  0  0  0  0  2  0  0  0  0  0  0
  190.0390  173.4050  139.2900 C   0  0  0  0  0  2  0  0  0  0  0  0
  194.7330  172.4270  139.6650 C   0  0  0  0  0  2  0  0  0  0  0  0
  195.3830  172.2540  137.5620 C   0  0  0  0  0  1  0  0  0  0  0  0
  194.7230  171.5550  138.5720 O   0  0  0  0  0  0  0  0  0  0  0  0
  195.4590  174.7730  145.2920 C   0  0  0  0  0  2  0  0  0  0  0  0
  196.2400  174.5830  143.9950 C   0  0  0  0  0  2  0  0  0  0  0  0
  195.9730  175.7330  143.0400 C   0  0  0  0  0  2  0  0  0  0  0  0
  197.0760  176.7720  143.1370 C   0  0  0  0  0  1  0  0  0  0  0  0
  2  9  1  0  0  0  0
  3  7  2  0  0  0  0
  3 11  1  0  0  0  0
  4 12  1  0  0  0  0
  5  8  1  0  0  0  0
  5 40  1  1  0  0  0
  5  4  1  0  0  0  0
  6  4  2  0  0  0  0
  7  8  1  0  0  0  0
  8  2  2  0  0  0  0
  9 12  1  0  0  0  0
 10  2  1  0  0  0  0
 10 13  1  0  0  0  0
 11  1  1  0  0  0  0
 11 10  2  0  0  0  0
 14 17  1  0  0  0  0
 15 14  2  0  0  0  0
 16 18  1  0  0  0  0
 18 13  1  0  0  0  0
 18 17  2  0  0  0  0
 19 16  2  0  0  0  0
 19 15  1  0  0  0  0
 20 21  1  0  0  0  0
 20 15  1  0  0  0  0
 22  3  1  0  0  0  0
 23 22  1  0  0  0  0
 24 25  1  1  0  0  0
 24 23  1  0  0  0  0
 26 27  1  0  0  0  0
 26 24  1  0  0  0  0
 28 27  1  0  0  0  0
 28 31  1  0  0  0  0
 28 29  2  0  0  0  0
 30 28  2  0  0  0  0
 31 35  1  0  0  0  0
 32 34  1  0  0  0  0
 34 33  1  0  0  0  0
 35 33  1  0  0  0  0
 36 32  1  0  0  0  0
 36 31  1  0  0  0  0
 37 27  1  0  0  0  0
 38 39  1  0  0  0  0
 39 37  1  0  0  0  0
 41 40  1  0  0  0  0
 42 43  1  0  0  0  0
 42 41  1  0  0  0  0
M  END
>  <MODEL>
8

>  <REMARK>
 VINA RESULT:      -6.2      3.406      7.784
  Name = 
  15 active torsions:
  status: ('A' for Active; 'I' for Inactive)
    1  A    between atoms: C_1  and  C_34
    2  A    between atoms: C_1  and  C_35
    3  A    between atoms: N_2  and  C_6
    4  A    between atoms: N_2  and  C_13
    5  A    between atoms: C_3  and  N_4
    6  A    between atoms: C_3  and  C_12
    7  A    between atoms: N_4  and  S_14
    8  A    between atoms: N_4  and  C_42
    9  A    between atoms: C_5  and  C_18
   10  A    between atoms: C_6  and  C_12
   11  A    between atoms: N_11  and  S_14
   12  A    between atoms: O_15  and  C_42
   13  A    between atoms: C_18  and  C_24
   14  A    between atoms: C_19  and  O_25
   15  A    between atoms: C_21  and  C_24
                            x       y       z     vdW  Elec       q    Type
                         _______ _______ _______ _____ _____    ______ ____

>  <TORSDO>
F 15

$$$$
=
 OpenBabel11052421093D

 43 46  0  0  1  0  0  0  0  0999 V2000
  187.8180  173.1900  141.6670 C   0  0  0  0  0  1  0  0  0  0  0  0
  190.0920  175.8640  143.1430 C   0  0  0  0  0  0  0  0  0  0  0  0
  189.8580  173.0500  143.1760 C   0  0  0  0  0  0  0  0  0  0  0  0
  192.1530  177.2080  144.6190 C   0  0  0  0  0  0  0  0  0  0  0  0
  192.1460  175.7030  144.6650 C   0  0  2  0  0  3  0  0  0  0  0  0
  193.1750  177.8250  144.8710 O   0  0  0  0  0  0  0  0  0  0  0  0
  190.8760  173.6920  143.8810 C   0  0  0  0  0  3  0  0  0  0  0  0
  191.0050  175.0820  143.8830 C   0  0  0  0  0  0  0  0  0  0  0  0
  190.3020  177.3540  143.0190 C   0  0  0  0  0  2  0  0  0  0  0  0
  189.0520  175.2370  142.4250 C   0  0  0  0  0  0  0  0  0  0  0  0
  188.9310  173.8280  142.4390 C   0  0  0  0  0  0  0  0  0  0  0  0
  190.9010  177.9470  144.2840 C   0  0  0  0  0  2  0  0  0  0  0  0
  188.0680  176.0740  141.6510 C   0  0  0  0  0  2  0  0  0  0  0  0
  185.9130  177.1050  144.5910 C   0  0  0  0  0  3  0  0  0  0  0  0
  185.6320  178.4410  144.2850 C   0  0  0  0  0  0  0  0  0  0  0  0
  186.9520  178.2370  142.2580 C   0  0  0  0  0  3  0  0  0  0  0  0
  186.7070  176.3370  143.7370 C   0  0  0  0  0  3  0  0  0  0  0  0
  187.2280  176.9010  142.5700 C   0  0  0  0  0  0  0  0  0  0  0  0
  186.1580  179.0040  143.1110 C   0  0  0  0  0  3  0  0  0  0  0  0
  184.8320  179.1810  145.1600 O   0  0  0  0  0  0  0  0  0  0  0  0
  184.2770  178.6290  146.3440 C   0  0  0  0  0  1  0  0  0  0  0  0
  189.8200  171.6170  143.2610 N   0  0  0  0  0  2  0  0  0  0  0  0
  190.4750  170.6740  142.3670 C   0  0  0  0  0  2  0  0  0  0  0  0
  191.9780  170.8730  142.4250 C   0  0  1  0  0  3  0  0  0  0  0  0
  192.6350  169.6380  143.0090 C   0  0  0  0  0  1  0  0  0  0  0  0
  192.5200  171.1160  141.0190 C   0  0  0  0  0  2  0  0  0  0  0  0
  193.7700  171.8860  140.9800 N   0  0  0  0  0  0  0  0  0  0  0  0
  193.5050  173.5500  140.5240 S   0  0  0  0  0  0  0  0  0  0  0  0
  193.9910  173.7930  139.1210 O   0  0  0  0  0  0  0  0  0  0  0  0
  192.0320  173.8490  140.5900 O   0  0  0  0  0  0  0  0  0  0  0  0
  194.3660  174.5920  141.6130 N   0  0  0  0  0  0  0  0  0  0  0  0
  196.5240  175.8250  141.8580 C   0  0  0  0  0  2  0  0  0  0  0  0
  195.4540  174.6700  143.8300 C   0  0  0  0  0  2  0  0  0  0  0  0
  195.9380  176.0060  143.2590 C   0  0  0  0  0  2  0  0  0  0  0  0
  194.7660  173.7970  142.7730 C   0  0  0  0  0  2  0  0  0  0  0  0
  195.5760  175.0560  140.9230 C   0  0  0  0  0  2  0  0  0  0  0  0
  194.8220  171.2410  140.1830 C   0  0  0  0  0  2  0  0  0  0  0  0
  196.9950  171.0250  139.8560 C   0  0  0  0  0  1  0  0  0  0  0  0
  196.0450  171.2120  140.8600 O   0  0  0  0  0  0  0  0  0  0  0  0
  192.2250  175.1910  146.1080 C   0  0  0  0  0  2  0  0  0  0  0  0
  191.2070  175.8690  147.0200 C   0  0  0  0  0  2  0  0  0  0  0  0
  190.0750  174.9130  147.3560 C   0  0  0  0  0  2  0  0  0  0  0  0
  188.7700  175.4020  146.7530 C   0  0  0  0  0  1  0  0  0  0  0  0
  1 11  1  0  0  0  0
  2  8  1  0  0  0  0
  3 22  1  0  0  0  0
  3  7  1  0  0  0  0
  4  5  1  0  0  0  0
  4  6  2  0  0  0  0
  5 40  1  1  0  0  0
  7  8  2  0  0  0  0
  8  5  1  0  0  0  0
  9  2  1  0  0  0  0
  9 12  1  0  0  0  0
 10 11  1  0  0  0  0
 10  2  2  0  0  0  0
 11  3  2  0  0  0  0
 12  4  1  0  0  0  0
 13 10  1  0  0  0  0
 13 18  1  0  0  0  0
 15 14  1  0  0  0  0
 15 20  1  0  0  0  0
 16 18  2  0  0  0  0
 16 19  1  0  0  0  0
 17 14  2  0  0  0  0
 18 17  1  0  0  0  0
 19 15  2  0  0  0  0
 20 21  1  0  0  0  0
 23 24  1  0  0  0  0
 23 22  1  0  0  0  0
 24 25  1  6  0  0  0
 26 24  1  0  0  0  0
 27 26  1  0  0  0  0
 28 30  2  0  0  0  0
 28 27  1  0  0  0  0
 28 31  1  0  0  0  0
 29 28  2  0  0  0  0
 31 35  1  0  0  0  0
 32 34  1  0  0  0  0
 34 33  1  0  0  0  0
 35 33  1  0  0  0  0
 36 31  1  0  0  0  0
 36 32  1  0  0  0  0
 37 39  1  0  0  0  0
 37 27  1  0  0  0  0
 38 39  1  0  0  0  0
 40 41  1  0  0  0  0
 41 42  1  0  0  0  0
 43 42  1  0  0  0  0
M  END
>  <MODEL>
9

>  <REMARK>
 VINA RESULT:      -6.1      3.292      9.067
  Name = 
  15 active torsions:
  status: ('A' for Active; 'I' for Inactive)
    1  A    between atoms: C_1  and  C_34
    2  A    between atoms: C_1  and  C_35
    3  A    between atoms: N_2  and  C_6
    4  A    between atoms: N_2  and  C_13
    5  A    between atoms: C_3  and  N_4
    6  A    between atoms: C_3  and  C_12
    7  A    between atoms: N_4  and  S_14
    8  A    between atoms: N_4  and  C_42
    9  A    between atoms: C_5  and  C_18
   10  A    between atoms: C_6  and  C_12
   11  A    between atoms: N_11  and  S_14
   12  A    between atoms: O_15  and  C_42
   13  A    between atoms: C_18  and  C_24
   14  A    between atoms: C_19  and  O_25
   15  A    between atoms: C_21  and  C_24
                            x       y       z     vdW  Elec       q    Type
                         _______ _______ _______ _____ _____    ______ ____

>  <TORSDO>
F 15

$$$$
