=
 OpenBabel11052421213D

 43 48  0  0  1  0  0  0  0  0999 V2000
  189.6530  173.8840  142.7030 C   0  0  1  0  0  0  0  0  0  0  0  0
  196.0240  172.4130  145.2260 C   0  0  0  0  0  0  0  0  0  0  0  0
  191.0810  172.4950  144.2090 N   0  0  0  0  0  0  0  0  0  0  0  0
  188.6650  174.4470  140.4570 C   0  0  0  0  0  2  0  0  0  0  0  0
  191.5340  174.7880  145.0030 N   0  0  0  0  0  2  0  0  0  0  0  0
  193.7400  171.7690  144.6580 C   0  0  2  0  0  3  0  0  0  0  0  0
  195.6800  173.6670  145.5410 C   0  0  0  0  0  3  0  0  0  0  0  0
  189.5890  173.7390  139.5090 C   0  0  0  0  0  0  0  0  0  0  0  0
  197.4500  172.0120  145.3050 C   0  0  0  0  0  1  0  0  0  0  0  0
  193.2870  173.1510  144.9520 C   0  0  0  0  0  0  0  0  0  0  0  0
  195.0210  171.4320  144.7850 C   0  0  0  0  0  3  0  0  0  0  0  0
  194.2620  174.1660  145.4990 C   0  0  0  0  0  3  0  0  0  0  0  0
  190.1080  175.0530  145.0870 C   0  0  2  0  0  3  0  0  0  0  0  0
  191.5770  173.5050  141.1340 C   0  0  0  0  0  2  0  0  0  0  0  0
  191.9980  173.4670  144.7570 C   0  0  0  0  0  0  0  0  0  0  0  0
  188.4850  173.6630  141.7480 C   0  0  0  0  0  2  0  0  0  0  0  0
  191.5040  171.1410  143.9860 C   0  0  0  0  0  3  0  0  0  0  0  0
  189.7010  172.8230  143.8150 C   0  0  1  0  0  3  0  0  0  0  0  0
  190.9600  174.4680  142.1430 C   0  0  0  0  0  2  0  0  0  0  0  0
  189.2070  174.2540  144.1180 C   0  0  2  0  0  3  0  0  0  0  0  0
  190.8550  173.3810  139.8100 C   0  0  0  0  0  3  0  0  0  0  0  0
  192.7670  170.7760  144.1950 C   0  0  0  0  0  3  0  0  0  0  0  0
  189.4960  172.1680  137.7530 F   0  0  0  0  0  0  0  0  0  0  0  0
  189.0660  173.4170  138.1510 C   0  0  0  0  0  2  0  0  0  0  0  0
  189.7990  176.5530  145.1790 C   0  0  1  0  0  3  0  0  0  0  0  0
  189.6220  177.7400  147.1960 O   0  0  0  0  0  0  0  0  0  0  0  0
  189.0850  176.9500  146.4360 C   0  0  0  0  0  0  0  0  0  0  0  0
  187.7340  176.3970  146.7760 C   0  0  0  0  0  2  0  0  0  0  0  0
  186.7060  177.4250  146.6520 N   0  0  0  0  0  0  0  0  0  0  0  0
  186.2860  177.7960  147.9930 C   0  0  0  0  0  2  0  0  0  0  0  0
  186.6610  179.2350  148.2710 C   0  0  0  0  0  1  0  0  0  0  0  0
  185.5550  176.9440  145.8770 C   0  0  0  0  0  2  0  0  0  0  0  0
  184.8580  178.0160  145.0380 C   0  0  1  0  0  3  0  0  0  0  0  0
  183.8480  178.7350  145.9110 C   0  0  0  0  0  1  0  0  0  0  0  0
  185.8820  179.0160  144.5060 C   0  0  0  0  0  2  0  0  0  0  0  0
  186.0880  178.8710  143.0090 C   0  0  2  0  0  3  0  0  0  0  0  0
  187.6280  177.9190  141.2640 C   0  0  0  0  0  2  0  0  0  0  0  0
  185.0000  178.3230  140.5560 S   0  0  0  0  0  0  0  0  0  0  0  0
  186.4790  177.2540  140.5170 C   0  0  0  0  0  2  0  0  0  0  0  0
  184.8590  178.2430  142.3670 C   0  0  0  0  0  2  0  0  0  0  0  0
  187.3150  178.0010  142.7530 C   0  0  0  0  0  2  0  0  0  0  0  0
  190.9420  177.3250  144.9870 O   0  0  0  0  0  0  0  0  0  0  0  0
  190.7180  178.0170  143.7980 C   0  0  0  0  0  1  0  0  0  0  0  0
  1 16  1  6  0  0  0
  1 18  1  0  0  0  0
  1 20  1  0  0  0  0
  2  9  1  0  0  0  0
  2  7  1  0  0  0  0
  3 15  1  0  0  0  0
  4 16  1  0  0  0  0
  5 13  1  0  0  0  0
  6 22  1  6  0  0  0
  6 11  1  0  0  0  0
  6 10  1  0  0  0  0
  8 21  2  0  0  0  0
  8  4  1  0  0  0  0
 10 12  1  0  0  0  0
 11  2  2  0  0  0  0
 12  7  2  0  0  0  0
 13 25  1  6  0  0  0
 14 19  1  0  0  0  0
 15 10  2  0  0  0  0
 15  5  1  0  0  0  0
 17 22  2  0  0  0  0
 17  3  1  0  0  0  0
 18 20  1  0  0  0  0
 18  3  1  1  0  0  0
 19  1  1  0  0  0  0
 20 13  1  0  0  0  0
 21 14  1  0  0  0  0
 23 24  1  0  0  0  0
 24  8  1  0  0  0  0
 25 27  1  0  0  0  0
 27 28  1  0  0  0  0
 27 26  2  0  0  0  0
 29 28  1  0  0  0  0
 29 30  1  0  0  0  0
 30 31  1  0  0  0  0
 32 29  1  0  0  0  0
 33 32  1  0  0  0  0
 33 34  1  0  0  0  0
 35 33  1  0  0  0  0
 36 35  1  0  0  0  0
 37 41  1  0  0  0  0
 38 40  1  0  0  0  0
 39 38  1  0  0  0  0
 39 37  1  0  0  0  0
 40 36  1  0  0  0  0
 41 36  1  0  0  0  0
 42 25  1  0  0  0  0
 43 42  1  0  0  0  0
M  END
>  <MODEL>
1

>  <REMARK>
 VINA RESULT:      -8.1      0.000      0.000
  Name = 
  11 active torsions:
  status: ('A' for Active; 'I' for Inactive)
    1  A    between atoms: C_2  and  C_6
    2  A    between atoms: C_2  and  O_12
    3  A    between atoms: C_2  and  C_27
    4  A    between atoms: N_4  and  C_7
    5  A    between atoms: N_4  and  C_10
    6  A    between atoms: N_4  and  C_15
    7  A    between atoms: C_6  and  C_7
    8  A    between atoms: C_11  and  C_14
    9  A    between atoms: C_14  and  C_22
   10  A    between atoms: C_15  and  C_22
   11  A    between atoms: C_19  and  C_37
                            x       y       z     vdW  Elec       q    Type
                         _______ _______ _______ _____ _____    ______ ____

>  <TORSDO>
F 11

$$$$
=
 OpenBabel11052421213D

 43 48  0  0  1  0  0  0  0  0999 V2000
  191.1000  175.3820  143.0000 C   0  0  1  0  0  0  0  0  0  0  0  0
  185.3340  178.3560  145.6520 C   0  0  0  0  0  0  0  0  0  0  0  0
  189.6410  177.3990  143.2010 N   0  0  0  0  0  0  0  0  0  0  0  0
  191.7060  173.1570  141.9910 C   0  0  0  0  0  2  0  0  0  0  0  0
  190.2060  176.9090  145.5530 N   0  0  0  0  0  2  0  0  0  0  0  0
  187.0630  178.1790  143.9390 C   0  0  2  0  0  3  0  0  0  0  0  0
  186.1550  177.9800  146.6370 C   0  0  0  0  0  3  0  0  0  0  0  0
  190.4090  172.7150  141.3790 C   0  0  0  0  0  0  0  0  0  0  0  0
  183.9120  178.6410  145.9630 C   0  0  0  0  0  1  0  0  0  0  0  0
  188.0240  177.7200  144.9720 C   0  0  0  0  0  0  0  0  0  0  0  0
  185.8060  178.4720  144.2640 C   0  0  0  0  0  3  0  0  0  0  0  0
  187.6130  177.6770  146.4230 C   0  0  0  0  0  3  0  0  0  0  0  0
  191.6170  176.8340  145.2100 C   0  0  2  0  0  3  0  0  0  0  0  0
  188.8720  174.2460  142.7710 C   0  0  0  0  0  2  0  0  0  0  0  0
  189.2660  177.3790  144.5960 C   0  0  0  0  0  0  0  0  0  0  0  0
  191.8770  174.6660  141.9020 C   0  0  0  0  0  2  0  0  0  0  0  0
  188.7320  177.9060  142.2120 C   0  0  0  0  0  3  0  0  0  0  0  0
  190.9260  176.8810  142.7050 C   0  0  1  0  0  3  0  0  0  0  0  0
  189.9920  174.6130  143.7380 C   0  0  0  0  0  2  0  0  0  0  0  0
  191.9450  176.4040  143.7620 C   0  0  2  0  0  3  0  0  0  0  0  0
  189.1970  173.1670  141.7610 C   0  0  0  0  0  3  0  0  0  0  0  0
  187.4990  178.2830  142.5440 C   0  0  0  0  0  3  0  0  0  0  0  0
  189.2730  171.6510  139.6070 F   0  0  0  0  0  0  0  0  0  0  0  0
  190.4760  171.7090  140.2810 C   0  0  0  0  0  2  0  0  0  0  0  0
  192.4450  176.1400  146.3000 C   0  0  1  0  0  3  0  0  0  0  0  0
  194.3140  177.5080  145.9230 O   0  0  0  0  0  0  0  0  0  0  0  0
  193.9200  176.3850  146.1900 C   0  0  0  0  0  0  0  0  0  0  0  0
  194.9130  175.2810  146.3980 C   0  0  0  0  0  2  0  0  0  0  0  0
  195.1660  174.5690  145.1500 N   0  0  0  0  0  0  0  0  0  0  0  0
  195.0490  173.1450  145.4210 C   0  0  0  0  0  2  0  0  0  0  0  0
  193.6940  172.6440  144.9700 C   0  0  0  0  0  1  0  0  0  0  0  0
  196.4990  174.8740  144.6170 C   0  0  0  0  0  2  0  0  0  0  0  0
  196.5200  175.9420  143.5220 C   0  0  1  0  0  3  0  0  0  0  0  0
  197.8450  175.8600  142.7900 C   0  0  0  0  0  1  0  0  0  0  0  0
  195.3750  175.7090  142.5400 C   0  0  0  0  0  2  0  0  0  0  0  0
  195.8220  174.9070  141.3300 C   0  0  2  0  0  3  0  0  0  0  0  0
  195.8810  172.5930  140.3500 C   0  0  0  0  0  2  0  0  0  0  0  0
  195.9950  174.7160  138.6040 S   0  0  0  0  0  0  0  0  0  0  0  0
  195.3210  173.0710  139.0170 C   0  0  0  0  0  2  0  0  0  0  0  0
  195.2420  175.5070  140.0580 C   0  0  0  0  0  2  0  0  0  0  0  0
  195.3590  173.4620  141.4870 C   0  0  0  0  0  2  0  0  0  0  0  0
  191.9790  176.4540  147.5760 O   0  0  0  0  0  0  0  0  0  0  0  0
  191.4040  175.2780  148.0520 C   0  0  0  0  0  1  0  0  0  0  0  0
  1 16  1  6  0  0  0
  1 19  1  0  0  0  0
  1 20  1  0  0  0  0
  2  9  1  0  0  0  0
  2  7  1  0  0  0  0
  3 15  1  0  0  0  0
  6 22  1  6  0  0  0
  6 11  1  0  0  0  0
  6 10  1  0  0  0  0
  8 21  2  0  0  0  0
  8  4  1  0  0  0  0
 10 12  1  0  0  0  0
 11  2  2  0  0  0  0
 12  7  2  0  0  0  0
 13  5  1  0  0  0  0
 13 25  1  1  0  0  0
 14 19  1  0  0  0  0
 15 10  2  0  0  0  0
 15  5  1  0  0  0  0
 16  4  1  0  0  0  0
 17 22  2  0  0  0  0
 17  3  1  0  0  0  0
 18  1  1  0  0  0  0
 18  3  1  1  0  0  0
 18 20  1  0  0  0  0
 20 13  1  0  0  0  0
 21 14  1  0  0  0  0
 23 24  1  0  0  0  0
 24  8  1  0  0  0  0
 25 42  1  0  0  0  0
 26 27  2  0  0  0  0
 27 25  1  0  0  0  0
 27 28  1  0  0  0  0
 29 30  1  0  0  0  0
 29 28  1  0  0  0  0
 31 30  1  0  0  0  0
 32 29  1  0  0  0  0
 33 32  1  0  0  0  0
 34 33  1  0  0  0  0
 35 33  1  0  0  0  0
 36 41  1  0  0  0  0
 36 35  1  0  0  0  0
 37 41  1  0  0  0  0
 38 39  1  0  0  0  0
 38 40  1  0  0  0  0
 39 37  1  0  0  0  0
 40 36  1  0  0  0  0
 42 43  1  0  0  0  0
M  END
>  <MODEL>
2

>  <REMARK>
 VINA RESULT:      -7.9      3.012      8.064
  Name = 
  11 active torsions:
  status: ('A' for Active; 'I' for Inactive)
    1  A    between atoms: C_2  and  C_6
    2  A    between atoms: C_2  and  O_12
    3  A    between atoms: C_2  and  C_27
    4  A    between atoms: N_4  and  C_7
    5  A    between atoms: N_4  and  C_10
    6  A    between atoms: N_4  and  C_15
    7  A    between atoms: C_6  and  C_7
    8  A    between atoms: C_11  and  C_14
    9  A    between atoms: C_14  and  C_22
   10  A    between atoms: C_15  and  C_22
   11  A    between atoms: C_19  and  C_37
                            x       y       z     vdW  Elec       q    Type
                         _______ _______ _______ _____ _____    ______ ____

>  <TORSDO>
F 11

$$$$
=
 OpenBabel11052421213D

 43 48  0  0  1  0  0  0  0  0999 V2000
  190.9750  175.2710  142.9970 C   0  0  1  0  0  0  0  0  0  0  0  0
  185.2550  178.4480  145.5090 C   0  0  0  0  0  0  0  0  0  0  0  0
  189.5840  177.3390  143.1630 N   0  0  0  0  0  0  0  0  0  0  0  0
  191.5250  173.0250  142.0010 C   0  0  0  0  0  2  0  0  0  0  0  0
  190.0740  176.8300  145.5280 N   0  0  0  0  0  2  0  0  0  0  0  0
  187.0180  178.2090  143.8390 C   0  0  2  0  0  3  0  0  0  0  0  0
  186.0390  178.0440  146.5150 C   0  0  0  0  0  3  0  0  0  0  0  0
  190.2290  172.6290  141.3570 C   0  0  0  0  0  0  0  0  0  0  0  0
  183.8370  178.7830  145.7860 C   0  0  0  0  0  1  0  0  0  0  0  0
  187.9370  177.7170  144.8940 C   0  0  0  0  0  0  0  0  0  0  0  0
  185.7640  178.5470  144.1330 C   0  0  0  0  0  3  0  0  0  0  0  0
  187.4890  177.6890  146.3350 C   0  0  0  0  0  3  0  0  0  0  0  0
  191.4890  176.7040  145.2190 C   0  0  2  0  0  3  0  0  0  0  0  0
  188.7150  174.2140  142.7130 C   0  0  0  0  0  2  0  0  0  0  0  0
  189.1750  177.3320  144.5480 C   0  0  0  0  0  0  0  0  0  0  0  0
  191.7530  174.5270  141.9170 C   0  0  0  0  0  2  0  0  0  0  0  0
  188.7180  177.8770  142.1520 C   0  0  0  0  0  3  0  0  0  0  0  0
  190.8620  176.7750  142.6980 C   0  0  1  0  0  3  0  0  0  0  0  0
  189.8230  174.5420  143.7070 C   0  0  0  0  0  2  0  0  0  0  0  0
  191.8370  176.2620  143.7790 C   0  0  2  0  0  3  0  0  0  0  0  0
  189.0250  173.1240  141.7100 C   0  0  0  0  0  3  0  0  0  0  0  0
  187.4910  178.2970  142.4550 C   0  0  0  0  0  3  0  0  0  0  0  0
  189.5040  172.0220  139.1970 F   0  0  0  0  0  0  0  0  0  0  0  0
  190.2870  171.6210  140.2610 C   0  0  0  0  0  2  0  0  0  0  0  0
  192.2650  175.9820  146.3280 C   0  0  1  0  0  3  0  0  0  0  0  0
  194.3570  177.0470  146.3450 O   0  0  0  0  0  0  0  0  0  0  0  0
  193.7530  176.0060  146.1430 C   0  0  0  0  0  0  0  0  0  0  0  0
  194.5070  174.7830  145.7130 C   0  0  0  0  0  2  0  0  0  0  0  0
  195.8180  175.1420  145.1830 N   0  0  0  0  0  0  0  0  0  0  0  0
  195.7060  175.2100  143.7340 C   0  0  0  0  0  2  0  0  0  0  0  0
  196.7920  176.1030  143.1750 C   0  0  0  0  0  1  0  0  0  0  0  0
  196.8400  174.1590  145.5650 C   0  0  0  0  0  2  0  0  0  0  0  0
  196.6810  172.7860  144.9090 C   0  0  1  0  0  3  0  0  0  0  0  0
  197.9240  172.4930  144.0920 C   0  0  0  0  0  1  0  0  0  0  0  0
  196.5020  171.7110  145.9770 C   0  0  0  0  0  2  0  0  0  0  0  0
  195.2380  170.8980  145.7540 C   0  0  2  0  0  3  0  0  0  0  0  0
  193.1600  170.7380  144.3490 C   0  0  0  0  0  2  0  0  0  0  0  0
  194.0730  168.4290  145.5360 S   0  0  0  0  0  0  0  0  0  0  0  0
  193.3880  169.2610  144.0620 C   0  0  0  0  0  2  0  0  0  0  0  0
  195.5890  169.4340  145.5280 C   0  0  0  0  0  2  0  0  0  0  0  0
  194.4920  171.4520  144.5450 C   0  0  0  0  0  2  0  0  0  0  0  0
  191.9110  176.4510  147.5920 O   0  0  0  0  0  0  0  0  0  0  0  0
  191.3430  175.3560  148.2390 C   0  0  0  0  0  1  0  0  0  0  0  0
  1 16  1  6  0  0  0
  1 19  1  0  0  0  0
  1 20  1  0  0  0  0
  2  9  1  0  0  0  0
  2  7  1  0  0  0  0
  3 15  1  0  0  0  0
  6 22  1  6  0  0  0
  6 11  1  0  0  0  0
  6 10  1  0  0  0  0
  8 21  2  0  0  0  0
  8  4  1  0  0  0  0
 10 12  1  0  0  0  0
 11  2  2  0  0  0  0
 12  7  2  0  0  0  0
 13  5  1  0  0  0  0
 13 25  1  1  0  0  0
 14 19  1  0  0  0  0
 15 10  2  0  0  0  0
 15  5  1  0  0  0  0
 16  4  1  0  0  0  0
 17 22  2  0  0  0  0
 17  3  1  0  0  0  0
 18  1  1  0  0  0  0
 18  3  1  1  0  0  0
 18 20  1  0  0  0  0
 20 13  1  0  0  0  0
 21 14  1  0  0  0  0
 23 24  1  0  0  0  0
 24  8  1  0  0  0  0
 25 42  1  0  0  0  0
 27 25  1  0  0  0  0
 27 26  2  0  0  0  0
 28 27  1  0  0  0  0
 29 32  1  0  0  0  0
 29 28  1  0  0  0  0
 30 29  1  0  0  0  0
 31 30  1  0  0  0  0
 33 32  1  0  0  0  0
 33 35  1  0  0  0  0
 34 33  1  0  0  0  0
 36 35  1  0  0  0  0
 37 41  1  0  0  0  0
 39 37  1  0  0  0  0
 39 38  1  0  0  0  0
 40 38  1  0  0  0  0
 40 36  1  0  0  0  0
 41 36  1  0  0  0  0
 42 43  1  0  0  0  0
M  END
>  <MODEL>
3

>  <REMARK>
 VINA RESULT:      -7.7      2.884      8.625
  Name = 
  11 active torsions:
  status: ('A' for Active; 'I' for Inactive)
    1  A    between atoms: C_2  and  C_6
    2  A    between atoms: C_2  and  O_12
    3  A    between atoms: C_2  and  C_27
    4  A    between atoms: N_4  and  C_7
    5  A    between atoms: N_4  and  C_10
    6  A    between atoms: N_4  and  C_15
    7  A    between atoms: C_6  and  C_7
    8  A    between atoms: C_11  and  C_14
    9  A    between atoms: C_14  and  C_22
   10  A    between atoms: C_15  and  C_22
   11  A    between atoms: C_19  and  C_37
                            x       y       z     vdW  Elec       q    Type
                         _______ _______ _______ _____ _____    ______ ____

>  <TORSDO>
F 11

$$$$
=
 OpenBabel11052421213D

 43 48  0  0  1  0  0  0  0  0999 V2000
  191.7170  176.2510  144.7720 C   0  0  1  0  0  0  0  0  0  0  0  0
  195.9760  170.7830  145.8160 C   0  0  0  0  0  0  0  0  0  0  0  0
  193.9640  175.2060  144.4530 N   0  0  0  0  0  0  0  0  0  0  0  0
  190.0210  177.5260  146.1250 C   0  0  0  0  0  2  0  0  0  0  0  0
  192.4500  173.5520  143.4190 N   0  0  0  0  0  2  0  0  0  0  0  0
  195.5930  173.1620  145.4360 C   0  0  0  0  0  0  0  0  0  0  0  0
  194.9170  170.4120  145.0880 C   0  0  0  0  0  3  0  0  0  0  0  0
  190.5340  177.3640  147.5250 C   0  0  0  0  0  0  0  0  0  0  0  0
  196.7940  169.7430  146.4850 C   0  0  0  0  0  1  0  0  0  0  0  0
  194.3820  172.8320  144.6450 C   0  0  0  0  0  0  0  0  0  0  0  0
  196.3320  172.2000  145.9830 C   0  0  0  0  0  3  0  0  0  0  0  0
  194.0310  171.3910  144.3670 C   0  0  0  0  0  2  0  0  0  0  0  0
  191.8140  174.6040  142.6420 C   0  0  2  0  0  3  0  0  0  0  0  0
  192.0070  175.2970  147.0760 C   0  0  0  0  0  2  0  0  0  0  0  0
  193.6320  173.8320  144.1580 C   0  0  0  0  0  0  0  0  0  0  0  0
  191.1610  177.6260  145.1220 C   0  0  0  0  0  2  0  0  0  0  0  0
  195.1700  175.5270  145.1610 C   0  0  0  0  0  3  0  0  0  0  0  0
  193.0940  176.3390  144.0930 C   0  0  1  0  0  3  0  0  0  0  0  0
  191.3940  175.0680  145.6990 C   0  0  0  0  0  2  0  0  0  0  0  0
  191.8320  176.0180  143.2640 C   0  0  2  0  0  3  0  0  0  0  0  0
  191.3560  176.3700  147.9210 C   0  0  0  0  0  3  0  0  0  0  0  0
  195.9600  174.5670  145.6370 C   0  0  0  0  0  3  0  0  0  0  0  0
  191.0970  178.5750  149.4700 F   0  0  0  0  0  0  0  0  0  0  0  0
  190.1010  178.3690  148.5370 C   0  0  0  0  0  2  0  0  0  0  0  0
  190.4640  174.1630  142.0620 C   0  0  1  0  0  3  0  0  0  0  0  0
  188.5980  174.5020  143.4460 O   0  0  0  0  0  0  0  0  0  0  0  0
  189.2990  174.9650  142.5600 C   0  0  0  0  0  0  0  0  0  0  0  0
  188.9800  176.3150  141.9920 C   0  0  0  0  0  2  0  0  0  0  0  0
  187.5660  176.4100  141.6430 N   0  0  0  0  0  0  0  0  0  0  0  0
  187.4270  176.0170  140.2500 C   0  0  0  0  0  2  0  0  0  0  0  0
  186.8070  177.1460  139.4550 C   0  0  0  0  0  1  0  0  0  0  0  0
  187.0550  177.7730  141.8360 C   0  0  0  0  0  2  0  0  0  0  0  0
  185.8810  177.8820  142.8120 C   0  0  1  0  0  3  0  0  0  0  0  0
  184.6110  178.1190  142.0180 C   0  0  0  0  0  1  0  0  0  0  0  0
  185.7500  176.5940  143.6210 C   0  0  0  0  0  2  0  0  0  0  0  0
  185.5730  176.8740  145.1040 C   0  0  2  0  0  3  0  0  0  0  0  0
  186.7110  176.7150  147.3390 C   0  0  0  0  0  2  0  0  0  0  0  0
  184.7200  178.5930  147.0570 S   0  0  0  0  0  0  0  0  0  0  0  0
  186.3780  178.1600  147.6860 C   0  0  0  0  0  2  0  0  0  0  0  0
  185.1940  178.3320  145.3210 C   0  0  0  0  0  2  0  0  0  0  0  0
  186.8750  176.5560  145.8330 C   0  0  0  0  0  2  0  0  0  0  0  0
  190.4890  174.1300  140.6690 O   0  0  0  0  0  0  0  0  0  0  0  0
  190.4150  172.7780  140.3370 C   0  0  0  0  0  1  0  0  0  0  0  0
  1 16  1  1  0  0  0
  1 19  1  0  0  0  0
  2 11  1  0  0  0  0
  2  9  1  0  0  0  0
  3 17  1  0  0  0  0
  4  8  1  0  0  0  0
  5 15  1  0  0  0  0
  6 22  1  0  0  0  0
  6 11  2  0  0  0  0
  7  2  2  0  0  0  0
  8 21  2  0  0  0  0
  8 24  1  0  0  0  0
 10  6  1  0  0  0  0
 12 10  1  0  0  0  0
 12  7  1  0  0  0  0
 13 25  1  1  0  0  0
 13 20  1  0  0  0  0
 13  5  1  0  0  0  0
 14 21  1  0  0  0  0
 15  3  1  0  0  0  0
 15 10  2  0  0  0  0
 16  4  1  0  0  0  0
 17 22  2  0  0  0  0
 18  3  1  1  0  0  0
 18  1  1  0  0  0  0
 19 14  1  0  0  0  0
 20 18  1  0  0  0  0
 20  1  1  0  0  0  0
 24 23  1  0  0  0  0
 25 27  1  0  0  0  0
 27 26  2  0  0  0  0
 28 27  1  0  0  0  0
 29 32  1  0  0  0  0
 29 28  1  0  0  0  0
 30 29  1  0  0  0  0
 31 30  1  0  0  0  0
 32 33  1  0  0  0  0
 33 35  1  0  0  0  0
 34 33  1  0  0  0  0
 35 36  1  0  0  0  0
 36 40  1  0  0  0  0
 36 41  1  0  0  0  0
 37 39  1  0  0  0  0
 38 39  1  0  0  0  0
 40 38  1  0  0  0  0
 41 37  1  0  0  0  0
 42 25  1  0  0  0  0
 43 42  1  0  0  0  0
M  END
>  <MODEL>
4

>  <REMARK>
 VINA RESULT:      -7.5      3.029      5.539
  Name = 
  11 active torsions:
  status: ('A' for Active; 'I' for Inactive)
    1  A    between atoms: C_2  and  C_6
    2  A    between atoms: C_2  and  O_12
    3  A    between atoms: C_2  and  C_27
    4  A    between atoms: N_4  and  C_7
    5  A    between atoms: N_4  and  C_10
    6  A    between atoms: N_4  and  C_15
    7  A    between atoms: C_6  and  C_7
    8  A    between atoms: C_11  and  C_14
    9  A    between atoms: C_14  and  C_22
   10  A    between atoms: C_15  and  C_22
   11  A    between atoms: C_19  and  C_37
                            x       y       z     vdW  Elec       q    Type
                         _______ _______ _______ _____ _____    ______ ____

>  <TORSDO>
F 11

$$$$
=
 OpenBabel11052421213D

 43 48  0  0  1  0  0  0  0  0999 V2000
  192.7460  175.4850  144.3470 C   0  0  1  0  0  0  0  0  0  0  0  0
  196.6200  169.9020  146.0610 C   0  0  0  0  0  0  0  0  0  0  0  0
  194.9890  174.3900  144.4260 N   0  0  0  0  0  0  0  0  0  0  0  0
  190.8600  176.7860  145.3880 C   0  0  0  0  0  2  0  0  0  0  0  0
  193.6540  172.7860  143.1070 N   0  0  0  0  0  2  0  0  0  0  0  0
  196.3660  172.2950  145.6560 C   0  0  0  0  0  0  0  0  0  0  0  0
  195.7040  169.5660  145.1470 C   0  0  0  0  0  3  0  0  0  0  0  0
  191.1050  176.5950  146.8560 C   0  0  0  0  0  0  0  0  0  0  0  0
  197.2800  168.8340  146.8520 C   0  0  0  0  0  1  0  0  0  0  0  0
  195.3130  172.0030  144.6530 C   0  0  0  0  0  0  0  0  0  0  0  0
  196.9710  171.3080  146.3130 C   0  0  0  0  0  3  0  0  0  0  0  0
  194.9870  170.5740  144.2920 C   0  0  0  0  0  2  0  0  0  0  0  0
  193.1940  173.8620  142.2440 C   0  0  2  0  0  3  0  0  0  0  0  0
  192.5890  174.4970  146.6500 C   0  0  0  0  0  2  0  0  0  0  0  0
  194.6870  173.0270  144.0530 C   0  0  0  0  0  0  0  0  0  0  0  0
  192.1650  176.8690  144.6120 C   0  0  0  0  0  2  0  0  0  0  0  0
  196.0530  174.6720  145.3470 C   0  0  0  0  0  3  0  0  0  0  0  0
  194.2260  175.5470  143.9320 C   0  0  1  0  0  3  0  0  0  0  0  0
  192.2330  174.3000  145.1800 C   0  0  0  0  0  2  0  0  0  0  0  0
  193.1280  175.2680  142.8820 C   0  0  2  0  0  3  0  0  0  0  0  0
  191.8180  175.5760  147.3790 C   0  0  0  0  0  3  0  0  0  0  0  0
  196.7220  173.6870  145.9440 C   0  0  0  0  0  3  0  0  0  0  0  0
  189.2350  177.9270  147.3950 F   0  0  0  0  0  0  0  0  0  0  0  0
  190.5170  177.5990  147.7880 C   0  0  0  0  0  2  0  0  0  0  0  0
  191.9620  173.4610  141.4210 C   0  0  1  0  0  3  0  0  0  0  0  0
  190.3420  172.7080  142.9430 O   0  0  0  0  0  0  0  0  0  0  0  0
  190.6670  173.5900  142.1650 C   0  0  0  0  0  0  0  0  0  0  0  0
  189.7680  174.7740  141.9690 C   0  0  0  0  0  2  0  0  0  0  0  0
  188.3710  174.4020  142.1620 N   0  0  0  0  0  0  0  0  0  0  0  0
  187.9400  173.6720  140.9800 C   0  0  0  0  0  2  0  0  0  0  0  0
  188.3400  174.4290  139.7320 C   0  0  0  0  0  1  0  0  0  0  0  0
  187.5220  175.5830  142.3630 C   0  0  0  0  0  2  0  0  0  0  0  0
  188.2720  176.9160  142.3610 C   0  0  1  0  0  3  0  0  0  0  0  0
  187.7070  177.7900  141.2590 C   0  0  0  0  0  1  0  0  0  0  0  0
  188.1060  177.6140  143.7080 C   0  0  0  0  0  2  0  0  0  0  0  0
  186.6720  177.5480  144.2060 C   0  0  2  0  0  3  0  0  0  0  0  0
  185.2320  176.7940  146.1230 C   0  0  0  0  0  2  0  0  0  0  0  0
  184.2610  178.8080  144.5190 S   0  0  0  0  0  0  0  0  0  0  0  0
  184.5130  178.1340  146.1970 C   0  0  0  0  0  2  0  0  0  0  0  0
  186.0440  178.9340  144.1870 C   0  0  0  0  0  2  0  0  0  0  0  0
  186.6580  176.9840  145.6230 C   0  0  0  0  0  2  0  0  0  0  0  0
  191.9120  174.1430  140.2070 O   0  0  0  0  0  0  0  0  0  0  0  0
  191.7690  173.1510  139.2390 C   0  0  0  0  0  1  0  0  0  0  0  0
  1 16  1  1  0  0  0
  1 19  1  0  0  0  0
  2 11  1  0  0  0  0
  2  9  1  0  0  0  0
  3 17  1  0  0  0  0
  4  8  1  0  0  0  0
  5 15  1  0  0  0  0
  6 22  1  0  0  0  0
  6 11  2  0  0  0  0
  7  2  2  0  0  0  0
  8 21  2  0  0  0  0
  8 24  1  0  0  0  0
 10  6  1  0  0  0  0
 12 10  1  0  0  0  0
 12  7  1  0  0  0  0
 13 25  1  1  0  0  0
 13 20  1  0  0  0  0
 13  5  1  0  0  0  0
 14 21  1  0  0  0  0
 15  3  1  0  0  0  0
 15 10  2  0  0  0  0
 16  4  1  0  0  0  0
 17 22  2  0  0  0  0
 18  1  1  0  0  0  0
 18  3  1  1  0  0  0
 19 14  1  0  0  0  0
 20 18  1  0  0  0  0
 20  1  1  0  0  0  0
 23 24  1  0  0  0  0
 25 27  1  0  0  0  0
 27 26  2  0  0  0  0
 28 29  1  0  0  0  0
 28 27  1  0  0  0  0
 29 32  1  0  0  0  0
 30 29  1  0  0  0  0
 31 30  1  0  0  0  0
 33 32  1  0  0  0  0
 33 35  1  0  0  0  0
 34 33  1  0  0  0  0
 35 36  1  0  0  0  0
 36 41  1  0  0  0  0
 37 39  1  0  0  0  0
 38 39  1  0  0  0  0
 40 36  1  0  0  0  0
 40 38  1  0  0  0  0
 41 37  1  0  0  0  0
 42 25  1  0  0  0  0
 43 42  1  0  0  0  0
M  END
>  <MODEL>
5

>  <REMARK>
 VINA RESULT:      -7.3      2.886      5.556
  Name = 
  11 active torsions:
  status: ('A' for Active; 'I' for Inactive)
    1  A    between atoms: C_2  and  C_6
    2  A    between atoms: C_2  and  O_12
    3  A    between atoms: C_2  and  C_27
    4  A    between atoms: N_4  and  C_7
    5  A    between atoms: N_4  and  C_10
    6  A    between atoms: N_4  and  C_15
    7  A    between atoms: C_6  and  C_7
    8  A    between atoms: C_11  and  C_14
    9  A    between atoms: C_14  and  C_22
   10  A    between atoms: C_15  and  C_22
   11  A    between atoms: C_19  and  C_37
                            x       y       z     vdW  Elec       q    Type
                         _______ _______ _______ _____ _____    ______ ____

>  <TORSDO>
F 11

$$$$
=
 OpenBabel11052421213D

 43 48  0  0  1  0  0  0  0  0999 V2000
  189.3960  176.2530  143.8750 C   0  0  1  0  0  0  0  0  0  0  0  0
  195.6160  173.4290  145.4420 C   0  0  0  0  0  0  0  0  0  0  0  0
  191.8840  176.3350  143.6800 N   0  0  0  0  0  0  0  0  0  0  0  0
  187.2360  176.6980  145.0900 C   0  0  0  0  0  2  0  0  0  0  0  0
  191.3470  174.1060  142.7660 N   0  0  0  0  0  2  0  0  0  0  0  0
  194.2120  175.3370  144.8570 C   0  0  0  0  0  0  0  0  0  0  0  0
  194.8820  172.5660  144.7320 C   0  0  0  0  0  3  0  0  0  0  0  0
  187.6930  176.8850  146.5070 C   0  0  0  0  0  0  0  0  0  0  0  0
  196.7820  172.9280  146.2090 C   0  0  0  0  0  1  0  0  0  0  0  0
  193.3280  174.4350  144.0780 C   0  0  0  0  0  0  0  0  0  0  0  0
  195.2780  174.8590  145.4940 C   0  0  0  0  0  3  0  0  0  0  0  0
  193.6860  172.9780  143.9170 C   0  0  0  0  0  2  0  0  0  0  0  0
  190.3430  174.6930  141.8940 C   0  0  2  0  0  3  0  0  0  0  0  0
  189.9670  175.6960  146.2560 C   0  0  0  0  0  2  0  0  0  0  0  0
  192.2310  174.9450  143.4970 C   0  0  0  0  0  0  0  0  0  0  0  0
  188.2560  177.2400  144.1000 C   0  0  0  0  0  2  0  0  0  0  0  0
  192.7730  177.2200  144.3780 C   0  0  0  0  0  3  0  0  0  0  0  0
  190.6150  176.9160  143.2130 C   0  0  1  0  0  3  0  0  0  0  0  0
  189.5980  175.1200  144.8940 C   0  0  0  0  0  2  0  0  0  0  0  0
  189.6820  175.9970  142.3950 C   0  0  2  0  0  3  0  0  0  0  0  0
  188.8550  176.4070  146.9980 C   0  0  0  0  0  3  0  0  0  0  0  0
  193.8880  176.7630  144.9450 C   0  0  0  0  0  3  0  0  0  0  0  0
  185.5300  177.7450  146.8850 F   0  0  0  0  0  0  0  0  0  0  0  0
  186.7970  177.6460  147.4230 C   0  0  0  0  0  2  0  0  0  0  0  0
  189.3740  173.6440  141.3320 C   0  0  1  0  0  3  0  0  0  0  0  0
  188.4200  174.4830  139.3590 O   0  0  0  0  0  0  0  0  0  0  0  0
  189.2190  173.6970  139.8420 C   0  0  0  0  0  0  0  0  0  0  0  0
  190.0210  172.8070  138.9400 C   0  0  0  0  0  2  0  0  0  0  0  0
  191.3210  173.4000  138.6490 N   0  0  0  0  0  0  0  0  0  0  0  0
  191.2760  173.9240  137.2930 C   0  0  0  0  0  2  0  0  0  0  0  0
  192.5800  174.6180  136.9650 C   0  0  0  0  0  1  0  0  0  0  0  0
  192.4020  172.4140  138.7730 C   0  0  0  0  0  2  0  0  0  0  0  0
  193.0870  172.3870  140.1410 C   0  0  1  0  0  3  0  0  0  0  0  0
  192.8440  171.0320  140.7780 C   0  0  0  0  0  1  0  0  0  0  0  0
  194.5870  172.6190  139.9830 C   0  0  0  0  0  2  0  0  0  0  0  0
  195.0800  173.7510  140.8680 C   0  0  2  0  0  3  0  0  0  0  0  0
  197.0180  174.5220  142.2710 C   0  0  0  0  0  2  0  0  0  0  0  0
  195.3310  176.4490  141.2650 S   0  0  0  0  0  0  0  0  0  0  0  0
  197.0360  175.8940  141.6110 C   0  0  0  0  0  2  0  0  0  0  0  0
  195.0040  175.0750  140.1210 C   0  0  0  0  0  2  0  0  0  0  0  0
  196.5190  173.4690  141.2890 C   0  0  0  0  0  2  0  0  0  0  0  0
  189.7070  172.3590  141.7550 O   0  0  0  0  0  0  0  0  0  0  0  0
  188.7780  172.0510  142.7470 C   0  0  0  0  0  1  0  0  0  0  0  0
  1 16  1  1  0  0  0
  1 19  1  0  0  0  0
  2 11  1  0  0  0  0
  2  9  1  0  0  0  0
  3 17  1  0  0  0  0
  4  8  1  0  0  0  0
  5 15  1  0  0  0  0
  6 22  1  0  0  0  0
  6 11  2  0  0  0  0
  7  2  2  0  0  0  0
  8 21  2  0  0  0  0
  8 24  1  0  0  0  0
 10  6  1  0  0  0  0
 12 10  1  0  0  0  0
 12  7  1  0  0  0  0
 13 25  1  1  0  0  0
 13 20  1  0  0  0  0
 13  5  1  0  0  0  0
 14 21  1  0  0  0  0
 15  3  1  0  0  0  0
 15 10  2  0  0  0  0
 16  4  1  0  0  0  0
 17 22  2  0  0  0  0
 18  3  1  1  0  0  0
 18  1  1  0  0  0  0
 19 14  1  0  0  0  0
 20 18  1  0  0  0  0
 20  1  1  0  0  0  0
 23 24  1  0  0  0  0
 25 42  1  0  0  0  0
 26 27  2  0  0  0  0
 27 25  1  0  0  0  0
 28 27  1  0  0  0  0
 29 32  1  0  0  0  0
 29 28  1  0  0  0  0
 30 29  1  0  0  0  0
 31 30  1  0  0  0  0
 32 33  1  0  0  0  0
 33 34  1  0  0  0  0
 35 33  1  0  0  0  0
 35 36  1  0  0  0  0
 36 41  1  0  0  0  0
 38 39  1  0  0  0  0
 39 37  1  0  0  0  0
 40 36  1  0  0  0  0
 40 38  1  0  0  0  0
 41 37  1  0  0  0  0
 42 43  1  0  0  0  0
M  END
>  <MODEL>
6

>  <REMARK>
 VINA RESULT:      -7.2      3.545      7.766
  Name = 
  11 active torsions:
  status: ('A' for Active; 'I' for Inactive)
    1  A    between atoms: C_2  and  C_6
    2  A    between atoms: C_2  and  O_12
    3  A    between atoms: C_2  and  C_27
    4  A    between atoms: N_4  and  C_7
    5  A    between atoms: N_4  and  C_10
    6  A    between atoms: N_4  and  C_15
    7  A    between atoms: C_6  and  C_7
    8  A    between atoms: C_11  and  C_14
    9  A    between atoms: C_14  and  C_22
   10  A    between atoms: C_15  and  C_22
   11  A    between atoms: C_19  and  C_37
                            x       y       z     vdW  Elec       q    Type
                         _______ _______ _______ _____ _____    ______ ____

>  <TORSDO>
F 11

$$$$
=
 OpenBabel11052421213D

 43 48  0  0  1  0  0  0  0  0999 V2000
  187.7490  176.9030  142.9970 C   0  0  1  0  0  0  0  0  0  0  0  0
  194.1530  175.1620  145.2490 C   0  0  0  0  0  0  0  0  0  0  0  0
  190.2130  177.3100  142.9410 N   0  0  0  0  0  0  0  0  0  0  0  0
  185.4650  177.1710  144.0200 C   0  0  0  0  0  2  0  0  0  0  0  0
  190.0440  174.9420  142.2650 N   0  0  0  0  0  2  0  0  0  0  0  0
  192.5570  176.7810  144.3620 C   0  0  0  0  0  0  0  0  0  0  0  0
  193.5950  174.1330  144.6040 C   0  0  0  0  0  3  0  0  0  0  0  0
  185.7870  177.5730  145.4300 C   0  0  0  0  0  0  0  0  0  0  0  0
  195.3150  174.9150  146.1380 C   0  0  0  0  0  1  0  0  0  0  0  0
  191.8610  175.6850  143.6440 C   0  0  0  0  0  0  0  0  0  0  0  0
  193.6270  176.5290  145.1130 C   0  0  0  0  0  3  0  0  0  0  0  0
  192.4200  174.2840  143.6770 C   0  0  0  0  0  2  0  0  0  0  0  0
  189.0390  175.2850  141.2710 C   0  0  2  0  0  3  0  0  0  0  0  0
  188.2100  176.6930  145.4560 C   0  0  0  0  0  2  0  0  0  0  0  0
  190.7530  175.9710  142.9430 C   0  0  0  0  0  0  0  0  0  0  0  0
  186.4750  177.7400  143.0360 C   0  0  0  0  0  2  0  0  0  0  0  0
  190.9230  178.3820  143.5800 C   0  0  0  0  0  3  0  0  0  0  0  0
  188.9160  177.6540  142.3340 C   0  0  1  0  0  3  0  0  0  0  0  0
  188.0230  175.9260  144.1510 C   0  0  0  0  0  2  0  0  0  0  0  0
  188.1760  176.5310  141.5760 C   0  0  2  0  0  3  0  0  0  0  0  0
  186.9620  177.3180  146.0420 C   0  0  0  0  0  3  0  0  0  0  0  0
  192.0420  178.1490  144.2630 C   0  0  0  0  0  3  0  0  0  0  0  0
  185.2980  179.2730  146.9900 F   0  0  0  0  0  0  0  0  0  0  0  0
  184.7320  178.2960  146.1960 C   0  0  0  0  0  2  0  0  0  0  0  0
  188.2620  174.0570  140.7810 C   0  0  1  0  0  3  0  0  0  0  0  0
  187.8200  174.5990  138.5410 O   0  0  0  0  0  0  0  0  0  0  0  0
  188.3680  173.8210  139.3040 C   0  0  0  0  0  0  0  0  0  0  0  0
  189.1290  172.6520  138.7520 C   0  0  0  0  0  2  0  0  0  0  0  0
  190.5540  172.9520  138.6740 N   0  0  0  0  0  0  0  0  0  0  0  0
  190.8900  173.1450  137.2720 C   0  0  0  0  0  2  0  0  0  0  0  0
  191.9420  174.2240  137.1380 C   0  0  0  0  0  1  0  0  0  0  0  0
  191.3650  171.8680  139.2420 C   0  0  0  0  0  2  0  0  0  0  0  0
  192.2660  172.2870  140.4050 C   0  0  1  0  0  3  0  0  0  0  0  0
  191.8700  171.4930  141.6350 C   0  0  0  0  0  1  0  0  0  0  0  0
  193.7270  172.0110  140.0640 C   0  0  0  0  0  2  0  0  0  0  0  0
  194.6030  173.2300  140.3010 C   0  0  2  0  0  3  0  0  0  0  0  0
  194.5650  175.7340  140.5140 C   0  0  0  0  0  2  0  0  0  0  0  0
  196.6370  174.3870  141.7240 S   0  0  0  0  0  0  0  0  0  0  0  0
  195.3740  175.7040  141.8030 C   0  0  0  0  0  2  0  0  0  0  0  0
  195.3980  173.0630  141.5880 C   0  0  0  0  0  2  0  0  0  0  0  0
  193.7210  174.4720  140.3880 C   0  0  0  0  0  2  0  0  0  0  0  0
  188.6060  172.9120  141.4970 O   0  0  0  0  0  0  0  0  0  0  0  0
  187.4420  172.5360  142.1630 C   0  0  0  0  0  1  0  0  0  0  0  0
  1 16  1  1  0  0  0
  1 19  1  0  0  0  0
  2  9  1  0  0  0  0
  3 15  1  0  0  0  0
  3 17  1  0  0  0  0
  4  8  1  0  0  0  0
  5 15  1  0  0  0  0
  6 11  2  0  0  0  0
  7  2  2  0  0  0  0
  8 21  2  0  0  0  0
  8 24  1  0  0  0  0
 10 12  1  0  0  0  0
 10  6  1  0  0  0  0
 11  2  1  0  0  0  0
 12  7  1  0  0  0  0
 13 25  1  1  0  0  0
 13 20  1  0  0  0  0
 13  5  1  0  0  0  0
 14 21  1  0  0  0  0
 15 10  2  0  0  0  0
 16  4  1  0  0  0  0
 17 22  2  0  0  0  0
 18  3  1  1  0  0  0
 18  1  1  0  0  0  0
 19 14  1  0  0  0  0
 20 18  1  0  0  0  0
 20  1  1  0  0  0  0
 22  6  1  0  0  0  0
 24 23  1  0  0  0  0
 25 42  1  0  0  0  0
 26 27  2  0  0  0  0
 27 25  1  0  0  0  0
 28 27  1  0  0  0  0
 29 28  1  0  0  0  0
 29 32  1  0  0  0  0
 30 29  1  0  0  0  0
 31 30  1  0  0  0  0
 32 33  1  0  0  0  0
 33 34  1  0  0  0  0
 35 36  1  0  0  0  0
 35 33  1  0  0  0  0
 36 41  1  0  0  0  0
 36 40  1  0  0  0  0
 37 39  1  0  0  0  0
 38 39  1  0  0  0  0
 40 38  1  0  0  0  0
 41 37  1  0  0  0  0
 42 43  1  0  0  0  0
M  END
>  <MODEL>
7

>  <REMARK>
 VINA RESULT:      -7.2      3.735      7.884
  Name = 
  11 active torsions:
  status: ('A' for Active; 'I' for Inactive)
    1  A    between atoms: C_2  and  C_6
    2  A    between atoms: C_2  and  O_12
    3  A    between atoms: C_2  and  C_27
    4  A    between atoms: N_4  and  C_7
    5  A    between atoms: N_4  and  C_10
    6  A    between atoms: N_4  and  C_15
    7  A    between atoms: C_6  and  C_7
    8  A    between atoms: C_11  and  C_14
    9  A    between atoms: C_14  and  C_22
   10  A    between atoms: C_15  and  C_22
   11  A    between atoms: C_19  and  C_37
                            x       y       z     vdW  Elec       q    Type
                         _______ _______ _______ _____ _____    ______ ____

>  <TORSDO>
F 11

$$$$
=
 OpenBabel11052421213D

 43 48  0  0  1  0  0  0  0  0999 V2000
  189.1900  175.6930  145.3760 C   0  0  1  0  0  0  0  0  0  0  0  0
  190.6610  172.4760  139.3250 C   0  0  0  0  0  0  0  0  0  0  0  0
  189.8730  173.6090  144.1800 N   0  0  0  0  0  0  0  0  0  0  0  0
  187.4650  177.3310  146.1990 C   0  0  0  0  0  2  0  0  0  0  0  0
  191.6180  175.2160  143.4980 N   0  0  0  0  0  2  0  0  0  0  0  0
  189.8980  172.4430  141.6430 C   0  0  0  0  0  0  0  0  0  0  0  0
  191.5180  173.4800  139.5350 C   0  0  0  0  0  3  0  0  0  0  0  0
  186.2840  177.0250  145.3250 C   0  0  0  0  0  0  0  0  0  0  0  0
  190.5240  171.9130  137.9600 C   0  0  0  0  0  1  0  0  0  0  0  0
  190.7980  173.5830  141.9450 C   0  0  0  0  0  0  0  0  0  0  0  0
  189.8360  171.9320  140.4150 C   0  0  0  0  0  3  0  0  0  0  0  0
  191.7310  174.1120  140.8840 C   0  0  0  0  0  2  0  0  0  0  0  0
  191.8370  175.5850  144.8880 C   0  0  2  0  0  3  0  0  0  0  0  0
  187.5910  175.8390  143.4450 C   0  0  0  0  0  2  0  0  0  0  0  0
  190.7890  174.1070  143.1800 C   0  0  0  0  0  0  0  0  0  0  0  0
  188.2590  176.0740  146.5210 C   0  0  0  0  0  2  0  0  0  0  0  0
  189.0500  172.4650  143.9070 C   0  0  0  0  0  3  0  0  0  0  0  0
  189.6940  174.2450  145.4950 C   0  0  1  0  0  3  0  0  0  0  0  0
  188.9370  176.3040  143.9880 C   0  0  0  0  0  2  0  0  0  0  0  0
  190.6250  175.4300  145.8340 C   0  0  2  0  0  3  0  0  0  0  0  0
  186.3680  176.4190  144.1220 C   0  0  0  0  0  3  0  0  0  0  0  0
  189.0480  171.8950  142.7030 C   0  0  0  0  0  3  0  0  0  0  0  0
  184.9570  177.5710  147.1970 F   0  0  0  0  0  0  0  0  0  0  0  0
  184.9370  177.4230  145.8250 C   0  0  0  0  0  2  0  0  0  0  0  0
  192.6080  176.9040  145.0250 C   0  0  1  0  0  3  0  0  0  0  0  0
  194.0320  176.8210  146.8890 O   0  0  0  0  0  0  0  0  0  0  0  0
  193.9520  176.7570  145.6730 C   0  0  0  0  0  0  0  0  0  0  0  0
  195.1920  176.5370  144.8590 C   0  0  0  0  0  2  0  0  0  0  0  0
  195.3340  175.1310  144.5000 N   0  0  0  0  0  0  0  0  0  0  0  0
  196.1170  174.4840  145.5410 C   0  0  0  0  0  2  0  0  0  0  0  0
  197.4690  174.0810  144.9930 C   0  0  0  0  0  1  0  0  0  0  0  0
  195.9960  174.9720  143.1990 C   0  0  0  0  0  2  0  0  0  0  0  0
  195.0950  174.4290  142.0880 C   0  0  1  0  0  3  0  0  0  0  0  0
  195.4110  175.1690  140.8030 C   0  0  0  0  0  1  0  0  0  0  0  0
  195.3390  172.9350  141.8950 C   0  0  0  0  0  2  0  0  0  0  0  0
  194.1200  172.1100  142.2720 C   0  0  2  0  0  3  0  0  0  0  0  0
  192.7690  170.0910  141.6270 C   0  0  0  0  0  2  0  0  0  0  0  0
  192.6370  170.9250  144.2450 S   0  0  0  0  0  0  0  0  0  0  0  0
  192.7720  169.5510  143.0500 C   0  0  0  0  0  2  0  0  0  0  0  0
  194.2120  171.6710  143.7260 C   0  0  0  0  0  2  0  0  0  0  0  0
  194.0390  170.8900  141.3600 C   0  0  0  0  0  2  0  0  0  0  0  0
  192.7110  177.5680  143.8050 O   0  0  0  0  0  0  0  0  0  0  0  0
  191.6610  178.4850  143.8000 C   0  0  0  0  0  1  0  0  0  0  0  0
  1 19  1  6  0  0  0
  1 18  1  0  0  0  0
  1 20  1  0  0  0  0
  1 16  1  0  0  0  0
  2  7  2  0  0  0  0
  2 11  1  0  0  0  0
  4 16  1  0  0  0  0
  5 13  1  0  0  0  0
  6 10  1  0  0  0  0
  6 22  1  0  0  0  0
  7 12  1  0  0  0  0
  8 24  1  0  0  0  0
  8  4  1  0  0  0  0
  9  2  1  0  0  0  0
 10 15  2  0  0  0  0
 11  6  2  0  0  0  0
 12 10  1  0  0  0  0
 13 25  1  6  0  0  0
 13 20  1  0  0  0  0
 14 19  1  0  0  0  0
 14 21  1  0  0  0  0
 15  5  1  0  0  0  0
 15  3  1  0  0  0  0
 17  3  1  0  0  0  0
 18  3  1  6  0  0  0
 18 20  1  0  0  0  0
 21  8  2  0  0  0  0
 22 17  2  0  0  0  0
 24 23  1  0  0  0  0
 25 27  1  0  0  0  0
 27 26  2  0  0  0  0
 28 27  1  0  0  0  0
 29 28  1  0  0  0  0
 29 30  1  0  0  0  0
 31 30  1  0  0  0  0
 32 29  1  0  0  0  0
 33 32  1  0  0  0  0
 34 33  1  0  0  0  0
 35 33  1  0  0  0  0
 35 36  1  0  0  0  0
 36 40  1  0  0  0  0
 37 39  1  0  0  0  0
 39 38  1  0  0  0  0
 40 38  1  0  0  0  0
 41 37  1  0  0  0  0
 41 36  1  0  0  0  0
 42 25  1  0  0  0  0
 43 42  1  0  0  0  0
M  END
>  <MODEL>
8

>  <REMARK>
 VINA RESULT:      -7.0      3.246      7.653
  Name = 
  11 active torsions:
  status: ('A' for Active; 'I' for Inactive)
    1  A    between atoms: C_2  and  C_6
    2  A    between atoms: C_2  and  O_12
    3  A    between atoms: C_2  and  C_27
    4  A    between atoms: N_4  and  C_7
    5  A    between atoms: N_4  and  C_10
    6  A    between atoms: N_4  and  C_15
    7  A    between atoms: C_6  and  C_7
    8  A    between atoms: C_11  and  C_14
    9  A    between atoms: C_14  and  C_22
   10  A    between atoms: C_15  and  C_22
   11  A    between atoms: C_19  and  C_37
                            x       y       z     vdW  Elec       q    Type
                         _______ _______ _______ _____ _____    ______ ____

>  <TORSDO>
F 11

$$$$
=
 OpenBabel11052421213D

 43 48  0  0  1  0  0  0  0  0999 V2000
  195.2250  173.5710  143.4600 C   0  0  1  0  0  0  0  0  0  0  0  0
  189.5880  176.3500  146.5630 C   0  0  0  0  0  0  0  0  0  0  0  0
  194.1480  174.4440  145.5370 N   0  0  0  0  0  0  0  0  0  0  0  0
  196.4450  173.8790  141.2800 C   0  0  0  0  0  2  0  0  0  0  0  0
  192.6110  172.6370  144.8540 N   0  0  0  0  0  2  0  0  0  0  0  0
  191.9980  175.9990  146.4080 C   0  0  0  0  0  0  0  0  0  0  0  0
  189.2970  175.1400  146.0730 C   0  0  0  0  0  3  0  0  0  0  0  0
  196.1710  175.3180  140.9550 C   0  0  0  0  0  0  0  0  0  0  0  0
  188.4830  177.2780  146.9050 C   0  0  0  0  0  1  0  0  0  0  0  0
  191.7550  174.6570  145.8240 C   0  0  0  0  0  0  0  0  0  0  0  0
  190.9800  176.7870  146.7480 C   0  0  0  0  0  3  0  0  0  0  0  0
  190.3470  174.1280  145.7040 C   0  0  0  0  0  2  0  0  0  0  0  0
  193.7300  171.7190  144.7230 C   0  0  2  0  0  3  0  0  0  0  0  0
  194.1020  175.5870  142.4700 C   0  0  0  0  0  2  0  0  0  0  0  0
  192.8060  173.9160  145.4410 C   0  0  0  0  0  0  0  0  0  0  0  0
  196.5850  173.6640  142.7790 C   0  0  0  0  0  2  0  0  0  0  0  0
  194.3860  175.7140  146.1620 C   0  0  0  0  0  3  0  0  0  0  0  0
  195.3250  173.7550  144.9830 C   0  0  1  0  0  3  0  0  0  0  0  0
  193.9880  174.0850  142.7050 C   0  0  0  0  0  2  0  0  0  0  0  0
  195.0970  172.3540  144.3760 C   0  0  2  0  0  3  0  0  0  0  0  0
  195.1300  176.0210  141.4470 C   0  0  0  0  0  3  0  0  0  0  0  0
  193.3740  176.4700  146.5830 C   0  0  0  0  0  3  0  0  0  0  0  0
  196.9490  175.5330  138.7390 F   0  0  0  0  0  0  0  0  0  0  0  0
  197.1130  176.0040  140.0250 C   0  0  0  0  0  2  0  0  0  0  0  0
  193.3670  170.4700  143.9090 C   0  0  1  0  0  3  0  0  0  0  0  0
  194.6890  169.9700  142.0360 O   0  0  0  0  0  0  0  0  0  0  0  0
  193.7130  170.5710  142.4540 C   0  0  0  0  0  0  0  0  0  0  0  0
  192.8890  171.3950  141.5100 C   0  0  0  0  0  2  0  0  0  0  0  0
  191.4890  170.9850  141.5510 N   0  0  0  0  0  0  0  0  0  0  0  0
  191.3950  169.6700  140.9390 C   0  0  0  0  0  2  0  0  0  0  0  0
  190.7670  169.7850  139.5660 C   0  0  0  0  0  1  0  0  0  0  0  0
  190.6290  171.9380  140.8370 C   0  0  0  0  0  2  0  0  0  0  0  0
  189.7000  172.7560  141.7360 C   0  0  1  0  0  3  0  0  0  0  0  0
  189.3390  171.9200  142.9480 C   0  0  0  0  0  1  0  0  0  0  0  0
  190.3960  174.0380  142.1830 C   0  0  0  0  0  2  0  0  0  0  0  0
  189.4040  175.1610  142.4340 C   0  0  2  0  0  3  0  0  0  0  0  0
  189.2170  177.5930  143.0410 C   0  0  0  0  0  2  0  0  0  0  0  0
  187.1250  176.4650  141.6550 S   0  0  0  0  0  0  0  0  0  0  0  0
  188.2600  177.8750  141.8910 C   0  0  0  0  0  2  0  0  0  0  0  0
  188.4720  175.3150  141.2410 C   0  0  0  0  0  2  0  0  0  0  0  0
  190.1670  176.4600  142.6740 C   0  0  0  0  0  2  0  0  0  0  0  0
  193.9070  169.3150  144.4730 O   0  0  0  0  0  0  0  0  0  0  0  0
  192.8570  168.3990  144.4990 C   0  0  0  0  0  1  0  0  0  0  0  0
  1 19  1  6  0  0  0
  1 20  1  0  0  0  0
  1 18  1  0  0  0  0
  2 11  1  0  0  0  0
  2  9  1  0  0  0  0
  3 17  1  0  0  0  0
  4 16  1  0  0  0  0
  5 15  1  0  0  0  0
  6 22  1  0  0  0  0
  6 11  2  0  0  0  0
  7  2  2  0  0  0  0
  8  4  1  0  0  0  0
  8 21  2  0  0  0  0
 10  6  1  0  0  0  0
 12 10  1  0  0  0  0
 12  7  1  0  0  0  0
 13 25  1  6  0  0  0
 13  5  1  0  0  0  0
 14 19  1  0  0  0  0
 15  3  1  0  0  0  0
 15 10  2  0  0  0  0
 16  1  1  0  0  0  0
 17 22  2  0  0  0  0
 18  3  1  1  0  0  0
 20 13  1  0  0  0  0
 20 18  1  0  0  0  0
 21 14  1  0  0  0  0
 23 24  1  0  0  0  0
 24  8  1  0  0  0  0
 25 42  1  0  0  0  0
 26 27  2  0  0  0  0
 27 25  1  0  0  0  0
 28 29  1  0  0  0  0
 28 27  1  0  0  0  0
 30 29  1  0  0  0  0
 31 30  1  0  0  0  0
 32 29  1  0  0  0  0
 32 33  1  0  0  0  0
 33 35  1  0  0  0  0
 33 34  1  0  0  0  0
 35 36  1  0  0  0  0
 36 41  1  0  0  0  0
 38 39  1  0  0  0  0
 39 37  1  0  0  0  0
 40 38  1  0  0  0  0
 40 36  1  0  0  0  0
 41 37  1  0  0  0  0
 42 43  1  0  0  0  0
M  END
>  <MODEL>
9

>  <REMARK>
 VINA RESULT:      -7.0      3.356      7.083
  Name = 
  11 active torsions:
  status: ('A' for Active; 'I' for Inactive)
    1  A    between atoms: C_2  and  C_6
    2  A    between atoms: C_2  and  O_12
    3  A    between atoms: C_2  and  C_27
    4  A    between atoms: N_4  and  C_7
    5  A    between atoms: N_4  and  C_10
    6  A    between atoms: N_4  and  C_15
    7  A    between atoms: C_6  and  C_7
    8  A    between atoms: C_11  and  C_14
    9  A    between atoms: C_14  and  C_22
   10  A    between atoms: C_15  and  C_22
   11  A    between atoms: C_19  and  C_37
                            x       y       z     vdW  Elec       q    Type
                         _______ _______ _______ _____ _____    ______ ____

>  <TORSDO>
F 11

$$$$
