=
 OpenBabel11052419113D

 32 38  0  0  1  0  0  0  0  0999 V2000
  189.3690  174.9140  144.5000 C   0  0  0  0  0  0  0  0  0  0  0  0
  187.6090  176.5880  144.1830 C   0  0  0  0  0  0  0  0  0  0  0  0
  190.2580  174.2530  145.3600 C   0  0  0  0  0  3  0  0  0  0  0  0
  188.5030  175.9030  145.0290 C   0  0  0  0  0  0  0  0  0  0  0  0
  186.7890  177.7520  144.7130 C   0  0  1  0  0  3  0  0  0  0  0  0
  185.8960  178.0190  139.7660 C   0  0  0  0  0  2  0  0  0  0  0  0
  187.5290  176.2360  142.8180 C   0  0  0  0  0  0  0  0  0  0  0  0
  184.3690  178.2430  141.7870 C   0  0  0  0  0  2  0  0  0  0  0  0
  185.6730  177.9750  142.5450 C   0  0  1  0  0  3  0  0  0  0  0  0
  188.5080  176.1700  146.4090 C   0  0  0  0  0  0  0  0  0  0  0  0
  185.4260  177.7900  144.0330 C   0  0  0  0  0  2  0  0  0  0  0  0
  187.5520  177.1230  146.9880 C   0  0  0  0  0  3  0  0  0  0  0  0
  189.3960  175.4940  147.2490 C   0  0  0  0  0  3  0  0  0  0  0  0
  188.3670  175.2360  142.3150 C   0  0  0  0  0  3  0  0  0  0  0  0
  189.3100  174.5950  143.1300 C   0  0  0  0  0  0  0  0  0  0  0  0
  186.4130  176.7700  141.9450 C   0  0  1  0  0  3  0  0  0  0  0  0
  186.7150  177.8360  146.2300 C   0  0  0  0  0  0  0  0  0  0  0  0
  190.2760  174.5450  146.7260 C   0  0  0  0  0  3  0  0  0  0  0  0
  184.4630  177.8950  140.2920 C   0  0  0  0  0  2  0  0  0  0  0  0
  186.8610  177.0790  140.5080 C   0  0  0  0  0  2  0  0  0  0  0  0
  191.5890  173.0900  140.6120 N   0  0  0  0  0  0  0  0  0  0  0  0
  192.0150  173.7770  139.4010 C   0  0  0  0  0  1  0  0  0  0  0  0
  190.3900  172.3290  140.2650 C   0  0  2  0  0  3  0  0  0  0  0  0
  190.2050  173.5370  142.5440 C   0  0  1  0  0  3  0  0  0  0  0  0
  189.2440  172.2750  141.6800 S   0  0  0  0  0  0  0  0  0  0  0  0
  191.2040  174.1200  141.5670 C   0  0  1  0  0  3  0  0  0  0  0  0
  192.4260  174.6070  142.3300 C   0  0  0  0  0  1  0  0  0  0  0  0
  189.9620  170.4810  138.6630 C   0  0  0  0  0  2  0  0  0  0  0  0
  190.7680  170.9070  139.8750 C   0  0  0  0  0  3  0  0  0  0  0  0
  191.4040  170.9070  138.4980 C   0  0  0  0  0  2  0  0  0  0  0  0
  185.8890  178.8020  146.8910 N   0  0  0  0  0  2  0  0  0  0  0  0
  184.5870  178.5060  147.4660 C   0  0  0  0  0  1  0  0  0  0  0  0
  1  4  1  0  0  0  0
  1  3  2  0  0  0  0
  2  5  1  0  0  0  0
  2  4  1  0  0  0  0
  3 18  1  0  0  0  0
  4 10  2  0  0  0  0
  5 11  1  6  0  0  0
  5 17  1  0  0  0  0
  6 19  1  0  0  0  0
  6 20  1  0  0  0  0
  7  2  2  0  0  0  0
  9  8  1  6  0  0  0
  9 11  1  0  0  0  0
 10 12  1  0  0  0  0
 10 13  1  0  0  0  0
 14  7  1  0  0  0  0
 14 15  2  0  0  0  0
 15  1  1  0  0  0  0
 16 20  1  6  0  0  0
 16  9  1  0  0  0  0
 16  7  1  0  0  0  0
 17 31  1  0  0  0  0
 17 12  2  0  0  0  0
 18 13  2  0  0  0  0
 19  8  1  0  0  0  0
 21 26  1  0  0  0  0
 22 21  1  0  0  0  0
 23 29  1  1  0  0  0
 23 21  1  0  0  0  0
 23 25  1  0  0  0  0
 24 15  1  6  0  0  0
 25 24  1  0  0  0  0
 26 27  1  1  0  0  0
 26 24  1  0  0  0  0
 28 29  1  0  0  0  0
 30 28  1  0  0  0  0
 30 29  1  0  0  0  0
 31 32  1  0  0  0  0
M  END
>  <MODEL>
1

>  <REMARK>
 VINA RESULT:      -8.2      0.000      0.000
  Name = 
  3 active torsions:
  status: ('A' for Active; 'I' for Inactive)
    1  A    between atoms: N_13  and  C_29
    2  A    between atoms: C_15  and  C_19
    3  A    between atoms: C_16  and  C_27
                            x       y       z     vdW  Elec       q    Type
                         _______ _______ _______ _____ _____    ______ ____

>  <TORSDO>
F 3

$$$$
=
 OpenBabel11052419113D

 32 38  0  0  1  0  0  0  0  0999 V2000
  191.0480  175.8480  145.4920 C   0  0  0  0  0  0  0  0  0  0  0  0
  189.5580  175.4470  143.5910 C   0  0  0  0  0  0  0  0  0  0  0  0
  191.2640  176.4350  146.7490 C   0  0  0  0  0  3  0  0  0  0  0  0
  189.7940  176.0170  144.8570 C   0  0  0  0  0  0  0  0  0  0  0  0
  188.2730  175.7510  142.8380 C   0  0  1  0  0  3  0  0  0  0  0  0
  190.9700  173.3190  139.3520 C   0  0  0  0  0  2  0  0  0  0  0  0
  190.5530  174.6460  142.9880 C   0  0  0  0  0  0  0  0  0  0  0  0
  188.5240  173.1620  140.0290 C   0  0  0  0  0  2  0  0  0  0  0  0
  188.9480  174.2320  141.0400 C   0  0  1  0  0  3  0  0  0  0  0  0
  188.7680  176.7220  145.5120 C   0  0  0  0  0  0  0  0  0  0  0  0
  187.8350  174.5360  142.0300 C   0  0  0  0  0  2  0  0  0  0  0  0
  187.4320  176.8260  144.9100 C   0  0  0  0  0  3  0  0  0  0  0  0
  189.0000  177.2910  146.7660 C   0  0  0  0  0  3  0  0  0  0  0  0
  191.7750  174.4610  143.6410 C   0  0  0  0  0  3  0  0  0  0  0  0
  192.0490  175.0790  144.8680 C   0  0  0  0  0  0  0  0  0  0  0  0
  190.2400  173.8190  141.7590 C   0  0  1  0  0  3  0  0  0  0  0  0
  187.1650  176.3470  143.6920 C   0  0  0  0  0  0  0  0  0  0  0  0
  190.2480  177.1570  147.3790 C   0  0  0  0  0  3  0  0  0  0  0  0
  189.7190  172.4360  139.3900 C   0  0  0  0  0  2  0  0  0  0  0  0
  191.4080  173.7500  140.7620 C   0  0  0  0  0  2  0  0  0  0  0  0
  195.7570  174.9510  145.0630 N   0  0  0  0  0  0  0  0  0  0  0  0
  196.6320  175.2910  143.9500 C   0  0  0  0  0  1  0  0  0  0  0  0
  195.5180  173.5110  144.9860 C   0  0  2  0  0  3  0  0  0  0  0  0
  193.3850  174.8680  145.5280 C   0  0  1  0  0  3  0  0  0  0  0  0
  193.8320  173.1180  145.5510 S   0  0  0  0  0  0  0  0  0  0  0  0
  194.4890  175.6270  144.8230 C   0  0  1  0  0  3  0  0  0  0  0  0
  194.5460  177.0480  145.3630 C   0  0  0  0  0  1  0  0  0  0  0  0
  196.4090  171.2770  145.6020 C   0  0  0  0  0  2  0  0  0  0  0  0
  196.5210  172.7680  145.8570 C   0  0  0  0  0  3  0  0  0  0  0  0
  197.5390  172.0660  144.9790 C   0  0  0  0  0  2  0  0  0  0  0  0
  185.8540  176.5840  143.1650 N   0  0  0  0  0  2  0  0  0  0  0  0
  185.5600  177.5360  142.1070 C   0  0  0  0  0  1  0  0  0  0  0  0
  1  3  2  0  0  0  0
  2  4  1  0  0  0  0
  3 18  1  0  0  0  0
  4  1  1  0  0  0  0
  4 10  2  0  0  0  0
  5 11  1  1  0  0  0
  5  2  1  0  0  0  0
  5 17  1  0  0  0  0
  6 19  1  0  0  0  0
  6 20  1  0  0  0  0
  7  2  2  0  0  0  0
  7 14  1  0  0  0  0
  9  8  1  6  0  0  0
  9 16  1  0  0  0  0
  9 11  1  0  0  0  0
 10 13  1  0  0  0  0
 12 10  1  0  0  0  0
 13 18  2  0  0  0  0
 14 15  2  0  0  0  0
 15  1  1  0  0  0  0
 16 20  1  6  0  0  0
 16  7  1  0  0  0  0
 17 12  2  0  0  0  0
 19  8  1  0  0  0  0
 22 21  1  0  0  0  0
 23 21  1  0  0  0  0
 23 25  1  0  0  0  0
 23 29  1  1  0  0  0
 24 15  1  6  0  0  0
 24 25  1  0  0  0  0
 26 21  1  0  0  0  0
 26 27  1  1  0  0  0
 26 24  1  0  0  0  0
 28 29  1  0  0  0  0
 30 28  1  0  0  0  0
 30 29  1  0  0  0  0
 31 17  1  0  0  0  0
 32 31  1  0  0  0  0
M  END
>  <MODEL>
2

>  <REMARK>
 VINA RESULT:      -8.1      3.184      5.229
  Name = 
  3 active torsions:
  status: ('A' for Active; 'I' for Inactive)
    1  A    between atoms: N_13  and  C_29
    2  A    between atoms: C_15  and  C_19
    3  A    between atoms: C_16  and  C_27
                            x       y       z     vdW  Elec       q    Type
                         _______ _______ _______ _____ _____    ______ ____

>  <TORSDO>
F 3

$$$$
=
 OpenBabel11052419113D

 32 38  0  0  1  0  0  0  0  0999 V2000
  187.3850  176.8860  141.5050 C   0  0  0  0  0  0  0  0  0  0  0  0
  185.6670  177.5790  143.1080 C   0  0  0  0  0  0  0  0  0  0  0  0
  187.7730  176.6800  140.1730 C   0  0  0  0  0  3  0  0  0  0  0  0
  186.0830  177.3750  141.7780 C   0  0  1  0  0  3  0  0  0  0  0  0
  184.2270  177.9550  143.4140 C   0  0  0  0  0  0  0  0  0  0  0  0
  186.0600  177.0350  148.0110 C   0  0  0  0  0  2  0  0  0  0  0  0
  186.5770  177.3620  144.1660 C   0  0  0  0  0  0  0  0  0  0  0  0
  184.5560  178.8800  147.1140 C   0  0  0  0  0  2  0  0  0  0  0  0
  184.7600  178.1240  145.7980 C   0  0  1  0  0  3  0  0  0  0  0  0
  185.2200  177.6950  140.7160 C   0  0  0  0  0  0  0  0  0  0  0  0
  184.1700  178.8830  144.6220 C   0  0  0  0  0  2  0  0  0  0  0  0
  183.9030  178.2910  140.9770 C   0  0  0  0  0  3  0  0  0  0  0  0
  185.6290  177.4900  139.3960 C   0  0  0  0  0  3  0  0  0  0  0  0
  187.8700  176.9110  143.8810 C   0  0  0  0  0  3  0  0  0  0  0  0
  188.2740  176.6370  142.5680 C   0  0  0  0  0  0  0  0  0  0  0  0
  186.2470  177.8120  145.5740 C   0  0  1  0  0  3  0  0  0  0  0  0
  183.4380  178.4630  142.2170 C   0  0  0  0  0  0  0  0  0  0  0  0
  186.8980  176.9750  139.1240 C   0  0  0  0  0  3  0  0  0  0  0  0
  185.5670  178.4730  148.2010 C   0  0  0  0  0  2  0  0  0  0  0  0
  186.7590  176.8450  146.6550 C   0  0  0  0  0  2  0  0  0  0  0  0
  191.2630  174.4920  143.0870 N   0  0  0  0  0  0  0  0  0  0  0  0
  191.3210  173.4200  144.0700 C   0  0  0  0  0  1  0  0  0  0  0  0
  191.7720  175.6940  143.7450 C   0  0  2  0  0  3  0  0  0  0  0  0
  189.6680  176.1350  142.3070 C   0  0  1  0  0  3  0  0  0  0  0  0
  190.8990  177.1700  143.1290 S   0  0  0  0  0  0  0  0  0  0  0  0
  189.8550  174.7100  142.7850 C   0  0  1  0  0  3  0  0  0  0  0  0
  189.4000  173.7510  141.6970 C   0  0  0  0  0  1  0  0  0  0  0  0
  193.9400  176.4580  144.6840 C   0  0  0  0  0  2  0  0  0  0  0  0
  193.2620  175.8470  143.4720 C   0  0  0  0  0  3  0  0  0  0  0  0
  194.0490  174.9720  144.4290 C   0  0  0  0  0  2  0  0  0  0  0  0
  182.1040  178.9680  142.3550 N   0  0  0  0  0  2  0  0  0  0  0  0
  181.0240  178.6840  141.4250 C   0  0  0  0  0  1  0  0  0  0  0  0
  1  4  1  0  0  0  0
  1 15  2  0  0  0  0
  2  5  2  0  0  0  0
  2  7  1  0  0  0  0
  3  1  1  0  0  0  0
  4 10  1  6  0  0  0
  4  2  1  0  0  0  0
  5 11  1  0  0  0  0
  6 19  1  0  0  0  0
  7 16  1  0  0  0  0
  8 19  1  0  0  0  0
  9 11  1  6  0  0  0
  9  8  1  0  0  0  0
 10 12  1  0  0  0  0
 12 17  2  0  0  0  0
 13 10  2  0  0  0  0
 14  7  2  0  0  0  0
 15 14  1  0  0  0  0
 16  9  1  0  0  0  0
 16 20  1  1  0  0  0
 17 31  1  0  0  0  0
 17  5  1  0  0  0  0
 18 13  1  0  0  0  0
 18  3  2  0  0  0  0
 20  6  1  0  0  0  0
 21 23  1  0  0  0  0
 21 22  1  0  0  0  0
 23 29  1  6  0  0  0
 24 15  1  1  0  0  0
 24 26  1  0  0  0  0
 24 25  1  0  0  0  0
 25 23  1  0  0  0  0
 26 27  1  6  0  0  0
 26 21  1  0  0  0  0
 29 30  1  0  0  0  0
 29 28  1  0  0  0  0
 30 28  1  0  0  0  0
 32 31  1  0  0  0  0
M  END
>  <MODEL>
3

>  <REMARK>
 VINA RESULT:      -7.7      2.473      5.564
  Name = 
  3 active torsions:
  status: ('A' for Active; 'I' for Inactive)
    1  A    between atoms: N_13  and  C_29
    2  A    between atoms: C_15  and  C_19
    3  A    between atoms: C_16  and  C_27
                            x       y       z     vdW  Elec       q    Type
                         _______ _______ _______ _____ _____    ______ ____

>  <TORSDO>
F 3

$$$$
=
 OpenBabel11052419113D

 32 38  0  0  1  0  0  0  0  0999 V2000
  189.2600  175.3050  144.4680 C   0  0  0  0  0  0  0  0  0  0  0  0
  187.3370  176.8210  144.4310 C   0  0  0  0  0  0  0  0  0  0  0  0
  190.2790  174.6730  145.1960 C   0  0  0  0  0  3  0  0  0  0  0  0
  188.3610  176.1680  145.1420 C   0  0  0  0  0  0  0  0  0  0  0  0
  186.4680  177.8630  145.1160 C   0  0  1  0  0  3  0  0  0  0  0  0
  185.1080  178.3830  140.2980 C   0  0  0  0  0  2  0  0  0  0  0  0
  187.1640  176.5580  143.0540 C   0  0  0  0  0  0  0  0  0  0  0  0
  183.7580  178.3220  142.4520 C   0  0  0  0  0  2  0  0  0  0  0  0
  185.1440  178.1270  143.0730 C   0  0  1  0  0  3  0  0  0  0  0  0
  188.4690  176.3380  146.5340 C   0  0  0  0  0  0  0  0  0  0  0  0
  185.0510  177.8170  144.5580 C   0  0  0  0  0  2  0  0  0  0  0  0
  187.4890  177.1540  147.2640 C   0  0  0  0  0  3  0  0  0  0  0  0
  189.4860  175.6940  147.2420 C   0  0  0  0  0  3  0  0  0  0  0  0
  188.0380  175.6790  142.4070 C   0  0  0  0  0  3  0  0  0  0  0  0
  189.1040  175.0760  143.0870 C   0  0  0  0  0  0  0  0  0  0  0  0
  185.9300  177.0420  142.3230 C   0  0  1  0  0  3  0  0  0  0  0  0
  186.5260  177.8340  146.6360 C   0  0  0  0  0  0  0  0  0  0  0  0
  190.3950  174.8710  146.5740 C   0  0  0  0  0  3  0  0  0  0  0  0
  183.7450  178.0870  140.9310 C   0  0  0  0  0  2  0  0  0  0  0  0
  186.2160  177.4910  140.8800 C   0  0  0  0  0  2  0  0  0  0  0  0
  191.5080  172.2690  142.7070 N   0  0  0  0  0  0  0  0  0  0  0  0
  191.9160  171.4070  143.8070 C   0  0  0  0  0  1  0  0  0  0  0  0
  192.4770  173.3610  142.6470 C   0  0  2  0  0  3  0  0  0  0  0  0
  190.0330  174.1510  142.3480 C   0  0  1  0  0  3  0  0  0  0  0  0
  191.6600  174.9030  142.1230 S   0  0  0  0  0  0  0  0  0  0  0  0
  190.2170  172.8360  143.0750 C   0  0  1  0  0  3  0  0  0  0  0  0
  189.0980  171.8850  142.6820 C   0  0  0  0  0  1  0  0  0  0  0  0
  194.8340  173.8070  142.0070 C   0  0  0  0  0  2  0  0  0  0  0  0
  193.5840  173.0230  141.6570 C   0  0  0  0  0  3  0  0  0  0  0  0
  194.7300  172.3460  142.3840 C   0  0  0  0  0  2  0  0  0  0  0  0
  185.6820  178.6700  147.4370 N   0  0  0  0  0  2  0  0  0  0  0  0
  186.1430  179.8460  148.1550 C   0  0  0  0  0  1  0  0  0  0  0  0
  1  4  1  0  0  0  0
  1  3  2  0  0  0  0
  2  5  1  0  0  0  0
  2  4  1  0  0  0  0
  3 18  1  0  0  0  0
  4 10  2  0  0  0  0
  5 11  1  1  0  0  0
  5 17  1  0  0  0  0
  6 20  1  0  0  0  0
  6 19  1  0  0  0  0
  7  2  2  0  0  0  0
  9  8  1  6  0  0  0
  9 11  1  0  0  0  0
 10 13  1  0  0  0  0
 10 12  1  0  0  0  0
 14  7  1  0  0  0  0
 14 15  2  0  0  0  0
 15  1  1  0  0  0  0
 16 20  1  6  0  0  0
 16  7  1  0  0  0  0
 16  9  1  0  0  0  0
 17 12  2  0  0  0  0
 17 31  1  0  0  0  0
 18 13  2  0  0  0  0
 19  8  1  0  0  0  0
 21 26  1  0  0  0  0
 21 22  1  0  0  0  0
 23 29  1  6  0  0  0
 23 21  1  0  0  0  0
 24 26  1  0  0  0  0
 24 15  1  1  0  0  0
 25 24  1  0  0  0  0
 25 23  1  0  0  0  0
 26 27  1  6  0  0  0
 28 30  1  0  0  0  0
 29 28  1  0  0  0  0
 29 30  1  0  0  0  0
 31 32  1  0  0  0  0
M  END
>  <MODEL>
4

>  <REMARK>
 VINA RESULT:      -7.4      1.765      2.373
  Name = 
  3 active torsions:
  status: ('A' for Active; 'I' for Inactive)
    1  A    between atoms: N_13  and  C_29
    2  A    between atoms: C_15  and  C_19
    3  A    between atoms: C_16  and  C_27
                            x       y       z     vdW  Elec       q    Type
                         _______ _______ _______ _____ _____    ______ ____

>  <TORSDO>
F 3

$$$$
=
 OpenBabel11052419113D

 32 38  0  0  1  0  0  0  0  0999 V2000
  189.1430  174.7870  143.0130 C   0  0  0  0  0  0  0  0  0  0  0  0
  187.4010  176.4560  143.4340 C   0  0  0  0  0  0  0  0  0  0  0  0
  189.8470  173.9870  142.1000 C   0  0  0  0  0  3  0  0  0  0  0  0
  188.1280  175.6520  142.5350 C   0  0  1  0  0  3  0  0  0  0  0  0
  186.2120  177.2690  142.9490 C   0  0  0  0  0  0  0  0  0  0  0  0
  185.8580  177.7890  147.9430 C   0  0  0  0  0  2  0  0  0  0  0  0
  187.7350  176.4490  144.8060 C   0  0  0  0  0  0  0  0  0  0  0  0
  185.5980  179.4500  146.0350 C   0  0  0  0  0  2  0  0  0  0  0  0
  185.9240  178.2150  145.1890 C   0  0  1  0  0  3  0  0  0  0  0  0
  187.8760  175.7380  141.1540 C   0  0  0  0  0  0  0  0  0  0  0  0
  186.1160  178.5770  143.7260 C   0  0  0  0  0  2  0  0  0  0  0  0
  186.8940  176.6970  140.6330 C   0  0  0  0  0  3  0  0  0  0  0  0
  188.5940  174.9390  140.2610 C   0  0  0  0  0  3  0  0  0  0  0  0
  188.7610  175.6140  145.2600 C   0  0  0  0  0  3  0  0  0  0  0  0
  189.4450  174.7580  144.3880 C   0  0  0  0  0  0  0  0  0  0  0  0
  187.1500  177.4790  145.7500 C   0  0  1  0  0  3  0  0  0  0  0  0
  186.1420  177.4500  141.4400 C   0  0  0  0  0  0  0  0  0  0  0  0
  189.5700  174.0590  140.7330 C   0  0  0  0  0  3  0  0  0  0  0  0
  185.9340  179.2600  147.5240 C   0  0  0  0  0  2  0  0  0  0  0  0
  186.8420  176.9160  147.1470 C   0  0  0  0  0  2  0  0  0  0  0  0
  192.8360  173.2460  144.5330 N   0  0  0  0  0  0  0  0  0  0  0  0
  193.9210  173.6210  143.6380 C   0  0  0  0  0  1  0  0  0  0  0  0
  192.1480  172.1170  143.9110 C   0  0  2  0  0  3  0  0  0  0  0  0
  190.5300  173.8620  144.9220 C   0  0  1  0  0  3  0  0  0  0  0  0
  190.3650  172.1830  144.2770 S   0  0  0  0  0  0  0  0  0  0  0  0
  191.9100  174.3710  144.5650 C   0  0  1  0  0  3  0  0  0  0  0  0
  192.3560  175.3850  145.6060 C   0  0  0  0  0  1  0  0  0  0  0  0
  192.5680  169.7270  143.3810 C   0  0  0  0  0  2  0  0  0  0  0  0
  192.7160  170.8060  144.4370 C   0  0  0  0  0  3  0  0  0  0  0  0
  193.9090  170.3920  143.5970 C   0  0  0  0  0  2  0  0  0  0  0  0
  185.1520  178.2860  140.8280 N   0  0  0  0  0  2  0  0  0  0  0  0
  183.7200  178.1280  141.0200 C   0  0  0  0  0  1  0  0  0  0  0  0
  1 15  2  0  0  0  0
  2  7  1  0  0  0  0
  3  1  1  0  0  0  0
  4 10  1  6  0  0  0
  4  1  1  0  0  0  0
  4  2  1  0  0  0  0
  5  2  2  0  0  0  0
  5 11  1  0  0  0  0
  7 14  2  0  0  0  0
  7 16  1  0  0  0  0
  8 19  1  0  0  0  0
  9 11  1  6  0  0  0
  9 16  1  0  0  0  0
  9  8  1  0  0  0  0
 12 10  1  0  0  0  0
 12 17  2  0  0  0  0
 13 18  1  0  0  0  0
 13 10  2  0  0  0  0
 15 14  1  0  0  0  0
 16 20  1  1  0  0  0
 17  5  1  0  0  0  0
 18  3  2  0  0  0  0
 19  6  1  0  0  0  0
 20  6  1  0  0  0  0
 21 26  1  0  0  0  0
 22 21  1  0  0  0  0
 23 25  1  0  0  0  0
 23 29  1  1  0  0  0
 23 21  1  0  0  0  0
 24 15  1  6  0  0  0
 25 24  1  0  0  0  0
 26 24  1  0  0  0  0
 26 27  1  1  0  0  0
 28 30  1  0  0  0  0
 28 29  1  0  0  0  0
 30 29  1  0  0  0  0
 31 32  1  0  0  0  0
 31 17  1  0  0  0  0
M  END
>  <MODEL>
5

>  <REMARK>
 VINA RESULT:      -7.4      2.285      4.631
  Name = 
  3 active torsions:
  status: ('A' for Active; 'I' for Inactive)
    1  A    between atoms: N_13  and  C_29
    2  A    between atoms: C_15  and  C_19
    3  A    between atoms: C_16  and  C_27
                            x       y       z     vdW  Elec       q    Type
                         _______ _______ _______ _____ _____    ______ ____

>  <TORSDO>
F 3

$$$$
=
 OpenBabel11052419113D

 32 38  0  0  1  0  0  0  0  0999 V2000
  192.3200  174.0390  143.4370 C   0  0  0  0  0  0  0  0  0  0  0  0
  190.6140  175.4960  144.4210 C   0  0  0  0  0  0  0  0  0  0  0  0
  193.5700  173.4100  143.5410 C   0  0  0  0  0  3  0  0  0  0  0  0
  191.8610  174.8460  144.5070 C   0  0  1  0  0  3  0  0  0  0  0  0
  190.1850  176.4820  145.4950 C   0  0  0  0  0  0  0  0  0  0  0  0
  186.6360  177.1540  141.9900 C   0  0  0  0  0  2  0  0  0  0  0  0
  189.7910  175.2830  143.2930 C   0  0  0  0  0  0  0  0  0  0  0  0
  186.5140  176.9640  144.5230 C   0  0  0  0  0  2  0  0  0  0  0  0
  188.0280  176.7880  144.3760 C   0  0  1  0  0  3  0  0  0  0  0  0
  192.6350  174.9640  145.6750 C   0  0  0  0  0  0  0  0  0  0  0  0
  188.6770  176.4150  145.6990 C   0  0  0  0  0  2  0  0  0  0  0  0
  192.1320  175.7190  146.8300 C   0  0  0  0  0  3  0  0  0  0  0  0
  193.8730  174.3230  145.7620 C   0  0  0  0  0  3  0  0  0  0  0  0
  190.2420  174.4580  142.2580 C   0  0  0  0  0  3  0  0  0  0  0  0
  191.5100  173.8620  142.2990 C   0  0  0  0  0  0  0  0  0  0  0  0
  188.3540  175.7580  143.2840 C   0  0  1  0  0  3  0  0  0  0  0  0
  190.9810  176.3940  146.7880 C   0  0  0  0  0  0  0  0  0  0  0  0
  194.3440  173.5560  144.6940 C   0  0  0  0  0  3  0  0  0  0  0  0
  185.7600  176.7910  143.1930 C   0  0  0  0  0  2  0  0  0  0  0  0
  187.8940  176.2730  141.9100 C   0  0  0  0  0  2  0  0  0  0  0  0
  191.9570  172.9010  138.7380 N   0  0  0  0  0  0  0  0  0  0  0  0
  191.5200  173.7270  137.6220 C   0  0  0  0  0  1  0  0  0  0  0  0
  190.8540  171.9920  139.0460 C   0  0  2  0  0  3  0  0  0  0  0  0
  191.9630  172.9960  141.1550 C   0  0  1  0  0  3  0  0  0  0  0  0
  190.7850  171.6650  140.8370 S   0  0  0  0  0  0  0  0  0  0  0  0
  192.1330  173.7920  139.8770 C   0  0  1  0  0  3  0  0  0  0  0  0
  193.5230  174.4060  139.8490 C   0  0  0  0  0  1  0  0  0  0  0  0
  189.6910  170.0200  138.0850 C   0  0  0  0  0  2  0  0  0  0  0  0
  191.0410  170.6750  138.3060 C   0  0  0  0  0  3  0  0  0  0  0  0
  190.3700  170.7510  136.9480 C   0  0  0  0  0  2  0  0  0  0  0  0
  190.6310  177.1700  147.9410 N   0  0  0  0  0  2  0  0  0  0  0  0
  191.5660  177.5410  148.9890 C   0  0  0  0  0  1  0  0  0  0  0  0
  1  3  2  0  0  0  0
  2  4  1  0  0  0  0
  2  5  1  0  0  0  0
  3 18  1  0  0  0  0
  4  1  1  1  0  0  0
  4 10  1  0  0  0  0
  5 11  1  0  0  0  0
  5 17  2  0  0  0  0
  6 19  1  0  0  0  0
  7  2  2  0  0  0  0
  9  8  1  1  0  0  0
  9 11  1  0  0  0  0
 10 13  1  0  0  0  0
 10 12  2  0  0  0  0
 14 15  2  0  0  0  0
 14  7  1  0  0  0  0
 15  1  1  0  0  0  0
 16 20  1  6  0  0  0
 16  7  1  0  0  0  0
 16  9  1  0  0  0  0
 17 12  1  0  0  0  0
 17 31  1  0  0  0  0
 18 13  2  0  0  0  0
 19  8  1  0  0  0  0
 20  6  1  0  0  0  0
 21 23  1  0  0  0  0
 21 26  1  0  0  0  0
 22 21  1  0  0  0  0
 23 29  1  6  0  0  0
 23 25  1  0  0  0  0
 24 15  1  1  0  0  0
 25 24  1  0  0  0  0
 26 27  1  1  0  0  0
 26 24  1  0  0  0  0
 28 29  1  0  0  0  0
 30 28  1  0  0  0  0
 30 29  1  0  0  0  0
 31 32  1  0  0  0  0
M  END
>  <MODEL>
6

>  <REMARK>
 VINA RESULT:      -7.1      1.941      3.389
  Name = 
  3 active torsions:
  status: ('A' for Active; 'I' for Inactive)
    1  A    between atoms: N_13  and  C_29
    2  A    between atoms: C_15  and  C_19
    3  A    between atoms: C_16  and  C_27
                            x       y       z     vdW  Elec       q    Type
                         _______ _______ _______ _____ _____    ______ ____

>  <TORSDO>
F 3

$$$$
=
 OpenBabel11052419113D

 32 38  0  0  1  0  0  0  0  0999 V2000
  191.1400  175.8210  145.1260 C   0  0  0  0  0  0  0  0  0  0  0  0
  191.5870  174.3170  143.2460 C   0  0  0  0  0  0  0  0  0  0  0  0
  191.5750  176.4170  146.3200 C   0  0  0  0  0  3  0  0  0  0  0  0
  192.0060  174.9350  144.4400 C   0  0  0  0  0  0  0  0  0  0  0  0
  192.4480  173.2520  142.5880 C   0  0  1  0  0  3  0  0  0  0  0  0
  188.1910  172.9410  139.9190 C   0  0  0  0  0  2  0  0  0  0  0  0
  190.3260  174.6390  142.6980 C   0  0  0  0  0  0  0  0  0  0  0  0
  190.6390  172.9190  139.2300 C   0  0  0  0  0  2  0  0  0  0  0  0
  190.8520  173.0800  140.7380 C   0  0  1  0  0  3  0  0  0  0  0  0
  193.3030  174.7060  144.9310 C   0  0  0  0  0  0  0  0  0  0  0  0
  192.3140  173.3280  141.0720 C   0  0  0  0  0  2  0  0  0  0  0  0
  194.2470  173.8650  144.1830 C   0  0  0  0  0  3  0  0  0  0  0  0
  193.7200  175.3150  146.1170 C   0  0  0  0  0  3  0  0  0  0  0  0
  189.4930  175.5400  143.3690 C   0  0  0  0  0  3  0  0  0  0  0  0
  189.8690  176.1080  144.5930 C   0  0  0  0  0  0  0  0  0  0  0  0
  189.9530  174.1920  141.2990 C   0  0  1  0  0  3  0  0  0  0  0  0
  193.8900  173.2160  143.0720 C   0  0  0  0  0  0  0  0  0  0  0  0
  192.8560  176.1600  146.8150 C   0  0  0  0  0  3  0  0  0  0  0  0
  189.1940  173.2170  138.7950 C   0  0  0  0  0  2  0  0  0  0  0  0
  188.4720  173.8030  141.1610 C   0  0  0  0  0  2  0  0  0  0  0  0
  186.6470  177.2420  146.0540 N   0  0  0  0  0  0  0  0  0  0  0  0
  185.4490  176.4160  146.0970 C   0  0  0  0  0  1  0  0  0  0  0  0
  186.5800  178.0170  144.8170 C   0  0  2  0  0  3  0  0  0  0  0  0
  188.9350  177.0590  145.2910 C   0  0  1  0  0  3  0  0  0  0  0  0
  188.2510  178.2680  144.1370 S   0  0  0  0  0  0  0  0  0  0  0  0
  187.7810  176.3340  145.9530 C   0  0  1  0  0  3  0  0  0  0  0  0
  188.2070  175.8730  147.3380 C   0  0  0  0  0  1  0  0  0  0  0  0
  185.1030  179.7830  143.8880 C   0  0  0  0  0  2  0  0  0  0  0  0
  185.9410  179.3730  145.0830 C   0  0  0  0  0  3  0  0  0  0  0  0
  184.4320  179.2280  145.1250 C   0  0  0  0  0  2  0  0  0  0  0  0
  194.8630  172.3520  142.4720 N   0  0  0  0  0  2  0  0  0  0  0  0
  196.0380  171.8450  143.1610 C   0  0  0  0  0  1  0  0  0  0  0  0
  1  3  2  0  0  0  0
  2  4  1  0  0  0  0
  3 18  1  0  0  0  0
  4 10  2  0  0  0  0
  4  1  1  0  0  0  0
  5 11  1  6  0  0  0
  5 17  1  0  0  0  0
  5  2  1  0  0  0  0
  6 20  1  0  0  0  0
  7  2  2  0  0  0  0
  7 14  1  0  0  0  0
  9  8  1  6  0  0  0
  9 11  1  0  0  0  0
  9 16  1  0  0  0  0
 10 13  1  0  0  0  0
 12 10  1  0  0  0  0
 13 18  2  0  0  0  0
 14 15  2  0  0  0  0
 15  1  1  0  0  0  0
 16 20  1  1  0  0  0
 16  7  1  0  0  0  0
 17 12  2  0  0  0  0
 19  8  1  0  0  0  0
 19  6  1  0  0  0  0
 21 22  1  0  0  0  0
 23 29  1  1  0  0  0
 23 21  1  0  0  0  0
 24 15  1  6  0  0  0
 24 26  1  0  0  0  0
 25 23  1  0  0  0  0
 25 24  1  0  0  0  0
 26 21  1  0  0  0  0
 26 27  1  1  0  0  0
 28 29  1  0  0  0  0
 28 30  1  0  0  0  0
 29 30  1  0  0  0  0
 31 17  1  0  0  0  0
 31 32  1  0  0  0  0
M  END
>  <MODEL>
7

>  <REMARK>
 VINA RESULT:      -7.0      2.481      7.448
  Name = 
  3 active torsions:
  status: ('A' for Active; 'I' for Inactive)
    1  A    between atoms: N_13  and  C_29
    2  A    between atoms: C_15  and  C_19
    3  A    between atoms: C_16  and  C_27
                            x       y       z     vdW  Elec       q    Type
                         _______ _______ _______ _____ _____    ______ ____

>  <TORSDO>
F 3

$$$$
=
 OpenBabel11052419113D

 32 38  0  0  1  0  0  0  0  0999 V2000
  188.6380  175.3060  141.9720 C   0  0  0  0  0  0  0  0  0  0  0  0
  186.9080  176.8770  142.7030 C   0  0  0  0  0  0  0  0  0  0  0  0
  189.2320  174.5650  140.9390 C   0  0  0  0  0  3  0  0  0  0  0  0
  187.5260  176.1330  141.6800 C   0  0  1  0  0  3  0  0  0  0  0  0
  185.6250  177.6450  142.4270 C   0  0  0  0  0  0  0  0  0  0  0  0
  186.0020  178.0140  147.4330 C   0  0  0  0  0  2  0  0  0  0  0  0
  187.4430  176.8500  144.0090 C   0  0  0  0  0  0  0  0  0  0  0  0
  185.3860  179.7110  145.6410 C   0  0  0  0  0  2  0  0  0  0  0  0
  185.6350  178.5160  144.7160 C   0  0  1  0  0  3  0  0  0  0  0  0
  187.0670  176.2430  140.3550 C   0  0  0  0  0  0  0  0  0  0  0  0
  185.5890  178.9250  143.2530 C   0  0  0  0  0  2  0  0  0  0  0  0
  185.9770  177.1680  140.0180 C   0  0  0  0  0  3  0  0  0  0  0  0
  187.6770  175.5040  139.3390 C   0  0  0  0  0  3  0  0  0  0  0  0
  188.5610  176.0540  144.2780 C   0  0  0  0  0  3  0  0  0  0  0  0
  189.1440  175.2550  143.2850 C   0  0  0  0  0  0  0  0  0  0  0  0
  186.9620  177.8250  145.0630 C   0  0  1  0  0  3  0  0  0  0  0  0
  185.3220  177.8610  140.9520 C   0  0  0  0  0  0  0  0  0  0  0  0
  188.7500  174.6590  139.6310 C   0  0  0  0  0  3  0  0  0  0  0  0
  185.9500  179.4980  147.0570 C   0  0  0  0  0  2  0  0  0  0  0  0
  186.8920  177.2110  146.4700 C   0  0  0  0  0  2  0  0  0  0  0  0
  191.9690  174.0350  145.3670 N   0  0  0  0  0  0  0  0  0  0  0  0
  192.2650  174.5460  146.6980 C   0  0  0  0  0  1  0  0  0  0  0  0
  192.7540  174.8320  144.4270 C   0  0  2  0  0  3  0  0  0  0  0  0
  190.3350  174.3990  143.6220 C   0  0  1  0  0  3  0  0  0  0  0  0
  191.8410  175.0480  142.8650 S   0  0  0  0  0  0  0  0  0  0  0  0
  190.5600  174.3070  145.1170 C   0  0  1  0  0  3  0  0  0  0  0  0
  189.7040  173.1870  145.6850 C   0  0  0  0  0  1  0  0  0  0  0  0
  195.2080  175.1530  144.2250 C   0  0  0  0  0  2  0  0  0  0  0  0
  194.0800  174.1430  144.1370 C   0  0  0  0  0  3  0  0  0  0  0  0
  194.9630  174.1950  145.3690 C   0  0  0  0  0  2  0  0  0  0  0  0
  184.2160  178.6640  140.5220 N   0  0  0  0  0  2  0  0  0  0  0  0
  182.8220  178.2850  140.6810 C   0  0  0  0  0  1  0  0  0  0  0  0
  1 15  2  0  0  0  0
  2  7  1  0  0  0  0
  3  1  1  0  0  0  0
  4 10  1  6  0  0  0
  4  1  1  0  0  0  0
  4  2  1  0  0  0  0
  5  2  2  0  0  0  0
  5 11  1  0  0  0  0
  7 14  2  0  0  0  0
  7 16  1  0  0  0  0
  8 19  1  0  0  0  0
  9 11  1  6  0  0  0
  9 16  1  0  0  0  0
  9  8  1  0  0  0  0
 12 10  1  0  0  0  0
 12 17  2  0  0  0  0
 13 18  1  0  0  0  0
 13 10  2  0  0  0  0
 15 14  1  0  0  0  0
 16 20  1  1  0  0  0
 17  5  1  0  0  0  0
 18  3  2  0  0  0  0
 19  6  1  0  0  0  0
 20  6  1  0  0  0  0
 21 22  1  0  0  0  0
 23 29  1  6  0  0  0
 23 21  1  0  0  0  0
 24 15  1  1  0  0  0
 24 26  1  0  0  0  0
 25 24  1  0  0  0  0
 25 23  1  0  0  0  0
 26 21  1  0  0  0  0
 26 27  1  6  0  0  0
 28 30  1  0  0  0  0
 29 28  1  0  0  0  0
 29 30  1  0  0  0  0
 31 32  1  0  0  0  0
 31 17  1  0  0  0  0
M  END
>  <MODEL>
8

>  <REMARK>
 VINA RESULT:      -6.9      2.489      5.351
  Name = 
  3 active torsions:
  status: ('A' for Active; 'I' for Inactive)
    1  A    between atoms: N_13  and  C_29
    2  A    between atoms: C_15  and  C_19
    3  A    between atoms: C_16  and  C_27
                            x       y       z     vdW  Elec       q    Type
                         _______ _______ _______ _____ _____    ______ ____

>  <TORSDO>
F 3

$$$$
=
 OpenBabel11052419113D

 32 38  0  0  1  0  0  0  0  0999 V2000
  193.3450  176.2390  144.1480 C   0  0  0  0  0  0  0  0  0  0  0  0
  193.4220  174.9660  142.0570 C   0  0  0  0  0  0  0  0  0  0  0  0
  194.0170  176.9910  145.1230 C   0  0  0  0  0  3  0  0  0  0  0  0
  194.0720  175.7330  143.0430 C   0  0  0  0  0  0  0  0  0  0  0  0
  194.2210  174.2930  140.9540 C   0  0  1  0  0  3  0  0  0  0  0  0
  189.6500  172.2930  140.2900 C   0  0  0  0  0  2  0  0  0  0  0  0
  192.0260  174.7620  142.1380 C   0  0  0  0  0  0  0  0  0  0  0  0
  191.3720  173.1910  138.6480 C   0  0  0  0  0  2  0  0  0  0  0  0
  192.1540  173.4670  139.9350 C   0  0  1  0  0  3  0  0  0  0  0  0
  195.4400  176.0330  142.9100 C   0  0  0  0  0  0  0  0  0  0  0  0
  193.4170  174.2660  139.6610 C   0  0  0  0  0  2  0  0  0  0  0  0
  196.1870  175.5960  141.7230 C   0  0  0  0  0  3  0  0  0  0  0  0
  196.0880  176.7910  143.8880 C   0  0  0  0  0  3  0  0  0  0  0  0
  191.3140  175.2950  143.2170 C   0  0  0  0  0  3  0  0  0  0  0  0
  191.9610  176.0000  144.2410 C   0  0  0  0  0  0  0  0  0  0  0  0
  191.2630  174.1660  140.9740 C   0  0  1  0  0  3  0  0  0  0  0  0
  195.6350  174.8270  140.7820 C   0  0  0  0  0  0  0  0  0  0  0  0
  195.3820  177.2610  144.9970 C   0  0  0  0  0  3  0  0  0  0  0  0
  189.8830  172.8990  138.9030 C   0  0  0  0  0  2  0  0  0  0  0  0
  190.1210  173.2340  141.4110 C   0  0  0  0  0  2  0  0  0  0  0  0
  189.5800  175.8450  147.0890 N   0  0  0  0  0  0  0  0  0  0  0  0
  188.9410  174.6160  147.5360 C   0  0  0  0  0  1  0  0  0  0  0  0
  188.6770  176.4590  146.1170 C   0  0  2  0  0  3  0  0  0  0  0  0
  191.1590  176.5400  145.3940 C   0  0  1  0  0  3  0  0  0  0  0  0
  189.6300  177.3140  144.8210 S   0  0  0  0  0  0  0  0  0  0  0  0
  190.7950  175.4560  146.3870 C   0  0  1  0  0  3  0  0  0  0  0  0
  191.9360  175.2790  147.3760 C   0  0  0  0  0  1  0  0  0  0  0  0
  186.5180  177.6770  145.9790 C   0  0  0  0  0  2  0  0  0  0  0  0
  187.7680  177.4640  146.8110 C   0  0  0  0  0  3  0  0  0  0  0  0
  186.4670  176.7910  147.2030 C   0  0  0  0  0  2  0  0  0  0  0  0
  196.4820  174.3850  139.7140 N   0  0  0  0  0  2  0  0  0  0  0  0
  197.3800  175.2540  138.9710 C   0  0  0  0  0  1  0  0  0  0  0  0
  1 15  1  0  0  0  0
  1  3  2  0  0  0  0
  2  7  2  0  0  0  0
  2  4  1  0  0  0  0
  4  1  1  0  0  0  0
  5 11  1  6  0  0  0
  5  2  1  0  0  0  0
  6 20  1  0  0  0  0
  7 14  1  0  0  0  0
  8 19  1  0  0  0  0
  9  8  1  6  0  0  0
  9 16  1  0  0  0  0
 10  4  2  0  0  0  0
 10 13  1  0  0  0  0
 11  9  1  0  0  0  0
 12 10  1  0  0  0  0
 13 18  2  0  0  0  0
 14 15  2  0  0  0  0
 16 20  1  1  0  0  0
 16  7  1  0  0  0  0
 17  5  1  0  0  0  0
 17 12  2  0  0  0  0
 18  3  1  0  0  0  0
 19  6  1  0  0  0  0
 21 22  1  0  0  0  0
 23 29  1  1  0  0  0
 23 21  1  0  0  0  0
 24 15  1  6  0  0  0
 24 26  1  0  0  0  0
 25 24  1  0  0  0  0
 25 23  1  0  0  0  0
 26 21  1  0  0  0  0
 26 27  1  1  0  0  0
 28 29  1  0  0  0  0
 28 30  1  0  0  0  0
 29 30  1  0  0  0  0
 31 17  1  0  0  0  0
 32 31  1  0  0  0  0
M  END
>  <MODEL>
9

>  <REMARK>
 VINA RESULT:      -6.9      3.118      8.095
  Name = 
  3 active torsions:
  status: ('A' for Active; 'I' for Inactive)
    1  A    between atoms: N_13  and  C_29
    2  A    between atoms: C_15  and  C_19
    3  A    between atoms: C_16  and  C_27
                            x       y       z     vdW  Elec       q    Type
                         _______ _______ _______ _____ _____    ______ ____

>  <TORSDO>
F 3

$$$$
