=
 OpenBabel11052417123D

 30 32  0  0  1  0  0  0  0  0999 V2000
  186.1610  178.5570  146.8120 C   0  0  0  0  0  0  0  0  0  0  0  0
  184.8190  178.8090  147.1000 C   0  0  0  0  0  3  0  0  0  0  0  0
  187.3310  178.7570  148.1090 Cl  0  0  0  0  0  0  0  0  0  0  0  0
  185.5580  178.0170  144.5070 C   0  0  0  0  0  0  0  0  0  0  0  0
  183.8490  178.6800  146.1090 C   0  0  0  0  0  3  0  0  0  0  0  0
  186.5490  178.1780  145.5100 C   0  0  0  0  0  0  0  0  0  0  0  0
  184.2170  178.2840  144.8250 C   0  0  0  0  0  3  0  0  0  0  0  0
  187.0200  177.5250  140.3550 N   0  0  0  0  0  0  0  0  0  0  0  0
  187.7180  176.5820  140.9100 C   0  0  0  0  0  3  0  0  0  0  0  0
  185.6300  177.8040  140.6810 C   0  0  0  0  0  2  0  0  0  0  0  0
  186.4450  176.1660  142.9940 C   0  0  0  0  0  3  0  0  0  0  0  0
  185.5020  178.2650  142.0930 C   0  0  0  0  0  3  0  0  0  0  0  0
  187.2280  175.7130  142.0050 C   0  0  0  0  0  0  0  0  0  0  0  0
  185.8720  177.5260  143.1440 C   0  0  0  0  0  0  0  0  0  0  0  0
  189.7670  174.7970  143.1990 O   0  0  0  0  0  0  0  0  0  0  0  0
  188.9430  173.9580  142.7480 C   0  0  0  0  0  0  0  0  0  0  0  0
  187.7160  174.3710  142.1330 N   0  0  0  0  0  2  0  0  0  0  0  0
  189.2550  172.5080  142.8420 C   0  0  0  0  0  1  0  0  0  0  0  0
  188.3030  177.9830  145.1290 S   0  0  0  0  0  0  0  0  0  0  0  0
  188.4290  176.5490  146.0660 O   0  0  0  0  0  0  0  0  0  0  0  0
  189.6170  176.6760  146.7880 C   0  0  0  0  0  2  0  0  0  0  0  0
  191.8130  175.2040  146.5690 C   0  0  1  0  0  3  0  0  0  0  0  0
  191.2930  175.2060  148.0030 C   0  0  0  0  0  2  0  0  0  0  0  0
  190.3210  175.3240  146.8540 C   0  0  1  0  0  0  0  0  0  0  0  0
  189.5210  174.0600  146.6040 C   0  0  0  0  0  1  0  0  0  0  0  0
  192.4870  176.5340  146.2510 C   0  0  2  0  0  3  0  0  0  0  0  0
  192.3500  176.8010  144.8870 O   0  0  0  0  0  1  0  0  0  0  0  0
  194.6910  177.3640  145.8280 O   0  0  0  0  0  1  0  0  0  0  0  0
  193.9660  176.4620  146.6090 C   0  0  2  0  0  3  0  0  0  0  0  0
  194.4500  175.1850  146.3920 F   0  0  0  0  0  0  0  0  0  0  0  0
  1  2  1  0  0  0  0
  1  3  1  0  0  0  0
  4  7  2  0  0  0  0
  4  6  1  0  0  0  0
  5  2  2  0  0  0  0
  6  1  2  0  0  0  0
  7  5  1  0  0  0  0
  8 10  1  0  0  0  0
  8  9  2  0  0  0  0
  9 13  1  0  0  0  0
 10 12  1  0  0  0  0
 11 14  1  0  0  0  0
 12 14  2  0  0  0  0
 13 17  1  0  0  0  0
 13 11  2  0  0  0  0
 14  4  1  0  0  0  0
 16 18  1  0  0  0  0
 16 15  2  0  0  0  0
 17 16  1  0  0  0  0
 19  6  1  0  0  0  0
 19 20  1  0  0  0  0
 20 21  1  0  0  0  0
 21 24  1  0  0  0  0
 22 26  1  1  0  0  0
 22 24  1  0  0  0  0
 22 23  1  0  0  0  0
 24 25  1  6  0  0  0
 24 23  1  0  0  0  0
 26 27  1  6  0  0  0
 26 29  1  0  0  0  0
 29 28  1  6  0  0  0
 30 29  1  0  0  0  0
M  END
>  <MODEL>
1

>  <REMARK>
 VINA RESULT:      -7.3      0.000      0.000
  Name = 
  8 active torsions:
  status: ('A' for Active; 'I' for Inactive)
    1  A    between atoms: O_1  and  C_4
    2  A    between atoms: O_1  and  S_5
    3  A    between atoms: C_4  and  C_27
    4  A    between atoms: S_5  and  C_22
    5  A    between atoms: C_8  and  C_12
    6  A    between atoms: C_9  and  C_12
    7  A    between atoms: N_16  and  C_25
    8  A    between atoms: C_19  and  C_29
                            x       y       z     vdW  Elec       q    Type
                         _______ _______ _______ _____ _____    ______ ____

>  <TORSDO>
F 8

$$$$
=
 OpenBabel11052417123D

 30 32  0  0  1  0  0  0  0  0999 V2000
  188.5640  173.6120  142.0990 C   0  0  0  0  0  0  0  0  0  0  0  0
  188.7170  172.2770  142.4760 C   0  0  0  0  0  3  0  0  0  0  0  0
  187.7320  173.9480  140.5880 Cl  0  0  0  0  0  0  0  0  0  0  0  0
  189.7360  174.3110  144.1250 C   0  0  0  0  0  0  0  0  0  0  0  0
  189.3800  171.9490  143.6560 C   0  0  0  0  0  3  0  0  0  0  0  0
  189.0890  174.6420  142.9080 C   0  0  0  0  0  0  0  0  0  0  0  0
  189.8810  172.9580  144.4750 C   0  0  0  0  0  3  0  0  0  0  0  0
  190.9470  176.6030  147.7170 N   0  0  0  0  0  0  0  0  0  0  0  0
  192.1210  176.4700  147.1770 C   0  0  0  0  0  3  0  0  0  0  0  0
  189.7360  176.8870  146.9640 C   0  0  0  0  0  2  0  0  0  0  0  0
  191.5430  175.9700  144.8210 C   0  0  0  0  0  3  0  0  0  0  0  0
  189.4080  175.7570  146.0470 C   0  0  0  0  0  3  0  0  0  0  0  0
  192.3790  176.5090  145.7190 C   0  0  0  0  0  0  0  0  0  0  0  0
  190.2260  175.3370  145.0760 C   0  0  0  0  0  0  0  0  0  0  0  0
  194.8270  174.9670  145.1360 O   0  0  0  0  0  0  0  0  0  0  0  0
  194.7970  176.2070  144.9200 C   0  0  0  0  0  0  0  0  0  0  0  0
  193.6350  176.9900  145.2230 N   0  0  0  0  0  2  0  0  0  0  0  0
  195.9960  176.8770  144.3540 C   0  0  0  0  0  1  0  0  0  0  0  0
  188.9910  176.3530  142.3370 S   0  0  0  0  0  0  0  0  0  0  0  0
  187.3940  176.5470  142.9390 O   0  0  0  0  0  0  0  0  0  0  0  0
  187.3030  177.8830  143.3330 C   0  0  0  0  0  2  0  0  0  0  0  0
  185.1900  178.4050  144.8500 C   0  0  1  0  0  3  0  0  0  0  0  0
  185.6310  179.6430  144.0760 C   0  0  0  0  0  2  0  0  0  0  0  0
  185.8350  178.2730  143.4760 C   0  0  1  0  0  0  0  0  0  0  0  0
  184.8720  177.9560  142.3480 C   0  0  0  0  0  1  0  0  0  0  0  0
  186.1470  178.1370  146.0060 C   0  0  2  0  0  3  0  0  0  0  0  0
  186.0970  176.7820  146.3370 O   0  0  0  0  0  1  0  0  0  0  0  0
  186.7010  178.8480  148.2220 O   0  0  0  0  0  1  0  0  0  0  0  0
  185.7420  178.9700  147.2160 C   0  0  2  0  0  3  0  0  0  0  0  0
  184.5190  178.5460  147.7020 F   0  0  0  0  0  0  0  0  0  0  0  0
  1  2  2  0  0  0  0
  1  6  1  0  0  0  0
  2  5  1  0  0  0  0
  3  1  1  0  0  0  0
  4  7  1  0  0  0  0
  4 14  1  0  0  0  0
  5  7  2  0  0  0  0
  6  4  2  0  0  0  0
  9  8  2  0  0  0  0
 10  8  1  0  0  0  0
 11 14  1  0  0  0  0
 11 13  2  0  0  0  0
 12 10  1  0  0  0  0
 13  9  1  0  0  0  0
 14 12  2  0  0  0  0
 16 15  2  0  0  0  0
 16 17  1  0  0  0  0
 17 13  1  0  0  0  0
 18 16  1  0  0  0  0
 19  6  1  0  0  0  0
 19 20  1  0  0  0  0
 20 21  1  0  0  0  0
 21 24  1  0  0  0  0
 22 26  1  1  0  0  0
 23 22  1  0  0  0  0
 24 25  1  6  0  0  0
 24 23  1  0  0  0  0
 24 22  1  0  0  0  0
 26 27  1  1  0  0  0
 26 29  1  0  0  0  0
 29 30  1  1  0  0  0
 29 28  1  0  0  0  0
M  END
>  <MODEL>
2

>  <REMARK>
 VINA RESULT:      -6.8      3.604      7.131
  Name = 
  8 active torsions:
  status: ('A' for Active; 'I' for Inactive)
    1  A    between atoms: O_1  and  C_4
    2  A    between atoms: O_1  and  S_5
    3  A    between atoms: C_4  and  C_27
    4  A    between atoms: S_5  and  C_22
    5  A    between atoms: C_8  and  C_12
    6  A    between atoms: C_9  and  C_12
    7  A    between atoms: N_16  and  C_25
    8  A    between atoms: C_19  and  C_29
                            x       y       z     vdW  Elec       q    Type
                         _______ _______ _______ _____ _____    ______ ____

>  <TORSDO>
F 8

$$$$
=
 OpenBabel11052417123D

 30 32  0  0  1  0  0  0  0  0999 V2000
  191.6880  176.4140  146.6930 C   0  0  0  0  0  0  0  0  0  0  0  0
  192.9150  176.7640  146.1270 C   0  0  0  0  0  3  0  0  0  0  0  0
  191.4510  176.7350  148.4040 Cl  0  0  0  0  0  0  0  0  0  0  0  0
  190.9330  175.5820  144.5230 C   0  0  0  0  0  0  0  0  0  0  0  0
  193.1640  176.5210  144.7790 C   0  0  0  0  0  3  0  0  0  0  0  0
  190.6910  175.8020  145.9030 C   0  0  0  0  0  0  0  0  0  0  0  0
  192.1800  175.9380  143.9840 C   0  0  0  0  0  3  0  0  0  0  0  0
  188.1960  174.7770  141.1350 N   0  0  0  0  0  0  0  0  0  0  0  0
  188.9130  173.6980  141.0550 C   0  0  0  0  0  3  0  0  0  0  0  0
  187.7560  175.3670  142.3890 C   0  0  0  0  0  2  0  0  0  0  0  0
  189.9100  173.5800  143.3190 C   0  0  0  0  0  3  0  0  0  0  0  0
  188.9230  175.8420  143.1860 C   0  0  0  0  0  3  0  0  0  0  0  0
  189.4490  172.9620  142.2230 C   0  0  0  0  0  0  0  0  0  0  0  0
  189.9030  175.0360  143.6080 C   0  0  0  0  0  0  0  0  0  0  0  0
  191.6710  171.4830  140.9660 O   0  0  0  0  0  0  0  0  0  0  0  0
  190.7550  170.8570  141.5610 C   0  0  0  0  0  0  0  0  0  0  0  0
  189.6450  171.5430  142.1530 N   0  0  0  0  0  2  0  0  0  0  0  0
  190.8160  169.3750  141.6370 C   0  0  0  0  0  1  0  0  0  0  0  0
  189.1620  175.2420  146.6850 S   0  0  0  0  0  0  0  0  0  0  0  0
  188.4300  176.7890  146.5440 O   0  0  0  0  0  0  0  0  0  0  0  0
  187.0600  176.5460  146.4300 C   0  0  0  0  0  2  0  0  0  0  0  0
  185.5650  178.6020  145.6730 C   0  0  1  0  0  3  0  0  0  0  0  0
  184.7920  177.6730  146.6040 C   0  0  0  0  0  2  0  0  0  0  0  0
  186.2870  177.8180  146.7620 C   0  0  1  0  0  0  0  0  0  0  0  0
  186.6920  178.6360  147.9730 C   0  0  0  0  0  1  0  0  0  0  0  0
  185.6830  177.9780  144.2870 C   0  0  2  0  0  3  0  0  0  0  0  0
  186.8100  178.4960  143.6460 O   0  0  0  0  0  1  0  0  0  0  0  0
  184.8050  178.6650  142.1690 O   0  0  0  0  0  1  0  0  0  0  0  0
  184.4400  178.3020  143.4670 C   0  0  2  0  0  3  0  0  0  0  0  0
  183.7410  179.3440  144.0480 F   0  0  0  0  0  0  0  0  0  0  0  0
  1  3  1  0  0  0  0
  2  1  1  0  0  0  0
  4  6  1  0  0  0  0
  5  2  2  0  0  0  0
  6 19  1  0  0  0  0
  6  1  2  0  0  0  0
  7  4  2  0  0  0  0
  7  5  1  0  0  0  0
  8 10  1  0  0  0  0
  9  8  2  0  0  0  0
  9 13  1  0  0  0  0
 10 12  1  0  0  0  0
 11 14  1  0  0  0  0
 12 14  2  0  0  0  0
 13 11  2  0  0  0  0
 14  4  1  0  0  0  0
 15 16  2  0  0  0  0
 16 18  1  0  0  0  0
 16 17  1  0  0  0  0
 17 13  1  0  0  0  0
 20 19  1  0  0  0  0
 21 20  1  0  0  0  0
 21 24  1  0  0  0  0
 22 26  1  6  0  0  0
 22 23  1  0  0  0  0
 22 24  1  0  0  0  0
 23 24  1  0  0  0  0
 24 25  1  1  0  0  0
 26 27  1  6  0  0  0
 29 28  1  6  0  0  0
 29 30  1  0  0  0  0
 29 26  1  0  0  0  0
M  END
>  <MODEL>
3

>  <REMARK>
 VINA RESULT:      -6.8      3.194      6.128
  Name = 
  8 active torsions:
  status: ('A' for Active; 'I' for Inactive)
    1  A    between atoms: O_1  and  C_4
    2  A    between atoms: O_1  and  S_5
    3  A    between atoms: C_4  and  C_27
    4  A    between atoms: S_5  and  C_22
    5  A    between atoms: C_8  and  C_12
    6  A    between atoms: C_9  and  C_12
    7  A    between atoms: N_16  and  C_25
    8  A    between atoms: C_19  and  C_29
                            x       y       z     vdW  Elec       q    Type
                         _______ _______ _______ _____ _____    ______ ____

>  <TORSDO>
F 8

$$$$
=
 OpenBabel11052417123D

 30 32  0  0  1  0  0  0  0  0999 V2000
  191.3470  173.1710  142.6450 C   0  0  0  0  0  0  0  0  0  0  0  0
  190.6780  171.9510  142.7510 C   0  0  0  0  0  3  0  0  0  0  0  0
  193.1030  173.1430  142.5950 Cl  0  0  0  0  0  0  0  0  0  0  0  0
  189.2010  174.3390  142.6320 C   0  0  0  0  0  0  0  0  0  0  0  0
  189.2870  171.9120  142.8080 C   0  0  0  0  0  3  0  0  0  0  0  0
  190.6180  174.3790  142.6050 C   0  0  0  0  0  0  0  0  0  0  0  0
  188.5560  173.0960  142.7450 C   0  0  0  0  0  3  0  0  0  0  0  0
  186.0150  177.2720  141.7020 N   0  0  0  0  0  0  0  0  0  0  0  0
  185.8990  177.2770  142.9950 C   0  0  0  0  0  3  0  0  0  0  0  0
  187.2880  177.2330  141.0010 C   0  0  0  0  0  2  0  0  0  0  0  0
  188.0930  176.3700  143.7040 C   0  0  0  0  0  3  0  0  0  0  0  0
  187.9990  175.9500  141.2700 C   0  0  0  0  0  3  0  0  0  0  0  0
  187.0380  177.1640  143.9360 C   0  0  0  0  0  0  0  0  0  0  0  0
  188.3640  175.5540  142.4950 C   0  0  0  0  0  0  0  0  0  0  0  0
  185.2660  176.5000  146.2000 O   0  0  0  0  0  0  0  0  0  0  0  0
  186.1190  177.4190  146.3160 C   0  0  0  0  0  0  0  0  0  0  0  0
  186.9720  177.7880  145.2240 N   0  0  0  0  0  2  0  0  0  0  0  0
  186.2340  178.1490  147.6050 C   0  0  0  0  0  1  0  0  0  0  0  0
  191.5090  175.9500  142.5970 S   0  0  0  0  0  0  0  0  0  0  0  0
  192.4130  175.5360  143.9970 O   0  0  0  0  0  0  0  0  0  0  0  0
  192.4800  176.7040  144.7580 C   0  0  0  0  0  2  0  0  0  0  0  0
  191.7400  175.9920  147.2040 C   0  0  1  0  0  3  0  0  0  0  0  0
  192.5810  174.9030  146.5460 C   0  0  0  0  0  2  0  0  0  0  0  0
  192.8290  176.3530  146.2010 C   0  0  1  0  0  0  0  0  0  0  0  0
  194.0980  176.9130  146.8140 C   0  0  0  0  0  1  0  0  0  0  0  0
  190.3340  176.0010  146.6140 C   0  0  2  0  0  3  0  0  0  0  0  0
  189.6960  177.1910  146.9700 O   0  0  0  0  0  1  0  0  0  0  0  0
  189.4520  173.8190  146.1840 O   0  0  0  0  0  1  0  0  0  0  0  0
  189.5400  174.8180  147.1540 C   0  0  2  0  0  3  0  0  0  0  0  0
  188.2640  175.2180  147.5080 F   0  0  0  0  0  0  0  0  0  0  0  0
  1  2  1  0  0  0  0
  2  5  2  0  0  0  0
  3  1  1  0  0  0  0
  4  7  2  0  0  0  0
  6  4  1  0  0  0  0
  6  1  2  0  0  0  0
  7  5  1  0  0  0  0
  8  9  2  0  0  0  0
  9 13  1  0  0  0  0
 10 12  1  0  0  0  0
 10  8  1  0  0  0  0
 11 13  2  0  0  0  0
 12 14  2  0  0  0  0
 13 17  1  0  0  0  0
 14  4  1  0  0  0  0
 14 11  1  0  0  0  0
 15 16  2  0  0  0  0
 16 18  1  0  0  0  0
 17 16  1  0  0  0  0
 19  6  1  0  0  0  0
 19 20  1  0  0  0  0
 20 21  1  0  0  0  0
 21 24  1  0  0  0  0
 22 26  1  6  0  0  0
 23 22  1  0  0  0  0
 24 23  1  0  0  0  0
 24 25  1  1  0  0  0
 24 22  1  0  0  0  0
 26 27  1  1  0  0  0
 26 29  1  0  0  0  0
 29 28  1  6  0  0  0
 29 30  1  0  0  0  0
M  END
>  <MODEL>
4

>  <REMARK>
 VINA RESULT:      -6.8      2.780      5.435
  Name = 
  8 active torsions:
  status: ('A' for Active; 'I' for Inactive)
    1  A    between atoms: O_1  and  C_4
    2  A    between atoms: O_1  and  S_5
    3  A    between atoms: C_4  and  C_27
    4  A    between atoms: S_5  and  C_22
    5  A    between atoms: C_8  and  C_12
    6  A    between atoms: C_9  and  C_12
    7  A    between atoms: N_16  and  C_25
    8  A    between atoms: C_19  and  C_29
                            x       y       z     vdW  Elec       q    Type
                         _______ _______ _______ _____ _____    ______ ____

>  <TORSDO>
F 8

$$$$
=
 OpenBabel11052417123D

 30 32  0  0  1  0  0  0  0  0999 V2000
  187.7830  177.5960  146.8360 C   0  0  0  0  0  0  0  0  0  0  0  0
  186.6140  177.4470  147.5850 C   0  0  0  0  0  3  0  0  0  0  0  0
  189.2760  177.9270  147.7020 Cl  0  0  0  0  0  0  0  0  0  0  0  0
  186.5090  177.2180  144.7860 C   0  0  0  0  0  0  0  0  0  0  0  0
  185.3990  177.1970  146.9520 C   0  0  0  0  0  3  0  0  0  0  0  0
  187.7410  177.5030  145.4290 C   0  0  0  0  0  0  0  0  0  0  0  0
  185.3490  177.0800  145.5650 C   0  0  0  0  0  3  0  0  0  0  0  0
  186.5700  177.6270  140.3760 N   0  0  0  0  0  0  0  0  0  0  0  0
  187.4880  176.7170  140.4900 C   0  0  0  0  0  3  0  0  0  0  0  0
  185.3450  177.6470  141.1590 C   0  0  0  0  0  2  0  0  0  0  0  0
  187.0040  175.7870  142.7350 C   0  0  0  0  0  3  0  0  0  0  0  0
  185.6470  177.8480  142.6050 C   0  0  0  0  0  3  0  0  0  0  0  0
  187.4560  175.6180  141.4840 C   0  0  0  0  0  0  0  0  0  0  0  0
  186.4000  177.0080  143.3230 C   0  0  0  0  0  0  0  0  0  0  0  0
  190.2800  174.8320  141.8280 O   0  0  0  0  0  0  0  0  0  0  0  0
  189.4410  173.9980  141.3940 C   0  0  0  0  0  0  0  0  0  0  0  0
  188.0700  174.3580  141.1850 N   0  0  0  0  0  2  0  0  0  0  0  0
  189.8860  172.6160  141.0770 C   0  0  0  0  0  1  0  0  0  0  0  0
  189.2400  177.8260  144.4750 S   0  0  0  0  0  0  0  0  0  0  0  0
  189.8540  176.2470  144.7550 O   0  0  0  0  0  0  0  0  0  0  0  0
  191.2360  176.4010  144.8830 C   0  0  0  0  0  2  0  0  0  0  0  0
  193.1400  175.0870  146.1810 C   0  0  1  0  0  3  0  0  0  0  0  0
  192.7760  176.3810  146.9020 C   0  0  0  0  0  2  0  0  0  0  0  0
  191.7220  175.6410  146.1130 C   0  0  1  0  0  0  0  0  0  0  0  0
  190.7130  174.9160  146.9810 C   0  0  0  0  0  1  0  0  0  0  0  0
  193.9780  175.3910  144.9440 C   0  0  2  0  0  3  0  0  0  0  0  0
  193.7960  174.3720  144.0070 O   0  0  0  0  0  1  0  0  0  0  0  0
  196.2370  174.9060  144.3210 O   0  0  0  0  0  1  0  0  0  0  0  0
  195.4510  175.4720  145.3260 C   0  0  2  0  0  3  0  0  0  0  0  0
  195.6770  174.7980  146.5110 F   0  0  0  0  0  0  0  0  0  0  0  0
  1  2  1  0  0  0  0
  1  3  1  0  0  0  0
  4  6  1  0  0  0  0
  4  7  2  0  0  0  0
  5  2  2  0  0  0  0
  6  1  2  0  0  0  0
  7  5  1  0  0  0  0
  8  9  2  0  0  0  0
  8 10  1  0  0  0  0
  9 13  1  0  0  0  0
 10 12  1  0  0  0  0
 11 14  1  0  0  0  0
 12 14  2  0  0  0  0
 13 11  2  0  0  0  0
 14  4  1  0  0  0  0
 16 15  2  0  0  0  0
 17 16  1  0  0  0  0
 17 13  1  0  0  0  0
 18 16  1  0  0  0  0
 19 20  1  0  0  0  0
 19  6  1  0  0  0  0
 20 21  1  0  0  0  0
 21 24  1  0  0  0  0
 22 26  1  6  0  0  0
 22 23  1  0  0  0  0
 24 22  1  0  0  0  0
 24 23  1  0  0  0  0
 24 25  1  1  0  0  0
 26 27  1  6  0  0  0
 26 29  1  0  0  0  0
 29 28  1  6  0  0  0
 29 30  1  0  0  0  0
M  END
>  <MODEL>
5

>  <REMARK>
 VINA RESULT:      -6.8      1.541      1.745
  Name = 
  8 active torsions:
  status: ('A' for Active; 'I' for Inactive)
    1  A    between atoms: O_1  and  C_4
    2  A    between atoms: O_1  and  S_5
    3  A    between atoms: C_4  and  C_27
    4  A    between atoms: S_5  and  C_22
    5  A    between atoms: C_8  and  C_12
    6  A    between atoms: C_9  and  C_12
    7  A    between atoms: N_16  and  C_25
    8  A    between atoms: C_19  and  C_29
                            x       y       z     vdW  Elec       q    Type
                         _______ _______ _______ _____ _____    ______ ____

>  <TORSDO>
F 8

$$$$
=
 OpenBabel11052417123D

 30 32  0  0  1  0  0  0  0  0999 V2000
  192.1230  176.2450  147.0670 C   0  0  0  0  0  0  0  0  0  0  0  0
  193.4830  176.4740  146.8540 C   0  0  0  0  0  3  0  0  0  0  0  0
  191.3660  177.0230  148.4490 Cl  0  0  0  0  0  0  0  0  0  0  0  0
  192.0630  174.8070  145.0930 C   0  0  0  0  0  0  0  0  0  0  0  0
  194.1400  175.8730  145.7830 C   0  0  0  0  0  3  0  0  0  0  0  0
  191.4020  175.3940  146.2020 C   0  0  0  0  0  0  0  0  0  0  0  0
  193.4340  175.0500  144.9080 C   0  0  0  0  0  3  0  0  0  0  0  0
  189.5550  171.8290  142.9790 N   0  0  0  0  0  0  0  0  0  0  0  0
  188.8980  172.8970  142.6430 C   0  0  0  0  0  3  0  0  0  0  0  0
  191.0060  171.7530  143.0310 C   0  0  0  0  0  2  0  0  0  0  0  0
  190.5850  174.6720  143.0190 C   0  0  0  0  0  3  0  0  0  0  0  0
  191.5450  172.6590  144.0860 C   0  0  0  0  0  3  0  0  0  0  0  0
  189.5260  174.2050  142.3430 C   0  0  0  0  0  0  0  0  0  0  0  0
  191.3540  173.9830  144.0840 C   0  0  0  0  0  0  0  0  0  0  0  0
  186.8530  175.4470  142.4930 O   0  0  0  0  0  0  0  0  0  0  0  0
  187.6190  175.7140  141.5310 C   0  0  0  0  0  0  0  0  0  0  0  0
  188.9100  175.1030  141.4110 N   0  0  0  0  0  2  0  0  0  0  0  0
  187.1700  176.6710  140.4870 C   0  0  0  0  0  1  0  0  0  0  0  0
  189.6760  175.0130  146.5710 S   0  0  0  0  0  0  0  0  0  0  0  0
  189.1230  176.4980  145.9090 O   0  0  0  0  0  0  0  0  0  0  0  0
  187.7490  176.3350  145.7240 C   0  0  0  0  0  2  0  0  0  0  0  0
  185.9480  178.2810  145.8150 C   0  0  1  0  0  3  0  0  0  0  0  0
  185.5340  177.1070  146.6970 C   0  0  0  0  0  2  0  0  0  0  0  0
  186.9990  177.4150  146.4980 C   0  0  1  0  0  0  0  0  0  0  0  0
  187.6550  178.0470  147.7100 C   0  0  0  0  0  1  0  0  0  0  0  0
  185.7300  177.9390  144.3460 C   0  0  2  0  0  3  0  0  0  0  0  0
  186.7060  178.5760  143.5780 O   0  0  0  0  0  1  0  0  0  0  0  0
  184.1460  178.0980  142.5590 O   0  0  0  0  0  1  0  0  0  0  0  0
  184.3500  178.4100  143.9040 C   0  0  2  0  0  3  0  0  0  0  0  0
  184.2330  179.7770  144.0750 F   0  0  0  0  0  0  0  0  0  0  0  0
  1  3  1  0  0  0  0
  2  1  1  0  0  0  0
  4  6  1  0  0  0  0
  5  2  2  0  0  0  0
  6 19  1  0  0  0  0
  6  1  2  0  0  0  0
  7  4  2  0  0  0  0
  7  5  1  0  0  0  0
  8 10  1  0  0  0  0
  9  8  2  0  0  0  0
 10 12  1  0  0  0  0
 11 14  1  0  0  0  0
 13  9  1  0  0  0  0
 13 11  2  0  0  0  0
 14 12  2  0  0  0  0
 14  4  1  0  0  0  0
 16 15  2  0  0  0  0
 17 16  1  0  0  0  0
 17 13  1  0  0  0  0
 18 16  1  0  0  0  0
 20 19  1  0  0  0  0
 21 20  1  0  0  0  0
 21 24  1  0  0  0  0
 22 26  1  6  0  0  0
 22 24  1  0  0  0  0
 22 23  1  0  0  0  0
 24 23  1  0  0  0  0
 24 25  1  1  0  0  0
 26 27  1  6  0  0  0
 29 28  1  6  0  0  0
 29 30  1  0  0  0  0
 29 26  1  0  0  0  0
M  END
>  <MODEL>
6

>  <REMARK>
 VINA RESULT:      -6.7      3.050      6.682
  Name = 
  8 active torsions:
  status: ('A' for Active; 'I' for Inactive)
    1  A    between atoms: O_1  and  C_4
    2  A    between atoms: O_1  and  S_5
    3  A    between atoms: C_4  and  C_27
    4  A    between atoms: S_5  and  C_22
    5  A    between atoms: C_8  and  C_12
    6  A    between atoms: C_9  and  C_12
    7  A    between atoms: N_16  and  C_25
    8  A    between atoms: C_19  and  C_29
                            x       y       z     vdW  Elec       q    Type
                         _______ _______ _______ _____ _____    ______ ____

>  <TORSDO>
F 8

$$$$
=
 OpenBabel11052417123D

 30 32  0  0  1  0  0  0  0  0999 V2000
  193.2020  175.7160  145.0210 C   0  0  0  0  0  0  0  0  0  0  0  0
  193.5570  174.5810  145.7510 C   0  0  0  0  0  3  0  0  0  0  0  0
  194.0090  177.2290  145.4100 Cl  0  0  0  0  0  0  0  0  0  0  0  0
  191.6020  174.3850  143.7410 C   0  0  0  0  0  0  0  0  0  0  0  0
  192.9410  173.3580  145.4960 C   0  0  0  0  0  3  0  0  0  0  0  0
  192.2080  175.6360  144.0230 C   0  0  0  0  0  0  0  0  0  0  0  0
  191.9750  173.2620  144.4970 C   0  0  0  0  0  3  0  0  0  0  0  0
  188.8660  172.7560  140.6630 N   0  0  0  0  0  0  0  0  0  0  0  0
  187.9750  173.3000  141.4330 C   0  0  0  0  0  3  0  0  0  0  0  0
  190.1460  173.3680  140.3440 C   0  0  0  0  0  2  0  0  0  0  0  0
  189.3340  174.9300  142.7110 C   0  0  0  0  0  3  0  0  0  0  0  0
  190.9890  173.4930  141.5680 C   0  0  0  0  0  3  0  0  0  0  0  0
  188.1650  174.5780  142.1580 C   0  0  0  0  0  0  0  0  0  0  0  0
  190.6240  174.1990  142.6440 C   0  0  0  0  0  0  0  0  0  0  0  0
  187.5120  177.2040  140.9800 O   0  0  0  0  0  0  0  0  0  0  0  0
  186.7360  176.6800  141.8220 C   0  0  0  0  0  0  0  0  0  0  0  0
  187.0400  175.4220  142.4370 N   0  0  0  0  0  2  0  0  0  0  0  0
  185.4860  177.3890  142.1990 C   0  0  0  0  0  1  0  0  0  0  0  0
  191.6750  177.1430  143.1810 S   0  0  0  0  0  0  0  0  0  0  0  0
  191.1040  177.8510  144.6380 O   0  0  0  0  0  0  0  0  0  0  0  0
  189.7530  177.5100  144.7150 C   0  0  0  0  0  2  0  0  0  0  0  0
  188.0030  176.7910  146.5750 C   0  0  1  0  0  3  0  0  0  0  0  0
  188.8180  175.5950  146.0960 C   0  0  0  0  0  2  0  0  0  0  0  0
  189.4420  176.9700  146.1080 C   0  0  1  0  0  0  0  0  0  0  0  0
  190.4530  177.1680  147.2200 C   0  0  0  0  0  1  0  0  0  0  0  0
  186.9650  177.1750  145.5260 C   0  0  2  0  0  3  0  0  0  0  0  0
  186.9840  178.5600  145.3480 O   0  0  0  0  0  1  0  0  0  0  0  0
  184.6370  177.7150  145.6510 O   0  0  0  0  0  1  0  0  0  0  0  0
  185.5790  176.7420  145.9890 C   0  0  2  0  0  3  0  0  0  0  0  0
  185.5670  176.5580  147.3590 F   0  0  0  0  0  0  0  0  0  0  0  0
  1  3  1  0  0  0  0
  1  2  1  0  0  0  0
  4  6  1  0  0  0  0
  4  7  2  0  0  0  0
  5  2  2  0  0  0  0
  6  1  2  0  0  0  0
  7  5  1  0  0  0  0
  8  9  2  0  0  0  0
  9 13  1  0  0  0  0
 10  8  1  0  0  0  0
 10 12  1  0  0  0  0
 12 14  2  0  0  0  0
 13 17  1  0  0  0  0
 13 11  2  0  0  0  0
 14 11  1  0  0  0  0
 14  4  1  0  0  0  0
 15 16  2  0  0  0  0
 16 18  1  0  0  0  0
 16 17  1  0  0  0  0
 19  6  1  0  0  0  0
 19 20  1  0  0  0  0
 20 21  1  0  0  0  0
 21 24  1  0  0  0  0
 22 26  1  6  0  0  0
 23 24  1  0  0  0  0
 23 22  1  0  0  0  0
 24 22  1  0  0  0  0
 24 25  1  1  0  0  0
 26 27  1  1  0  0  0
 26 29  1  0  0  0  0
 29 28  1  1  0  0  0
 29 30  1  0  0  0  0
M  END
>  <MODEL>
7

>  <REMARK>
 VINA RESULT:      -6.7      3.028      6.153
  Name = 
  8 active torsions:
  status: ('A' for Active; 'I' for Inactive)
    1  A    between atoms: O_1  and  C_4
    2  A    between atoms: O_1  and  S_5
    3  A    between atoms: C_4  and  C_27
    4  A    between atoms: S_5  and  C_22
    5  A    between atoms: C_8  and  C_12
    6  A    between atoms: C_9  and  C_12
    7  A    between atoms: N_16  and  C_25
    8  A    between atoms: C_19  and  C_29
                            x       y       z     vdW  Elec       q    Type
                         _______ _______ _______ _____ _____    ______ ____

>  <TORSDO>
F 8

$$$$
=
 OpenBabel11052417123D

 30 32  0  0  1  0  0  0  0  0999 V2000
  191.9780  175.5650  146.3840 C   0  0  0  0  0  0  0  0  0  0  0  0
  193.1060  176.3540  146.1540 C   0  0  0  0  0  3  0  0  0  0  0  0
  191.5200  175.2540  148.0520 Cl  0  0  0  0  0  0  0  0  0  0  0  0
  191.6630  175.3240  143.9730 C   0  0  0  0  0  0  0  0  0  0  0  0
  193.5240  176.6230  144.8530 C   0  0  0  0  0  3  0  0  0  0  0  0
  191.2560  175.0250  145.2990 C   0  0  0  0  0  0  0  0  0  0  0  0
  192.8060  176.1150  143.7730 C   0  0  0  0  0  3  0  0  0  0  0  0
  189.4680  173.0000  140.9070 N   0  0  0  0  0  0  0  0  0  0  0  0
  188.4810  173.7310  141.3280 C   0  0  0  0  0  3  0  0  0  0  0  0
  190.8200  173.4980  140.7100 C   0  0  0  0  0  2  0  0  0  0  0  0
  189.6700  175.6160  142.4100 C   0  0  0  0  0  3  0  0  0  0  0  0
  191.4220  173.9190  142.0080 C   0  0  0  0  0  3  0  0  0  0  0  0
  188.6080  175.1490  141.7390 C   0  0  0  0  0  0  0  0  0  0  0  0
  190.9020  174.8770  142.7830 C   0  0  0  0  0  0  0  0  0  0  0  0
  188.6530  178.0970  141.6230 O   0  0  0  0  0  0  0  0  0  0  0  0
  187.5650  177.4770  141.4890 C   0  0  0  0  0  0  0  0  0  0  0  0
  187.5040  176.0480  141.5730 N   0  0  0  0  0  2  0  0  0  0  0  0
  186.3140  178.2450  141.2540 C   0  0  0  0  0  1  0  0  0  0  0  0
  189.8780  173.9040  145.6220 S   0  0  0  0  0  0  0  0  0  0  0  0
  188.9830  175.1140  146.4500 O   0  0  0  0  0  0  0  0  0  0  0  0
  188.1510  175.6890  145.4880 C   0  0  0  0  0  2  0  0  0  0  0  0
  186.9250  178.0350  145.6460 C   0  0  1  0  0  3  0  0  0  0  0  0
  187.6870  177.7250  146.9310 C   0  0  0  0  0  2  0  0  0  0  0  0
  188.2040  177.2080  145.6100 C   0  0  1  0  0  0  0  0  0  0  0  0
  189.4280  177.9490  145.1060 C   0  0  0  0  0  1  0  0  0  0  0  0
  185.6520  177.2010  145.5740 C   0  0  2  0  0  3  0  0  0  0  0  0
  185.5180  176.6800  144.2860 O   0  0  0  0  0  1  0  0  0  0  0  0
  184.5520  179.3000  145.2430 O   0  0  0  0  0  1  0  0  0  0  0  0
  184.4440  178.0720  145.8980 C   0  0  2  0  0  3  0  0  0  0  0  0
  184.3620  178.2920  147.2610 F   0  0  0  0  0  0  0  0  0  0  0  0
  1  3  1  0  0  0  0
  2  1  1  0  0  0  0
  4  6  1  0  0  0  0
  5  2  2  0  0  0  0
  6 19  1  0  0  0  0
  6  1  2  0  0  0  0
  7  4  2  0  0  0  0
  7  5  1  0  0  0  0
  8  9  2  0  0  0  0
  9 13  1  0  0  0  0
 10  8  1  0  0  0  0
 10 12  1  0  0  0  0
 11 14  1  0  0  0  0
 12 14  2  0  0  0  0
 13 11  2  0  0  0  0
 14  4  1  0  0  0  0
 16 17  1  0  0  0  0
 16 15  2  0  0  0  0
 17 13  1  0  0  0  0
 18 16  1  0  0  0  0
 19 20  1  0  0  0  0
 21 24  1  0  0  0  0
 21 20  1  0  0  0  0
 22 26  1  1  0  0  0
 22 23  1  0  0  0  0
 24 25  1  6  0  0  0
 24 22  1  0  0  0  0
 24 23  1  0  0  0  0
 26 27  1  6  0  0  0
 26 29  1  0  0  0  0
 29 28  1  6  0  0  0
 29 30  1  0  0  0  0
M  END
>  <MODEL>
8

>  <REMARK>
 VINA RESULT:      -6.6      3.109      6.264
  Name = 
  8 active torsions:
  status: ('A' for Active; 'I' for Inactive)
    1  A    between atoms: O_1  and  C_4
    2  A    between atoms: O_1  and  S_5
    3  A    between atoms: C_4  and  C_27
    4  A    between atoms: S_5  and  C_22
    5  A    between atoms: C_8  and  C_12
    6  A    between atoms: C_9  and  C_12
    7  A    between atoms: N_16  and  C_25
    8  A    between atoms: C_19  and  C_29
                            x       y       z     vdW  Elec       q    Type
                         _______ _______ _______ _____ _____    ______ ____

>  <TORSDO>
F 8

$$$$
=
 OpenBabel11052417123D

 30 32  0  0  1  0  0  0  0  0999 V2000
  190.4710  175.5000  147.0420 C   0  0  0  0  0  0  0  0  0  0  0  0
  190.9890  176.3590  148.0120 C   0  0  0  0  0  3  0  0  0  0  0  0
  188.8150  174.9440  147.2390 Cl  0  0  0  0  0  0  0  0  0  0  0  0
  192.5980  175.5790  145.8440 C   0  0  0  0  0  0  0  0  0  0  0  0
  192.2990  176.8220  147.9160 C   0  0  0  0  0  3  0  0  0  0  0  0
  191.2740  175.0840  145.9590 C   0  0  0  0  0  0  0  0  0  0  0  0
  193.0950  176.4370  146.8390 C   0  0  0  0  0  3  0  0  0  0  0  0
  195.5740  175.6800  142.5650 N   0  0  0  0  0  0  0  0  0  0  0  0
  196.1370  174.7680  143.2980 C   0  0  0  0  0  3  0  0  0  0  0  0
  194.1400  175.7690  142.3400 C   0  0  0  0  0  2  0  0  0  0  0  0
  194.2420  174.0020  144.6990 C   0  0  0  0  0  3  0  0  0  0  0  0
  193.4240  176.0670  143.6140 C   0  0  0  0  0  3  0  0  0  0  0  0
  195.3960  173.7420  144.0690 C   0  0  0  0  0  0  0  0  0  0  0  0
  193.4700  175.2690  144.6860 C   0  0  0  0  0  0  0  0  0  0  0  0
  197.0690  172.8870  146.3450 O   0  0  0  0  0  0  0  0  0  0  0  0
  196.7660  172.0640  145.4410 C   0  0  0  0  0  0  0  0  0  0  0  0
  195.9840  172.4560  144.3060 N   0  0  0  0  0  2  0  0  0  0  0  0
  197.2450  170.6610  145.5440 C   0  0  0  0  0  1  0  0  0  0  0  0
  190.6240  173.8730  144.7880 S   0  0  0  0  0  0  0  0  0  0  0  0
  190.3080  175.0720  143.6000 O   0  0  0  0  0  0  0  0  0  0  0  0
  188.9850  175.4670  143.8100 C   0  0  0  0  0  2  0  0  0  0  0  0
  187.6500  177.7400  143.5120 C   0  0  1  0  0  3  0  0  0  0  0  0
  187.9770  177.4830  144.9790 C   0  0  0  0  0  2  0  0  0  0  0  0
  188.9160  176.9880  143.9040 C   0  0  1  0  0  0  0  0  0  0  0  0
  190.1950  177.7950  143.7980 C   0  0  0  0  0  1  0  0  0  0  0  0
  186.5120  176.8320  143.0590 C   0  0  2  0  0  3  0  0  0  0  0  0
  186.7420  176.4310  141.7420 O   0  0  0  0  0  1  0  0  0  0  0  0
  185.3610  178.8990  142.6970 O   0  0  0  0  0  1  0  0  0  0  0  0
  185.1890  177.5850  143.1360 C   0  0  2  0  0  3  0  0  0  0  0  0
  184.7220  177.6010  144.4380 F   0  0  0  0  0  0  0  0  0  0  0  0
  1  3  1  0  0  0  0
  1  2  1  0  0  0  0
  4  6  1  0  0  0  0
  4  7  2  0  0  0  0
  5  2  2  0  0  0  0
  6  1  2  0  0  0  0
  7  5  1  0  0  0  0
  8  9  2  0  0  0  0
  9 13  1  0  0  0  0
 10  8  1  0  0  0  0
 10 12  1  0  0  0  0
 12 14  2  0  0  0  0
 13 17  1  0  0  0  0
 13 11  2  0  0  0  0
 14 11  1  0  0  0  0
 14  4  1  0  0  0  0
 16 18  1  0  0  0  0
 16 15  2  0  0  0  0
 17 16  1  0  0  0  0
 19  6  1  0  0  0  0
 20 21  1  0  0  0  0
 20 19  1  0  0  0  0
 21 24  1  0  0  0  0
 22 26  1  6  0  0  0
 22 24  1  0  0  0  0
 22 23  1  0  0  0  0
 24 25  1  6  0  0  0
 24 23  1  0  0  0  0
 26 27  1  6  0  0  0
 26 29  1  0  0  0  0
 29 28  1  1  0  0  0
 29 30  1  0  0  0  0
M  END
>  <MODEL>
9

>  <REMARK>
 VINA RESULT:      -6.6      4.230      7.469
  Name = 
  8 active torsions:
  status: ('A' for Active; 'I' for Inactive)
    1  A    between atoms: O_1  and  C_4
    2  A    between atoms: O_1  and  S_5
    3  A    between atoms: C_4  and  C_27
    4  A    between atoms: S_5  and  C_22
    5  A    between atoms: C_8  and  C_12
    6  A    between atoms: C_9  and  C_12
    7  A    between atoms: N_16  and  C_25
    8  A    between atoms: C_19  and  C_29
                            x       y       z     vdW  Elec       q    Type
                         _______ _______ _______ _____ _____    ______ ____

>  <TORSDO>
F 8

$$$$
