=
 OpenBabel11052420003D

 37 40  0  0  1  0  0  0  0  0999 V2000
  191.2180  174.3960  145.0690 C   0  0  0  0  0  2  0  0  0  0  0  0
  189.2860  177.7850  143.2340 C   0  0  0  0  0  2  0  0  0  0  0  0
  188.8070  172.4570  141.2660 N   0  0  0  0  0  2  0  0  0  0  0  0
  190.8200  175.2890  143.9030 C   0  0  2  0  0  3  0  0  0  0  0  0
  189.4570  173.1840  142.3580 C   0  0  2  0  0  3  0  0  0  0  0  0
  191.4250  176.6850  144.0480 C   0  0  2  0  0  3  0  0  0  0  0  0
  189.4590  172.3440  143.6260 C   0  0  0  0  0  2  0  0  0  0  0  0
  188.7660  174.5430  142.5590 C   0  0  2  0  0  3  0  0  0  0  0  0
  188.1700  174.6800  140.3880 C   0  0  0  0  0  2  0  0  0  0  0  0
  192.9320  172.7900  144.7290 O   0  0  0  0  0  0  0  0  0  0  0  0
  190.8360  172.0820  144.0240 N   0  0  0  0  0  2  0  0  0  0  0  0
  188.9290  175.3110  141.3930 O   0  0  0  0  0  0  0  0  0  0  0  0
  190.7940  177.6140  143.0190 C   0  0  0  0  0  2  0  0  0  0  0  0
  191.7100  173.0630  144.5960 C   0  0  0  0  0  0  0  0  0  0  0  0
  189.2800  175.3000  143.7960 C   0  0  2  0  0  3  0  0  0  0  0  0
  188.7470  173.2940  140.0580 C   0  0  1  0  0  3  0  0  0  0  0  0
  188.5880  176.6680  144.0560 C   0  0  1  0  0  0  0  0  0  0  0  0
  190.1140  173.4150  139.3960 C   0  0  0  0  0  2  0  0  0  0  0  0
  189.9590  173.7210  137.9190 C   0  0  0  0  0  1  0  0  0  0  0  0
  188.7230  177.0050  145.5600 C   0  0  0  0  0  2  0  0  0  0  0  0
  187.7250  176.2620  146.4450 C   0  0  0  0  0  2  0  0  0  0  0  0
  185.3390  176.8730  146.6550 C   0  0  0  0  0  1  0  0  0  0  0  0
  186.7460  177.2230  147.0880 C   0  0  0  0  0  2  0  0  0  0  0  0
  187.2190  176.5560  143.6840 O   0  0  0  0  0  0  0  0  0  0  0  0
  186.7690  177.7450  143.0810 C   0  0  0  0  0  2  0  0  0  0  0  0
  185.2780  177.6520  142.8360 C   0  0  0  0  0  2  0  0  0  0  0  0
  185.6040  179.6910  144.1950 C   0  0  0  0  0  1  0  0  0  0  0  0
  184.5750  178.7590  143.5910 C   0  0  0  0  0  2  0  0  0  0  0  0
  192.9280  176.6240  143.8250 C   0  0  0  0  0  2  0  0  0  0  0  0
  193.6620  176.6600  145.1550 C   0  0  0  0  0  2  0  0  0  0  0  0
  195.1460  174.7990  146.1450 C   0  0  0  0  0  2  0  0  0  0  0  0
  194.9100  175.8500  145.0840 C   0  0  0  0  0  0  0  0  0  0  0  0
  195.7450  176.0150  144.0520 C   0  0  0  0  0  3  0  0  0  0  0  0
  197.7420  175.3660  142.9630 O   0  0  0  0  0  0  0  0  0  0  0  0
  197.3050  174.2630  145.0080 C   0  0  0  0  0  3  0  0  0  0  0  0
  196.9710  175.2180  143.9480 C   0  0  0  0  0  0  0  0  0  0  0  0
  196.4680  174.0790  146.0320 C   0  0  0  0  0  3  0  0  0  0  0  0
  2 17  1  0  0  0  0
  3  5  1  0  0  0  0
  4  6  1  0  0  0  0
  4  1  1  1  0  0  0
  5  8  1  0  0  0  0
  5  7  1  1  0  0  0
  6 29  1  6  0  0  0
  7 11  1  0  0  0  0
  8 12  1  6  0  0  0
  8 15  1  0  0  0  0
  9 12  1  0  0  0  0
 11 14  1  0  0  0  0
 13  2  1  0  0  0  0
 13  6  1  0  0  0  0
 14 10  2  0  0  0  0
 14  1  1  0  0  0  0
 15  4  1  0  0  0  0
 15 17  1  0  0  0  0
 16  9  1  0  0  0  0
 16  3  1  0  0  0  0
 17 20  1  0  0  0  0
 18 16  1  0  0  0  0
 19 18  1  0  0  0  0
 20 21  1  0  0  0  0
 21 23  1  0  0  0  0
 22 23  1  0  0  0  0
 24 17  1  0  0  0  0
 25 24  1  0  0  0  0
 26 25  1  0  0  0  0
 26 28  1  0  0  0  0
 28 27  1  0  0  0  0
 29 30  1  0  0  0  0
 32 30  1  0  0  0  0
 32 31  1  0  0  0  0
 33 32  2  0  0  0  0
 34 36  2  0  0  0  0
 35 37  2  0  0  0  0
 36 33  1  0  0  0  0
 36 35  1  0  0  0  0
 37 31  1  0  0  0  0
M  END
>  <MODEL>
1

>  <REMARK>
 VINA RESULT:      -7.3      0.000      0.000
  Name = 
  11 active torsions:
  status: ('A' for Active; 'I' for Inactive)
    1  A    between atoms: C_1  and  C_5
    2  A    between atoms: C_1  and  C_36
    3  A    between atoms: C_3  and  C_32
    4  A    between atoms: C_5  and  C_23
    5  A    between atoms: C_6  and  C_31
    6  A    between atoms: C_14  and  C_37
    7  A    between atoms: C_17  and  C_26
    8  A    between atoms: C_17  and  O_33
    9  A    between atoms: C_26  and  C_34
   10  A    between atoms: C_31  and  C_37
   11  A    between atoms: O_33  and  C_36
                            x       y       z     vdW  Elec       q    Type
                         _______ _______ _______ _____ _____    ______ ____

>  <TORSDO>
F 11

$$$$
=
 OpenBabel11052420003D

 37 40  0  0  1  0  0  0  0  0999 V2000
  191.9230  174.1020  144.9950 C   0  0  0  0  0  2  0  0  0  0  0  0
  189.9650  177.7320  143.7380 C   0  0  0  0  0  2  0  0  0  0  0  0
  188.8030  172.6110  141.5200 N   0  0  0  0  0  2  0  0  0  0  0  0
  191.4070  175.1050  143.9740 C   0  0  2  0  0  3  0  0  0  0  0  0
  189.6700  173.2110  142.5370 C   0  0  2  0  0  3  0  0  0  0  0  0
  192.1250  176.4480  144.1110 C   0  0  2  0  0  3  0  0  0  0  0  0
  189.8160  172.2750  143.7270 C   0  0  0  0  0  2  0  0  0  0  0  0
  189.1170  174.5880  142.9400 C   0  0  2  0  0  3  0  0  0  0  0  0
  188.1920  174.9300  140.9120 C   0  0  0  0  0  2  0  0  0  0  0  0
  193.4430  172.4300  144.2680 O   0  0  0  0  0  0  0  0  0  0  0  0
  191.2160  171.9040  143.8730 N   0  0  0  0  0  2  0  0  0  0  0  0
  189.1440  175.4350  141.8180 O   0  0  0  0  0  0  0  0  0  0  0  0
  191.4030  177.4900  143.2650 C   0  0  0  0  0  2  0  0  0  0  0  0
  192.2390  172.7840  144.3580 C   0  0  0  0  0  0  0  0  0  0  0  0
  189.8740  175.2150  144.1230 C   0  0  2  0  0  3  0  0  0  0  0  0
  188.6090  173.5420  140.3980 C   0  0  1  0  0  3  0  0  0  0  0  0
  189.3310  176.5960  144.5870 C   0  0  1  0  0  0  0  0  0  0  0  0
  189.8570  173.6340  139.5280 C   0  0  0  0  0  2  0  0  0  0  0  0
  189.4730  173.7900  138.0700 C   0  0  0  0  0  1  0  0  0  0  0  0
  189.7290  176.8070  146.0670 C   0  0  0  0  0  2  0  0  0  0  0  0
  189.3750  175.6260  146.9680 C   0  0  0  0  0  2  0  0  0  0  0  0
  191.5660  176.3840  147.8280 C   0  0  0  0  0  1  0  0  0  0  0  0
  190.5210  175.2910  147.9020 C   0  0  0  0  0  2  0  0  0  0  0  0
  187.9160  176.5940  144.4390 O   0  0  0  0  0  0  0  0  0  0  0  0
  187.4420  177.8900  144.1660 C   0  0  0  0  0  2  0  0  0  0  0  0
  186.3650  178.2530  145.1640 C   0  0  0  0  0  2  0  0  0  0  0  0
  185.9430  177.1660  147.3430 C   0  0  0  0  0  1  0  0  0  0  0  0
  185.8630  176.9960  145.8410 C   0  0  0  0  0  2  0  0  0  0  0  0
  193.5640  176.3180  143.6390 C   0  0  0  0  0  2  0  0  0  0  0  0
  194.5210  176.5000  144.8050 C   0  0  0  0  0  2  0  0  0  0  0  0
  195.6600  174.6090  146.1380 C   0  0  0  0  0  2  0  0  0  0  0  0
  195.5090  175.3850  144.8480 C   0  0  0  0  0  0  0  0  0  0  0  0
  196.1730  175.0500  143.7370 C   0  0  0  0  0  3  0  0  0  0  0  0
  197.7430  173.6220  142.6930 O   0  0  0  0  0  0  0  0  0  0  0  0
  197.4040  173.2300  144.9990 C   0  0  0  0  0  3  0  0  0  0  0  0
  197.1360  173.9440  143.7480 C   0  0  0  0  0  0  0  0  0  0  0  0
  196.7320  173.5470  146.1080 C   0  0  0  0  0  3  0  0  0  0  0  0
  2 17  1  0  0  0  0
  3  5  1  0  0  0  0
  4  6  1  0  0  0  0
  4 15  1  0  0  0  0
  4  1  1  1  0  0  0
  5  8  1  0  0  0  0
  5  7  1  1  0  0  0
  6 29  1  6  0  0  0
  7 11  1  0  0  0  0
  8 12  1  6  0  0  0
  8 15  1  0  0  0  0
  9 12  1  0  0  0  0
 10 14  2  0  0  0  0
 11 14  1  0  0  0  0
 13  2  1  0  0  0  0
 13  6  1  0  0  0  0
 14  1  1  0  0  0  0
 15 17  1  0  0  0  0
 16  9  1  0  0  0  0
 16  3  1  0  0  0  0
 17 20  1  0  0  0  0
 18 16  1  0  0  0  0
 19 18  1  0  0  0  0
 20 21  1  0  0  0  0
 21 23  1  0  0  0  0
 22 23  1  0  0  0  0
 24 17  1  0  0  0  0
 25 24  1  0  0  0  0
 25 26  1  0  0  0  0
 26 28  1  0  0  0  0
 28 27  1  0  0  0  0
 29 30  1  0  0  0  0
 30 32  1  0  0  0  0
 32 31  1  0  0  0  0
 33 36  1  0  0  0  0
 33 32  2  0  0  0  0
 34 36  2  0  0  0  0
 35 37  2  0  0  0  0
 36 35  1  0  0  0  0
 37 31  1  0  0  0  0
M  END
>  <MODEL>
2

>  <REMARK>
 VINA RESULT:      -7.3      1.158      1.774
  Name = 
  11 active torsions:
  status: ('A' for Active; 'I' for Inactive)
    1  A    between atoms: C_1  and  C_5
    2  A    between atoms: C_1  and  C_36
    3  A    between atoms: C_3  and  C_32
    4  A    between atoms: C_5  and  C_23
    5  A    between atoms: C_6  and  C_31
    6  A    between atoms: C_14  and  C_37
    7  A    between atoms: C_17  and  C_26
    8  A    between atoms: C_17  and  O_33
    9  A    between atoms: C_26  and  C_34
   10  A    between atoms: C_31  and  C_37
   11  A    between atoms: O_33  and  C_36
                            x       y       z     vdW  Elec       q    Type
                         _______ _______ _______ _____ _____    ______ ____

>  <TORSDO>
F 11

$$$$
=
 OpenBabel11052420003D

 37 40  0  0  1  0  0  0  0  0999 V2000
  191.5460  173.9420  144.9220 C   0  0  0  0  0  2  0  0  0  0  0  0
  189.8160  177.6690  143.6200 C   0  0  0  0  0  2  0  0  0  0  0  0
  188.6630  172.6520  141.1730 N   0  0  0  0  0  2  0  0  0  0  0  0
  191.1460  174.9880  143.8930 C   0  0  2  0  0  3  0  0  0  0  0  0
  189.4660  173.1950  142.2710 C   0  0  2  0  0  3  0  0  0  0  0  0
  191.8950  176.3010  144.1230 C   0  0  2  0  0  3  0  0  0  0  0  0
  189.4860  172.2240  143.4420 C   0  0  0  0  0  2  0  0  0  0  0  0
  188.9290  174.5800  142.6690 C   0  0  2  0  0  3  0  0  0  0  0  0
  188.1790  175.0060  140.5850 C   0  0  0  0  0  2  0  0  0  0  0  0
  193.0620  172.2360  144.2690 O   0  0  0  0  0  0  0  0  0  0  0  0
  190.8570  171.8000  143.6860 N   0  0  0  0  0  2  0  0  0  0  0  0
  189.0730  175.4530  141.5770 O   0  0  0  0  0  0  0  0  0  0  0  0
  191.2780  177.3890  143.2540 C   0  0  0  0  0  2  0  0  0  0  0  0
  191.8670  172.6300  144.2740 C   0  0  0  0  0  0  0  0  0  0  0  0
  189.6110  175.1480  143.9250 C   0  0  2  0  0  3  0  0  0  0  0  0
  188.5890  173.6180  140.0670 C   0  0  1  0  0  3  0  0  0  0  0  0
  189.0790  176.5360  144.3840 C   0  0  1  0  0  0  0  0  0  0  0  0
  189.9040  173.6880  139.3000 C   0  0  0  0  0  2  0  0  0  0  0  0
  189.6460  173.6660  137.8060 C   0  0  0  0  0  1  0  0  0  0  0  0
  189.3660  176.6940  145.8960 C   0  0  0  0  0  2  0  0  0  0  0  0
  188.6080  175.6960  146.7680 C   0  0  0  0  0  2  0  0  0  0  0  0
  190.8400  175.6190  147.8300 C   0  0  0  0  0  1  0  0  0  0  0  0
  189.5640  174.8440  147.5780 C   0  0  0  0  0  2  0  0  0  0  0  0
  187.6810  176.5870  144.1260 O   0  0  0  0  0  0  0  0  0  0  0  0
  187.2920  177.8860  143.7480 C   0  0  0  0  0  2  0  0  0  0  0  0
  186.1610  178.3520  144.6390 C   0  0  0  0  0  2  0  0  0  0  0  0
  185.2700  177.4600  146.7640 C   0  0  0  0  0  1  0  0  0  0  0  0
  185.5180  177.1530  145.3030 C   0  0  0  0  0  2  0  0  0  0  0  0
  193.3620  176.1310  143.7620 C   0  0  0  0  0  2  0  0  0  0  0  0
  193.5190  175.9560  142.2600 C   0  0  0  0  0  2  0  0  0  0  0  0
  195.9670  175.6680  143.0190 C   0  0  0  0  0  2  0  0  0  0  0  0
  194.9580  175.8090  141.9010 C   0  0  0  0  0  0  0  0  0  0  0  0
  195.3110  175.7260  140.6130 C   0  0  0  0  0  3  0  0  0  0  0  0
  197.0390  175.4660  139.0200 O   0  0  0  0  0  0  0  0  0  0  0  0
  197.7490  175.5320  141.2740 C   0  0  0  0  0  3  0  0  0  0  0  0
  196.7170  175.5620  140.2330 C   0  0  0  0  0  0  0  0  0  0  0  0
  197.4030  175.5960  142.5620 C   0  0  0  0  0  3  0  0  0  0  0  0
  2 17  1  0  0  0  0
  3  5  1  0  0  0  0
  4 15  1  0  0  0  0
  4  6  1  0  0  0  0
  4  1  1  1  0  0  0
  5  8  1  0  0  0  0
  5  7  1  1  0  0  0
  6 29  1  6  0  0  0
  7 11  1  0  0  0  0
  8 12  1  6  0  0  0
  8 15  1  0  0  0  0
  9 12  1  0  0  0  0
 10 14  2  0  0  0  0
 11 14  1  0  0  0  0
 13  2  1  0  0  0  0
 13  6  1  0  0  0  0
 14  1  1  0  0  0  0
 15 17  1  0  0  0  0
 16  9  1  0  0  0  0
 16  3  1  0  0  0  0
 17 20  1  0  0  0  0
 18 16  1  0  0  0  0
 19 18  1  0  0  0  0
 20 21  1  0  0  0  0
 21 23  1  0  0  0  0
 23 22  1  0  0  0  0
 24 17  1  0  0  0  0
 25 24  1  0  0  0  0
 25 26  1  0  0  0  0
 26 28  1  0  0  0  0
 28 27  1  0  0  0  0
 30 29  1  0  0  0  0
 32 30  1  0  0  0  0
 32 31  1  0  0  0  0
 33 32  2  0  0  0  0
 34 36  2  0  0  0  0
 35 37  2  0  0  0  0
 36 33  1  0  0  0  0
 36 35  1  0  0  0  0
 37 31  1  0  0  0  0
M  END
>  <MODEL>
3

>  <REMARK>
 VINA RESULT:      -6.9      1.559      2.208
  Name = 
  11 active torsions:
  status: ('A' for Active; 'I' for Inactive)
    1  A    between atoms: C_1  and  C_5
    2  A    between atoms: C_1  and  C_36
    3  A    between atoms: C_3  and  C_32
    4  A    between atoms: C_5  and  C_23
    5  A    between atoms: C_6  and  C_31
    6  A    between atoms: C_14  and  C_37
    7  A    between atoms: C_17  and  C_26
    8  A    between atoms: C_17  and  O_33
    9  A    between atoms: C_26  and  C_34
   10  A    between atoms: C_31  and  C_37
   11  A    between atoms: O_33  and  C_36
                            x       y       z     vdW  Elec       q    Type
                         _______ _______ _______ _____ _____    ______ ____

>  <TORSDO>
F 11

$$$$
=
 OpenBabel11052420003D

 37 40  0  0  1  0  0  0  0  0999 V2000
  191.9500  174.0940  145.0350 C   0  0  0  0  0  2  0  0  0  0  0  0
  190.0730  177.7030  143.6070 C   0  0  0  0  0  2  0  0  0  0  0  0
  188.8960  172.5240  141.5360 N   0  0  0  0  0  2  0  0  0  0  0  0
  191.4730  175.0680  143.9670 C   0  0  2  0  0  3  0  0  0  0  0  0
  189.7450  173.1480  142.5530 C   0  0  2  0  0  3  0  0  0  0  0  0
  192.2050  176.4050  144.0760 C   0  0  2  0  0  3  0  0  0  0  0  0
  189.8500  172.2520  143.7780 C   0  0  0  0  0  2  0  0  0  0  0  0
  189.2020  174.5450  142.8950 C   0  0  2  0  0  3  0  0  0  0  0  0
  188.3310  174.8280  140.8340 C   0  0  0  0  0  2  0  0  0  0  0  0
  193.4650  172.3790  144.4030 O   0  0  0  0  0  0  0  0  0  0  0  0
  191.2410  171.8680  143.9710 N   0  0  0  0  0  2  0  0  0  0  0  0
  189.2680  175.3520  141.7460 O   0  0  0  0  0  0  0  0  0  0  0  0
  191.5190  177.4270  143.1780 C   0  0  0  0  0  2  0  0  0  0  0  0
  192.2630  172.7510  144.4510 C   0  0  0  0  0  0  0  0  0  0  0  0
  189.9390  175.2020  144.0750 C   0  0  2  0  0  3  0  0  0  0  0  0
  188.7410  173.4180  140.3790 C   0  0  1  0  0  3  0  0  0  0  0  0
  189.4040  176.6050  144.4780 C   0  0  1  0  0  0  0  0  0  0  0  0
  190.0120  173.4650  139.5380 C   0  0  0  0  0  2  0  0  0  0  0  0
  190.3780  172.0730  139.0590 C   0  0  0  0  0  1  0  0  0  0  0  0
  189.7690  176.8610  145.9590 C   0  0  0  0  0  2  0  0  0  0  0  0
  189.3190  175.7460  146.9000 C   0  0  0  0  0  2  0  0  0  0  0  0
  191.4700  176.4230  147.9140 C   0  0  0  0  0  1  0  0  0  0  0  0
  190.4530  175.3070  147.8050 C   0  0  0  0  0  2  0  0  0  0  0  0
  187.9930  176.6160  144.2960 O   0  0  0  0  0  0  0  0  0  0  0  0
  187.5450  177.9050  143.9510 C   0  0  0  0  0  2  0  0  0  0  0  0
  186.1660  178.1310  144.5310 C   0  0  0  0  0  2  0  0  0  0  0  0
  185.2210  176.9160  146.4650 C   0  0  0  0  0  1  0  0  0  0  0  0
  186.2210  177.9680  146.0350 C   0  0  0  0  0  2  0  0  0  0  0  0
  193.6540  176.2400  143.6450 C   0  0  0  0  0  2  0  0  0  0  0  0
  193.7380  176.0510  142.1390 C   0  0  0  0  0  2  0  0  0  0  0  0
  193.2560  173.7870  141.0040 C   0  0  0  0  0  2  0  0  0  0  0  0
  194.1830  174.6670  141.8120 C   0  0  0  0  0  0  0  0  0  0  0  0
  195.4090  174.2670  142.1680 C   0  0  0  0  0  3  0  0  0  0  0  0
  197.0400  172.5540  142.1640 O   0  0  0  0  0  0  0  0  0  0  0  0
  194.9790  171.9840  141.1570 C   0  0  0  0  0  3  0  0  0  0  0  0
  195.8780  172.9160  141.8420 C   0  0  0  0  0  0  0  0  0  0  0  0
  193.7610  172.3810  140.7820 C   0  0  0  0  0  3  0  0  0  0  0  0
  2 17  1  0  0  0  0
  3  5  1  0  0  0  0
  4 15  1  0  0  0  0
  4  6  1  0  0  0  0
  4  1  1  1  0  0  0
  5  8  1  0  0  0  0
  5  7  1  1  0  0  0
  6 29  1  6  0  0  0
  7 11  1  0  0  0  0
  8 12  1  6  0  0  0
  8 15  1  0  0  0  0
  9 12  1  0  0  0  0
 10 14  2  0  0  0  0
 11 14  1  0  0  0  0
 13  2  1  0  0  0  0
 13  6  1  0  0  0  0
 14  1  1  0  0  0  0
 15 17  1  0  0  0  0
 16  9  1  0  0  0  0
 16  3  1  0  0  0  0
 17 20  1  0  0  0  0
 18 16  1  0  0  0  0
 19 18  1  0  0  0  0
 20 21  1  0  0  0  0
 21 23  1  0  0  0  0
 23 22  1  0  0  0  0
 24 17  1  0  0  0  0
 25 24  1  0  0  0  0
 25 26  1  0  0  0  0
 26 28  1  0  0  0  0
 28 27  1  0  0  0  0
 30 29  1  0  0  0  0
 31 32  1  0  0  0  0
 32 30  1  0  0  0  0
 32 33  2  0  0  0  0
 35 36  1  0  0  0  0
 36 34  2  0  0  0  0
 36 33  1  0  0  0  0
 37 31  1  0  0  0  0
 37 35  2  0  0  0  0
M  END
>  <MODEL>
4

>  <REMARK>
 VINA RESULT:      -6.8      1.894      2.574
  Name = 
  11 active torsions:
  status: ('A' for Active; 'I' for Inactive)
    1  A    between atoms: C_1  and  C_5
    2  A    between atoms: C_1  and  C_36
    3  A    between atoms: C_3  and  C_32
    4  A    between atoms: C_5  and  C_23
    5  A    between atoms: C_6  and  C_31
    6  A    between atoms: C_14  and  C_37
    7  A    between atoms: C_17  and  C_26
    8  A    between atoms: C_17  and  O_33
    9  A    between atoms: C_26  and  C_34
   10  A    between atoms: C_31  and  C_37
   11  A    between atoms: O_33  and  C_36
                            x       y       z     vdW  Elec       q    Type
                         _______ _______ _______ _____ _____    ______ ____

>  <TORSDO>
F 11

$$$$
=
 OpenBabel11052420003D

 37 40  0  0  1  0  0  0  0  0999 V2000
  190.6770  173.6470  143.8490 C   0  0  0  0  0  2  0  0  0  0  0  0
  188.7910  177.3280  142.6320 C   0  0  0  0  0  2  0  0  0  0  0  0
  188.4340  172.4850  139.6470 N   0  0  0  0  0  2  0  0  0  0  0  0
  190.3180  174.7500  142.8630 C   0  0  2  0  0  3  0  0  0  0  0  0
  189.0350  172.9860  140.8850 C   0  0  2  0  0  3  0  0  0  0  0  0
  190.9060  176.0910  143.3010 C   0  0  2  0  0  3  0  0  0  0  0  0
  188.9940  171.9150  141.9650 C   0  0  0  0  0  2  0  0  0  0  0  0
  188.3250  174.2800  141.3180 C   0  0  2  0  0  3  0  0  0  0  0  0
  187.8140  174.8370  139.1930 C   0  0  0  0  0  2  0  0  0  0  0  0
  192.4170  172.1390  143.2720 O   0  0  0  0  0  0  0  0  0  0  0  0
  190.3550  171.5820  142.3590 N   0  0  0  0  0  2  0  0  0  0  0  0
  188.5270  175.2600  140.3320 O   0  0  0  0  0  0  0  0  0  0  0  0
  190.3080  177.2030  142.4490 C   0  0  0  0  0  2  0  0  0  0  0  0
  191.1990  172.4330  143.1450 C   0  0  0  0  0  0  0  0  0  0  0  0
  188.7830  174.7810  142.6980 C   0  0  2  0  0  3  0  0  0  0  0  0
  188.4150  173.5410  138.6240 C   0  0  1  0  0  3  0  0  0  0  0  0
  188.0710  176.0720  143.1930 C   0  0  1  0  0  0  0  0  0  0  0  0
  189.8060  173.7900  138.0530 C   0  0  0  0  0  2  0  0  0  0  0  0
  190.3050  172.5560  137.3260 C   0  0  0  0  0  1  0  0  0  0  0  0
  188.1440  176.1100  144.7370 C   0  0  0  0  0  2  0  0  0  0  0  0
  187.9320  177.5030  145.3240 C   0  0  0  0  0  2  0  0  0  0  0  0
  185.7220  176.7890  146.1700 C   0  0  0  0  0  1  0  0  0  0  0  0
  187.0310  177.4500  146.5410 C   0  0  0  0  0  2  0  0  0  0  0  0
  186.7180  176.0340  142.7510 O   0  0  0  0  0  0  0  0  0  0  0  0
  186.3940  177.2050  142.0410 C   0  0  0  0  0  2  0  0  0  0  0  0
  185.2440  177.9080  142.7290 C   0  0  0  0  0  2  0  0  0  0  0  0
  184.7410  179.7710  144.2740 C   0  0  0  0  0  1  0  0  0  0  0  0
  185.7080  179.2610  143.2270 C   0  0  0  0  0  2  0  0  0  0  0  0
  192.4170  176.0760  143.1320 C   0  0  0  0  0  2  0  0  0  0  0  0
  193.0900  176.7150  144.3350 C   0  0  0  0  0  2  0  0  0  0  0  0
  192.7380  174.9590  146.1900 C   0  0  0  0  0  2  0  0  0  0  0  0
  192.4030  176.3080  145.5930 C   0  0  0  0  0  0  0  0  0  0  0  0
  191.5770  177.1660  146.2010 C   0  0  0  0  0  3  0  0  0  0  0  0
  190.1420  177.6190  148.0260 O   0  0  0  0  0  0  0  0  0  0  0  0
  191.1050  175.4600  148.0130 C   0  0  0  0  0  3  0  0  0  0  0  0
  190.9030  176.7980  147.4500 C   0  0  0  0  0  0  0  0  0  0  0  0
  191.9420  174.6040  147.4230 C   0  0  0  0  0  3  0  0  0  0  0  0
  2 17  1  0  0  0  0
  3  5  1  0  0  0  0
  4  6  1  0  0  0  0
  4  1  1  1  0  0  0
  5  8  1  0  0  0  0
  5  7  1  1  0  0  0
  6 29  1  6  0  0  0
  7 11  1  0  0  0  0
  8 12  1  6  0  0  0
  8 15  1  0  0  0  0
  9 12  1  0  0  0  0
 11 14  1  0  0  0  0
 13  2  1  0  0  0  0
 13  6  1  0  0  0  0
 14 10  2  0  0  0  0
 14  1  1  0  0  0  0
 15  4  1  0  0  0  0
 15 17  1  0  0  0  0
 16  9  1  0  0  0  0
 16  3  1  0  0  0  0
 17 20  1  0  0  0  0
 18 16  1  0  0  0  0
 19 18  1  0  0  0  0
 20 21  1  0  0  0  0
 21 23  1  0  0  0  0
 22 23  1  0  0  0  0
 24 17  1  0  0  0  0
 25 26  1  0  0  0  0
 25 24  1  0  0  0  0
 26 28  1  0  0  0  0
 28 27  1  0  0  0  0
 29 30  1  0  0  0  0
 30 32  1  0  0  0  0
 31 37  1  0  0  0  0
 32 31  1  0  0  0  0
 32 33  2  0  0  0  0
 33 36  1  0  0  0  0
 36 35  1  0  0  0  0
 36 34  2  0  0  0  0
 37 35  2  0  0  0  0
M  END
>  <MODEL>
5

>  <REMARK>
 VINA RESULT:      -6.6      2.028      2.839
  Name = 
  11 active torsions:
  status: ('A' for Active; 'I' for Inactive)
    1  A    between atoms: C_1  and  C_5
    2  A    between atoms: C_1  and  C_36
    3  A    between atoms: C_3  and  C_32
    4  A    between atoms: C_5  and  C_23
    5  A    between atoms: C_6  and  C_31
    6  A    between atoms: C_14  and  C_37
    7  A    between atoms: C_17  and  C_26
    8  A    between atoms: C_17  and  O_33
    9  A    between atoms: C_26  and  C_34
   10  A    between atoms: C_31  and  C_37
   11  A    between atoms: O_33  and  C_36
                            x       y       z     vdW  Elec       q    Type
                         _______ _______ _______ _____ _____    ______ ____

>  <TORSDO>
F 11

$$$$
=
 OpenBabel11052420003D

 37 40  0  0  1  0  0  0  0  0999 V2000
  192.3010  174.8870  141.6440 C   0  0  0  0  0  2  0  0  0  0  0  0
  188.5760  172.9110  142.5400 C   0  0  0  0  0  2  0  0  0  0  0  0
  190.4220  177.5330  145.3180 N   0  0  0  0  0  2  0  0  0  0  0  0
  191.2610  174.2600  142.5610 C   0  0  2  0  0  3  0  0  0  0  0  0
  190.8400  176.6510  144.2260 C   0  0  2  0  0  3  0  0  0  0  0  0
  191.0960  172.7680  142.2670 C   0  0  2  0  0  3  0  0  0  0  0  0
  191.5450  177.4510  143.1410 C   0  0  0  0  0  2  0  0  0  0  0  0
  189.6240  175.8810  143.6880 C   0  0  2  0  0  3  0  0  0  0  0  0
  188.5760  175.9270  145.6850 C   0  0  0  0  0  2  0  0  0  0  0  0
  194.4660  175.3160  142.5170 O   0  0  0  0  0  0  0  0  0  0  0  0
  192.9140  176.9720  143.0090 N   0  0  0  0  0  2  0  0  0  0  0  0
  189.1150  175.0630  144.7110 O   0  0  0  0  0  0  0  0  0  0  0  0
  189.8740  172.2440  143.0080 C   0  0  0  0  0  2  0  0  0  0  0  0
  193.2780  175.7210  142.4130 C   0  0  0  0  0  0  0  0  0  0  0  0
  189.9450  175.0560  142.4300 C   0  0  2  0  0  3  0  0  0  0  0  0
  189.6830  176.7720  146.3360 C   0  0  1  0  0  3  0  0  0  0  0  0
  188.7370  174.2830  141.8310 C   0  0  1  0  0  0  0  0  0  0  0  0
  190.6180  175.9010  147.1670 C   0  0  0  0  0  2  0  0  0  0  0  0
  191.3590  176.7450  148.1860 C   0  0  0  0  0  1  0  0  0  0  0  0
  189.0120  174.0320  140.3290 C   0  0  0  0  0  2  0  0  0  0  0  0
  188.3590  172.7600  139.7930 C   0  0  0  0  0  2  0  0  0  0  0  0
  190.5330  172.7600  138.6150 C   0  0  0  0  0  1  0  0  0  0  0  0
  189.3640  171.9020  139.0520 C   0  0  0  0  0  2  0  0  0  0  0  0
  187.5670  175.0740  142.0040 O   0  0  0  0  0  0  0  0  0  0  0  0
  187.5130  176.0990  141.0410 C   0  0  0  0  0  2  0  0  0  0  0  0
  186.4780  177.1230  141.4540 C   0  0  0  0  0  2  0  0  0  0  0  0
  186.6320  178.3030  143.6210 C   0  0  0  0  0  1  0  0  0  0  0  0
  187.1580  178.2510  142.2020 C   0  0  0  0  0  2  0  0  0  0  0  0
  192.3330  172.0100  142.7220 C   0  0  0  0  0  2  0  0  0  0  0  0
  192.3870  171.9520  144.2400 C   0  0  0  0  0  2  0  0  0  0  0  0
  194.9420  172.2650  144.3790 C   0  0  0  0  0  2  0  0  0  0  0  0
  193.5520  172.7290  144.7500 C   0  0  0  0  0  0  0  0  0  0  0  0
  193.3410  173.8500  145.4480 C   0  0  0  0  0  3  0  0  0  0  0  0
  194.2620  175.7080  146.5850 O   0  0  0  0  0  0  0  0  0  0  0  0
  195.8390  174.1800  145.7100 C   0  0  0  0  0  3  0  0  0  0  0  0
  194.4690  174.6440  145.9450 C   0  0  0  0  0  0  0  0  0  0  0  0
  196.0580  173.0720  144.9980 C   0  0  0  0  0  3  0  0  0  0  0  0
  1 14  1  0  0  0  0
  2 13  1  0  0  0  0
  3 16  1  0  0  0  0
  4  1  1  6  0  0  0
  5  7  1  6  0  0  0
  5  3  1  0  0  0  0
  6  4  1  0  0  0  0
  6 29  1  1  0  0  0
  6 13  1  0  0  0  0
  8  5  1  0  0  0  0
  8 12  1  1  0  0  0
  9 16  1  0  0  0  0
 11  7  1  0  0  0  0
 12  9  1  0  0  0  0
 14 10  2  0  0  0  0
 14 11  1  0  0  0  0
 15  4  1  0  0  0  0
 15  8  1  0  0  0  0
 16 18  1  0  0  0  0
 17 24  1  0  0  0  0
 17 15  1  0  0  0  0
 17  2  1  0  0  0  0
 18 19  1  0  0  0  0
 20 17  1  0  0  0  0
 21 20  1  0  0  0  0
 22 23  1  0  0  0  0
 23 21  1  0  0  0  0
 25 26  1  0  0  0  0
 25 24  1  0  0  0  0
 26 28  1  0  0  0  0
 28 27  1  0  0  0  0
 29 30  1  0  0  0  0
 30 32  1  0  0  0  0
 31 32  1  0  0  0  0
 31 37  1  0  0  0  0
 32 33  2  0  0  0  0
 33 36  1  0  0  0  0
 35 36  1  0  0  0  0
 36 34  2  0  0  0  0
 37 35  2  0  0  0  0
M  END
>  <MODEL>
6

>  <REMARK>
 VINA RESULT:      -6.6      2.225      5.159
  Name = 
  11 active torsions:
  status: ('A' for Active; 'I' for Inactive)
    1  A    between atoms: C_1  and  C_5
    2  A    between atoms: C_1  and  C_36
    3  A    between atoms: C_3  and  C_32
    4  A    between atoms: C_5  and  C_23
    5  A    between atoms: C_6  and  C_31
    6  A    between atoms: C_14  and  C_37
    7  A    between atoms: C_17  and  C_26
    8  A    between atoms: C_17  and  O_33
    9  A    between atoms: C_26  and  C_34
   10  A    between atoms: C_31  and  C_37
   11  A    between atoms: O_33  and  C_36
                            x       y       z     vdW  Elec       q    Type
                         _______ _______ _______ _____ _____    ______ ____

>  <TORSDO>
F 11

$$$$
=
 OpenBabel11052420003D

 37 40  0  0  1  0  0  0  0  0999 V2000
  191.0380  174.5370  141.9230 C   0  0  0  0  0  2  0  0  0  0  0  0
  189.2770  174.7550  145.8510 C   0  0  0  0  0  2  0  0  0  0  0  0
  194.5450  176.5850  144.6690 N   0  0  0  0  0  2  0  0  0  0  0  0
  191.0120  174.3460  143.4320 C   0  0  2  0  0  3  0  0  0  0  0  0
  193.4000  175.9770  143.9870 C   0  0  2  0  0  3  0  0  0  0  0  0
  189.9290  173.3470  143.8410 C   0  0  2  0  0  3  0  0  0  0  0  0
  193.2660  176.5350  142.5780 C   0  0  0  0  0  2  0  0  0  0  0  0
  192.1270  176.1900  144.8230 C   0  0  2  0  0  3  0  0  0  0  0  0
  193.2780  176.2220  146.7630 C   0  0  0  0  0  2  0  0  0  0  0  0
  192.7340  173.4420  140.6740 O   0  0  0  0  0  0  0  0  0  0  0  0
  193.4180  175.4500  141.6190 N   0  0  0  0  0  2  0  0  0  0  0  0
  192.2770  175.5290  146.0540 O   0  0  0  0  0  0  0  0  0  0  0  0
  189.7570  173.3870  145.3540 C   0  0  0  0  0  2  0  0  0  0  0  0
  192.4310  174.4380  141.3820 C   0  0  0  0  0  0  0  0  0  0  0  0
  190.8500  175.7280  144.1000 C   0  0  2  0  0  3  0  0  0  0  0  0
  194.6360  176.0950  146.0520 C   0  0  1  0  0  3  0  0  0  0  0  0
  189.5330  175.9520  144.8950 C   0  0  1  0  0  0  0  0  0  0  0  0
  195.1460  174.6600  146.1030 C   0  0  0  0  0  2  0  0  0  0  0  0
  196.4500  174.5370  145.3380 C   0  0  0  0  0  1  0  0  0  0  0  0
  188.3620  176.0360  143.8880 C   0  0  0  0  0  2  0  0  0  0  0  0
  188.2560  177.3890  143.1870 C   0  0  0  0  0  2  0  0  0  0  0  0
  185.8580  176.7900  143.2220 C   0  0  0  0  0  1  0  0  0  0  0  0
  186.8460  177.9360  143.2690 C   0  0  0  0  0  2  0  0  0  0  0  0
  189.6550  177.1630  145.6320 O   0  0  0  0  0  0  0  0  0  0  0  0
  189.0380  177.0420  146.8920 C   0  0  0  0  0  2  0  0  0  0  0  0
  187.7670  177.8630  146.9090 C   0  0  0  0  0  2  0  0  0  0  0  0
  185.3020  177.7200  146.7960 C   0  0  0  0  0  1  0  0  0  0  0  0
  186.5750  176.9410  147.0530 C   0  0  0  0  0  2  0  0  0  0  0  0
  190.3280  171.9440  143.4110 C   0  0  0  0  0  2  0  0  0  0  0  0
  191.4800  171.4380  144.2640 C   0  0  0  0  0  2  0  0  0  0  0  0
  193.9400  172.0570  143.8010 C   0  0  0  0  0  2  0  0  0  0  0  0
  192.7050  171.2640  143.4340 C   0  0  0  0  0  0  0  0  0  0  0  0
  192.7100  170.3640  142.4450 C   0  0  0  0  0  3  0  0  0  0  0  0
  193.9100  169.2960  140.7090 O   0  0  0  0  0  0  0  0  0  0  0  0
  195.0970  170.9810  141.8670 C   0  0  0  0  0  3  0  0  0  0  0  0
  193.9080  170.1590  141.6250 C   0  0  0  0  0  0  0  0  0  0  0  0
  195.1080  171.8690  142.8630 C   0  0  0  0  0  3  0  0  0  0  0  0
  3 16  1  0  0  0  0
  4  1  1  6  0  0  0
  4  6  1  0  0  0  0
  4 15  1  0  0  0  0
  5  7  1  6  0  0  0
  5  3  1  0  0  0  0
  5  8  1  0  0  0  0
  6 29  1  1  0  0  0
  6 13  1  0  0  0  0
  8 12  1  1  0  0  0
 10 14  2  0  0  0  0
 11  7  1  0  0  0  0
 12  9  1  0  0  0  0
 13  2  1  0  0  0  0
 14 11  1  0  0  0  0
 14  1  1  0  0  0  0
 15  8  1  0  0  0  0
 15 17  1  0  0  0  0
 16 18  1  0  0  0  0
 16  9  1  0  0  0  0
 17 24  1  0  0  0  0
 17  2  1  0  0  0  0
 19 18  1  0  0  0  0
 20 17  1  0  0  0  0
 21 23  1  0  0  0  0
 21 20  1  0  0  0  0
 22 23  1  0  0  0  0
 24 25  1  0  0  0  0
 25 26  1  0  0  0  0
 26 28  1  0  0  0  0
 27 28  1  0  0  0  0
 29 30  1  0  0  0  0
 32 31  1  0  0  0  0
 32 30  1  0  0  0  0
 33 32  2  0  0  0  0
 34 36  2  0  0  0  0
 35 37  2  0  0  0  0
 36 35  1  0  0  0  0
 36 33  1  0  0  0  0
 37 31  1  0  0  0  0
M  END
>  <MODEL>
7

>  <REMARK>
 VINA RESULT:      -6.5      2.628      5.269
  Name = 
  11 active torsions:
  status: ('A' for Active; 'I' for Inactive)
    1  A    between atoms: C_1  and  C_5
    2  A    between atoms: C_1  and  C_36
    3  A    between atoms: C_3  and  C_32
    4  A    between atoms: C_5  and  C_23
    5  A    between atoms: C_6  and  C_31
    6  A    between atoms: C_14  and  C_37
    7  A    between atoms: C_17  and  C_26
    8  A    between atoms: C_17  and  O_33
    9  A    between atoms: C_26  and  C_34
   10  A    between atoms: C_31  and  C_37
   11  A    between atoms: O_33  and  C_36
                            x       y       z     vdW  Elec       q    Type
                         _______ _______ _______ _____ _____    ______ ____

>  <TORSDO>
F 11

$$$$
=
 OpenBabel11052420003D

 37 40  0  0  1  0  0  0  0  0999 V2000
  191.6850  174.6830  141.4580 C   0  0  0  0  0  2  0  0  0  0  0  0
  189.8410  174.5630  145.3520 C   0  0  0  0  0  2  0  0  0  0  0  0
  195.2730  176.0640  144.4990 N   0  0  0  0  0  2  0  0  0  0  0  0
  191.6020  174.3090  142.9300 C   0  0  2  0  0  3  0  0  0  0  0  0
  194.1010  175.6470  143.7270 C   0  0  2  0  0  3  0  0  0  0  0  0
  190.4290  173.3640  143.1920 C   0  0  2  0  0  3  0  0  0  0  0  0
  194.0530  176.3850  142.3970 C   0  0  0  0  0  2  0  0  0  0  0  0
  192.8280  175.8630  144.5620 C   0  0  2  0  0  3  0  0  0  0  0  0
  193.9240  175.5540  146.5090 C   0  0  0  0  0  2  0  0  0  0  0  0
  193.3180  173.6100  140.1100 O   0  0  0  0  0  0  0  0  0  0  0  0
  194.1400  175.4180  141.3120 N   0  0  0  0  0  2  0  0  0  0  0  0
  192.8880  175.0430  145.7020 O   0  0  0  0  0  0  0  0  0  0  0  0
  190.2190  173.2300  144.6940 C   0  0  0  0  0  2  0  0  0  0  0  0
  193.0790  174.5330  140.9320 C   0  0  0  0  0  0  0  0  0  0  0  0
  191.5380  175.6060  143.7640 C   0  0  2  0  0  3  0  0  0  0  0  0
  195.2850  175.4000  145.8110 C   0  0  1  0  0  3  0  0  0  0  0  0
  190.2220  175.8420  144.5590 C   0  0  1  0  0  0  0  0  0  0  0  0
  195.6730  173.9310  145.6880 C   0  0  0  0  0  2  0  0  0  0  0  0
  197.1760  173.7710  145.8080 C   0  0  0  0  0  1  0  0  0  0  0  0
  189.0910  176.1520  143.5510 C   0  0  0  0  0  2  0  0  0  0  0  0
  189.1550  177.5650  142.9770 C   0  0  0  0  0  2  0  0  0  0  0  0
  187.7030  176.3760  141.3670 C   0  0  0  0  0  1  0  0  0  0  0  0
  188.1660  177.7370  141.8420 C   0  0  0  0  0  2  0  0  0  0  0  0
  190.4240  176.9370  145.4450 O   0  0  0  0  0  0  0  0  0  0  0  0
  189.8320  176.6800  146.6960 C   0  0  0  0  0  2  0  0  0  0  0  0
  188.6680  177.6250  146.9050 C   0  0  0  0  0  2  0  0  0  0  0  0
  186.4460  177.4250  145.8430 C   0  0  0  0  0  1  0  0  0  0  0  0
  187.3740  176.8400  146.8860 C   0  0  0  0  0  2  0  0  0  0  0  0
  190.7210  171.9970  142.5950 C   0  0  0  0  0  2  0  0  0  0  0  0
  189.5450  171.5240  141.7560 C   0  0  0  0  0  2  0  0  0  0  0  0
  190.6340  171.6340  139.4220 C   0  0  0  0  0  2  0  0  0  0  0  0
  189.5940  172.1360  140.3980 C   0  0  0  0  0  0  0  0  0  0  0  0
  188.6790  173.0480  140.0520 C   0  0  0  0  0  3  0  0  0  0  0  0
  187.8170  174.4940  138.3910 O   0  0  0  0  0  0  0  0  0  0  0  0
  189.7480  173.2820  137.7670 C   0  0  0  0  0  3  0  0  0  0  0  0
  188.6930  173.6510  138.7160 C   0  0  0  0  0  0  0  0  0  0  0  0
  190.6540  172.3600  138.0990 C   0  0  0  0  0  3  0  0  0  0  0  0
  3 16  1  0  0  0  0
  4  1  1  6  0  0  0
  4  6  1  0  0  0  0
  4 15  1  0  0  0  0
  5  7  1  6  0  0  0
  5  3  1  0  0  0  0
  5  8  1  0  0  0  0
  6 29  1  1  0  0  0
  6 13  1  0  0  0  0
  8 12  1  1  0  0  0
 10 14  2  0  0  0  0
 11  7  1  0  0  0  0
 12  9  1  0  0  0  0
 13  2  1  0  0  0  0
 14 11  1  0  0  0  0
 14  1  1  0  0  0  0
 15 17  1  0  0  0  0
 15  8  1  0  0  0  0
 16  9  1  0  0  0  0
 17  2  1  0  0  0  0
 17 24  1  0  0  0  0
 18 19  1  0  0  0  0
 18 16  1  0  0  0  0
 20 17  1  0  0  0  0
 21 20  1  0  0  0  0
 22 23  1  0  0  0  0
 23 21  1  0  0  0  0
 24 25  1  0  0  0  0
 25 26  1  0  0  0  0
 27 28  1  0  0  0  0
 28 26  1  0  0  0  0
 30 29  1  0  0  0  0
 31 32  1  0  0  0  0
 32 30  1  0  0  0  0
 33 32  2  0  0  0  0
 34 36  2  0  0  0  0
 35 37  2  0  0  0  0
 35 36  1  0  0  0  0
 36 33  1  0  0  0  0
 37 31  1  0  0  0  0
M  END
>  <MODEL>
8

>  <REMARK>
 VINA RESULT:      -6.4      2.345      6.529
  Name = 
  11 active torsions:
  status: ('A' for Active; 'I' for Inactive)
    1  A    between atoms: C_1  and  C_5
    2  A    between atoms: C_1  and  C_36
    3  A    between atoms: C_3  and  C_32
    4  A    between atoms: C_5  and  C_23
    5  A    between atoms: C_6  and  C_31
    6  A    between atoms: C_14  and  C_37
    7  A    between atoms: C_17  and  C_26
    8  A    between atoms: C_17  and  O_33
    9  A    between atoms: C_26  and  C_34
   10  A    between atoms: C_31  and  C_37
   11  A    between atoms: O_33  and  C_36
                            x       y       z     vdW  Elec       q    Type
                         _______ _______ _______ _____ _____    ______ ____

>  <TORSDO>
F 11

$$$$
=
 OpenBabel11052420003D

 37 40  0  0  1  0  0  0  0  0999 V2000
  191.4760  175.8400  143.1050 C   0  0  0  0  0  2  0  0  0  0  0  0
  188.4920  172.9350  141.9910 C   0  0  0  0  0  2  0  0  0  0  0  0
  187.3240  178.4390  142.9040 N   0  0  0  0  0  2  0  0  0  0  0  0
  190.1390  175.1230  143.2270 C   0  0  2  0  0  3  0  0  0  0  0  0
  188.4730  177.5300  142.9110 C   0  0  2  0  0  3  0  0  0  0  0  0
  190.3360  173.6500  143.5840 C   0  0  2  0  0  3  0  0  0  0  0  0
  189.7130  178.2400  142.3880 C   0  0  0  0  0  2  0  0  0  0  0  0
  188.1380  176.2660  142.1020 C   0  0  2  0  0  3  0  0  0  0  0  0
  185.9380  176.4160  142.5770 C   0  0  0  0  0  2  0  0  0  0  0  0
  192.1870  177.2200  144.9000 O   0  0  0  0  0  0  0  0  0  0  0  0
  190.7230  178.2710  143.4360 N   0  0  0  0  0  2  0  0  0  0  0  0
  187.0730  175.5960  142.7280 O   0  0  0  0  0  0  0  0  0  0  0  0
  189.0090  172.9170  143.4350 C   0  0  0  0  0  2  0  0  0  0  0  0
  191.4780  177.1310  143.8640 C   0  0  0  0  0  0  0  0  0  0  0  0
  189.3470  175.3330  141.9190 C   0  0  2  0  0  3  0  0  0  0  0  0
  186.1120  177.7350  143.3470 C   0  0  1  0  0  3  0  0  0  0  0  0
  189.0640  174.0550  141.0810 C   0  0  1  0  0  0  0  0  0  0  0  0
  186.1290  177.4910  144.8520 C   0  0  0  0  0  2  0  0  0  0  0  0
  185.6860  178.7360  145.5940 C   0  0  0  0  0  1  0  0  0  0  0  0
  190.3980  173.5630  140.4730 C   0  0  0  0  0  2  0  0  0  0  0  0
  190.5520  172.0440  140.4870 C   0  0  0  0  0  2  0  0  0  0  0  0
  192.8130  172.8870  141.0230 C   0  0  0  0  0  1  0  0  0  0  0  0
  191.9750  171.6430  140.8200 C   0  0  0  0  0  2  0  0  0  0  0  0
  188.1340  174.3880  140.0560 O   0  0  0  0  0  0  0  0  0  0  0  0
  188.3740  173.6240  138.8990 C   0  0  0  0  0  2  0  0  0  0  0  0
  188.1910  174.4940  137.6750 C   0  0  0  0  0  2  0  0  0  0  0  0
  189.7310  172.7400  136.8640 C   0  0  0  0  0  1  0  0  0  0  0  0
  189.2640  174.1650  136.6590 C   0  0  0  0  0  2  0  0  0  0  0  0
  190.8280  173.5240  145.0180 C   0  0  0  0  0  2  0  0  0  0  0  0
  189.6910  173.7910  145.9910 C   0  0  0  0  0  2  0  0  0  0  0  0
  188.7320  176.1630  146.3050 C   0  0  0  0  0  2  0  0  0  0  0  0
  189.8210  175.1520  146.5840 C   0  0  0  0  0  0  0  0  0  0  0  0
  190.8450  175.4200  147.4020 C   0  0  0  0  0  3  0  0  0  0  0  0
  191.9410  176.9840  148.7970 O   0  0  0  0  0  0  0  0  0  0  0  0
  190.0180  177.7970  147.6890 C   0  0  0  0  0  3  0  0  0  0  0  0
  190.9860  176.7460  148.0130 C   0  0  0  0  0  0  0  0  0  0  0  0
  188.9840  177.5330  146.8880 C   0  0  0  0  0  3  0  0  0  0  0  0
  1 14  1  0  0  0  0
  2 13  1  0  0  0  0
  3  5  1  0  0  0  0
  3 16  1  0  0  0  0
  4  1  1  6  0  0  0
  4  6  1  0  0  0  0
  5  7  1  6  0  0  0
  6 29  1  1  0  0  0
  7 11  1  0  0  0  0
  8 12  1  1  0  0  0
  8  5  1  0  0  0  0
  9 12  1  0  0  0  0
  9 16  1  0  0  0  0
 11 14  1  0  0  0  0
 13  6  1  0  0  0  0
 14 10  2  0  0  0  0
 15  8  1  0  0  0  0
 15  4  1  0  0  0  0
 16 18  1  0  0  0  0
 17 15  1  0  0  0  0
 17  2  1  0  0  0  0
 18 19  1  0  0  0  0
 20 21  1  0  0  0  0
 20 17  1  0  0  0  0
 21 23  1  0  0  0  0
 23 22  1  0  0  0  0
 24 17  1  0  0  0  0
 25 24  1  0  0  0  0
 26 25  1  0  0  0  0
 28 27  1  0  0  0  0
 28 26  1  0  0  0  0
 29 30  1  0  0  0  0
 30 32  1  0  0  0  0
 31 32  1  0  0  0  0
 31 37  1  0  0  0  0
 32 33  2  0  0  0  0
 33 36  1  0  0  0  0
 35 36  1  0  0  0  0
 36 34  2  0  0  0  0
 37 35  2  0  0  0  0
M  END
>  <MODEL>
9

>  <REMARK>
 VINA RESULT:      -6.4      3.060      6.395
  Name = 
  11 active torsions:
  status: ('A' for Active; 'I' for Inactive)
    1  A    between atoms: C_1  and  C_5
    2  A    between atoms: C_1  and  C_36
    3  A    between atoms: C_3  and  C_32
    4  A    between atoms: C_5  and  C_23
    5  A    between atoms: C_6  and  C_31
    6  A    between atoms: C_14  and  C_37
    7  A    between atoms: C_17  and  C_26
    8  A    between atoms: C_17  and  O_33
    9  A    between atoms: C_26  and  C_34
   10  A    between atoms: C_31  and  C_37
   11  A    between atoms: O_33  and  C_36
                            x       y       z     vdW  Elec       q    Type
                         _______ _______ _______ _____ _____    ______ ____

>  <TORSDO>
F 11

$$$$
