=
 OpenBabel11052419153D

 32 36  0  0  1  0  0  0  0  0999 V2000
  189.3170  176.2000  146.0600 C   0  0  1  0  0  3  0  0  0  0  0  0
  187.6220  177.5490  145.1420 C   0  0  0  0  0  0  0  0  0  0  0  0
  186.9530  176.3480  147.1150 C   0  0  0  0  0  3  0  0  0  0  0  0
  184.7960  179.6400  144.0470 N   0  0  0  0  0  2  0  0  0  0  0  0
  187.9090  176.6720  146.1550 C   0  0  0  0  0  0  0  0  0  0  0  0
  184.1910  178.3850  146.0210 C   0  0  0  0  0  3  0  0  0  0  0  0
  185.4100  177.8300  146.0440 C   0  0  0  0  0  0  0  0  0  0  0  0
  185.7230  176.9390  147.0330 N   0  0  0  0  0  0  0  0  0  0  0  0
  188.7210  177.7230  144.2640 N   0  0  0  0  0  2  0  0  0  0  0  0
  189.8110  176.8620  144.7410 C   0  0  2  0  0  3  0  0  0  0  0  0
  186.3690  178.1610  145.0520 C   0  0  0  0  0  0  0  0  0  0  0  0
  183.8710  179.3100  145.0180 O   0  0  0  0  0  0  0  0  0  0  0  0
  186.0920  179.0340  144.0770 C   0  0  0  0  0  3  0  0  0  0  0  0
  191.6240  174.8960  142.0140 C   0  0  0  0  0  0  0  0  0  0  0  0
  192.7750  174.9680  141.2430 O   0  0  0  0  0  1  0  0  0  0  0  0
  190.1470  175.8090  143.7200 C   0  0  0  0  0  0  0  0  0  0  0  0
  190.7880  173.7860  141.8840 C   0  0  0  0  0  3  0  0  0  0  0  0
  189.3240  174.6770  143.5880 C   0  0  0  0  0  3  0  0  0  0  0  0
  191.3050  175.9160  142.9230 C   0  0  0  0  0  0  0  0  0  0  0  0
  192.2230  177.0880  143.0710 C   0  0  0  0  0  1  0  0  0  0  0  0
  189.6380  173.6700  142.6680 C   0  0  0  0  0  0  0  0  0  0  0  0
  187.5650  172.5790  141.8740 C   0  0  0  0  0  1  0  0  0  0  0  0
  188.8310  172.5350  142.5220 O   0  0  0  0  0  0  0  0  0  0  0  0
  190.0700  177.8990  147.7100 C   0  0  0  0  0  2  0  0  0  0  0  0
  190.1260  176.6850  147.2370 C   0  0  2  0  0  3  0  0  0  0  0  0
  191.1480  175.9630  147.9070 N   0  0  0  0  0  0  0  0  0  0  0  0
  191.6030  176.6560  148.9820 O   0  0  0  0  0  0  0  0  0  0  0  0
  191.1220  177.9700  148.7670 C   0  0  0  0  0  2  0  0  0  0  0  0
  192.0140  175.0070  147.2330 C   0  0  0  0  0  2  0  0  0  0  0  0
  193.0980  175.7400  146.4510 C   0  0  0  0  0  2  0  0  0  0  0  0
  193.8580  174.7930  145.5300 C   0  0  0  0  0  2  0  0  0  0  0  0
  193.0050  173.5610  145.2430 C   0  0  0  0  0  1  0  0  0  0  0  0
  1  5  1  1  0  0  0
  1 25  1  0  0  0  0
  2  5  2  0  0  0  0
  4 13  1  0  0  0  0
  4 12  1  0  0  0  0
  5  3  1  0  0  0  0
  6  7  2  0  0  0  0
  7  8  1  0  0  0  0
  8  3  2  0  0  0  0
  9 10  1  0  0  0  0
  9  2  1  0  0  0  0
 10 16  1  6  0  0  0
 10  1  1  0  0  0  0
 11  2  1  0  0  0  0
 11  7  1  0  0  0  0
 12  6  1  0  0  0  0
 13 11  2  0  0  0  0
 14 19  1  0  0  0  0
 15 14  1  0  0  0  0
 17 14  2  0  0  0  0
 17 21  1  0  0  0  0
 18 16  1  0  0  0  0
 19 20  1  0  0  0  0
 19 16  2  0  0  0  0
 21 18  2  0  0  0  0
 22 23  1  0  0  0  0
 23 21  1  0  0  0  0
 24 28  1  0  0  0  0
 25 24  1  6  0  0  0
 25 26  1  0  0  0  0
 26 27  1  0  0  0  0
 28 27  1  0  0  0  0
 29 26  1  0  0  0  0
 30 29  1  0  0  0  0
 31 30  1  0  0  0  0
 32 31  1  0  0  0  0
M  END
>  <MODEL>
1

>  <REMARK>
 VINA RESULT:      -7.1      0.000      0.000
  Name = 
  6 active torsions:
  status: ('A' for Active; 'I' for Inactive)
    1  A    between atoms: C_1  and  C_5
    2  A    between atoms: C_13  and  C_18
    3  A    between atoms: N_14  and  C_29
    4  A    between atoms: O_15  and  C_26
    5  A    between atoms: C_16  and  C_27
    6  A    between atoms: C_18  and  C_29
                            x       y       z     vdW  Elec       q    Type
                         _______ _______ _______ _____ _____    ______ ____

>  <TORSDO>
F 6

$$$$
=
 OpenBabel11052419153D

 32 36  0  0  1  0  0  0  0  0999 V2000
  189.1900  175.9430  143.1780 C   0  0  1  0  0  3  0  0  0  0  0  0
  187.3210  176.8760  144.2600 C   0  0  0  0  0  0  0  0  0  0  0  0
  187.7680  177.8220  142.0960 C   0  0  0  0  0  3  0  0  0  0  0  0
  184.2840  178.4610  145.6100 N   0  0  0  0  0  2  0  0  0  0  0  0
  188.0830  176.9360  143.1230 C   0  0  0  0  0  0  0  0  0  0  0  0
  184.8090  179.3760  143.4360 C   0  0  0  0  0  3  0  0  0  0  0  0
  185.8800  178.5760  143.3550 C   0  0  0  0  0  0  0  0  0  0  0  0
  186.6700  178.6220  142.2400 N   0  0  0  0  0  0  0  0  0  0  0  0
  187.8240  175.9280  145.1870 N   0  0  0  0  0  2  0  0  0  0  0  0
  189.0350  175.3380  144.6030 C   0  0  2  0  0  3  0  0  0  0  0  0
  186.1930  177.6870  144.4160 C   0  0  0  0  0  0  0  0  0  0  0  0
  183.9880  179.3220  144.5700 O   0  0  0  0  0  0  0  0  0  0  0  0
  185.4350  177.6170  145.5160 C   0  0  0  0  0  3  0  0  0  0  0  0
  191.4540  175.5510  147.5520 C   0  0  0  0  0  0  0  0  0  0  0  0
  191.5380  175.1720  148.8830 O   0  0  0  0  0  1  0  0  0  0  0  0
  190.2430  175.6560  145.4430 C   0  0  0  0  0  0  0  0  0  0  0  0
  192.5440  176.1880  146.9570 C   0  0  0  0  0  3  0  0  0  0  0  0
  191.3550  176.2820  144.8550 C   0  0  0  0  0  3  0  0  0  0  0  0
  190.2960  175.2900  146.8040 C   0  0  0  0  0  0  0  0  0  0  0  0
  189.1450  174.5830  147.4460 C   0  0  0  0  0  1  0  0  0  0  0  0
  192.5020  176.5560  145.6100 C   0  0  0  0  0  0  0  0  0  0  0  0
  194.7700  177.5220  145.8060 C   0  0  0  0  0  1  0  0  0  0  0  0
  193.6200  177.1790  145.0430 O   0  0  0  0  0  0  0  0  0  0  0  0
  187.9180  174.1850  141.9670 C   0  0  0  0  0  2  0  0  0  0  0  0
  189.0100  174.8800  142.1230 C   0  0  2  0  0  3  0  0  0  0  0  0
  190.0150  174.3840  141.2520 N   0  0  0  0  0  0  0  0  0  0  0  0
  189.4910  173.5020  140.3630 O   0  0  0  0  0  0  0  0  0  0  0  0
  188.2290  173.1720  140.9160 C   0  0  0  0  0  2  0  0  0  0  0  0
  191.4170  174.2930  141.6320 C   0  0  0  0  0  2  0  0  0  0  0  0
  191.7400  172.8860  142.1200 C   0  0  0  0  0  2  0  0  0  0  0  0
  191.7810  172.8180  143.6420 C   0  0  0  0  0  2  0  0  0  0  0  0
  190.5460  172.0850  144.1570 C   0  0  0  0  0  1  0  0  0  0  0  0
  1  5  1  6  0  0  0
  1 10  1  0  0  0  0
  2 11  1  0  0  0  0
  2  9  1  0  0  0  0
  3  8  2  0  0  0  0
  3  5  1  0  0  0  0
  5  2  2  0  0  0  0
  6 12  1  0  0  0  0
  7  6  2  0  0  0  0
  7 11  1  0  0  0  0
  8  7  1  0  0  0  0
 10  9  1  0  0  0  0
 10 16  1  1  0  0  0
 11 13  2  0  0  0  0
 12  4  1  0  0  0  0
 13  4  1  0  0  0  0
 14 15  1  0  0  0  0
 16 19  1  0  0  0  0
 17 14  1  0  0  0  0
 18 16  2  0  0  0  0
 18 21  1  0  0  0  0
 19 20  1  0  0  0  0
 19 14  2  0  0  0  0
 21 17  2  0  0  0  0
 23 21  1  0  0  0  0
 23 22  1  0  0  0  0
 25 24  1  1  0  0  0
 25  1  1  0  0  0  0
 26 29  1  0  0  0  0
 26 25  1  0  0  0  0
 27 28  1  0  0  0  0
 27 26  1  0  0  0  0
 28 24  1  0  0  0  0
 29 30  1  0  0  0  0
 30 31  1  0  0  0  0
 31 32  1  0  0  0  0
M  END
>  <MODEL>
2

>  <REMARK>
 VINA RESULT:      -6.9      1.997      5.176
  Name = 
  6 active torsions:
  status: ('A' for Active; 'I' for Inactive)
    1  A    between atoms: C_1  and  C_5
    2  A    between atoms: C_13  and  C_18
    3  A    between atoms: N_14  and  C_29
    4  A    between atoms: O_15  and  C_26
    5  A    between atoms: C_16  and  C_27
    6  A    between atoms: C_18  and  C_29
                            x       y       z     vdW  Elec       q    Type
                         _______ _______ _______ _____ _____    ______ ____

>  <TORSDO>
F 6

$$$$
=
 OpenBabel11052419153D

 32 36  0  0  1  0  0  0  0  0999 V2000
  190.1850  175.0960  143.2310 C   0  0  1  0  0  3  0  0  0  0  0  0
  188.7390  175.8680  144.9190 C   0  0  0  0  0  0  0  0  0  0  0  0
  188.7070  177.2040  142.9210 C   0  0  0  0  0  3  0  0  0  0  0  0
  186.2930  177.2690  147.2870 N   0  0  0  0  0  2  0  0  0  0  0  0
  189.1910  176.1210  143.6510 C   0  0  0  0  0  0  0  0  0  0  0  0
  186.3310  178.5750  145.2540 C   0  0  0  0  0  3  0  0  0  0  0  0
  187.2720  177.7660  144.7500 C   0  0  0  0  0  0  0  0  0  0  0  0
  187.7550  178.0010  143.4930 N   0  0  0  0  0  0  0  0  0  0  0  0
  189.3740  174.7370  145.4920 N   0  0  0  0  0  2  0  0  0  0  0  0
  190.3420  174.2280  144.5120 C   0  0  2  0  0  3  0  0  0  0  0  0
  187.7630  176.6740  145.5110 C   0  0  0  0  0  0  0  0  0  0  0  0
  185.8210  178.3290  146.5360 O   0  0  0  0  0  0  0  0  0  0  0  0
  187.3040  176.4170  146.7410 C   0  0  0  0  0  3  0  0  0  0  0  0
  193.9480  173.3650  145.4300 C   0  0  0  0  0  0  0  0  0  0  0  0
  194.8400  172.3060  145.3410 O   0  0  0  0  0  1  0  0  0  0  0  0
  191.7460  174.3280  145.0450 C   0  0  0  0  0  0  0  0  0  0  0  0
  194.3830  174.5760  145.9700 C   0  0  0  0  0  3  0  0  0  0  0  0
  192.2040  175.5450  145.5770 C   0  0  0  0  0  3  0  0  0  0  0  0
  192.6280  173.2300  144.9740 C   0  0  0  0  0  0  0  0  0  0  0  0
  192.1820  171.9350  144.3740 C   0  0  0  0  0  1  0  0  0  0  0  0
  193.5180  175.6700  146.0460 C   0  0  0  0  0  0  0  0  0  0  0  0
  194.8640  177.7350  145.8570 C   0  0  0  0  0  1  0  0  0  0  0  0
  193.9930  176.8740  146.5800 O   0  0  0  0  0  0  0  0  0  0  0  0
  188.4350  173.8030  142.0300 C   0  0  0  0  0  2  0  0  0  0  0  0
  189.6510  174.2690  142.0870 C   0  0  2  0  0  3  0  0  0  0  0  0
  190.4030  173.7660  140.9940 N   0  0  0  0  0  0  0  0  0  0  0  0
  189.5950  173.1450  140.0970 O   0  0  0  0  0  0  0  0  0  0  0  0
  188.3890  172.9420  140.8110 C   0  0  0  0  0  2  0  0  0  0  0  0
  191.8020  173.3800  141.1070 C   0  0  0  0  0  2  0  0  0  0  0  0
  192.7000  174.5970  140.9210 C   0  0  0  0  0  2  0  0  0  0  0  0
  193.8770  174.5750  141.8890 C   0  0  0  0  0  2  0  0  0  0  0  0
  194.1540  175.9880  142.3930 C   0  0  0  0  0  1  0  0  0  0  0  0
  1  5  1  1  0  0  0
  1 10  1  0  0  0  0
  2  9  1  0  0  0  0
  2 11  1  0  0  0  0
  3  8  2  0  0  0  0
  3  5  1  0  0  0  0
  5  2  2  0  0  0  0
  6 12  1  0  0  0  0
  7  6  2  0  0  0  0
  7 11  1  0  0  0  0
  8  7  1  0  0  0  0
 10 16  1  1  0  0  0
 10  9  1  0  0  0  0
 11 13  2  0  0  0  0
 12  4  1  0  0  0  0
 13  4  1  0  0  0  0
 14 17  1  0  0  0  0
 15 14  1  0  0  0  0
 16 18  2  0  0  0  0
 17 21  2  0  0  0  0
 18 21  1  0  0  0  0
 19 16  1  0  0  0  0
 19 14  2  0  0  0  0
 20 19  1  0  0  0  0
 21 23  1  0  0  0  0
 22 23  1  0  0  0  0
 25 24  1  1  0  0  0
 25  1  1  0  0  0  0
 26 29  1  0  0  0  0
 26 25  1  0  0  0  0
 27 28  1  0  0  0  0
 27 26  1  0  0  0  0
 28 24  1  0  0  0  0
 30 29  1  0  0  0  0
 30 31  1  0  0  0  0
 31 32  1  0  0  0  0
M  END
>  <MODEL>
3

>  <REMARK>
 VINA RESULT:      -6.5      2.119      5.279
  Name = 
  6 active torsions:
  status: ('A' for Active; 'I' for Inactive)
    1  A    between atoms: C_1  and  C_5
    2  A    between atoms: C_13  and  C_18
    3  A    between atoms: N_14  and  C_29
    4  A    between atoms: O_15  and  C_26
    5  A    between atoms: C_16  and  C_27
    6  A    between atoms: C_18  and  C_29
                            x       y       z     vdW  Elec       q    Type
                         _______ _______ _______ _____ _____    ______ ____

>  <TORSDO>
F 6

$$$$
=
 OpenBabel11052419153D

 32 36  0  0  1  0  0  0  0  0999 V2000
  188.9680  175.4810  143.2680 C   0  0  1  0  0  3  0  0  0  0  0  0
  190.1550  174.4200  141.5360 C   0  0  0  0  0  0  0  0  0  0  0  0
  187.9240  173.5800  141.8460 C   0  0  0  0  0  3  0  0  0  0  0  0
  191.6750  172.6440  138.6920 N   0  0  0  0  0  2  0  0  0  0  0  0
  188.9600  174.4400  142.2040 C   0  0  0  0  0  0  0  0  0  0  0  0
  189.4300  171.8380  139.0770 C   0  0  0  0  0  3  0  0  0  0  0  0
  189.2980  172.6910  140.1020 C   0  0  0  0  0  0  0  0  0  0  0  0
  188.1220  172.7240  140.7990 N   0  0  0  0  0  0  0  0  0  0  0  0
  191.0780  175.3550  142.0710 N   0  0  0  0  0  2  0  0  0  0  0  0
  190.4240  176.0240  143.2030 C   0  0  2  0  0  3  0  0  0  0  0  0
  190.3660  173.5520  140.4610 C   0  0  0  0  0  0  0  0  0  0  0  0
  190.6280  171.8100  138.3490 O   0  0  0  0  0  0  0  0  0  0  0  0
  191.5250  173.5450  139.7930 C   0  0  0  0  0  3  0  0  0  0  0  0
  191.5760  176.1850  146.8420 C   0  0  0  0  0  0  0  0  0  0  0  0
  191.3440  176.9200  147.9950 O   0  0  0  0  0  1  0  0  0  0  0  0
  191.1510  175.7310  144.4890 C   0  0  0  0  0  0  0  0  0  0  0  0
  192.4580  175.1050  146.8910 C   0  0  0  0  0  3  0  0  0  0  0  0
  192.0300  174.6370  144.5590 C   0  0  0  0  0  3  0  0  0  0  0  0
  190.9250  176.5100  145.6420 C   0  0  0  0  0  0  0  0  0  0  0  0
  189.9630  177.6550  145.6100 C   0  0  0  0  0  1  0  0  0  0  0  0
  192.6890  174.3260  145.7550 C   0  0  0  0  0  0  0  0  0  0  0  0
  193.5070  172.1350  144.9510 C   0  0  0  0  0  1  0  0  0  0  0  0
  193.5690  173.2400  145.8440 O   0  0  0  0  0  0  0  0  0  0  0  0
  188.1970  177.5380  142.1050 C   0  0  0  0  0  2  0  0  0  0  0  0
  187.9760  176.5740  142.9560 C   0  0  2  0  0  3  0  0  0  0  0  0
  186.7420  176.8010  143.6180 N   0  0  0  0  0  0  0  0  0  0  0  0
  186.0520  177.8080  143.0230 O   0  0  0  0  0  0  0  0  0  0  0  0
  187.0210  178.4520  142.2160 C   0  0  0  0  0  2  0  0  0  0  0  0
  186.5350  176.5070  145.0290 C   0  0  0  0  0  2  0  0  0  0  0  0
  186.2200  177.7880  145.7930 C   0  0  0  0  0  2  0  0  0  0  0  0
  184.8320  177.7370  146.4200 C   0  0  0  0  0  2  0  0  0  0  0  0
  183.9210  178.7510  145.7340 C   0  0  0  0  0  1  0  0  0  0  0  0
  1  5  1  6  0  0  0
  2  9  1  0  0  0  0
  2  5  2  0  0  0  0
  3  5  1  0  0  0  0
  4 13  1  0  0  0  0
  6  7  2  0  0  0  0
  7 11  1  0  0  0  0
  7  8  1  0  0  0  0
  8  3  2  0  0  0  0
  9 10  1  0  0  0  0
 10  1  1  0  0  0  0
 10 16  1  1  0  0  0
 11  2  1  0  0  0  0
 12  4  1  0  0  0  0
 12  6  1  0  0  0  0
 13 11  2  0  0  0  0
 14 17  1  0  0  0  0
 14 15  1  0  0  0  0
 16 18  2  0  0  0  0
 16 19  1  0  0  0  0
 18 21  1  0  0  0  0
 19 14  2  0  0  0  0
 20 19  1  0  0  0  0
 21 23  1  0  0  0  0
 21 17  2  0  0  0  0
 22 23  1  0  0  0  0
 24 28  1  0  0  0  0
 25 24  1  1  0  0  0
 25  1  1  0  0  0  0
 25 26  1  0  0  0  0
 26 29  1  0  0  0  0
 27 26  1  0  0  0  0
 28 27  1  0  0  0  0
 29 30  1  0  0  0  0
 30 31  1  0  0  0  0
 32 31  1  0  0  0  0
M  END
>  <MODEL>
4

>  <REMARK>
 VINA RESULT:      -6.4      2.788      6.911
  Name = 
  6 active torsions:
  status: ('A' for Active; 'I' for Inactive)
    1  A    between atoms: C_1  and  C_5
    2  A    between atoms: C_13  and  C_18
    3  A    between atoms: N_14  and  C_29
    4  A    between atoms: O_15  and  C_26
    5  A    between atoms: C_16  and  C_27
    6  A    between atoms: C_18  and  C_29
                            x       y       z     vdW  Elec       q    Type
                         _______ _______ _______ _____ _____    ______ ____

>  <TORSDO>
F 6

$$$$
=
 OpenBabel11052419153D

 32 36  0  0  1  0  0  0  0  0999 V2000
  189.6000  177.0760  145.2430 C   0  0  1  0  0  3  0  0  0  0  0  0
  189.9970  175.5480  143.4980 C   0  0  0  0  0  0  0  0  0  0  0  0
  191.7610  177.1520  143.8110 C   0  0  0  0  0  3  0  0  0  0  0  0
  190.9890  173.2520  140.7960 N   0  0  0  0  0  2  0  0  0  0  0  0
  190.5180  176.6290  144.1600 C   0  0  0  0  0  0  0  0  0  0  0  0
  192.7100  174.9090  141.1580 C   0  0  0  0  0  3  0  0  0  0  0  0
  191.9740  175.4620  142.1320 C   0  0  0  0  0  0  0  0  0  0  0  0
  192.4590  176.5520  142.8020 N   0  0  0  0  0  0  0  0  0  0  0  0
  188.7170  175.1890  143.9920 N   0  0  0  0  0  2  0  0  0  0  0  0
  188.3710  176.1410  145.0560 C   0  0  2  0  0  3  0  0  0  0  0  0
  190.7050  174.9240  142.4670 C   0  0  0  0  0  0  0  0  0  0  0  0
  192.2240  173.7840  140.4790 O   0  0  0  0  0  0  0  0  0  0  0  0
  190.2090  173.8560  141.8330 C   0  0  0  0  0  3  0  0  0  0  0  0
  185.0800  178.0690  145.2780 C   0  0  0  0  0  0  0  0  0  0  0  0
  184.1260  178.4330  146.2180 O   0  0  0  0  0  1  0  0  0  0  0  0
  187.1540  176.9430  144.6790 C   0  0  0  0  0  0  0  0  0  0  0  0
  184.9410  178.5120  143.9620 C   0  0  0  0  0  3  0  0  0  0  0  0
  187.0070  177.4110  143.3630 C   0  0  0  0  0  3  0  0  0  0  0  0
  186.1790  177.2760  145.6430 C   0  0  0  0  0  0  0  0  0  0  0  0
  186.3300  176.8290  147.0620 C   0  0  0  0  0  1  0  0  0  0  0  0
  185.9000  178.1880  143.0000 C   0  0  0  0  0  0  0  0  0  0  0  0
  185.9620  177.8450  140.5520 C   0  0  0  0  0  1  0  0  0  0  0  0
  185.7360  178.6630  141.6930 O   0  0  0  0  0  0  0  0  0  0  0  0
  190.4300  177.8220  147.4640 C   0  0  0  0  0  2  0  0  0  0  0  0
  190.2280  176.8670  146.5990 C   0  0  2  0  0  3  0  0  0  0  0  0
  190.8080  175.6640  147.0780 N   0  0  0  0  0  0  0  0  0  0  0  0
  191.1930  175.7960  148.3730 O   0  0  0  0  0  0  0  0  0  0  0  0
  191.1870  177.1960  148.5880 C   0  0  0  0  0  2  0  0  0  0  0  0
  191.4790  174.7090  146.2100 C   0  0  0  0  0  2  0  0  0  0  0  0
  192.9300  174.5330  146.6420 C   0  0  0  0  0  2  0  0  0  0  0  0
  193.8720  175.3730  145.7880 C   0  0  0  0  0  2  0  0  0  0  0  0
  194.2020  176.6740  146.5130 C   0  0  0  0  0  1  0  0  0  0  0  0
  1  5  1  6  0  0  0
  1 25  1  0  0  0  0
  2  9  1  0  0  0  0
  2  5  2  0  0  0  0
  3  5  1  0  0  0  0
  4 13  1  0  0  0  0
  6  7  2  0  0  0  0
  7 11  1  0  0  0  0
  7  8  1  0  0  0  0
  8  3  2  0  0  0  0
  9 10  1  0  0  0  0
 10 16  1  6  0  0  0
 10  1  1  0  0  0  0
 11  2  1  0  0  0  0
 12  4  1  0  0  0  0
 12  6  1  0  0  0  0
 13 11  2  0  0  0  0
 14 19  1  0  0  0  0
 14 15  1  0  0  0  0
 16 19  2  0  0  0  0
 17 14  2  0  0  0  0
 18 16  1  0  0  0  0
 19 20  1  0  0  0  0
 21 18  2  0  0  0  0
 21 17  1  0  0  0  0
 22 23  1  0  0  0  0
 23 21  1  0  0  0  0
 24 28  1  0  0  0  0
 25 26  1  0  0  0  0
 25 24  1  6  0  0  0
 26 27  1  0  0  0  0
 27 28  1  0  0  0  0
 29 30  1  0  0  0  0
 29 26  1  0  0  0  0
 31 32  1  0  0  0  0
 31 30  1  0  0  0  0
M  END
>  <MODEL>
5

>  <REMARK>
 VINA RESULT:      -6.3      1.946      5.809
  Name = 
  6 active torsions:
  status: ('A' for Active; 'I' for Inactive)
    1  A    between atoms: C_1  and  C_5
    2  A    between atoms: C_13  and  C_18
    3  A    between atoms: N_14  and  C_29
    4  A    between atoms: O_15  and  C_26
    5  A    between atoms: C_16  and  C_27
    6  A    between atoms: C_18  and  C_29
                            x       y       z     vdW  Elec       q    Type
                         _______ _______ _______ _____ _____    ______ ____

>  <TORSDO>
F 6

$$$$
=
 OpenBabel11052419153D

 32 36  0  0  1  0  0  0  0  0999 V2000
  191.5360  175.1340  144.4690 C   0  0  1  0  0  3  0  0  0  0  0  0
  189.5380  176.3760  144.5120 C   0  0  0  0  0  0  0  0  0  0  0  0
  189.8970  175.0370  146.4760 C   0  0  0  0  0  3  0  0  0  0  0  0
  186.4120  178.2690  144.9590 N   0  0  0  0  0  2  0  0  0  0  0  0
  190.2990  175.4830  145.2190 C   0  0  0  0  0  0  0  0  0  0  0  0
  186.8320  176.8820  146.8920 C   0  0  0  0  0  3  0  0  0  0  0  0
  187.9590  176.4300  146.3250 C   0  0  0  0  0  0  0  0  0  0  0  0
  188.7320  175.5250  146.9980 N   0  0  0  0  0  0  0  0  0  0  0  0
  190.1120  176.6810  143.2520 N   0  0  0  0  0  2  0  0  0  0  0  0
  191.3450  175.8940  143.1240 C   0  0  2  0  0  3  0  0  0  0  0  0
  188.3470  176.8840  145.0380 C   0  0  0  0  0  0  0  0  0  0  0  0
  186.0430  177.8200  146.2130 O   0  0  0  0  0  0  0  0  0  0  0  0
  187.6130  177.7730  144.3600 C   0  0  0  0  0  3  0  0  0  0  0  0
  192.2660  173.6130  140.2020 C   0  0  0  0  0  0  0  0  0  0  0  0
  193.3790  173.2260  139.4690 O   0  0  0  0  0  1  0  0  0  0  0  0
  191.2410  174.9190  141.9820 C   0  0  0  0  0  0  0  0  0  0  0  0
  191.0290  173.0350  139.9140 C   0  0  0  0  0  3  0  0  0  0  0  0
  190.0060  174.3160  141.6900 C   0  0  0  0  0  3  0  0  0  0  0  0
  192.3790  174.5630  141.2280 C   0  0  0  0  0  0  0  0  0  0  0  0
  193.7150  175.1560  141.5430 C   0  0  0  0  0  1  0  0  0  0  0  0
  189.8960  173.3800  140.6540 C   0  0  0  0  0  0  0  0  0  0  0  0
  188.1940  172.6540  139.0130 C   0  0  0  0  0  1  0  0  0  0  0  0
  188.6740  172.7690  140.3470 O   0  0  0  0  0  0  0  0  0  0  0  0
  193.2540  176.8330  145.0540 C   0  0  0  0  0  2  0  0  0  0  0  0
  192.7610  175.6330  145.1940 C   0  0  2  0  0  3  0  0  0  0  0  0
  193.6260  174.8590  146.0110 N   0  0  0  0  0  0  0  0  0  0  0  0
  194.5740  175.6410  146.5880 O   0  0  0  0  0  0  0  0  0  0  0  0
  194.5230  176.8430  145.8400 C   0  0  0  0  0  2  0  0  0  0  0  0
  193.8890  173.4480  145.7690 C   0  0  0  0  0  2  0  0  0  0  0  0
  194.9200  173.2880  144.6570 C   0  0  0  0  0  2  0  0  0  0  0  0
  194.4120  172.3680  143.5540 C   0  0  0  0  0  2  0  0  0  0  0  0
  193.0340  171.8310  143.9270 C   0  0  0  0  0  1  0  0  0  0  0  0
  1 25  1  0  0  0  0
  1  5  1  1  0  0  0
  2 11  1  0  0  0  0
  2  5  2  0  0  0  0
  3  8  2  0  0  0  0
  4 12  1  0  0  0  0
  5  3  1  0  0  0  0
  7  6  2  0  0  0  0
  7  8  1  0  0  0  0
  9  2  1  0  0  0  0
 10 16  1  6  0  0  0
 10  9  1  0  0  0  0
 10  1  1  0  0  0  0
 11  7  1  0  0  0  0
 12  6  1  0  0  0  0
 13  4  1  0  0  0  0
 13 11  2  0  0  0  0
 14 19  1  0  0  0  0
 15 14  1  0  0  0  0
 17 14  2  0  0  0  0
 17 21  1  0  0  0  0
 18 16  1  0  0  0  0
 19 20  1  0  0  0  0
 19 16  2  0  0  0  0
 21 18  2  0  0  0  0
 22 23  1  0  0  0  0
 23 21  1  0  0  0  0
 24 28  1  0  0  0  0
 25 24  1  6  0  0  0
 25 26  1  0  0  0  0
 26 27  1  0  0  0  0
 28 27  1  0  0  0  0
 29 26  1  0  0  0  0
 30 29  1  0  0  0  0
 31 32  1  0  0  0  0
 31 30  1  0  0  0  0
M  END
>  <MODEL>
6

>  <REMARK>
 VINA RESULT:      -6.2      2.059      2.888
  Name = 
  6 active torsions:
  status: ('A' for Active; 'I' for Inactive)
    1  A    between atoms: C_1  and  C_5
    2  A    between atoms: C_13  and  C_18
    3  A    between atoms: N_14  and  C_29
    4  A    between atoms: O_15  and  C_26
    5  A    between atoms: C_16  and  C_27
    6  A    between atoms: C_18  and  C_29
                            x       y       z     vdW  Elec       q    Type
                         _______ _______ _______ _____ _____    ______ ____

>  <TORSDO>
F 6

$$$$
=
 OpenBabel11052419153D

 32 36  0  0  1  0  0  0  0  0999 V2000
  191.6170  174.7370  143.3050 C   0  0  1  0  0  3  0  0  0  0  0  0
  190.5860  173.5530  141.5520 C   0  0  0  0  0  0  0  0  0  0  0  0
  192.6910  174.5480  140.9520 C   0  0  0  0  0  3  0  0  0  0  0  0
  189.3150  171.6900  138.6420 N   0  0  0  0  0  2  0  0  0  0  0  0
  191.6840  174.3020  141.8830 C   0  0  0  0  0  0  0  0  0  0  0  0
  191.4270  172.7360  138.1080 C   0  0  0  0  0  3  0  0  0  0  0  0
  191.4900  173.2460  139.3450 C   0  0  0  0  0  0  0  0  0  0  0  0
  192.5660  174.0100  139.7020 N   0  0  0  0  0  0  0  0  0  0  0  0
  189.6740  173.4420  142.6330 N   0  0  0  0  0  2  0  0  0  0  0  0
  190.2250  174.2100  143.7570 C   0  0  2  0  0  3  0  0  0  0  0  0
  190.4500  172.9960  140.2780 C   0  0  0  0  0  0  0  0  0  0  0  0
  190.3340  171.9390  137.7420 O   0  0  0  0  0  0  0  0  0  0  0  0
  189.3900  172.2470  139.9580 C   0  0  0  0  0  3  0  0  0  0  0  0
  188.1090  176.6780  145.7630 C   0  0  0  0  0  0  0  0  0  0  0  0
  187.7200  176.9210  147.0720 O   0  0  0  0  0  1  0  0  0  0  0  0
  189.3200  175.3590  144.1150 C   0  0  0  0  0  0  0  0  0  0  0  0
  187.7030  177.5590  144.7600 C   0  0  0  0  0  3  0  0  0  0  0  0
  188.9160  176.2640  143.1190 C   0  0  0  0  0  3  0  0  0  0  0  0
  188.9100  175.5700  145.4470 C   0  0  0  0  0  0  0  0  0  0  0  0
  189.3590  174.6480  146.5360 C   0  0  0  0  0  1  0  0  0  0  0  0
  188.1030  177.3590  143.4370 C   0  0  0  0  0  0  0  0  0  0  0  0
  186.3320  178.6660  142.3110 C   0  0  0  0  0  1  0  0  0  0  0  0
  187.6900  178.2720  142.4580 O   0  0  0  0  0  0  0  0  0  0  0  0
  192.5360  173.1010  144.9360 C   0  0  0  0  0  2  0  0  0  0  0  0
  192.7190  174.0970  144.1140 C   0  0  2  0  0  3  0  0  0  0  0  0
  194.0590  174.5520  144.2120 N   0  0  0  0  0  0  0  0  0  0  0  0
  194.8090  173.6900  144.9450 O   0  0  0  0  0  0  0  0  0  0  0  0
  193.8510  172.8880  145.6110 C   0  0  0  0  0  2  0  0  0  0  0  0
  194.4250  175.9590  144.1390 C   0  0  0  0  0  2  0  0  0  0  0  0
  193.4960  176.7900  145.0160 C   0  0  0  0  0  2  0  0  0  0  0  0
  193.8130  176.6060  146.4950 C   0  0  0  0  0  2  0  0  0  0  0  0
  192.5300  176.2980  147.2610 C   0  0  0  0  0  1  0  0  0  0  0  0
  1  5  1  6  0  0  0
  1 10  1  0  0  0  0
  1 25  1  0  0  0  0
  2  5  2  0  0  0  0
  2  9  1  0  0  0  0
  3  5  1  0  0  0  0
  4 13  1  0  0  0  0
  6  7  2  0  0  0  0
  7  8  1  0  0  0  0
  7 11  1  0  0  0  0
  8  3  2  0  0  0  0
  9 10  1  0  0  0  0
 10 16  1  6  0  0  0
 11  2  1  0  0  0  0
 12  6  1  0  0  0  0
 12  4  1  0  0  0  0
 13 11  2  0  0  0  0
 14 15  1  0  0  0  0
 16 19  2  0  0  0  0
 17 14  2  0  0  0  0
 18 21  2  0  0  0  0
 18 16  1  0  0  0  0
 19 14  1  0  0  0  0
 19 20  1  0  0  0  0
 21 17  1  0  0  0  0
 22 23  1  0  0  0  0
 23 21  1  0  0  0  0
 24 28  1  0  0  0  0
 25 26  1  0  0  0  0
 25 24  1  1  0  0  0
 26 27  1  0  0  0  0
 27 28  1  0  0  0  0
 29 26  1  0  0  0  0
 29 30  1  0  0  0  0
 30 31  1  0  0  0  0
 31 32  1  0  0  0  0
M  END
>  <MODEL>
7

>  <REMARK>
 VINA RESULT:      -6.2      3.186      6.640
  Name = 
  6 active torsions:
  status: ('A' for Active; 'I' for Inactive)
    1  A    between atoms: C_1  and  C_5
    2  A    between atoms: C_13  and  C_18
    3  A    between atoms: N_14  and  C_29
    4  A    between atoms: O_15  and  C_26
    5  A    between atoms: C_16  and  C_27
    6  A    between atoms: C_18  and  C_29
                            x       y       z     vdW  Elec       q    Type
                         _______ _______ _______ _____ _____    ______ ____

>  <TORSDO>
F 6

$$$$
=
 OpenBabel11052419153D

 32 36  0  0  1  0  0  0  0  0999 V2000
  191.4680  174.7040  144.3490 C   0  0  1  0  0  3  0  0  0  0  0  0
  193.3430  173.3330  144.7260 C   0  0  0  0  0  0  0  0  0  0  0  0
  193.6740  175.6320  145.3470 C   0  0  0  0  0  3  0  0  0  0  0  0
  196.4020  171.4600  145.5560 N   0  0  0  0  0  2  0  0  0  0  0  0
  192.8750  174.6170  144.8280 C   0  0  0  0  0  0  0  0  0  0  0  0
  196.6660  173.7900  146.1370 C   0  0  0  0  0  3  0  0  0  0  0  0
  195.4260  174.0420  145.6970 C   0  0  0  0  0  0  0  0  0  0  0  0
  194.9350  175.3160  145.7700 N   0  0  0  0  0  0  0  0  0  0  0  0
  192.3830  172.4620  144.1530 N   0  0  0  0  0  2  0  0  0  0  0  0
  191.1940  173.2620  143.8340 C   0  0  2  0  0  3  0  0  0  0  0  0
  194.6290  172.9990  145.1590 C   0  0  0  0  0  0  0  0  0  0  0  0
  197.1700  172.4840  146.0780 O   0  0  0  0  0  0  0  0  0  0  0  0
  195.0820  171.7430  145.0810 C   0  0  0  0  0  3  0  0  0  0  0  0
  189.4530  172.9850  140.4450 C   0  0  0  0  0  0  0  0  0  0  0  0
  188.2110  172.6660  139.9140 O   0  0  0  0  0  1  0  0  0  0  0  0
  190.9400  173.2750  142.3500 C   0  0  0  0  0  0  0  0  0  0  0  0
  190.4750  173.3910  139.5860 C   0  0  0  0  0  3  0  0  0  0  0  0
  191.9530  173.6960  141.4730 C   0  0  0  0  0  3  0  0  0  0  0  0
  189.6800  172.9150  141.8280 C   0  0  0  0  0  0  0  0  0  0  0  0
  188.5680  172.5040  142.7400 C   0  0  0  0  0  1  0  0  0  0  0  0
  191.7260  173.7490  140.0920 C   0  0  0  0  0  0  0  0  0  0  0  0
  193.8690  174.8920  139.6300 C   0  0  0  0  0  1  0  0  0  0  0  0
  192.7240  174.1660  139.2020 O   0  0  0  0  0  0  0  0  0  0  0  0
  189.7870  174.1850  146.1040 C   0  0  0  0  0  2  0  0  0  0  0  0
  190.5370  175.0520  145.4830 C   0  0  2  0  0  3  0  0  0  0  0  0
  190.2320  176.3580  145.9480 N   0  0  0  0  0  0  0  0  0  0  0  0
  189.4340  176.3070  147.0440 O   0  0  0  0  0  0  0  0  0  0  0  0
  188.9410  174.9790  147.0440 C   0  0  0  0  0  2  0  0  0  0  0  0
  190.2000  177.5210  145.0730 C   0  0  0  0  0  2  0  0  0  0  0  0
  188.9040  177.5410  144.2710 C   0  0  0  0  0  2  0  0  0  0  0  0
  189.1760  177.5410  142.7710 C   0  0  0  0  0  2  0  0  0  0  0  0
  188.5680  176.2930  142.1390 C   0  0  0  0  0  1  0  0  0  0  0  0
  1  5  1  1  0  0  0
  1 25  1  0  0  0  0
  2  5  2  0  0  0  0
  2 11  1  0  0  0  0
  3  8  2  0  0  0  0
  4 12  1  0  0  0  0
  5  3  1  0  0  0  0
  7  8  1  0  0  0  0
  7  6  2  0  0  0  0
  9  2  1  0  0  0  0
 10 16  1  6  0  0  0
 10  9  1  0  0  0  0
 10  1  1  0  0  0  0
 11  7  1  0  0  0  0
 12  6  1  0  0  0  0
 13 11  2  0  0  0  0
 13  4  1  0  0  0  0
 14 19  1  0  0  0  0
 15 14  1  0  0  0  0
 17 21  1  0  0  0  0
 17 14  2  0  0  0  0
 18 16  1  0  0  0  0
 19 16  2  0  0  0  0
 19 20  1  0  0  0  0
 21 18  2  0  0  0  0
 23 22  1  0  0  0  0
 23 21  1  0  0  0  0
 24 28  1  0  0  0  0
 25 26  1  0  0  0  0
 25 24  1  6  0  0  0
 26 27  1  0  0  0  0
 27 28  1  0  0  0  0
 29 26  1  0  0  0  0
 30 29  1  0  0  0  0
 31 30  1  0  0  0  0
 32 31  1  0  0  0  0
M  END
>  <MODEL>
8

>  <REMARK>
 VINA RESULT:      -6.0      2.942      7.082
  Name = 
  6 active torsions:
  status: ('A' for Active; 'I' for Inactive)
    1  A    between atoms: C_1  and  C_5
    2  A    between atoms: C_13  and  C_18
    3  A    between atoms: N_14  and  C_29
    4  A    between atoms: O_15  and  C_26
    5  A    between atoms: C_16  and  C_27
    6  A    between atoms: C_18  and  C_29
                            x       y       z     vdW  Elec       q    Type
                         _______ _______ _______ _____ _____    ______ ____

>  <TORSDO>
F 6

$$$$
=
 OpenBabel11052419153D

 32 36  0  0  1  0  0  0  0  0999 V2000
  190.9160  174.5320  143.7530 C   0  0  1  0  0  3  0  0  0  0  0  0
  190.7680  174.0170  141.4620 C   0  0  0  0  0  0  0  0  0  0  0  0
  188.8050  173.4360  142.7210 C   0  0  0  0  0  3  0  0  0  0  0  0
  190.1590  173.1980  137.9250 N   0  0  0  0  0  2  0  0  0  0  0  0
  190.0940  173.9580  142.6530 C   0  0  0  0  0  0  0  0  0  0  0  0
  188.2290  172.6230  139.2600 C   0  0  0  0  0  3  0  0  0  0  0  0
  188.8590  173.0570  140.3600 C   0  0  0  0  0  0  0  0  0  0  0  0
  188.2190  172.9970  141.5670 N   0  0  0  0  0  0  0  0  0  0  0  0
  192.0690  174.5600  141.6160 N   0  0  0  0  0  2  0  0  0  0  0  0
  192.2600  174.8570  143.0410 C   0  0  2  0  0  3  0  0  0  0  0  0
  190.1760  173.5760  140.2760 C   0  0  0  0  0  0  0  0  0  0  0  0
  188.8750  172.6960  138.0190 O   0  0  0  0  0  0  0  0  0  0  0  0
  190.8240  173.6520  139.1080 C   0  0  0  0  0  3  0  0  0  0  0  0
  195.7050  173.7380  144.2560 C   0  0  0  0  0  0  0  0  0  0  0  0
  197.0040  174.2160  144.3430 O   0  0  0  0  0  1  0  0  0  0  0  0
  193.3730  174.0230  143.6170 C   0  0  0  0  0  0  0  0  0  0  0  0
  195.4080  172.4770  144.7730 C   0  0  0  0  0  3  0  0  0  0  0  0
  193.0890  172.7580  144.1570 C   0  0  0  0  0  3  0  0  0  0  0  0
  194.6950  174.5140  143.6670 C   0  0  0  0  0  0  0  0  0  0  0  0
  195.0200  175.8750  143.1400 C   0  0  0  0  0  1  0  0  0  0  0  0
  194.1040  171.9800  144.7280 C   0  0  0  0  0  0  0  0  0  0  0  0
  193.7850  169.5420  144.4720 C   0  0  0  0  0  1  0  0  0  0  0  0
  193.8400  170.7170  145.2710 O   0  0  0  0  0  0  0  0  0  0  0  0
  190.4220  176.9680  143.7570 C   0  0  0  0  0  2  0  0  0  0  0  0
  190.2820  175.7890  144.2960 C   0  0  2  0  0  3  0  0  0  0  0  0
  189.5690  175.9090  145.5180 N   0  0  0  0  0  0  0  0  0  0  0  0
  189.0500  177.1560  145.6530 O   0  0  0  0  0  0  0  0  0  0  0  0
  189.7480  177.9220  144.6880 C   0  0  0  0  0  2  0  0  0  0  0  0
  189.8810  175.1150  146.6960 C   0  0  0  0  0  2  0  0  0  0  0  0
  191.0490  175.7350  147.4550 C   0  0  0  0  0  2  0  0  0  0  0  0
  192.3870  175.2310  146.9270 C   0  0  0  0  0  2  0  0  0  0  0  0
  193.2510  176.4150  146.5030 C   0  0  0  0  0  1  0  0  0  0  0  0
  1  5  1  6  0  0  0
  1 25  1  0  0  0  0
  2  9  1  0  0  0  0
  2  5  2  0  0  0  0
  4 12  1  0  0  0  0
  4 13  1  0  0  0  0
  5  3  1  0  0  0  0
  6  7  2  0  0  0  0
  7  8  1  0  0  0  0
  8  3  2  0  0  0  0
  9 10  1  0  0  0  0
 10 16  1  1  0  0  0
 10  1  1  0  0  0  0
 11  7  1  0  0  0  0
 11  2  1  0  0  0  0
 12  6  1  0  0  0  0
 13 11  2  0  0  0  0
 14 15  1  0  0  0  0
 14 17  1  0  0  0  0
 16 19  1  0  0  0  0
 16 18  2  0  0  0  0
 18 21  1  0  0  0  0
 19 14  2  0  0  0  0
 20 19  1  0  0  0  0
 21 17  2  0  0  0  0
 21 23  1  0  0  0  0
 22 23  1  0  0  0  0
 24 28  1  0  0  0  0
 25 24  1  1  0  0  0
 25 26  1  0  0  0  0
 26 27  1  0  0  0  0
 26 29  1  0  0  0  0
 28 27  1  0  0  0  0
 29 30  1  0  0  0  0
 31 30  1  0  0  0  0
 32 31  1  0  0  0  0
M  END
>  <MODEL>
9

>  <REMARK>
 VINA RESULT:      -5.9      3.133      5.775
  Name = 
  6 active torsions:
  status: ('A' for Active; 'I' for Inactive)
    1  A    between atoms: C_1  and  C_5
    2  A    between atoms: C_13  and  C_18
    3  A    between atoms: N_14  and  C_29
    4  A    between atoms: O_15  and  C_26
    5  A    between atoms: C_16  and  C_27
    6  A    between atoms: C_18  and  C_29
                            x       y       z     vdW  Elec       q    Type
                         _______ _______ _______ _____ _____    ______ ____

>  <TORSDO>
F 6

$$$$
