=
 OpenBabel11052421323D

 32 35  0  0  1  0  0  0  0  0999 V2000
  188.8510  176.0210  143.4360 N   0  0  1  0  0  0  0  0  0  0  0  0
  191.6210  175.3760  147.4180 C   0  0  0  0  0  3  0  0  0  0  0  0
  191.1540  176.5220  147.9040 C   0  0  0  0  0  3  0  0  0  0  0  0
  186.6730  177.1240  143.8770 C   0  0  0  0  0  0  0  0  0  0  0  0
  185.7400  177.7010  144.8060 N   0  0  0  0  0  0  0  0  0  0  0  0
  189.7030  174.5200  141.7660 C   0  0  2  0  0  3  0  0  0  0  0  0
  190.7050  174.6050  142.9050 C   0  0  2  0  0  3  0  0  0  0  0  0
  191.0440  174.7810  146.1720 C   0  0  0  0  0  2  0  0  0  0  0  0
  189.8640  175.1650  144.0340 C   0  0  1  0  0  3  0  0  0  0  0  0
  189.6910  176.9060  145.8520 C   0  0  1  0  0  3  0  0  0  0  0  0
  188.2110  176.4750  145.8360 C   0  0  1  0  0  3  0  0  0  0  0  0
  190.1520  177.2610  147.1980 N   0  0  0  0  0  2  0  0  0  0  0  0
  190.6110  175.8580  145.1760 C   0  0  1  0  0  3  0  0  0  0  0  0
  187.3400  177.4770  146.6100 C   0  0  0  0  0  2  0  0  0  0  0  0
  188.4570  175.2490  142.2620 C   0  0  0  0  0  2  0  0  0  0  0  0
  186.5870  177.3930  142.6480 O   0  0  0  0  0  0  0  0  0  0  0  0
  187.7230  176.1470  144.3780 C   0  0  2  0  0  3  0  0  0  0  0  0
  185.8780  177.3460  146.2230 C   0  0  1  0  0  3  0  0  0  0  0  0
  185.7930  179.2910  147.6100 O   0  0  0  0  0  1  0  0  0  0  0  0
  185.0350  178.2160  147.1480 C   0  0  0  0  0  2  0  0  0  0  0  0
  185.2150  179.9910  144.1220 C   0  0  0  0  0  1  0  0  0  0  0  0
  184.6780  178.5850  144.3250 C   0  0  0  0  0  2  0  0  0  0  0  0
  189.3780  173.0670  141.4710 C   0  0  0  0  0  2  0  0  0  0  0  0
  188.1540  172.7280  142.0470 O   0  0  0  0  0  1  0  0  0  0  0  0
  191.7600  175.5410  142.5400 N   0  0  0  0  0  2  0  0  0  0  0  0
  192.9260  174.7530  142.1770 C   0  0  0  0  0  2  0  0  0  0  0  0
  193.2830  173.7980  143.3060 C   0  0  0  0  0  2  0  0  0  0  0  0
  194.6700  174.0950  143.8570 C   0  0  0  0  0  2  0  0  0  0  0  0
  194.5720  174.8940  145.1520 C   0  0  0  0  0  2  0  0  0  0  0  0
  194.6050  176.3970  144.9020 C   0  0  2  0  0  3  0  0  0  0  0  0
  195.7550  176.7540  144.1950 O   0  0  0  0  0  1  0  0  0  0  0  0
  194.5320  177.1750  146.2030 C   0  0  0  0  0  1  0  0  0  0  0  0
  1 15  1  6  0  0  0
  1  9  1  0  0  0  0
  1 17  1  0  0  0  0
  2  3  2  0  0  0  0
  4 17  1  0  0  0  0
  4  5  1  0  0  0  0
  5 18  1  0  0  0  0
  6 23  1  1  0  0  0
  6 15  1  0  0  0  0
  6  7  1  0  0  0  0
  7 25  1  6  0  0  0
  7  9  1  0  0  0  0
  8  2  1  0  0  0  0
  9 13  1  0  0  0  0
 10 12  1  0  0  0  0
 11 10  1  0  0  0  0
 11 14  1  0  0  0  0
 12  3  1  0  0  0  0
 13 10  1  0  0  0  0
 13  8  1  0  0  0  0
 16  4  2  0  0  0  0
 17 11  1  0  0  0  0
 18 14  1  0  0  0  0
 18 20  1  0  0  0  0
 20 19  1  0  0  0  0
 21 22  1  0  0  0  0
 22  5  1  0  0  0  0
 23 24  1  0  0  0  0
 26 25  1  0  0  0  0
 26 27  1  0  0  0  0
 27 28  1  0  0  0  0
 28 29  1  0  0  0  0
 30 29  1  0  0  0  0
 30 32  1  0  0  0  0
 31 30  1  0  0  0  0
M  END
>  <MODEL>
1

>  <REMARK>
 VINA RESULT:      -6.7      0.000      0.000
  Name = 
  9 active torsions:
  status: ('A' for Active; 'I' for Inactive)
    1  A    between atoms: C_1  and  C_24
    2  A    between atoms: C_2  and  C_10
    3  A    between atoms: C_2  and  C_12
    4  A    between atoms: N_7  and  C_22
    5  A    between atoms: C_8  and  C_19
    6  A    between atoms: C_9  and  N_21
    7  A    between atoms: C_10  and  C_24
    8  A    between atoms: C_12  and  N_21
    9  A    between atoms: C_30  and  C_32
                            x       y       z     vdW  Elec       q    Type
                         _______ _______ _______ _____ _____    ______ ____

>  <TORSDO>
F 9

$$$$
=
 OpenBabel11052421323D

 32 35  0  0  1  0  0  0  0  0999 V2000
  188.8090  176.0800  143.4450 N   0  0  1  0  0  0  0  0  0  0  0  0
  191.5990  175.4330  147.4130 C   0  0  0  0  0  3  0  0  0  0  0  0
  191.1270  176.5750  147.9060 C   0  0  0  0  0  3  0  0  0  0  0  0
  186.6270  177.1690  143.9000 C   0  0  0  0  0  0  0  0  0  0  0  0
  185.6940  177.7360  144.8360 N   0  0  0  0  0  0  0  0  0  0  0  0
  189.6620  174.5910  141.7650 C   0  0  2  0  0  3  0  0  0  0  0  0
  190.6690  174.6780  142.9000 C   0  0  2  0  0  3  0  0  0  0  0  0
  191.0200  174.8400  146.1660 C   0  0  0  0  0  2  0  0  0  0  0  0
  189.8290  175.2270  144.0360 C   0  0  1  0  0  3  0  0  0  0  0  0
  189.6540  176.9590  145.8610 C   0  0  1  0  0  3  0  0  0  0  0  0
  188.1760  176.5200  145.8500 C   0  0  1  0  0  3  0  0  0  0  0  0
  190.1180  177.3110  147.2070 N   0  0  0  0  0  2  0  0  0  0  0  0
  190.5770  175.9190  145.1770 C   0  0  1  0  0  3  0  0  0  0  0  0
  187.3030  177.5130  146.6320 C   0  0  0  0  0  2  0  0  0  0  0  0
  188.4140  175.3120  142.2690 C   0  0  0  0  0  2  0  0  0  0  0  0
  186.5340  177.4430  142.6730 O   0  0  0  0  0  0  0  0  0  0  0  0
  187.6840  176.1960  144.3920 C   0  0  2  0  0  3  0  0  0  0  0  0
  185.8400  177.3750  146.2510 C   0  0  1  0  0  3  0  0  0  0  0  0
  185.7460  179.3200  147.6370 O   0  0  0  0  0  1  0  0  0  0  0  0
  184.9960  178.2370  147.1830 C   0  0  0  0  0  2  0  0  0  0  0  0
  185.1570  180.0210  144.1440 C   0  0  0  0  0  1  0  0  0  0  0  0
  184.6250  178.6160  144.3640 C   0  0  0  0  0  2  0  0  0  0  0  0
  189.3440  173.1390  141.4650 C   0  0  0  0  0  2  0  0  0  0  0  0
  188.1530  172.7730  142.0920 O   0  0  0  0  0  1  0  0  0  0  0  0
  191.7170  175.6210  142.5350 N   0  0  0  0  0  2  0  0  0  0  0  0
  192.8770  174.8410  142.1350 C   0  0  0  0  0  2  0  0  0  0  0  0
  193.4430  174.0970  143.3350 C   0  0  0  0  0  2  0  0  0  0  0  0
  194.1470  175.0520  144.2890 C   0  0  0  0  0  2  0  0  0  0  0  0
  194.6710  174.3010  145.5080 C   0  0  0  0  0  2  0  0  0  0  0  0
  196.1820  174.4380  145.6590 C   0  0  2  0  0  3  0  0  0  0  0  0
  196.7540  174.9170  144.4790 O   0  0  0  0  0  1  0  0  0  0  0  0
  196.8190  173.1160  146.0470 C   0  0  0  0  0  1  0  0  0  0  0  0
  1 15  1  6  0  0  0
  1  9  1  0  0  0  0
  1 17  1  0  0  0  0
  2  3  2  0  0  0  0
  4 17  1  0  0  0  0
  4  5  1  0  0  0  0
  5 18  1  0  0  0  0
  6 23  1  1  0  0  0
  6 15  1  0  0  0  0
  6  7  1  0  0  0  0
  7 25  1  6  0  0  0
  7  9  1  0  0  0  0
  8  2  1  0  0  0  0
  9 13  1  0  0  0  0
 10 12  1  0  0  0  0
 11 10  1  0  0  0  0
 11 14  1  0  0  0  0
 12  3  1  0  0  0  0
 13 10  1  0  0  0  0
 13  8  1  0  0  0  0
 16  4  2  0  0  0  0
 17 11  1  0  0  0  0
 18 14  1  0  0  0  0
 18 20  1  0  0  0  0
 20 19  1  0  0  0  0
 21 22  1  0  0  0  0
 22  5  1  0  0  0  0
 23 24  1  0  0  0  0
 26 25  1  0  0  0  0
 26 27  1  0  0  0  0
 27 28  1  0  0  0  0
 28 29  1  0  0  0  0
 29 30  1  0  0  0  0
 30 32  1  0  0  0  0
 31 30  1  0  0  0  0
M  END
>  <MODEL>
2

>  <REMARK>
 VINA RESULT:      -6.6      0.754      1.049
  Name = 
  9 active torsions:
  status: ('A' for Active; 'I' for Inactive)
    1  A    between atoms: C_1  and  C_24
    2  A    between atoms: C_2  and  C_10
    3  A    between atoms: C_2  and  C_12
    4  A    between atoms: N_7  and  C_22
    5  A    between atoms: C_8  and  C_19
    6  A    between atoms: C_9  and  N_21
    7  A    between atoms: C_10  and  C_24
    8  A    between atoms: C_12  and  N_21
    9  A    between atoms: C_30  and  C_32
                            x       y       z     vdW  Elec       q    Type
                         _______ _______ _______ _____ _____    ______ ____

>  <TORSDO>
F 9

$$$$
=
 OpenBabel11052421323D

 32 35  0  0  1  0  0  0  0  0999 V2000
  188.4610  174.8100  142.8700 N   0  0  1  0  0  0  0  0  0  0  0  0
  189.7020  177.4150  146.8220 C   0  0  0  0  0  3  0  0  0  0  0  0
  190.1080  176.2930  147.4090 C   0  0  0  0  0  3  0  0  0  0  0  0
  189.9540  172.8830  142.4090 C   0  0  0  0  0  0  0  0  0  0  0  0
  191.1100  172.0990  142.7500 N   0  0  0  0  0  0  0  0  0  0  0  0
  187.0220  176.2140  141.5560 C   0  0  2  0  0  3  0  0  0  0  0  0
  187.1810  176.8310  142.9360 C   0  0  2  0  0  3  0  0  0  0  0  0
  189.3010  177.4220  145.3800 C   0  0  0  0  0  2  0  0  0  0  0  0
  188.4270  176.1410  143.4550 C   0  0  1  0  0  3  0  0  0  0  0  0
  189.4790  174.8900  145.3760 C   0  0  1  0  0  3  0  0  0  0  0  0
  190.5240  174.5330  144.2990 C   0  0  1  0  0  3  0  0  0  0  0  0
  190.0820  175.0480  146.7030 N   0  0  0  0  0  2  0  0  0  0  0  0
  188.6200  176.1140  144.9730 C   0  0  1  0  0  3  0  0  0  0  0  0
  191.4330  173.3890  144.7740 C   0  0  0  0  0  2  0  0  0  0  0  0
  188.0320  175.0700  141.4990 C   0  0  0  0  0  2  0  0  0  0  0  0
  189.0560  172.3940  141.6700 O   0  0  0  0  0  0  0  0  0  0  0  0
  189.8510  174.3190  142.8940 C   0  0  2  0  0  3  0  0  0  0  0  0
  192.1300  172.7210  143.6030 C   0  0  1  0  0  3  0  0  0  0  0  0
  193.6770  172.1830  145.3440 O   0  0  0  0  0  1  0  0  0  0  0  0
  193.1590  171.7290  144.1320 C   0  0  0  0  0  2  0  0  0  0  0  0
  191.9400  170.7670  140.8720 C   0  0  0  0  0  1  0  0  0  0  0  0
  191.2550  170.7410  142.2270 C   0  0  0  0  0  2  0  0  0  0  0  0
  187.3380  177.2450  140.4880 C   0  0  0  0  0  2  0  0  0  0  0  0
  186.1870  177.9620  140.1640 O   0  0  0  0  0  1  0  0  0  0  0  0
  186.0250  176.4800  143.7490 N   0  0  0  0  0  2  0  0  0  0  0  0
  185.1080  177.6080  143.7000 C   0  0  0  0  0  2  0  0  0  0  0  0
  185.8790  178.9120  143.8370 C   0  0  0  0  0  2  0  0  0  0  0  0
  185.4870  179.6490  145.1090 C   0  0  0  0  0  2  0  0  0  0  0  0
  184.5670  178.7870  145.9660 C   0  0  0  0  0  2  0  0  0  0  0  0
  185.1630  178.5050  147.3410 C   0  0  2  0  0  3  0  0  0  0  0  0
  185.9870  179.5570  147.7460 O   0  0  0  0  0  1  0  0  0  0  0  0
  185.9400  177.2010  147.3480 C   0  0  0  0  0  1  0  0  0  0  0  0
  1 15  1  6  0  0  0
  1 17  1  0  0  0  0
  1  9  1  0  0  0  0
  2  3  2  0  0  0  0
  4  5  1  0  0  0  0
  4 17  1  0  0  0  0
  5 18  1  0  0  0  0
  6 23  1  6  0  0  0
  6  7  1  0  0  0  0
  7  9  1  0  0  0  0
  7 25  1  1  0  0  0
  8  2  1  0  0  0  0
  9 13  1  0  0  0  0
 10 12  1  0  0  0  0
 11 14  1  0  0  0  0
 11 10  1  0  0  0  0
 12  3  1  0  0  0  0
 13 10  1  0  0  0  0
 13  8  1  0  0  0  0
 15  6  1  0  0  0  0
 16  4  2  0  0  0  0
 17 11  1  0  0  0  0
 18 20  1  0  0  0  0
 18 14  1  0  0  0  0
 20 19  1  0  0  0  0
 21 22  1  0  0  0  0
 22  5  1  0  0  0  0
 24 23  1  0  0  0  0
 26 25  1  0  0  0  0
 26 27  1  0  0  0  0
 27 28  1  0  0  0  0
 28 29  1  0  0  0  0
 29 30  1  0  0  0  0
 30 32  1  0  0  0  0
 30 31  1  0  0  0  0
M  END
>  <MODEL>
3

>  <REMARK>
 VINA RESULT:      -6.6      2.179      7.014
  Name = 
  9 active torsions:
  status: ('A' for Active; 'I' for Inactive)
    1  A    between atoms: C_1  and  C_24
    2  A    between atoms: C_2  and  C_10
    3  A    between atoms: C_2  and  C_12
    4  A    between atoms: N_7  and  C_22
    5  A    between atoms: C_8  and  C_19
    6  A    between atoms: C_9  and  N_21
    7  A    between atoms: C_10  and  C_24
    8  A    between atoms: C_12  and  N_21
    9  A    between atoms: C_30  and  C_32
                            x       y       z     vdW  Elec       q    Type
                         _______ _______ _______ _____ _____    ______ ____

>  <TORSDO>
F 9

$$$$
=
 OpenBabel11052421323D

 32 35  0  0  1  0  0  0  0  0999 V2000
  188.7670  175.5190  142.2190 N   0  0  1  0  0  0  0  0  0  0  0  0
  189.5800  175.4200  147.0440 C   0  0  0  0  0  3  0  0  0  0  0  0
  189.1440  176.6740  147.1230 C   0  0  0  0  0  3  0  0  0  0  0  0
  186.7970  176.8670  141.5450 C   0  0  0  0  0  0  0  0  0  0  0  0
  185.6740  177.6900  141.9050 N   0  0  0  0  0  0  0  0  0  0  0  0
  189.9670  173.6570  141.2920 C   0  0  2  0  0  3  0  0  0  0  0  0
  190.4310  173.8750  142.7220 C   0  0  2  0  0  3  0  0  0  0  0  0
  189.4620  174.6470  145.7680 C   0  0  0  0  0  2  0  0  0  0  0  0
  189.3080  174.7110  143.3020 C   0  0  1  0  0  3  0  0  0  0  0  0
  188.7010  176.7780  144.6140 C   0  0  1  0  0  3  0  0  0  0  0  0
  187.3030  176.4800  144.0390 C   0  0  1  0  0  3  0  0  0  0  0  0
  188.6370  177.3450  145.9650 N   0  0  0  0  0  2  0  0  0  0  0  0
  189.6380  175.5450  144.5420 C   0  0  1  0  0  3  0  0  0  0  0  0
  186.3650  177.6830  144.2260 C   0  0  0  0  0  2  0  0  0  0  0  0
  188.7580  174.5710  141.1100 C   0  0  0  0  0  2  0  0  0  0  0  0
  187.2520  176.9010  140.3690 O   0  0  0  0  0  0  0  0  0  0  0  0
  187.3920  175.9200  142.5720 C   0  0  2  0  0  3  0  0  0  0  0  0
  185.1780  177.6040  143.2830 C   0  0  1  0  0  3  0  0  0  0  0  0
  184.8540  179.7800  144.2180 O   0  0  0  0  0  1  0  0  0  0  0  0
  184.1840  178.7050  143.6360 C   0  0  0  0  0  2  0  0  0  0  0  0
  183.8370  177.8620  140.2970 C   0  0  0  0  0  1  0  0  0  0  0  0
  185.0460  178.5520  140.9040 C   0  0  0  0  0  2  0  0  0  0  0  0
  189.5620  172.2080  141.0940 C   0  0  0  0  0  2  0  0  0  0  0  0
  190.0460  171.4300  142.1450 O   0  0  0  0  0  1  0  0  0  0  0  0
  191.6770  174.6290  142.7070 N   0  0  0  0  0  2  0  0  0  0  0  0
  192.7380  173.7130  143.0910 C   0  0  0  0  0  2  0  0  0  0  0  0
  192.4060  173.0600  144.4240 C   0  0  0  0  0  2  0  0  0  0  0  0
  193.4360  173.4220  145.4840 C   0  0  0  0  0  2  0  0  0  0  0  0
  193.2150  174.8460  145.9800 C   0  0  0  0  0  2  0  0  0  0  0  0
  194.5280  175.5450  146.3180 C   0  0  2  0  0  3  0  0  0  0  0  0
  194.4970  176.8790  145.9060 O   0  0  0  0  0  1  0  0  0  0  0  0
  195.7100  174.8330  145.6850 C   0  0  0  0  0  1  0  0  0  0  0  0
  1 15  1  6  0  0  0
  1 17  1  0  0  0  0
  1  9  1  0  0  0  0
  2  3  2  0  0  0  0
  4  5  1  0  0  0  0
  4 17  1  0  0  0  0
  5 18  1  0  0  0  0
  6 23  1  1  0  0  0
  6  7  1  0  0  0  0
  7 25  1  6  0  0  0
  7  9  1  0  0  0  0
  8  2  1  0  0  0  0
  9 13  1  0  0  0  0
 10 12  1  0  0  0  0
 11 14  1  0  0  0  0
 11 10  1  0  0  0  0
 12  3  1  0  0  0  0
 13 10  1  0  0  0  0
 13  8  1  0  0  0  0
 15  6  1  0  0  0  0
 16  4  2  0  0  0  0
 17 11  1  0  0  0  0
 18 20  1  0  0  0  0
 18 14  1  0  0  0  0
 20 19  1  0  0  0  0
 21 22  1  0  0  0  0
 22  5  1  0  0  0  0
 23 24  1  0  0  0  0
 25 26  1  0  0  0  0
 26 27  1  0  0  0  0
 27 28  1  0  0  0  0
 28 29  1  0  0  0  0
 29 30  1  0  0  0  0
 31 30  1  0  0  0  0
 32 30  1  0  0  0  0
M  END
>  <MODEL>
4

>  <REMARK>
 VINA RESULT:      -6.5      1.846      2.243
  Name = 
  9 active torsions:
  status: ('A' for Active; 'I' for Inactive)
    1  A    between atoms: C_1  and  C_24
    2  A    between atoms: C_2  and  C_10
    3  A    between atoms: C_2  and  C_12
    4  A    between atoms: N_7  and  C_22
    5  A    between atoms: C_8  and  C_19
    6  A    between atoms: C_9  and  N_21
    7  A    between atoms: C_10  and  C_24
    8  A    between atoms: C_12  and  N_21
    9  A    between atoms: C_30  and  C_32
                            x       y       z     vdW  Elec       q    Type
                         _______ _______ _______ _____ _____    ______ ____

>  <TORSDO>
F 9

$$$$
=
 OpenBabel11052421323D

 32 35  0  0  1  0  0  0  0  0999 V2000
  188.3940  176.3180  144.1680 N   0  0  1  0  0  0  0  0  0  0  0  0
  185.5950  178.0030  147.8120 C   0  0  0  0  0  3  0  0  0  0  0  0
  185.2590  179.0390  147.0480 C   0  0  0  0  0  3  0  0  0  0  0  0
  187.4920  176.7640  141.9000 C   0  0  0  0  0  0  0  0  0  0  0  0
  186.4590  177.3050  141.0600 N   0  0  0  0  0  0  0  0  0  0  0  0
  189.8540  174.6770  145.1380 C   0  0  2  0  0  3  0  0  0  0  0  0
  189.1900  175.4640  146.2560 C   0  0  2  0  0  3  0  0  0  0  0  0
  186.3850  176.8630  147.2510 C   0  0  0  0  0  2  0  0  0  0  0  0
  188.0030  176.0870  145.5510 C   0  0  1  0  0  3  0  0  0  0  0  0
  186.7010  178.2040  145.1180 C   0  0  1  0  0  3  0  0  0  0  0  0
  186.0990  177.3550  143.9820 C   0  0  1  0  0  3  0  0  0  0  0  0
  185.7240  179.1320  145.6970 N   0  0  0  0  0  2  0  0  0  0  0  0
  187.3900  177.3320  146.1980 C   0  0  1  0  0  3  0  0  0  0  0  0
  185.3270  178.2370  142.9880 C   0  0  0  0  0  2  0  0  0  0  0  0
  189.1410  175.1040  143.8580 C   0  0  0  0  0  2  0  0  0  0  0  0
  188.6410  176.5470  141.4270 O   0  0  0  0  0  0  0  0  0  0  0  0
  187.1750  176.4040  143.3420 C   0  0  2  0  0  3  0  0  0  0  0  0
  185.1370  177.5280  141.6590 C   0  0  1  0  0  3  0  0  0  0  0  0
  182.9140  178.3280  141.2960 O   0  0  0  0  0  1  0  0  0  0  0  0
  184.2080  178.3550  140.7780 C   0  0  0  0  0  2  0  0  0  0  0  0
  186.5770  176.3240  138.8210 C   0  0  0  0  0  1  0  0  0  0  0  0
  186.7320  177.5860  139.6500 C   0  0  0  0  0  2  0  0  0  0  0  0
  189.6680  173.1890  145.3710 C   0  0  0  0  0  2  0  0  0  0  0  0
  189.1120  172.5970  144.2380 O   0  0  0  0  0  1  0  0  0  0  0  0
  190.1080  176.4940  146.7230 N   0  0  0  0  0  2  0  0  0  0  0  0
  191.1750  175.8220  147.4460 C   0  0  0  0  0  2  0  0  0  0  0  0
  192.4920  176.5520  147.2310 C   0  0  0  0  0  2  0  0  0  0  0  0
  193.3410  175.8540  146.1790 C   0  0  0  0  0  2  0  0  0  0  0  0
  193.6470  176.8010  145.0240 C   0  0  0  0  0  2  0  0  0  0  0  0
  192.7200  176.5740  143.8350 C   0  0  2  0  0  3  0  0  0  0  0  0
  193.4580  176.3460  142.6720 O   0  0  0  0  0  1  0  0  0  0  0  0
  191.7810  177.7490  143.6350 C   0  0  0  0  0  1  0  0  0  0  0  0
  1 15  1  6  0  0  0
  1  9  1  0  0  0  0
  3  2  2  0  0  0  0
  4 17  1  0  0  0  0
  5 18  1  0  0  0  0
  5  4  1  0  0  0  0
  6 23  1  1  0  0  0
  6  7  1  0  0  0  0
  7 25  1  6  0  0  0
  8  2  1  0  0  0  0
  9 13  1  0  0  0  0
  9  7  1  0  0  0  0
 10 12  1  0  0  0  0
 10 13  1  0  0  0  0
 11 10  1  0  0  0  0
 12  3  1  0  0  0  0
 13  8  1  0  0  0  0
 14 11  1  0  0  0  0
 15  6  1  0  0  0  0
 16  4  2  0  0  0  0
 17 11  1  0  0  0  0
 17  1  1  0  0  0  0
 18 14  1  0  0  0  0
 20 19  1  0  0  0  0
 20 18  1  0  0  0  0
 21 22  1  0  0  0  0
 22  5  1  0  0  0  0
 24 23  1  0  0  0  0
 25 26  1  0  0  0  0
 27 26  1  0  0  0  0
 28 27  1  0  0  0  0
 29 28  1  0  0  0  0
 30 29  1  0  0  0  0
 31 30  1  0  0  0  0
 32 30  1  0  0  0  0
M  END
>  <MODEL>
5

>  <REMARK>
 VINA RESULT:      -6.4      2.240      4.236
  Name = 
  9 active torsions:
  status: ('A' for Active; 'I' for Inactive)
    1  A    between atoms: C_1  and  C_24
    2  A    between atoms: C_2  and  C_10
    3  A    between atoms: C_2  and  C_12
    4  A    between atoms: N_7  and  C_22
    5  A    between atoms: C_8  and  C_19
    6  A    between atoms: C_9  and  N_21
    7  A    between atoms: C_10  and  C_24
    8  A    between atoms: C_12  and  N_21
    9  A    between atoms: C_30  and  C_32
                            x       y       z     vdW  Elec       q    Type
                         _______ _______ _______ _____ _____    ______ ____

>  <TORSDO>
F 9

$$$$
=
 OpenBabel11052421323D

 32 35  0  0  1  0  0  0  0  0999 V2000
  188.9270  175.8710  142.7830 N   0  0  1  0  0  0  0  0  0  0  0  0
  191.0610  175.3110  147.1510 C   0  0  0  0  0  3  0  0  0  0  0  0
  190.6560  176.5340  147.4840 C   0  0  0  0  0  3  0  0  0  0  0  0
  186.8380  177.2080  142.8340 C   0  0  0  0  0  0  0  0  0  0  0  0
  185.8550  177.9470  143.5780 N   0  0  0  0  0  0  0  0  0  0  0  0
  189.8310  174.1580  141.3630 C   0  0  2  0  0  3  0  0  0  0  0  0
  190.6760  174.2460  142.6220 C   0  0  2  0  0  3  0  0  0  0  0  0
  190.5950  174.6680  145.8830 C   0  0  0  0  0  2  0  0  0  0  0  0
  189.7560  174.9770  143.5780 C   0  0  1  0  0  3  0  0  0  0  0  0
  189.5270  176.8760  145.2230 C   0  0  1  0  0  3  0  0  0  0  0  0
  188.0250  176.5870  145.0310 C   0  0  1  0  0  3  0  0  0  0  0  0
  189.8400  177.3000  146.5920 N   0  0  0  0  0  2  0  0  0  0  0  0
  190.4140  175.6920  144.7610 C   0  0  1  0  0  3  0  0  0  0  0  0
  187.1700  177.7290  145.6010 C   0  0  0  0  0  2  0  0  0  0  0  0
  188.6130  175.0420  141.6240 C   0  0  0  0  0  2  0  0  0  0  0  0
  186.9440  177.3770  141.5880 O   0  0  0  0  0  0  0  0  0  0  0  0
  187.7030  176.1830  143.5460 C   0  0  2  0  0  3  0  0  0  0  0  0
  185.7660  177.7030  145.0230 C   0  0  1  0  0  3  0  0  0  0  0  0
  184.2570  178.1180  146.8300 O   0  0  0  0  0  1  0  0  0  0  0  0
  184.9040  178.7250  145.7550 C   0  0  0  0  0  2  0  0  0  0  0  0
  183.7060  178.1710  142.4290 C   0  0  0  0  0  1  0  0  0  0  0  0
  184.9650  178.8830  142.8910 C   0  0  0  0  0  2  0  0  0  0  0  0
  189.3960  172.7230  141.1300 C   0  0  0  0  0  2  0  0  0  0  0  0
  188.0910  172.6950  140.6400 O   0  0  0  0  0  1  0  0  0  0  0  0
  191.8630  175.0440  142.3430 N   0  0  0  0  0  2  0  0  0  0  0  0
  192.6680  174.2960  141.3910 C   0  0  0  0  0  2  0  0  0  0  0  0
  194.0440  174.9310  141.2600 C   0  0  0  0  0  2  0  0  0  0  0  0
  194.1710  176.1540  142.1560 C   0  0  0  0  0  2  0  0  0  0  0  0
  195.5650  176.2260  142.7700 C   0  0  0  0  0  2  0  0  0  0  0  0
  195.5310  176.0710  144.2860 C   0  0  2  0  0  3  0  0  0  0  0  0
  195.9220  174.7830  144.6590 O   0  0  0  0  0  1  0  0  0  0  0  0
  194.1520  176.3780  144.8420 C   0  0  0  0  0  1  0  0  0  0  0  0
  1 15  1  6  0  0  0
  1 17  1  0  0  0  0
  1  9  1  0  0  0  0
  2  3  2  0  0  0  0
  4 17  1  0  0  0  0
  4  5  1  0  0  0  0
  5 18  1  0  0  0  0
  6 23  1  1  0  0  0
  6 15  1  0  0  0  0
  6  7  1  0  0  0  0
  7 25  1  6  0  0  0
  7  9  1  0  0  0  0
  8  2  1  0  0  0  0
  9 13  1  0  0  0  0
 10 12  1  0  0  0  0
 11 10  1  0  0  0  0
 11 14  1  0  0  0  0
 12  3  1  0  0  0  0
 13 10  1  0  0  0  0
 13  8  1  0  0  0  0
 16  4  2  0  0  0  0
 17 11  1  0  0  0  0
 18 14  1  0  0  0  0
 18 20  1  0  0  0  0
 20 19  1  0  0  0  0
 21 22  1  0  0  0  0
 22  5  1  0  0  0  0
 24 23  1  0  0  0  0
 26 25  1  0  0  0  0
 27 26  1  0  0  0  0
 27 28  1  0  0  0  0
 28 29  1  0  0  0  0
 29 30  1  0  0  0  0
 30 31  1  0  0  0  0
 30 32  1  0  0  0  0
M  END
>  <MODEL>
6

>  <REMARK>
 VINA RESULT:      -6.0      1.194      1.399
  Name = 
  9 active torsions:
  status: ('A' for Active; 'I' for Inactive)
    1  A    between atoms: C_1  and  C_24
    2  A    between atoms: C_2  and  C_10
    3  A    between atoms: C_2  and  C_12
    4  A    between atoms: N_7  and  C_22
    5  A    between atoms: C_8  and  C_19
    6  A    between atoms: C_9  and  N_21
    7  A    between atoms: C_10  and  C_24
    8  A    between atoms: C_12  and  N_21
    9  A    between atoms: C_30  and  C_32
                            x       y       z     vdW  Elec       q    Type
                         _______ _______ _______ _____ _____    ______ ____

>  <TORSDO>
F 9

$$$$
=
 OpenBabel11052421323D

 32 35  0  0  1  0  0  0  0  0999 V2000
  189.9620  176.0110  145.0010 N   0  0  1  0  0  0  0  0  0  0  0  0
  189.9880  173.8280  140.6210 C   0  0  0  0  0  3  0  0  0  0  0  0
  188.6590  173.7820  140.6580 C   0  0  0  0  0  3  0  0  0  0  0  0
  188.0400  177.5370  145.3670 C   0  0  0  0  0  0  0  0  0  0  0  0
  186.8390  178.1590  144.8810 N   0  0  0  0  0  0  0  0  0  0  0  0
  192.1980  175.8370  145.8580 C   0  0  2  0  0  3  0  0  0  0  0  0
  192.0590  174.9090  144.6630 C   0  0  2  0  0  3  0  0  0  0  0  0
  190.7580  174.5800  141.6610 C   0  0  0  0  0  2  0  0  0  0  0  0
  190.8280  175.4580  143.9700 C   0  0  1  0  0  3  0  0  0  0  0  0
  188.5900  174.9180  142.9400 C   0  0  1  0  0  3  0  0  0  0  0  0
  188.3970  176.4420  143.0660 C   0  0  1  0  0  3  0  0  0  0  0  0
  187.9380  174.3720  141.7450 N   0  0  0  0  0  2  0  0  0  0  0  0
  190.0820  174.5080  143.0310 C   0  0  1  0  0  3  0  0  0  0  0  0
  186.9240  176.8270  142.8590 C   0  0  0  0  0  2  0  0  0  0  0  0
  190.9210  176.6720  145.8790 C   0  0  0  0  0  2  0  0  0  0  0  0
  188.2650  177.4830  146.6070 O   0  0  0  0  0  0  0  0  0  0  0  0
  189.0600  176.9990  144.3780 C   0  0  2  0  0  3  0  0  0  0  0  0
  186.6340  178.2050  143.4280 C   0  0  1  0  0  3  0  0  0  0  0  0
  184.5460  177.5390  142.4720 O   0  0  0  0  0  1  0  0  0  0  0  0
  185.2220  178.6220  143.0320 C   0  0  0  0  0  2  0  0  0  0  0  0
  184.9240  177.6870  146.3280 C   0  0  0  0  0  1  0  0  0  0  0  0
  185.8850  178.7470  145.8200 C   0  0  0  0  0  2  0  0  0  0  0  0
  193.4090  176.7340  145.6790 C   0  0  0  0  0  2  0  0  0  0  0  0
  194.1260  176.8100  146.8720 O   0  0  0  0  0  1  0  0  0  0  0  0
  191.8160  173.5540  145.1400 N   0  0  0  0  0  2  0  0  0  0  0  0
  193.0700  172.8270  145.0250 C   0  0  0  0  0  2  0  0  0  0  0  0
  193.7890  173.2280  143.7450 C   0  0  0  0  0  2  0  0  0  0  0  0
  195.2170  173.6650  144.0320 C   0  0  0  0  0  2  0  0  0  0  0  0
  195.4910  173.6500  145.5320 C   0  0  0  0  0  2  0  0  0  0  0  0
  196.8570  173.0570  145.8580 C   0  0  2  0  0  3  0  0  0  0  0  0
  197.8280  173.5440  144.9810 O   0  0  0  0  0  1  0  0  0  0  0  0
  196.8260  171.5400  145.8100 C   0  0  0  0  0  1  0  0  0  0  0  0
  1 15  1  1  0  0  0
  2  3  2  0  0  0  0
  2  8  1  0  0  0  0
  3 12  1  0  0  0  0
  4 16  2  0  0  0  0
  5  4  1  0  0  0  0
  5 22  1  0  0  0  0
  6 23  1  6  0  0  0
  6 15  1  0  0  0  0
  7 25  1  1  0  0  0
  7  6  1  0  0  0  0
  8 13  1  0  0  0  0
  9  7  1  0  0  0  0
  9  1  1  0  0  0  0
 10 13  1  0  0  0  0
 10 11  1  0  0  0  0
 11 17  1  0  0  0  0
 12 10  1  0  0  0  0
 13  9  1  0  0  0  0
 14 11  1  0  0  0  0
 14 18  1  0  0  0  0
 17  1  1  0  0  0  0
 17  4  1  0  0  0  0
 18  5  1  0  0  0  0
 19 20  1  0  0  0  0
 20 18  1  0  0  0  0
 22 21  1  0  0  0  0
 23 24  1  0  0  0  0
 26 25  1  0  0  0  0
 27 28  1  0  0  0  0
 27 26  1  0  0  0  0
 28 29  1  0  0  0  0
 29 30  1  0  0  0  0
 31 30  1  0  0  0  0
 32 30  1  0  0  0  0
M  END
>  <MODEL>
7

>  <REMARK>
 VINA RESULT:      -6.0      1.982      4.316
  Name = 
  9 active torsions:
  status: ('A' for Active; 'I' for Inactive)
    1  A    between atoms: C_1  and  C_24
    2  A    between atoms: C_2  and  C_10
    3  A    between atoms: C_2  and  C_12
    4  A    between atoms: N_7  and  C_22
    5  A    between atoms: C_8  and  C_19
    6  A    between atoms: C_9  and  N_21
    7  A    between atoms: C_10  and  C_24
    8  A    between atoms: C_12  and  N_21
    9  A    between atoms: C_30  and  C_32
                            x       y       z     vdW  Elec       q    Type
                         _______ _______ _______ _____ _____    ______ ____

>  <TORSDO>
F 9

$$$$
=
 OpenBabel11052421323D

 32 35  0  0  1  0  0  0  0  0999 V2000
  190.7750  176.1710  144.2180 N   0  0  1  0  0  0  0  0  0  0  0  0
  188.7220  173.0210  141.0860 C   0  0  0  0  0  3  0  0  0  0  0  0
  189.8360  173.0490  140.3590 C   0  0  0  0  0  3  0  0  0  0  0  0
  193.2190  175.8660  144.5150 C   0  0  0  0  0  0  0  0  0  0  0  0
  194.4270  175.1500  144.2070 N   0  0  0  0  0  0  0  0  0  0  0  0
  188.9870  177.0690  145.5460 C   0  0  2  0  0  3  0  0  0  0  0  0
  188.3920  176.3380  144.3540 C   0  0  2  0  0  3  0  0  0  0  0  0
  188.6640  173.6900  142.4230 C   0  0  0  0  0  2  0  0  0  0  0  0
  189.5440  175.4610  143.9050 C   0  0  1  0  0  3  0  0  0  0  0  0
  190.9510  174.6890  141.9600 C   0  0  1  0  0  3  0  0  0  0  0  0
  191.8740  174.1960  143.0920 C   0  0  1  0  0  3  0  0  0  0  0  0
  190.9740  173.7970  140.7960 N   0  0  0  0  0  2  0  0  0  0  0  0
  189.5100  174.9630  142.4590 C   0  0  1  0  0  3  0  0  0  0  0  0
  193.2620  173.8260  142.5460 C   0  0  0  0  0  2  0  0  0  0  0  0
  190.4760  176.7320  145.5310 C   0  0  0  0  0  2  0  0  0  0  0  0
  193.2810  177.0290  144.9980 O   0  0  0  0  0  0  0  0  0  0  0  0
  191.8740  175.1910  144.3090 C   0  0  2  0  0  3  0  0  0  0  0  0
  194.2970  173.7950  143.6570 C   0  0  1  0  0  3  0  0  0  0  0  0
  195.4480  171.8960  142.7720 O   0  0  0  0  0  1  0  0  0  0  0  0
  195.6060  173.2400  143.1060 C   0  0  0  0  0  2  0  0  0  0  0  0
  196.1940  176.5540  143.2610 C   0  0  0  0  0  1  0  0  0  0  0  0
  195.7300  175.7610  144.4700 C   0  0  0  0  0  2  0  0  0  0  0  0
  188.3500  176.5700  146.8300 C   0  0  0  0  0  2  0  0  0  0  0  0
  188.9540  175.3780  147.2280 O   0  0  0  0  0  1  0  0  0  0  0  0
  188.0550  177.3090  143.3220 N   0  0  0  0  0  2  0  0  0  0  0  0
  186.6060  177.3320  143.2100 C   0  0  0  0  0  2  0  0  0  0  0  0
  186.1240  178.7520  142.9590 C   0  0  0  0  0  2  0  0  0  0  0  0
  185.7420  179.4400  144.2610 C   0  0  0  0  0  2  0  0  0  0  0  0
  184.4630  178.8370  144.8310 C   0  0  0  0  0  2  0  0  0  0  0  0
  184.6340  178.3930  146.2790 C   0  0  2  0  0  3  0  0  0  0  0  0
  185.6760  179.0940  146.8900 O   0  0  0  0  0  1  0  0  0  0  0  0
  184.8880  176.8990  146.3710 C   0  0  0  0  0  1  0  0  0  0  0  0
  1 17  1  0  0  0  0
  1 15  1  1  0  0  0
  2  8  1  0  0  0  0
  3 12  1  0  0  0  0
  3  2  2  0  0  0  0
  4 16  2  0  0  0  0
  5 22  1  0  0  0  0
  5  4  1  0  0  0  0
  6 23  1  1  0  0  0
  7 25  1  6  0  0  0
  7  6  1  0  0  0  0
  8 13  1  0  0  0  0
  9  1  1  0  0  0  0
  9  7  1  0  0  0  0
 10 13  1  0  0  0  0
 10 11  1  0  0  0  0
 11 17  1  0  0  0  0
 12 10  1  0  0  0  0
 13  9  1  0  0  0  0
 14 11  1  0  0  0  0
 14 18  1  0  0  0  0
 15  6  1  0  0  0  0
 17  4  1  0  0  0  0
 18  5  1  0  0  0  0
 19 20  1  0  0  0  0
 20 18  1  0  0  0  0
 21 22  1  0  0  0  0
 23 24  1  0  0  0  0
 26 25  1  0  0  0  0
 27 26  1  0  0  0  0
 27 28  1  0  0  0  0
 28 29  1  0  0  0  0
 29 30  1  0  0  0  0
 30 32  1  0  0  0  0
 30 31  1  0  0  0  0
M  END
>  <MODEL>
8

>  <REMARK>
 VINA RESULT:      -5.9      2.018      7.915
  Name = 
  9 active torsions:
  status: ('A' for Active; 'I' for Inactive)
    1  A    between atoms: C_1  and  C_24
    2  A    between atoms: C_2  and  C_10
    3  A    between atoms: C_2  and  C_12
    4  A    between atoms: N_7  and  C_22
    5  A    between atoms: C_8  and  C_19
    6  A    between atoms: C_9  and  N_21
    7  A    between atoms: C_10  and  C_24
    8  A    between atoms: C_12  and  N_21
    9  A    between atoms: C_30  and  C_32
                            x       y       z     vdW  Elec       q    Type
                         _______ _______ _______ _____ _____    ______ ____

>  <TORSDO>
F 9

$$$$
=
 OpenBabel11052421323D

 32 35  0  0  1  0  0  0  0  0999 V2000
  189.7490  174.7020  142.5520 N   0  0  1  0  0  0  0  0  0  0  0  0
  185.5420  177.1940  142.3530 C   0  0  0  0  0  3  0  0  0  0  0  0
  185.8410  177.5590  141.1100 C   0  0  0  0  0  3  0  0  0  0  0  0
  190.4220  173.6660  140.4010 C   0  0  0  0  0  0  0  0  0  0  0  0
  190.1550  173.4010  139.0130 N   0  0  0  0  0  0  0  0  0  0  0  0
  190.1590  174.2470  144.8750 C   0  0  2  0  0  3  0  0  0  0  0  0
  189.0530  175.2840  144.7660 C   0  0  2  0  0  3  0  0  0  0  0  0
  186.3790  176.1860  143.0770 C   0  0  0  0  0  2  0  0  0  0  0  0
  188.5920  175.1160  143.3320 C   0  0  1  0  0  3  0  0  0  0  0  0
  188.0430  176.2760  141.1610 C   0  0  1  0  0  3  0  0  0  0  0  0
  188.1420  174.8400  140.6090 C   0  0  1  0  0  3  0  0  0  0  0  0
  187.0220  177.0680  140.4680 N   0  0  0  0  0  2  0  0  0  0  0  0
  187.8570  176.2990  142.6990 C   0  0  1  0  0  3  0  0  0  0  0  0
  188.2130  174.8460  139.0740 C   0  0  0  0  0  2  0  0  0  0  0  0
  190.3950  173.7510  143.4500 C   0  0  0  0  0  2  0  0  0  0  0  0
  191.5950  173.5520  140.8500 O   0  0  0  0  0  0  0  0  0  0  0  0
  189.2760  174.0240  141.3310 C   0  0  2  0  0  3  0  0  0  0  0  0
  188.7710  173.5370  138.5460 C   0  0  1  0  0  3  0  0  0  0  0  0
  188.4100  174.8040  136.5510 O   0  0  0  0  0  1  0  0  0  0  0  0
  188.6420  173.5140  137.0270 C   0  0  0  0  0  2  0  0  0  0  0  0
  191.9710  174.1960  137.5790 C   0  0  0  0  0  1  0  0  0  0  0  0
  191.2390  172.9830  138.1240 C   0  0  0  0  0  2  0  0  0  0  0  0
  189.7090  173.1010  145.7610 C   0  0  0  0  0  2  0  0  0  0  0  0
  189.4880  171.9610  144.9900 O   0  0  0  0  0  1  0  0  0  0  0  0
  189.6230  176.6090  144.9690 N   0  0  0  0  0  2  0  0  0  0  0  0
  188.8200  177.2700  145.9850 C   0  0  0  0  0  2  0  0  0  0  0  0
  188.0070  176.2420  146.7580 C   0  0  0  0  0  2  0  0  0  0  0  0
  186.6490  176.8020  147.1540 C   0  0  0  0  0  2  0  0  0  0  0  0
  186.5530  178.2800  146.7940 C   0  0  0  0  0  2  0  0  0  0  0  0
  185.5720  178.5290  145.6540 C   0  0  2  0  0  3  0  0  0  0  0  0
  185.9230  179.6770  144.9420 O   0  0  0  0  0  1  0  0  0  0  0  0
  184.1490  178.6500  146.1680 C   0  0  0  0  0  1  0  0  0  0  0  0
  1  9  1  0  0  0  0
  1 15  1  1  0  0  0
  2  8  1  0  0  0  0
  3  2  2  0  0  0  0
  4 16  2  0  0  0  0
  4 17  1  0  0  0  0
  5  4  1  0  0  0  0
  6 23  1  1  0  0  0
  7  6  1  0  0  0  0
  7 25  1  6  0  0  0
  9  7  1  0  0  0  0
 10 13  1  0  0  0  0
 11 10  1  0  0  0  0
 11 17  1  0  0  0  0
 12  3  1  0  0  0  0
 12 10  1  0  0  0  0
 13  8  1  0  0  0  0
 13  9  1  0  0  0  0
 14 11  1  0  0  0  0
 15  6  1  0  0  0  0
 17  1  1  0  0  0  0
 18  5  1  0  0  0  0
 18 14  1  0  0  0  0
 19 20  1  0  0  0  0
 20 18  1  0  0  0  0
 21 22  1  0  0  0  0
 22  5  1  0  0  0  0
 24 23  1  0  0  0  0
 25 26  1  0  0  0  0
 26 27  1  0  0  0  0
 27 28  1  0  0  0  0
 29 28  1  0  0  0  0
 30 32  1  0  0  0  0
 30 29  1  0  0  0  0
 31 30  1  0  0  0  0
M  END
>  <MODEL>
9

>  <REMARK>
 VINA RESULT:      -5.7      2.829      7.402
  Name = 
  9 active torsions:
  status: ('A' for Active; 'I' for Inactive)
    1  A    between atoms: C_1  and  C_24
    2  A    between atoms: C_2  and  C_10
    3  A    between atoms: C_2  and  C_12
    4  A    between atoms: N_7  and  C_22
    5  A    between atoms: C_8  and  C_19
    6  A    between atoms: C_9  and  N_21
    7  A    between atoms: C_10  and  C_24
    8  A    between atoms: C_12  and  N_21
    9  A    between atoms: C_30  and  C_32
                            x       y       z     vdW  Elec       q    Type
                         _______ _______ _______ _____ _____    ______ ____

>  <TORSDO>
F 9

$$$$
