=
 OpenBabel11052417193D

 30 36  0  0  1  0  0  0  0  0999 V2000
  187.9970  175.6340  142.6750 C   0  0  2  0  0  3  0  0  0  0  0  0
  186.7710  177.4590  141.2930 C   0  0  2  0  0  3  0  0  0  0  0  0
  186.3440  178.1190  145.5360 N   0  0  0  0  0  2  0  0  0  0  0  0
  189.2030  176.5280  143.0540 C   0  0  2  0  0  3  0  0  0  0  0  0
  188.3920  174.7960  141.5480 N   0  0  0  0  0  0  0  0  0  0  0  0
  192.1860  174.3520  141.7790 S   0  0  0  0  0  0  0  0  0  0  0  0
  191.4810  174.5280  145.5340 C   0  0  0  0  0  0  0  0  0  0  0  0
  190.5710  174.4080  142.6150 C   0  0  2  0  0  3  0  0  0  0  0  0
  190.0750  173.6420  140.3460 N   0  0  0  0  0  2  0  0  0  0  0  0
  189.6620  176.2510  145.9100 C   0  0  0  0  0  0  0  0  0  0  0  0
  187.5410  177.6230  146.1630 C   0  0  0  0  0  0  0  0  0  0  0  0
  189.5640  174.2420  141.5210 C   0  0  0  0  0  0  0  0  0  0  0  0
  190.3860  175.6460  143.5250 C   0  0  2  0  0  3  0  0  0  0  0  0
  185.6680  178.5230  141.3590 C   0  0  0  0  0  2  0  0  0  0  0  0
  190.1180  176.4060  147.1630 C   0  0  0  0  0  3  0  0  0  0  0  0
  192.1920  175.1420  146.6980 C   0  0  0  0  0  2  0  0  0  0  0  0
  192.1290  172.9490  139.2680 C   0  0  0  0  0  1  0  0  0  0  0  0
  186.7820  176.8460  139.9060 C   0  0  0  0  0  1  0  0  0  0  0  0
  186.1740  178.1160  144.0960 C   0  0  2  0  0  3  0  0  0  0  0  0
  184.4560  178.0890  142.1890 C   0  0  0  0  0  2  0  0  0  0  0  0
  191.3630  173.5870  140.3710 C   0  0  1  0  0  3  0  0  0  0  0  0
  186.6700  176.3500  142.3660 C   0  0  2  0  0  3  0  0  0  0  0  0
  188.9260  177.6630  144.0410 C   0  0  0  0  0  2  0  0  0  0  0  0
  187.5730  177.5650  147.4200 O   0  0  0  0  0  0  0  0  0  0  0  0
  188.6730  177.1520  145.3840 N   0  0  0  0  0  0  0  0  0  0  0  0
  191.1590  175.5040  147.7530 C   0  0  0  0  0  2  0  0  0  0  0  0
  191.9050  173.4890  145.0550 O   0  0  0  0  0  0  0  0  0  0  0  0
  184.7900  177.6740  143.6340 C   0  0  1  0  0  3  0  0  0  0  0  0
  185.9400  176.6750  143.6820 C   0  0  2  0  0  3  0  0  0  0  0  0
  190.2170  175.1680  144.9890 C   0  0  1  0  0  3  0  0  0  0  0  0
  1  5  1  6  0  0  0
  1  4  1  0  0  0  0
  2 18  1  6  0  0  0
  2 14  1  0  0  0  0
  2 22  1  0  0  0  0
  3 11  1  0  0  0  0
  4 13  1  0  0  0  0
  4 23  1  1  0  0  0
  6  8  1  0  0  0  0
  7 16  1  0  0  0  0
  8 12  1  6  0  0  0
  8 13  1  0  0  0  0
  9 21  1  0  0  0  0
  9 12  1  0  0  0  0
 10 15  2  0  0  0  0
 11 24  2  0  0  0  0
 12  5  2  0  0  0  0
 13 30  1  0  0  0  0
 14 20  1  0  0  0  0
 15 26  1  0  0  0  0
 16 26  1  0  0  0  0
 17 21  1  0  0  0  0
 19  3  1  0  0  0  0
 20 28  1  0  0  0  0
 21  6  1  0  0  0  0
 22  1  1  0  0  0  0
 22 29  1  0  0  0  0
 23 25  1  0  0  0  0
 25 10  1  0  0  0  0
 25 11  1  0  0  0  0
 27  7  2  0  0  0  0
 28 29  1  0  0  0  0
 28 19  1  0  0  0  0
 29 19  1  0  0  0  0
 30  7  1  0  0  0  0
 30 10  1  0  0  0  0
M  END
>  <MODEL>
1

>  <REMARK>
 VINA RESULT:      -9.1      0.000      0.000
  Name = 
  0 active torsions:
  status: ('A' for Active; 'I' for Inactive)
                            x       y       z     vdW  Elec       q    Type
                         _______ _______ _______ _____ _____    ______ ____

>  <TORSDO>
F 0

$$$$
=
 OpenBabel11052417193D

 30 36  0  0  1  0  0  0  0  0999 V2000
  191.3780  175.2800  143.7230 C   0  0  2  0  0  3  0  0  0  0  0  0
  193.2920  173.7760  144.6300 C   0  0  2  0  0  3  0  0  0  0  0  0
  192.0570  176.7130  147.5420 N   0  0  0  0  0  2  0  0  0  0  0  0
  190.2550  174.5830  144.5280 C   0  0  2  0  0  3  0  0  0  0  0  0
  191.3620  174.7450  142.3660 N   0  0  0  0  0  0  0  0  0  0  0  0
  187.7750  173.6060  141.6730 S   0  0  0  0  0  0  0  0  0  0  0  0
  186.9230  176.5590  143.9500 C   0  0  0  0  0  0  0  0  0  0  0  0
  188.9070  174.8490  142.3670 C   0  0  2  0  0  3  0  0  0  0  0  0
  190.1670  173.7990  140.5530 N   0  0  0  0  0  2  0  0  0  0  0  0
  188.6510  176.6450  145.8010 C   0  0  0  0  0  0  0  0  0  0  0  0
  190.6540  176.9530  147.3300 C   0  0  0  0  0  0  0  0  0  0  0  0
  190.2370  174.5470  141.7520 C   0  0  0  0  0  0  0  0  0  0  0  0
  188.8750  174.9230  143.9130 C   0  0  2  0  0  3  0  0  0  0  0  0
  194.4080  173.6990  145.6800 C   0  0  0  0  0  2  0  0  0  0  0  0
  187.7540  177.2950  146.5590 C   0  0  0  0  0  3  0  0  0  0  0  0
  185.8940  176.7910  145.0100 C   0  0  0  0  0  2  0  0  0  0  0  0
  188.6490  172.5440  139.1460 C   0  0  0  0  0  1  0  0  0  0  0  0
  193.7590  173.0850  143.3630 C   0  0  0  0  0  1  0  0  0  0  0  0
  192.7920  175.7250  146.7740 C   0  0  2  0  0  3  0  0  0  0  0  0
  195.1110  175.0400  145.9160 C   0  0  0  0  0  2  0  0  0  0  0  0
  188.9830  173.3210  140.3680 C   0  0  1  0  0  3  0  0  0  0  0  0
  192.8010  175.2070  144.3060 C   0  0  2  0  0  3  0  0  0  0  0  0
  190.2610  174.8060  146.0410 C   0  0  0  0  0  2  0  0  0  0  0  0
  190.1110  177.8950  147.9630 O   0  0  0  0  0  0  0  0  0  0  0  0
  189.8800  176.1740  146.3790 N   0  0  0  0  0  0  0  0  0  0  0  0
  186.4530  177.7920  146.0080 C   0  0  0  0  0  2  0  0  0  0  0  0
  186.5920  176.5960  142.7770 O   0  0  0  0  0  0  0  0  0  0  0  0
  194.1700  176.1900  146.3200 C   0  0  1  0  0  3  0  0  0  0  0  0
  192.9750  176.2960  145.3800 C   0  0  2  0  0  3  0  0  0  0  0  0
  188.3740  176.3280  144.3350 C   0  0  1  0  0  3  0  0  0  0  0  0
  1  5  1  6  0  0  0
  1 22  1  0  0  0  0
  1  4  1  0  0  0  0
  2 18  1  6  0  0  0
  2 14  1  0  0  0  0
  4 23  1  1  0  0  0
  7 30  1  0  0  0  0
  7 16  1  0  0  0  0
  8  6  1  1  0  0  0
  8 13  1  0  0  0  0
  9 12  1  0  0  0  0
 10 25  1  0  0  0  0
 10 15  2  0  0  0  0
 11  3  1  0  0  0  0
 11 24  2  0  0  0  0
 12  5  2  0  0  0  0
 12  8  1  0  0  0  0
 13 30  1  0  0  0  0
 13  4  1  0  0  0  0
 14 20  1  0  0  0  0
 16 26  1  0  0  0  0
 17 21  1  0  0  0  0
 19  3  1  0  0  0  0
 20 28  1  0  0  0  0
 21  9  1  0  0  0  0
 21  6  1  0  0  0  0
 22  2  1  0  0  0  0
 22 29  1  0  0  0  0
 23 25  1  0  0  0  0
 25 11  1  0  0  0  0
 26 15  1  0  0  0  0
 27  7  2  0  0  0  0
 28 19  1  0  0  0  0
 29 28  1  0  0  0  0
 29 19  1  0  0  0  0
 30 10  1  0  0  0  0
M  END
>  <MODEL>
2

>  <REMARK>
 VINA RESULT:      -8.7      2.392      5.638
  Name = 
  0 active torsions:
  status: ('A' for Active; 'I' for Inactive)
                            x       y       z     vdW  Elec       q    Type
                         _______ _______ _______ _____ _____    ______ ____

>  <TORSDO>
F 0

$$$$
=
 OpenBabel11052417193D

 30 36  0  0  1  0  0  0  0  0999 V2000
  189.3170  175.1470  144.1410 C   0  0  2  0  0  3  0  0  0  0  0  0
  187.3910  176.8600  143.8210 C   0  0  2  0  0  3  0  0  0  0  0  0
  189.5320  177.5380  147.5070 N   0  0  0  0  0  2  0  0  0  0  0  0
  190.4490  176.1320  143.7590 C   0  0  2  0  0  3  0  0  0  0  0  0
  189.0180  174.3260  142.9730 N   0  0  0  0  0  0  0  0  0  0  0  0
  192.2220  174.1660  140.8880 S   0  0  0  0  0  0  0  0  0  0  0  0
  193.8820  174.3350  144.3300 C   0  0  0  0  0  0  0  0  0  0  0  0
  191.4240  174.1130  142.5210 C   0  0  2  0  0  3  0  0  0  0  0  0
  189.7260  173.2850  140.9670 N   0  0  0  0  0  2  0  0  0  0  0  0
  192.5350  175.9240  145.7720 C   0  0  0  0  0  0  0  0  0  0  0  0
  190.8960  177.1390  147.2820 C   0  0  0  0  0  0  0  0  0  0  0  0
  189.9770  173.8590  142.2350 C   0  0  0  0  0  0  0  0  0  0  0  0
  191.7350  175.3450  143.4040 C   0  0  2  0  0  3  0  0  0  0  0  0
  186.4770  177.8410  144.5670 C   0  0  0  0  0  2  0  0  0  0  0  0
  193.6360  176.1270  146.5130 C   0  0  0  0  0  3  0  0  0  0  0  0
  195.1030  175.0130  144.8630 C   0  0  0  0  0  2  0  0  0  0  0  0
  190.7750  172.7320  138.8570 C   0  0  0  0  0  1  0  0  0  0  0  0
  186.6150  176.2330  142.6800 C   0  0  0  0  0  1  0  0  0  0  0  0
  188.5380  177.5050  146.4510 C   0  0  2  0  0  3  0  0  0  0  0  0
  186.0290  177.3280  145.9400 C   0  0  0  0  0  2  0  0  0  0  0  0
  190.7770  173.3250  140.2190 C   0  0  1  0  0  3  0  0  0  0  0  0
  188.0230  175.7590  144.7060 C   0  0  2  0  0  3  0  0  0  0  0  0
  190.7390  177.2550  144.7560 C   0  0  0  0  0  2  0  0  0  0  0  0
  191.6740  177.0990  148.2720 O   0  0  0  0  0  0  0  0  0  0  0  0
  191.3700  176.7430  145.9680 N   0  0  0  0  0  0  0  0  0  0  0  0
  194.8800  175.3110  146.3370 C   0  0  0  0  0  2  0  0  0  0  0  0
  194.0050  173.3240  143.6580 O   0  0  0  0  0  0  0  0  0  0  0  0
  187.1850  176.9570  146.8880 C   0  0  1  0  0  3  0  0  0  0  0  0
  188.2000  176.0450  146.2080 C   0  0  2  0  0  3  0  0  0  0  0  0
  192.5030  174.8740  144.6650 C   0  0  1  0  0  3  0  0  0  0  0  0
  1  5  1  6  0  0  0
  1 22  1  0  0  0  0
  2 18  1  6  0  0  0
  2 14  1  0  0  0  0
  2 22  1  0  0  0  0
  4  1  1  0  0  0  0
  4 23  1  1  0  0  0
  7 30  1  0  0  0  0
  7 16  1  0  0  0  0
  8  6  1  6  0  0  0
  8 13  1  0  0  0  0
  9 12  1  0  0  0  0
 10 25  1  0  0  0  0
 10 15  2  0  0  0  0
 11  3  1  0  0  0  0
 11 24  2  0  0  0  0
 12  8  1  0  0  0  0
 12  5  2  0  0  0  0
 13  4  1  0  0  0  0
 13 30  1  0  0  0  0
 14 20  1  0  0  0  0
 16 26  1  0  0  0  0
 17 21  1  0  0  0  0
 19 28  1  0  0  0  0
 19  3  1  0  0  0  0
 20 28  1  0  0  0  0
 21  6  1  0  0  0  0
 21  9  1  0  0  0  0
 22 29  1  0  0  0  0
 23 25  1  0  0  0  0
 25 11  1  0  0  0  0
 26 15  1  0  0  0  0
 27  7  2  0  0  0  0
 29 19  1  0  0  0  0
 29 28  1  0  0  0  0
 30 10  1  0  0  0  0
M  END
>  <MODEL>
3

>  <REMARK>
 VINA RESULT:      -8.4      1.881      2.786
  Name = 
  0 active torsions:
  status: ('A' for Active; 'I' for Inactive)
                            x       y       z     vdW  Elec       q    Type
                         _______ _______ _______ _____ _____    ______ ____

>  <TORSDO>
F 0

$$$$
=
 OpenBabel11052417193D

 30 36  0  0  1  0  0  0  0  0999 V2000
  188.2690  175.4430  143.5130 C   0  0  2  0  0  3  0  0  0  0  0  0
  186.9250  177.6500  143.2490 C   0  0  2  0  0  3  0  0  0  0  0  0
  189.0930  177.5410  146.9790 N   0  0  0  0  0  2  0  0  0  0  0  0
  189.6440  176.0740  143.1830 C   0  0  2  0  0  3  0  0  0  0  0  0
  187.7710  174.7890  142.3070 N   0  0  0  0  0  0  0  0  0  0  0  0
  190.8360  173.7910  140.2460 S   0  0  0  0  0  0  0  0  0  0  0  0
  192.4020  173.3430  143.7070 C   0  0  0  0  0  0  0  0  0  0  0  0
  190.0220  173.9090  141.8690 C   0  0  2  0  0  3  0  0  0  0  0  0
  188.1910  173.6650  140.2660 N   0  0  0  0  0  2  0  0  0  0  0  0
  191.5400  175.1960  145.2040 C   0  0  0  0  0  0  0  0  0  0  0  0
  190.2890  176.7740  146.7490 C   0  0  0  0  0  0  0  0  0  0  0  0
  188.5710  174.0940  141.5600 C   0  0  0  0  0  0  0  0  0  0  0  0
  190.6570  174.9640  142.8060 C   0  0  2  0  0  3  0  0  0  0  0  0
  186.3160  178.8240  144.0270 C   0  0  0  0  0  2  0  0  0  0  0  0
  192.6380  175.0450  145.9620 C   0  0  0  0  0  3  0  0  0  0  0  0
  193.7560  173.6190  144.2790 C   0  0  0  0  0  2  0  0  0  0  0  0
  189.0800  172.9130  138.1430 C   0  0  0  0  0  1  0  0  0  0  0  0
  186.0250  177.3170  142.0750 C   0  0  0  0  0  1  0  0  0  0  0  0
  188.1540  177.8360  145.9140 C   0  0  2  0  0  3  0  0  0  0  0  0
  185.7120  178.4100  145.3730 C   0  0  0  0  0  2  0  0  0  0  0  0
  189.2240  173.4290  139.5300 C   0  0  1  0  0  3  0  0  0  0  0  0
  187.1940  176.3810  144.0910 C   0  0  2  0  0  3  0  0  0  0  0  0
  190.2250  177.0270  144.2280 C   0  0  0  0  0  2  0  0  0  0  0  0
  191.0020  176.4740  147.7430 O   0  0  0  0  0  0  0  0  0  0  0  0
  190.6570  176.3080  145.4240 N   0  0  0  0  0  0  0  0  0  0  0  0
  193.5970  173.9120  145.7630 C   0  0  0  0  0  2  0  0  0  0  0  0
  192.2430  172.3660  142.9940 O   0  0  0  0  0  0  0  0  0  0  0  0
  186.6920  177.6850  146.3140 C   0  0  1  0  0  3  0  0  0  0  0  0
  187.4160  176.5470  145.6060 C   0  0  2  0  0  3  0  0  0  0  0  0
  191.2300  174.2430  144.0530 C   0  0  1  0  0  3  0  0  0  0  0  0
  1  5  1  6  0  0  0
  1 22  1  0  0  0  0
  2 18  1  6  0  0  0
  2 14  1  0  0  0  0
  2 22  1  0  0  0  0
  4  1  1  0  0  0  0
  4 23  1  1  0  0  0
  7 30  1  0  0  0  0
  7 16  1  0  0  0  0
  8  6  1  6  0  0  0
  8 13  1  0  0  0  0
  9 12  1  0  0  0  0
 10 25  1  0  0  0  0
 10 15  2  0  0  0  0
 11  3  1  0  0  0  0
 11 24  2  0  0  0  0
 12  8  1  0  0  0  0
 12  5  2  0  0  0  0
 13  4  1  0  0  0  0
 13 30  1  0  0  0  0
 14 20  1  0  0  0  0
 16 26  1  0  0  0  0
 17 21  1  0  0  0  0
 19 28  1  0  0  0  0
 19  3  1  0  0  0  0
 20 28  1  0  0  0  0
 21  6  1  0  0  0  0
 21  9  1  0  0  0  0
 22 29  1  0  0  0  0
 23 25  1  0  0  0  0
 25 11  1  0  0  0  0
 26 15  1  0  0  0  0
 27  7  2  0  0  0  0
 29 19  1  0  0  0  0
 29 28  1  0  0  0  0
 30 10  1  0  0  0  0
M  END
>  <MODEL>
4

>  <REMARK>
 VINA RESULT:      -8.3      1.698      2.419
  Name = 
  0 active torsions:
  status: ('A' for Active; 'I' for Inactive)
                            x       y       z     vdW  Elec       q    Type
                         _______ _______ _______ _____ _____    ______ ____

>  <TORSDO>
F 0

$$$$
=
 OpenBabel11052417193D

 30 36  0  0  1  0  0  0  0  0999 V2000
  188.5520  175.3870  142.5180 C   0  0  2  0  0  3  0  0  0  0  0  0
  187.2350  177.5200  141.8360 C   0  0  2  0  0  3  0  0  0  0  0  0
  188.3460  177.5970  146.0060 N   0  0  0  0  0  2  0  0  0  0  0  0
  189.9380  176.0760  142.5400 C   0  0  2  0  0  3  0  0  0  0  0  0
  188.4160  174.6840  141.2470 N   0  0  0  0  0  0  0  0  0  0  0  0
  191.9550  173.7910  140.0970 S   0  0  0  0  0  0  0  0  0  0  0  0
  192.5700  173.4940  143.8610 C   0  0  0  0  0  0  0  0  0  0  0  0
  190.7380  173.9040  141.4450 C   0  0  2  0  0  3  0  0  0  0  0  0
  189.4060  173.5380  139.4260 N   0  0  0  0  0  2  0  0  0  0  0  0
  191.2680  175.3360  145.0150 C   0  0  0  0  0  0  0  0  0  0  0  0
  189.5900  176.8840  146.1250 C   0  0  0  0  0  0  0  0  0  0  0  0
  189.4120  174.0120  140.7590 C   0  0  0  0  0  0  0  0  0  0  0  0
  191.0580  175.0090  142.4790 C   0  0  2  0  0  3  0  0  0  0  0  0
  186.3950  178.6790  142.3880 C   0  0  0  0  0  2  0  0  0  0  0  0
  192.1320  175.2550  146.0400 C   0  0  0  0  0  3  0  0  0  0  0  0
  193.7120  173.8480  144.7590 C   0  0  0  0  0  2  0  0  0  0  0  0
  190.8530  172.7840  137.6380 C   0  0  0  0  0  1  0  0  0  0  0  0
  186.6910  177.1190  140.4790 C   0  0  0  0  0  1  0  0  0  0  0  0
  187.7090  177.8230  144.7230 C   0  0  2  0  0  3  0  0  0  0  0  0
  185.4750  178.2660  143.5410 C   0  0  0  0  0  2  0  0  0  0  0  0
  190.6050  173.3360  138.9960 C   0  0  1  0  0  3  0  0  0  0  0  0
  187.3250  176.2840  142.7620 C   0  0  2  0  0  3  0  0  0  0  0  0
  190.1830  177.0790  143.6680 C   0  0  0  0  0  2  0  0  0  0  0  0
  190.0280  176.6400  147.2800 O   0  0  0  0  0  0  0  0  0  0  0  0
  190.3130  176.4080  144.9580 N   0  0  0  0  0  0  0  0  0  0  0  0
  193.1550  174.1650  146.1380 C   0  0  0  0  0  2  0  0  0  0  0  0
  192.6450  172.4950  143.1640 O   0  0  0  0  0  0  0  0  0  0  0  0
  186.2000  177.6100  144.7300 C   0  0  1  0  0  3  0  0  0  0  0  0
  187.1320  176.4930  144.2750 C   0  0  2  0  0  3  0  0  0  0  0  0
  191.3120  174.3440  143.8560 C   0  0  1  0  0  3  0  0  0  0  0  0
  1  5  1  6  0  0  0
  1  4  1  0  0  0  0
  1 22  1  0  0  0  0
  2 18  1  6  0  0  0
  2 14  1  0  0  0  0
  2 22  1  0  0  0  0
  3 11  1  0  0  0  0
  4 23  1  1  0  0  0
  7 16  1  0  0  0  0
  8  6  1  6  0  0  0
  8 13  1  0  0  0  0
  9 12  1  0  0  0  0
 10 15  2  0  0  0  0
 11 24  2  0  0  0  0
 12  5  2  0  0  0  0
 12  8  1  0  0  0  0
 13  4  1  0  0  0  0
 13 30  1  0  0  0  0
 14 20  1  0  0  0  0
 15 26  1  0  0  0  0
 16 26  1  0  0  0  0
 17 21  1  0  0  0  0
 19 28  1  0  0  0  0
 19  3  1  0  0  0  0
 20 28  1  0  0  0  0
 21  9  1  0  0  0  0
 21  6  1  0  0  0  0
 22 29  1  0  0  0  0
 23 25  1  0  0  0  0
 25 10  1  0  0  0  0
 25 11  1  0  0  0  0
 27  7  2  0  0  0  0
 29 19  1  0  0  0  0
 29 28  1  0  0  0  0
 30  7  1  0  0  0  0
 30 10  1  0  0  0  0
M  END
>  <MODEL>
5

>  <REMARK>
 VINA RESULT:      -8.0      1.403      1.760
  Name = 
  0 active torsions:
  status: ('A' for Active; 'I' for Inactive)
                            x       y       z     vdW  Elec       q    Type
                         _______ _______ _______ _____ _____    ______ ____

>  <TORSDO>
F 0

$$$$
=
 OpenBabel11052417193D

 30 36  0  0  1  0  0  0  0  0999 V2000
  188.4390  176.8460  142.8050 C   0  0  2  0  0  3  0  0  0  0  0  0
  189.2900  174.5700  141.8860 C   0  0  2  0  0  3  0  0  0  0  0  0
  191.0900  175.5260  145.6900 N   0  0  0  0  0  2  0  0  0  0  0  0
  187.4840  176.2270  143.8550 C   0  0  2  0  0  3  0  0  0  0  0  0
  187.6470  177.2210  141.6390 N   0  0  0  0  0  0  0  0  0  0  0  0
  184.1020  177.9290  142.8930 S   0  0  0  0  0  0  0  0  0  0  0  0
  185.9760  179.1340  146.0030 C   0  0  0  0  0  0  0  0  0  0  0  0
  185.8990  178.1010  143.1240 C   0  0  2  0  0  3  0  0  0  0  0  0
  185.5910  177.9320  140.7040 N   0  0  0  0  0  2  0  0  0  0  0  0
  187.9390  177.5790  146.3870 C   0  0  0  0  0  0  0  0  0  0  0  0
  190.1230  176.2860  146.4360 C   0  0  0  0  0  0  0  0  0  0  0  0
  186.4910  177.7890  141.7860 C   0  0  0  0  0  0  0  0  0  0  0  0
  186.4520  177.2850  144.3170 C   0  0  2  0  0  3  0  0  0  0  0  0
  190.4300  173.5490  141.9850 C   0  0  0  0  0  2  0  0  0  0  0  0
  187.9170  177.9300  147.6830 C   0  0  0  0  0  3  0  0  0  0  0  0
  185.7180  179.0410  147.4730 C   0  0  0  0  0  2  0  0  0  0  0  0
  183.2570  178.2840  140.1670 C   0  0  0  0  0  1  0  0  0  0  0  0
  188.7940  174.6190  140.4530 C   0  0  0  0  0  1  0  0  0  0  0  0
  190.7930  174.9790  144.3790 C   0  0  2  0  0  3  0  0  0  0  0  0
  191.8090  174.1950  142.1570 C   0  0  0  0  0  2  0  0  0  0  0  0
  184.3770  178.0640  141.1190 C   0  0  1  0  0  3  0  0  0  0  0  0
  189.6470  175.9940  142.3750 C   0  0  2  0  0  3  0  0  0  0  0  0
  188.1410  175.5310  145.0470 C   0  0  0  0  0  2  0  0  0  0  0  0
  190.4880  176.8120  147.5190 O   0  0  0  0  0  0  0  0  0  0  0  0
  188.7710  176.4940  145.9460 N   0  0  0  0  0  0  0  0  0  0  0  0
  187.0560  179.0440  148.1940 C   0  0  0  0  0  2  0  0  0  0  0  0
  185.3480  179.9400  145.3360 O   0  0  0  0  0  0  0  0  0  0  0  0
  191.9230  175.1390  143.3680 C   0  0  1  0  0  3  0  0  0  0  0  0
  190.7790  176.1450  143.4070 C   0  0  2  0  0  3  0  0  0  0  0  0
  187.0430  178.2670  145.3600 C   0  0  1  0  0  3  0  0  0  0  0  0
  1  5  1  6  0  0  0
  1  4  1  0  0  0  0
  2 18  1  6  0  0  0
  2 14  1  0  0  0  0
  2 22  1  0  0  0  0
  3 11  1  0  0  0  0
  4 13  1  0  0  0  0
  4 23  1  1  0  0  0
  5 12  2  0  0  0  0
  6  8  1  0  0  0  0
  7 16  1  0  0  0  0
  8 12  1  6  0  0  0
  8 13  1  0  0  0  0
  9 21  1  0  0  0  0
  9 12  1  0  0  0  0
 10 15  2  0  0  0  0
 11 24  2  0  0  0  0
 13 30  1  0  0  0  0
 14 20  1  0  0  0  0
 15 26  1  0  0  0  0
 16 26  1  0  0  0  0
 17 21  1  0  0  0  0
 19  3  1  0  0  0  0
 20 28  1  0  0  0  0
 21  6  1  0  0  0  0
 22  1  1  0  0  0  0
 22 29  1  0  0  0  0
 23 25  1  0  0  0  0
 25 10  1  0  0  0  0
 25 11  1  0  0  0  0
 27  7  2  0  0  0  0
 28 29  1  0  0  0  0
 28 19  1  0  0  0  0
 29 19  1  0  0  0  0
 30  7  1  0  0  0  0
 30 10  1  0  0  0  0
M  END
>  <MODEL>
6

>  <REMARK>
 VINA RESULT:      -7.8      2.521      5.646
  Name = 
  0 active torsions:
  status: ('A' for Active; 'I' for Inactive)
                            x       y       z     vdW  Elec       q    Type
                         _______ _______ _______ _____ _____    ______ ____

>  <TORSDO>
F 0

$$$$
=
 OpenBabel11052417193D

 30 36  0  0  1  0  0  0  0  0999 V2000
  190.6260  175.0150  144.2910 C   0  0  2  0  0  3  0  0  0  0  0  0
  189.0450  175.3180  146.3290 C   0  0  2  0  0  3  0  0  0  0  0  0
  187.1960  176.6540  142.6660 N   0  0  0  0  0  2  0  0  0  0  0  0
  189.9060  173.7610  143.7370 C   0  0  2  0  0  3  0  0  0  0  0  0
  191.7960  174.5700  145.0410 N   0  0  0  0  0  0  0  0  0  0  0  0
  192.8660  171.2200  143.5330 S   0  0  0  0  0  0  0  0  0  0  0  0
  191.5540  172.8130  140.3130 C   0  0  0  0  0  0  0  0  0  0  0  0
  192.2830  172.9250  143.2820 C   0  0  2  0  0  3  0  0  0  0  0  0
  193.5260  172.9910  145.3880 N   0  0  0  0  0  2  0  0  0  0  0  0
  189.4830  174.1550  140.8890 C   0  0  0  0  0  0  0  0  0  0  0  0
  187.7200  175.8350  141.6050 C   0  0  0  0  0  0  0  0  0  0  0  0
  192.5470  173.6180  144.5820 C   0  0  0  0  0  0  0  0  0  0  0  0
  190.8340  173.0140  142.7480 C   0  0  2  0  0  3  0  0  0  0  0  0
  187.8150  176.0840  146.8320 C   0  0  0  0  0  2  0  0  0  0  0  0
  189.0840  174.0180  139.6150 C   0  0  0  0  0  3  0  0  0  0  0  0
  190.7930  172.2970  139.1330 C   0  0  0  0  0  2  0  0  0  0  0  0
  194.8580  170.9810  145.5950 C   0  0  0  0  0  1  0  0  0  0  0  0
  190.0000  175.1040  147.4870 C   0  0  0  0  0  1  0  0  0  0  0  0
  187.5550  176.4360  144.0540 C   0  0  2  0  0  3  0  0  0  0  0  0
  187.7730  177.5410  146.3600 C   0  0  0  0  0  2  0  0  0  0  0  0
  193.8140  171.8150  144.9440 C   0  0  1  0  0  3  0  0  0  0  0  0
  189.7840  175.9810  145.1430 C   0  0  2  0  0  3  0  0  0  0  0  0
  188.5160  173.9820  143.1400 C   0  0  0  0  0  2  0  0  0  0  0  0
  187.4410  176.1490  140.4180 O   0  0  0  0  0  0  0  0  0  0  0  0
  188.5880  174.7020  141.8720 N   0  0  0  0  0  0  0  0  0  0  0  0
  189.9730  173.4400  138.5560 C   0  0  0  0  0  2  0  0  0  0  0  0
  192.7440  172.5640  140.4120 O   0  0  0  0  0  0  0  0  0  0  0  0
  187.8370  177.7160  144.8320 C   0  0  1  0  0  3  0  0  0  0  0  0
  188.9850  176.9190  144.2210 C   0  0  2  0  0  3  0  0  0  0  0  0
  190.8580  173.6790  141.3480 C   0  0  1  0  0  3  0  0  0  0  0  0
  1  5  1  1  0  0  0
  1 22  1  0  0  0  0
  2 14  1  0  0  0  0
  2 18  1  1  0  0  0
  3 19  1  0  0  0  0
  4 23  1  6  0  0  0
  4  1  1  0  0  0  0
  6 21  1  0  0  0  0
  7 27  2  0  0  0  0
  7 30  1  0  0  0  0
  8  6  1  1  0  0  0
  8 12  1  0  0  0  0
 10 30  1  0  0  0  0
 10 25  1  0  0  0  0
 11 25  1  0  0  0  0
 11  3  1  0  0  0  0
 12  5  2  0  0  0  0
 12  9  1  0  0  0  0
 13  8  1  0  0  0  0
 13  4  1  0  0  0  0
 15 10  2  0  0  0  0
 16  7  1  0  0  0  0
 19 29  1  0  0  0  0
 19 28  1  0  0  0  0
 20 14  1  0  0  0  0
 21  9  1  0  0  0  0
 21 17  1  0  0  0  0
 22  2  1  0  0  0  0
 24 11  2  0  0  0  0
 25 23  1  0  0  0  0
 26 16  1  0  0  0  0
 26 15  1  0  0  0  0
 28 20  1  0  0  0  0
 29 28  1  0  0  0  0
 29 22  1  0  0  0  0
 30 13  1  0  0  0  0
M  END
>  <MODEL>
7

>  <REMARK>
 VINA RESULT:      -7.8      2.744      5.366
  Name = 
  0 active torsions:
  status: ('A' for Active; 'I' for Inactive)
                            x       y       z     vdW  Elec       q    Type
                         _______ _______ _______ _____ _____    ______ ____

>  <TORSDO>
F 0

$$$$
=
 OpenBabel11052417193D

 30 36  0  0  1  0  0  0  0  0999 V2000
  191.5030  175.7940  144.4160 C   0  0  2  0  0  3  0  0  0  0  0  0
  189.8730  175.8530  146.4370 C   0  0  2  0  0  3  0  0  0  0  0  0
  187.7530  175.8920  142.6780 N   0  0  0  0  0  2  0  0  0  0  0  0
  191.2670  174.3000  144.0860 C   0  0  2  0  0  3  0  0  0  0  0  0
  192.7390  175.8980  145.1840 N   0  0  0  0  0  0  0  0  0  0  0  0
  194.9210  172.9220  144.1720 S   0  0  0  0  0  0  0  0  0  0  0  0
  193.2080  173.4490  140.7930 C   0  0  0  0  0  0  0  0  0  0  0  0
  193.7950  174.2650  143.6830 C   0  0  2  0  0  3  0  0  0  0  0  0
  194.8970  175.0780  145.7090 N   0  0  0  0  0  2  0  0  0  0  0  0
  190.7920  174.0770  141.2280 C   0  0  0  0  0  0  0  0  0  0  0  0
  188.5470  175.1450  141.7380 C   0  0  0  0  0  0  0  0  0  0  0  0
  193.7800  175.1990  144.8510 C   0  0  0  0  0  0  0  0  0  0  0  0
  192.4140  173.7690  143.1920 C   0  0  2  0  0  3  0  0  0  0  0  0
  188.4450  176.2230  146.8590 C   0  0  0  0  0  2  0  0  0  0  0  0
  190.4900  173.6160  140.0040 C   0  0  0  0  0  3  0  0  0  0  0  0
  192.6940  172.5280  139.7320 C   0  0  0  0  0  2  0  0  0  0  0  0
  196.8320  173.7000  146.1760 C   0  0  0  0  0  1  0  0  0  0  0  0
  190.8200  176.1620  147.5810 C   0  0  0  0  0  1  0  0  0  0  0  0
  188.1370  176.0280  144.0700 C   0  0  2  0  0  3  0  0  0  0  0  0
  187.9170  177.4860  146.1710 C   0  0  0  0  0  2  0  0  0  0  0  0
  195.5790  174.0160  145.4410 C   0  0  1  0  0  3  0  0  0  0  0  0
  190.3640  176.5360  145.1380 C   0  0  2  0  0  3  0  0  0  0  0  0
  189.8970  173.9380  143.5100 C   0  0  0  0  0  2  0  0  0  0  0  0
  188.2010  175.1570  140.5270 O   0  0  0  0  0  0  0  0  0  0  0  0
  189.7450  174.4320  142.1450 N   0  0  0  0  0  0  0  0  0  0  0  0
  191.5440  173.2180  139.0160 C   0  0  0  0  0  2  0  0  0  0  0  0
  194.4090  173.6390  140.8880 O   0  0  0  0  0  0  0  0  0  0  0  0
  187.9480  177.4320  144.6320 C   0  0  1  0  0  3  0  0  0  0  0  0
  189.3110  176.9900  144.1120 C   0  0  2  0  0  3  0  0  0  0  0  0
  192.2380  174.1760  141.7060 C   0  0  1  0  0  3  0  0  0  0  0  0
  1 22  1  0  0  0  0
  1  5  1  1  0  0  0
  2 14  1  0  0  0  0
  2 18  1  1  0  0  0
  3 19  1  0  0  0  0
  4 23  1  6  0  0  0
  4  1  1  0  0  0  0
  6 21  1  0  0  0  0
  7 27  2  0  0  0  0
  7 30  1  0  0  0  0
  8  6  1  1  0  0  0
  8 12  1  0  0  0  0
 10 30  1  0  0  0  0
 10 25  1  0  0  0  0
 11 25  1  0  0  0  0
 11  3  1  0  0  0  0
 12  5  2  0  0  0  0
 12  9  1  0  0  0  0
 13  8  1  0  0  0  0
 13  4  1  0  0  0  0
 15 10  2  0  0  0  0
 16  7  1  0  0  0  0
 19 29  1  0  0  0  0
 19 28  1  0  0  0  0
 20 14  1  0  0  0  0
 21  9  1  0  0  0  0
 21 17  1  0  0  0  0
 22  2  1  0  0  0  0
 24 11  2  0  0  0  0
 25 23  1  0  0  0  0
 26 16  1  0  0  0  0
 26 15  1  0  0  0  0
 28 20  1  0  0  0  0
 29 28  1  0  0  0  0
 29 22  1  0  0  0  0
 30 13  1  0  0  0  0
M  END
>  <MODEL>
8

>  <REMARK>
 VINA RESULT:      -7.7      2.741      5.627
  Name = 
  0 active torsions:
  status: ('A' for Active; 'I' for Inactive)
                            x       y       z     vdW  Elec       q    Type
                         _______ _______ _______ _____ _____    ______ ____

>  <TORSDO>
F 0

$$$$
=
 OpenBabel11052417193D

 30 36  0  0  1  0  0  0  0  0999 V2000
  189.7360  174.7880  141.8520 C   0  0  2  0  0  3  0  0  0  0  0  0
  189.2880  172.6190  140.4960 C   0  0  2  0  0  3  0  0  0  0  0  0
  192.9220  172.3320  142.8060 N   0  0  0  0  0  2  0  0  0  0  0  0
  189.2880  174.2010  143.2130 C   0  0  2  0  0  3  0  0  0  0  0  0
  188.6290  175.5670  141.3080 N   0  0  0  0  0  0  0  0  0  0  0  0
  186.5710  176.7910  144.2940 S   0  0  0  0  0  0  0  0  0  0  0  0
  189.9980  176.8680  145.9920 C   0  0  0  0  0  0  0  0  0  0  0  0
  188.2020  176.4970  143.5420 C   0  0  2  0  0  3  0  0  0  0  0  0
  186.7060  176.9060  141.6510 N   0  0  0  0  0  2  0  0  0  0  0  0
  191.3180  174.8610  145.1850 C   0  0  0  0  0  0  0  0  0  0  0  0
  192.7310  173.1220  143.9930 C   0  0  0  0  0  0  0  0  0  0  0  0
  187.9300  176.3410  142.0790 C   0  0  0  0  0  0  0  0  0  0  0  0
  188.9950  175.3480  144.2110 C   0  0  2  0  0  3  0  0  0  0  0  0
  189.9570  171.3660  139.9160 C   0  0  0  0  0  2  0  0  0  0  0  0
  192.0450  174.9330  146.3110 C   0  0  0  0  0  3  0  0  0  0  0  0
  190.4850  176.5350  147.3660 C   0  0  0  0  0  2  0  0  0  0  0  0
  184.6440  177.8850  142.4590 C   0  0  0  0  0  1  0  0  0  0  0  0
  188.1920  173.0740  139.5520 C   0  0  0  0  0  1  0  0  0  0  0  0
  191.8680  172.1500  141.8260 C   0  0  2  0  0  3  0  0  0  0  0  0
  191.3620  171.6310  139.3640 C   0  0  0  0  0  2  0  0  0  0  0  0
  185.9610  177.2230  142.6550 C   0  0  1  0  0  3  0  0  0  0  0  0
  190.2510  173.7910  140.7990 C   0  0  2  0  0  3  0  0  0  0  0  0
  190.2020  173.1430  143.8320 C   0  0  0  0  0  2  0  0  0  0  0  0
  193.7230  173.3160  144.7440 O   0  0  0  0  0  0  0  0  0  0  0  0
  191.4500  173.7300  144.3100 N   0  0  0  0  0  0  0  0  0  0  0  0
  191.9330  176.0840  147.2630 C   0  0  0  0  0  2  0  0  0  0  0  0
  189.4010  177.9160  145.8070 O   0  0  0  0  0  0  0  0  0  0  0  0
  192.3380  172.2530  140.3800 C   0  0  1  0  0  3  0  0  0  0  0  0
  191.7290  173.4630  141.0780 C   0  0  2  0  0  3  0  0  0  0  0  0
  190.2890  175.9320  144.8330 C   0  0  1  0  0  3  0  0  0  0  0  0
  1  5  1  6  0  0  0
  1  4  1  0  0  0  0
  2 18  1  6  0  0  0
  2 22  1  0  0  0  0
  3 11  1  0  0  0  0
  4 23  1  1  0  0  0
  4 13  1  0  0  0  0
  5 12  2  0  0  0  0
  7 16  1  0  0  0  0
  8 12  1  6  0  0  0
  8 13  1  0  0  0  0
  8  6  1  0  0  0  0
  9 12  1  0  0  0  0
  9 21  1  0  0  0  0
 10 15  2  0  0  0  0
 11 25  1  0  0  0  0
 11 24  2  0  0  0  0
 13 30  1  0  0  0  0
 14  2  1  0  0  0  0
 15 26  1  0  0  0  0
 17 21  1  0  0  0  0
 19  3  1  0  0  0  0
 20 14  1  0  0  0  0
 20 28  1  0  0  0  0
 21  6  1  0  0  0  0
 22 29  1  0  0  0  0
 22  1  1  0  0  0  0
 23 25  1  0  0  0  0
 25 10  1  0  0  0  0
 26 16  1  0  0  0  0
 27  7  2  0  0  0  0
 28 29  1  0  0  0  0
 28 19  1  0  0  0  0
 29 19  1  0  0  0  0
 30 10  1  0  0  0  0
 30  7  1  0  0  0  0
M  END
>  <MODEL>
9

>  <REMARK>
 VINA RESULT:      -7.6      2.187      5.746
  Name = 
  0 active torsions:
  status: ('A' for Active; 'I' for Inactive)
                            x       y       z     vdW  Elec       q    Type
                         _______ _______ _______ _____ _____    ______ ____

>  <TORSDO>
F 0

$$$$
