=
 OpenBabel11052420153D

 34 38  0  0  1  0  0  0  0  0999 V2000
  191.2720  176.4970  144.8550 C   0  0  0  0  0  0  0  0  0  0  0  0
  194.5340  175.1620  146.1580 C   0  0  0  0  0  3  0  0  0  0  0  0
  192.8450  176.3600  147.2390 O   0  0  0  0  0  0  0  0  0  0  0  0
  189.1990  177.4020  143.8850 C   0  0  0  0  0  0  0  0  0  0  0  0
  190.6040  176.9780  143.7950 C   0  0  0  0  0  3  0  0  0  0  0  0
  189.1940  176.9260  146.2300 C   0  0  0  0  0  0  0  0  0  0  0  0
  188.5380  176.9440  147.3050 O   0  0  0  0  0  0  0  0  0  0  0  0
  188.5770  177.3910  145.0260 N   0  0  0  0  0  0  0  0  0  0  0  0
  188.5420  177.8710  142.7010 N   0  0  0  0  0  2  0  0  0  0  0  0
  191.4940  176.7100  147.3110 C   0  0  0  0  0  0  0  0  0  0  0  0
  190.5730  176.3050  146.1870 C   0  0  2  0  0  3  0  0  0  0  0  0
  191.0580  177.2800  148.3470 O   0  0  0  0  0  0  0  0  0  0  0  0
  195.1830  174.4680  145.0090 C   0  0  0  0  0  2  0  0  0  0  0  0
  195.6650  175.4390  143.9830 C   0  0  0  0  0  0  0  0  0  0  0  0
  194.8080  176.2200  143.3200 C   0  0  0  0  0  3  0  0  0  0  0  0
  193.4150  175.8810  146.0540 C   0  0  0  0  0  0  0  0  0  0  0  0
  193.3640  176.3510  143.5940 C   0  0  0  0  0  3  0  0  0  0  0  0
  192.7200  176.1650  144.7640 C   0  0  0  0  0  0  0  0  0  0  0  0
  185.0260  178.6300  143.8970 C   0  0  0  0  0  2  0  0  0  0  0  0
  186.4510  177.7750  141.4070 C   0  0  0  0  0  2  0  0  0  0  0  0
  182.1830  178.3980  141.3970 C   0  0  0  0  0  0  0  0  0  0  0  0
  182.9040  178.5590  142.5880 C   0  0  0  0  0  3  0  0  0  0  0  0
  184.2900  178.3720  142.6130 C   0  0  0  0  0  0  0  0  0  0  0  0
  184.2520  177.8770  140.2360 C   0  0  0  0  0  3  0  0  0  0  0  0
  184.9730  178.0470  141.4200 C   0  0  0  0  0  0  0  0  0  0  0  0
  182.8660  178.0540  140.2230 C   0  0  0  0  0  3  0  0  0  0  0  0
  187.1600  178.3400  142.6390 C   0  0  1  0  0  3  0  0  0  0  0  0
  186.4040  177.9760  143.9130 C   0  0  0  0  0  2  0  0  0  0  0  0
  180.7210  178.5900  141.3800 C   0  0  0  0  0  0  0  0  0  0  0  0
  179.9580  177.6940  141.8280 O   0  0  0  0  0  0  0  0  0  0  0  0
  180.1560  179.7880  140.8570 N   0  0  0  0  0  1  0  0  0  0  0  0
  197.0940  175.4430  143.6230 C   0  0  0  0  0  0  0  0  0  0  0  0
  197.9260  174.4230  144.0670 O   0  0  0  0  0  1  0  0  0  0  0  0
  197.5750  176.3670  142.9140 O   0  0  0  0  0  0  0  0  0  0  0  0
  3 10  1  0  0  0  0
  4  8  2  0  0  0  0
  5  4  1  0  0  0  0
  5  1  2  0  0  0  0
  6  7  2  0  0  0  0
  8  6  1  0  0  0  0
  9  4  1  0  0  0  0
 10 12  2  0  0  0  0
 11  1  1  6  0  0  0
 11  6  1  0  0  0  0
 11 10  1  0  0  0  0
 13  2  1  0  0  0  0
 14 13  1  0  0  0  0
 15 17  1  0  0  0  0
 15 14  2  0  0  0  0
 16  2  2  0  0  0  0
 16  3  1  0  0  0  0
 17 18  2  0  0  0  0
 18  1  1  0  0  0  0
 18 16  1  0  0  0  0
 19 28  1  0  0  0  0
 20 25  1  0  0  0  0
 20 27  1  0  0  0  0
 21 22  1  0  0  0  0
 22 23  2  0  0  0  0
 23 19  1  0  0  0  0
 24 25  2  0  0  0  0
 25 23  1  0  0  0  0
 26 24  1  0  0  0  0
 26 21  2  0  0  0  0
 27  9  1  1  0  0  0
 27 28  1  0  0  0  0
 29 21  1  0  0  0  0
 29 30  2  0  0  0  0
 31 29  1  0  0  0  0
 32 14  1  0  0  0  0
 32 33  1  0  0  0  0
 34 32  2  0  0  0  0
M  END
>  <MODEL>
1

>  <REMARK>
 VINA RESULT:      -9.1      0.000      0.000
  Name = 
  3 active torsions:
  status: ('A' for Active; 'I' for Inactive)
    1  A    between atoms: C_3  and  C_25
    2  A    between atoms: C_7  and  C_11
    3  A    between atoms: N_18  and  C_30
                            x       y       z     vdW  Elec       q    Type
                         _______ _______ _______ _____ _____    ______ ____

>  <TORSDO>
F 3

$$$$
=
 OpenBabel11052420153D

 34 38  0  0  1  0  0  0  0  0999 V2000
  194.0260  173.6640  144.6030 C   0  0  0  0  0  0  0  0  0  0  0  0
  197.2790  171.8030  144.3190 C   0  0  0  0  0  3  0  0  0  0  0  0
  196.0740  173.0050  142.7190 O   0  0  0  0  0  0  0  0  0  0  0  0
  191.8510  174.7820  144.8720 C   0  0  0  0  0  0  0  0  0  0  0  0
  192.8330  173.7420  145.2120 C   0  0  0  0  0  3  0  0  0  0  0  0
  193.3080  175.6160  143.1680 C   0  0  0  0  0  0  0  0  0  0  0  0
  193.4720  176.4540  142.2420 O   0  0  0  0  0  0  0  0  0  0  0  0
  192.0840  175.6220  143.9070 N   0  0  0  0  0  0  0  0  0  0  0  0
  190.6120  174.8250  145.5920 N   0  0  0  0  0  2  0  0  0  0  0  0
  195.1640  174.0270  142.4350 C   0  0  0  0  0  0  0  0  0  0  0  0
  194.4390  174.6990  143.5760 C   0  0  2  0  0  3  0  0  0  0  0  0
  195.0290  174.4220  141.2470 O   0  0  0  0  0  0  0  0  0  0  0  0
  197.5570  171.2510  145.6750 C   0  0  0  0  0  2  0  0  0  0  0  0
  196.6240  170.1370  146.0160 C   0  0  0  0  0  0  0  0  0  0  0  0
  195.3100  170.3510  146.1250 C   0  0  0  0  0  3  0  0  0  0  0  0
  196.1410  172.4160  143.9860 C   0  0  0  0  0  0  0  0  0  0  0  0
  194.6040  171.6020  145.7890 C   0  0  0  0  0  3  0  0  0  0  0  0
  194.9640  172.5460  144.8960 C   0  0  0  0  0  0  0  0  0  0  0  0
  187.5340  176.9130  146.3200 C   0  0  0  0  0  2  0  0  0  0  0  0
  188.8330  175.4920  144.0280 C   0  0  0  0  0  2  0  0  0  0  0  0
  185.1730  177.7020  143.4570 C   0  0  0  0  0  0  0  0  0  0  0  0
  185.7390  177.6150  144.7370 C   0  0  0  0  0  3  0  0  0  0  0  0
  186.9300  176.9130  144.9440 C   0  0  0  0  0  0  0  0  0  0  0  0
  187.0160  176.3880  142.5750 C   0  0  0  0  0  3  0  0  0  0  0  0
  187.5850  176.3100  143.8480 C   0  0  0  0  0  0  0  0  0  0  0  0
  185.8200  177.0830  142.3790 C   0  0  0  0  0  3  0  0  0  0  0  0
  189.5370  175.7850  145.3540 C   0  0  1  0  0  3  0  0  0  0  0  0
  188.5400  175.7820  146.5080 C   0  0  0  0  0  2  0  0  0  0  0  0
  183.9130  178.4380  143.2490 C   0  0  0  0  0  0  0  0  0  0  0  0
  183.4690  179.2030  144.1440 O   0  0  0  0  0  0  0  0  0  0  0  0
  183.1840  178.2900  142.0340 N   0  0  0  0  0  1  0  0  0  0  0  0
  197.1850  168.8160  146.3500 C   0  0  0  0  0  0  0  0  0  0  0  0
  196.8850  168.2210  147.5690 O   0  0  0  0  0  1  0  0  0  0  0  0
  197.9400  168.2150  145.5390 O   0  0  0  0  0  0  0  0  0  0  0  0
  1 18  1  0  0  0  0
  1  5  2  0  0  0  0
  2 13  1  0  0  0  0
  3 16  1  0  0  0  0
  4  5  1  0  0  0  0
  4  9  1  0  0  0  0
  6 11  1  0  0  0  0
  6  8  1  0  0  0  0
  7  6  2  0  0  0  0
  8  4  2  0  0  0  0
 10  3  1  0  0  0  0
 11 10  1  6  0  0  0
 11  1  1  0  0  0  0
 12 10  2  0  0  0  0
 13 14  1  0  0  0  0
 14 15  2  0  0  0  0
 14 32  1  0  0  0  0
 16  2  2  0  0  0  0
 16 18  1  0  0  0  0
 17 15  1  0  0  0  0
 18 17  2  0  0  0  0
 19 28  1  0  0  0  0
 20 27  1  0  0  0  0
 21 22  1  0  0  0  0
 22 23  2  0  0  0  0
 23 19  1  0  0  0  0
 24 25  2  0  0  0  0
 25 20  1  0  0  0  0
 25 23  1  0  0  0  0
 26 24  1  0  0  0  0
 26 21  2  0  0  0  0
 27  9  1  1  0  0  0
 27 28  1  0  0  0  0
 29 21  1  0  0  0  0
 29 30  2  0  0  0  0
 31 29  1  0  0  0  0
 32 33  1  0  0  0  0
 34 32  2  0  0  0  0
M  END
>  <MODEL>
2

>  <REMARK>
 VINA RESULT:      -9.0      3.249      5.185
  Name = 
  3 active torsions:
  status: ('A' for Active; 'I' for Inactive)
    1  A    between atoms: C_3  and  C_25
    2  A    between atoms: C_7  and  C_11
    3  A    between atoms: N_18  and  C_30
                            x       y       z     vdW  Elec       q    Type
                         _______ _______ _______ _____ _____    ______ ____

>  <TORSDO>
F 3

$$$$
=
 OpenBabel11052420153D

 34 38  0  0  1  0  0  0  0  0999 V2000
  194.7410  175.1270  141.7730 C   0  0  0  0  0  0  0  0  0  0  0  0
  197.9410  174.0420  140.1290 C   0  0  0  0  0  3  0  0  0  0  0  0
  197.5350  175.7310  141.6920 O   0  0  0  0  0  0  0  0  0  0  0  0
  192.5810  175.8170  142.7310 C   0  0  0  0  0  0  0  0  0  0  0  0
  193.4090  175.2440  141.6590 C   0  0  0  0  0  3  0  0  0  0  0  0
  194.5440  176.2600  144.0250 C   0  0  0  0  0  0  0  0  0  0  0  0
  195.0160  176.7490  145.0850 O   0  0  0  0  0  0  0  0  0  0  0  0
  193.1310  176.3010  143.8040 N   0  0  0  0  0  0  0  0  0  0  0  0
  191.1610  175.8730  142.5500 N   0  0  0  0  0  2  0  0  0  0  0  0
  196.7430  176.2230  142.7330 C   0  0  0  0  0  0  0  0  0  0  0  0
  195.4440  175.5260  143.0560 C   0  0  2  0  0  3  0  0  0  0  0  0
  197.1660  177.1830  143.4310 O   0  0  0  0  0  0  0  0  0  0  0  0
  197.5810  172.9030  139.2390 C   0  0  0  0  0  2  0  0  0  0  0  0
  196.7970  173.3610  138.0540 C   0  0  0  0  0  0  0  0  0  0  0  0
  195.5930  173.9210  138.2020 C   0  0  0  0  0  3  0  0  0  0  0  0
  197.0470  174.7840  140.7850 C   0  0  0  0  0  0  0  0  0  0  0  0
  194.9630  174.2980  139.4820 C   0  0  0  0  0  3  0  0  0  0  0  0
  195.5680  174.6340  140.6390 C   0  0  0  0  0  0  0  0  0  0  0  0
  188.8500  175.9780  145.5540 C   0  0  0  0  0  2  0  0  0  0  0  0
  189.0600  177.1310  142.7990 C   0  0  0  0  0  2  0  0  0  0  0  0
  185.7760  178.1930  145.3850 C   0  0  0  0  0  0  0  0  0  0  0  0
  186.7330  177.2680  145.8250 C   0  0  0  0  0  3  0  0  0  0  0  0
  187.8120  176.9160  145.0070 C   0  0  0  0  0  0  0  0  0  0  0  0
  186.9930  178.4340  143.2980 C   0  0  0  0  0  3  0  0  0  0  0  0
  187.9540  177.5210  143.7390 C   0  0  0  0  0  0  0  0  0  0  0  0
  185.9130  178.7720  144.1170 C   0  0  0  0  0  3  0  0  0  0  0  0
  190.2150  176.4280  143.5150 C   0  0  1  0  0  3  0  0  0  0  0  0
  189.6910  175.3440  144.4510 C   0  0  0  0  0  2  0  0  0  0  0  0
  184.6370  178.5530  146.2500 C   0  0  0  0  0  0  0  0  0  0  0  0
  183.5510  178.9390  145.7430 O   0  0  0  0  0  0  0  0  0  0  0  0
  184.7530  178.4690  147.6670 N   0  0  0  0  0  1  0  0  0  0  0  0
  197.3160  173.0770  136.7050 C   0  0  0  0  0  0  0  0  0  0  0  0
  197.5160  174.1160  135.8030 O   0  0  0  0  0  0  0  0  0  0  0  0
  197.5810  171.8960  136.3530 O   0  0  0  0  0  1  0  0  0  0  0  0
  2 16  2  0  0  0  0
  3 10  1  0  0  0  0
  4  8  2  0  0  0  0
  5  1  2  0  0  0  0
  5  4  1  0  0  0  0
  6  7  2  0  0  0  0
  8  6  1  0  0  0  0
  9  4  1  0  0  0  0
 10 11  1  0  0  0  0
 10 12  2  0  0  0  0
 11  1  1  6  0  0  0
 11  6  1  0  0  0  0
 13  2  1  0  0  0  0
 14 15  2  0  0  0  0
 14 13  1  0  0  0  0
 15 17  1  0  0  0  0
 16  3  1  0  0  0  0
 17 18  2  0  0  0  0
 18 16  1  0  0  0  0
 18  1  1  0  0  0  0
 20 27  1  0  0  0  0
 20 25  1  0  0  0  0
 21 22  1  0  0  0  0
 21 29  1  0  0  0  0
 23 19  1  0  0  0  0
 23 22  2  0  0  0  0
 24 25  2  0  0  0  0
 24 26  1  0  0  0  0
 25 23  1  0  0  0  0
 26 21  2  0  0  0  0
 27  9  1  6  0  0  0
 27 28  1  0  0  0  0
 28 19  1  0  0  0  0
 29 31  1  0  0  0  0
 30 29  2  0  0  0  0
 32 14  1  0  0  0  0
 33 32  2  0  0  0  0
 34 32  1  0  0  0  0
M  END
>  <MODEL>
3

>  <REMARK>
 VINA RESULT:      -9.0      3.664      5.803
  Name = 
  3 active torsions:
  status: ('A' for Active; 'I' for Inactive)
    1  A    between atoms: C_3  and  C_25
    2  A    between atoms: C_7  and  C_11
    3  A    between atoms: N_18  and  C_30
                            x       y       z     vdW  Elec       q    Type
                         _______ _______ _______ _____ _____    ______ ____

>  <TORSDO>
F 3

$$$$
=
 OpenBabel11052420153D

 34 38  0  0  1  0  0  0  0  0999 V2000
  190.7210  175.1080  143.1670 C   0  0  0  0  0  0  0  0  0  0  0  0
  193.7570  172.8930  143.2110 C   0  0  0  0  0  3  0  0  0  0  0  0
  191.4890  172.3620  143.3860 O   0  0  0  0  0  0  0  0  0  0  0  0
  188.8040  176.6500  143.2110 C   0  0  0  0  0  0  0  0  0  0  0  0
  190.2150  176.3160  143.4590 C   0  0  0  0  0  3  0  0  0  0  0  0
  188.3980  174.4190  142.4480 C   0  0  0  0  0  0  0  0  0  0  0  0
  187.5490  173.5920  142.0230 O   0  0  0  0  0  0  0  0  0  0  0  0
  187.9790  175.7500  142.7660 N   0  0  0  0  0  0  0  0  0  0  0  0
  188.3450  177.9740  143.5140 N   0  0  0  0  0  2  0  0  0  0  0  0
  190.1630  172.6970  143.0990 C   0  0  0  0  0  0  0  0  0  0  0  0
  189.8630  174.0500  142.5010 C   0  0  2  0  0  3  0  0  0  0  0  0
  189.2570  171.8370  143.2660 O   0  0  0  0  0  0  0  0  0  0  0  0
  194.9290  173.7980  143.0430 C   0  0  0  0  0  2  0  0  0  0  0  0
  195.1650  174.6240  144.2630 C   0  0  0  0  0  0  0  0  0  0  0  0
  194.2550  175.5080  144.6800 C   0  0  0  0  0  3  0  0  0  0  0  0
  192.5050  173.3230  143.3790 C   0  0  0  0  0  0  0  0  0  0  0  0
  192.8970  175.6810  144.1300 C   0  0  0  0  0  3  0  0  0  0  0  0
  192.1260  174.7610  143.5150 C   0  0  0  0  0  0  0  0  0  0  0  0
  184.7230  178.6670  144.3890 C   0  0  0  0  0  2  0  0  0  0  0  0
  186.3940  177.9470  142.0130 C   0  0  0  0  0  2  0  0  0  0  0  0
  182.1460  178.5700  141.6070 C   0  0  0  0  0  0  0  0  0  0  0  0
  182.7440  178.6670  142.8720 C   0  0  0  0  0  3  0  0  0  0  0  0
  184.1200  178.4790  143.0260 C   0  0  0  0  0  0  0  0  0  0  0  0
  184.3230  178.1110  140.6340 C   0  0  0  0  0  3  0  0  0  0  0  0
  184.9210  178.2180  141.8920 C   0  0  0  0  0  0  0  0  0  0  0  0
  182.9450  178.2900  140.4910 C   0  0  0  0  0  3  0  0  0  0  0  0
  186.9730  178.4450  143.3390 C   0  0  1  0  0  3  0  0  0  0  0  0
  186.0950  178.0140  144.5080 C   0  0  0  0  0  2  0  0  0  0  0  0
  180.6920  178.7620  141.4550 C   0  0  0  0  0  0  0  0  0  0  0  0
  179.8860  177.9290  141.9470 O   0  0  0  0  0  0  0  0  0  0  0  0
  180.1840  179.8900  140.7490 N   0  0  0  0  0  1  0  0  0  0  0  0
  196.4710  174.5370  144.9400 C   0  0  0  0  0  0  0  0  0  0  0  0
  197.6340  174.8630  144.2530 O   0  0  0  0  0  0  0  0  0  0  0  0
  196.5480  174.1650  146.1420 O   0  0  0  0  0  1  0  0  0  0  0  0
  1  5  2  0  0  0  0
  1 18  1  0  0  0  0
  2 16  2  0  0  0  0
  4  5  1  0  0  0  0
  4  9  1  0  0  0  0
  6  8  1  0  0  0  0
  7  6  2  0  0  0  0
  8  4  2  0  0  0  0
 10 12  2  0  0  0  0
 10  3  1  0  0  0  0
 11  6  1  1  0  0  0
 11 10  1  0  0  0  0
 11  1  1  0  0  0  0
 13  2  1  0  0  0  0
 13 14  1  0  0  0  0
 14 15  2  0  0  0  0
 14 32  1  0  0  0  0
 16  3  1  0  0  0  0
 16 18  1  0  0  0  0
 17 15  1  0  0  0  0
 18 17  2  0  0  0  0
 19 28  1  0  0  0  0
 20 27  1  0  0  0  0
 21 22  1  0  0  0  0
 22 23  2  0  0  0  0
 23 19  1  0  0  0  0
 24 25  2  0  0  0  0
 25 20  1  0  0  0  0
 25 23  1  0  0  0  0
 26 24  1  0  0  0  0
 26 21  2  0  0  0  0
 27  9  1  1  0  0  0
 27 28  1  0  0  0  0
 29 21  1  0  0  0  0
 29 30  2  0  0  0  0
 31 29  1  0  0  0  0
 32 34  1  0  0  0  0
 33 32  2  0  0  0  0
M  END
>  <MODEL>
4

>  <REMARK>
 VINA RESULT:      -8.5      2.475      2.908
  Name = 
  3 active torsions:
  status: ('A' for Active; 'I' for Inactive)
    1  A    between atoms: C_3  and  C_25
    2  A    between atoms: C_7  and  C_11
    3  A    between atoms: N_18  and  C_30
                            x       y       z     vdW  Elec       q    Type
                         _______ _______ _______ _____ _____    ______ ____

>  <TORSDO>
F 3

$$$$
=
 OpenBabel11052420153D

 34 38  0  0  1  0  0  0  0  0999 V2000
  187.5390  177.2280  144.4860 C   0  0  0  0  0  0  0  0  0  0  0  0
  184.0650  178.6320  144.7740 C   0  0  0  0  0  3  0  0  0  0  0  0
  185.3300  177.3900  146.2950 O   0  0  0  0  0  0  0  0  0  0  0  0
  189.7870  176.2790  144.1670 C   0  0  0  0  0  0  0  0  0  0  0  0
  188.4810  176.7350  143.6670 C   0  0  0  0  0  3  0  0  0  0  0  0
  189.1030  176.7440  146.4120 C   0  0  0  0  0  0  0  0  0  0  0  0
  189.4090  176.7060  147.6330 O   0  0  0  0  0  0  0  0  0  0  0  0
  190.0420  176.2700  145.4410 N   0  0  0  0  0  0  0  0  0  0  0  0
  190.7570  175.8000  143.2260 N   0  0  0  0  0  2  0  0  0  0  0  0
  186.5910  177.0090  146.7620 C   0  0  0  0  0  0  0  0  0  0  0  0
  187.8140  177.3970  145.9670 C   0  0  2  0  0  3  0  0  0  0  0  0
  186.6880  176.4250  147.8740 O   0  0  0  0  0  0  0  0  0  0  0  0
  183.8030  179.3460  143.4920 C   0  0  0  0  0  2  0  0  0  0  0  0
  183.6270  178.3910  142.3590 C   0  0  0  0  0  0  0  0  0  0  0  0
  184.6260  177.5940  141.9720 C   0  0  0  0  0  3  0  0  0  0  0  0
  185.1490  177.8880  145.0010 C   0  0  0  0  0  0  0  0  0  0  0  0
  185.9200  177.4270  142.6620 C   0  0  0  0  0  3  0  0  0  0  0  0
  186.1910  177.5940  143.9720 C   0  0  0  0  0  0  0  0  0  0  0  0
  194.4410  175.0140  142.8100 C   0  0  0  0  0  2  0  0  0  0  0  0
  192.0000  173.8690  144.1100 C   0  0  0  0  0  2  0  0  0  0  0  0
  195.8240  171.9110  144.4990 C   0  0  0  0  0  0  0  0  0  0  0  0
  195.7150  173.0740  143.7230 C   0  0  0  0  0  3  0  0  0  0  0  0
  194.4880  173.7310  143.5910 C   0  0  0  0  0  0  0  0  0  0  0  0
  193.4600  172.0710  145.0340 C   0  0  0  0  0  3  0  0  0  0  0  0
  193.3540  173.2350  144.2700 C   0  0  0  0  0  0  0  0  0  0  0  0
  194.6880  171.4140  145.1510 C   0  0  0  0  0  3  0  0  0  0  0  0
  192.0840  175.2990  143.5730 C   0  0  1  0  0  3  0  0  0  0  0  0
  193.0240  175.3720  142.3750 C   0  0  0  0  0  2  0  0  0  0  0  0
  197.1190  171.2200  144.6260 C   0  0  0  0  0  0  0  0  0  0  0  0
  197.5140  170.8110  145.7500 O   0  0  0  0  0  0  0  0  0  0  0  0
  197.9400  171.0080  143.4810 N   0  0  0  0  0  1  0  0  0  0  0  0
  182.3710  178.4220  141.5900 C   0  0  0  0  0  0  0  0  0  0  0  0
  181.2380  179.0180  142.1310 O   0  0  0  0  0  1  0  0  0  0  0  0
  182.3080  177.9100  140.4400 O   0  0  0  0  0  0  0  0  0  0  0  0
  2 16  2  0  0  0  0
  3 10  1  0  0  0  0
  4  8  2  0  0  0  0
  5  4  1  0  0  0  0
  5  1  2  0  0  0  0
  6  7  2  0  0  0  0
  8  6  1  0  0  0  0
  9  4  1  0  0  0  0
 10 12  2  0  0  0  0
 11  1  1  6  0  0  0
 11  6  1  0  0  0  0
 11 10  1  0  0  0  0
 13  2  1  0  0  0  0
 14 13  1  0  0  0  0
 15 14  2  0  0  0  0
 15 17  1  0  0  0  0
 16  3  1  0  0  0  0
 17 18  2  0  0  0  0
 18  1  1  0  0  0  0
 18 16  1  0  0  0  0
 19 23  1  0  0  0  0
 20 25  1  0  0  0  0
 21 29  1  0  0  0  0
 21 26  1  0  0  0  0
 22 21  2  0  0  0  0
 23 22  1  0  0  0  0
 23 25  2  0  0  0  0
 24 26  2  0  0  0  0
 25 24  1  0  0  0  0
 27  9  1  6  0  0  0
 27 20  1  0  0  0  0
 28 19  1  0  0  0  0
 28 27  1  0  0  0  0
 29 30  2  0  0  0  0
 31 29  1  0  0  0  0
 32 33  1  0  0  0  0
 32 14  1  0  0  0  0
 34 32  2  0  0  0  0
M  END
>  <MODEL>
5

>  <REMARK>
 VINA RESULT:      -8.5      2.905     10.846
  Name = 
  3 active torsions:
  status: ('A' for Active; 'I' for Inactive)
    1  A    between atoms: C_3  and  C_25
    2  A    between atoms: C_7  and  C_11
    3  A    between atoms: N_18  and  C_30
                            x       y       z     vdW  Elec       q    Type
                         _______ _______ _______ _____ _____    ______ ____

>  <TORSDO>
F 3

$$$$
=
 OpenBabel11052420153D

 34 38  0  0  1  0  0  0  0  0999 V2000
  194.8780  173.2910  143.0970 C   0  0  0  0  0  0  0  0  0  0  0  0
  197.9410  171.6970  141.6140 C   0  0  0  0  0  3  0  0  0  0  0  0
  197.5920  173.8680  142.4050 O   0  0  0  0  0  0  0  0  0  0  0  0
  192.7970  174.2660  143.9770 C   0  0  0  0  0  0  0  0  0  0  0  0
  193.5370  173.3230  143.1250 C   0  0  0  0  0  3  0  0  0  0  0  0
  194.8570  175.2390  144.7080 C   0  0  0  0  0  0  0  0  0  0  0  0
  195.4090  176.1280  145.4080 O   0  0  0  0  0  0  0  0  0  0  0  0
  193.4290  175.1570  144.6810 N   0  0  0  0  0  0  0  0  0  0  0  0
  191.3650  174.2140  143.9820 N   0  0  0  0  0  2  0  0  0  0  0  0
  196.8900  174.7250  143.2570 C   0  0  0  0  0  0  0  0  0  0  0  0
  195.6910  174.1930  144.0040 C   0  0  2  0  0  3  0  0  0  0  0  0
  197.3180  175.8940  143.4470 O   0  0  0  0  0  0  0  0  0  0  0  0
  197.5660  170.2870  141.3130 C   0  0  0  0  0  2  0  0  0  0  0  0
  196.6200  170.2050  140.1610 C   0  0  0  0  0  0  0  0  0  0  0  0
  195.4040  170.7510  140.2320 C   0  0  0  0  0  3  0  0  0  0  0  0
  197.0750  172.6230  142.0300 C   0  0  0  0  0  0  0  0  0  0  0  0
  194.8980  171.6050  141.3240 C   0  0  0  0  0  3  0  0  0  0  0  0
  195.6050  172.3960  142.1560 C   0  0  0  0  0  0  0  0  0  0  0  0
  188.9490  175.2630  146.7080 C   0  0  0  0  0  2  0  0  0  0  0  0
  189.5560  175.8770  143.8420 C   0  0  0  0  0  2  0  0  0  0  0  0
  186.4110  177.9710  145.9230 C   0  0  0  0  0  0  0  0  0  0  0  0
  187.1300  176.9640  146.5840 C   0  0  0  0  0  3  0  0  0  0  0  0
  188.1600  176.2790  145.9330 C   0  0  0  0  0  0  0  0  0  0  0  0
  187.7760  177.6200  143.9450 C   0  0  0  0  0  3  0  0  0  0  0  0
  188.5000  176.6250  144.6060 C   0  0  0  0  0  0  0  0  0  0  0  0
  186.7410  178.2920  144.6000 C   0  0  0  0  0  3  0  0  0  0  0  0
  190.4970  175.0940  144.7610 C   0  0  1  0  0  3  0  0  0  0  0  0
  189.7060  174.3030  145.7970 C   0  0  0  0  0  2  0  0  0  0  0  0
  185.3210  178.6820  146.6140 C   0  0  0  0  0  0  0  0  0  0  0  0
  185.5630  179.3770  147.6370 O   0  0  0  0  0  0  0  0  0  0  0  0
  183.9820  178.5920  146.1350 N   0  0  0  0  0  1  0  0  0  0  0  0
  197.0010  169.4070  138.9830 C   0  0  0  0  0  0  0  0  0  0  0  0
  196.3460  168.2120  138.7100 O   0  0  0  0  0  1  0  0  0  0  0  0
  197.9220  169.7950  138.2130 O   0  0  0  0  0  0  0  0  0  0  0  0
  1  5  2  0  0  0  0
  2 16  2  0  0  0  0
  3 10  1  0  0  0  0
  4  9  1  0  0  0  0
  4  8  2  0  0  0  0
  5  4  1  0  0  0  0
  6  7  2  0  0  0  0
  8  6  1  0  0  0  0
 10 12  2  0  0  0  0
 10 11  1  0  0  0  0
 11  1  1  6  0  0  0
 11  6  1  0  0  0  0
 13  2  1  0  0  0  0
 14 15  2  0  0  0  0
 14 13  1  0  0  0  0
 15 17  1  0  0  0  0
 16 18  1  0  0  0  0
 16  3  1  0  0  0  0
 17 18  2  0  0  0  0
 18  1  1  0  0  0  0
 20 25  1  0  0  0  0
 20 27  1  0  0  0  0
 21 22  1  0  0  0  0
 21 29  1  0  0  0  0
 23 22  2  0  0  0  0
 23 19  1  0  0  0  0
 24 26  1  0  0  0  0
 24 25  2  0  0  0  0
 25 23  1  0  0  0  0
 26 21  2  0  0  0  0
 27  9  1  6  0  0  0
 27 28  1  0  0  0  0
 28 19  1  0  0  0  0
 29 30  2  0  0  0  0
 31 29  1  0  0  0  0
 32 14  1  0  0  0  0
 33 32  1  0  0  0  0
 34 32  2  0  0  0  0
M  END
>  <MODEL>
6

>  <REMARK>
 VINA RESULT:      -8.1      3.871      6.253
  Name = 
  3 active torsions:
  status: ('A' for Active; 'I' for Inactive)
    1  A    between atoms: C_3  and  C_25
    2  A    between atoms: C_7  and  C_11
    3  A    between atoms: N_18  and  C_30
                            x       y       z     vdW  Elec       q    Type
                         _______ _______ _______ _____ _____    ______ ____

>  <TORSDO>
F 3

$$$$
=
 OpenBabel11052420153D

 34 38  0  0  1  0  0  0  0  0999 V2000
  192.5600  174.8460  144.5990 C   0  0  0  0  0  0  0  0  0  0  0  0
  195.8790  173.3300  145.4980 C   0  0  0  0  0  3  0  0  0  0  0  0
  194.8570  175.2950  146.2420 O   0  0  0  0  0  0  0  0  0  0  0  0
  190.4070  175.7980  143.8810 C   0  0  0  0  0  0  0  0  0  0  0  0
  191.6210  174.9990  143.6520 C   0  0  0  0  0  3  0  0  0  0  0  0
  191.1880  176.3810  146.0650 C   0  0  0  0  0  0  0  0  0  0  0  0
  190.9710  177.0360  147.1190 O   0  0  0  0  0  0  0  0  0  0  0  0
  190.2410  176.4460  144.9950 N   0  0  0  0  0  0  0  0  0  0  0  0
  189.4310  175.8850  142.8350 N   0  0  0  0  0  2  0  0  0  0  0  0
  193.6770  176.0060  146.4780 C   0  0  0  0  0  0  0  0  0  0  0  0
  192.3690  175.4410  145.9800 C   0  0  2  0  0  3  0  0  0  0  0  0
  193.7180  177.0580  147.1710 O   0  0  0  0  0  0  0  0  0  0  0  0
  195.9780  172.0650  144.7180 C   0  0  0  0  0  2  0  0  0  0  0  0
  196.1750  172.3310  143.2630 C   0  0  0  0  0  0  0  0  0  0  0  0
  195.2410  172.9640  142.5480 C   0  0  0  0  0  3  0  0  0  0  0  0
  194.8960  174.2210  145.3470 C   0  0  0  0  0  0  0  0  0  0  0  0
  194.0220  173.5990  143.0830 C   0  0  0  0  0  3  0  0  0  0  0  0
  193.8240  174.1140  144.3130 C   0  0  0  0  0  0  0  0  0  0  0  0
  186.0110  176.9330  144.0890 C   0  0  0  0  0  2  0  0  0  0  0  0
  187.5490  176.7780  141.5250 C   0  0  0  0  0  2  0  0  0  0  0  0
  183.5280  178.3380  141.5890 C   0  0  0  0  0  0  0  0  0  0  0  0
  184.1060  177.8620  142.7740 C   0  0  0  0  0  3  0  0  0  0  0  0
  185.4110  177.3600  142.7800 C   0  0  0  0  0  0  0  0  0  0  0  0
  185.5850  177.8270  140.4020 C   0  0  0  0  0  3  0  0  0  0  0  0
  186.1650  177.3620  141.5850 C   0  0  0  0  0  0  0  0  0  0  0  0
  184.2760  178.3150  140.4040 C   0  0  0  0  0  3  0  0  0  0  0  0
  188.1900  176.6510  142.9080 C   0  0  1  0  0  3  0  0  0  0  0  0
  187.2180  176.0200  143.8990 C   0  0  0  0  0  2  0  0  0  0  0  0
  182.1480  178.8560  141.5910 C   0  0  0  0  0  0  0  0  0  0  0  0
  181.5250  179.0090  140.5070 O   0  0  0  0  0  0  0  0  0  0  0  0
  181.5050  179.1920  142.8170 N   0  0  0  0  0  1  0  0  0  0  0  0
  197.3670  171.7800  142.5930 C   0  0  0  0  0  0  0  0  0  0  0  0
  197.9400  170.6000  143.0520 O   0  0  0  0  0  1  0  0  0  0  0  0
  197.8780  172.3700  141.6040 O   0  0  0  0  0  0  0  0  0  0  0  0
  3 10  1  0  0  0  0
  4  8  2  0  0  0  0
  5  4  1  0  0  0  0
  5  1  2  0  0  0  0
  6  7  2  0  0  0  0
  8  6  1  0  0  0  0
  9  4  1  0  0  0  0
 10 12  2  0  0  0  0
 11  1  1  6  0  0  0
 11  6  1  0  0  0  0
 11 10  1  0  0  0  0
 13  2  1  0  0  0  0
 14 13  1  0  0  0  0
 15 17  1  0  0  0  0
 15 14  2  0  0  0  0
 16  2  2  0  0  0  0
 16  3  1  0  0  0  0
 17 18  2  0  0  0  0
 18  1  1  0  0  0  0
 18 16  1  0  0  0  0
 20 25  1  0  0  0  0
 20 27  1  0  0  0  0
 21 29  1  0  0  0  0
 21 22  1  0  0  0  0
 22 23  2  0  0  0  0
 23 19  1  0  0  0  0
 24 26  1  0  0  0  0
 24 25  2  0  0  0  0
 25 23  1  0  0  0  0
 26 21  2  0  0  0  0
 27  9  1  6  0  0  0
 27 28  1  0  0  0  0
 28 19  1  0  0  0  0
 29 31  1  0  0  0  0
 30 29  2  0  0  0  0
 32 33  1  0  0  0  0
 32 14  1  0  0  0  0
 34 32  2  0  0  0  0
M  END
>  <MODEL>
7

>  <REMARK>
 VINA RESULT:      -8.1      1.952      2.417
  Name = 
  3 active torsions:
  status: ('A' for Active; 'I' for Inactive)
    1  A    between atoms: C_3  and  C_25
    2  A    between atoms: C_7  and  C_11
    3  A    between atoms: N_18  and  C_30
                            x       y       z     vdW  Elec       q    Type
                         _______ _______ _______ _____ _____    ______ ____

>  <TORSDO>
F 3

$$$$
=
 OpenBabel11052420153D

 34 38  0  0  1  0  0  0  0  0999 V2000
  189.6000  175.4840  142.9260 C   0  0  0  0  0  0  0  0  0  0  0  0
  193.0790  174.3600  143.7980 C   0  0  0  0  0  3  0  0  0  0  0  0
  191.0520  173.1980  143.8440 O   0  0  0  0  0  0  0  0  0  0  0  0
  187.3510  176.3410  142.4120 C   0  0  0  0  0  0  0  0  0  0  0  0
  188.7360  176.5090  142.8790 C   0  0  0  0  0  3  0  0  0  0  0  0
  187.7180  173.9930  142.1360 C   0  0  0  0  0  0  0  0  0  0  0  0
  187.2180  172.8810  141.8220 O   0  0  0  0  0  0  0  0  0  0  0  0
  186.8980  175.1640  142.0970 N   0  0  0  0  0  0  0  0  0  0  0  0
  186.4980  177.4910  142.3550 N   0  0  0  0  0  2  0  0  0  0  0  0
  189.7540  173.0490  143.3480 C   0  0  0  0  0  0  0  0  0  0  0  0
  189.1970  174.1100  142.4290 C   0  0  2  0  0  3  0  0  0  0  0  0
  189.1090  171.9990  143.6070 O   0  0  0  0  0  0  0  0  0  0  0  0
  193.9630  175.5340  143.5550 C   0  0  0  0  0  2  0  0  0  0  0  0
  193.7490  176.6030  144.5740 C   0  0  0  0  0  0  0  0  0  0  0  0
  192.5720  177.2250  144.6790 C   0  0  0  0  0  3  0  0  0  0  0  0
  191.7470  174.4070  143.7280 C   0  0  0  0  0  0  0  0  0  0  0  0
  191.3340  176.8670  143.9610 C   0  0  0  0  0  3  0  0  0  0  0  0
  190.9660  175.6570  143.4920 C   0  0  0  0  0  0  0  0  0  0  0  0
  183.5270  177.7340  140.0120 C   0  0  0  0  0  2  0  0  0  0  0  0
  184.2450  178.3490  142.8520 C   0  0  0  0  0  2  0  0  0  0  0  0
  180.2530  179.0670  141.3860 C   0  0  0  0  0  0  0  0  0  0  0  0
  181.2350  178.5780  140.5130 C   0  0  0  0  0  3  0  0  0  0  0  0
  182.5330  178.3280  140.9680 C   0  0  0  0  0  0  0  0  0  0  0  0
  181.8740  179.0410  143.1950 C   0  0  0  0  0  3  0  0  0  0  0  0
  182.8500  178.5430  142.3280 C   0  0  0  0  0  0  0  0  0  0  0  0
  180.5830  179.2980  142.7280 C   0  0  0  0  0  3  0  0  0  0  0  0
  185.1000  177.4760  141.9310 C   0  0  1  0  0  3  0  0  0  0  0  0
  184.9660  177.9280  140.4800 C   0  0  0  0  0  2  0  0  0  0  0  0
  178.8890  179.3360  140.8960 C   0  0  0  0  0  0  0  0  0  0  0  0
  178.0050  179.7700  141.6810 O   0  0  0  0  0  0  0  0  0  0  0  0
  178.5550  179.1070  139.5300 N   0  0  0  0  0  1  0  0  0  0  0  0
  194.8920  177.0490  145.3890 C   0  0  0  0  0  0  0  0  0  0  0  0
  194.6830  177.5400  146.6720 O   0  0  0  0  0  1  0  0  0  0  0  0
  196.0670  176.9930  144.9340 O   0  0  0  0  0  0  0  0  0  0  0  0
  1 18  1  0  0  0  0
  4  5  1  0  0  0  0
  5  1  2  0  0  0  0
  7  6  2  0  0  0  0
  8  6  1  0  0  0  0
  8  4  2  0  0  0  0
  9  4  1  0  0  0  0
 10 12  2  0  0  0  0
 10  3  1  0  0  0  0
 11  6  1  1  0  0  0
 11  1  1  0  0  0  0
 11 10  1  0  0  0  0
 13  2  1  0  0  0  0
 13 14  1  0  0  0  0
 14 15  2  0  0  0  0
 14 32  1  0  0  0  0
 16  2  2  0  0  0  0
 16  3  1  0  0  0  0
 17 15  1  0  0  0  0
 18 16  1  0  0  0  0
 18 17  2  0  0  0  0
 19 28  1  0  0  0  0
 19 23  1  0  0  0  0
 21 26  1  0  0  0  0
 22 23  1  0  0  0  0
 22 21  2  0  0  0  0
 23 25  2  0  0  0  0
 25 20  1  0  0  0  0
 25 24  1  0  0  0  0
 26 24  2  0  0  0  0
 27  9  1  1  0  0  0
 27 20  1  0  0  0  0
 28 27  1  0  0  0  0
 29 21  1  0  0  0  0
 29 30  2  0  0  0  0
 31 29  1  0  0  0  0
 32 33  1  0  0  0  0
 34 32  2  0  0  0  0
M  END
>  <MODEL>
8

>  <REMARK>
 VINA RESULT:      -7.7      2.639      3.642
  Name = 
  3 active torsions:
  status: ('A' for Active; 'I' for Inactive)
    1  A    between atoms: C_3  and  C_25
    2  A    between atoms: C_7  and  C_11
    3  A    between atoms: N_18  and  C_30
                            x       y       z     vdW  Elec       q    Type
                         _______ _______ _______ _____ _____    ______ ____

>  <TORSDO>
F 3

$$$$
=
 OpenBabel11052420153D

 34 38  0  0  1  0  0  0  0  0999 V2000
  187.1580  177.1480  144.2240 C   0  0  0  0  0  0  0  0  0  0  0  0
  183.8710  178.7840  145.0280 C   0  0  0  0  0  3  0  0  0  0  0  0
  185.2160  177.3690  146.3120 O   0  0  0  0  0  0  0  0  0  0  0  0
  189.2640  176.0560  143.5700 C   0  0  0  0  0  0  0  0  0  0  0  0
  187.9460  176.6340  143.2670 C   0  0  0  0  0  3  0  0  0  0  0  0
  188.9100  176.4440  145.9040 C   0  0  0  0  0  0  0  0  0  0  0  0
  189.3640  176.3150  147.0720 O   0  0  0  0  0  0  0  0  0  0  0  0
  189.6770  175.9580  144.7980 N   0  0  0  0  0  0  0  0  0  0  0  0
  190.0660  175.5610  142.4900 N   0  0  0  0  0  2  0  0  0  0  0  0
  186.4920  176.8710  146.5920 C   0  0  0  0  0  0  0  0  0  0  0  0
  187.6310  177.2130  145.6620 C   0  0  2  0  0  3  0  0  0  0  0  0
  186.6820  176.2200  147.6540 O   0  0  0  0  0  0  0  0  0  0  0  0
  183.5060  179.5850  143.8260 C   0  0  0  0  0  2  0  0  0  0  0  0
  183.1130  178.7110  142.6820 C   0  0  0  0  0  0  0  0  0  0  0  0
  183.9890  177.8660  142.1320 C   0  0  0  0  0  3  0  0  0  0  0  0
  184.9130  177.9510  145.0760 C   0  0  0  0  0  0  0  0  0  0  0  0
  185.3420  177.5670  142.6380 C   0  0  0  0  0  3  0  0  0  0  0  0
  185.7890  177.6390  143.9070 C   0  0  0  0  0  0  0  0  0  0  0  0
  192.6800  172.8180  142.5680 C   0  0  0  0  0  2  0  0  0  0  0  0
  192.0540  175.4080  143.9310 C   0  0  0  0  0  2  0  0  0  0  0  0
  195.6000  173.1790  144.9620 C   0  0  0  0  0  0  0  0  0  0  0  0
  194.7110  172.6660  144.0070 C   0  0  0  0  0  3  0  0  0  0  0  0
  193.5600  173.3750  143.6500 C   0  0  0  0  0  0  0  0  0  0  0  0
  194.1880  175.1410  145.1940 C   0  0  0  0  0  3  0  0  0  0  0  0
  193.3070  174.6360  144.2350 C   0  0  0  0  0  0  0  0  0  0  0  0
  195.3290  174.4200  145.5530 C   0  0  0  0  0  3  0  0  0  0  0  0
  191.3820  174.9460  142.6370 C   0  0  1  0  0  3  0  0  0  0  0  0
  191.2810  173.4260  142.5930 C   0  0  0  0  0  2  0  0  0  0  0  0
  196.8060  172.4210  145.3390 C   0  0  0  0  0  0  0  0  0  0  0  0
  197.9410  172.7900  144.9360 O   0  0  0  0  0  0  0  0  0  0  0  0
  196.7020  171.2610  146.1610 N   0  0  0  0  0  1  0  0  0  0  0  0
  181.7760  178.8770  142.0860 C   0  0  0  0  0  0  0  0  0  0  0  0
  180.7250  179.3600  142.8570 O   0  0  0  0  0  1  0  0  0  0  0  0
  181.5700  178.5830  140.8780 O   0  0  0  0  0  0  0  0  0  0  0  0
  2 16  2  0  0  0  0
  3 10  1  0  0  0  0
  4  8  2  0  0  0  0
  5  4  1  0  0  0  0
  5  1  2  0  0  0  0
  6  7  2  0  0  0  0
  8  6  1  0  0  0  0
  9  4  1  0  0  0  0
 10 12  2  0  0  0  0
 11  1  1  6  0  0  0
 11  6  1  0  0  0  0
 11 10  1  0  0  0  0
 13  2  1  0  0  0  0
 14 13  1  0  0  0  0
 15 17  1  0  0  0  0
 15 14  2  0  0  0  0
 16  3  1  0  0  0  0
 17 18  2  0  0  0  0
 18  1  1  0  0  0  0
 18 16  1  0  0  0  0
 19 28  1  0  0  0  0
 19 23  1  0  0  0  0
 20 25  1  0  0  0  0
 21 29  1  0  0  0  0
 21 26  1  0  0  0  0
 22 21  2  0  0  0  0
 23 22  1  0  0  0  0
 23 25  2  0  0  0  0
 24 26  2  0  0  0  0
 25 24  1  0  0  0  0
 27  9  1  1  0  0  0
 27 20  1  0  0  0  0
 28 27  1  0  0  0  0
 29 31  1  0  0  0  0
 30 29  2  0  0  0  0
 32 14  1  0  0  0  0
 32 33  1  0  0  0  0
 34 32  2  0  0  0  0
M  END
>  <MODEL>
9

>  <REMARK>
 VINA RESULT:      -7.7      2.650     10.781
  Name = 
  3 active torsions:
  status: ('A' for Active; 'I' for Inactive)
    1  A    between atoms: C_3  and  C_25
    2  A    between atoms: C_7  and  C_11
    3  A    between atoms: N_18  and  C_30
                            x       y       z     vdW  Elec       q    Type
                         _______ _______ _______ _____ _____    ______ ____

>  <TORSDO>
F 3

$$$$
