=
 OpenBabel11052420333D

 34 38  0  0  1  0  0  0  0  0999 V2000
  187.4270  175.5560  141.6840 C   0  0  0  0  0  0  0  0  0  0  0  0
  186.1530  178.8860  142.6130 C   0  0  0  0  0  3  0  0  0  0  0  0
  186.3680  177.8550  140.5900 N   0  0  0  0  0  2  0  0  0  0  0  0
  188.5210  173.3820  141.4070 C   0  0  0  0  0  0  0  0  0  0  0  0
  187.9810  174.3790  142.2200 C   0  0  0  0  0  3  0  0  0  0  0  0
  187.9610  174.7050  139.4510 C   0  0  0  0  0  0  0  0  0  0  0  0
  187.9840  174.8160  138.0290 N   0  0  0  0  0  1  0  0  0  0  0  0
  188.5100  173.5580  140.0260 C   0  0  0  0  0  3  0  0  0  0  0  0
  186.8140  176.8880  139.7510 C   0  0  0  0  0  0  0  0  0  0  0  0
  187.4080  175.7220  140.2740 C   0  0  0  0  0  0  0  0  0  0  0  0
  186.7050  177.0710  138.5100 O   0  0  0  0  0  0  0  0  0  0  0  0
  186.4320  179.1380  144.0550 C   0  0  0  0  0  2  0  0  0  0  0  0
  185.6910  178.2160  144.9530 C   0  0  0  0  0  0  0  0  0  0  0  0
  185.8750  176.9020  144.8740 C   0  0  0  0  0  3  0  0  0  0  0  0
  186.4230  177.7600  141.9420 C   0  0  0  0  0  0  0  0  0  0  0  0
  186.6220  176.1900  143.8210 C   0  0  0  0  0  3  0  0  0  0  0  0
  186.8600  176.5410  142.5360 C   0  0  0  0  0  0  0  0  0  0  0  0
  184.8770  178.7810  146.0440 C   0  0  0  0  0  0  0  0  0  0  0  0
  185.4940  179.2690  147.1900 O   0  0  0  0  0  1  0  0  0  0  0  0
  183.6210  178.8320  145.9500 O   0  0  0  0  0  0  0  0  0  0  0  0
  189.0810  172.2100  141.9360 O   0  0  0  0  0  0  0  0  0  0  0  0
  190.3090  173.4930  144.8080 C   0  0  0  0  0  2  0  0  0  0  0  0
  191.3400  173.1660  142.1790 C   0  0  0  0  0  2  0  0  0  0  0  0
  193.8690  174.9640  145.0170 C   0  0  0  0  0  0  0  0  0  0  0  0
  192.5040  174.5060  145.4730 C   0  0  0  0  0  2  0  0  0  0  0  0
  191.5650  174.2200  144.2990 C   0  0  1  0  0  3  0  0  0  0  0  0
  193.2800  174.3760  142.6810 C   0  0  0  0  0  2  0  0  0  0  0  0
  192.2820  173.4730  143.2500 N   0  0  2  0  0  0  0  0  0  0  0  0
  194.2420  174.8410  143.7360 C   0  0  0  0  0  3  0  0  0  0  0  0
  190.3170  172.1270  142.6530 C   0  0  1  0  0  3  0  0  0  0  0  0
  190.1110  172.1140  144.1740 C   0  0  0  0  0  2  0  0  0  0  0  0
  194.8300  175.4490  146.0220 C   0  0  0  0  0  0  0  0  0  0  0  0
  195.8040  174.7320  146.3770 O   0  0  0  0  0  0  0  0  0  0  0  0
  194.6720  176.7080  146.5860 O   0  0  0  0  0  1  0  0  0  0  0  0
  1  5  1  0  0  0  0
  1 17  1  0  0  0  0
  2 12  1  0  0  0  0
  3 15  1  0  0  0  0
  4 21  1  0  0  0  0
  4  5  2  0  0  0  0
  6  8  2  0  0  0  0
  6 10  1  0  0  0  0
  7  6  1  0  0  0  0
  8  4  1  0  0  0  0
  9 10  1  0  0  0  0
  9  3  1  0  0  0  0
 10  1  2  0  0  0  0
 11  9  2  0  0  0  0
 12 13  1  0  0  0  0
 13 18  1  0  0  0  0
 14 13  2  0  0  0  0
 15 17  1  0  0  0  0
 15  2  2  0  0  0  0
 16 14  1  0  0  0  0
 17 16  2  0  0  0  0
 18 19  1  0  0  0  0
 20 18  2  0  0  0  0
 23 30  1  0  0  0  0
 24 25  1  0  0  0  0
 24 32  1  0  0  0  0
 26 22  1  1  0  0  0
 26 25  1  0  0  0  0
 27 28  1  0  0  0  0
 27 29  1  0  0  0  0
 28 23  1  6  0  0  0
 28 26  1  0  0  0  0
 29 24  2  0  0  0  0
 30 21  1  6  0  0  0
 30 31  1  0  0  0  0
 31 22  1  0  0  0  0
 32 33  2  0  0  0  0
 32 34  1  0  0  0  0
M  END
>  <MODEL>
1

>  <REMARK>
 VINA RESULT:      -8.0      0.000      0.000
  Name = 
  4 active torsions:
  status: ('A' for Active; 'I' for Inactive)
    1  A    between atoms: C_3  and  C_25
    2  A    between atoms: C_7  and  C_11
    3  A    between atoms: C_8  and  O_18
    4  A    between atoms: O_18  and  C_30
                            x       y       z     vdW  Elec       q    Type
                         _______ _______ _______ _____ _____    ______ ____

>  <TORSDO>
F 4

$$$$
=
 OpenBabel11052420333D

 34 38  0  0  1  0  0  0  0  0999 V2000
  190.2660  176.5690  144.2470 C   0  0  0  0  0  0  0  0  0  0  0  0
  186.6700  177.2680  144.6380 C   0  0  0  0  0  3  0  0  0  0  0  0
  188.4250  177.4980  146.0770 N   0  0  0  0  0  2  0  0  0  0  0  0
  192.5320  175.8050  143.7180 C   0  0  0  0  0  0  0  0  0  0  0  0
  191.2210  176.0870  143.3330 C   0  0  0  0  0  3  0  0  0  0  0  0
  191.9950  176.4970  145.9810 C   0  0  0  0  0  0  0  0  0  0  0  0
  192.4490  176.6830  147.3200 N   0  0  0  0  0  1  0  0  0  0  0  0
  192.9060  176.0090  145.0430 C   0  0  0  0  0  3  0  0  0  0  0  0
  189.7030  177.3090  146.4870 C   0  0  0  0  0  0  0  0  0  0  0  0
  190.6590  176.7880  145.5950 C   0  0  0  0  0  0  0  0  0  0  0  0
  189.9990  177.5870  147.6800 O   0  0  0  0  0  0  0  0  0  0  0  0
  185.9330  176.7390  143.4560 C   0  0  0  0  0  2  0  0  0  0  0  0
  186.2900  177.4390  142.1960 C   0  0  0  0  0  0  0  0  0  0  0  0
  187.5430  177.4310  141.7500 C   0  0  0  0  0  3  0  0  0  0  0  0
  187.9970  177.2460  144.8150 C   0  0  0  0  0  0  0  0  0  0  0  0
  188.7250  176.9480  142.4880 C   0  0  0  0  0  3  0  0  0  0  0  0
  188.9470  176.8730  143.8210 C   0  0  0  0  0  0  0  0  0  0  0  0
  185.2150  177.9970  141.3580 C   0  0  0  0  0  0  0  0  0  0  0  0
  183.9640  178.2510  141.9080 O   0  0  0  0  0  1  0  0  0  0  0  0
  185.4160  178.2560  140.1400 O   0  0  0  0  0  0  0  0  0  0  0  0
  193.4860  175.3160  142.8120 O   0  0  0  0  0  0  0  0  0  0  0  0
  193.0580  172.4970  144.6200 C   0  0  0  0  0  2  0  0  0  0  0  0
  195.3230  174.0120  143.8130 C   0  0  0  0  0  2  0  0  0  0  0  0
  196.0440  170.5780  146.1300 C   0  0  0  0  0  0  0  0  0  0  0  0
  194.6160  170.8940  145.7550 C   0  0  0  0  0  2  0  0  0  0  0  0
  194.4520  172.3270  145.2480 C   0  0  1  0  0  3  0  0  0  0  0  0
  196.7780  172.7160  145.1090 C   0  0  0  0  0  2  0  0  0  0  0  0
  195.5480  172.6640  144.3230 N   0  0  2  0  0  0  0  0  0  0  0  0
  197.0440  171.3950  145.7710 C   0  0  0  0  0  3  0  0  0  0  0  0
  194.1110  174.0300  142.8740 C   0  0  1  0  0  3  0  0  0  0  0  0
  193.1050  172.9030  143.1450 C   0  0  0  0  0  2  0  0  0  0  0  0
  196.3390  169.3010  146.8010 C   0  0  0  0  0  0  0  0  0  0  0  0
  197.4630  168.7470  146.6640 O   0  0  0  0  0  0  0  0  0  0  0  0
  195.3760  168.6950  147.5980 O   0  0  0  0  0  1  0  0  0  0  0  0
  1 10  1  0  0  0  0
  2 15  2  0  0  0  0
  3  9  1  0  0  0  0
  4  8  2  0  0  0  0
  5  4  1  0  0  0  0
  5  1  2  0  0  0  0
  6  7  1  0  0  0  0
  8  6  1  0  0  0  0
  9 11  2  0  0  0  0
 10  6  2  0  0  0  0
 10  9  1  0  0  0  0
 12  2  1  0  0  0  0
 13 12  1  0  0  0  0
 14 13  2  0  0  0  0
 14 16  1  0  0  0  0
 15  3  1  0  0  0  0
 16 17  2  0  0  0  0
 17  1  1  0  0  0  0
 17 15  1  0  0  0  0
 18 19  1  0  0  0  0
 18 13  1  0  0  0  0
 20 18  2  0  0  0  0
 21  4  1  0  0  0  0
 24 32  1  0  0  0  0
 25 24  1  0  0  0  0
 26 22  1  6  0  0  0
 26 25  1  0  0  0  0
 27 29  1  0  0  0  0
 28 23  1  1  0  0  0
 28 27  1  0  0  0  0
 28 26  1  0  0  0  0
 29 24  2  0  0  0  0
 30 21  1  1  0  0  0
 30 31  1  0  0  0  0
 30 23  1  0  0  0  0
 31 22  1  0  0  0  0
 32 34  1  0  0  0  0
 33 32  2  0  0  0  0
M  END
>  <MODEL>
2

>  <REMARK>
 VINA RESULT:      -7.9      3.492      5.417
  Name = 
  4 active torsions:
  status: ('A' for Active; 'I' for Inactive)
    1  A    between atoms: C_3  and  C_25
    2  A    between atoms: C_7  and  C_11
    3  A    between atoms: C_8  and  O_18
    4  A    between atoms: O_18  and  C_30
                            x       y       z     vdW  Elec       q    Type
                         _______ _______ _______ _____ _____    ______ ____

>  <TORSDO>
F 4

$$$$
=
 OpenBabel11052420333D

 34 38  0  0  1  0  0  0  0  0999 V2000
  193.6100  173.8500  144.6400 C   0  0  0  0  0  0  0  0  0  0  0  0
  196.8110  172.6620  146.0240 C   0  0  0  0  0  3  0  0  0  0  0  0
  195.8530  174.7310  145.9810 N   0  0  0  0  0  2  0  0  0  0  0  0
  191.5310  174.3310  143.4380 C   0  0  0  0  0  0  0  0  0  0  0  0
  192.4640  173.4250  143.9450 C   0  0  0  0  0  3  0  0  0  0  0  0
  192.8600  176.1600  144.3190 C   0  0  0  0  0  0  0  0  0  0  0  0
  193.0110  177.5690  144.4740 N   0  0  0  0  0  1  0  0  0  0  0  0
  191.7420  175.6940  143.6260 C   0  0  0  0  0  3  0  0  0  0  0  0
  194.9440  175.6500  145.5720 C   0  0  0  0  0  0  0  0  0  0  0  0
  193.8120  175.2420  144.8400 C   0  0  0  0  0  0  0  0  0  0  0  0
  195.1510  176.8630  145.8410 O   0  0  0  0  0  0  0  0  0  0  0  0
  197.0440  171.2540  145.5930 C   0  0  0  0  0  2  0  0  0  0  0  0
  196.0460  170.3080  146.1550 C   0  0  0  0  0  0  0  0  0  0  0  0
  194.7520  170.4550  145.8900 C   0  0  0  0  0  3  0  0  0  0  0  0
  195.7260  173.3990  145.7590 C   0  0  0  0  0  0  0  0  0  0  0  0
  194.1260  171.6130  145.2260 C   0  0  0  0  0  3  0  0  0  0  0  0
  194.5270  172.9040  145.1690 C   0  0  0  0  0  0  0  0  0  0  0  0
  196.5200  169.1110  146.8700 C   0  0  0  0  0  0  0  0  0  0  0  0
  197.8720  168.7860  146.8640 O   0  0  0  0  0  0  0  0  0  0  0  0
  195.7120  168.3730  147.4950 O   0  0  0  0  0  1  0  0  0  0  0  0
  190.3900  173.9130  142.7370 O   0  0  0  0  0  0  0  0  0  0  0  0
  188.5100  176.6410  142.0890 C   0  0  0  0  0  2  0  0  0  0  0  0
  188.9090  175.0030  144.3770 C   0  0  0  0  0  2  0  0  0  0  0  0
  186.2490  178.2350  144.7770 C   0  0  0  0  0  0  0  0  0  0  0  0
  186.8880  178.0050  143.4280 C   0  0  0  0  0  2  0  0  0  0  0  0
  188.0870  177.0580  143.5070 C   0  0  1  0  0  3  0  0  0  0  0  0
  187.6430  176.4240  145.7400 C   0  0  0  0  0  2  0  0  0  0  0  0
  187.7680  175.9120  144.3770 N   0  0  2  0  0  0  0  0  0  0  0  0
  186.5570  177.4580  145.8240 C   0  0  0  0  0  3  0  0  0  0  0  0
  189.0470  174.3230  143.0100 C   0  0  1  0  0  3  0  0  0  0  0  0
  188.4350  175.1290  141.8560 C   0  0  0  0  0  2  0  0  0  0  0  0
  185.1960  179.2570  144.9010 C   0  0  0  0  0  0  0  0  0  0  0  0
  185.2660  180.3350  144.2510 O   0  0  0  0  0  0  0  0  0  0  0  0
  184.1080  179.0380  145.7370 O   0  0  0  0  0  1  0  0  0  0  0  0
  1 10  1  0  0  0  0
  1 17  1  0  0  0  0
  4  8  2  0  0  0  0
  4  5  1  0  0  0  0
  5  1  2  0  0  0  0
  6  7  1  0  0  0  0
  6 10  2  0  0  0  0
  8  6  1  0  0  0  0
  9 11  2  0  0  0  0
  9  3  1  0  0  0  0
 10  9  1  0  0  0  0
 12  2  1  0  0  0  0
 12 13  1  0  0  0  0
 13 18  1  0  0  0  0
 14 13  2  0  0  0  0
 15  3  1  0  0  0  0
 15  2  2  0  0  0  0
 16 14  1  0  0  0  0
 17 16  2  0  0  0  0
 17 15  1  0  0  0  0
 18 20  1  0  0  0  0
 19 18  2  0  0  0  0
 21  4  1  0  0  0  0
 24 32  1  0  0  0  0
 24 29  2  0  0  0  0
 25 26  1  0  0  0  0
 25 24  1  0  0  0  0
 26 22  1  6  0  0  0
 26 28  1  0  0  0  0
 27 29  1  0  0  0  0
 28 23  1  1  0  0  0
 28 27  1  0  0  0  0
 30 21  1  6  0  0  0
 30 23  1  0  0  0  0
 31 22  1  0  0  0  0
 31 30  1  0  0  0  0
 32 34  1  0  0  0  0
 33 32  2  0  0  0  0
M  END
>  <MODEL>
3

>  <REMARK>
 VINA RESULT:      -7.7      3.144      9.453
  Name = 
  4 active torsions:
  status: ('A' for Active; 'I' for Inactive)
    1  A    between atoms: C_3  and  C_25
    2  A    between atoms: C_7  and  C_11
    3  A    between atoms: C_8  and  O_18
    4  A    between atoms: O_18  and  C_30
                            x       y       z     vdW  Elec       q    Type
                         _______ _______ _______ _____ _____    ______ ____

>  <TORSDO>
F 4

$$$$
=
 OpenBabel11052420333D

 34 38  0  0  1  0  0  0  0  0999 V2000
  194.9090  173.5460  144.2010 C   0  0  0  0  0  0  0  0  0  0  0  0
  197.5390  171.0970  145.0120 C   0  0  0  0  0  3  0  0  0  0  0  0
  197.6490  173.2690  144.3240 N   0  0  0  0  0  2  0  0  0  0  0  0
  192.9330  174.8380  143.5450 C   0  0  0  0  0  0  0  0  0  0  0  0
  193.5130  173.7050  144.1180 C   0  0  0  0  0  3  0  0  0  0  0  0
  195.1500  175.7270  143.1120 C   0  0  0  0  0  0  0  0  0  0  0  0
  195.9340  176.7910  142.5770 N   0  0  0  0  0  1  0  0  0  0  0  0
  193.7600  175.8380  143.0410 C   0  0  0  0  0  3  0  0  0  0  0  0
  197.1390  174.4200  143.8230 C   0  0  0  0  0  0  0  0  0  0  0  0
  195.7450  174.5770  143.6970 C   0  0  0  0  0  0  0  0  0  0  0  0
  197.9390  175.3220  143.4560 O   0  0  0  0  0  0  0  0  0  0  0  0
  196.9220  169.7540  145.2040 C   0  0  0  0  0  2  0  0  0  0  0  0
  196.0180  169.7000  146.3820 C   0  0  0  0  0  0  0  0  0  0  0  0
  194.9530  170.4930  146.4530 C   0  0  0  0  0  3  0  0  0  0  0  0
  196.8840  172.2370  144.7620 C   0  0  0  0  0  0  0  0  0  0  0  0
  194.6420  171.6150  145.5480 C   0  0  0  0  0  3  0  0  0  0  0  0
  195.4690  172.3950  144.8140 C   0  0  0  0  0  0  0  0  0  0  0  0
  196.2180  168.6450  147.3890 C   0  0  0  0  0  0  0  0  0  0  0  0
  197.4970  168.1660  147.6510 O   0  0  0  0  0  0  0  0  0  0  0  0
  195.2400  168.1680  148.0260 O   0  0  0  0  0  1  0  0  0  0  0  0
  191.5430  174.9980  143.4530 O   0  0  0  0  0  0  0  0  0  0  0  0
  189.7170  175.9490  146.1290 C   0  0  0  0  0  2  0  0  0  0  0  0
  189.3690  176.1510  143.3150 C   0  0  0  0  0  2  0  0  0  0  0  0
  186.3220  177.7370  145.7410 C   0  0  0  0  0  0  0  0  0  0  0  0
  187.5320  177.1420  146.4210 C   0  0  0  0  0  2  0  0  0  0  0  0
  188.3690  176.2850  145.4700 C   0  0  1  0  0  3  0  0  0  0  0  0
  187.1950  176.9880  143.5440 C   0  0  0  0  0  2  0  0  0  0  0  0
  188.5140  176.9670  144.1720 N   0  0  2  0  0  0  0  0  0  0  0  0
  186.2050  177.7180  144.4060 C   0  0  0  0  0  3  0  0  0  0  0  0
  190.8110  176.1670  143.8350 C   0  0  1  0  0  3  0  0  0  0  0  0
  190.9220  176.4620  145.3370 C   0  0  0  0  0  2  0  0  0  0  0  0
  185.3190  178.4400  146.5590 C   0  0  0  0  0  0  0  0  0  0  0  0
  184.0880  178.2930  146.3340 O   0  0  0  0  0  0  0  0  0  0  0  0
  185.7250  179.2730  147.5940 O   0  0  0  0  0  1  0  0  0  0  0  0
  1 17  1  0  0  0  0
  2 12  1  0  0  0  0
  3 15  1  0  0  0  0
  4  5  2  0  0  0  0
  5  1  1  0  0  0  0
  6 10  1  0  0  0  0
  7  6  1  0  0  0  0
  8  6  2  0  0  0  0
  8  4  1  0  0  0  0
  9  3  1  0  0  0  0
 10  9  1  0  0  0  0
 10  1  2  0  0  0  0
 11  9  2  0  0  0  0
 12 13  1  0  0  0  0
 13 14  2  0  0  0  0
 13 18  1  0  0  0  0
 15 17  1  0  0  0  0
 15  2  2  0  0  0  0
 16 14  1  0  0  0  0
 17 16  2  0  0  0  0
 18 19  2  0  0  0  0
 18 20  1  0  0  0  0
 21  4  1  0  0  0  0
 23 30  1  0  0  0  0
 24 25  1  0  0  0  0
 24 32  1  0  0  0  0
 26 22  1  1  0  0  0
 26 25  1  0  0  0  0
 27 28  1  0  0  0  0
 27 29  1  0  0  0  0
 28 23  1  6  0  0  0
 28 26  1  0  0  0  0
 29 24  2  0  0  0  0
 30 21  1  1  0  0  0
 30 31  1  0  0  0  0
 31 22  1  0  0  0  0
 32 34  1  0  0  0  0
 33 32  2  0  0  0  0
M  END
>  <MODEL>
4

>  <REMARK>
 VINA RESULT:      -7.6      3.685      9.871
  Name = 
  4 active torsions:
  status: ('A' for Active; 'I' for Inactive)
    1  A    between atoms: C_3  and  C_25
    2  A    between atoms: C_7  and  C_11
    3  A    between atoms: C_8  and  O_18
    4  A    between atoms: O_18  and  C_30
                            x       y       z     vdW  Elec       q    Type
                         _______ _______ _______ _____ _____    ______ ____

>  <TORSDO>
F 4

$$$$
=
 OpenBabel11052420333D

 34 38  0  0  1  0  0  0  0  0999 V2000
  187.6540  175.6790  141.8430 C   0  0  0  0  0  0  0  0  0  0  0  0
  185.9880  178.8830  142.5700 C   0  0  0  0  0  3  0  0  0  0  0  0
  186.2270  177.7040  140.6330 N   0  0  0  0  0  2  0  0  0  0  0  0
  189.0200  173.6520  141.6770 C   0  0  0  0  0  0  0  0  0  0  0  0
  188.3950  174.6410  142.4370 C   0  0  0  0  0  3  0  0  0  0  0  0
  188.1710  174.6990  139.6580 C   0  0  0  0  0  0  0  0  0  0  0  0
  188.0960  174.6780  138.2350 N   0  0  0  0  0  1  0  0  0  0  0  0
  188.9060  173.6940  140.2900 C   0  0  0  0  0  3  0  0  0  0  0  0
  186.7530  176.7290  139.8510 C   0  0  0  0  0  0  0  0  0  0  0  0
  187.5310  175.7070  140.4280 C   0  0  0  0  0  0  0  0  0  0  0  0
  186.5480  176.7790  138.6090 O   0  0  0  0  0  0  0  0  0  0  0  0
  186.3130  179.3040  143.9630 C   0  0  0  0  0  2  0  0  0  0  0  0
  185.7580  178.3810  144.9860 C   0  0  0  0  0  0  0  0  0  0  0  0
  186.1180  177.1010  145.0070 C   0  0  0  0  0  3  0  0  0  0  0  0
  186.3720  177.7440  141.9810 C   0  0  0  0  0  0  0  0  0  0  0  0
  186.8940  176.3990  143.9690 C   0  0  0  0  0  3  0  0  0  0  0  0
  187.0070  176.6550  142.6450 C   0  0  0  0  0  0  0  0  0  0  0  0
  184.9390  178.9330  146.0780 C   0  0  0  0  0  0  0  0  0  0  0  0
  185.5450  179.3610  147.2540 O   0  0  0  0  0  1  0  0  0  0  0  0
  183.6880  179.0280  145.9600 O   0  0  0  0  0  0  0  0  0  0  0  0
  189.7670  172.6200  142.2640 O   0  0  0  0  0  0  0  0  0  0  0  0
  192.0990  171.1770  144.2330 C   0  0  0  0  0  2  0  0  0  0  0  0
  191.8700  173.7040  142.9520 C   0  0  0  0  0  2  0  0  0  0  0  0
  195.3390  173.0200  145.2290 C   0  0  0  0  0  0  0  0  0  0  0  0
  194.3310  171.9000  145.1180 C   0  0  0  0  0  2  0  0  0  0  0  0
  192.9790  172.3860  144.5930 C   0  0  1  0  0  3  0  0  0  0  0  0
  193.7950  174.5240  144.0030 C   0  0  0  0  0  2  0  0  0  0  0  0
  193.1790  173.3130  143.4650 N   0  0  2  0  0  0  0  0  0  0  0  0
  195.1100  174.2090  144.6560 C   0  0  0  0  0  3  0  0  0  0  0  0
  191.1940  172.5160  142.2580 C   0  0  1  0  0  3  0  0  0  0  0  0
  191.6830  171.1500  142.7600 C   0  0  0  0  0  2  0  0  0  0  0  0
  196.6300  172.7520  145.8840 C   0  0  0  0  0  0  0  0  0  0  0  0
  197.2030  171.6380  145.7460 O   0  0  0  0  0  0  0  0  0  0  0  0
  197.2340  173.7340  146.6600 O   0  0  0  0  0  1  0  0  0  0  0  0
  1  5  1  0  0  0  0
  1 17  1  0  0  0  0
  2 12  1  0  0  0  0
  3 15  1  0  0  0  0
  4 21  1  0  0  0  0
  4  5  2  0  0  0  0
  6  8  2  0  0  0  0
  6 10  1  0  0  0  0
  7  6  1  0  0  0  0
  8  4  1  0  0  0  0
  9 10  1  0  0  0  0
  9  3  1  0  0  0  0
 10  1  2  0  0  0  0
 11  9  2  0  0  0  0
 12 13  1  0  0  0  0
 13 14  2  0  0  0  0
 13 18  1  0  0  0  0
 15  2  2  0  0  0  0
 15 17  1  0  0  0  0
 16 14  1  0  0  0  0
 17 16  2  0  0  0  0
 18 19  1  0  0  0  0
 20 18  2  0  0  0  0
 24 32  1  0  0  0  0
 25 24  1  0  0  0  0
 26 22  1  6  0  0  0
 26 25  1  0  0  0  0
 27 29  1  0  0  0  0
 28 23  1  1  0  0  0
 28 27  1  0  0  0  0
 28 26  1  0  0  0  0
 29 24  2  0  0  0  0
 30 21  1  1  0  0  0
 30 31  1  0  0  0  0
 30 23  1  0  0  0  0
 31 22  1  0  0  0  0
 32 34  1  0  0  0  0
 33 32  2  0  0  0  0
M  END
>  <MODEL>
5

>  <REMARK>
 VINA RESULT:      -7.6      1.349      1.569
  Name = 
  4 active torsions:
  status: ('A' for Active; 'I' for Inactive)
    1  A    between atoms: C_3  and  C_25
    2  A    between atoms: C_7  and  C_11
    3  A    between atoms: C_8  and  O_18
    4  A    between atoms: O_18  and  C_30
                            x       y       z     vdW  Elec       q    Type
                         _______ _______ _______ _____ _____    ______ ____

>  <TORSDO>
F 4

$$$$
=
 OpenBabel11052420333D

 34 38  0  0  1  0  0  0  0  0999 V2000
  189.5890  175.2720  145.1140 C   0  0  0  0  0  0  0  0  0  0  0  0
  187.8580  177.9160  147.0070 C   0  0  0  0  0  3  0  0  0  0  0  0
  190.0290  177.2140  147.0210 N   0  0  0  0  0  2  0  0  0  0  0  0
  190.3660  173.3190  143.8560 C   0  0  0  0  0  0  0  0  0  0  0  0
  189.3850  174.2660  144.1520 C   0  0  0  0  0  3  0  0  0  0  0  0
  191.8320  174.3590  145.4860 C   0  0  0  0  0  0  0  0  0  0  0  0
  193.1000  174.3530  146.1380 N   0  0  0  0  0  1  0  0  0  0  0  0
  191.5810  173.3720  144.5320 C   0  0  0  0  0  3  0  0  0  0  0  0
  191.0410  176.3640  146.7220 C   0  0  0  0  0  0  0  0  0  0  0  0
  190.8370  175.3270  145.7900 C   0  0  0  0  0  0  0  0  0  0  0  0
  192.1440  176.5120  147.3110 O   0  0  0  0  0  0  0  0  0  0  0  0
  186.3910  177.8140  146.7700 C   0  0  0  0  0  2  0  0  0  0  0  0
  186.0160  178.0910  145.3600 C   0  0  0  0  0  0  0  0  0  0  0  0
  186.4960  177.3400  144.3730 C   0  0  0  0  0  3  0  0  0  0  0  0
  188.8040  177.1570  146.4400 C   0  0  0  0  0  0  0  0  0  0  0  0
  187.5620  176.3280  144.4900 C   0  0  0  0  0  3  0  0  0  0  0  0
  188.5830  176.2380  145.3740 C   0  0  0  0  0  0  0  0  0  0  0  0
  184.9780  179.0970  145.0800 C   0  0  0  0  0  0  0  0  0  0  0  0
  183.7530  179.0350  145.7350 O   0  0  0  0  0  1  0  0  0  0  0  0
  185.1860  180.0250  144.2520 O   0  0  0  0  0  0  0  0  0  0  0  0
  190.1640  172.3090  142.9030 O   0  0  0  0  0  0  0  0  0  0  0  0
  189.5770  173.4150  139.7670 C   0  0  0  0  0  2  0  0  0  0  0  0
  190.4410  170.9420  140.8710 C   0  0  0  0  0  2  0  0  0  0  0  0
  190.0480  171.1390  136.6890 C   0  0  0  0  0  0  0  0  0  0  0  0
  189.7620  172.3880  137.4880 C   0  0  0  0  0  2  0  0  0  0  0  0
  189.5780  172.0950  138.9780 C   0  0  1  0  0  3  0  0  0  0  0  0
  190.3320  169.8630  138.7970 C   0  0  0  0  0  2  0  0  0  0  0  0
  190.6090  171.1470  139.4360 N   0  0  2  0  0  0  0  0  0  0  0  0
  190.3740  169.9920  137.3010 C   0  0  0  0  0  3  0  0  0  0  0  0
  190.8270  172.2120  141.6380 C   0  0  1  0  0  3  0  0  0  0  0  0
  190.6960  173.4970  140.8090 C   0  0  0  0  0  2  0  0  0  0  0  0
  190.0750  171.2240  135.2190 C   0  0  0  0  0  0  0  0  0  0  0  0
  189.1110  171.7360  134.5870 O   0  0  0  0  0  1  0  0  0  0  0  0
  191.1700  170.7420  134.5130 O   0  0  0  0  0  0  0  0  0  0  0  0
  1 17  1  0  0  0  0
  1 10  1  0  0  0  0
  4  5  1  0  0  0  0
  4  8  2  0  0  0  0
  5  1  2  0  0  0  0
  6 10  2  0  0  0  0
  6  7  1  0  0  0  0
  8  6  1  0  0  0  0
  9  3  1  0  0  0  0
  9 11  2  0  0  0  0
 10  9  1  0  0  0  0
 12  2  1  0  0  0  0
 13 12  1  0  0  0  0
 14 16  1  0  0  0  0
 14 13  2  0  0  0  0
 15  2  2  0  0  0  0
 15  3  1  0  0  0  0
 16 17  2  0  0  0  0
 17 15  1  0  0  0  0
 18 13  1  0  0  0  0
 18 19  1  0  0  0  0
 20 18  2  0  0  0  0
 21  4  1  0  0  0  0
 22 31  1  0  0  0  0
 23 30  1  0  0  0  0
 24 29  2  0  0  0  0
 24 25  1  0  0  0  0
 26 25  1  6  0  0  0
 26 28  1  0  0  0  0
 26 22  1  0  0  0  0
 28 27  1  6  0  0  0
 28 23  1  0  0  0  0
 29 27  1  0  0  0  0
 30 21  1  1  0  0  0
 31 30  1  0  0  0  0
 32 24  1  0  0  0  0
 33 32  1  0  0  0  0
 34 32  2  0  0  0  0
M  END
>  <MODEL>
6

>  <REMARK>
 VINA RESULT:      -7.5      3.256      6.672
  Name = 
  4 active torsions:
  status: ('A' for Active; 'I' for Inactive)
    1  A    between atoms: C_3  and  C_25
    2  A    between atoms: C_7  and  C_11
    3  A    between atoms: C_8  and  O_18
    4  A    between atoms: O_18  and  C_30
                            x       y       z     vdW  Elec       q    Type
                         _______ _______ _______ _____ _____    ______ ____

>  <TORSDO>
F 4

$$$$
=
 OpenBabel11052420333D

 34 38  0  0  1  0  0  0  0  0999 V2000
  190.1580  176.5870  144.8860 C   0  0  0  0  0  0  0  0  0  0  0  0
  187.1650  177.2660  146.9230 C   0  0  0  0  0  3  0  0  0  0  0  0
  189.3830  177.2340  147.4520 N   0  0  0  0  0  2  0  0  0  0  0  0
  191.8930  175.8860  143.3060 C   0  0  0  0  0  0  0  0  0  0  0  0
  190.5740  176.2450  143.5860 C   0  0  0  0  0  3  0  0  0  0  0  0
  192.4560  176.2100  145.6440 C   0  0  0  0  0  0  0  0  0  0  0  0
  193.4620  176.1690  146.6540 N   0  0  0  0  0  1  0  0  0  0  0  0
  192.8230  175.8670  144.3420 C   0  0  0  0  0  3  0  0  0  0  0  0
  190.6910  176.9620  147.2220 C   0  0  0  0  0  0  0  0  0  0  0  0
  191.1150  176.5790  145.9350 C   0  0  0  0  0  0  0  0  0  0  0  0
  191.5000  177.0390  148.1850 O   0  0  0  0  0  0  0  0  0  0  0  0
  185.9440  176.9470  146.1300 C   0  0  0  0  0  2  0  0  0  0  0  0
  185.7750  177.8360  144.9530 C   0  0  0  0  0  0  0  0  0  0  0  0
  186.7030  177.8820  144.0020 C   0  0  0  0  0  3  0  0  0  0  0  0
  188.4290  177.1960  146.4890 C   0  0  0  0  0  0  0  0  0  0  0  0
  188.0430  177.2690  144.0640 C   0  0  0  0  0  3  0  0  0  0  0  0
  188.8160  176.9750  145.1350 C   0  0  0  0  0  0  0  0  0  0  0  0
  184.4940  178.5390  144.7650 C   0  0  0  0  0  0  0  0  0  0  0  0
  183.9410  178.6510  143.4950 O   0  0  0  0  0  0  0  0  0  0  0  0
  183.8850  179.0410  145.7480 O   0  0  0  0  0  1  0  0  0  0  0  0
  192.3120  175.5360  142.0130 O   0  0  0  0  0  0  0  0  0  0  0  0
  192.8730  174.1660  138.9790 C   0  0  0  0  0  2  0  0  0  0  0  0
  190.9320  173.7550  141.0150 C   0  0  0  0  0  2  0  0  0  0  0  0
  190.6060  171.3890  137.5530 C   0  0  0  0  0  0  0  0  0  0  0  0
  191.7600  172.3600  137.6430 C   0  0  0  0  0  2  0  0  0  0  0  0
  191.5600  173.3980  138.7480 C   0  0  1  0  0  3  0  0  0  0  0  0
  189.6920  172.2880  139.6760 C   0  0  0  0  0  2  0  0  0  0  0  0
  191.0490  172.7460  139.9670 N   0  0  2  0  0  0  0  0  0  0  0  0
  189.6910  171.3190  138.5290 C   0  0  0  0  0  3  0  0  0  0  0  0
  192.3230  174.2120  141.4700 C   0  0  1  0  0  3  0  0  0  0  0  0
  193.4120  174.0260  140.4050 C   0  0  0  0  0  2  0  0  0  0  0  0
  190.5600  170.4390  136.4290 C   0  0  0  0  0  0  0  0  0  0  0  0
  190.1020  170.7910  135.3090 O   0  0  0  0  0  0  0  0  0  0  0  0
  191.0290  169.1420  136.5940 O   0  0  0  0  0  1  0  0  0  0  0  0
  1 17  1  0  0  0  0
  1 10  1  0  0  0  0
  4  5  1  0  0  0  0
  4  8  2  0  0  0  0
  5  1  2  0  0  0  0
  6 10  2  0  0  0  0
  6  7  1  0  0  0  0
  8  6  1  0  0  0  0
  9  3  1  0  0  0  0
  9 11  2  0  0  0  0
 10  9  1  0  0  0  0
 12  2  1  0  0  0  0
 13 12  1  0  0  0  0
 14 16  1  0  0  0  0
 14 13  2  0  0  0  0
 15  2  2  0  0  0  0
 15  3  1  0  0  0  0
 16 17  2  0  0  0  0
 17 15  1  0  0  0  0
 18 13  1  0  0  0  0
 18 20  1  0  0  0  0
 19 18  2  0  0  0  0
 21  4  1  0  0  0  0
 22 31  1  0  0  0  0
 23 30  1  0  0  0  0
 24 25  1  0  0  0  0
 24 29  2  0  0  0  0
 26 25  1  6  0  0  0
 26 22  1  0  0  0  0
 26 28  1  0  0  0  0
 28 27  1  6  0  0  0
 28 23  1  0  0  0  0
 29 27  1  0  0  0  0
 30 21  1  6  0  0  0
 31 30  1  0  0  0  0
 32 34  1  0  0  0  0
 32 24  1  0  0  0  0
 33 32  2  0  0  0  0
M  END
>  <MODEL>
7

>  <REMARK>
 VINA RESULT:      -7.5      3.344      6.641
  Name = 
  4 active torsions:
  status: ('A' for Active; 'I' for Inactive)
    1  A    between atoms: C_3  and  C_25
    2  A    between atoms: C_7  and  C_11
    3  A    between atoms: C_8  and  O_18
    4  A    between atoms: O_18  and  C_30
                            x       y       z     vdW  Elec       q    Type
                         _______ _______ _______ _____ _____    ______ ____

>  <TORSDO>
F 4

$$$$
=
 OpenBabel11052420333D

 34 38  0  0  1  0  0  0  0  0999 V2000
  192.9480  172.0940  144.3490 C   0  0  0  0  0  0  0  0  0  0  0  0
  193.7680  168.6340  145.3150 C   0  0  0  0  0  3  0  0  0  0  0  0
  192.4270  169.4720  143.6710 N   0  0  0  0  0  2  0  0  0  0  0  0
  192.4620  174.4830  144.1150 C   0  0  0  0  0  0  0  0  0  0  0  0
  193.1900  173.4380  144.6860 C   0  0  0  0  0  3  0  0  0  0  0  0
  191.2040  172.8670  142.8130 C   0  0  0  0  0  0  0  0  0  0  0  0
  190.1750  172.6380  141.8530 N   0  0  0  0  0  1  0  0  0  0  0  0
  191.4700  174.1860  143.1850 C   0  0  0  0  0  3  0  0  0  0  0  0
  191.7410  170.4520  143.0340 C   0  0  0  0  0  0  0  0  0  0  0  0
  191.9430  171.7990  143.3900 C   0  0  0  0  0  0  0  0  0  0  0  0
  190.9120  170.1240  142.1440 O   0  0  0  0  0  0  0  0  0  0  0  0
  194.5290  168.6460  146.5970 C   0  0  0  0  0  2  0  0  0  0  0  0
  195.8570  169.2980  146.4700 C   0  0  0  0  0  0  0  0  0  0  0  0
  195.9520  170.5700  146.0950 C   0  0  0  0  0  3  0  0  0  0  0  0
  193.3530  169.7090  144.6350 C   0  0  0  0  0  0  0  0  0  0  0  0
  194.8560  171.4090  145.5770 C   0  0  0  0  0  3  0  0  0  0  0  0
  193.7230  171.0540  144.9270 C   0  0  0  0  0  0  0  0  0  0  0  0
  197.0560  168.5740  146.9260 C   0  0  0  0  0  0  0  0  0  0  0  0
  197.2330  168.3020  148.2780 O   0  0  0  0  0  1  0  0  0  0  0  0
  197.9290  168.1910  146.1020 O   0  0  0  0  0  0  0  0  0  0  0  0
  192.6940  175.8250  144.4530 O   0  0  0  0  0  0  0  0  0  0  0  0
  190.1470  175.4250  146.6340 C   0  0  0  0  0  2  0  0  0  0  0  0
  190.5190  176.9710  144.2770 C   0  0  0  0  0  2  0  0  0  0  0  0
  186.7970  177.2890  146.2070 C   0  0  0  0  0  0  0  0  0  0  0  0
  187.8460  176.4000  146.8320 C   0  0  0  0  0  2  0  0  0  0  0  0
  188.9880  176.0820  145.8650 C   0  0  1  0  0  3  0  0  0  0  0  0
  188.2840  177.6640  144.2580 C   0  0  0  0  0  2  0  0  0  0  0  0
  189.3900  177.3000  145.1410 N   0  0  2  0  0  0  0  0  0  0  0  0
  187.0330  177.9200  145.0490 C   0  0  0  0  0  3  0  0  0  0  0  0
  191.7680  176.6880  145.1200 C   0  0  1  0  0  3  0  0  0  0  0  0
  191.4540  176.2180  146.5480 C   0  0  0  0  0  2  0  0  0  0  0  0
  185.5480  177.5420  146.9450 C   0  0  0  0  0  0  0  0  0  0  0  0
  184.5320  176.8190  146.7580 O   0  0  0  0  0  0  0  0  0  0  0  0
  185.4790  178.5840  147.8610 O   0  0  0  0  0  1  0  0  0  0  0  0
  1  5  1  0  0  0  0
  1 17  1  0  0  0  0
  2 12  1  0  0  0  0
  3 15  1  0  0  0  0
  4 21  1  0  0  0  0
  4  5  2  0  0  0  0
  6  8  2  0  0  0  0
  6 10  1  0  0  0  0
  7  6  1  0  0  0  0
  8  4  1  0  0  0  0
  9 10  1  0  0  0  0
  9  3  1  0  0  0  0
 10  1  2  0  0  0  0
 11  9  2  0  0  0  0
 13 12  1  0  0  0  0
 13 18  1  0  0  0  0
 14 13  2  0  0  0  0
 15 17  1  0  0  0  0
 15  2  2  0  0  0  0
 16 14  1  0  0  0  0
 17 16  2  0  0  0  0
 18 19  1  0  0  0  0
 20 18  2  0  0  0  0
 23 30  1  0  0  0  0
 23 28  1  0  0  0  0
 24 25  1  0  0  0  0
 24 32  1  0  0  0  0
 26 22  1  1  0  0  0
 26 25  1  0  0  0  0
 27 29  1  0  0  0  0
 28 27  1  6  0  0  0
 28 26  1  0  0  0  0
 29 24  2  0  0  0  0
 30 21  1  6  0  0  0
 30 31  1  0  0  0  0
 31 22  1  0  0  0  0
 32 34  1  0  0  0  0
 33 32  2  0  0  0  0
M  END
>  <MODEL>
8

>  <REMARK>
 VINA RESULT:      -7.5      3.711      9.317
  Name = 
  4 active torsions:
  status: ('A' for Active; 'I' for Inactive)
    1  A    between atoms: C_3  and  C_25
    2  A    between atoms: C_7  and  C_11
    3  A    between atoms: C_8  and  O_18
    4  A    between atoms: O_18  and  C_30
                            x       y       z     vdW  Elec       q    Type
                         _______ _______ _______ _____ _____    ______ ____

>  <TORSDO>
F 4

$$$$
=
 OpenBabel11052420333D

 34 38  0  0  1  0  0  0  0  0999 V2000
  192.3790  173.1580  143.5030 C   0  0  0  0  0  0  0  0  0  0  0  0
  191.3930  171.8820  140.1900 C   0  0  0  0  0  3  0  0  0  0  0  0
  192.4110  170.8700  141.9630 N   0  0  0  0  0  2  0  0  0  0  0  0
  193.0810  174.3760  145.5080 C   0  0  0  0  0  0  0  0  0  0  0  0
  192.3840  174.3160  144.3010 C   0  0  0  0  0  3  0  0  0  0  0  0
  193.8030  172.0830  145.1800 C   0  0  0  0  0  0  0  0  0  0  0  0
  194.5500  170.9750  145.6800 N   0  0  0  0  0  1  0  0  0  0  0  0
  193.7900  173.2570  145.9350 C   0  0  0  0  0  3  0  0  0  0  0  0
  193.0450  170.8510  143.1610 C   0  0  0  0  0  0  0  0  0  0  0  0
  193.0940  172.0150  143.9510 C   0  0  0  0  0  0  0  0  0  0  0  0
  193.6030  169.7820  143.5280 O   0  0  0  0  0  0  0  0  0  0  0  0
  190.9540  173.0190  139.3330 C   0  0  0  0  0  2  0  0  0  0  0  0
  189.7200  173.6750  139.8370 C   0  0  0  0  0  0  0  0  0  0  0  0
  189.6950  174.2300  141.0450 C   0  0  0  0  0  3  0  0  0  0  0  0
  191.7670  171.9590  141.4730 C   0  0  0  0  0  0  0  0  0  0  0  0
  190.7360  174.1040  142.0820 C   0  0  0  0  0  3  0  0  0  0  0  0
  191.6380  173.1180  142.2930 C   0  0  0  0  0  0  0  0  0  0  0  0
  188.5800  173.8530  138.9220 C   0  0  0  0  0  0  0  0  0  0  0  0
  188.2610  172.8570  138.0050 O   0  0  0  0  0  0  0  0  0  0  0  0
  187.8800  174.9010  138.9600 O   0  0  0  0  0  1  0  0  0  0  0  0
  193.0960  175.5310  146.3040 O   0  0  0  0  0  0  0  0  0  0  0  0
  189.8430  174.9700  147.0110 C   0  0  0  0  0  2  0  0  0  0  0  0
  191.2250  176.8340  145.3690 C   0  0  0  0  0  2  0  0  0  0  0  0
  187.0290  177.0970  145.4500 C   0  0  0  0  0  0  0  0  0  0  0  0
  187.6910  176.0550  146.3190 C   0  0  0  0  0  2  0  0  0  0  0  0
  189.1500  175.8140  145.9280 C   0  0  1  0  0  3  0  0  0  0  0  0
  189.2330  177.6700  144.4680 C   0  0  0  0  0  2  0  0  0  0  0  0
  189.8240  177.1000  145.6770 N   0  0  2  0  0  0  0  0  0  0  0  0
  187.7570  177.8830  144.6450 C   0  0  0  0  0  3  0  0  0  0  0  0
  191.9600  176.3410  146.6210 C   0  0  1  0  0  3  0  0  0  0  0  0
  191.0390  175.6770  147.6540 C   0  0  0  0  0  2  0  0  0  0  0  0
  185.5790  177.3170  145.5810 C   0  0  0  0  0  0  0  0  0  0  0  0
  184.9660  178.0630  144.7710 O   0  0  0  0  0  0  0  0  0  0  0  0
  184.8700  176.6960  146.6010 O   0  0  0  0  0  1  0  0  0  0  0  0
  1 10  2  0  0  0  0
  1  5  1  0  0  0  0
  2 15  2  0  0  0  0
  3  9  1  0  0  0  0
  4  8  1  0  0  0  0
  4 21  1  0  0  0  0
  5  4  2  0  0  0  0
  6  7  1  0  0  0  0
  6  8  2  0  0  0  0
  9 11  2  0  0  0  0
  9 10  1  0  0  0  0
 10  6  1  0  0  0  0
 12 13  1  0  0  0  0
 12  2  1  0  0  0  0
 13 14  2  0  0  0  0
 14 16  1  0  0  0  0
 15  3  1  0  0  0  0
 15 17  1  0  0  0  0
 16 17  2  0  0  0  0
 17  1  1  0  0  0  0
 18 20  1  0  0  0  0
 18 13  1  0  0  0  0
 19 18  2  0  0  0  0
 22 31  1  0  0  0  0
 23 28  1  0  0  0  0
 23 30  1  0  0  0  0
 24 32  1  0  0  0  0
 24 25  1  0  0  0  0
 26 25  1  1  0  0  0
 26 22  1  0  0  0  0
 27 29  1  0  0  0  0
 28 27  1  6  0  0  0
 28 26  1  0  0  0  0
 29 24  2  0  0  0  0
 30 21  1  6  0  0  0
 30 31  1  0  0  0  0
 32 34  1  0  0  0  0
 33 32  2  0  0  0  0
M  END
>  <MODEL>
9

>  <REMARK>
 VINA RESULT:      -7.3      2.681      7.761
  Name = 
  4 active torsions:
  status: ('A' for Active; 'I' for Inactive)
    1  A    between atoms: C_3  and  C_25
    2  A    between atoms: C_7  and  C_11
    3  A    between atoms: C_8  and  O_18
    4  A    between atoms: O_18  and  C_30
                            x       y       z     vdW  Elec       q    Type
                         _______ _______ _______ _____ _____    ______ ____

>  <TORSDO>
F 4

$$$$
