=
 OpenBabel11052418323D

 27 30  0  0  1  0  0  0  0  0999 V2000
  189.2500  177.1830  145.4290 C   0  0  2  0  0  3  0  0  0  0  0  0
  188.4700  177.3620  144.1160 C   0  0  1  0  0  3  0  0  0  0  0  0
  186.5480  177.5220  140.0840 S   0  0  0  0  0  0  0  0  0  0  0  0
  184.3430  178.5090  141.3640 C   0  0  0  0  0  1  0  0  0  0  0  0
  189.3780  177.8670  143.0020 C   0  0  0  0  0  2  0  0  0  0  0  0
  185.8170  177.1100  142.6110 O   0  0  0  0  0  0  0  0  0  0  0  0
  186.9480  176.3220  142.3820 C   0  0  1  0  0  3  0  0  0  0  0  0
  185.2470  177.2940  141.3430 C   0  0  2  0  0  3  0  0  0  0  0  0
  187.7750  176.9670  141.2780 C   0  0  2  0  0  3  0  0  0  0  0  0
  187.7400  176.0930  143.6690 C   0  0  0  0  0  2  0  0  0  0  0  0
  188.5370  178.1970  141.7770 C   0  0  0  0  0  2  0  0  0  0  0  0
  191.1350  175.5910  145.2120 N   0  0  0  0  0  0  0  0  0  0  0  0
  191.1840  175.1470  147.5770 C   0  0  1  0  0  3  0  0  0  0  0  0
  191.1900  174.2680  144.5940 C   0  0  0  0  0  1  0  0  0  0  0  0
  191.5350  175.8480  148.7290 O   0  0  0  0  0  1  0  0  0  0  0  0
  189.7670  175.7560  145.7030 C   0  0  1  0  0  3  0  0  0  0  0  0
  193.1760  174.9280  146.2550 O   0  0  0  0  0  1  0  0  0  0  0  0
  188.9560  174.3470  147.4570 O   0  0  0  0  0  1  0  0  0  0  0  0
  189.7570  175.4580  147.2030 C   0  0  1  0  0  3  0  0  0  0  0  0
  191.9860  175.6510  146.4050 C   0  0  1  0  0  3  0  0  0  0  0  0
  188.4960  177.7900  146.6220 C   0  0  0  0  0  2  0  0  0  0  0  0
  184.2420  178.0290  146.0770 C   0  0  0  0  0  3  0  0  0  0  0  0
  187.0160  177.8740  146.4200 C   0  0  0  0  0  0  0  0  0  0  0  0
  186.1960  176.8230  146.8470 C   0  0  0  0  0  3  0  0  0  0  0  0
  184.8110  176.9010  146.6750 C   0  0  0  0  0  3  0  0  0  0  0  0
  185.0600  179.0790  145.6480 C   0  0  0  0  0  3  0  0  0  0  0  0
  186.4450  179.0030  145.8190 C   0  0  0  0  0  3  0  0  0  0  0  0
  1 21  1  1  0  0  0
  2  1  1  1  0  0  0
  3  9  1  0  0  0  0
  3  8  1  0  0  0  0
  5  2  1  0  0  0  0
  7  6  1  0  0  0  0
  7 10  1  1  0  0  0
  8  4  1  1  0  0  0
  8  6  1  0  0  0  0
  9 11  1  1  0  0  0
  9  7  1  0  0  0  0
 10  2  1  0  0  0  0
 11  5  1  0  0  0  0
 12 16  1  0  0  0  0
 12 20  1  0  0  0  0
 13 15  1  1  0  0  0
 14 12  1  0  0  0  0
 16  1  1  1  0  0  0
 16 19  1  0  0  0  0
 19 18  1  6  0  0  0
 19 13  1  0  0  0  0
 20 17  1  6  0  0  0
 20 13  1  0  0  0  0
 22 25  1  0  0  0  0
 23 21  1  0  0  0  0
 23 24  1  0  0  0  0
 25 24  2  0  0  0  0
 26 27  1  0  0  0  0
 26 22  2  0  0  0  0
 27 23  2  0  0  0  0
M  END
>  <MODEL>
1

>  <REMARK>
 VINA RESULT:      -7.6      0.000      0.000
  Name = 
  4 active torsions:
  status: ('A' for Active; 'I' for Inactive)
    1  A    between atoms: C_1  and  C_2
    2  A    between atoms: C_1  and  C_15
    3  A    between atoms: C_1  and  C_18
    4  A    between atoms: C_9  and  C_15
                            x       y       z     vdW  Elec       q    Type
                         _______ _______ _______ _____ _____    ______ ____

>  <TORSDO>
F 4

$$$$
=
 OpenBabel11052418323D

 27 30  0  0  1  0  0  0  0  0999 V2000
  189.7760  175.0900  144.6230 C   0  0  2  0  0  3  0  0  0  0  0  0
  188.6350  175.9630  145.1740 C   0  0  1  0  0  3  0  0  0  0  0  0
  185.6800  178.6780  147.1410 S   0  0  0  0  0  0  0  0  0  0  0  0
  184.2540  178.5300  144.8130 C   0  0  0  0  0  1  0  0  0  0  0  0
  188.3440  175.6310  146.6310 C   0  0  0  0  0  2  0  0  0  0  0  0
  186.6130  178.2080  144.6920 O   0  0  0  0  0  0  0  0  0  0  0  0
  187.7210  178.2940  145.5390 C   0  0  1  0  0  3  0  0  0  0  0  0
  185.6110  178.9480  145.3380 C   0  0  2  0  0  3  0  0  0  0  0  0
  187.2900  177.8980  146.9450 C   0  0  2  0  0  3  0  0  0  0  0  0
  188.8920  177.4630  145.0140 C   0  0  0  0  0  2  0  0  0  0  0  0
  187.1020  176.3850  147.0820 C   0  0  0  0  0  2  0  0  0  0  0  0
  189.8830  174.7180  142.1770 N   0  0  0  0  0  0  0  0  0  0  0  0
  190.8920  172.5470  142.4350 C   0  0  1  0  0  3  0  0  0  0  0  0
  188.8140  174.5060  141.2030 C   0  0  0  0  0  1  0  0  0  0  0  0
  192.1260  172.0510  142.8520 O   0  0  0  0  0  1  0  0  0  0  0  0
  189.3970  174.1710  143.4440 C   0  0  1  0  0  3  0  0  0  0  0  0
  191.2940  173.8510  140.4590 O   0  0  0  0  0  1  0  0  0  0  0  0
  188.9890  171.8230  143.6470 O   0  0  0  0  0  1  0  0  0  0  0  0
  190.0020  172.7790  143.6290 C   0  0  1  0  0  3  0  0  0  0  0  0
  191.0680  173.9200  141.8380 C   0  0  1  0  0  3  0  0  0  0  0  0
  190.5170  174.3520  145.7470 C   0  0  0  0  0  2  0  0  0  0  0  0
  194.5420  175.7370  146.3290 C   0  0  0  0  0  3  0  0  0  0  0  0
  191.9170  174.8340  145.9630 C   0  0  0  0  0  0  0  0  0  0  0  0
  192.9960  174.0530  145.5320 C   0  0  0  0  0  3  0  0  0  0  0  0
  194.3060  174.5040  145.7160 C   0  0  0  0  0  3  0  0  0  0  0  0
  193.4660  176.5200  146.7610 C   0  0  0  0  0  3  0  0  0  0  0  0
  192.1560  176.0700  146.5780 C   0  0  0  0  0  3  0  0  0  0  0  0
  1 21  1  1  0  0  0
  2  1  1  1  0  0  0
  2  5  1  0  0  0  0
  5 11  1  0  0  0  0
  6  8  1  0  0  0  0
  6  7  1  0  0  0  0
  7 10  1  6  0  0  0
  7  9  1  0  0  0  0
  8  4  1  6  0  0  0
  8  3  1  0  0  0  0
  9 11  1  6  0  0  0
  9  3  1  0  0  0  0
 10  2  1  0  0  0  0
 12 16  1  0  0  0  0
 13 15  1  1  0  0  0
 13 19  1  0  0  0  0
 14 12  1  0  0  0  0
 16 19  1  0  0  0  0
 16  1  1  1  0  0  0
 19 18  1  6  0  0  0
 20 17  1  6  0  0  0
 20 12  1  0  0  0  0
 20 13  1  0  0  0  0
 21 23  1  0  0  0  0
 22 26  1  0  0  0  0
 23 27  1  0  0  0  0
 24 25  1  0  0  0  0
 24 23  2  0  0  0  0
 25 22  2  0  0  0  0
 27 26  2  0  0  0  0
M  END
>  <MODEL>
2

>  <REMARK>
 VINA RESULT:      -7.2      2.981      5.643
  Name = 
  4 active torsions:
  status: ('A' for Active; 'I' for Inactive)
    1  A    between atoms: C_1  and  C_2
    2  A    between atoms: C_1  and  C_15
    3  A    between atoms: C_1  and  C_18
    4  A    between atoms: C_9  and  C_15
                            x       y       z     vdW  Elec       q    Type
                         _______ _______ _______ _____ _____    ______ ____

>  <TORSDO>
F 4

$$$$
=
 OpenBabel11052418323D

 27 30  0  0  1  0  0  0  0  0999 V2000
  189.4910  175.3860  142.0790 C   0  0  2  0  0  3  0  0  0  0  0  0
  188.3360  176.2870  142.5500 C   0  0  1  0  0  3  0  0  0  0  0  0
  184.7400  178.7860  143.4420 S   0  0  0  0  0  0  0  0  0  0  0  0
  185.4600  178.5760  146.0710 C   0  0  0  0  0  1  0  0  0  0  0  0
  188.1180  177.4470  141.5870 C   0  0  0  0  0  2  0  0  0  0  0  0
  186.1260  176.8260  144.5950 O   0  0  0  0  0  0  0  0  0  0  0  0
  185.9150  176.4470  143.2670 C   0  0  1  0  0  3  0  0  0  0  0  0
  185.0820  177.7180  144.8820 C   0  0  2  0  0  3  0  0  0  0  0  0
  185.7540  177.7040  142.4220 C   0  0  2  0  0  3  0  0  0  0  0  0
  187.0260  175.5250  142.7650 C   0  0  0  0  0  2  0  0  0  0  0  0
  187.0930  178.4050  142.1770 C   0  0  0  0  0  2  0  0  0  0  0  0
  189.4070  173.9540  140.0610 N   0  0  0  0  0  0  0  0  0  0  0  0
  190.5750  172.1520  141.1490 C   0  0  1  0  0  3  0  0  0  0  0  0
  188.2720  173.3060  139.4060 C   0  0  0  0  0  1  0  0  0  0  0  0
  191.8710  171.9210  141.6080 O   0  0  0  0  0  1  0  0  0  0  0  0
  189.0710  174.0270  141.4830 C   0  0  1  0  0  3  0  0  0  0  0  0
  190.7150  172.4330  138.7690 O   0  0  0  0  0  1  0  0  0  0  0  0
  188.8380  172.0160  142.7560 O   0  0  0  0  0  1  0  0  0  0  0  0
  189.7800  172.8800  142.2030 C   0  0  1  0  0  3  0  0  0  0  0  0
  190.6070  173.1120  139.9880 C   0  0  1  0  0  3  0  0  0  0  0  0
  190.5840  175.2610  143.1520 C   0  0  0  0  0  2  0  0  0  0  0  0
  189.2580  176.4200  147.0700 C   0  0  0  0  0  3  0  0  0  0  0  0
  190.1310  175.6570  144.5220 C   0  0  0  0  0  0  0  0  0  0  0  0
  190.2420  176.9910  144.9320 C   0  0  0  0  0  3  0  0  0  0  0  0
  189.8060  177.3710  146.2040 C   0  0  0  0  0  3  0  0  0  0  0  0
  189.1480  175.0870  146.6630 C   0  0  0  0  0  3  0  0  0  0  0  0
  189.5830  174.7060  145.3910 C   0  0  0  0  0  3  0  0  0  0  0  0
  1 21  1  1  0  0  0
  2  1  1  6  0  0  0
  2 10  1  0  0  0  0
  3  8  1  0  0  0  0
  5 11  1  0  0  0  0
  5  2  1  0  0  0  0
  6  8  1  0  0  0  0
  7 10  1  6  0  0  0
  7  6  1  0  0  0  0
  8  4  1  1  0  0  0
  9 11  1  1  0  0  0
  9  7  1  0  0  0  0
  9  3  1  0  0  0  0
 12 16  1  0  0  0  0
 13 15  1  1  0  0  0
 13 19  1  0  0  0  0
 14 12  1  0  0  0  0
 16  1  1  1  0  0  0
 16 19  1  0  0  0  0
 19 18  1  6  0  0  0
 20 17  1  6  0  0  0
 20 12  1  0  0  0  0
 20 13  1  0  0  0  0
 21 23  1  0  0  0  0
 23 24  2  0  0  0  0
 23 27  1  0  0  0  0
 24 25  1  0  0  0  0
 25 22  2  0  0  0  0
 26 22  1  0  0  0  0
 27 26  2  0  0  0  0
M  END
>  <MODEL>
3

>  <REMARK>
 VINA RESULT:      -7.0      3.207      4.911
  Name = 
  4 active torsions:
  status: ('A' for Active; 'I' for Inactive)
    1  A    between atoms: C_1  and  C_2
    2  A    between atoms: C_1  and  C_15
    3  A    between atoms: C_1  and  C_18
    4  A    between atoms: C_9  and  C_15
                            x       y       z     vdW  Elec       q    Type
                         _______ _______ _______ _____ _____    ______ ____

>  <TORSDO>
F 4

$$$$
=
 OpenBabel11052418323D

 27 30  0  0  1  0  0  0  0  0999 V2000
  190.4040  174.4660  144.0280 C   0  0  2  0  0  3  0  0  0  0  0  0
  189.3580  175.3100  144.7750 C   0  0  1  0  0  3  0  0  0  0  0  0
  186.7310  177.9480  147.2480 S   0  0  0  0  0  0  0  0  0  0  0  0
  184.9330  177.7920  145.1940 C   0  0  0  0  0  1  0  0  0  0  0  0
  189.3260  174.9600  146.2560 C   0  0  0  0  0  2  0  0  0  0  0  0
  187.2430  177.5190  144.6700 O   0  0  0  0  0  0  0  0  0  0  0  0
  188.4770  177.6190  145.3180 C   0  0  1  0  0  3  0  0  0  0  0  0
  186.3520  178.2330  145.4860 C   0  0  2  0  0  3  0  0  0  0  0  0
  188.2990  177.2030  146.7710 C   0  0  2  0  0  3  0  0  0  0  0  0
  189.5570  176.8170  144.5920 C   0  0  0  0  0  2  0  0  0  0  0  0
  188.1640  175.6850  146.9210 C   0  0  0  0  0  2  0  0  0  0  0  0
  188.9190  173.9560  142.1130 N   0  0  0  0  0  0  0  0  0  0  0  0
  190.6860  172.8880  140.8760 C   0  0  1  0  0  3  0  0  0  0  0  0
  187.7930  173.0300  142.0080 C   0  0  0  0  0  1  0  0  0  0  0  0
  191.8540  173.2920  140.2310 O   0  0  0  0  0  1  0  0  0  0  0  0
  189.8350  173.3770  143.0960 C   0  0  1  0  0  3  0  0  0  0  0  0
  188.8540  173.9310  139.7280 O   0  0  0  0  0  1  0  0  0  0  0  0
  190.9300  171.3040  142.6230 O   0  0  0  0  0  1  0  0  0  0  0  0
  190.9610  172.6690  142.3430 C   0  0  1  0  0  3  0  0  0  0  0  0
  189.6770  174.0070  140.8580 C   0  0  1  0  0  3  0  0  0  0  0  0
  191.4890  173.9370  144.9790 C   0  0  0  0  0  2  0  0  0  0  0  0
  194.8130  176.6220  145.4190 C   0  0  0  0  0  3  0  0  0  0  0  0
  192.6530  174.8630  145.1390 C   0  0  0  0  0  0  0  0  0  0  0  0
  193.3410  175.3160  144.0070 C   0  0  0  0  0  3  0  0  0  0  0  0
  194.4190  176.1940  144.1480 C   0  0  0  0  0  3  0  0  0  0  0  0
  194.1280  176.1690  146.5510 C   0  0  0  0  0  3  0  0  0  0  0  0
  193.0490  175.2920  146.4120 C   0  0  0  0  0  3  0  0  0  0  0  0
  1 21  1  1  0  0  0
  2  1  1  6  0  0  0
  2  5  1  0  0  0  0
  5 11  1  0  0  0  0
  6  7  1  0  0  0  0
  6  8  1  0  0  0  0
  7 10  1  6  0  0  0
  7  9  1  0  0  0  0
  8  4  1  1  0  0  0
  8  3  1  0  0  0  0
  9 11  1  6  0  0  0
  9  3  1  0  0  0  0
 10  2  1  0  0  0  0
 12 16  1  0  0  0  0
 13 15  1  6  0  0  0
 13 19  1  0  0  0  0
 14 12  1  0  0  0  0
 16  1  1  1  0  0  0
 19 18  1  6  0  0  0
 19 16  1  0  0  0  0
 20 17  1  6  0  0  0
 20 13  1  0  0  0  0
 20 12  1  0  0  0  0
 21 23  1  0  0  0  0
 22 26  1  0  0  0  0
 23 27  1  0  0  0  0
 24 25  1  0  0  0  0
 24 23  2  0  0  0  0
 25 22  2  0  0  0  0
 27 26  2  0  0  0  0
M  END
>  <MODEL>
4

>  <REMARK>
 VINA RESULT:      -6.9      3.187      6.238
  Name = 
  4 active torsions:
  status: ('A' for Active; 'I' for Inactive)
    1  A    between atoms: C_1  and  C_2
    2  A    between atoms: C_1  and  C_15
    3  A    between atoms: C_1  and  C_18
    4  A    between atoms: C_9  and  C_15
                            x       y       z     vdW  Elec       q    Type
                         _______ _______ _______ _____ _____    ______ ____

>  <TORSDO>
F 4

$$$$
=
 OpenBabel11052418323D

 27 30  0  0  1  0  0  0  0  0999 V2000
  188.9460  175.0450  143.6720 C   0  0  2  0  0  3  0  0  0  0  0  0
  187.9670  176.2050  143.9250 C   0  0  1  0  0  3  0  0  0  0  0  0
  185.1320  179.6550  144.1220 S   0  0  0  0  0  0  0  0  0  0  0  0
  184.3710  178.6680  146.5550 C   0  0  0  0  0  1  0  0  0  0  0  0
  188.5460  177.5270  143.4380 C   0  0  0  0  0  2  0  0  0  0  0  0
  185.2380  177.1280  144.9540 O   0  0  0  0  0  0  0  0  0  0  0  0
  185.6330  177.1300  143.6140 C   0  0  1  0  0  3  0  0  0  0  0  0
  184.4410  178.2740  145.0940 C   0  0  2  0  0  3  0  0  0  0  0  0
  186.2230  178.4940  143.2840 C   0  0  2  0  0  3  0  0  0  0  0  0
  186.5850  175.9740  143.3090 C   0  0  0  0  0  2  0  0  0  0  0  0
  187.6300  178.6660  143.8640 C   0  0  0  0  0  2  0  0  0  0  0  0
  191.2080  175.0570  144.6790 N   0  0  0  0  0  0  0  0  0  0  0  0
  190.4340  176.1340  146.6880 C   0  0  1  0  0  3  0  0  0  0  0  0
  192.0370  173.9520  145.1570 C   0  0  0  0  0  1  0  0  0  0  0  0
  189.9610  177.3970  147.0380 O   0  0  0  0  0  1  0  0  0  0  0  0
  189.8190  174.6400  144.8770 C   0  0  1  0  0  3  0  0  0  0  0  0
  192.7020  176.4150  145.9500 O   0  0  0  0  0  1  0  0  0  0  0  0
  188.9820  174.3050  147.0920 O   0  0  0  0  0  1  0  0  0  0  0  0
  189.3020  175.2900  146.1600 C   0  0  1  0  0  3  0  0  0  0  0  0
  191.3810  176.2460  145.5210 C   0  0  1  0  0  3  0  0  0  0  0  0
  189.7570  175.2600  142.3850 C   0  0  0  0  0  2  0  0  0  0  0  0
  189.0730  172.2870  139.3600 C   0  0  0  0  0  3  0  0  0  0  0  0
  189.5150  174.2160  141.3400 C   0  0  0  0  0  0  0  0  0  0  0  0
  188.5660  174.4450  140.3370 C   0  0  0  0  0  3  0  0  0  0  0  0
  188.3460  173.4820  139.3480 C   0  0  0  0  0  3  0  0  0  0  0  0
  190.0200  172.0560  140.3620 C   0  0  0  0  0  3  0  0  0  0  0  0
  190.2410  173.0190  141.3510 C   0  0  0  0  0  3  0  0  0  0  0  0
  1 21  1  6  0  0  0
  2  1  1  6  0  0  0
  3  8  1  0  0  0  0
  5 11  1  0  0  0  0
  5  2  1  0  0  0  0
  6  8  1  0  0  0  0
  7 10  1  1  0  0  0
  7  6  1  0  0  0  0
  8  4  1  1  0  0  0
  9  7  1  0  0  0  0
  9 11  1  1  0  0  0
  9  3  1  0  0  0  0
 10  2  1  0  0  0  0
 12 16  1  0  0  0  0
 12 14  1  0  0  0  0
 12 20  1  0  0  0  0
 13 15  1  6  0  0  0
 16  1  1  6  0  0  0
 16 19  1  0  0  0  0
 19 13  1  0  0  0  0
 19 18  1  1  0  0  0
 20 17  1  1  0  0  0
 20 13  1  0  0  0  0
 22 26  1  0  0  0  0
 23 27  1  0  0  0  0
 23 21  1  0  0  0  0
 24 23  2  0  0  0  0
 25 22  2  0  0  0  0
 25 24  1  0  0  0  0
 26 27  2  0  0  0  0
M  END
>  <MODEL>
5

>  <REMARK>
 VINA RESULT:      -6.8      2.509      4.701
  Name = 
  4 active torsions:
  status: ('A' for Active; 'I' for Inactive)
    1  A    between atoms: C_1  and  C_2
    2  A    between atoms: C_1  and  C_15
    3  A    between atoms: C_1  and  C_18
    4  A    between atoms: C_9  and  C_15
                            x       y       z     vdW  Elec       q    Type
                         _______ _______ _______ _____ _____    ______ ____

>  <TORSDO>
F 4

$$$$
=
 OpenBabel11052418323D

 27 30  0  0  1  0  0  0  0  0999 V2000
  189.0950  176.3300  144.6440 C   0  0  2  0  0  3  0  0  0  0  0  0
  189.4890  175.1990  143.6790 C   0  0  1  0  0  3  0  0  0  0  0  0
  190.1260  171.7280  140.9360 S   0  0  0  0  0  0  0  0  0  0  0  0
  192.2310  173.1420  139.9140 C   0  0  0  0  0  1  0  0  0  0  0  0
  189.3340  173.8350  144.3390 C   0  0  0  0  0  2  0  0  0  0  0  0
  190.4360  174.3720  140.8890 O   0  0  0  0  0  0  0  0  0  0  0  0
  189.1650  174.1210  141.4120 C   0  0  1  0  0  3  0  0  0  0  0  0
  190.7330  173.2400  140.1150 C   0  0  2  0  0  3  0  0  0  0  0  0
  189.1720  172.7490  142.0710 C   0  0  2  0  0  3  0  0  0  0  0  0
  188.7180  175.2380  142.3570 C   0  0  0  0  0  2  0  0  0  0  0  0
  189.8980  172.7620  143.4180 C   0  0  0  0  0  2  0  0  0  0  0  0
  190.0490  176.4450  146.9260 N   0  0  0  0  0  0  0  0  0  0  0  0
  192.1750  175.5730  146.2070 C   0  0  1  0  0  3  0  0  0  0  0  0
  190.3930  177.6020  147.7510 C   0  0  0  0  0  1  0  0  0  0  0  0
  192.6630  174.3480  145.7560 O   0  0  0  0  0  1  0  0  0  0  0  0
  190.2330  176.8660  145.5370 C   0  0  1  0  0  3  0  0  0  0  0  0
  191.4210  175.2400  148.4630 O   0  0  0  0  0  1  0  0  0  0  0  0
  192.4190  177.4200  144.7410 O   0  0  0  0  0  1  0  0  0  0  0  0
  191.5870  176.3470  145.0540 C   0  0  1  0  0  3  0  0  0  0  0  0
  191.0040  175.3510  147.1300 C   0  0  1  0  0  3  0  0  0  0  0  0
  187.8230  175.9840  145.4320 C   0  0  0  0  0  2  0  0  0  0  0  0
  184.8040  179.0340  145.2460 C   0  0  0  0  0  3  0  0  0  0  0  0
  186.7740  177.0500  145.3790 C   0  0  0  0  0  0  0  0  0  0  0  0
  186.9080  178.1130  144.4790 C   0  0  0  0  0  3  0  0  0  0  0  0
  185.9240  179.1030  144.4120 C   0  0  0  0  0  3  0  0  0  0  0  0
  184.6690  177.9740  146.1480 C   0  0  0  0  0  3  0  0  0  0  0  0
  185.6520  176.9830  146.2140 C   0  0  0  0  0  3  0  0  0  0  0  0
  1 21  1  1  0  0  0
  2  5  1  0  0  0  0
  2  1  1  1  0  0  0
  3  9  1  0  0  0  0
  6  7  1  0  0  0  0
  7  9  1  0  0  0  0
  7 10  1  1  0  0  0
  8  4  1  1  0  0  0
  8  6  1  0  0  0  0
  8  3  1  0  0  0  0
  9 11  1  1  0  0  0
 10  2  1  0  0  0  0
 11  5  1  0  0  0  0
 12 20  1  0  0  0  0
 12 14  1  0  0  0  0
 13 15  1  6  0  0  0
 13 20  1  0  0  0  0
 16  1  1  6  0  0  0
 16 12  1  0  0  0  0
 19 18  1  1  0  0  0
 19 16  1  0  0  0  0
 19 13  1  0  0  0  0
 20 17  1  1  0  0  0
 22 26  1  0  0  0  0
 23 21  1  0  0  0  0
 23 27  1  0  0  0  0
 24 23  2  0  0  0  0
 25 24  1  0  0  0  0
 25 22  2  0  0  0  0
 26 27  2  0  0  0  0
M  END
>  <MODEL>
6

>  <REMARK>
 VINA RESULT:      -6.7      2.722      4.033
  Name = 
  4 active torsions:
  status: ('A' for Active; 'I' for Inactive)
    1  A    between atoms: C_1  and  C_2
    2  A    between atoms: C_1  and  C_15
    3  A    between atoms: C_1  and  C_18
    4  A    between atoms: C_9  and  C_15
                            x       y       z     vdW  Elec       q    Type
                         _______ _______ _______ _____ _____    ______ ____

>  <TORSDO>
F 4

$$$$
=
 OpenBabel11052418323D

 27 30  0  0  1  0  0  0  0  0999 V2000
  190.9710  174.5020  144.3150 C   0  0  2  0  0  3  0  0  0  0  0  0
  189.7870  175.3230  144.8510 C   0  0  1  0  0  3  0  0  0  0  0  0
  186.6890  177.9010  146.7840 S   0  0  0  0  0  0  0  0  0  0  0  0
  185.3170  177.7230  144.4260 C   0  0  0  0  0  1  0  0  0  0  0  0
  189.4800  174.9650  146.2990 C   0  0  0  0  0  2  0  0  0  0  0  0
  187.6890  177.4940  144.3500 O   0  0  0  0  0  0  0  0  0  0  0  0
  188.7760  177.6130  145.2210 C   0  0  1  0  0  3  0  0  0  0  0  0
  186.6470  178.1880  144.9830 C   0  0  2  0  0  3  0  0  0  0  0  0
  188.3320  177.1870  146.6130 C   0  0  2  0  0  3  0  0  0  0  0  0
  189.9890  176.8350  144.7120 C   0  0  0  0  0  2  0  0  0  0  0  0
  188.2000  175.6660  146.7320 C   0  0  0  0  0  2  0  0  0  0  0  0
  189.4500  172.8640  143.2500 N   0  0  0  0  0  0  0  0  0  0  0  0
  189.1050  174.2630  141.3220 C   0  0  1  0  0  3  0  0  0  0  0  0
  189.7230  171.5410  142.6920 C   0  0  0  0  0  1  0  0  0  0  0  0
  188.4600  175.4690  141.0520 O   0  0  0  0  0  1  0  0  0  0  0  0
  190.6730  173.6450  143.0680 C   0  0  1  0  0  3  0  0  0  0  0  0
  187.4160  172.7030  142.0130 O   0  0  0  0  0  1  0  0  0  0  0  0
  191.4290  174.1750  140.8610 O   0  0  0  0  0  1  0  0  0  0  0  0
  190.4980  174.5310  141.8350 C   0  0  1  0  0  3  0  0  0  0  0  0
  188.4230  173.5620  142.4680 C   0  0  1  0  0  3  0  0  0  0  0  0
  191.6660  173.7120  145.4360 C   0  0  0  0  0  2  0  0  0  0  0  0
  195.8640  174.5400  145.8150 C   0  0  0  0  0  3  0  0  0  0  0  0
  193.1290  173.9990  145.5560 C   0  0  0  0  0  0  0  0  0  0  0  0
  193.5580  175.2610  145.9820 C   0  0  0  0  0  3  0  0  0  0  0  0
  194.9230  175.5310  146.1120 C   0  0  0  0  0  3  0  0  0  0  0  0
  195.4380  173.2790  145.3880 C   0  0  0  0  0  3  0  0  0  0  0  0
  194.0730  173.0080  145.2580 C   0  0  0  0  0  3  0  0  0  0  0  0
  1 21  1  1  0  0  0
  2  1  1  1  0  0  0
  2  5  1  0  0  0  0
  5 11  1  0  0  0  0
  6  8  1  0  0  0  0
  6  7  1  0  0  0  0
  7 10  1  6  0  0  0
  7  9  1  0  0  0  0
  8  4  1  6  0  0  0
  8  3  1  0  0  0  0
  9 11  1  6  0  0  0
  9  3  1  0  0  0  0
 10  2  1  0  0  0  0
 13 15  1  1  0  0  0
 13 19  1  0  0  0  0
 13 20  1  0  0  0  0
 14 12  1  0  0  0  0
 16 12  1  0  0  0  0
 16  1  1  1  0  0  0
 19 18  1  6  0  0  0
 19 16  1  0  0  0  0
 20 17  1  6  0  0  0
 20 12  1  0  0  0  0
 21 23  1  0  0  0  0
 22 25  1  0  0  0  0
 23 24  1  0  0  0  0
 24 25  2  0  0  0  0
 26 22  2  0  0  0  0
 27 26  1  0  0  0  0
 27 23  2  0  0  0  0
M  END
>  <MODEL>
7

>  <REMARK>
 VINA RESULT:      -6.7      3.049      6.505
  Name = 
  4 active torsions:
  status: ('A' for Active; 'I' for Inactive)
    1  A    between atoms: C_1  and  C_2
    2  A    between atoms: C_1  and  C_15
    3  A    between atoms: C_1  and  C_18
    4  A    between atoms: C_9  and  C_15
                            x       y       z     vdW  Elec       q    Type
                         _______ _______ _______ _____ _____    ______ ____

>  <TORSDO>
F 4

$$$$
=
 OpenBabel11052418323D

 27 30  0  0  1  0  0  0  0  0999 V2000
  188.0480  175.5990  142.9400 C   0  0  2  0  0  3  0  0  0  0  0  0
  189.4150  175.6700  143.6400 C   0  0  1  0  0  3  0  0  0  0  0  0
  193.1940  176.3100  145.9390 S   0  0  0  0  0  0  0  0  0  0  0  0
  193.7660  173.6920  145.3950 C   0  0  0  0  0  1  0  0  0  0  0  0
  190.1070  176.9980  143.3620 C   0  0  0  0  0  2  0  0  0  0  0  0
  191.4710  174.3350  145.4720 O   0  0  0  0  0  0  0  0  0  0  0  0
  190.7160  175.4630  145.8010 C   0  0  1  0  0  3  0  0  0  0  0  0
  192.7200  174.5530  146.0720 C   0  0  2  0  0  3  0  0  0  0  0  0
  191.5130  176.7070  145.4330 C   0  0  2  0  0  3  0  0  0  0  0  0
  189.3340  175.4220  145.1490 C   0  0  0  0  0  2  0  0  0  0  0  0
  191.5210  176.9570  143.9230 C   0  0  0  0  0  2  0  0  0  0  0  0
  188.8940  174.7830  140.7600 N   0  0  0  0  0  0  0  0  0  0  0  0
  189.3610  172.5880  141.6320 C   0  0  1  0  0  3  0  0  0  0  0  0
  188.1890  174.5310  139.5050 C   0  0  0  0  0  1  0  0  0  0  0  0
  190.2780  172.0290  142.5200 O   0  0  0  0  0  1  0  0  0  0  0  0
  187.9260  174.5360  141.8290 C   0  0  1  0  0  3  0  0  0  0  0  0
  190.6200  173.4580  139.7810 O   0  0  0  0  0  1  0  0  0  0  0  0
  187.0670  172.3300  142.1680 O   0  0  0  0  0  1  0  0  0  0  0  0
  188.1800  173.1370  142.3920 C   0  0  1  0  0  3  0  0  0  0  0  0
  189.9640  173.8010  140.9690 C   0  0  1  0  0  3  0  0  0  0  0  0
  187.5660  176.9890  142.4970 C   0  0  0  0  0  2  0  0  0  0  0  0
  184.8390  178.8510  145.2460 C   0  0  0  0  0  3  0  0  0  0  0  0
  186.6240  177.6350  143.4640 C   0  0  0  0  0  0  0  0  0  0  0  0
  186.2910  178.9860  143.3130 C   0  0  0  0  0  3  0  0  0  0  0  0
  185.4000  179.5930  144.2020 C   0  0  0  0  0  3  0  0  0  0  0  0
  185.1720  177.5010  145.4000 C   0  0  0  0  0  3  0  0  0  0  0  0
  186.0620  176.8940  144.5110 C   0  0  0  0  0  3  0  0  0  0  0  0
  1 21  1  6  0  0  0
  2  1  1  1  0  0  0
  2 10  1  0  0  0  0
  3  8  1  0  0  0  0
  5  2  1  0  0  0  0
  5 11  1  0  0  0  0
  6  7  1  0  0  0  0
  6  8  1  0  0  0  0
  7 10  1  6  0  0  0
  8  4  1  6  0  0  0
  9 11  1  6  0  0  0
  9  7  1  0  0  0  0
  9  3  1  0  0  0  0
 12 20  1  0  0  0  0
 12 16  1  0  0  0  0
 13 19  1  0  0  0  0
 13 15  1  1  0  0  0
 14 12  1  0  0  0  0
 16 19  1  0  0  0  0
 16  1  1  1  0  0  0
 19 18  1  6  0  0  0
 20 17  1  6  0  0  0
 20 13  1  0  0  0  0
 21 23  1  0  0  0  0
 22 26  1  0  0  0  0
 23 27  1  0  0  0  0
 24 23  2  0  0  0  0
 24 25  1  0  0  0  0
 25 22  2  0  0  0  0
 27 26  2  0  0  0  0
M  END
>  <MODEL>
8

>  <REMARK>
 VINA RESULT:      -6.7      3.370      5.574
  Name = 
  4 active torsions:
  status: ('A' for Active; 'I' for Inactive)
    1  A    between atoms: C_1  and  C_2
    2  A    between atoms: C_1  and  C_15
    3  A    between atoms: C_1  and  C_18
    4  A    between atoms: C_9  and  C_15
                            x       y       z     vdW  Elec       q    Type
                         _______ _______ _______ _____ _____    ______ ____

>  <TORSDO>
F 4

$$$$
=
 OpenBabel11052418323D

 27 30  0  0  1  0  0  0  0  0999 V2000
  189.0390  175.8420  143.3270 C   0  0  2  0  0  3  0  0  0  0  0  0
  189.2830  175.0580  142.0270 C   0  0  1  0  0  3  0  0  0  0  0  0
  190.0490  172.3380  138.5640 S   0  0  0  0  0  0  0  0  0  0  0  0
  188.8290  174.2390  137.0230 C   0  0  0  0  0  1  0  0  0  0  0  0
  190.6570  174.4010  142.0310 C   0  0  0  0  0  2  0  0  0  0  0  0
  188.2110  174.1100  139.3220 O   0  0  0  0  0  0  0  0  0  0  0  0
  188.4570  173.2840  140.4220 C   0  0  1  0  0  3  0  0  0  0  0  0
  188.5620  173.3340  138.2070 C   0  0  2  0  0  3  0  0  0  0  0  0
  189.8720  172.7340  140.3110 C   0  0  2  0  0  3  0  0  0  0  0  0
  188.1990  174.0150  141.7390 C   0  0  0  0  0  2  0  0  0  0  0  0
  190.9260  173.7870  140.6640 C   0  0  0  0  0  2  0  0  0  0  0  0
  190.4350  176.8070  145.1320 N   0  0  0  0  0  0  0  0  0  0  0  0
  189.4400  175.3980  146.8120 C   0  0  1  0  0  3  0  0  0  0  0  0
  191.8720  176.7010  145.3760 C   0  0  0  0  0  1  0  0  0  0  0  0
  188.1980  175.2950  147.4370 O   0  0  0  0  0  1  0  0  0  0  0  0
  190.0410  175.5640  144.4670 C   0  0  1  0  0  3  0  0  0  0  0  0
  190.3440  177.5440  147.3990 O   0  0  0  0  0  1  0  0  0  0  0  0
  190.2010  173.4850  145.6380 O   0  0  0  0  0  1  0  0  0  0  0  0
  189.4240  174.6350  145.5120 C   0  0  1  0  0  3  0  0  0  0  0  0
  189.6860  176.8250  146.3940 C   0  0  1  0  0  3  0  0  0  0  0  0
  187.5740  175.7490  143.7780 C   0  0  0  0  0  2  0  0  0  0  0  0
  185.5640  179.5410  143.9850 C   0  0  0  0  0  3  0  0  0  0  0  0
  186.8830  177.0750  143.8580 C   0  0  0  0  0  0  0  0  0  0  0  0
  186.6580  177.8120  142.6890 C   0  0  0  0  0  3  0  0  0  0  0  0
  186.0000  179.0430  142.7530 C   0  0  0  0  0  3  0  0  0  0  0  0
  185.7900  178.8070  145.1540 C   0  0  0  0  0  3  0  0  0  0  0  0
  186.4480  177.5760  145.0910 C   0  0  0  0  0  3  0  0  0  0  0  0
  1 21  1  1  0  0  0
  2  5  1  0  0  0  0
  2  1  1  1  0  0  0
  3  9  1  0  0  0  0
  6  7  1  0  0  0  0
  7 10  1  1  0  0  0
  8  4  1  6  0  0  0
  8  3  1  0  0  0  0
  8  6  1  0  0  0  0
  9  7  1  0  0  0  0
  9 11  1  6  0  0  0
 10  2  1  0  0  0  0
 11  5  1  0  0  0  0
 12 14  1  0  0  0  0
 12 20  1  0  0  0  0
 13 15  1  6  0  0  0
 16  1  1  6  0  0  0
 16 12  1  0  0  0  0
 16 19  1  0  0  0  0
 19 18  1  1  0  0  0
 19 13  1  0  0  0  0
 20 13  1  0  0  0  0
 20 17  1  1  0  0  0
 21 23  1  0  0  0  0
 22 26  1  0  0  0  0
 23 27  1  0  0  0  0
 24 25  1  0  0  0  0
 24 23  2  0  0  0  0
 25 22  2  0  0  0  0
 27 26  2  0  0  0  0
M  END
>  <MODEL>
9

>  <REMARK>
 VINA RESULT:      -6.7      2.915      3.833
  Name = 
  4 active torsions:
  status: ('A' for Active; 'I' for Inactive)
    1  A    between atoms: C_1  and  C_2
    2  A    between atoms: C_1  and  C_15
    3  A    between atoms: C_1  and  C_18
    4  A    between atoms: C_9  and  C_15
                            x       y       z     vdW  Elec       q    Type
                         _______ _______ _______ _____ _____    ______ ____

>  <TORSDO>
F 4

$$$$
