=
 OpenBabel11052421283D

 32 38  0  0  1  0  0  0  0  0999 V2000
  194.6160  175.3540  144.8240 C   0  0  0  0  0  0  0  0  0  0  0  0
  192.0080  174.8140  147.0340 C   0  0  0  0  0  2  0  0  0  0  0  0
  187.9340  176.8030  144.5030 C   0  0  0  0  0  0  0  0  0  0  0  0
  185.0250  178.4060  148.0320 N   0  0  0  0  0  0  0  0  0  0  0  0
  184.0920  178.7820  147.1170 C   0  0  0  0  0  3  0  0  0  0  0  0
  186.8630  177.0850  142.1740 C   0  0  0  0  0  0  0  0  0  0  0  0
  187.6790  176.5320  141.1560 C   0  0  0  0  0  0  0  0  0  0  0  0
  189.8700  175.3560  145.1040 C   0  0  2  0  0  3  0  0  0  0  0  0
  188.7240  176.6310  146.8720 C   0  0  0  0  0  3  0  0  0  0  0  0
  192.8100  176.6580  145.4810 C   0  0  0  0  0  3  0  0  0  0  0  0
  185.2210  177.7920  140.5150 C   0  0  0  0  0  0  0  0  0  0  0  0
  190.8490  175.6640  147.5490 C   0  0  0  0  0  2  0  0  0  0  0  0
  186.1970  177.8270  147.6600 C   0  0  0  0  0  3  0  0  0  0  0  0
  186.4760  177.5980  146.3050 C   0  0  0  0  0  0  0  0  0  0  0  0
  187.6850  177.0100  145.8840 C   0  0  0  0  0  0  0  0  0  0  0  0
  185.7870  177.7560  144.0250 N   0  0  0  0  0  0  0  0  0  0  0  0
  195.7680  175.0740  144.4050 O   0  0  0  0  0  0  0  0  0  0  0  0
  186.0360  177.2770  139.5030 C   0  0  0  0  0  3  0  0  0  0  0  0
  193.6150  174.3400  145.1990 C   0  0  0  0  0  2  0  0  0  0  0  0
  194.1680  176.6810  144.9750 N   0  0  0  0  0  0  0  0  0  0  0  0
  189.7810  175.8940  146.5210 C   0  0  0  0  0  0  0  0  0  0  0  0
  187.2490  176.6470  139.8230 C   0  0  0  0  0  3  0  0  0  0  0  0
  191.2480  174.8500  144.6560 C   0  0  0  0  0  2  0  0  0  0  0  0
  192.4010  175.1750  145.6040 C   0  0  1  0  0  0  0  0  0  0  0  0
  184.3210  178.5760  145.7560 C   0  0  0  0  0  3  0  0  0  0  0  0
  185.5200  177.9800  145.3420 C   0  0  0  0  0  0  0  0  0  0  0  0
  185.0000  178.0770  142.9780 C   0  0  0  0  0  3  0  0  0  0  0  0
  189.3110  176.3590  144.0980 C   0  0  0  0  0  2  0  0  0  0  0  0
  188.9280  175.7660  141.3920 C   0  0  0  0  0  1  0  0  0  0  0  0
  184.0110  178.4010  140.2060 O   0  0  0  0  0  1  0  0  0  0  0  0
  186.9310  177.1720  143.5780 C   0  0  0  0  0  0  0  0  0  0  0  0
  185.6530  177.6750  141.8360 C   0  0  0  0  0  0  0  0  0  0  0  0
  1 20  1  0  0  0  0
  1 19  1  0  0  0  0
  2 12  1  0  0  0  0
  3 15  2  0  0  0  0
  5  4  2  0  0  0  0
  6 31  2  0  0  0  0
  7 29  1  0  0  0  0
  7  6  1  0  0  0  0
  8 28  1  6  0  0  0
  8 21  1  0  0  0  0
 10 24  1  0  0  0  0
 11 32  1  0  0  0  0
 13  4  1  0  0  0  0
 14 13  2  0  0  0  0
 15 14  1  0  0  0  0
 15  9  1  0  0  0  0
 16 26  1  0  0  0  0
 17  1  2  0  0  0  0
 18 22  1  0  0  0  0
 18 11  2  0  0  0  0
 19 24  1  0  0  0  0
 20 10  2  0  0  0  0
 21  9  2  0  0  0  0
 21 12  1  0  0  0  0
 22  7  2  0  0  0  0
 23  8  1  0  0  0  0
 24 23  1  6  0  0  0
 24  2  1  0  0  0  0
 25  5  1  0  0  0  0
 26 25  2  0  0  0  0
 26 14  1  0  0  0  0
 27 16  1  0  0  0  0
 28  3  1  0  0  0  0
 30 11  1  0  0  0  0
 31 16  1  0  0  0  0
 31  3  1  0  0  0  0
 32  6  1  0  0  0  0
 32 27  2  0  0  0  0
M  END
>  <MODEL>
1

>  <REMARK>
 VINA RESULT:      -9.9      0.000      0.000
  Name = 
  0 active torsions:
  status: ('A' for Active; 'I' for Inactive)
                            x       y       z     vdW  Elec       q    Type
                         _______ _______ _______ _____ _____    ______ ____

>  <TORSDO>
F 0

$$$$
=
 OpenBabel11052421283D

 32 38  0  0  1  0  0  0  0  0999 V2000
  193.2130  171.3610  144.6040 C   0  0  0  0  0  0  0  0  0  0  0  0
  192.7430  173.7150  142.1110 C   0  0  0  0  0  2  0  0  0  0  0  0
  188.2780  175.9730  143.5000 C   0  0  0  0  0  0  0  0  0  0  0  0
  186.2620  177.2810  139.2910 N   0  0  0  0  0  0  0  0  0  0  0  0
  185.2210  177.8580  139.9480 C   0  0  0  0  0  3  0  0  0  0  0  0
  186.8860  176.7690  145.5190 C   0  0  0  0  0  0  0  0  0  0  0  0
  187.5260  176.4630  146.7450 C   0  0  0  0  0  0  0  0  0  0  0  0
  190.6500  175.2140  143.5120 C   0  0  2  0  0  3  0  0  0  0  0  0
  189.4370  175.3420  141.3730 C   0  0  0  0  0  3  0  0  0  0  0  0
  191.3380  172.0520  143.4210 C   0  0  0  0  0  3  0  0  0  0  0  0
  185.0040  177.7570  146.7140 C   0  0  0  0  0  0  0  0  0  0  0  0
  191.5520  174.1480  141.2590 C   0  0  0  0  0  2  0  0  0  0  0  0
  187.2810  176.6770  139.9590 C   0  0  0  0  0  3  0  0  0  0  0  0
  187.2830  176.6330  141.3600 C   0  0  0  0  0  0  0  0  0  0  0  0
  188.3170  176.0050  142.0830 C   0  0  0  0  0  0  0  0  0  0  0  0
  186.2130  177.1870  143.4200 N   0  0  0  0  0  0  0  0  0  0  0  0
  193.9720  170.6020  145.2590 O   0  0  0  0  0  0  0  0  0  0  0  0
  185.6140  177.4300  147.9280 C   0  0  0  0  0  3  0  0  0  0  0  0
  193.5580  172.7500  144.2510 C   0  0  0  0  0  2  0  0  0  0  0  0
  191.9480  170.9510  144.1410 N   0  0  0  0  0  0  0  0  0  0  0  0
  190.5230  174.9220  142.0280 C   0  0  0  0  0  0  0  0  0  0  0  0
  186.8670  176.7960  147.9410 C   0  0  0  0  0  3  0  0  0  0  0  0
  191.7060  174.4020  144.2760 C   0  0  0  0  0  2  0  0  0  0  0  0
  192.3210  173.2400  143.4980 C   0  0  1  0  0  0  0  0  0  0  0  0
  185.1750  177.8400  141.3430 C   0  0  0  0  0  3  0  0  0  0  0  0
  186.2120  177.2250  142.0590 C   0  0  0  0  0  0  0  0  0  0  0  0
  185.2620  177.6810  144.2400 C   0  0  0  0  0  3  0  0  0  0  0  0
  189.2940  175.1250  144.2090 C   0  0  0  0  0  2  0  0  0  0  0  0
  188.8850  175.8810  146.8710 C   0  0  0  0  0  1  0  0  0  0  0  0
  183.7720  178.4010  146.6960 O   0  0  0  0  0  1  0  0  0  0  0  0
  187.2000  176.6110  144.1560 C   0  0  0  0  0  0  0  0  0  0  0  0
  185.6620  177.4250  145.5310 C   0  0  0  0  0  0  0  0  0  0  0  0
  1 17  2  0  0  0  0
  3 31  1  0  0  0  0
  3 28  1  0  0  0  0
  4  5  2  0  0  0  0
  4 13  1  0  0  0  0
  5 25  1  0  0  0  0
  6 32  1  0  0  0  0
  6  7  1  0  0  0  0
  7 29  1  0  0  0  0
  7 22  2  0  0  0  0
  8 28  1  1  0  0  0
  8 23  1  0  0  0  0
  9 21  2  0  0  0  0
  9 15  1  0  0  0  0
 10 24  1  0  0  0  0
 10 20  2  0  0  0  0
 11 18  2  0  0  0  0
 12 21  1  0  0  0  0
 12  2  1  0  0  0  0
 13 14  2  0  0  0  0
 14 26  1  0  0  0  0
 14 15  1  0  0  0  0
 15  3  2  0  0  0  0
 16 31  1  0  0  0  0
 16 27  1  0  0  0  0
 18 22  1  0  0  0  0
 19  1  1  0  0  0  0
 20  1  1  0  0  0  0
 21  8  1  0  0  0  0
 24  2  1  6  0  0  0
 24 19  1  0  0  0  0
 24 23  1  0  0  0  0
 25 26  2  0  0  0  0
 26 16  1  0  0  0  0
 27 32  2  0  0  0  0
 30 11  1  0  0  0  0
 31  6  2  0  0  0  0
 32 11  1  0  0  0  0
M  END
>  <MODEL>
2

>  <REMARK>
 VINA RESULT:      -8.5      2.474      5.080
  Name = 
  0 active torsions:
  status: ('A' for Active; 'I' for Inactive)
                            x       y       z     vdW  Elec       q    Type
                         _______ _______ _______ _____ _____    ______ ____

>  <TORSDO>
F 0

$$$$
=
 OpenBabel11052421283D

 32 38  0  0  1  0  0  0  0  0999 V2000
  184.8240  178.1560  146.2400 C   0  0  0  0  0  0  0  0  0  0  0  0
  188.2410  178.2270  146.7860 C   0  0  0  0  0  2  0  0  0  0  0  0
  190.0260  174.8220  143.2960 C   0  0  0  0  0  0  0  0  0  0  0  0
  193.9800  172.9570  145.3880 N   0  0  0  0  0  0  0  0  0  0  0  0
  194.2330  172.2060  144.2830 C   0  0  0  0  0  3  0  0  0  0  0  0
  189.6940  173.9240  140.9010 C   0  0  0  0  0  0  0  0  0  0  0  0
  188.5890  174.5410  140.2640 C   0  0  0  0  0  0  0  0  0  0  0  0
  188.9630  176.8310  144.3110 C   0  0  2  0  0  3  0  0  0  0  0  0
  190.5960  175.5400  145.6250 C   0  0  0  0  0  3  0  0  0  0  0  0
  186.4430  176.4930  146.3150 C   0  0  0  0  0  3  0  0  0  0  0  0
  190.1060  172.5520  138.9280 C   0  0  0  0  0  0  0  0  0  0  0  0
  189.3250  177.1600  146.9170 C   0  0  0  0  0  2  0  0  0  0  0  0
  192.9080  173.7910  145.4550 C   0  0  0  0  0  3  0  0  0  0  0  0
  192.0270  173.9000  144.3710 C   0  0  0  0  0  0  0  0  0  0  0  0
  190.9000  174.7460  144.4100 C   0  0  0  0  0  0  0  0  0  0  0  0
  191.4190  173.2360  142.1600 N   0  0  0  0  0  0  0  0  0  0  0  0
  183.6910  178.6940  146.3360 O   0  0  0  0  0  0  0  0  0  0  0  0
  188.9980  173.1330  138.3040 C   0  0  0  0  0  3  0  0  0  0  0  0
  186.0400  178.8830  145.8350 C   0  0  0  0  0  2  0  0  0  0  0  0
  185.0380  176.7910  146.5120 N   0  0  0  0  0  0  0  0  0  0  0  0
  189.6610  176.4920  145.6160 C   0  0  0  0  0  0  0  0  0  0  0  0
  188.2530  174.1230  138.9650 C   0  0  0  0  0  3  0  0  0  0  0  0
  187.6660  177.6440  144.4260 C   0  0  0  0  0  2  0  0  0  0  0  0
  187.1180  177.7990  145.8440 C   0  0  1  0  0  0  0  0  0  0  0  0
  193.3850  172.2780  143.1770 C   0  0  0  0  0  3  0  0  0  0  0  0
  192.2730  173.1300  143.2160 C   0  0  0  0  0  0  0  0  0  0  0  0
  191.4920  172.5600  140.9950 C   0  0  0  0  0  3  0  0  0  0  0  0
  188.7410  175.5810  143.4640 C   0  0  0  0  0  2  0  0  0  0  0  0
  187.7950  175.6580  140.8330 C   0  0  0  0  0  1  0  0  0  0  0  0
  190.8570  171.5850  138.2720 O   0  0  0  0  0  1  0  0  0  0  0  0
  190.3340  174.0550  142.1480 C   0  0  0  0  0  0  0  0  0  0  0  0
  190.4350  172.9710  140.2160 C   0  0  0  0  0  0  0  0  0  0  0  0
  1 17  2  0  0  0  0
  1 20  1  0  0  0  0
  2 12  1  0  0  0  0
  3 28  1  0  0  0  0
  3 15  2  0  0  0  0
  4 13  1  0  0  0  0
  5  4  2  0  0  0  0
  6 31  2  0  0  0  0
  7 29  1  0  0  0  0
  7  6  1  0  0  0  0
  8 28  1  1  0  0  0
  8 23  1  0  0  0  0
  8 21  1  0  0  0  0
 10 20  2  0  0  0  0
 11 32  1  0  0  0  0
 14 15  1  0  0  0  0
 14 13  2  0  0  0  0
 15  9  1  0  0  0  0
 16 26  1  0  0  0  0
 18 11  2  0  0  0  0
 18 22  1  0  0  0  0
 19 24  1  0  0  0  0
 19  1  1  0  0  0  0
 21  9  2  0  0  0  0
 21 12  1  0  0  0  0
 22  7  2  0  0  0  0
 24 23  1  6  0  0  0
 24 10  1  0  0  0  0
 24  2  1  0  0  0  0
 25 26  2  0  0  0  0
 25  5  1  0  0  0  0
 26 14  1  0  0  0  0
 27 16  1  0  0  0  0
 30 11  1  0  0  0  0
 31 16  1  0  0  0  0
 31  3  1  0  0  0  0
 32  6  1  0  0  0  0
 32 27  2  0  0  0  0
M  END
>  <MODEL>
3

>  <REMARK>
 VINA RESULT:      -8.4      2.959      7.080
  Name = 
  0 active torsions:
  status: ('A' for Active; 'I' for Inactive)
                            x       y       z     vdW  Elec       q    Type
                         _______ _______ _______ _____ _____    ______ ____

>  <TORSDO>
F 0

$$$$
=
 OpenBabel11052421283D

 32 38  0  0  1  0  0  0  0  0999 V2000
  191.7460  170.4780  139.3240 C   0  0  0  0  0  0  0  0  0  0  0  0
  189.6140  173.1620  138.8450 C   0  0  0  0  0  2  0  0  0  0  0  0
  189.5680  175.4310  143.5160 C   0  0  0  0  0  0  0  0  0  0  0  0
  185.1430  177.3810  143.8330 N   0  0  0  0  0  0  0  0  0  0  0  0
  185.4450  177.9150  145.0460 C   0  0  0  0  0  3  0  0  0  0  0  0
  191.0240  176.0190  145.5610 C   0  0  0  0  0  0  0  0  0  0  0  0
  192.3440  175.5220  145.4200 C   0  0  0  0  0  0  0  0  0  0  0  0
  190.3440  174.5620  141.3150 C   0  0  2  0  0  3  0  0  0  0  0  0
  187.9500  175.0310  141.6480 C   0  0  0  0  0  3  0  0  0  0  0  0
  190.0670  171.4100  140.6290 C   0  0  0  0  0  3  0  0  0  0  0  0
  191.5700  176.9300  147.7560 C   0  0  0  0  0  0  0  0  0  0  0  0
  188.4540  173.7610  139.6380 C   0  0  0  0  0  2  0  0  0  0  0  0
  186.0450  176.6450  143.1320 C   0  0  0  0  0  3  0  0  0  0  0  0
  187.3280  176.4160  143.6490 C   0  0  0  0  0  0  0  0  0  0  0  0
  188.2840  175.6480  142.9550 C   0  0  0  0  0  0  0  0  0  0  0  0
  188.9060  176.7430  145.4090 N   0  0  0  0  0  0  0  0  0  0  0  0
  192.5210  169.6020  138.8590 O   0  0  0  0  0  0  0  0  0  0  0  0
  192.8650  176.4160  147.6380 C   0  0  0  0  0  3  0  0  0  0  0  0
  191.7450  171.8830  138.8790 C   0  0  0  0  0  2  0  0  0  0  0  0
  190.7980  170.1950  140.3260 N   0  0  0  0  0  0  0  0  0  0  0  0
  188.8920  174.4750  140.8820 C   0  0  0  0  0  0  0  0  0  0  0  0
  193.2470  175.7250  146.4770 C   0  0  0  0  0  3  0  0  0  0  0  0
  191.3200  173.6050  140.6150 C   0  0  0  0  0  2  0  0  0  0  0  0
  190.6670  172.5280  139.7500 C   0  0  1  0  0  0  0  0  0  0  0  0
  186.7080  177.7160  145.6060 C   0  0  0  0  0  3  0  0  0  0  0  0
  187.6600  176.9620  144.9060 C   0  0  0  0  0  0  0  0  0  0  0  0
  189.3800  177.1700  146.5980 C   0  0  0  0  0  3  0  0  0  0  0  0
  190.4740  174.4470  142.8320 C   0  0  0  0  0  2  0  0  0  0  0  0
  192.8770  174.8630  144.2020 C   0  0  0  0  0  1  0  0  0  0  0  0
  191.1910  177.6300  148.8950 O   0  0  0  0  0  1  0  0  0  0  0  0
  189.8650  176.0270  144.7630 C   0  0  0  0  0  0  0  0  0  0  0  0
  190.6780  176.7260  146.7050 C   0  0  0  0  0  0  0  0  0  0  0  0
  1 20  1  0  0  0  0
  2 12  1  0  0  0  0
  3 31  1  0  0  0  0
  4  5  1  0  0  0  0
  5 25  2  0  0  0  0
  6 32  1  0  0  0  0
  7  6  1  0  0  0  0
  7 22  2  0  0  0  0
  8 23  1  6  0  0  0
  8 28  1  0  0  0  0
  9 15  1  0  0  0  0
 11 30  1  0  0  0  0
 12 21  1  0  0  0  0
 13 14  1  0  0  0  0
 13  4  2  0  0  0  0
 14 26  2  0  0  0  0
 15  3  2  0  0  0  0
 15 14  1  0  0  0  0
 16 27  1  0  0  0  0
 17  1  2  0  0  0  0
 18 11  2  0  0  0  0
 19  1  1  0  0  0  0
 19 24  1  0  0  0  0
 20 10  2  0  0  0  0
 21  8  1  0  0  0  0
 21  9  2  0  0  0  0
 22 18  1  0  0  0  0
 24  2  1  6  0  0  0
 24 23  1  0  0  0  0
 24 10  1  0  0  0  0
 26 16  1  0  0  0  0
 26 25  1  0  0  0  0
 27 32  2  0  0  0  0
 28  3  1  0  0  0  0
 29  7  1  0  0  0  0
 31 16  1  0  0  0  0
 31  6  2  0  0  0  0
 32 11  1  0  0  0  0
M  END
>  <MODEL>
4

>  <REMARK>
 VINA RESULT:      -8.1      3.439      6.414
  Name = 
  0 active torsions:
  status: ('A' for Active; 'I' for Inactive)
                            x       y       z     vdW  Elec       q    Type
                         _______ _______ _______ _____ _____    ______ ____

>  <TORSDO>
F 0

$$$$
=
 OpenBabel11052421283D

 32 38  0  0  1  0  0  0  0  0999 V2000
  194.8610  174.2640  145.6460 C   0  0  0  0  0  0  0  0  0  0  0  0
  191.8570  175.0370  147.1820 C   0  0  0  0  0  2  0  0  0  0  0  0
  188.7790  176.1800  143.1590 C   0  0  0  0  0  0  0  0  0  0  0  0
  185.7000  179.4760  144.9340 N   0  0  0  0  0  0  0  0  0  0  0  0
  185.0360  179.5210  143.7480 C   0  0  0  0  0  3  0  0  0  0  0  0
  188.2060  175.5440  140.7270 C   0  0  0  0  0  0  0  0  0  0  0  0
  189.0530  174.5150  140.2460 C   0  0  0  0  0  0  0  0  0  0  0  0
  190.2410  174.9280  144.7390 C   0  0  2  0  0  3  0  0  0  0  0  0
  189.0970  176.9650  145.5150 C   0  0  0  0  0  3  0  0  0  0  0  0
  193.2770  175.9190  145.2680 C   0  0  0  0  0  3  0  0  0  0  0  0
  187.0560  175.6430  138.5790 C   0  0  0  0  0  0  0  0  0  0  0  0
  190.8270  176.1520  147.0170 C   0  0  0  0  0  2  0  0  0  0  0  0
  186.7740  178.6630  145.1210 C   0  0  0  0  0  3  0  0  0  0  0  0
  187.2280  177.8390  144.0820 C   0  0  0  0  0  0  0  0  0  0  0  0
  188.3450  176.9930  144.2380 C   0  0  0  0  0  0  0  0  0  0  0  0
  186.9900  177.0690  141.8350 N   0  0  0  0  0  0  0  0  0  0  0  0
  195.9850  173.7000  145.6680 O   0  0  0  0  0  0  0  0  0  0  0  0
  187.9090  174.6510  138.0870 C   0  0  0  0  0  3  0  0  0  0  0  0
  193.6230  173.6340  146.1390 C   0  0  0  0  0  2  0  0  0  0  0  0
  194.6780  175.5660  145.1420 N   0  0  0  0  0  0  0  0  0  0  0  0
  190.0230  176.0340  145.7560 C   0  0  0  0  0  0  0  0  0  0  0  0
  188.8920  174.0880  138.9170 C   0  0  0  0  0  3  0  0  0  0  0  0
  191.5420  174.1240  144.8790 C   0  0  0  0  0  2  0  0  0  0  0  0
  192.5560  174.6940  145.8690 C   0  0  1  0  0  0  0  0  0  0  0  0
  185.4490  178.7200  142.6820 C   0  0  0  0  0  3  0  0  0  0  0  0
  186.5530  177.8710  142.8450 C   0  0  0  0  0  0  0  0  0  0  0  0
  186.4780  176.9920  140.5900 C   0  0  0  0  0  3  0  0  0  0  0  0
  190.0830  175.4510  143.3130 C   0  0  0  0  0  2  0  0  0  0  0  0
  190.0580  173.7900  141.0630 C   0  0  0  0  0  1  0  0  0  0  0  0
  186.0700  176.1910  137.7680 O   0  0  0  0  0  1  0  0  0  0  0  0
  188.0480  176.2230  141.9500 C   0  0  0  0  0  0  0  0  0  0  0  0
  187.2200  176.0620  139.8990 C   0  0  0  0  0  0  0  0  0  0  0  0
  1 17  2  0  0  0  0
  1 19  1  0  0  0  0
  3 28  1  0  0  0  0
  3 15  2  0  0  0  0
  4 13  1  0  0  0  0
  5  4  2  0  0  0  0
  6 31  2  0  0  0  0
  7  6  1  0  0  0  0
  7 29  1  0  0  0  0
  8 28  1  6  0  0  0
  8 23  1  0  0  0  0
  8 21  1  0  0  0  0
  9 21  2  0  0  0  0
 10 24  1  0  0  0  0
 11 32  1  0  0  0  0
 12  2  1  0  0  0  0
 14 15  1  0  0  0  0
 14 13  2  0  0  0  0
 15  9  1  0  0  0  0
 16 31  1  0  0  0  0
 16 26  1  0  0  0  0
 18 11  2  0  0  0  0
 18 22  1  0  0  0  0
 20 10  2  0  0  0  0
 20  1  1  0  0  0  0
 21 12  1  0  0  0  0
 22  7  2  0  0  0  0
 24 23  1  6  0  0  0
 24 19  1  0  0  0  0
 24  2  1  0  0  0  0
 25 26  2  0  0  0  0
 25  5  1  0  0  0  0
 26 14  1  0  0  0  0
 27 16  1  0  0  0  0
 30 11  1  0  0  0  0
 31  3  1  0  0  0  0
 32 27  2  0  0  0  0
 32  6  1  0  0  0  0
M  END
>  <MODEL>
5

>  <REMARK>
 VINA RESULT:      -8.1      1.648      2.333
  Name = 
  0 active torsions:
  status: ('A' for Active; 'I' for Inactive)
                            x       y       z     vdW  Elec       q    Type
                         _______ _______ _______ _____ _____    ______ ____

>  <TORSDO>
F 0

$$$$
=
 OpenBabel11052421283D

 32 38  0  0  1  0  0  0  0  0999 V2000
  191.5690  172.7400  137.2800 C   0  0  0  0  0  0  0  0  0  0  0  0
  191.8910  171.5860  140.5270 C   0  0  0  0  0  2  0  0  0  0  0  0
  189.6170  175.3390  143.3030 C   0  0  0  0  0  0  0  0  0  0  0  0
  192.0020  175.2910  147.5220 N   0  0  0  0  0  0  0  0  0  0  0  0
  191.1910  176.2650  148.0130 C   0  0  0  0  0  3  0  0  0  0  0  0
  187.6660  177.0250  143.3240 C   0  0  0  0  0  0  0  0  0  0  0  0
  186.9180  176.9690  142.1220 C   0  0  0  0  0  0  0  0  0  0  0  0
  189.9740  173.4680  141.6990 C   0  0  2  0  0  3  0  0  0  0  0  0
  191.5530  173.7740  143.5620 C   0  0  0  0  0  3  0  0  0  0  0  0
  192.1020  173.7910  139.2810 C   0  0  0  0  0  3  0  0  0  0  0  0
  186.2290  178.8040  144.1700 C   0  0  0  0  0  0  0  0  0  0  0  0
  192.3080  172.2210  141.8510 C   0  0  0  0  0  2  0  0  0  0  0  0
  191.8470  174.7990  146.2640 C   0  0  0  0  0  3  0  0  0  0  0  0
  190.8320  175.2890  145.4310 C   0  0  0  0  0  0  0  0  0  0  0  0
  190.6500  174.8100  144.1180 C   0  0  0  0  0  0  0  0  0  0  0  0
  188.9920  176.7760  145.1170 N   0  0  0  0  0  0  0  0  0  0  0  0
  191.5420  172.5230  136.0410 O   0  0  0  0  0  0  0  0  0  0  0  0
  185.5060  178.7770  142.9740 C   0  0  0  0  0  3  0  0  0  0  0  0
  190.8900  171.8900  138.2720 C   0  0  0  0  0  2  0  0  0  0  0  0
  192.2610  173.8320  137.8410 N   0  0  0  0  0  0  0  0  0  0  0  0
  191.2810  173.1620  142.4070 C   0  0  0  0  0  0  0  0  0  0  0  0
  185.8450  177.8620  141.9640 C   0  0  0  0  0  3  0  0  0  0  0  0
  189.8820  173.0390  140.2280 C   0  0  0  0  0  2  0  0  0  0  0  0
  191.1980  172.5810  139.6000 C   0  0  1  0  0  0  0  0  0  0  0  0
  190.1660  176.7880  147.2230 C   0  0  0  0  0  3  0  0  0  0  0  0
  189.9810  176.3000  145.9220 C   0  0  0  0  0  0  0  0  0  0  0  0
  188.1090  177.7510  145.4160 C   0  0  0  0  0  3  0  0  0  0  0  0
  189.5930  174.9380  141.8560 C   0  0  0  0  0  2  0  0  0  0  0  0
  187.1310  175.9820  141.0350 C   0  0  0  0  0  1  0  0  0  0  0  0
  185.8880  179.6950  145.1800 O   0  0  0  0  0  1  0  0  0  0  0  0
  188.7680  176.3270  143.8530 C   0  0  0  0  0  0  0  0  0  0  0  0
  187.2930  177.9160  144.3210 C   0  0  0  0  0  0  0  0  0  0  0  0
  1 20  1  0  0  0  0
  1 19  1  0  0  0  0
  2 12  1  0  0  0  0
  3 31  1  0  0  0  0
  3 15  2  0  0  0  0
  4  5  1  0  0  0  0
  6 31  2  0  0  0  0
  6 32  1  0  0  0  0
  7  6  1  0  0  0  0
  8 23  1  6  0  0  0
  8 28  1  0  0  0  0
  8 21  1  0  0  0  0
  9 15  1  0  0  0  0
 10 24  1  0  0  0  0
 11 32  1  0  0  0  0
 11 30  1  0  0  0  0
 12 21  1  0  0  0  0
 13  4  2  0  0  0  0
 14 26  2  0  0  0  0
 14 13  1  0  0  0  0
 15 14  1  0  0  0  0
 16 27  1  0  0  0  0
 16 26  1  0  0  0  0
 17  1  2  0  0  0  0
 18 11  2  0  0  0  0
 20 10  2  0  0  0  0
 21  9  2  0  0  0  0
 22  7  2  0  0  0  0
 22 18  1  0  0  0  0
 24 19  1  6  0  0  0
 24 23  1  0  0  0  0
 24  2  1  0  0  0  0
 25  5  2  0  0  0  0
 26 25  1  0  0  0  0
 28  3  1  0  0  0  0
 29  7  1  0  0  0  0
 31 16  1  0  0  0  0
 32 27  2  0  0  0  0
M  END
>  <MODEL>
6

>  <REMARK>
 VINA RESULT:      -7.8      3.516      5.503
  Name = 
  0 active torsions:
  status: ('A' for Active; 'I' for Inactive)
                            x       y       z     vdW  Elec       q    Type
                         _______ _______ _______ _____ _____    ______ ____

>  <TORSDO>
F 0

$$$$
=
 OpenBabel11052421283D

 32 38  0  0  1  0  0  0  0  0999 V2000
  185.9470  178.6900  146.1030 C   0  0  0  0  0  0  0  0  0  0  0  0
  185.9340  175.9690  143.9650 C   0  0  0  0  0  2  0  0  0  0  0  0
  190.9950  175.0810  143.2170 C   0  0  0  0  0  0  0  0  0  0  0  0
  191.2200  173.2720  138.7260 N   0  0  0  0  0  0  0  0  0  0  0  0
  192.5630  173.0960  138.8440 C   0  0  0  0  0  3  0  0  0  0  0  0
  193.3040  175.0890  144.3640 C   0  0  0  0  0  0  0  0  0  0  0  0
  193.2150  175.5330  145.7070 C   0  0  0  0  0  0  0  0  0  0  0  0
  188.7690  175.3110  144.3100 C   0  0  2  0  0  3  0  0  0  0  0  0
  188.8840  174.9400  141.8790 C   0  0  0  0  0  3  0  0  0  0  0  0
  187.2130  178.1480  144.2340 C   0  0  0  0  0  3  0  0  0  0  0  0
  195.7180  174.8230  144.5800 C   0  0  0  0  0  0  0  0  0  0  0  0
  186.6910  175.6070  142.6900 C   0  0  0  0  0  2  0  0  0  0  0  0
  190.4750  173.7910  139.7380 C   0  0  0  0  0  3  0  0  0  0  0  0
  191.0820  174.1600  140.9470 C   0  0  0  0  0  0  0  0  0  0  0  0
  190.3430  174.7110  142.0130 C   0  0  0  0  0  0  0  0  0  0  0  0
  193.0650  174.3400  142.2630 N   0  0  0  0  0  0  0  0  0  0  0  0
  185.3710  179.4070  146.9620 O   0  0  0  0  0  0  0  0  0  0  0  0
  195.6430  175.2910  145.8950 C   0  0  0  0  0  3  0  0  0  0  0  0
  185.9090  177.2170  146.1140 C   0  0  0  0  0  2  0  0  0  0  0  0
  186.6910  179.2350  145.0390 N   0  0  0  0  0  0  0  0  0  0  0  0
  188.1320  175.2670  142.9320 C   0  0  0  0  0  0  0  0  0  0  0  0
  194.4020  175.6350  146.4530 C   0  0  0  0  0  3  0  0  0  0  0  0
  187.9750  176.0410  145.4020 C   0  0  0  0  0  2  0  0  0  0  0  0
  186.7660  176.8340  144.9080 C   0  0  1  0  0  0  0  0  0  0  0  0
  193.2150  173.4490  140.0270 C   0  0  0  0  0  3  0  0  0  0  0  0
  192.4740  173.9850  141.0890 C   0  0  0  0  0  0  0  0  0  0  0  0
  194.3790  174.2620  142.5580 C   0  0  0  0  0  3  0  0  0  0  0  0
  190.1990  175.8410  144.2390 C   0  0  0  0  0  2  0  0  0  0  0  0
  191.9490  175.8320  146.4210 C   0  0  0  0  0  1  0  0  0  0  0  0
  196.9420  174.4640  144.0280 O   0  0  0  0  0  1  0  0  0  0  0  0
  192.3860  174.8540  143.3230 C   0  0  0  0  0  0  0  0  0  0  0  0
  194.5380  174.7240  143.8440 C   0  0  0  0  0  0  0  0  0  0  0  0
  1 19  1  0  0  0  0
  1 17  2  0  0  0  0
  3 31  1  0  0  0  0
  3 28  1  0  0  0  0
  4  5  2  0  0  0  0
  4 13  1  0  0  0  0
  5 25  1  0  0  0  0
  6  7  1  0  0  0  0
  7 29  1  0  0  0  0
  7 22  2  0  0  0  0
  8 28  1  6  0  0  0
  8 23  1  0  0  0  0
  9 15  1  0  0  0  0
  9 21  2  0  0  0  0
 10 24  1  0  0  0  0
 10 20  2  0  0  0  0
 11 18  2  0  0  0  0
 12 21  1  0  0  0  0
 12  2  1  0  0  0  0
 13 14  2  0  0  0  0
 14 26  1  0  0  0  0
 14 15  1  0  0  0  0
 15  3  2  0  0  0  0
 16 27  1  0  0  0  0
 16 31  1  0  0  0  0
 18 22  1  0  0  0  0
 20  1  1  0  0  0  0
 21  8  1  0  0  0  0
 24  2  1  6  0  0  0
 24 23  1  0  0  0  0
 24 19  1  0  0  0  0
 25 26  2  0  0  0  0
 26 16  1  0  0  0  0
 27 32  2  0  0  0  0
 30 11  1  0  0  0  0
 31  6  2  0  0  0  0
 32  6  1  0  0  0  0
 32 11  1  0  0  0  0
M  END
>  <MODEL>
7

>  <REMARK>
 VINA RESULT:      -7.5      2.828      8.507
  Name = 
  0 active torsions:
  status: ('A' for Active; 'I' for Inactive)
                            x       y       z     vdW  Elec       q    Type
                         _______ _______ _______ _____ _____    ______ ____

>  <TORSDO>
F 0

$$$$
=
 OpenBabel11052421283D

 32 38  0  0  1  0  0  0  0  0999 V2000
  190.1450  172.6210  136.5500 C   0  0  0  0  0  0  0  0  0  0  0  0
  192.1840  171.6200  139.1610 C   0  0  0  0  0  2  0  0  0  0  0  0
  190.7740  174.8170  143.0010 C   0  0  0  0  0  0  0  0  0  0  0  0
  194.8170  175.3690  145.6170 N   0  0  0  0  0  0  0  0  0  0  0  0
  194.1530  176.1460  146.5130 C   0  0  0  0  0  3  0  0  0  0  0  0
  188.7650  176.0270  144.0740 C   0  0  0  0  0  0  0  0  0  0  0  0
  187.5690  175.7870  143.3540 C   0  0  0  0  0  0  0  0  0  0  0  0
  190.7060  173.0470  141.2520 C   0  0  2  0  0  3  0  0  0  0  0  0
  192.8770  173.7270  142.1930 C   0  0  0  0  0  3  0  0  0  0  0  0
  191.3300  173.7960  138.1650 C   0  0  0  0  0  3  0  0  0  0  0  0
  187.5680  177.4560  145.6460 C   0  0  0  0  0  0  0  0  0  0  0  0
  193.0360  172.3530  140.1940 C   0  0  0  0  0  2  0  0  0  0  0  0
  194.1920  174.8350  144.5340 C   0  0  0  0  0  3  0  0  0  0  0  0
  192.8290  175.0740  144.3130 C   0  0  0  0  0  0  0  0  0  0  0  0
  192.1520  174.5450  143.1950 C   0  0  0  0  0  0  0  0  0  0  0  0
  190.7980  176.1090  145.0210 N   0  0  0  0  0  0  0  0  0  0  0  0
  189.5820  172.3820  135.4500 O   0  0  0  0  0  0  0  0  0  0  0  0
  186.3900  177.2490  144.9230 C   0  0  0  0  0  3  0  0  0  0  0  0
  190.2010  171.6560  137.6620 C   0  0  0  0  0  2  0  0  0  0  0  0
  190.7800  173.8480  136.8240 N   0  0  0  0  0  0  0  0  0  0  0  0
  192.2250  173.0510  141.2450 C   0  0  0  0  0  0  0  0  0  0  0  0
  186.3910  176.4160  143.7920 C   0  0  0  0  0  3  0  0  0  0  0  0
  190.0230  172.5850  139.9570 C   0  0  0  0  0  2  0  0  0  0  0  0
  190.9500  172.4210  138.7540 C   0  0  1  0  0  0  0  0  0  0  0  0
  192.7950  176.4160  146.3380 C   0  0  0  0  0  3  0  0  0  0  0  0
  192.1230  175.8770  145.2310 C   0  0  0  0  0  0  0  0  0  0  0  0
  189.9820  176.8670  145.7820 C   0  0  0  0  0  3  0  0  0  0  0  0
  190.1540  174.3980  141.7000 C   0  0  0  0  0  2  0  0  0  0  0  0
  187.4410  174.8540  142.2070 C   0  0  0  0  0  1  0  0  0  0  0  0
  187.5680  178.2650  146.7760 O   0  0  0  0  0  1  0  0  0  0  0  0
  190.1030  175.6000  143.9690 C   0  0  0  0  0  0  0  0  0  0  0  0
  188.7330  176.8290  145.2070 C   0  0  0  0  0  0  0  0  0  0  0  0
  1 20  1  0  0  0  0
  1 19  1  0  0  0  0
  2 12  1  0  0  0  0
  3 15  2  0  0  0  0
  3 31  1  0  0  0  0
  4  5  1  0  0  0  0
  6 32  1  0  0  0  0
  7 22  2  0  0  0  0
  7  6  1  0  0  0  0
  8 23  1  6  0  0  0
  8 28  1  0  0  0  0
  9 15  1  0  0  0  0
 10 24  1  0  0  0  0
 11 30  1  0  0  0  0
 12 21  1  0  0  0  0
 13  4  2  0  0  0  0
 14 13  1  0  0  0  0
 14 26  2  0  0  0  0
 15 14  1  0  0  0  0
 16 26  1  0  0  0  0
 16 27  1  0  0  0  0
 17  1  2  0  0  0  0
 18 11  2  0  0  0  0
 20 10  2  0  0  0  0
 21  8  1  0  0  0  0
 21  9  2  0  0  0  0
 22 18  1  0  0  0  0
 24 19  1  6  0  0  0
 24  2  1  0  0  0  0
 24 23  1  0  0  0  0
 25  5  2  0  0  0  0
 26 25  1  0  0  0  0
 28  3  1  0  0  0  0
 29  7  1  0  0  0  0
 31  6  2  0  0  0  0
 31 16  1  0  0  0  0
 32 11  1  0  0  0  0
 32 27  2  0  0  0  0
M  END
>  <MODEL>
8

>  <REMARK>
 VINA RESULT:      -7.4      3.940      7.002
  Name = 
  0 active torsions:
  status: ('A' for Active; 'I' for Inactive)
                            x       y       z     vdW  Elec       q    Type
                         _______ _______ _______ _____ _____    ______ ____

>  <TORSDO>
F 0

$$$$
=
 OpenBabel11052421283D

 32 38  0  0  1  0  0  0  0  0999 V2000
  186.4260  176.5100  145.9760 C   0  0  0  0  0  0  0  0  0  0  0  0
  189.1520  178.0430  144.4940 C   0  0  0  0  0  2  0  0  0  0  0  0
  192.2510  174.0280  143.3780 C   0  0  0  0  0  0  0  0  0  0  0  0
  196.7230  175.8680  143.7080 N   0  0  0  0  0  0  0  0  0  0  0  0
  197.2600  174.6790  143.3260 C   0  0  0  0  0  3  0  0  0  0  0  0
  192.2790  171.5750  142.5840 C   0  0  0  0  0  0  0  0  0  0  0  0
  190.9670  171.0730  142.4030 C   0  0  0  0  0  0  0  0  0  0  0  0
  190.3070  175.5850  143.3910 C   0  0  2  0  0  3  0  0  0  0  0  0
  192.5130  176.4070  144.1120 C   0  0  0  0  0  3  0  0  0  0  0  0
  188.7150  176.1650  146.1490 C   0  0  0  0  0  3  0  0  0  0  0  0
  193.2250  169.4220  141.9410 C   0  0  0  0  0  0  0  0  0  0  0  0
  190.6660  177.9000  144.6330 C   0  0  0  0  0  2  0  0  0  0  0  0
  195.3790  176.0410  143.8220 C   0  0  0  0  0  3  0  0  0  0  0  0
  194.5020  174.9840  143.5430 C   0  0  0  0  0  0  0  0  0  0  0  0
  193.1050  175.1250  143.6610 C   0  0  0  0  0  0  0  0  0  0  0  0
  194.1910  172.7150  142.8700 N   0  0  0  0  0  0  0  0  0  0  0  0
  185.2130  176.5260  146.3120 O   0  0  0  0  0  0  0  0  0  0  0  0
  191.9330  168.9090  141.7910 C   0  0  0  0  0  3  0  0  0  0  0  0
  186.9140  176.9750  144.6660 C   0  0  0  0  0  2  0  0  0  0  0  0
  187.4420  176.0410  146.8310 N   0  0  0  0  0  0  0  0  0  0  0  0
  191.1990  176.6300  144.0380 C   0  0  0  0  0  0  0  0  0  0  0  0
  190.8170  169.7310  142.0130 C   0  0  0  0  0  3  0  0  0  0  0  0
  188.8020  175.7130  143.6640 C   0  0  0  0  0  2  0  0  0  0  0  0
  188.4200  176.7260  144.7420 C   0  0  1  0  0  0  0  0  0  0  0  0
  196.4300  173.5940  143.0380 C   0  0  0  0  0  3  0  0  0  0  0  0
  195.0400  173.7430  143.1450 C   0  0  0  0  0  0  0  0  0  0  0  0
  194.5340  171.4640  142.5010 C   0  0  0  0  0  3  0  0  0  0  0  0
  190.7930  174.1730  143.7090 C   0  0  0  0  0  2  0  0  0  0  0  0
  189.7260  171.8780  142.5190 C   0  0  0  0  0  1  0  0  0  0  0  0
  194.3340  168.6180  141.7060 O   0  0  0  0  0  1  0  0  0  0  0  0
  192.8370  172.8150  142.9500 C   0  0  0  0  0  0  0  0  0  0  0  0
  193.3680  170.7530  142.3280 C   0  0  0  0  0  0  0  0  0  0  0  0
  1 17  2  0  0  0  0
  1 20  1  0  0  0  0
  2 12  1  0  0  0  0
  2 24  1  0  0  0  0
  3 15  2  0  0  0  0
  3 28  1  0  0  0  0
  4 13  1  0  0  0  0
  5  4  2  0  0  0  0
  6 31  2  0  0  0  0
  7 29  1  0  0  0  0
  7  6  1  0  0  0  0
  8 23  1  1  0  0  0
  8 28  1  0  0  0  0
  8 21  1  0  0  0  0
 10 20  2  0  0  0  0
 11 32  1  0  0  0  0
 14 15  1  0  0  0  0
 14 13  2  0  0  0  0
 15  9  1  0  0  0  0
 16 31  1  0  0  0  0
 16 26  1  0  0  0  0
 18 11  2  0  0  0  0
 18 22  1  0  0  0  0
 19 24  1  0  0  0  0
 19  1  1  0  0  0  0
 21  9  2  0  0  0  0
 21 12  1  0  0  0  0
 22  7  2  0  0  0  0
 24 23  1  6  0  0  0
 24 10  1  0  0  0  0
 25 26  2  0  0  0  0
 25  5  1  0  0  0  0
 26 14  1  0  0  0  0
 27 16  1  0  0  0  0
 30 11  1  0  0  0  0
 31  3  1  0  0  0  0
 32 27  2  0  0  0  0
 32  6  1  0  0  0  0
M  END
>  <MODEL>
9

>  <REMARK>
 VINA RESULT:      -7.3      3.537      8.563
  Name = 
  0 active torsions:
  status: ('A' for Active; 'I' for Inactive)
                            x       y       z     vdW  Elec       q    Type
                         _______ _______ _______ _____ _____    ______ ____

>  <TORSDO>
F 0

$$$$
