=
 OpenBabel11052418453D

 34 40  0  0  1  0  0  0  0  0999 V2000
  188.5050  174.9700  141.8180 C   0  0  0  0  0  0  0  0  0  0  0  0
  190.8070  174.3200  142.3230 C   0  0  0  0  0  0  0  0  0  0  0  0
  189.5470  175.6610  143.8950 C   0  0  0  0  0  0  0  0  0  0  0  0
  190.5720  176.3550  145.9650 C   0  0  0  0  0  0  0  0  0  0  0  0
  189.7680  173.6280  140.2430 C   0  0  0  0  0  3  0  0  0  0  0  0
  190.8770  173.6420  141.1010 C   0  0  0  0  0  3  0  0  0  0  0  0
  191.8220  174.9990  144.3690 C   0  0  0  0  0  0  0  0  0  0  0  0
  189.6170  174.9840  142.6750 C   0  0  2  0  0  3  0  0  0  0  0  0
  192.9710  174.9930  145.2910 C   0  0  0  0  0  0  0  0  0  0  0  0
  191.7560  176.4160  146.8940 C   0  0  0  0  0  3  0  0  0  0  0  0
  188.5840  174.2910  140.5990 C   0  0  0  0  0  3  0  0  0  0  0  0
  188.3630  176.3230  144.2550 C   0  0  0  0  0  0  0  0  0  0  0  0
  187.3410  175.6410  142.2090 C   0  0  0  0  0  3  0  0  0  0  0  0
  191.8730  174.3420  143.1710 N   0  0  0  0  0  0  0  0  0  0  0  0
  189.4170  176.9960  146.3000 N   0  0  0  0  0  0  0  0  0  0  0  0
  188.3170  177.0000  145.4920 C   0  0  0  0  0  0  0  0  0  0  0  0
  192.9060  175.6240  146.4280 N   0  0  0  0  0  0  0  0  0  0  0  0
  190.6550  175.6720  144.7480 C   0  0  0  0  0  0  0  0  0  0  0  0
  187.2940  176.2960  143.4050 N   0  0  0  0  0  0  0  0  0  0  0  0
  185.2880  179.3930  145.3510 C   0  0  1  0  0  3  0  0  0  0  0  0
  184.5270  178.7530  146.5210 C   0  0  0  0  0  2  0  0  0  0  0  0
  187.0970  177.7350  145.9610 C   0  0  1  0  0  3  0  0  0  0  0  0
  184.6430  177.2310  146.5060 C   0  0  0  0  0  2  0  0  0  0  0  0
  186.4540  178.5440  144.8320 C   0  0  0  0  0  2  0  0  0  0  0  0
  186.1030  176.7910  146.6570 C   0  0  0  0  0  2  0  0  0  0  0  0
  184.4050  179.6550  144.3040 O   0  0  0  0  0  1  0  0  0  0  0  0
  194.2060  174.2200  144.9550 C   0  0  0  0  0  2  0  0  0  0  0  0
  195.2870  176.4160  143.2910 N   0  0  0  0  0  1  0  0  0  0  0  0
  195.4670  175.0110  145.3050 C   0  0  2  0  0  3  0  0  0  0  0  0
  196.1650  175.5340  144.0400 C   0  0  1  0  0  3  0  0  0  0  0  0
  197.1860  173.2890  143.9050 C   0  0  0  0  0  2  0  0  0  0  0  0
  197.6220  173.6310  145.3290 C   0  0  0  0  0  2  0  0  0  0  0  0
  196.4320  174.1520  146.1380 C   0  0  0  0  0  2  0  0  0  0  0  0
  196.6510  174.4500  143.1700 N   0  0  0  0  0  2  0  0  0  0  0  0
  1 13  2  0  0  0  0
  2  8  1  0  0  0  0
  2 14  1  0  0  0  0
  3 12  1  0  0  0  0
  3 18  2  0  0  0  0
  4 15  1  0  0  0  0
  4 10  2  0  0  0  0
  5 11  2  0  0  0  0
  5  6  1  0  0  0  0
  6  2  2  0  0  0  0
  7 18  1  0  0  0  0
  7  9  1  0  0  0  0
  8  1  1  1  0  0  0
  8  3  1  0  0  0  0
  9 17  2  0  0  0  0
 11  1  1  0  0  0  0
 12 16  1  0  0  0  0
 13 19  1  0  0  0  0
 14  7  2  0  0  0  0
 16 15  2  0  0  0  0
 17 10  1  0  0  0  0
 18  4  1  0  0  0  0
 19 12  2  0  0  0  0
 20 26  1  6  0  0  0
 20 21  1  0  0  0  0
 22 16  1  6  0  0  0
 22 25  1  0  0  0  0
 23 21  1  0  0  0  0
 23 25  1  0  0  0  0
 24 20  1  0  0  0  0
 24 22  1  0  0  0  0
 27  9  1  0  0  0  0
 29 27  1  6  0  0  0
 29 33  1  0  0  0  0
 30 28  1  6  0  0  0
 30 29  1  0  0  0  0
 31 32  1  0  0  0  0
 32 33  1  0  0  0  0
 34 31  1  0  0  0  0
 34 30  1  0  0  0  0
M  END
>  <MODEL>
1

>  <REMARK>
 VINA RESULT:      -9.2      0.000      0.000
  Name = 
  3 active torsions:
  status: ('A' for Active; 'I' for Inactive)
    1  A    between atoms: C_3  and  C_13
    2  A    between atoms: C_3  and  C_17
    3  A    between atoms: C_12  and  C_28
                            x       y       z     vdW  Elec       q    Type
                         _______ _______ _______ _____ _____    ______ ____

>  <TORSDO>
F 3

$$$$
=
 OpenBabel11052418453D

 34 40  0  0  1  0  0  0  0  0999 V2000
  192.4940  174.2520  144.8440 C   0  0  0  0  0  0  0  0  0  0  0  0
  190.7280  175.8610  145.3560 C   0  0  0  0  0  0  0  0  0  0  0  0
  190.7120  174.6630  143.2540 C   0  0  0  0  0  0  0  0  0  0  0  0
  188.9430  175.0630  141.6630 C   0  0  0  0  0  0  0  0  0  0  0  0
  192.5110  175.4530  146.9490 C   0  0  0  0  0  3  0  0  0  0  0  0
  191.3320  176.1220  146.5900 C   0  0  0  0  0  3  0  0  0  0  0  0
  188.9750  176.2550  143.7910 C   0  0  0  0  0  0  0  0  0  0  0  0
  191.3150  174.9240  144.4860 C   0  0  0  0  0  0  0  0  0  0  0  0
  187.7200  176.9310  143.4180 C   0  0  0  0  0  0  0  0  0  0  0  0
  187.6940  175.7890  141.2350 C   0  0  0  0  0  3  0  0  0  0  0  0
  193.0930  174.5200  146.0780 C   0  0  0  0  0  3  0  0  0  0  0  0
  191.2900  173.7280  142.3810 C   0  0  0  0  0  0  0  0  0  0  0  0
  193.0450  173.3270  143.9490 C   0  0  0  0  0  3  0  0  0  0  0  0
  189.5790  176.4990  144.9920 N   0  0  0  0  0  0  0  0  0  0  0  0
  189.5170  174.1550  140.8250 N   0  0  0  0  0  2  0  0  0  0  0  0
  190.6610  173.4820  141.1420 C   0  0  0  0  0  0  0  0  0  0  0  0
  187.1560  176.6860  142.2700 N   0  0  0  0  0  0  0  0  0  0  0  0
  189.5360  175.3330  142.9000 C   0  0  0  0  0  0  0  0  0  0  0  0
  192.4380  173.0870  142.7510 N   0  0  0  0  0  0  0  0  0  0  0  0
  190.7880  170.3570  138.8740 C   0  0  1  0  0  3  0  0  0  0  0  0
  191.8680  170.8960  137.9240 C   0  0  0  0  0  2  0  0  0  0  0  0
  191.2060  172.5020  140.1470 C   0  0  1  0  0  3  0  0  0  0  0  0
  191.6710  172.3800  137.6280 C   0  0  0  0  0  2  0  0  0  0  0  0
  190.1780  171.4260  139.7890 C   0  0  0  0  0  2  0  0  0  0  0  0
  191.7780  173.2140  138.9090 C   0  0  0  0  0  2  0  0  0  0  0  0
  189.7730  169.7480  138.1360 O   0  0  0  0  0  1  0  0  0  0  0  0
  187.0500  177.8630  144.3760 C   0  0  0  0  0  2  0  0  0  0  0  0
  184.2120  178.4260  143.7550 N   0  0  0  0  0  1  0  0  0  0  0  0
  185.8740  177.1840  145.0790 C   0  0  2  0  0  3  0  0  0  0  0  0
  184.6380  178.0960  145.1040 C   0  0  1  0  0  3  0  0  0  0  0  0
  185.6780  179.1360  147.0870 C   0  0  0  0  0  2  0  0  0  0  0  0
  185.6880  177.6900  147.5810 C   0  0  0  0  0  2  0  0  0  0  0  0
  186.2640  176.7660  146.5060 C   0  0  0  0  0  2  0  0  0  0  0  0
  184.8570  179.3290  145.8780 N   0  0  0  0  0  2  0  0  0  0  0  0
  1 11  1  0  0  0  0
  2  6  2  0  0  0  0
  3  8  1  0  0  0  0
  4 18  1  0  0  0  0
  6  5  1  0  0  0  0
  7 14  2  0  0  0  0
  8  1  2  0  0  0  0
  8  2  1  0  0  0  0
  9  7  1  0  0  0  0
  9 27  1  0  0  0  0
 10  4  2  0  0  0  0
 10 17  1  0  0  0  0
 11  5  2  0  0  0  0
 12 19  1  0  0  0  0
 12  3  1  0  0  0  0
 13  1  1  0  0  0  0
 14  2  1  0  0  0  0
 15 16  1  0  0  0  0
 15  4  1  0  0  0  0
 16 12  2  0  0  0  0
 17  9  2  0  0  0  0
 18  3  2  0  0  0  0
 18  7  1  0  0  0  0
 19 13  2  0  0  0  0
 20 26  1  6  0  0  0
 20 24  1  0  0  0  0
 21 20  1  0  0  0  0
 22 16  1  1  0  0  0
 23 21  1  0  0  0  0
 23 25  1  0  0  0  0
 24 22  1  0  0  0  0
 25 22  1  0  0  0  0
 29 27  1  1  0  0  0
 29 30  1  0  0  0  0
 29 33  1  0  0  0  0
 30 28  1  6  0  0  0
 30 34  1  0  0  0  0
 31 32  1  0  0  0  0
 33 32  1  0  0  0  0
 34 31  1  0  0  0  0
M  END
>  <MODEL>
2

>  <REMARK>
 VINA RESULT:      -9.0      3.069      8.627
  Name = 
  3 active torsions:
  status: ('A' for Active; 'I' for Inactive)
    1  A    between atoms: C_3  and  C_13
    2  A    between atoms: C_3  and  C_17
    3  A    between atoms: C_12  and  C_28
                            x       y       z     vdW  Elec       q    Type
                         _______ _______ _______ _____ _____    ______ ____

>  <TORSDO>
F 3

$$$$
=
 OpenBabel11052418453D

 34 40  0  0  1  0  0  0  0  0999 V2000
  188.6970  174.4240  140.8020 C   0  0  0  0  0  0  0  0  0  0  0  0
  191.0380  174.0820  141.4130 C   0  0  0  0  0  0  0  0  0  0  0  0
  189.5560  175.2890  142.8970 C   0  0  0  0  0  0  0  0  0  0  0  0
  190.3980  176.1550  144.9850 C   0  0  0  0  0  0  0  0  0  0  0  0
  190.1820  173.2160  139.3150 C   0  0  0  0  0  3  0  0  0  0  0  0
  191.2440  173.3900  140.2150 C   0  0  0  0  0  3  0  0  0  0  0  0
  191.8740  174.9310  143.4770 C   0  0  0  0  0  0  0  0  0  0  0  0
  189.7610  174.5980  141.7010 C   0  0  2  0  0  3  0  0  0  0  0  0
  192.9750  175.0920  144.4420 C   0  0  0  0  0  0  0  0  0  0  0  0
  191.5250  176.3860  145.9570 C   0  0  0  0  0  3  0  0  0  0  0  0
  188.9100  173.7320  139.6060 C   0  0  0  0  0  3  0  0  0  0  0  0
  188.2840  175.8040  143.1920 C   0  0  0  0  0  0  0  0  0  0  0  0
  187.4420  174.9520  141.1280 C   0  0  0  0  0  3  0  0  0  0  0  0
  192.0570  174.2580  142.3010 N   0  0  0  0  0  0  0  0  0  0  0  0
  189.1590  176.6520  145.2570 N   0  0  0  0  0  0  0  0  0  0  0  0
  188.1020  176.4980  144.4070 C   0  0  0  0  0  0  0  0  0  0  0  0
  192.7840  175.7350  145.5580 N   0  0  0  0  0  0  0  0  0  0  0  0
  190.6170  175.4600  143.7910 C   0  0  0  0  0  0  0  0  0  0  0  0
  187.2640  175.6220  142.3020 N   0  0  0  0  0  0  0  0  0  0  0  0
  185.2310  177.6400  146.7270 C   0  0  1  0  0  3  0  0  0  0  0  0
  184.6010  178.6200  145.7260 C   0  0  0  0  0  2  0  0  0  0  0  0
  186.7810  177.0840  144.8070 C   0  0  1  0  0  3  0  0  0  0  0  0
  185.6620  179.3870  144.9410 C   0  0  0  0  0  2  0  0  0  0  0  0
  186.6330  177.1640  146.3280 C   0  0  0  0  0  2  0  0  0  0  0  0
  186.5280  178.4320  144.1120 C   0  0  0  0  0  2  0  0  0  0  0  0
  185.2840  178.2270  147.9900 O   0  0  0  0  0  1  0  0  0  0  0  0
  194.3100  174.4730  144.1760 C   0  0  0  0  0  2  0  0  0  0  0  0
  196.0050  176.5120  142.8620 N   0  0  0  0  0  1  0  0  0  0  0  0
  195.4260  175.2380  144.8880 C   0  0  2  0  0  3  0  0  0  0  0  0
  196.5330  175.6490  143.9050 C   0  0  1  0  0  3  0  0  0  0  0  0
  197.4120  173.3650  144.2320 C   0  0  0  0  0  2  0  0  0  0  0  0
  197.3690  173.7840  145.7010 C   0  0  0  0  0  2  0  0  0  0  0  0
  196.0100  174.4010  146.0370 C   0  0  0  0  0  2  0  0  0  0  0  0
  197.2170  174.4920  143.3030 N   0  0  0  0  0  2  0  0  0  0  0  0
  1 13  2  0  0  0  0
  2  8  1  0  0  0  0
  2 14  1  0  0  0  0
  3 12  1  0  0  0  0
  3 18  2  0  0  0  0
  4 15  1  0  0  0  0
  4 10  2  0  0  0  0
  5 11  2  0  0  0  0
  5  6  1  0  0  0  0
  6  2  2  0  0  0  0
  7 18  1  0  0  0  0
  7  9  1  0  0  0  0
  8  1  1  1  0  0  0
  8  3  1  0  0  0  0
  9 17  2  0  0  0  0
 11  1  1  0  0  0  0
 12 16  1  0  0  0  0
 13 19  1  0  0  0  0
 14  7  2  0  0  0  0
 16 15  2  0  0  0  0
 17 10  1  0  0  0  0
 18  4  1  0  0  0  0
 19 12  2  0  0  0  0
 20 26  1  1  0  0  0
 21 20  1  0  0  0  0
 22 16  1  1  0  0  0
 22 24  1  0  0  0  0
 23 21  1  0  0  0  0
 24 20  1  0  0  0  0
 25 22  1  0  0  0  0
 25 23  1  0  0  0  0
 27  9  1  0  0  0  0
 29 27  1  6  0  0  0
 29 33  1  0  0  0  0
 30 28  1  6  0  0  0
 30 29  1  0  0  0  0
 31 32  1  0  0  0  0
 32 33  1  0  0  0  0
 34 30  1  0  0  0  0
 34 31  1  0  0  0  0
M  END
>  <MODEL>
3

>  <REMARK>
 VINA RESULT:      -9.0      1.085      1.435
  Name = 
  3 active torsions:
  status: ('A' for Active; 'I' for Inactive)
    1  A    between atoms: C_3  and  C_13
    2  A    between atoms: C_3  and  C_17
    3  A    between atoms: C_12  and  C_28
                            x       y       z     vdW  Elec       q    Type
                         _______ _______ _______ _____ _____    ______ ____

>  <TORSDO>
F 3

$$$$
=
 OpenBabel11052418453D

 34 40  0  0  1  0  0  0  0  0999 V2000
  192.0880  175.9340  146.0570 C   0  0  0  0  0  0  0  0  0  0  0  0
  192.4740  174.4510  144.1540 C   0  0  0  0  0  0  0  0  0  0  0  0
  190.3410  175.5630  144.4180 C   0  0  0  0  0  0  0  0  0  0  0  0
  188.5940  175.2020  142.7950 C   0  0  0  0  0  0  0  0  0  0  0  0
  194.2240  174.8200  145.7920 C   0  0  0  0  0  3  0  0  0  0  0  0
  193.7710  174.2050  144.6160 C   0  0  0  0  0  3  0  0  0  0  0  0
  190.7540  174.0950  142.5440 C   0  0  0  0  0  0  0  0  0  0  0  0
  191.6360  175.3170  144.8800 C   0  0  0  0  0  0  0  0  0  0  0  0
  190.2790  173.4780  141.2930 C   0  0  0  0  0  0  0  0  0  0  0  0
  188.0670  174.5320  141.5530 C   0  0  0  0  0  2  0  0  0  0  0  0
  193.3860  175.6830  146.5130 C   0  0  0  0  0  3  0  0  0  0  0  0
  189.5010  176.4280  145.1360 C   0  0  0  0  0  0  0  0  0  0  0  0
  191.2230  176.7910  146.7480 C   0  0  0  0  0  3  0  0  0  0  0  0
  192.0180  173.8660  143.0110 N   0  0  0  0  0  0  0  0  0  0  0  0
  187.7880  176.0410  143.5040 N   0  0  0  0  0  0  0  0  0  0  0  0
  188.1970  176.6600  144.6490 C   0  0  0  0  0  0  0  0  0  0  0  0
  189.0720  173.7080  140.8620 N   0  0  0  0  0  0  0  0  0  0  0  0
  189.8940  174.9480  143.2450 C   0  0  0  0  0  0  0  0  0  0  0  0
  189.9630  177.0170  146.2790 N   0  0  0  0  0  0  0  0  0  0  0  0
  185.5310  179.4230  145.0830 C   0  0  1  0  0  3  0  0  0  0  0  0
  185.0200  178.9350  146.4470 C   0  0  0  0  0  2  0  0  0  0  0  0
  187.2280  177.5670  145.3480 C   0  0  1  0  0  3  0  0  0  0  0  0
  184.9490  177.4120  146.5130 C   0  0  0  0  0  2  0  0  0  0  0  0
  186.4210  178.4080  144.3570 C   0  0  0  0  0  2  0  0  0  0  0  0
  186.3390  176.7910  146.3330 C   0  0  0  0  0  2  0  0  0  0  0  0
  184.4500  179.7570  144.2680 O   0  0  0  0  0  1  0  0  0  0  0  0
  191.1950  172.6240  140.4760 C   0  0  0  0  0  2  0  0  0  0  0  0
  190.8160  169.9650  141.7180 N   0  0  0  0  0  1  0  0  0  0  0  0
  190.4360  171.4760  139.8120 C   0  0  2  0  0  3  0  0  0  0  0  0
  190.9660  170.1120  140.2810 C   0  0  1  0  0  3  0  0  0  0  0  0
  192.7150  170.4150  138.5640 C   0  0  0  0  0  2  0  0  0  0  0  0
  191.4990  170.5960  137.6570 C   0  0  0  0  0  2  0  0  0  0  0  0
  190.5140  171.5870  138.2810 C   0  0  0  0  0  2  0  0  0  0  0  0
  192.3690  169.8860  139.8960 N   0  0  0  0  0  2  0  0  0  0  0  0
  1 11  2  0  0  0  0
  1 13  1  0  0  0  0
  2  6  1  0  0  0  0
  2  8  1  0  0  0  0
  3  8  2  0  0  0  0
  3 12  1  0  0  0  0
  4 18  1  0  0  0  0
  4 15  2  0  0  0  0
  5 11  1  0  0  0  0
  6  5  2  0  0  0  0
  7 14  1  0  0  0  0
  7 18  2  0  0  0  0
  8  1  1  0  0  0  0
  9  7  1  0  0  0  0
 10  4  1  0  0  0  0
 12 19  1  0  0  0  0
 14  2  2  0  0  0  0
 15 16  1  0  0  0  0
 16 12  2  0  0  0  0
 17  9  2  0  0  0  0
 17 10  1  0  0  0  0
 18  3  1  0  0  0  0
 19 13  2  0  0  0  0
 20 26  1  6  0  0  0
 20 21  1  0  0  0  0
 21 23  1  0  0  0  0
 22 16  1  6  0  0  0
 22 25  1  0  0  0  0
 24 20  1  0  0  0  0
 24 22  1  0  0  0  0
 25 23  1  0  0  0  0
 27  9  1  0  0  0  0
 29 30  1  0  0  0  0
 29 27  1  1  0  0  0
 30 28  1  1  0  0  0
 31 34  1  0  0  0  0
 32 33  1  0  0  0  0
 32 31  1  0  0  0  0
 33 29  1  0  0  0  0
 34 30  1  0  0  0  0
M  END
>  <MODEL>
4

>  <REMARK>
 VINA RESULT:      -8.9      2.084      5.270
  Name = 
  3 active torsions:
  status: ('A' for Active; 'I' for Inactive)
    1  A    between atoms: C_3  and  C_13
    2  A    between atoms: C_3  and  C_17
    3  A    between atoms: C_12  and  C_28
                            x       y       z     vdW  Elec       q    Type
                         _______ _______ _______ _____ _____    ______ ____

>  <TORSDO>
F 3

$$$$
=
 OpenBabel11052418453D

 34 40  0  0  1  0  0  0  0  0999 V2000
  190.5480  173.4780  140.6820 C   0  0  0  0  0  0  0  0  0  0  0  0
  188.9100  175.0540  141.5800 C   0  0  0  0  0  0  0  0  0  0  0  0
  190.8430  174.4260  142.8930 C   0  0  0  0  0  0  0  0  0  0  0  0
  191.1490  175.3610  145.0950 C   0  0  0  0  0  0  0  0  0  0  0  0
  188.6110  174.1070  139.3670 C   0  0  0  0  0  3  0  0  0  0  0  0
  188.1670  174.9450  140.4000 C   0  0  0  0  0  3  0  0  0  0  0  0
  189.2100  175.9860  143.7530 C   0  0  0  0  0  0  0  0  0  0  0  0
  190.1010  174.3160  141.7150 C   0  0  2  0  0  3  0  0  0  0  0  0
  188.7680  176.8870  144.8310 C   0  0  0  0  0  0  0  0  0  0  0  0
  190.6820  176.2270  146.2350 C   0  0  0  0  0  3  0  0  0  0  0  0
  189.7990  173.3740  139.5060 C   0  0  0  0  0  3  0  0  0  0  0  0
  192.0340  173.6950  143.0340 C   0  0  0  0  0  0  0  0  0  0  0  0
  191.7390  172.7640  140.8560 C   0  0  0  0  0  3  0  0  0  0  0  0
  188.4960  175.8660  142.5930 N   0  0  0  0  0  0  0  0  0  0  0  0
  192.3010  174.6440  145.2200 N   0  0  0  0  0  0  0  0  0  0  0  0
  192.7660  173.8230  144.2340 C   0  0  0  0  0  0  0  0  0  0  0  0
  189.4610  176.9890  145.9290 N   0  0  0  0  0  0  0  0  0  0  0  0
  190.3970  175.2620  143.9210 C   0  0  0  0  0  0  0  0  0  0  0  0
  192.4490  172.8860  142.0150 N   0  0  0  0  0  0  0  0  0  0  0  0
  196.3680  173.1800  145.4730 C   0  0  1  0  0  3  0  0  0  0  0  0
  196.2710  171.6480  145.4520 C   0  0  0  0  0  2  0  0  0  0  0  0
  194.0470  173.0810  144.4750 C   0  0  1  0  0  3  0  0  0  0  0  0
  194.9090  171.1610  145.9390 C   0  0  0  0  0  2  0  0  0  0  0  0
  195.0150  173.8890  145.3430 C   0  0  0  0  0  2  0  0  0  0  0  0
  193.7870  171.6700  145.0280 C   0  0  0  0  0  2  0  0  0  0  0  0
  196.9960  173.5960  146.6470 O   0  0  0  0  0  1  0  0  0  0  0  0
  187.5480  177.7330  144.6560 C   0  0  0  0  0  2  0  0  0  0  0  0
  185.5510  177.4910  142.4850 N   0  0  0  0  0  1  0  0  0  0  0  0
  186.2740  176.8960  144.7620 C   0  0  2  0  0  3  0  0  0  0  0  0
  185.1540  177.4720  143.8820 C   0  0  1  0  0  3  0  0  0  0  0  0
  184.7210  179.0090  145.7660 C   0  0  0  0  0  2  0  0  0  0  0  0
  184.6150  177.6960  146.5400 C   0  0  0  0  0  2  0  0  0  0  0  0
  185.8110  176.7950  146.2250 C   0  0  0  0  0  2  0  0  0  0  0  0
  184.7360  178.8190  144.3040 N   0  0  0  0  0  2  0  0  0  0  0  0
  1 13  2  0  0  0  0
  2  8  1  0  0  0  0
  2 14  1  0  0  0  0
  3 12  1  0  0  0  0
  3 18  2  0  0  0  0
  4 15  1  0  0  0  0
  4 10  2  0  0  0  0
  5 11  2  0  0  0  0
  5  6  1  0  0  0  0
  6  2  2  0  0  0  0
  7 18  1  0  0  0  0
  7  9  1  0  0  0  0
  8  1  1  6  0  0  0
  8  3  1  0  0  0  0
  9 17  2  0  0  0  0
 11  1  1  0  0  0  0
 12 16  1  0  0  0  0
 13 19  1  0  0  0  0
 14  7  2  0  0  0  0
 16 15  2  0  0  0  0
 17 10  1  0  0  0  0
 18  4  1  0  0  0  0
 19 12  2  0  0  0  0
 20 26  1  1  0  0  0
 21 20  1  0  0  0  0
 21 23  1  0  0  0  0
 22 16  1  1  0  0  0
 22 25  1  0  0  0  0
 22 24  1  0  0  0  0
 24 20  1  0  0  0  0
 25 23  1  0  0  0  0
 27  9  1  0  0  0  0
 29 27  1  1  0  0  0
 29 33  1  0  0  0  0
 30 28  1  6  0  0  0
 30 34  1  0  0  0  0
 30 29  1  0  0  0  0
 31 32  1  0  0  0  0
 33 32  1  0  0  0  0
 34 31  1  0  0  0  0
M  END
>  <MODEL>
5

>  <REMARK>
 VINA RESULT:      -8.9      2.877      8.064
  Name = 
  3 active torsions:
  status: ('A' for Active; 'I' for Inactive)
    1  A    between atoms: C_3  and  C_13
    2  A    between atoms: C_3  and  C_17
    3  A    between atoms: C_12  and  C_28
                            x       y       z     vdW  Elec       q    Type
                         _______ _______ _______ _____ _____    ______ ____

>  <TORSDO>
F 3

$$$$
=
 OpenBabel11052418453D

 34 40  0  0  1  0  0  0  0  0999 V2000
  191.0980  173.8370  141.5950 C   0  0  0  0  0  0  0  0  0  0  0  0
  189.0180  174.8430  142.3910 C   0  0  0  0  0  0  0  0  0  0  0  0
  190.9360  174.6880  143.8580 C   0  0  0  0  0  0  0  0  0  0  0  0
  190.7890  175.5320  146.1130 C   0  0  0  0  0  0  0  0  0  0  0  0
  189.1760  173.9900  140.1260 C   0  0  0  0  0  3  0  0  0  0  0  0
  188.4330  174.6080  141.1430 C   0  0  0  0  0  3  0  0  0  0  0  0
  188.8690  175.6830  144.6160 C   0  0  0  0  0  0  0  0  0  0  0  0
  190.3520  174.4530  142.6120 C   0  0  2  0  0  3  0  0  0  0  0  0
  188.1060  176.3590  145.6800 C   0  0  0  0  0  0  0  0  0  0  0  0
  190.0070  176.1640  147.2350 C   0  0  0  0  0  3  0  0  0  0  0  0
  190.5060  173.6040  140.3500 C   0  0  0  0  0  3  0  0  0  0  0  0
  192.2680  174.3050  144.0850 C   0  0  0  0  0  0  0  0  0  0  0  0
  192.4230  173.4670  141.8560 C   0  0  0  0  0  3  0  0  0  0  0  0
  188.3130  175.4450  143.3900 N   0  0  0  0  0  0  0  0  0  0  0  0
  192.0810  175.1520  146.3200 N   0  0  0  0  0  0  0  0  0  0  0  0
  192.8350  174.5540  145.3530 C   0  0  0  0  0  0  0  0  0  0  0  0
  188.6510  176.5790  146.8420 N   0  0  0  0  0  0  0  0  0  0  0  0
  190.1920  175.3040  144.8690 C   0  0  0  0  0  0  0  0  0  0  0  0
  192.9730  173.7070  143.0800 N   0  0  0  0  0  0  0  0  0  0  0  0
  195.9650  172.3230  145.7480 C   0  0  1  0  0  3  0  0  0  0  0  0
  196.9790  173.4770  145.7630 C   0  0  0  0  0  2  0  0  0  0  0  0
  194.2480  174.1790  145.6870 C   0  0  1  0  0  3  0  0  0  0  0  0
  196.6080  174.5690  144.7640 C   0  0  0  0  0  2  0  0  0  0  0  0
  194.5630  172.7370  145.2830 C   0  0  0  0  0  2  0  0  0  0  0  0
  195.2510  175.1920  145.1110 C   0  0  0  0  0  2  0  0  0  0  0  0
  196.4360  171.2940  144.9330 O   0  0  0  0  0  1  0  0  0  0  0  0
  186.7170  176.8470  145.4210 C   0  0  0  0  0  2  0  0  0  0  0  0
  185.5010  178.8040  147.2790 N   0  0  0  0  0  1  0  0  0  0  0  0
  186.6990  178.3560  145.1750 C   0  0  2  0  0  3  0  0  0  0  0  0
  185.4810  179.0140  145.8410 C   0  0  1  0  0  3  0  0  0  0  0  0
  184.2370  178.3150  143.8260 C   0  0  0  0  0  2  0  0  0  0  0  0
  185.3530  179.0880  143.1250 C   0  0  0  0  0  2  0  0  0  0  0  0
  186.7180  178.6600  143.6680 C   0  0  0  0  0  2  0  0  0  0  0  0
  184.2030  178.5420  145.2820 N   0  0  0  0  0  2  0  0  0  0  0  0
  1 13  2  0  0  0  0
  2  8  1  0  0  0  0
  2 14  1  0  0  0  0
  3 12  1  0  0  0  0
  3 18  2  0  0  0  0
  4 15  1  0  0  0  0
  4 10  2  0  0  0  0
  5 11  2  0  0  0  0
  5  6  1  0  0  0  0
  6  2  2  0  0  0  0
  7 18  1  0  0  0  0
  7  9  1  0  0  0  0
  8  1  1  6  0  0  0
  8  3  1  0  0  0  0
  9 17  2  0  0  0  0
 11  1  1  0  0  0  0
 12 16  1  0  0  0  0
 13 19  1  0  0  0  0
 14  7  2  0  0  0  0
 16 15  2  0  0  0  0
 17 10  1  0  0  0  0
 18  4  1  0  0  0  0
 19 12  2  0  0  0  0
 20 26  1  6  0  0  0
 20 21  1  0  0  0  0
 22 16  1  6  0  0  0
 23 25  1  0  0  0  0
 23 21  1  0  0  0  0
 24 22  1  0  0  0  0
 24 20  1  0  0  0  0
 25 22  1  0  0  0  0
 27  9  1  0  0  0  0
 29 27  1  6  0  0  0
 29 30  1  0  0  0  0
 30 28  1  1  0  0  0
 31 34  1  0  0  0  0
 32 33  1  0  0  0  0
 32 31  1  0  0  0  0
 33 29  1  0  0  0  0
 34 30  1  0  0  0  0
M  END
>  <MODEL>
6

>  <REMARK>
 VINA RESULT:      -8.9      2.928      8.165
  Name = 
  3 active torsions:
  status: ('A' for Active; 'I' for Inactive)
    1  A    between atoms: C_3  and  C_13
    2  A    between atoms: C_3  and  C_17
    3  A    between atoms: C_12  and  C_28
                            x       y       z     vdW  Elec       q    Type
                         _______ _______ _______ _____ _____    ______ ____

>  <TORSDO>
F 3

$$$$
=
 OpenBabel11052418453D

 34 40  0  0  1  0  0  0  0  0999 V2000
  192.0030  176.2960  146.3020 C   0  0  0  0  0  0  0  0  0  0  0  0
  192.5890  174.8590  144.4140 C   0  0  0  0  0  0  0  0  0  0  0  0
  190.3680  175.8050  144.5820 C   0  0  0  0  0  0  0  0  0  0  0  0
  188.7320  175.3240  142.8760 C   0  0  0  0  0  0  0  0  0  0  0  0
  194.2280  175.3480  146.1350 C   0  0  0  0  0  3  0  0  0  0  0  0
  193.8780  174.7090  144.9360 C   0  0  0  0  0  3  0  0  0  0  0  0
  190.9780  174.3850  142.7240 C   0  0  0  0  0  0  0  0  0  0  0  0
  191.6550  175.6540  145.1030 C   0  0  0  0  0  0  0  0  0  0  0  0
  190.6110  173.7430  141.4500 C   0  0  0  0  0  0  0  0  0  0  0  0
  188.3160  174.6240  141.6080 C   0  0  0  0  0  2  0  0  0  0  0  0
  193.2930  176.1400  146.8180 C   0  0  0  0  0  3  0  0  0  0  0  0
  189.4310  176.5990  145.2620 C   0  0  0  0  0  0  0  0  0  0  0  0
  191.0440  177.0800  146.9540 C   0  0  0  0  0  3  0  0  0  0  0  0
  192.2330  174.2490  143.2490 N   0  0  0  0  0  0  0  0  0  0  0  0
  187.8320  176.0950  143.5490 N   0  0  0  0  0  0  0  0  0  0  0  0
  188.1380  176.7350  144.7140 C   0  0  0  0  0  0  0  0  0  0  0  0
  189.4120  173.8840  140.9630 N   0  0  0  0  0  0  0  0  0  0  0  0
  190.0240  175.1660  143.3860 C   0  0  0  0  0  0  0  0  0  0  0  0
  189.7930  177.2130  146.4270 N   0  0  0  0  0  0  0  0  0  0  0  0
  185.1980  179.2230  145.0200 C   0  0  1  0  0  3  0  0  0  0  0  0
  184.7200  178.7330  146.3950 C   0  0  0  0  0  2  0  0  0  0  0  0
  187.0720  177.5610  145.3700 C   0  0  1  0  0  3  0  0  0  0  0  0
  184.8040  177.2130  146.5130 C   0  0  0  0  0  2  0  0  0  0  0  0
  186.1980  178.2810  144.3400 C   0  0  0  0  0  2  0  0  0  0  0  0
  186.2510  176.7320  146.3710 C   0  0  0  0  0  2  0  0  0  0  0  0
  184.1010  179.4170  144.1810 O   0  0  0  0  0  1  0  0  0  0  0  0
  191.6270  172.9660  140.6750 C   0  0  0  0  0  2  0  0  0  0  0  0
  190.7650  172.6510  137.8610 N   0  0  0  0  0  1  0  0  0  0  0  0
  192.1880  173.7910  139.5160 C   0  0  2  0  0  3  0  0  0  0  0  0
  192.1330  173.0060  138.1960 C   0  0  1  0  0  3  0  0  0  0  0  0
  194.2470  171.9710  138.9440 C   0  0  0  0  0  2  0  0  0  0  0  0
  194.6790  173.4320  139.0560 C   0  0  0  0  0  2  0  0  0  0  0  0
  193.6260  174.2410  139.8170 C   0  0  0  0  0  2  0  0  0  0  0  0
  192.9750  171.7980  138.2190 N   0  0  0  0  0  2  0  0  0  0  0  0
  1 11  2  0  0  0  0
  1 13  1  0  0  0  0
  2  6  1  0  0  0  0
  2  8  1  0  0  0  0
  3  8  2  0  0  0  0
  3 12  1  0  0  0  0
  4 18  1  0  0  0  0
  4 15  2  0  0  0  0
  5 11  1  0  0  0  0
  6  5  2  0  0  0  0
  7 14  1  0  0  0  0
  7 18  2  0  0  0  0
  8  1  1  0  0  0  0
  9  7  1  0  0  0  0
 10  4  1  0  0  0  0
 12 19  1  0  0  0  0
 14  2  2  0  0  0  0
 15 16  1  0  0  0  0
 16 12  2  0  0  0  0
 17  9  2  0  0  0  0
 17 10  1  0  0  0  0
 18  3  1  0  0  0  0
 19 13  2  0  0  0  0
 20 26  1  6  0  0  0
 20 21  1  0  0  0  0
 21 23  1  0  0  0  0
 22 16  1  6  0  0  0
 22 25  1  0  0  0  0
 24 20  1  0  0  0  0
 24 22  1  0  0  0  0
 25 23  1  0  0  0  0
 27  9  1  0  0  0  0
 29 33  1  0  0  0  0
 29 27  1  1  0  0  0
 30 28  1  1  0  0  0
 30 34  1  0  0  0  0
 30 29  1  0  0  0  0
 31 32  1  0  0  0  0
 32 33  1  0  0  0  0
 34 31  1  0  0  0  0
M  END
>  <MODEL>
7

>  <REMARK>
 VINA RESULT:      -8.7      2.119      4.757
  Name = 
  3 active torsions:
  status: ('A' for Active; 'I' for Inactive)
    1  A    between atoms: C_3  and  C_13
    2  A    between atoms: C_3  and  C_17
    3  A    between atoms: C_12  and  C_28
                            x       y       z     vdW  Elec       q    Type
                         _______ _______ _______ _____ _____    ______ ____

>  <TORSDO>
F 3

$$$$
=
 OpenBabel11052418453D

 34 40  0  0  1  0  0  0  0  0999 V2000
  191.7470  175.8400  146.9560 C   0  0  0  0  0  0  0  0  0  0  0  0
  189.8260  177.1040  146.1310 C   0  0  0  0  0  0  0  0  0  0  0  0
  190.7970  175.3460  144.7810 C   0  0  0  0  0  0  0  0  0  0  0  0
  189.8610  174.8450  142.6160 C   0  0  0  0  0  0  0  0  0  0  0  0
  190.7750  177.6010  148.3070 C   0  0  0  0  0  3  0  0  0  0  0  0
  189.8210  177.8560  147.3110 C   0  0  0  0  0  3  0  0  0  0  0  0
  188.8930  176.6100  143.9950 C   0  0  0  0  0  0  0  0  0  0  0  0
  190.7930  176.0970  145.9590 C   0  0  0  0  0  0  0  0  0  0  0  0
  187.8770  176.8490  142.9550 C   0  0  0  0  0  0  0  0  0  0  0  0
  188.8710  175.1160  141.5130 C   0  0  0  0  0  2  0  0  0  0  0  0
  191.7370  176.5960  148.1320 C   0  0  0  0  0  3  0  0  0  0  0  0
  191.7570  174.3380  144.6040 C   0  0  0  0  0  0  0  0  0  0  0  0
  192.6910  174.8270  146.7450 C   0  0  0  0  0  3  0  0  0  0  0  0
  188.9050  177.3350  145.1530 N   0  0  0  0  0  0  0  0  0  0  0  0
  190.8010  173.8720  142.4550 N   0  0  0  0  0  0  0  0  0  0  0  0
  191.7400  173.5930  143.4050 C   0  0  0  0  0  0  0  0  0  0  0  0
  187.8800  176.1480  141.8580 N   0  0  0  0  0  0  0  0  0  0  0  0
  189.8450  175.6030  143.7900 C   0  0  0  0  0  0  0  0  0  0  0  0
  192.6760  174.1060  145.5870 N   0  0  0  0  0  0  0  0  0  0  0  0
  193.4680  170.1510  143.7040 C   0  0  1  0  0  3  0  0  0  0  0  0
  194.1560  170.2000  142.3320 C   0  0  0  0  0  2  0  0  0  0  0  0
  192.7260  172.4980  143.1260 C   0  0  1  0  0  3  0  0  0  0  0  0
  193.2500  170.8120  141.2670 C   0  0  0  0  0  2  0  0  0  0  0  0
  192.3840  171.2190  143.8920 C   0  0  0  0  0  2  0  0  0  0  0  0
  192.8950  172.2610  141.6160 C   0  0  0  0  0  2  0  0  0  0  0  0
  192.9120  168.8880  143.9070 O   0  0  0  0  0  1  0  0  0  0  0  0
  186.7980  177.8610  143.1720 C   0  0  0  0  0  2  0  0  0  0  0  0
  184.2100  178.3440  141.8210 N   0  0  0  0  0  1  0  0  0  0  0  0
  185.4860  177.1930  143.5840 C   0  0  2  0  0  3  0  0  0  0  0  0
  184.2790  178.0820  143.2480 C   0  0  1  0  0  3  0  0  0  0  0  0
  184.7710  179.2290  145.3790 C   0  0  0  0  0  2  0  0  0  0  0  0
  184.6630  177.8070  145.9280 C   0  0  0  0  0  2  0  0  0  0  0  0
  185.5010  176.8460  145.0810 C   0  0  0  0  0  2  0  0  0  0  0  0
  184.2850  179.3520  143.9930 N   0  0  0  0  0  2  0  0  0  0  0  0
  1 11  2  0  0  0  0
  2  6  1  0  0  0  0
  3  8  2  0  0  0  0
  4 18  1  0  0  0  0
  6  5  2  0  0  0  0
  7 14  1  0  0  0  0
  8  2  1  0  0  0  0
  8  1  1  0  0  0  0
  9 27  1  0  0  0  0
  9  7  1  0  0  0  0
 10 17  1  0  0  0  0
 10  4  1  0  0  0  0
 11  5  1  0  0  0  0
 12  3  1  0  0  0  0
 12 19  1  0  0  0  0
 13  1  1  0  0  0  0
 14  2  2  0  0  0  0
 15  4  2  0  0  0  0
 15 16  1  0  0  0  0
 16 12  2  0  0  0  0
 17  9  2  0  0  0  0
 18  7  2  0  0  0  0
 18  3  1  0  0  0  0
 19 13  2  0  0  0  0
 20 24  1  0  0  0  0
 20 26  1  6  0  0  0
 21 20  1  0  0  0  0
 22 16  1  6  0  0  0
 22 24  1  0  0  0  0
 23 25  1  0  0  0  0
 23 21  1  0  0  0  0
 25 22  1  0  0  0  0
 29 27  1  1  0  0  0
 29 33  1  0  0  0  0
 30 28  1  6  0  0  0
 30 29  1  0  0  0  0
 30 34  1  0  0  0  0
 31 32  1  0  0  0  0
 33 32  1  0  0  0  0
 34 31  1  0  0  0  0
M  END
>  <MODEL>
8

>  <REMARK>
 VINA RESULT:      -8.3      3.300      8.865
  Name = 
  3 active torsions:
  status: ('A' for Active; 'I' for Inactive)
    1  A    between atoms: C_3  and  C_13
    2  A    between atoms: C_3  and  C_17
    3  A    between atoms: C_12  and  C_28
                            x       y       z     vdW  Elec       q    Type
                         _______ _______ _______ _____ _____    ______ ____

>  <TORSDO>
F 3

$$$$
=
 OpenBabel11052418453D

 34 40  0  0  1  0  0  0  0  0999 V2000
  186.6280  177.1760  146.3110 C   0  0  0  0  0  0  0  0  0  0  0  0
  184.9060  178.2090  144.9170 C   0  0  0  0  0  0  0  0  0  0  0  0
  186.7540  177.0270  143.8950 C   0  0  0  0  0  0  0  0  0  0  0  0
  186.8900  176.8710  141.4920 C   0  0  0  0  0  0  0  0  0  0  0  0
  184.7780  178.3610  147.3350 C   0  0  0  0  0  3  0  0  0  0  0  0
  184.2490  178.6530  146.0690 C   0  0  0  0  0  3  0  0  0  0  0  0
  185.0340  178.0530  142.5430 C   0  0  0  0  0  0  0  0  0  0  0  0
  186.0980  177.4710  145.0450 C   0  0  0  0  0  0  0  0  0  0  0  0
  184.4690  178.3290  141.2100 C   0  0  0  0  0  0  0  0  0  0  0  0
  186.3650  177.1960  140.1180 C   0  0  0  0  0  2  0  0  0  0  0  0
  185.9660  177.6240  147.4570 C   0  0  0  0  0  3  0  0  0  0  0  0
  187.9410  176.2870  144.0140 C   0  0  0  0  0  0  0  0  0  0  0  0
  187.8140  176.4370  146.3920 C   0  0  0  0  0  3  0  0  0  0  0  0
  184.4050  178.4800  143.6790 N   0  0  0  0  0  0  0  0  0  0  0  0
  188.0440  176.1570  141.6220 N   0  0  0  0  0  0  0  0  0  0  0  0
  188.5850  175.8500  142.8370 C   0  0  0  0  0  0  0  0  0  0  0  0
  185.0800  177.9140  140.1380 N   0  0  0  0  0  0  0  0  0  0  0  0
  186.2230  177.3200  142.6350 C   0  0  0  0  0  0  0  0  0  0  0  0
  188.4380  176.0130  145.2560 N   0  0  0  0  0  0  0  0  0  0  0  0
  191.0980  173.0550  141.9420 C   0  0  1  0  0  3  0  0  0  0  0  0
  192.3470  173.8060  142.4280 C   0  0  0  0  0  2  0  0  0  0  0  0
  189.8570  175.0560  142.8650 C   0  0  1  0  0  3  0  0  0  0  0  0
  192.2860  175.2910  142.0790 C   0  0  0  0  0  2  0  0  0  0  0  0
  189.8530  173.9410  141.8170 C   0  0  0  0  0  2  0  0  0  0  0  0
  191.0920  175.9660  142.7630 C   0  0  0  0  0  2  0  0  0  0  0  0
  191.3610  172.4510  140.7140 O   0  0  0  0  0  1  0  0  0  0  0  0
  183.1610  179.0410  141.0760 C   0  0  0  0  0  2  0  0  0  0  0  0
  181.6380  177.1630  139.3680 N   0  0  0  0  0  1  0  0  0  0  0  0
  182.0060  178.1760  141.5820 C   0  0  2  0  0  3  0  0  0  0  0  0
  181.0000  177.8790  140.4600 C   0  0  1  0  0  3  0  0  0  0  0  0
  180.0400  180.0910  140.9910 C   0  0  0  0  0  2  0  0  0  0  0  0
  179.9640  179.4890  142.3930 C   0  0  0  0  0  2  0  0  0  0  0  0
  181.3040  178.8520  142.7710 C   0  0  0  0  0  2  0  0  0  0  0  0
  180.3430  179.0930  139.9490 N   0  0  0  0  0  2  0  0  0  0  0  0
  1 13  1  0  0  0  0
  1 11  2  0  0  0  0
  2  8  1  0  0  0  0
  2  6  1  0  0  0  0
  3 12  1  0  0  0  0
  3  8  2  0  0  0  0
  4 15  2  0  0  0  0
  4 18  1  0  0  0  0
  5 11  1  0  0  0  0
  6  5  2  0  0  0  0
  7 18  2  0  0  0  0
  7 14  1  0  0  0  0
  8  1  1  0  0  0  0
  9  7  1  0  0  0  0
 10 17  1  0  0  0  0
 10  4  1  0  0  0  0
 12 19  1  0  0  0  0
 14  2  2  0  0  0  0
 15 16  1  0  0  0  0
 16 12  2  0  0  0  0
 17  9  2  0  0  0  0
 18  3  1  0  0  0  0
 19 13  2  0  0  0  0
 20 26  1  6  0  0  0
 20 21  1  0  0  0  0
 22 16  1  6  0  0  0
 23 21  1  0  0  0  0
 23 25  1  0  0  0  0
 24 20  1  0  0  0  0
 24 22  1  0  0  0  0
 25 22  1  0  0  0  0
 27  9  1  0  0  0  0
 29 27  1  6  0  0  0
 29 33  1  0  0  0  0
 30 28  1  6  0  0  0
 30 29  1  0  0  0  0
 31 32  1  0  0  0  0
 32 33  1  0  0  0  0
 34 30  1  0  0  0  0
 34 31  1  0  0  0  0
M  END
>  <MODEL>
9

>  <REMARK>
 VINA RESULT:      -8.1      3.954     10.110
  Name = 
  3 active torsions:
  status: ('A' for Active; 'I' for Inactive)
    1  A    between atoms: C_3  and  C_13
    2  A    between atoms: C_3  and  C_17
    3  A    between atoms: C_12  and  C_28
                            x       y       z     vdW  Elec       q    Type
                         _______ _______ _______ _____ _____    ______ ____

>  <TORSDO>
F 3

$$$$
