=
 OpenBabel11052418173D

 28 31  0  0  1  0  0  0  0  0999 V2000
  187.0650  178.1160  143.3450 C   0  0  1  0  0  3  0  0  0  0  0  0
  187.8540  176.8630  143.6560 C   0  0  1  0  0  3  0  0  0  0  0  0
  188.1410  177.6190  142.3730 C   0  0  1  0  0  3  0  0  0  0  0  0
  188.2240  175.4260  141.2150 C   0  0  0  0  0  1  0  0  0  0  0  0
  187.6220  176.8160  141.1870 C   0  0  0  0  0  2  0  0  0  0  0  0
  185.6360  177.7360  142.9760 C   0  0  0  0  0  2  0  0  0  0  0  0
  184.7710  178.0270  144.0650 O   0  0  0  0  0  0  0  0  0  0  0  0
  185.8310  176.7820  147.3770 C   0  0  0  0  0  3  0  0  0  0  0  0
  185.2050  178.0320  145.3920 C   0  0  0  0  0  0  0  0  0  0  0  0
  185.8920  179.2020  147.4100 C   0  0  0  0  0  0  0  0  0  0  0  0
  185.3950  176.8100  146.0480 C   0  0  0  0  0  3  0  0  0  0  0  0
  185.4570  179.2310  146.0820 C   0  0  0  0  0  3  0  0  0  0  0  0
  186.1340  180.3600  148.0680 F   0  0  0  0  0  0  0  0  0  0  0  0
  186.0790  177.9770  148.0570 C   0  0  0  0  0  3  0  0  0  0  0  0
  188.9330  177.1900  144.6790 C   0  0  0  0  0  2  0  0  0  0  0  0
  191.0730  175.7330  144.7350 C   0  0  2  0  0  0  0  0  0  0  0  0
  191.1240  175.8090  147.1320 N   0  0  0  0  0  0  0  0  0  0  0  0
  191.9230  176.0620  145.9380 C   0  0  0  0  0  2  0  0  0  0  0  0
  191.4270  176.8750  148.0700 C   0  0  0  0  0  1  0  0  0  0  0  0
  189.7250  175.9640  146.7400 C   0  0  2  0  0  3  0  0  0  0  0  0
  188.9050  174.8230  147.3130 C   0  0  0  0  0  1  0  0  0  0  0  0
  191.4130  176.5680  143.6660 O   0  0  0  0  0  1  0  0  0  0  0  0
  189.6420  175.9400  145.2220 C   0  0  1  0  0  3  0  0  0  0  0  0
  191.2960  174.2750  144.3470 C   0  0  0  0  0  2  0  0  0  0  0  0
  190.0350  173.6270  144.0220 N   0  0  0  0  0  0  0  0  0  0  0  0
  190.0850  172.2850  144.6200 C   0  0  0  0  0  2  0  0  0  0  0  0
  190.3690  172.4530  143.2020 C   0  0  1  0  0  3  0  0  0  0  0  0
  189.1540  172.0580  142.3910 C   0  0  0  0  0  1  0  0  0  0  0  0
  1  6  1  6  0  0  0
  1  2  1  0  0  0  0
  2 15  1  1  0  0  0
  3  5  1  6  0  0  0
  3  1  1  0  0  0  0
  3  2  1  0  0  0  0
  5  4  1  0  0  0  0
  6  7  1  0  0  0  0
  7  9  1  0  0  0  0
  8 14  1  0  0  0  0
  9 11  1  0  0  0  0
  9 12  2  0  0  0  0
 10 14  2  0  0  0  0
 10 13  1  0  0  0  0
 11  8  2  0  0  0  0
 12 10  1  0  0  0  0
 16 22  1  6  0  0  0
 16 23  1  0  0  0  0
 16 18  1  0  0  0  0
 17 19  1  0  0  0  0
 18 17  1  0  0  0  0
 20 17  1  0  0  0  0
 20 21  1  1  0  0  0
 23 15  1  6  0  0  0
 23 20  1  0  0  0  0
 24 16  1  0  0  0  0
 25 24  1  0  0  0  0
 25 26  1  0  0  0  0
 27 28  1  6  0  0  0
 27 25  1  0  0  0  0
 27 26  1  0  0  0  0
M  END
>  <MODEL>
1

>  <REMARK>
 VINA RESULT:      -7.2      0.000      0.000
  Name = 
  8 active torsions:
  status: ('A' for Active; 'I' for Inactive)
    1  A    between atoms: C_1  and  C_11
    2  A    between atoms: N_6  and  C_11
    3  A    between atoms: C_9  and  O_18
    4  A    between atoms: C_10  and  C_14
    5  A    between atoms: C_14  and  O_18
    6  A    between atoms: C_17  and  C_19
    7  A    between atoms: C_19  and  C_27
    8  A    between atoms: C_20  and  C_25
                            x       y       z     vdW  Elec       q    Type
                         _______ _______ _______ _____ _____    ______ ____

>  <TORSDO>
F 8

$$$$
=
 OpenBabel11052418173D

 28 31  0  0  1  0  0  0  0  0999 V2000
  185.5040  176.8440  146.1170 C   0  0  1  0  0  3  0  0  0  0  0  0
  186.9420  177.2500  146.3530 C   0  0  1  0  0  3  0  0  0  0  0  0
  185.9680  177.2650  147.5160 C   0  0  1  0  0  3  0  0  0  0  0  0
  186.9210  179.3850  148.3850 C   0  0  0  0  0  1  0  0  0  0  0  0
  185.6570  178.7080  147.8950 C   0  0  0  0  0  2  0  0  0  0  0  0
  184.7960  177.9310  145.3180 C   0  0  0  0  0  2  0  0  0  0  0  0
  185.6070  178.3140  144.2150 O   0  0  0  0  0  0  0  0  0  0  0  0
  183.3160  178.2340  141.3200 C   0  0  0  0  0  3  0  0  0  0  0  0
  185.1650  178.2400  142.8930 C   0  0  0  0  0  0  0  0  0  0  0  0
  185.5880  178.0320  140.5080 C   0  0  0  0  0  0  0  0  0  0  0  0
  183.7910  178.3040  142.6330 C   0  0  0  0  0  3  0  0  0  0  0  0
  186.0630  178.1030  141.8210 C   0  0  0  0  0  3  0  0  0  0  0  0
  186.4590  177.9010  139.4790 F   0  0  0  0  0  0  0  0  0  0  0  0
  184.2150  178.0970  140.2570 C   0  0  0  0  0  3  0  0  0  0  0  0
  187.8090  176.0010  146.4460 C   0  0  0  0  0  2  0  0  0  0  0  0
  189.8040  174.7410  145.3810 C   0  0  2  0  0  0  0  0  0  0  0  0
  189.1140  175.4020  143.1810 N   0  0  0  0  0  0  0  0  0  0  0  0
  189.4580  174.2440  143.9980 C   0  0  0  0  0  2  0  0  0  0  0  0
  187.9920  175.0060  142.3470 C   0  0  0  0  0  1  0  0  0  0  0  0
  188.6290  176.4330  144.0960 C   0  0  2  0  0  3  0  0  0  0  0  0
  189.2520  177.7690  143.7370 C   0  0  0  0  0  1  0  0  0  0  0  0
  189.4380  173.7890  146.3380 O   0  0  0  0  0  1  0  0  0  0  0  0
  189.0280  176.0480  145.5130 C   0  0  1  0  0  3  0  0  0  0  0  0
  191.3040  175.0050  145.4570 C   0  0  0  0  0  2  0  0  0  0  0  0
  191.5760  176.2540  146.1520 N   0  0  0  0  0  0  0  0  0  0  0  0
  192.9440  176.1530  146.6790 C   0  0  0  0  0  2  0  0  0  0  0  0
  191.8110  175.9050  147.5600 C   0  0  1  0  0  3  0  0  0  0  0  0
  191.5590  177.1260  148.4180 C   0  0  0  0  0  1  0  0  0  0  0  0
  1  6  1  6  0  0  0
  1  2  1  0  0  0  0
  1  3  1  0  0  0  0
  2 15  1  1  0  0  0
  2  3  1  0  0  0  0
  3  5  1  6  0  0  0
  5  4  1  0  0  0  0
  7  6  1  0  0  0  0
  8 11  1  0  0  0  0
  9  7  1  0  0  0  0
 10 12  2  0  0  0  0
 11  9  2  0  0  0  0
 12  9  1  0  0  0  0
 13 10  1  0  0  0  0
 14 10  1  0  0  0  0
 14  8  2  0  0  0  0
 16 24  1  0  0  0  0
 16 23  1  0  0  0  0
 16 22  1  1  0  0  0
 17 18  1  0  0  0  0
 17 20  1  0  0  0  0
 18 16  1  0  0  0  0
 19 17  1  0  0  0  0
 20 21  1  6  0  0  0
 20 23  1  0  0  0  0
 23 15  1  1  0  0  0
 24 25  1  0  0  0  0
 25 26  1  0  0  0  0
 25 27  1  0  0  0  0
 26 27  1  0  0  0  0
 27 28  1  1  0  0  0
M  END
>  <MODEL>
2

>  <REMARK>
 VINA RESULT:      -7.0      2.375      5.152
  Name = 
  8 active torsions:
  status: ('A' for Active; 'I' for Inactive)
    1  A    between atoms: C_1  and  C_11
    2  A    between atoms: N_6  and  C_11
    3  A    between atoms: C_9  and  O_18
    4  A    between atoms: C_10  and  C_14
    5  A    between atoms: C_14  and  O_18
    6  A    between atoms: C_17  and  C_19
    7  A    between atoms: C_19  and  C_27
    8  A    between atoms: C_20  and  C_25
                            x       y       z     vdW  Elec       q    Type
                         _______ _______ _______ _____ _____    ______ ____

>  <TORSDO>
F 8

$$$$
=
 OpenBabel11052418173D

 28 31  0  0  1  0  0  0  0  0999 V2000
  187.7270  176.4440  145.9720 C   0  0  1  0  0  3  0  0  0  0  0  0
  186.2250  176.4720  145.7950 C   0  0  1  0  0  3  0  0  0  0  0  0
  186.9590  177.7640  146.1020 C   0  0  1  0  0  3  0  0  0  0  0  0
  185.2460  178.7710  147.5880 C   0  0  0  0  0  1  0  0  0  0  0  0
  186.6460  178.1950  147.5290 C   0  0  0  0  0  2  0  0  0  0  0  0
  188.0680  175.7640  147.2920 C   0  0  0  0  0  2  0  0  0  0  0  0
  188.9710  174.6920  147.0550 O   0  0  0  0  0  0  0  0  0  0  0  0
  192.2330  174.2620  145.3780 C   0  0  0  0  0  3  0  0  0  0  0  0
  190.3110  174.8960  146.7170 C   0  0  0  0  0  0  0  0  0  0  0  0
  192.4210  176.0760  146.9700 C   0  0  0  0  0  0  0  0  0  0  0  0
  190.8950  174.0820  145.7400 C   0  0  0  0  0  3  0  0  0  0  0  0
  191.0820  175.8970  147.3320 C   0  0  0  0  0  3  0  0  0  0  0  0
  193.1590  177.0430  147.5660 F   0  0  0  0  0  0  0  0  0  0  0  0
  192.9960  175.2590  145.9930 C   0  0  0  0  0  3  0  0  0  0  0  0
  185.8940  176.4290  144.3090 C   0  0  0  0  0  2  0  0  0  0  0  0
  187.4730  177.0820  142.3650 C   0  0  2  0  0  0  0  0  0  0  0  0
  185.8140  178.5480  141.4420 N   0  0  0  0  0  0  0  0  0  0  0  0
  186.6900  177.4270  141.1210 C   0  0  0  0  0  2  0  0  0  0  0  0
  184.5520  178.2970  140.7700 C   0  0  0  0  0  1  0  0  0  0  0  0
  185.5590  178.4830  142.8790 C   0  0  2  0  0  3  0  0  0  0  0  0
  185.6960  179.8670  143.4850 C   0  0  0  0  0  1  0  0  0  0  0  0
  187.7360  175.7090  142.4000 O   0  0  0  0  0  1  0  0  0  0  0  0
  186.5780  177.5460  143.5100 C   0  0  1  0  0  3  0  0  0  0  0  0
  188.7830  177.8620  142.3650 C   0  0  0  0  0  2  0  0  0  0  0  0
  189.8440  177.0950  142.9990 N   0  0  0  0  0  0  0  0  0  0  0  0
  190.3630  177.9210  144.0980 C   0  0  0  0  0  2  0  0  0  0  0  0
  191.0800  177.8720  142.8310 C   0  0  1  0  0  3  0  0  0  0  0  0
  192.2670  176.9430  142.9560 C   0  0  0  0  0  1  0  0  0  0  0  0
  1  3  1  0  0  0  0
  1  6  1  1  0  0  0
  2 15  1  6  0  0  0
  2  1  1  0  0  0  0
  2  3  1  0  0  0  0
  3  5  1  1  0  0  0
  5  4  1  0  0  0  0
  7  6  1  0  0  0  0
  8 11  2  0  0  0  0
  8 14  1  0  0  0  0
  9  7  1  0  0  0  0
  9 12  2  0  0  0  0
 10 12  1  0  0  0  0
 10 13  1  0  0  0  0
 11  9  1  0  0  0  0
 14 10  2  0  0  0  0
 16 22  1  1  0  0  0
 16 23  1  0  0  0  0
 17 20  1  0  0  0  0
 18 17  1  0  0  0  0
 18 16  1  0  0  0  0
 19 17  1  0  0  0  0
 20 21  1  1  0  0  0
 20 23  1  0  0  0  0
 23 15  1  6  0  0  0
 24 16  1  0  0  0  0
 24 25  1  0  0  0  0
 25 26  1  0  0  0  0
 27 28  1  1  0  0  0
 27 25  1  0  0  0  0
 27 26  1  0  0  0  0
M  END
>  <MODEL>
3

>  <REMARK>
 VINA RESULT:      -6.8      2.775      6.129
  Name = 
  8 active torsions:
  status: ('A' for Active; 'I' for Inactive)
    1  A    between atoms: C_1  and  C_11
    2  A    between atoms: N_6  and  C_11
    3  A    between atoms: C_9  and  O_18
    4  A    between atoms: C_10  and  C_14
    5  A    between atoms: C_14  and  O_18
    6  A    between atoms: C_17  and  C_19
    7  A    between atoms: C_19  and  C_27
    8  A    between atoms: C_20  and  C_25
                            x       y       z     vdW  Elec       q    Type
                         _______ _______ _______ _____ _____    ______ ____

>  <TORSDO>
F 8

$$$$
=
 OpenBabel11052418173D

 28 31  0  0  1  0  0  0  0  0999 V2000
  189.5410  175.2760  146.8240 C   0  0  1  0  0  3  0  0  0  0  0  0
  190.3930  176.1020  145.8850 C   0  0  1  0  0  3  0  0  0  0  0  0
  190.7660  176.0300  147.3540 C   0  0  1  0  0  3  0  0  0  0  0  0
  191.5140  177.6570  149.0720 C   0  0  0  0  0  1  0  0  0  0  0  0
  190.4660  177.3690  148.0160 C   0  0  0  0  0  2  0  0  0  0  0  0
  188.2060  175.9770  147.0440 C   0  0  0  0  0  2  0  0  0  0  0  0
  187.6670  176.3760  145.7910 O   0  0  0  0  0  0  0  0  0  0  0  0
  184.3670  177.9270  146.3810 C   0  0  0  0  0  3  0  0  0  0  0  0
  186.5950  177.2650  145.6810 C   0  0  0  0  0  0  0  0  0  0  0  0
  185.5450  179.2360  144.7200 C   0  0  0  0  0  0  0  0  0  0  0  0
  185.4560  177.0540  146.4670 C   0  0  0  0  0  3  0  0  0  0  0  0
  186.6350  178.3630  144.8060 C   0  0  0  0  0  3  0  0  0  0  0  0
  185.5900  180.2930  143.8740 F   0  0  0  0  0  0  0  0  0  0  0  0
  184.4120  179.0170  145.5080 C   0  0  0  0  0  3  0  0  0  0  0  0
  191.3090  175.1780  145.0940 C   0  0  0  0  0  2  0  0  0  0  0  0
  190.8400  174.7620  142.5820 C   0  0  2  0  0  0  0  0  0  0  0  0
  191.3850  172.4380  142.8120 N   0  0  0  0  0  0  0  0  0  0  0  0
  191.6970  173.6390  142.0470 C   0  0  0  0  0  2  0  0  0  0  0  0
  192.6420  171.7440  143.0320 C   0  0  0  0  0  1  0  0  0  0  0  0
  190.9050  172.8840  144.1180 C   0  0  2  0  0  3  0  0  0  0  0  0
  189.6660  172.0970  144.5030 C   0  0  0  0  0  1  0  0  0  0  0  0
  191.5220  175.9780  142.4720 O   0  0  0  0  0  1  0  0  0  0  0  0
  190.5620  174.3630  144.0280 C   0  0  1  0  0  3  0  0  0  0  0  0
  189.5390  174.8210  141.7880 C   0  0  0  0  0  2  0  0  0  0  0  0
  188.7310  175.9570  142.2030 N   0  0  0  0  0  0  0  0  0  0  0  0
  187.3550  175.4620  142.3500 C   0  0  0  0  0  2  0  0  0  0  0  0
  187.7390  176.1730  141.1390 C   0  0  1  0  0  3  0  0  0  0  0  0
  187.2450  177.6020  141.2110 C   0  0  0  0  0  1  0  0  0  0  0  0
  1  6  1  1  0  0  0
  1  3  1  0  0  0  0
  2 15  1  6  0  0  0
  2  1  1  0  0  0  0
  2  3  1  0  0  0  0
  3  5  1  1  0  0  0
  5  4  1  0  0  0  0
  7  6  1  0  0  0  0
  8 11  1  0  0  0  0
  9  7  1  0  0  0  0
  9 11  2  0  0  0  0
 10 12  2  0  0  0  0
 10 14  1  0  0  0  0
 12  9  1  0  0  0  0
 13 10  1  0  0  0  0
 14  8  2  0  0  0  0
 16 22  1  6  0  0  0
 16 23  1  0  0  0  0
 17 19  1  0  0  0  0
 17 20  1  0  0  0  0
 18 16  1  0  0  0  0
 18 17  1  0  0  0  0
 20 21  1  6  0  0  0
 23 20  1  0  0  0  0
 23 15  1  1  0  0  0
 24 25  1  0  0  0  0
 24 16  1  0  0  0  0
 25 26  1  0  0  0  0
 27 28  1  1  0  0  0
 27 25  1  0  0  0  0
 27 26  1  0  0  0  0
M  END
>  <MODEL>
4

>  <REMARK>
 VINA RESULT:      -6.6      2.015      4.456
  Name = 
  8 active torsions:
  status: ('A' for Active; 'I' for Inactive)
    1  A    between atoms: C_1  and  C_11
    2  A    between atoms: N_6  and  C_11
    3  A    between atoms: C_9  and  O_18
    4  A    between atoms: C_10  and  C_14
    5  A    between atoms: C_14  and  O_18
    6  A    between atoms: C_17  and  C_19
    7  A    between atoms: C_19  and  C_27
    8  A    between atoms: C_20  and  C_25
                            x       y       z     vdW  Elec       q    Type
                         _______ _______ _______ _____ _____    ______ ____

>  <TORSDO>
F 8

$$$$
=
 OpenBabel11052418173D

 28 31  0  0  1  0  0  0  0  0999 V2000
  188.4570  175.8020  141.9490 C   0  0  1  0  0  3  0  0  0  0  0  0
  189.4260  175.1480  142.9090 C   0  0  1  0  0  3  0  0  0  0  0  0
  189.0680  174.4340  141.6200 C   0  0  1  0  0  3  0  0  0  0  0  0
  188.9580  172.2390  142.7700 C   0  0  0  0  0  1  0  0  0  0  0  0
  188.1810  173.2360  141.9360 C   0  0  0  0  0  2  0  0  0  0  0  0
  187.0530  175.7570  142.5370 C   0  0  0  0  0  2  0  0  0  0  0  0
  187.1100  176.0500  143.9270 O   0  0  0  0  0  0  0  0  0  0  0  0
  184.8440  177.7890  146.2690 C   0  0  0  0  0  3  0  0  0  0  0  0
  186.3590  177.0720  144.5120 C   0  0  0  0  0  0  0  0  0  0  0  0
  185.5800  179.3730  144.5920 C   0  0  0  0  0  0  0  0  0  0  0  0
  185.6060  176.7870  145.6580 C   0  0  0  0  0  3  0  0  0  0  0  0
  186.3420  178.3720  143.9820 C   0  0  0  0  0  3  0  0  0  0  0  0
  185.5680  180.6250  144.0760 F   0  0  0  0  0  0  0  0  0  0  0  0
  184.8310  179.0810  145.7360 C   0  0  0  0  0  3  0  0  0  0  0  0
  190.7970  175.7920  142.7570 C   0  0  0  0  0  2  0  0  0  0  0  0
  192.0550  176.6880  144.8350 C   0  0  2  0  0  0  0  0  0  0  0  0
  191.0960  174.9780  146.2170 N   0  0  0  0  0  0  0  0  0  0  0  0
  191.2760  176.4200  146.1000 C   0  0  0  0  0  2  0  0  0  0  0  0
  189.7490  174.7630  146.7150 C   0  0  0  0  0  1  0  0  0  0  0  0
  191.1460  174.4370  144.8600 C   0  0  2  0  0  3  0  0  0  0  0  0
  192.0220  173.1990  144.8350 C   0  0  0  0  0  1  0  0  0  0  0  0
  191.6640  177.9100  144.2810 O   0  0  0  0  0  1  0  0  0  0  0  0
  191.7320  175.4960  143.9390 C   0  0  1  0  0  3  0  0  0  0  0  0
  193.5450  176.7180  145.1610 C   0  0  0  0  0  2  0  0  0  0  0  0
  194.3130  176.0260  144.1390 N   0  0  0  0  0  0  0  0  0  0  0  0
  195.3950  175.3150  144.8340 C   0  0  0  0  0  2  0  0  0  0  0  0
  195.6700  176.5890  144.1850 C   0  0  1  0  0  3  0  0  0  0  0  0
  196.3500  176.3430  142.8550 C   0  0  0  0  0  1  0  0  0  0  0  0
  1  6  1  1  0  0  0
  1  2  1  0  0  0  0
  2 15  1  6  0  0  0
  3  5  1  1  0  0  0
  3  1  1  0  0  0  0
  3  2  1  0  0  0  0
  5  4  1  0  0  0  0
  6  7  1  0  0  0  0
  7  9  1  0  0  0  0
  9 11  1  0  0  0  0
 10 14  2  0  0  0  0
 11  8  2  0  0  0  0
 12  9  2  0  0  0  0
 12 10  1  0  0  0  0
 13 10  1  0  0  0  0
 14  8  1  0  0  0  0
 16 22  1  6  0  0  0
 16 24  1  0  0  0  0
 16 18  1  0  0  0  0
 17 19  1  0  0  0  0
 18 17  1  0  0  0  0
 20 21  1  1  0  0  0
 20 17  1  0  0  0  0
 23 15  1  6  0  0  0
 23 16  1  0  0  0  0
 23 20  1  0  0  0  0
 25 27  1  0  0  0  0
 25 26  1  0  0  0  0
 25 24  1  0  0  0  0
 27 28  1  6  0  0  0
 27 26  1  0  0  0  0
M  END
>  <MODEL>
5

>  <REMARK>
 VINA RESULT:      -6.6      2.269      3.590
  Name = 
  8 active torsions:
  status: ('A' for Active; 'I' for Inactive)
    1  A    between atoms: C_1  and  C_11
    2  A    between atoms: N_6  and  C_11
    3  A    between atoms: C_9  and  O_18
    4  A    between atoms: C_10  and  C_14
    5  A    between atoms: C_14  and  O_18
    6  A    between atoms: C_17  and  C_19
    7  A    between atoms: C_19  and  C_27
    8  A    between atoms: C_20  and  C_25
                            x       y       z     vdW  Elec       q    Type
                         _______ _______ _______ _____ _____    ______ ____

>  <TORSDO>
F 8

$$$$
=
 OpenBabel11052418173D

 28 31  0  0  1  0  0  0  0  0999 V2000
  188.8130  175.6690  141.8370 C   0  0  1  0  0  3  0  0  0  0  0  0
  188.5970  174.5440  142.8250 C   0  0  1  0  0  3  0  0  0  0  0  0
  189.1080  174.2190  141.4340 C   0  0  1  0  0  3  0  0  0  0  0  0
  188.6170  172.7680  139.4820 C   0  0  0  0  0  1  0  0  0  0  0  0
  188.0050  173.5310  140.6390 C   0  0  0  0  0  2  0  0  0  0  0  0
  187.4630  176.2050  141.3770 C   0  0  0  0  0  2  0  0  0  0  0  0
  187.3880  177.5980  141.6470 O   0  0  0  0  0  0  0  0  0  0  0  0
  185.5650  179.6190  144.1440 C   0  0  0  0  0  3  0  0  0  0  0  0
  186.3260  178.1740  142.3480 C   0  0  0  0  0  0  0  0  0  0  0  0
  183.9480  178.5110  142.7230 C   0  0  0  0  0  0  0  0  0  0  0  0
  186.6060  179.0260  143.4230 C   0  0  0  0  0  3  0  0  0  0  0  0
  184.9890  177.9190  142.0010 C   0  0  0  0  0  3  0  0  0  0  0  0
  182.6610  178.2620  142.3820 F   0  0  0  0  0  0  0  0  0  0  0  0
  184.2360  179.3610  143.7940 C   0  0  0  0  0  3  0  0  0  0  0  0
  189.7620  174.5040  143.8050 C   0  0  0  0  0  2  0  0  0  0  0  0
  189.6380  175.0350  146.3350 C   0  0  2  0  0  0  0  0  0  0  0  0
  191.4690  176.5740  146.1540 N   0  0  0  0  0  0  0  0  0  0  0  0
  190.9980  175.4020  146.8810 C   0  0  0  0  0  2  0  0  0  0  0  0
  192.8910  176.3820  145.9270 C   0  0  0  0  0  1  0  0  0  0  0  0
  190.8160  176.5490  144.8470 C   0  0  2  0  0  3  0  0  0  0  0  0
  190.2970  177.9330  144.5080 C   0  0  0  0  0  1  0  0  0  0  0  0
  189.4540  173.6510  146.4000 O   0  0  0  0  0  1  0  0  0  0  0  0
  189.6540  175.5690  144.9060 C   0  0  1  0  0  3  0  0  0  0  0  0
  188.5630  175.7420  147.1540 C   0  0  0  0  0  2  0  0  0  0  0  0
  187.5870  176.3810  146.2850 N   0  0  0  0  0  0  0  0  0  0  0  0
  187.3470  177.7230  146.8370 C   0  0  0  0  0  2  0  0  0  0  0  0
  186.4030  176.6490  147.1130 C   0  0  1  0  0  3  0  0  0  0  0  0
  185.1950  176.7910  146.2130 C   0  0  0  0  0  1  0  0  0  0  0  0
  1  6  1  6  0  0  0
  1  2  1  0  0  0  0
  2 15  1  1  0  0  0
  3  5  1  6  0  0  0
  3  1  1  0  0  0  0
  3  2  1  0  0  0  0
  4  5  1  0  0  0  0
  6  7  1  0  0  0  0
  7  9  1  0  0  0  0
  9 11  1  0  0  0  0
 10 14  2  0  0  0  0
 11  8  2  0  0  0  0
 12  9  2  0  0  0  0
 12 10  1  0  0  0  0
 13 10  1  0  0  0  0
 14  8  1  0  0  0  0
 16 22  1  1  0  0  0
 16 18  1  0  0  0  0
 16 24  1  0  0  0  0
 17 18  1  0  0  0  0
 19 17  1  0  0  0  0
 20 21  1  1  0  0  0
 20 23  1  0  0  0  0
 20 17  1  0  0  0  0
 23 15  1  6  0  0  0
 23 16  1  0  0  0  0
 25 26  1  0  0  0  0
 25 27  1  0  0  0  0
 25 24  1  0  0  0  0
 26 27  1  0  0  0  0
 27 28  1  6  0  0  0
M  END
>  <MODEL>
6

>  <REMARK>
 VINA RESULT:      -6.6      2.346      4.149
  Name = 
  8 active torsions:
  status: ('A' for Active; 'I' for Inactive)
    1  A    between atoms: C_1  and  C_11
    2  A    between atoms: N_6  and  C_11
    3  A    between atoms: C_9  and  O_18
    4  A    between atoms: C_10  and  C_14
    5  A    between atoms: C_14  and  O_18
    6  A    between atoms: C_17  and  C_19
    7  A    between atoms: C_19  and  C_27
    8  A    between atoms: C_20  and  C_25
                            x       y       z     vdW  Elec       q    Type
                         _______ _______ _______ _____ _____    ______ ____

>  <TORSDO>
F 8

$$$$
=
 OpenBabel11052418173D

 28 31  0  0  1  0  0  0  0  0999 V2000
  190.0700  176.0440  145.3510 C   0  0  1  0  0  3  0  0  0  0  0  0
  191.3160  176.8580  145.6190 C   0  0  1  0  0  3  0  0  0  0  0  0
  191.2060  175.4590  146.1970 C   0  0  1  0  0  3  0  0  0  0  0  0
  191.7560  176.7520  148.2430 C   0  0  0  0  0  1  0  0  0  0  0  0
  191.0050  175.5510  147.7050 C   0  0  0  0  0  2  0  0  0  0  0  0
  188.9060  176.6230  146.1450 C   0  0  0  0  0  2  0  0  0  0  0  0
  187.6870  176.3640  145.4600 O   0  0  0  0  0  0  0  0  0  0  0  0
  184.4290  177.8910  146.2920 C   0  0  0  0  0  3  0  0  0  0  0  0
  186.6200  177.2650  145.4560 C   0  0  0  0  0  0  0  0  0  0  0  0
  185.5480  179.3010  144.6730 C   0  0  0  0  0  0  0  0  0  0  0  0
  185.5130  177.0080  146.2730 C   0  0  0  0  0  3  0  0  0  0  0  0
  186.6320  178.4190  144.6540 C   0  0  0  0  0  3  0  0  0  0  0  0
  185.5660  180.4120  143.8990 F   0  0  0  0  0  0  0  0  0  0  0  0
  184.4460  179.0370  145.4920 C   0  0  0  0  0  3  0  0  0  0  0  0
  192.2150  176.8200  144.3910 C   0  0  0  0  0  2  0  0  0  0  0  0
  193.3530  174.9310  143.0350 C   0  0  2  0  0  0  0  0  0  0  0  0
  195.5200  175.6140  143.8030 N   0  0  0  0  0  0  0  0  0  0  0  0
  194.7430  175.3340  142.6020 C   0  0  0  0  0  2  0  0  0  0  0  0
  196.3430  176.7740  143.5070 C   0  0  0  0  0  1  0  0  0  0  0  0
  194.5670  176.0130  144.8370 C   0  0  2  0  0  3  0  0  0  0  0  0
  194.9000  175.3100  146.1390 C   0  0  0  0  0  1  0  0  0  0  0  0
  192.4170  175.3430  142.0810 O   0  0  0  0  0  1  0  0  0  0  0  0
  193.1700  175.6170  144.3850 C   0  0  1  0  0  3  0  0  0  0  0  0
  193.2980  173.4160  143.1970 C   0  0  0  0  0  2  0  0  0  0  0  0
  192.3870  173.0420  144.2660 N   0  0  0  0  0  0  0  0  0  0  0  0
  192.3270  171.5730  144.2750 C   0  0  0  0  0  2  0  0  0  0  0  0
  191.2660  172.3350  143.6310 C   0  0  1  0  0  3  0  0  0  0  0  0
  190.0610  172.3990  144.5460 C   0  0  0  0  0  1  0  0  0  0  0  0
  1  2  1  0  0  0  0
  1  6  1  1  0  0  0
  1  3  1  0  0  0  0
  2 15  1  6  0  0  0
  2  3  1  0  0  0  0
  3  5  1  1  0  0  0
  5  4  1  0  0  0  0
  7  6  1  0  0  0  0
  9  7  1  0  0  0  0
  9 11  2  0  0  0  0
 10 14  1  0  0  0  0
 11  8  1  0  0  0  0
 12 10  2  0  0  0  0
 12  9  1  0  0  0  0
 13 10  1  0  0  0  0
 14  8  2  0  0  0  0
 16 22  1  6  0  0  0
 16 24  1  0  0  0  0
 16 23  1  0  0  0  0
 17 20  1  0  0  0  0
 18 16  1  0  0  0  0
 18 17  1  0  0  0  0
 19 17  1  0  0  0  0
 20 21  1  1  0  0  0
 23 15  1  6  0  0  0
 23 20  1  0  0  0  0
 24 25  1  0  0  0  0
 25 26  1  0  0  0  0
 27 25  1  0  0  0  0
 27 26  1  0  0  0  0
 27 28  1  1  0  0  0
M  END
>  <MODEL>
7

>  <REMARK>
 VINA RESULT:      -6.5      2.484      4.162
  Name = 
  8 active torsions:
  status: ('A' for Active; 'I' for Inactive)
    1  A    between atoms: C_1  and  C_11
    2  A    between atoms: N_6  and  C_11
    3  A    between atoms: C_9  and  O_18
    4  A    between atoms: C_10  and  C_14
    5  A    between atoms: C_14  and  O_18
    6  A    between atoms: C_17  and  C_19
    7  A    between atoms: C_19  and  C_27
    8  A    between atoms: C_20  and  C_25
                            x       y       z     vdW  Elec       q    Type
                         _______ _______ _______ _____ _____    ______ ____

>  <TORSDO>
F 8

$$$$
=
 OpenBabel11052418173D

 28 31  0  0  1  0  0  0  0  0999 V2000
  189.0550  174.7070  146.8320 C   0  0  1  0  0  3  0  0  0  0  0  0
  189.9610  174.8730  145.6320 C   0  0  1  0  0  3  0  0  0  0  0  0
  190.5670  174.8750  147.0220 C   0  0  1  0  0  3  0  0  0  0  0  0
  192.4670  176.4690  146.9500 C   0  0  0  0  0  1  0  0  0  0  0  0
  191.0230  176.2860  147.3720 C   0  0  0  0  0  2  0  0  0  0  0  0
  188.2350  175.9760  147.0270 C   0  0  0  0  0  2  0  0  0  0  0  0
  187.6190  176.3380  145.7980 O   0  0  0  0  0  0  0  0  0  0  0  0
  184.3270  177.8810  146.4460 C   0  0  0  0  0  3  0  0  0  0  0  0
  186.5540  177.2380  145.7250 C   0  0  0  0  0  0  0  0  0  0  0  0
  185.5210  179.2580  144.8520 C   0  0  0  0  0  0  0  0  0  0  0  0
  185.4100  176.9970  146.4960 C   0  0  0  0  0  3  0  0  0  0  0  0
  186.6040  178.3750  144.9020 C   0  0  0  0  0  3  0  0  0  0  0  0
  185.5760  180.3520  144.0570 F   0  0  0  0  0  0  0  0  0  0  0  0
  184.3830  179.0100  145.6250 C   0  0  0  0  0  3  0  0  0  0  0  0
  190.1970  173.5140  144.9870 C   0  0  0  0  0  2  0  0  0  0  0  0
  189.5100  172.7910  142.5990 C   0  0  2  0  0  0  0  0  0  0  0  0
  189.3740  175.0780  141.8900 N   0  0  0  0  0  0  0  0  0  0  0  0
  188.6250  173.8280  141.9490 C   0  0  0  0  0  2  0  0  0  0  0  0
  188.4340  176.1430  142.1940 C   0  0  0  0  0  1  0  0  0  0  0  0
  190.3470  175.0370  142.9790 C   0  0  2  0  0  3  0  0  0  0  0  0
  191.6990  175.5040  142.4730 C   0  0  0  0  0  1  0  0  0  0  0  0
  188.7310  171.8860  143.3260 O   0  0  0  0  0  1  0  0  0  0  0  0
  190.4560  173.6040  143.4770 C   0  0  1  0  0  3  0  0  0  0  0  0
  190.2920  172.0530  141.5170 C   0  0  0  0  0  2  0  0  0  0  0  0
  189.7220  172.3050  140.2030 N   0  0  0  0  0  0  0  0  0  0  0  0
  190.3810  171.3760  139.2740 C   0  0  0  0  0  2  0  0  0  0  0  0
  190.8290  172.7590  139.3490 C   0  0  1  0  0  3  0  0  0  0  0  0
  190.2620  173.5400  138.1830 C   0  0  0  0  0  1  0  0  0  0  0  0
  1  3  1  0  0  0  0
  1  6  1  1  0  0  0
  2 15  1  6  0  0  0
  2  1  1  0  0  0  0
  2  3  1  0  0  0  0
  3  5  1  1  0  0  0
  4  5  1  0  0  0  0
  7  6  1  0  0  0  0
  8 11  1  0  0  0  0
  9  7  1  0  0  0  0
  9 11  2  0  0  0  0
 10 12  2  0  0  0  0
 10 14  1  0  0  0  0
 12  9  1  0  0  0  0
 13 10  1  0  0  0  0
 14  8  2  0  0  0  0
 16 22  1  1  0  0  0
 16 23  1  0  0  0  0
 17 18  1  0  0  0  0
 17 19  1  0  0  0  0
 17 20  1  0  0  0  0
 18 16  1  0  0  0  0
 20 21  1  6  0  0  0
 20 23  1  0  0  0  0
 23 15  1  1  0  0  0
 24 16  1  0  0  0  0
 25 24  1  0  0  0  0
 26 27  1  0  0  0  0
 26 25  1  0  0  0  0
 27 28  1  6  0  0  0
 27 25  1  0  0  0  0
M  END
>  <MODEL>
8

>  <REMARK>
 VINA RESULT:      -6.5      2.393      4.552
  Name = 
  8 active torsions:
  status: ('A' for Active; 'I' for Inactive)
    1  A    between atoms: C_1  and  C_11
    2  A    between atoms: N_6  and  C_11
    3  A    between atoms: C_9  and  O_18
    4  A    between atoms: C_10  and  C_14
    5  A    between atoms: C_14  and  O_18
    6  A    between atoms: C_17  and  C_19
    7  A    between atoms: C_19  and  C_27
    8  A    between atoms: C_20  and  C_25
                            x       y       z     vdW  Elec       q    Type
                         _______ _______ _______ _____ _____    ______ ____

>  <TORSDO>
F 8

$$$$
=
 OpenBabel11052418173D

 28 31  0  0  1  0  0  0  0  0999 V2000
  188.5450  175.2860  143.1070 C   0  0  1  0  0  3  0  0  0  0  0  0
  189.8820  175.5380  142.4470 C   0  0  1  0  0  3  0  0  0  0  0  0
  189.6190  176.1080  143.8270 C   0  0  1  0  0  3  0  0  0  0  0  0
  190.8150  178.2820  143.7990 C   0  0  0  0  0  1  0  0  0  0  0  0
  189.4550  177.6200  143.7260 C   0  0  0  0  0  2  0  0  0  0  0  0
  187.4700  176.1030  142.4030 C   0  0  0  0  0  2  0  0  0  0  0  0
  186.2740  176.0800  143.1710 O   0  0  0  0  0  0  0  0  0  0  0  0
  185.3490  177.7150  146.3500 C   0  0  0  0  0  3  0  0  0  0  0  0
  185.9450  177.0840  144.0830 C   0  0  0  0  0  0  0  0  0  0  0  0
  185.5430  179.4160  144.6380 C   0  0  0  0  0  0  0  0  0  0  0  0
  185.6800  176.7330  145.4120 C   0  0  0  0  0  3  0  0  0  0  0  0
  185.8750  178.4340  143.7000 C   0  0  0  0  0  3  0  0  0  0  0  0
  185.4780  180.7160  144.2630 F   0  0  0  0  0  0  0  0  0  0  0  0
  185.2810  179.0570  145.9630 C   0  0  0  0  0  3  0  0  0  0  0  0
  190.7510  174.2940  142.5790 C   0  0  0  0  0  2  0  0  0  0  0  0
  192.4230  173.4960  144.3870 C   0  0  2  0  0  0  0  0  0  0  0  0
  194.2530  173.6750  142.8460 N   0  0  0  0  0  0  0  0  0  0  0  0
  193.5860  172.7600  143.7650 C   0  0  0  0  0  2  0  0  0  0  0  0
  194.6310  172.8950  141.6810 C   0  0  0  0  0  1  0  0  0  0  0  0
  193.2470  174.6410  142.4110 C   0  0  2  0  0  3  0  0  0  0  0  0
  193.8280  176.0410  142.4580 C   0  0  0  0  0  1  0  0  0  0  0  0
  191.3800  172.6040  144.6550 O   0  0  0  0  0  1  0  0  0  0  0  0
  192.0530  174.5520  143.3500 C   0  0  1  0  0  3  0  0  0  0  0  0
  192.8850  174.1610  145.6800 C   0  0  0  0  0  2  0  0  0  0  0  0
  192.2950  175.4820  145.8220 N   0  0  0  0  0  0  0  0  0  0  0  0
  193.1320  176.2160  146.7830 C   0  0  0  0  0  2  0  0  0  0  0  0
  191.8860  175.6080  147.2290 C   0  0  1  0  0  3  0  0  0  0  0  0
  190.8140  176.6700  147.3370 C   0  0  0  0  0  1  0  0  0  0  0  0
  1  6  1  6  0  0  0
  1  3  1  0  0  0  0
  2 15  1  1  0  0  0
  2  1  1  0  0  0  0
  2  3  1  0  0  0  0
  3  5  1  6  0  0  0
  5  4  1  0  0  0  0
  6  7  1  0  0  0  0
  7  9  1  0  0  0  0
  9 11  1  0  0  0  0
 10 14  2  0  0  0  0
 11  8  2  0  0  0  0
 12  9  2  0  0  0  0
 12 10  1  0  0  0  0
 13 10  1  0  0  0  0
 14  8  1  0  0  0  0
 16 22  1  1  0  0  0
 16 24  1  0  0  0  0
 17 18  1  0  0  0  0
 18 16  1  0  0  0  0
 19 17  1  0  0  0  0
 20 21  1  1  0  0  0
 20 17  1  0  0  0  0
 20 23  1  0  0  0  0
 23 15  1  6  0  0  0
 23 16  1  0  0  0  0
 24 25  1  0  0  0  0
 25 26  1  0  0  0  0
 25 27  1  0  0  0  0
 26 27  1  0  0  0  0
 27 28  1  6  0  0  0
M  END
>  <MODEL>
9

>  <REMARK>
 VINA RESULT:      -6.4      2.319      4.159
  Name = 
  8 active torsions:
  status: ('A' for Active; 'I' for Inactive)
    1  A    between atoms: C_1  and  C_11
    2  A    between atoms: N_6  and  C_11
    3  A    between atoms: C_9  and  O_18
    4  A    between atoms: C_10  and  C_14
    5  A    between atoms: C_14  and  O_18
    6  A    between atoms: C_17  and  C_19
    7  A    between atoms: C_19  and  C_27
    8  A    between atoms: C_20  and  C_25
                            x       y       z     vdW  Elec       q    Type
                         _______ _______ _______ _____ _____    ______ ____

>  <TORSDO>
F 8

$$$$
