=
 OpenBabel11052417163D

 30 33  0  0  1  0  0  0  0  0999 V2000
  186.9250  178.2680  144.7220 C   0  0  0  0  0  2  0  0  0  0  0  0
  185.3580  178.7840  146.6300 C   0  0  2  0  0  3  0  0  0  0  0  0
  189.1230  174.9340  147.1160 S   0  0  0  0  0  0  0  0  0  0  0  0
  187.7330  177.1760  144.0000 C   0  0  1  0  0  3  0  0  0  0  0  0
  189.9790  174.5020  145.5560 C   0  0  1  0  0  3  0  0  0  0  0  0
  186.1850  179.6760  147.5610 C   0  0  0  0  0  2  0  0  0  0  0  0
  184.2180  178.1380  147.3960 C   0  0  0  0  0  1  0  0  0  0  0  0
  188.1510  176.1440  146.2370 C   0  0  2  0  0  3  0  0  0  0  0  0
  187.1380  178.8240  148.3970 C   0  0  0  0  0  2  0  0  0  0  0  0
  186.2150  177.7080  145.9560 C   0  0  2  0  0  3  0  0  0  0  0  0
  188.4340  176.2320  144.9450 C   0  0  0  0  0  0  0  0  0  0  0  0
  189.7520  173.1020  145.2480 N   0  0  0  0  0  1  0  0  0  0  0  0
  189.4270  175.3280  144.4940 N   0  0  0  0  0  0  0  0  0  0  0  0
  188.0030  178.1150  147.5490 O   0  0  0  0  0  0  0  0  0  0  0  0
  187.2360  177.1020  146.9440 C   0  0  2  0  0  3  0  0  0  0  0  0
  186.9360  176.4090  142.9340 C   0  0  2  0  0  3  0  0  0  0  0  0
  187.7440  173.6730  142.0330 C   0  0  0  0  0  2  0  0  0  0  0  0
  187.9980  177.1630  140.9250 O   0  0  0  0  0  0  0  0  0  0  0  0
  187.6930  176.1820  141.6560 C   0  0  0  0  0  0  0  0  0  0  0  0
  188.7710  174.5650  140.0330 C   0  0  0  0  0  2  0  0  0  0  0  0
  188.0550  174.8550  141.2570 N   0  0  0  0  0  0  0  0  0  0  0  0
  188.4190  172.5220  141.3100 C   0  0  0  0  0  2  0  0  0  0  0  0
  188.8320  173.0520  139.9450 C   0  0  0  0  0  2  0  0  0  0  0  0
  185.5130  176.8630  142.7370 C   0  0  0  0  0  2  0  0  0  0  0  0
  185.0910  178.0000  141.6690 S   0  0  0  0  0  0  0  0  0  0  0  0
  183.3430  178.2650  142.0050 C   0  0  0  0  0  2  0  0  0  0  0  0
  182.5680  178.2690  140.7020 C   0  0  0  0  0  2  0  0  0  0  0  0
  180.3190  177.8380  141.6820 O   0  0  0  0  0  1  0  0  0  0  0  0
  181.1590  178.6700  140.9520 C   0  0  0  0  0  0  0  0  0  0  0  0
  180.7340  179.7770  140.5310 O   0  0  0  0  0  0  0  0  0  0  0  0
  2  7  1  1  0  0  0
  2  6  1  0  0  0  0
  4 16  1  1  0  0  0
  4  1  1  0  0  0  0
  4 11  1  0  0  0  0
  5 12  1  6  0  0  0
  5  3  1  0  0  0  0
  6  9  1  0  0  0  0
  8 11  1  1  0  0  0
  8 15  1  0  0  0  0
  8  3  1  0  0  0  0
 10  1  1  6  0  0  0
 10  2  1  0  0  0  0
 10 15  1  0  0  0  0
 13 11  2  0  0  0  0
 13  5  1  0  0  0  0
 14  9  1  0  0  0  0
 15 14  1  6  0  0  0
 16 24  1  6  0  0  0
 18 19  2  0  0  0  0
 19 16  1  0  0  0  0
 20 21  1  0  0  0  0
 21 19  1  0  0  0  0
 21 17  1  0  0  0  0
 22 17  1  0  0  0  0
 23 20  1  0  0  0  0
 23 22  1  0  0  0  0
 25 26  1  0  0  0  0
 25 24  1  0  0  0  0
 27 29  1  0  0  0  0
 27 26  1  0  0  0  0
 29 28  1  0  0  0  0
 30 29  2  0  0  0  0
M  END
>  <MODEL>
1

>  <REMARK>
 VINA RESULT:      -7.2      0.000      0.000
  Name = 
  6 active torsions:
  status: ('A' for Active; 'I' for Inactive)
    1  A    between atoms: C_4  and  C_13
    2  A    between atoms: C_7  and  C_15
    3  A    between atoms: C_7  and  C_16
    4  A    between atoms: C_8  and  C_13
    5  A    between atoms: C_13  and  C_27
    6  A    between atoms: C_16  and  S_30
                            x       y       z     vdW  Elec       q    Type
                         _______ _______ _______ _____ _____    ______ ____

>  <TORSDO>
F 6

$$$$
=
 OpenBabel11052417163D

 30 33  0  0  1  0  0  0  0  0999 V2000
  189.3590  174.5970  145.1570 C   0  0  0  0  0  2  0  0  0  0  0  0
  189.2320  173.3410  142.9730 C   0  0  2  0  0  3  0  0  0  0  0  0
  194.0110  174.7730  145.0580 S   0  0  0  0  0  0  0  0  0  0  0  0
  190.1300  175.6460  145.9780 C   0  0  1  0  0  3  0  0  0  0  0  0
  193.9090  175.9130  146.4890 C   0  0  1  0  0  3  0  0  0  0  0  0
  189.5260  171.8890  143.3620 C   0  0  0  0  0  2  0  0  0  0  0  0
  189.5110  173.5580  141.4970 C   0  0  0  0  0  1  0  0  0  0  0  0
  192.2300  174.7590  144.9550 C   0  0  0  0  0  0  0  0  0  0  0  0
  191.0290  171.6860  143.5450 C   0  0  0  0  0  2  0  0  0  0  0  0
  190.0420  174.3340  143.8140 C   0  0  2  0  0  3  0  0  0  0  0  0
  191.6280  175.4970  145.8770 C   0  0  0  0  0  0  0  0  0  0  0  0
  194.5930  177.1530  146.1720 N   0  0  0  0  0  1  0  0  0  0  0  0
  192.5050  176.1860  146.7490 N   0  0  0  0  0  2  0  0  0  0  0  0
  191.4990  172.5380  144.5580 O   0  0  0  0  0  0  0  0  0  0  0  0
  191.4900  173.8410  144.0260 C   0  0  2  0  0  3  0  0  0  0  0  0
  189.6940  177.0950  145.7100 C   0  0  2  0  0  3  0  0  0  0  0  0
  186.7020  177.0880  145.6880 C   0  0  0  0  0  2  0  0  0  0  0  0
  189.4740  178.2280  147.8080 O   0  0  0  0  0  0  0  0  0  0  0  0
  188.8880  177.7020  146.8230 C   0  0  0  0  0  0  0  0  0  0  0  0
  186.6200  178.2250  147.8210 C   0  0  0  0  0  2  0  0  0  0  0  0
  187.4570  177.6720  146.7780 N   0  0  0  0  0  0  0  0  0  0  0  0
  185.2470  177.3910  145.9920 C   0  0  0  0  0  2  0  0  0  0  0  0
  185.1980  177.8690  147.4370 C   0  0  0  0  0  2  0  0  0  0  0  0
  189.1460  177.3630  144.3330 C   0  0  0  0  0  2  0  0  0  0  0  0
  190.0640  177.8690  143.1030 S   0  0  0  0  0  0  0  0  0  0  0  0
  188.8710  178.2040  141.7980 C   0  0  0  0  0  2  0  0  0  0  0  0
  187.6010  177.4150  142.0530 C   0  0  0  0  0  2  0  0  0  0  0  0
  185.6920  178.2460  140.6860 O   0  0  0  0  0  0  0  0  0  0  0  0
  186.4150  178.2920  141.8710 C   0  0  0  0  0  0  0  0  0  0  0  0
  186.0470  179.0550  142.8020 O   0  0  0  0  0  1  0  0  0  0  0  0
  1  4  1  0  0  0  0
  2  7  1  6  0  0  0
  2  6  1  0  0  0  0
  2 10  1  0  0  0  0
  3  5  1  0  0  0  0
  4 16  1  6  0  0  0
  5 12  1  6  0  0  0
  5 13  1  0  0  0  0
  6  9  1  0  0  0  0
  8  3  1  0  0  0  0
  8 11  2  0  0  0  0
  9 14  1  0  0  0  0
 10 15  1  0  0  0  0
 10  1  1  1  0  0  0
 11  4  1  0  0  0  0
 11 13  1  0  0  0  0
 15 14  1  1  0  0  0
 15  8  1  0  0  0  0
 16 24  1  6  0  0  0
 16 19  1  0  0  0  0
 17 22  1  0  0  0  0
 17 21  1  0  0  0  0
 19 18  2  0  0  0  0
 21 19  1  0  0  0  0
 21 20  1  0  0  0  0
 22 23  1  0  0  0  0
 23 20  1  0  0  0  0
 25 24  1  0  0  0  0
 26 27  1  0  0  0  0
 26 25  1  0  0  0  0
 28 29  2  0  0  0  0
 29 27  1  0  0  0  0
 29 30  1  0  0  0  0
M  END
>  <MODEL>
2

>  <REMARK>
 VINA RESULT:      -7.1      3.076      6.297
  Name = 
  6 active torsions:
  status: ('A' for Active; 'I' for Inactive)
    1  A    between atoms: C_4  and  C_13
    2  A    between atoms: C_7  and  C_15
    3  A    between atoms: C_7  and  C_16
    4  A    between atoms: C_8  and  C_13
    5  A    between atoms: C_13  and  C_27
    6  A    between atoms: C_16  and  S_30
                            x       y       z     vdW  Elec       q    Type
                         _______ _______ _______ _____ _____    ______ ____

>  <TORSDO>
F 6

$$$$
=
 OpenBabel11052417163D

 30 33  0  0  1  0  0  0  0  0999 V2000
  191.0970  176.8700  144.5830 C   0  0  0  0  0  2  0  0  0  0  0  0
  192.0030  176.0790  146.8000 C   0  0  2  0  0  3  0  0  0  0  0  0
  190.7530  172.5390  142.9090 S   0  0  0  0  0  0  0  0  0  0  0  0
  190.1640  176.5490  143.4030 C   0  0  1  0  0  3  0  0  0  0  0  0
  189.8540  173.2570  141.4840 C   0  0  1  0  0  3  0  0  0  0  0  0
  193.4870  175.8200  146.5250 C   0  0  0  0  0  2  0  0  0  0  0  0
  191.5500  175.3000  148.0220 C   0  0  0  0  0  1  0  0  0  0  0  0
  190.8100  174.1500  143.6730 C   0  0  2  0  0  3  0  0  0  0  0  0
  193.6660  174.4760  145.8210 C   0  0  0  0  0  2  0  0  0  0  0  0
  191.1270  175.7230  145.5950 C   0  0  2  0  0  3  0  0  0  0  0  0
  190.2460  175.1110  142.9550 C   0  0  0  0  0  0  0  0  0  0  0  0
  188.5570  172.6170  141.3550 N   0  0  0  0  0  1  0  0  0  0  0  0
  189.6710  174.6770  141.7340 N   0  0  0  0  0  0  0  0  0  0  0  0
  192.9660  174.4860  144.6040 O   0  0  0  0  0  0  0  0  0  0  0  0
  191.5970  174.4150  144.9230 C   0  0  2  0  0  3  0  0  0  0  0  0
  188.7060  176.9840  143.6210 C   0  0  2  0  0  3  0  0  0  0  0  0
  185.7510  177.2680  143.2540 C   0  0  0  0  0  2  0  0  0  0  0  0
  188.8750  178.2710  141.6100 O   0  0  0  0  0  0  0  0  0  0  0  0
  188.1160  177.7330  142.4600 C   0  0  0  0  0  0  0  0  0  0  0  0
  186.0610  178.5700  141.2390 C   0  0  0  0  0  2  0  0  0  0  0  0
  186.6950  177.8510  142.3240 N   0  0  0  0  0  0  0  0  0  0  0  0
  184.3800  177.5290  142.6590 C   0  0  0  0  0  2  0  0  0  0  0  0
  184.5770  178.5530  141.5500 C   0  0  0  0  0  2  0  0  0  0  0  0
  188.4060  177.5910  144.9660 C   0  0  0  0  0  2  0  0  0  0  0  0
  187.6780  176.7770  146.1580 S   0  0  0  0  0  0  0  0  0  0  0  0
  187.4070  178.0310  147.4190 C   0  0  0  0  0  2  0  0  0  0  0  0
  185.9470  178.0320  147.8310 C   0  0  0  0  0  2  0  0  0  0  0  0
  185.4940  179.5430  145.9040 O   0  0  0  0  0  0  0  0  0  0  0  0
  185.1000  178.4680  146.6900 C   0  0  0  0  0  0  0  0  0  0  0  0
  184.0420  177.8450  146.4170 O   0  0  0  0  0  1  0  0  0  0  0  0
  2  7  1  1  0  0  0
  4 16  1  1  0  0  0
  4  1  1  0  0  0  0
  5 12  1  1  0  0  0
  5 13  1  0  0  0  0
  5  3  1  0  0  0  0
  6  2  1  0  0  0  0
  8  3  1  6  0  0  0
  8 15  1  0  0  0  0
  9  6  1  0  0  0  0
 10  1  1  6  0  0  0
 10  2  1  0  0  0  0
 11  4  1  0  0  0  0
 11  8  1  0  0  0  0
 13 11  2  0  0  0  0
 14  9  1  0  0  0  0
 15 14  1  6  0  0  0
 15 10  1  0  0  0  0
 16 24  1  1  0  0  0
 18 19  2  0  0  0  0
 19 16  1  0  0  0  0
 20 23  1  0  0  0  0
 20 21  1  0  0  0  0
 21 19  1  0  0  0  0
 21 17  1  0  0  0  0
 22 17  1  0  0  0  0
 23 22  1  0  0  0  0
 24 25  1  0  0  0  0
 25 26  1  0  0  0  0
 26 27  1  0  0  0  0
 28 29  2  0  0  0  0
 29 27  1  0  0  0  0
 30 29  1  0  0  0  0
M  END
>  <MODEL>
3

>  <REMARK>
 VINA RESULT:      -6.9      2.747      5.574
  Name = 
  6 active torsions:
  status: ('A' for Active; 'I' for Inactive)
    1  A    between atoms: C_4  and  C_13
    2  A    between atoms: C_7  and  C_15
    3  A    between atoms: C_7  and  C_16
    4  A    between atoms: C_8  and  C_13
    5  A    between atoms: C_13  and  C_27
    6  A    between atoms: C_16  and  S_30
                            x       y       z     vdW  Elec       q    Type
                         _______ _______ _______ _____ _____    ______ ____

>  <TORSDO>
F 6

$$$$
=
 OpenBabel11052417163D

 30 33  0  0  1  0  0  0  0  0999 V2000
  190.7990  174.9080  142.9620 C   0  0  0  0  0  2  0  0  0  0  0  0
  190.1290  172.5540  142.3530 C   0  0  2  0  0  3  0  0  0  0  0  0
  186.9620  176.7440  141.0680 S   0  0  0  0  0  0  0  0  0  0  0  0
  190.3040  176.3050  143.3730 C   0  0  1  0  0  3  0  0  0  0  0  0
  187.4590  178.3360  141.8260 C   0  0  1  0  0  3  0  0  0  0  0  0
  190.5170  172.4260  140.8770 C   0  0  0  0  0  2  0  0  0  0  0  0
  189.0730  171.5230  142.7110 C   0  0  0  0  0  1  0  0  0  0  0  0
  188.3420  175.9440  141.8680 C   0  0  0  0  0  0  0  0  0  0  0  0
  189.4650  173.0970  139.9950 C   0  0  0  0  0  2  0  0  0  0  0  0
  189.6280  173.9610  142.6940 C   0  0  2  0  0  3  0  0  0  0  0  0
  189.0920  176.7580  142.5970 C   0  0  0  0  0  0  0  0  0  0  0  0
  186.3840  178.8290  142.6680 N   0  0  0  0  0  1  0  0  0  0  0  0
  188.6420  178.1010  142.6370 N   0  0  0  0  0  2  0  0  0  0  0  0
  189.3680  174.4570  140.3310 O   0  0  0  0  0  0  0  0  0  0  0  0
  188.7190  174.5200  141.5780 C   0  0  2  0  0  3  0  0  0  0  0  0
  190.0940  176.4750  144.8860 C   0  0  2  0  0  3  0  0  0  0  0  0
  193.0250  177.0750  144.9040 C   0  0  0  0  0  2  0  0  0  0  0  0
  190.6430  174.7530  146.4560 O   0  0  0  0  0  0  0  0  0  0  0  0
  191.0620  175.6910  145.7250 C   0  0  0  0  0  0  0  0  0  0  0  0
  193.4420  175.3090  146.5030 C   0  0  0  0  0  2  0  0  0  0  0  0
  192.4570  176.0140  145.7100 N   0  0  0  0  0  0  0  0  0  0  0  0
  194.5260  176.9770  145.0990 C   0  0  0  0  0  2  0  0  0  0  0  0
  194.7480  176.0480  146.2850 C   0  0  0  0  0  2  0  0  0  0  0  0
  188.6650  176.3960  145.3550 C   0  0  0  0  0  2  0  0  0  0  0  0
  188.0370  177.4150  146.4410 S   0  0  0  0  0  0  0  0  0  0  0  0
  186.4000  176.7380  146.7560 C   0  0  0  0  0  2  0  0  0  0  0  0
  185.4640  177.1190  145.6260 C   0  0  0  0  0  2  0  0  0  0  0  0
  183.9250  179.0110  145.1190 O   0  0  0  0  0  0  0  0  0  0  0  0
  184.5620  178.2170  146.0640 C   0  0  0  0  0  0  0  0  0  0  0  0
  184.3510  178.4080  147.2900 O   0  0  0  0  0  1  0  0  0  0  0  0
  1  4  1  0  0  0  0
  2 10  1  0  0  0  0
  2  7  1  6  0  0  0
  3  5  1  0  0  0  0
  3  8  1  0  0  0  0
  4 16  1  1  0  0  0
  5 13  1  0  0  0  0
  5 12  1  1  0  0  0
  6  2  1  0  0  0  0
  8 11  2  0  0  0  0
  9 14  1  0  0  0  0
  9  6  1  0  0  0  0
 10  1  1  6  0  0  0
 11 13  1  0  0  0  0
 11  4  1  0  0  0  0
 15 14  1  6  0  0  0
 15  8  1  0  0  0  0
 15 10  1  0  0  0  0
 16 24  1  6  0  0  0
 16 19  1  0  0  0  0
 17 22  1  0  0  0  0
 17 21  1  0  0  0  0
 19 18  2  0  0  0  0
 21 19  1  0  0  0  0
 21 20  1  0  0  0  0
 22 23  1  0  0  0  0
 23 20  1  0  0  0  0
 24 25  1  0  0  0  0
 25 26  1  0  0  0  0
 27 29  1  0  0  0  0
 27 26  1  0  0  0  0
 28 29  2  0  0  0  0
 29 30  1  0  0  0  0
M  END
>  <MODEL>
4

>  <REMARK>
 VINA RESULT:      -6.8      2.966      6.770
  Name = 
  6 active torsions:
  status: ('A' for Active; 'I' for Inactive)
    1  A    between atoms: C_4  and  C_13
    2  A    between atoms: C_7  and  C_15
    3  A    between atoms: C_7  and  C_16
    4  A    between atoms: C_8  and  C_13
    5  A    between atoms: C_13  and  C_27
    6  A    between atoms: C_16  and  S_30
                            x       y       z     vdW  Elec       q    Type
                         _______ _______ _______ _____ _____    ______ ____

>  <TORSDO>
F 6

$$$$
=
 OpenBabel11052417163D

 30 33  0  0  1  0  0  0  0  0999 V2000
  189.7070  173.9370  144.3110 C   0  0  0  0  0  2  0  0  0  0  0  0
  190.5850  175.0160  146.4140 C   0  0  2  0  0  3  0  0  0  0  0  0
  187.1800  177.6750  143.1630 S   0  0  0  0  0  0  0  0  0  0  0  0
  189.2450  174.1660  142.8610 C   0  0  1  0  0  3  0  0  0  0  0  0
  186.8680  176.8580  141.5540 C   0  0  1  0  0  3  0  0  0  0  0  0
  189.4470  174.8440  147.4250 C   0  0  0  0  0  2  0  0  0  0  0  0
  191.4950  176.1560  146.8350 C   0  0  0  0  0  1  0  0  0  0  0  0
  188.2660  176.3360  143.6210 C   0  0  2  0  0  3  0  0  0  0  0  0
  188.3620  175.8910  147.1800 C   0  0  0  0  0  2  0  0  0  0  0  0
  190.0600  175.2580  144.9950 C   0  0  2  0  0  3  0  0  0  0  0  0
  188.3750  175.3880  142.7010 C   0  0  0  0  0  0  0  0  0  0  0  0
  187.2920  177.7320  140.4750 N   0  0  0  0  0  1  0  0  0  0  0  0
  187.6400  175.6280  141.5130 N   0  0  0  0  0  0  0  0  0  0  0  0
  187.8510  175.7440  145.8800 O   0  0  0  0  0  0  0  0  0  0  0  0
  188.8460  176.2110  145.0000 C   0  0  2  0  0  3  0  0  0  0  0  0
  190.3850  174.1520  141.8300 C   0  0  2  0  0  3  0  0  0  0  0  0
  189.4110  173.6180  139.0530 C   0  0  0  0  0  2  0  0  0  0  0  0
  191.1800  171.8950  141.7690 O   0  0  0  0  0  0  0  0  0  0  0  0
  190.5810  172.8220  141.1600 C   0  0  0  0  0  0  0  0  0  0  0  0
  190.2740  171.3590  139.1160 C   0  0  0  0  0  2  0  0  0  0  0  0
  190.1060  172.6090  139.8260 N   0  0  0  0  0  0  0  0  0  0  0  0
  188.9860  172.9270  137.7710 C   0  0  0  0  0  2  0  0  0  0  0  0
  189.7460  171.6090  137.7170 C   0  0  0  0  0  2  0  0  0  0  0  0
  191.6620  174.8180  142.2690 C   0  0  0  0  0  2  0  0  0  0  0  0
  193.0000  174.8410  141.3620 S   0  0  0  0  0  0  0  0  0  0  0  0
  194.2320  175.5780  142.4470 C   0  0  0  0  0  2  0  0  0  0  0  0
  193.6070  175.8800  143.7960 C   0  0  0  0  0  2  0  0  0  0  0  0
  194.6090  177.4180  145.4790 O   0  0  0  0  0  1  0  0  0  0  0  0
  194.6680  176.2190  144.7810 C   0  0  0  0  0  0  0  0  0  0  0  0
  195.6030  175.4070  145.0040 O   0  0  0  0  0  0  0  0  0  0  0  0
  2  7  1  1  0  0  0
  2  6  1  0  0  0  0
  3  8  1  0  0  0  0
  4 16  1  6  0  0  0
  4  1  1  0  0  0  0
  5 12  1  6  0  0  0
  5  3  1  0  0  0  0
  8 11  1  1  0  0  0
  8 15  1  0  0  0  0
  9  6  1  0  0  0  0
 10  1  1  1  0  0  0
 10 15  1  0  0  0  0
 10  2  1  0  0  0  0
 11  4  1  0  0  0  0
 13  5  1  0  0  0  0
 13 11  2  0  0  0  0
 14  9  1  0  0  0  0
 15 14  1  1  0  0  0
 16 24  1  1  0  0  0
 17 21  1  0  0  0  0
 19 18  2  0  0  0  0
 19 16  1  0  0  0  0
 20 21  1  0  0  0  0
 21 19  1  0  0  0  0
 22 17  1  0  0  0  0
 23 22  1  0  0  0  0
 23 20  1  0  0  0  0
 25 24  1  0  0  0  0
 25 26  1  0  0  0  0
 26 27  1  0  0  0  0
 27 29  1  0  0  0  0
 29 30  2  0  0  0  0
 29 28  1  0  0  0  0
M  END
>  <MODEL>
5

>  <REMARK>
 VINA RESULT:      -6.6      3.932      7.184
  Name = 
  6 active torsions:
  status: ('A' for Active; 'I' for Inactive)
    1  A    between atoms: C_4  and  C_13
    2  A    between atoms: C_7  and  C_15
    3  A    between atoms: C_7  and  C_16
    4  A    between atoms: C_8  and  C_13
    5  A    between atoms: C_13  and  C_27
    6  A    between atoms: C_16  and  S_30
                            x       y       z     vdW  Elec       q    Type
                         _______ _______ _______ _____ _____    ______ ____

>  <TORSDO>
F 6

$$$$
=
 OpenBabel11052417163D

 30 33  0  0  1  0  0  0  0  0999 V2000
  191.1070  174.0710  144.6910 C   0  0  0  0  0  2  0  0  0  0  0  0
  192.4930  175.3420  146.3710 C   0  0  2  0  0  3  0  0  0  0  0  0
  188.3070  177.7050  143.8940 S   0  0  0  0  0  0  0  0  0  0  0  0
  190.2740  174.1610  143.4000 C   0  0  1  0  0  3  0  0  0  0  0  0
  187.5930  176.7370  142.5130 C   0  0  1  0  0  3  0  0  0  0  0  0
  191.6650  175.2820  147.6590 C   0  0  0  0  0  2  0  0  0  0  0  0
  193.4630  176.5080  146.4230 C   0  0  0  0  0  1  0  0  0  0  0  0
  189.4970  176.4060  144.1770 C   0  0  2  0  0  3  0  0  0  0  0  0
  190.5370  176.3110  147.6090 C   0  0  0  0  0  2  0  0  0  0  0  0
  191.6070  175.4490  145.1260 C   0  0  2  0  0  3  0  0  0  0  0  0
  189.3730  175.3700  143.3580 C   0  0  0  0  0  0  0  0  0  0  0  0
  187.7030  177.4960  141.2800 N   0  0  0  0  0  1  0  0  0  0  0  0
  188.3470  175.5010  142.3900 N   0  0  0  0  0  0  0  0  0  0  0  0
  189.7040  176.0430  146.5120 O   0  0  0  0  0  0  0  0  0  0  0  0
  190.4220  176.4110  145.3580 C   0  0  2  0  0  3  0  0  0  0  0  0
  191.1010  174.0350  142.1110 C   0  0  2  0  0  3  0  0  0  0  0  0
  189.6120  173.3150  139.6180 C   0  0  0  0  0  2  0  0  0  0  0  0
  191.7990  171.7450  142.1130 O   0  0  0  0  0  0  0  0  0  0  0  0
  191.1270  172.6450  141.5410 C   0  0  0  0  0  0  0  0  0  0  0  0
  190.4000  171.0310  139.7300 C   0  0  0  0  0  2  0  0  0  0  0  0
  190.4060  172.3430  140.3410 N   0  0  0  0  0  0  0  0  0  0  0  0
  188.9350  172.5400  138.5040 C   0  0  0  0  0  2  0  0  0  0  0  0
  189.6300  171.1870  138.4330 C   0  0  0  0  0  2  0  0  0  0  0  0
  192.4420  174.7200  142.1320 C   0  0  0  0  0  2  0  0  0  0  0  0
  193.4660  174.6880  140.8820 S   0  0  0  0  0  0  0  0  0  0  0  0
  194.9460  175.4810  141.5310 C   0  0  0  0  0  2  0  0  0  0  0  0
  194.7020  175.9240  142.9600 C   0  0  0  0  0  2  0  0  0  0  0  0
  196.8790  177.0650  143.3620 O   0  0  0  0  0  0  0  0  0  0  0  0
  195.9960  176.0410  143.6820 C   0  0  0  0  0  0  0  0  0  0  0  0
  196.2790  175.2330  144.6030 O   0  0  0  0  0  1  0  0  0  0  0  0
  2  7  1  1  0  0  0
  2  6  1  0  0  0  0
  3  8  1  0  0  0  0
  4 16  1  6  0  0  0
  4  1  1  0  0  0  0
  5 12  1  6  0  0  0
  5  3  1  0  0  0  0
  8 11  1  1  0  0  0
  8 15  1  0  0  0  0
  9  6  1  0  0  0  0
 10  1  1  1  0  0  0
 10 15  1  0  0  0  0
 10  2  1  0  0  0  0
 11  4  1  0  0  0  0
 13  5  1  0  0  0  0
 13 11  2  0  0  0  0
 14  9  1  0  0  0  0
 15 14  1  1  0  0  0
 16 24  1  1  0  0  0
 17 21  1  0  0  0  0
 19 16  1  0  0  0  0
 19 18  2  0  0  0  0
 20 21  1  0  0  0  0
 21 19  1  0  0  0  0
 22 17  1  0  0  0  0
 23 22  1  0  0  0  0
 23 20  1  0  0  0  0
 25 26  1  0  0  0  0
 25 24  1  0  0  0  0
 26 27  1  0  0  0  0
 27 29  1  0  0  0  0
 28 29  2  0  0  0  0
 29 30  1  0  0  0  0
M  END
>  <MODEL>
6

>  <REMARK>
 VINA RESULT:      -6.4      4.566      7.729
  Name = 
  6 active torsions:
  status: ('A' for Active; 'I' for Inactive)
    1  A    between atoms: C_4  and  C_13
    2  A    between atoms: C_7  and  C_15
    3  A    between atoms: C_7  and  C_16
    4  A    between atoms: C_8  and  C_13
    5  A    between atoms: C_13  and  C_27
    6  A    between atoms: C_16  and  S_30
                            x       y       z     vdW  Elec       q    Type
                         _______ _______ _______ _____ _____    ______ ____

>  <TORSDO>
F 6

$$$$
=
 OpenBabel11052417163D

 30 33  0  0  1  0  0  0  0  0999 V2000
  188.2720  178.1250  144.6070 C   0  0  0  0  0  2  0  0  0  0  0  0
  186.0680  177.6520  145.7390 C   0  0  2  0  0  3  0  0  0  0  0  0
  190.7230  176.0750  147.9930 S   0  0  0  0  0  0  0  0  0  0  0  0
  189.7060  177.6270  144.3560 C   0  0  1  0  0  3  0  0  0  0  0  0
  192.1910  176.2480  146.9120 C   0  0  1  0  0  3  0  0  0  0  0  0
  185.9530  178.7490  146.8030 C   0  0  0  0  0  2  0  0  0  0  0  0
  185.1850  176.4720  146.1020 C   0  0  0  0  0  1  0  0  0  0  0  0
  189.6980  176.7360  146.6910 C   0  0  2  0  0  3  0  0  0  0  0  0
  186.8070  178.3950  148.0190 C   0  0  0  0  0  2  0  0  0  0  0  0
  187.5160  177.1880  145.5500 C   0  0  2  0  0  3  0  0  0  0  0  0
  190.3620  177.0610  145.5910 C   0  0  0  0  0  0  0  0  0  0  0  0
  192.7950  174.9450  146.7000 N   0  0  0  0  0  1  0  0  0  0  0  0
  191.7530  176.7920  145.6380 N   0  0  0  0  0  0  0  0  0  0  0  0
  188.1500  178.2680  147.6300 O   0  0  0  0  0  0  0  0  0  0  0  0
  188.2500  177.0670  146.9030 C   0  0  2  0  0  3  0  0  0  0  0  0
  189.8350  176.6650  143.1640 C   0  0  2  0  0  3  0  0  0  0  0  0
  191.0490  173.9420  142.9230 C   0  0  0  0  0  2  0  0  0  0  0  0
  191.9570  177.4580  142.3900 O   0  0  0  0  0  0  0  0  0  0  0  0
  191.2490  176.4620  142.6990 C   0  0  0  0  0  0  0  0  0  0  0  0
  193.1390  174.8730  142.1370 C   0  0  0  0  0  2  0  0  0  0  0  0
  191.7910  175.1410  142.5910 N   0  0  0  0  0  0  0  0  0  0  0  0
  192.0390  172.8000  142.7850 C   0  0  0  0  0  2  0  0  0  0  0  0
  193.2500  173.3630  142.0550 C   0  0  0  0  0  2  0  0  0  0  0  0
  188.8420  176.8760  142.0510 C   0  0  0  0  0  2  0  0  0  0  0  0
  187.8660  175.7070  141.5100 S   0  0  0  0  0  0  0  0  0  0  0  0
  187.0650  176.4560  140.0830 C   0  0  0  0  0  2  0  0  0  0  0  0
  186.6790  177.8860  140.4070 C   0  0  0  0  0  2  0  0  0  0  0  0
  185.0890  177.6880  142.3130 O   0  0  0  0  0  1  0  0  0  0  0  0
  185.3010  177.9250  140.9610 C   0  0  0  0  0  0  0  0  0  0  0  0
  184.3280  178.2040  140.2130 O   0  0  0  0  0  0  0  0  0  0  0  0
  2  7  1  1  0  0  0
  2  6  1  0  0  0  0
  4 16  1  6  0  0  0
  4  1  1  0  0  0  0
  4 11  1  0  0  0  0
  5 12  1  6  0  0  0
  5  3  1  0  0  0  0
  6  9  1  0  0  0  0
  8 11  1  1  0  0  0
  8 15  1  0  0  0  0
  8  3  1  0  0  0  0
 10  1  1  6  0  0  0
 10  2  1  0  0  0  0
 10 15  1  0  0  0  0
 11 13  2  0  0  0  0
 13  5  1  0  0  0  0
 14  9  1  0  0  0  0
 15 14  1  6  0  0  0
 16 24  1  6  0  0  0
 18 19  2  0  0  0  0
 19 16  1  0  0  0  0
 20 21  1  0  0  0  0
 21 19  1  0  0  0  0
 21 17  1  0  0  0  0
 22 17  1  0  0  0  0
 23 20  1  0  0  0  0
 23 22  1  0  0  0  0
 25 24  1  0  0  0  0
 26 27  1  0  0  0  0
 26 25  1  0  0  0  0
 27 29  1  0  0  0  0
 29 28  1  0  0  0  0
 30 29  2  0  0  0  0
M  END
>  <MODEL>
7

>  <REMARK>
 VINA RESULT:      -6.3      2.744      3.239
  Name = 
  6 active torsions:
  status: ('A' for Active; 'I' for Inactive)
    1  A    between atoms: C_4  and  C_13
    2  A    between atoms: C_7  and  C_15
    3  A    between atoms: C_7  and  C_16
    4  A    between atoms: C_8  and  C_13
    5  A    between atoms: C_13  and  C_27
    6  A    between atoms: C_16  and  S_30
                            x       y       z     vdW  Elec       q    Type
                         _______ _______ _______ _____ _____    ______ ____

>  <TORSDO>
F 6

$$$$
=
 OpenBabel11052417163D

 30 33  0  0  1  0  0  0  0  0999 V2000
  188.9800  174.1890  141.8530 C   0  0  0  0  0  2  0  0  0  0  0  0
  188.1910  173.7940  139.4900 C   0  0  2  0  0  3  0  0  0  0  0  0
  193.4700  173.9150  140.6510 S   0  0  0  0  0  0  0  0  0  0  0  0
  190.0770  174.8010  142.7420 C   0  0  1  0  0  3  0  0  0  0  0  0
  193.8660  174.4880  142.3450 C   0  0  1  0  0  3  0  0  0  0  0  0
  188.2890  172.2760  139.3130 C   0  0  0  0  0  2  0  0  0  0  0  0
  188.2000  174.4840  138.1380 C   0  0  0  0  0  1  0  0  0  0  0  0
  191.7320  174.1190  140.9980 C   0  0  0  0  0  0  0  0  0  0  0  0
  189.7370  171.8700  139.0400 C   0  0  0  0  0  2  0  0  0  0  0  0
  189.3190  174.3430  140.3690 C   0  0  2  0  0  3  0  0  0  0  0  0
  191.4710  174.5450  142.2260 C   0  0  0  0  0  0  0  0  0  0  0  0
  194.6850  175.6840  142.2750 N   0  0  0  0  0  1  0  0  0  0  0  0
  192.6170  174.7940  143.0220 N   0  0  0  0  0  2  0  0  0  0  0  0
  190.5470  172.2630  140.1180 O   0  0  0  0  0  0  0  0  0  0  0  0
  190.6670  173.6630  140.0450 C   0  0  2  0  0  3  0  0  0  0  0  0
  189.8650  176.2890  143.0640 C   0  0  2  0  0  3  0  0  0  0  0  0
  189.3850  174.9190  145.6800 C   0  0  0  0  0  2  0  0  0  0  0  0
  191.3310  177.7130  144.3100 O   0  0  0  0  0  0  0  0  0  0  0  0
  190.5340  176.7370  144.3320 C   0  0  0  0  0  0  0  0  0  0  0  0
  190.9030  176.4200  146.8170 C   0  0  0  0  0  2  0  0  0  0  0  0
  190.2820  176.0500  145.5630 N   0  0  0  0  0  0  0  0  0  0  0  0
  189.3250  174.5970  147.1620 C   0  0  0  0  0  2  0  0  0  0  0  0
  190.4630  175.3680  147.8170 C   0  0  0  0  0  2  0  0  0  0  0  0
  188.4550  176.7930  142.8970 C   0  0  0  0  0  2  0  0  0  0  0  0
  188.0430  177.9110  141.8050 S   0  0  0  0  0  0  0  0  0  0  0  0
  186.3200  178.2570  142.1870 C   0  0  0  0  0  2  0  0  0  0  0  0
  186.2180  178.8750  143.5680 C   0  0  0  0  0  2  0  0  0  0  0  0
  185.5710  176.9340  144.9880 O   0  0  0  0  0  1  0  0  0  0  0  0
  185.2190  178.1340  144.3820 C   0  0  0  0  0  0  0  0  0  0  0  0
  184.0650  178.6070  144.5480 O   0  0  0  0  0  0  0  0  0  0  0  0
  1  4  1  0  0  0  0
  2  7  1  6  0  0  0
  2 10  1  0  0  0  0
  3  8  1  0  0  0  0
  3  5  1  0  0  0  0
  4 16  1  6  0  0  0
  5 12  1  6  0  0  0
  5 13  1  0  0  0  0
  6  2  1  0  0  0  0
  8 11  2  0  0  0  0
  9  6  1  0  0  0  0
  9 14  1  0  0  0  0
 10  1  1  1  0  0  0
 11  4  1  0  0  0  0
 11 13  1  0  0  0  0
 15 14  1  1  0  0  0
 15 10  1  0  0  0  0
 15  8  1  0  0  0  0
 16 24  1  1  0  0  0
 16 19  1  0  0  0  0
 17 22  1  0  0  0  0
 18 19  2  0  0  0  0
 19 21  1  0  0  0  0
 20 23  1  0  0  0  0
 21 17  1  0  0  0  0
 21 20  1  0  0  0  0
 22 23  1  0  0  0  0
 25 26  1  0  0  0  0
 25 24  1  0  0  0  0
 26 27  1  0  0  0  0
 27 29  1  0  0  0  0
 29 30  2  0  0  0  0
 29 28  1  0  0  0  0
M  END
>  <MODEL>
8

>  <REMARK>
 VINA RESULT:      -6.1      3.237      6.661
  Name = 
  6 active torsions:
  status: ('A' for Active; 'I' for Inactive)
    1  A    between atoms: C_4  and  C_13
    2  A    between atoms: C_7  and  C_15
    3  A    between atoms: C_7  and  C_16
    4  A    between atoms: C_8  and  C_13
    5  A    between atoms: C_13  and  C_27
    6  A    between atoms: C_16  and  S_30
                            x       y       z     vdW  Elec       q    Type
                         _______ _______ _______ _____ _____    ______ ____

>  <TORSDO>
F 6

$$$$
=
 OpenBabel11052417163D

 30 33  0  0  1  0  0  0  0  0999 V2000
  189.7690  173.1660  141.7850 C   0  0  0  0  0  2  0  0  0  0  0  0
  188.4690  173.4250  139.6390 C   0  0  2  0  0  3  0  0  0  0  0  0
  193.8330  174.1070  139.7160 S   0  0  0  0  0  0  0  0  0  0  0  0
  190.9830  173.6420  142.6030 C   0  0  1  0  0  3  0  0  0  0  0  0
  194.5710  174.1590  141.3910 C   0  0  1  0  0  3  0  0  0  0  0  0
  188.6740  172.0900  138.9160 C   0  0  0  0  0  2  0  0  0  0  0  0
  188.0790  174.5060  138.6480 C   0  0  0  0  0  1  0  0  0  0  0  0
  192.2210  173.8720  140.4440 C   0  0  0  0  0  0  0  0  0  0  0  0
  190.0440  172.0620  138.2400 C   0  0  0  0  0  2  0  0  0  0  0  0
  189.7170  173.8520  140.4190 C   0  0  2  0  0  3  0  0  0  0  0  0
  192.2270  173.8220  141.7690 C   0  0  0  0  0  0  0  0  0  0  0  0
  195.2240  175.4400  141.5950 N   0  0  0  0  0  1  0  0  0  0  0  0
  193.5020  174.0000  142.3620 N   0  0  0  0  0  2  0  0  0  0  0  0
  191.0490  172.2210  139.2070 O   0  0  0  0  0  0  0  0  0  0  0  0
  191.0060  173.5670  139.6170 C   0  0  2  0  0  3  0  0  0  0  0  0
  190.7070  174.8810  143.4690 C   0  0  2  0  0  3  0  0  0  0  0  0
  192.9790  176.5520  144.4690 C   0  0  0  0  0  2  0  0  0  0  0  0
  190.6880  173.9490  145.6740 O   0  0  0  0  0  0  0  0  0  0  0  0
  191.2230  174.7650  144.8760 C   0  0  0  0  0  0  0  0  0  0  0  0
  192.8440  175.5380  146.6600 C   0  0  0  0  0  2  0  0  0  0  0  0
  192.3080  175.5880  145.3170 N   0  0  0  0  0  0  0  0  0  0  0  0
  194.1290  177.0930  145.2970 C   0  0  0  0  0  2  0  0  0  0  0  0
  193.8770  176.6460  146.7300 C   0  0  0  0  0  2  0  0  0  0  0  0
  189.3160  175.4480  143.3660 C   0  0  0  0  0  2  0  0  0  0  0  0
  188.8470  176.7810  144.1500 S   0  0  0  0  0  0  0  0  0  0  0  0
  187.0810  176.8650  143.8180 C   0  0  0  0  0  2  0  0  0  0  0  0
  186.7710  176.1440  142.5200 C   0  0  0  0  0  2  0  0  0  0  0  0
  185.2650  177.7710  141.3850 O   0  0  0  0  0  1  0  0  0  0  0  0
  186.4970  177.1330  141.4440 C   0  0  0  0  0  0  0  0  0  0  0  0
  187.3920  177.4150  140.6060 O   0  0  0  0  0  0  0  0  0  0  0  0
  1  4  1  0  0  0  0
  2  7  1  6  0  0  0
  2 10  1  0  0  0  0
  3  8  1  0  0  0  0
  3  5  1  0  0  0  0
  4 16  1  6  0  0  0
  5 12  1  1  0  0  0
  5 13  1  0  0  0  0
  6  2  1  0  0  0  0
  8 11  2  0  0  0  0
  9  6  1  0  0  0  0
  9 14  1  0  0  0  0
 10  1  1  1  0  0  0
 11 13  1  0  0  0  0
 11  4  1  0  0  0  0
 15 14  1  1  0  0  0
 15 10  1  0  0  0  0
 15  8  1  0  0  0  0
 16 24  1  1  0  0  0
 16 19  1  0  0  0  0
 17 22  1  0  0  0  0
 17 21  1  0  0  0  0
 19 21  1  0  0  0  0
 19 18  2  0  0  0  0
 20 23  1  0  0  0  0
 21 20  1  0  0  0  0
 22 23  1  0  0  0  0
 24 25  1  0  0  0  0
 26 25  1  0  0  0  0
 27 26  1  0  0  0  0
 28 29  1  0  0  0  0
 29 27  1  0  0  0  0
 30 29  2  0  0  0  0
M  END
>  <MODEL>
9

>  <REMARK>
 VINA RESULT:      -6.1      3.714      7.401
  Name = 
  6 active torsions:
  status: ('A' for Active; 'I' for Inactive)
    1  A    between atoms: C_4  and  C_13
    2  A    between atoms: C_7  and  C_15
    3  A    between atoms: C_7  and  C_16
    4  A    between atoms: C_8  and  C_13
    5  A    between atoms: C_13  and  C_27
    6  A    between atoms: C_16  and  S_30
                            x       y       z     vdW  Elec       q    Type
                         _______ _______ _______ _____ _____    ______ ____

>  <TORSDO>
F 6

$$$$
