=
 OpenBabel11052418243D

 27 31  0  0  1  0  0  0  0  0999 V2000
  188.3740  175.9570  145.7910 N   0  0  0  0  0  0  0  0  0  0  0  0
  187.5650  175.7630  143.4810 C   0  0  2  0  0  3  0  0  0  0  0  0
  189.8040  174.6680  144.2920 C   0  0  1  0  0  3  0  0  0  0  0  0
  188.2810  174.5400  139.7650 N   0  0  0  0  0  0  0  0  0  0  0  0
  189.6250  172.4950  139.0270 C   0  0  0  0  0  1  0  0  0  0  0  0
  186.9410  176.4930  142.3040 C   0  0  0  0  0  3  0  0  0  0  0  0
  189.9510  173.8170  141.1280 C   0  0  0  0  0  0  0  0  0  0  0  0
  192.1440  176.4310  145.9790 C   0  0  0  0  0  2  0  0  0  0  0  0
  191.1040  173.0210  141.6380 C   0  0  0  0  0  1  0  0  0  0  0  0
  191.1270  176.7670  147.0590 C   0  0  0  0  0  2  0  0  0  0  0  0
  189.3950  175.0540  141.7570 C   0  0  1  0  0  3  0  0  0  0  0  0
  187.8400  176.6960  144.6670 C   0  0  1  0  0  3  0  0  0  0  0  0
  189.3280  173.6060  139.9760 C   0  0  0  0  0  0  0  0  0  0  0  0
  188.3170  175.3430  140.7750 C   0  0  0  0  0  0  0  0  0  0  0  0
  189.2720  175.0420  145.6530 C   0  0  0  0  0  0  0  0  0  0  0  0
  188.7700  174.8280  143.1450 C   0  0  2  0  0  3  0  0  0  0  0  0
  191.5140  176.5810  144.6010 C   0  0  0  0  0  2  0  0  0  0  0  0
  187.2640  176.2510  141.0700 N   0  0  0  0  0  0  0  0  0  0  0  0
  190.5770  175.5250  147.7720 C   0  0  0  0  0  2  0  0  0  0  0  0
  189.9410  174.4630  146.8610 C   0  0  0  0  0  2  0  0  0  0  0  0
  191.2210  175.2060  144.0100 C   0  0  0  0  0  2  0  0  0  0  0  0
  184.3340  178.8400  145.9300 C   0  0  0  0  0  3  0  0  0  0  0  0
  186.6220  177.4550  145.0990 C   0  0  0  0  0  0  0  0  0  0  0  0
  185.7320  176.8640  146.0030 C   0  0  0  0  0  3  0  0  0  0  0  0
  184.5910  177.5550  146.4190 C   0  0  0  0  0  3  0  0  0  0  0  0
  185.2180  179.4330  145.0250 C   0  0  0  0  0  3  0  0  0  0  0  0
  186.3610  178.7430  144.6090 C   0  0  0  0  0  3  0  0  0  0  0  0
  2  6  1  6  0  0  0
  2 12  1  0  0  0  0
  3 21  1  6  0  0  0
  3 15  1  0  0  0  0
  4 13  1  0  0  0  0
  4 14  2  0  0  0  0
  5 13  1  0  0  0  0
  7  9  1  0  0  0  0
  7 11  1  0  0  0  0
  8 10  1  0  0  0  0
 10 19  1  0  0  0  0
 11 14  1  6  0  0  0
 11 16  1  0  0  0  0
 12 23  1  1  0  0  0
 12  1  1  0  0  0  0
 13  7  2  0  0  0  0
 14 18  1  0  0  0  0
 15  1  2  0  0  0  0
 15 20  1  0  0  0  0
 16  2  1  0  0  0  0
 16  3  1  0  0  0  0
 17  8  1  0  0  0  0
 18  6  2  0  0  0  0
 20 19  1  0  0  0  0
 21 17  1  0  0  0  0
 22 25  1  0  0  0  0
 23 24  1  0  0  0  0
 24 25  2  0  0  0  0
 26 22  2  0  0  0  0
 27 26  1  0  0  0  0
 27 23  2  0  0  0  0
M  END
>  <MODEL>
1

>  <REMARK>
 VINA RESULT:      -8.9      0.000      0.000
  Name = 
  1 active torsions:
  status: ('A' for Active; 'I' for Inactive)
    1  A    between atoms: C_9  and  C_15
                            x       y       z     vdW  Elec       q    Type
                         _______ _______ _______ _____ _____    ______ ____

>  <TORSDO>
F 1

$$$$
=
 OpenBabel11052418243D

 27 31  0  0  1  0  0  0  0  0999 V2000
  187.8730  177.7200  143.8430 N   0  0  0  0  0  0  0  0  0  0  0  0
  189.2750  177.0540  145.7450 C   0  0  2  0  0  3  0  0  0  0  0  0
  190.0770  176.8510  143.2580 C   0  0  1  0  0  3  0  0  0  0  0  0
  192.6470  175.3570  146.9980 N   0  0  0  0  0  0  0  0  0  0  0  0
  194.9350  175.4080  145.8620 C   0  0  0  0  0  1  0  0  0  0  0  0
  189.3170  176.3380  147.0840 C   0  0  0  0  0  3  0  0  0  0  0  0
  192.7050  175.5600  144.7350 C   0  0  0  0  0  0  0  0  0  0  0  0
  188.1910  175.3390  140.8940 C   0  0  0  0  0  2  0  0  0  0  0  0
  193.2370  175.6460  143.3440 C   0  0  0  0  0  1  0  0  0  0  0  0
  187.0560  176.3150  141.1590 C   0  0  0  0  0  2  0  0  0  0  0  0
  191.2620  175.4790  145.1160 C   0  0  1  0  0  3  0  0  0  0  0  0
  187.8940  176.9750  145.0830 C   0  0  1  0  0  3  0  0  0  0  0  0
  193.4450  175.4250  145.8270 C   0  0  0  0  0  0  0  0  0  0  0  0
  191.4210  175.4000  146.5920 C   0  0  0  0  0  0  0  0  0  0  0  0
  188.8400  177.6750  142.9920 C   0  0  0  0  0  0  0  0  0  0  0  0
  190.4450  176.7340  144.7610 C   0  0  2  0  0  3  0  0  0  0  0  0
  188.7960  174.8660  142.2090 C   0  0  0  0  0  2  0  0  0  0  0  0
  190.3300  175.6250  147.4740 N   0  0  0  0  0  0  0  0  0  0  0  0
  187.4420  177.7730  140.8800 C   0  0  0  0  0  2  0  0  0  0  0  0
  188.6750  178.2910  141.6380 C   0  0  0  0  0  2  0  0  0  0  0  0
  190.1410  175.5470  142.4380 C   0  0  0  0  0  2  0  0  0  0  0  0
  184.7170  178.3390  147.6380 C   0  0  0  0  0  3  0  0  0  0  0  0
  186.7950  177.4610  145.9790 C   0  0  0  0  0  0  0  0  0  0  0  0
  185.5670  176.7910  145.9810 C   0  0  0  0  0  3  0  0  0  0  0  0
  184.5290  177.2280  146.8100 C   0  0  0  0  0  3  0  0  0  0  0  0
  185.9410  179.0130  147.6380 C   0  0  0  0  0  3  0  0  0  0  0  0
  186.9800  178.5770  146.8100 C   0  0  0  0  0  3  0  0  0  0  0  0
  1 12  1  0  0  0  0
  2  6  1  1  0  0  0
  3 21  1  1  0  0  0
  3 16  1  0  0  0  0
  6 18  2  0  0  0  0
  7 13  2  0  0  0  0
  8 10  1  0  0  0  0
  8 17  1  0  0  0  0
  9  7  1  0  0  0  0
 11  7  1  6  0  0  0
 11 14  1  0  0  0  0
 12  2  1  0  0  0  0
 12 23  1  1  0  0  0
 13  5  1  0  0  0  0
 13  4  1  0  0  0  0
 14  4  2  0  0  0  0
 14 18  1  0  0  0  0
 15  3  1  0  0  0  0
 15  1  2  0  0  0  0
 16 11  1  0  0  0  0
 16  2  1  0  0  0  0
 17 21  1  0  0  0  0
 19 10  1  0  0  0  0
 19 20  1  0  0  0  0
 20 15  1  0  0  0  0
 22 26  1  0  0  0  0
 23 24  2  0  0  0  0
 23 27  1  0  0  0  0
 24 25  1  0  0  0  0
 25 22  2  0  0  0  0
 27 26  2  0  0  0  0
M  END
>  <MODEL>
2

>  <REMARK>
 VINA RESULT:      -8.3      2.068      4.978
  Name = 
  1 active torsions:
  status: ('A' for Active; 'I' for Inactive)
    1  A    between atoms: C_9  and  C_15
                            x       y       z     vdW  Elec       q    Type
                         _______ _______ _______ _____ _____    ______ ____

>  <TORSDO>
F 1

$$$$
=
 OpenBabel11052418243D

 27 31  0  0  1  0  0  0  0  0999 V2000
  188.0340  175.9930  143.1140 N   0  0  0  0  0  0  0  0  0  0  0  0
  189.2740  176.8680  145.0430 C   0  0  2  0  0  3  0  0  0  0  0  0
  190.3040  175.1340  143.3690 C   0  0  1  0  0  3  0  0  0  0  0  0
  192.5610  176.7030  147.2770 N   0  0  0  0  0  0  0  0  0  0  0  0
  194.9410  176.1720  146.5130 C   0  0  0  0  0  1  0  0  0  0  0  0
  189.2130  177.2240  146.5190 C   0  0  0  0  0  3  0  0  0  0  0  0
  192.8200  175.3610  145.4600 C   0  0  0  0  0  0  0  0  0  0  0  0
  188.6810  172.2910  142.5230 C   0  0  0  0  0  2  0  0  0  0  0  0
  193.4730  174.5470  144.3950 C   0  0  0  0  0  1  0  0  0  0  0  0
  187.5010  173.1030  142.0120 C   0  0  0  0  0  2  0  0  0  0  0  0
  191.3500  175.4370  145.7250 C   0  0  1  0  0  3  0  0  0  0  0  0
  187.9610  176.2590  144.5340 C   0  0  1  0  0  3  0  0  0  0  0  0
  193.4600  176.0430  146.4000 C   0  0  0  0  0  0  0  0  0  0  0  0
  191.3770  176.3680  146.8840 C   0  0  0  0  0  0  0  0  0  0  0  0
  189.0750  175.4730  142.5600 C   0  0  0  0  0  0  0  0  0  0  0  0
  190.5370  176.0720  144.5830 C   0  0  2  0  0  3  0  0  0  0  0  0
  189.1760  172.8580  143.8460 C   0  0  0  0  0  2  0  0  0  0  0  0
  190.2040  177.0320  147.3350 N   0  0  0  0  0  0  0  0  0  0  0  0
  187.8730  174.0360  140.8530 C   0  0  0  0  0  2  0  0  0  0  0  0
  189.0180  175.0220  141.1340 C   0  0  0  0  0  2  0  0  0  0  0  0
  190.4760  173.6250  143.6310 C   0  0  0  0  0  2  0  0  0  0  0  0
  184.5670  178.7760  145.3280 C   0  0  0  0  0  3  0  0  0  0  0  0
  186.7730  177.1270  144.8210 C   0  0  0  0  0  0  0  0  0  0  0  0
  186.5790  178.2920  144.0700 C   0  0  0  0  0  3  0  0  0  0  0  0
  185.4770  179.1140  144.3220 C   0  0  0  0  0  3  0  0  0  0  0  0
  184.7580  177.6150  146.0820 C   0  0  0  0  0  3  0  0  0  0  0  0
  185.8590  176.7910  145.8310 C   0  0  0  0  0  3  0  0  0  0  0  0
  1 12  1  0  0  0  0
  2  6  1  1  0  0  0
  3 21  1  1  0  0  0
  3 16  1  0  0  0  0
  6 18  2  0  0  0  0
  7 13  2  0  0  0  0
  8 17  1  0  0  0  0
  9  7  1  0  0  0  0
 10  8  1  0  0  0  0
 11  7  1  6  0  0  0
 11 14  1  0  0  0  0
 12 23  1  6  0  0  0
 12  2  1  0  0  0  0
 13  5  1  0  0  0  0
 13  4  1  0  0  0  0
 14  4  2  0  0  0  0
 14 18  1  0  0  0  0
 15  1  2  0  0  0  0
 15  3  1  0  0  0  0
 16  2  1  0  0  0  0
 16 11  1  0  0  0  0
 19 20  1  0  0  0  0
 19 10  1  0  0  0  0
 20 15  1  0  0  0  0
 21 17  1  0  0  0  0
 22 26  1  0  0  0  0
 23 27  1  0  0  0  0
 24 25  1  0  0  0  0
 24 23  2  0  0  0  0
 25 22  2  0  0  0  0
 27 26  2  0  0  0  0
M  END
>  <MODEL>
3

>  <REMARK>
 VINA RESULT:      -8.0      1.761      5.056
  Name = 
  1 active torsions:
  status: ('A' for Active; 'I' for Inactive)
    1  A    between atoms: C_9  and  C_15
                            x       y       z     vdW  Elec       q    Type
                         _______ _______ _______ _____ _____    ______ ____

>  <TORSDO>
F 1

$$$$
=
 OpenBabel11052418243D

 27 31  0  0  1  0  0  0  0  0999 V2000
  188.9470  175.2910  143.1070 N   0  0  0  0  0  0  0  0  0  0  0  0
  190.7230  176.4350  144.3570 C   0  0  2  0  0  3  0  0  0  0  0  0
  191.2230  174.7100  142.4490 C   0  0  1  0  0  3  0  0  0  0  0  0
  194.6160  176.7950  145.0880 N   0  0  0  0  0  0  0  0  0  0  0  0
  196.5480  176.4780  143.4450 C   0  0  0  0  0  1  0  0  0  0  0  0
  191.2040  176.8870  145.7260 C   0  0  0  0  0  3  0  0  0  0  0  0
  194.3090  175.3630  143.3490 C   0  0  0  0  0  0  0  0  0  0  0  0
  189.7840  171.6510  142.3860 C   0  0  0  0  0  2  0  0  0  0  0  0
  194.5880  174.5520  142.1290 C   0  0  0  0  0  1  0  0  0  0  0  0
  188.4040  172.2890  142.3740 C   0  0  0  0  0  2  0  0  0  0  0  0
  193.0670  175.2950  144.1800 C   0  0  1  0  0  3  0  0  0  0  0  0
  189.4080  175.6490  144.4310 C   0  0  1  0  0  3  0  0  0  0  0  0
  195.1740  176.1770  143.9390 C   0  0  0  0  0  0  0  0  0  0  0  0
  193.4280  176.3040  145.2110 C   0  0  0  0  0  0  0  0  0  0  0  0
  189.7430  174.8520  142.1930 C   0  0  0  0  0  0  0  0  0  0  0  0
  191.7940  175.7520  143.4470 C   0  0  2  0  0  3  0  0  0  0  0  0
  190.6830  172.3630  143.3870 C   0  0  0  0  0  2  0  0  0  0  0  0
  192.4530  176.8650  146.0790 N   0  0  0  0  0  0  0  0  0  0  0  0
  188.1620  173.1710  141.1430 C   0  0  0  0  0  2  0  0  0  0  0  0
  189.1860  174.2960  140.9200 C   0  0  0  0  0  2  0  0  0  0  0  0
  191.6810  173.2510  142.6520 C   0  0  0  0  0  2  0  0  0  0  0  0
  186.3080  177.8260  146.4660 C   0  0  0  0  0  3  0  0  0  0  0  0
  188.3280  176.3990  145.1520 C   0  0  0  0  0  0  0  0  0  0  0  0
  187.7180  177.4910  144.5260 C   0  0  0  0  0  3  0  0  0  0  0  0
  186.7090  178.2030  145.1810 C   0  0  0  0  0  3  0  0  0  0  0  0
  186.9150  176.7360  147.0960 C   0  0  0  0  0  3  0  0  0  0  0  0
  187.9240  176.0230  146.4420 C   0  0  0  0  0  3  0  0  0  0  0  0
  1 12  1  0  0  0  0
  2 12  1  0  0  0  0
  2  6  1  1  0  0  0
  3 21  1  1  0  0  0
  3 16  1  0  0  0  0
  4 14  2  0  0  0  0
  5 13  1  0  0  0  0
  6 18  2  0  0  0  0
  7 13  2  0  0  0  0
  8 17  1  0  0  0  0
  9  7  1  0  0  0  0
 10  8  1  0  0  0  0
 11  7  1  6  0  0  0
 11 14  1  0  0  0  0
 12 23  1  6  0  0  0
 13  4  1  0  0  0  0
 14 18  1  0  0  0  0
 15  3  1  0  0  0  0
 15  1  2  0  0  0  0
 16 11  1  0  0  0  0
 16  2  1  0  0  0  0
 19 10  1  0  0  0  0
 20 19  1  0  0  0  0
 20 15  1  0  0  0  0
 21 17  1  0  0  0  0
 22 26  1  0  0  0  0
 23 27  1  0  0  0  0
 24 23  2  0  0  0  0
 24 25  1  0  0  0  0
 25 22  2  0  0  0  0
 27 26  2  0  0  0  0
M  END
>  <MODEL>
4

>  <REMARK>
 VINA RESULT:      -7.7      2.515      5.132
  Name = 
  1 active torsions:
  status: ('A' for Active; 'I' for Inactive)
    1  A    between atoms: C_9  and  C_15
                            x       y       z     vdW  Elec       q    Type
                         _______ _______ _______ _____ _____    ______ ____

>  <TORSDO>
F 1

$$$$
=
 OpenBabel11052418243D

 27 31  0  0  1  0  0  0  0  0999 V2000
  188.7540  175.7560  145.1830 N   0  0  0  0  0  0  0  0  0  0  0  0
  188.3720  174.8960  142.9160 C   0  0  2  0  0  3  0  0  0  0  0  0
  190.2480  173.9570  144.4880 C   0  0  1  0  0  3  0  0  0  0  0  0
  189.5970  172.5040  139.9830 N   0  0  0  0  0  0  0  0  0  0  0  0
  190.7600  170.2390  140.2000 C   0  0  0  0  0  1  0  0  0  0  0  0
  188.0860  175.2550  141.4680 C   0  0  0  0  0  3  0  0  0  0  0  0
  190.8660  172.1340  141.8320 C   0  0  0  0  0  0  0  0  0  0  0  0
  192.4500  175.9920  146.0490 C   0  0  0  0  0  2  0  0  0  0  0  0
  191.7830  171.4610  142.7970 C   0  0  0  0  0  1  0  0  0  0  0  0
  191.3060  176.7270  146.7290 C   0  0  0  0  0  2  0  0  0  0  0  0
  190.3780  173.5440  141.9280 C   0  0  1  0  0  3  0  0  0  0  0  0
  188.5470  176.1350  143.8020 C   0  0  1  0  0  3  0  0  0  0  0  0
  190.4470  171.6120  140.6870 C   0  0  0  0  0  0  0  0  0  0  0  0
  189.5520  173.5820  140.6920 C   0  0  0  0  0  0  0  0  0  0  0  0
  189.5270  174.7830  145.5250 C   0  0  0  0  0  0  0  0  0  0  0  0
  189.4790  173.8170  143.1470 C   0  0  2  0  0  3  0  0  0  0  0  0
  192.1170  175.7390  144.5860 C   0  0  0  0  0  2  0  0  0  0  0  0
  188.5980  174.6100  140.4640 N   0  0  0  0  0  0  0  0  0  0  0  0
  190.4670  175.8200  147.6380 C   0  0  0  0  0  2  0  0  0  0  0  0
  189.8720  174.5730  146.9660 C   0  0  0  0  0  2  0  0  0  0  0  0
  191.7530  174.2730  144.3790 C   0  0  0  0  0  2  0  0  0  0  0  0
  185.1940  178.8170  143.5650 C   0  0  0  0  0  3  0  0  0  0  0  0
  187.3850  177.0790  143.7100 C   0  0  0  0  0  0  0  0  0  0  0  0
  186.2590  176.8580  144.5100 C   0  0  0  0  0  3  0  0  0  0  0  0
  185.1660  177.7260  144.4390 C   0  0  0  0  0  3  0  0  0  0  0  0
  186.3160  179.0410  142.7620 C   0  0  0  0  0  3  0  0  0  0  0  0
  187.4110  178.1730  142.8320 C   0  0  0  0  0  3  0  0  0  0  0  0
  1 15  2  0  0  0  0
  2  6  1  6  0  0  0
  2 16  1  0  0  0  0
  2 12  1  0  0  0  0
  3 21  1  6  0  0  0
  3 15  1  0  0  0  0
  4 13  1  0  0  0  0
  4 14  2  0  0  0  0
  5 13  1  0  0  0  0
  7 11  1  0  0  0  0
  7  9  1  0  0  0  0
  8 10  1  0  0  0  0
 10 19  1  0  0  0  0
 11 14  1  6  0  0  0
 11 16  1  0  0  0  0
 12 23  1  1  0  0  0
 12  1  1  0  0  0  0
 13  7  2  0  0  0  0
 15 20  1  0  0  0  0
 16  3  1  0  0  0  0
 17  8  1  0  0  0  0
 18 14  1  0  0  0  0
 18  6  2  0  0  0  0
 20 19  1  0  0  0  0
 21 17  1  0  0  0  0
 22 25  1  0  0  0  0
 23 24  1  0  0  0  0
 25 24  2  0  0  0  0
 26 27  1  0  0  0  0
 26 22  2  0  0  0  0
 27 23  2  0  0  0  0
M  END
>  <MODEL>
5

>  <REMARK>
 VINA RESULT:      -7.6      1.302      1.723
  Name = 
  1 active torsions:
  status: ('A' for Active; 'I' for Inactive)
    1  A    between atoms: C_9  and  C_15
                            x       y       z     vdW  Elec       q    Type
                         _______ _______ _______ _____ _____    ______ ____

>  <TORSDO>
F 1

$$$$
=
 OpenBabel11052418243D

 27 31  0  0  1  0  0  0  0  0999 V2000
  191.1910  175.6570  144.2100 N   0  0  0  0  0  0  0  0  0  0  0  0
  189.0420  175.8910  143.0480 C   0  0  2  0  0  3  0  0  0  0  0  0
  189.5320  177.0300  145.3570 C   0  0  1  0  0  3  0  0  0  0  0  0
  185.3010  177.2400  143.1480 N   0  0  0  0  0  0  0  0  0  0  0  0
  184.4320  179.3450  144.3080 C   0  0  0  0  0  1  0  0  0  0  0  0
  187.9520  175.1770  142.2670 C   0  0  0  0  0  3  0  0  0  0  0  0
  186.4130  177.9740  144.9900 C   0  0  0  0  0  0  0  0  0  0  0  0
  190.7800  175.2910  147.9740 C   0  0  0  0  0  2  0  0  0  0  0  0
  186.7650  178.7900  146.1880 C   0  0  0  0  0  1  0  0  0  0  0  0
  191.9930  174.8940  147.1460 C   0  0  0  0  0  2  0  0  0  0  0  0
  187.0800  176.7040  144.5700 C   0  0  1  0  0  3  0  0  0  0  0  0
  190.1400  174.9340  143.5270 C   0  0  1  0  0  3  0  0  0  0  0  0
  185.3790  178.1990  144.1910 C   0  0  0  0  0  0  0  0  0  0  0  0
  186.2680  176.4100  143.3600 C   0  0  0  0  0  0  0  0  0  0  0  0
  190.9470  176.6010  145.0520 C   0  0  0  0  0  0  0  0  0  0  0  0
  188.5550  176.8720  144.1620 C   0  0  2  0  0  3  0  0  0  0  0  0
  189.5110  175.1620  147.1430 C   0  0  0  0  0  2  0  0  0  0  0  0
  186.6910  175.4630  142.3880 N   0  0  0  0  0  0  0  0  0  0  0  0
  192.8220  176.0980  146.6820 C   0  0  0  0  0  2  0  0  0  0  0  0
  192.0550  177.1660  145.8860 C   0  0  0  0  0  2  0  0  0  0  0  0
  189.0180  176.5430  146.7260 C   0  0  0  0  0  2  0  0  0  0  0  0
  191.8580  172.6500  140.3150 C   0  0  0  0  0  3  0  0  0  0  0  0
  190.7300  174.1270  142.4110 C   0  0  0  0  0  0  0  0  0  0  0  0
  191.7970  174.6530  141.6750 C   0  0  0  0  0  3  0  0  0  0  0  0
  192.3610  173.9170  140.6290 C   0  0  0  0  0  3  0  0  0  0  0  0
  190.7910  172.1200  141.0460 C   0  0  0  0  0  3  0  0  0  0  0  0
  190.2260  172.8560  142.0920 C   0  0  0  0  0  3  0  0  0  0  0  0
  1 15  2  0  0  0  0
  2  6  1  1  0  0  0
  2 12  1  0  0  0  0
  2 16  1  0  0  0  0
  3 21  1  1  0  0  0
  4 14  2  0  0  0  0
  4 13  1  0  0  0  0
  6 18  2  0  0  0  0
  7  9  1  0  0  0  0
 10  8  1  0  0  0  0
 11 14  1  6  0  0  0
 11  7  1  0  0  0  0
 12 23  1  6  0  0  0
 12  1  1  0  0  0  0
 13  5  1  0  0  0  0
 13  7  2  0  0  0  0
 15  3  1  0  0  0  0
 15 20  1  0  0  0  0
 16 11  1  0  0  0  0
 16  3  1  0  0  0  0
 17  8  1  0  0  0  0
 18 14  1  0  0  0  0
 19 10  1  0  0  0  0
 20 19  1  0  0  0  0
 21 17  1  0  0  0  0
 22 25  2  0  0  0  0
 22 26  1  0  0  0  0
 24 23  2  0  0  0  0
 25 24  1  0  0  0  0
 26 27  2  0  0  0  0
 27 23  1  0  0  0  0
M  END
>  <MODEL>
6

>  <REMARK>
 VINA RESULT:      -7.6      1.608      5.830
  Name = 
  1 active torsions:
  status: ('A' for Active; 'I' for Inactive)
    1  A    between atoms: C_9  and  C_15
                            x       y       z     vdW  Elec       q    Type
                         _______ _______ _______ _____ _____    ______ ____

>  <TORSDO>
F 1

$$$$
=
 OpenBabel11052418243D

 27 31  0  0  1  0  0  0  0  0999 V2000
  189.5450  175.8310  145.7440 N   0  0  0  0  0  0  0  0  0  0  0  0
  188.2930  175.4340  143.6700 C   0  0  2  0  0  3  0  0  0  0  0  0
  190.7410  174.5700  144.0320 C   0  0  1  0  0  3  0  0  0  0  0  0
  188.3260  174.0490  139.9420 N   0  0  0  0  0  0  0  0  0  0  0  0
  189.6650  172.0750  139.0230 C   0  0  0  0  0  1  0  0  0  0  0  0
  187.3740  176.0400  142.6230 C   0  0  0  0  0  3  0  0  0  0  0  0
  190.3020  173.5440  140.9480 C   0  0  0  0  0  0  0  0  0  0  0  0
  193.2130  176.6120  145.1060 C   0  0  0  0  0  2  0  0  0  0  0  0
  191.6030  172.8730  141.2350 C   0  0  0  0  0  1  0  0  0  0  0  0
  192.4180  176.9310  146.3620 C   0  0  0  0  0  2  0  0  0  0  0  0
  189.7800  174.7690  141.6280 C   0  0  1  0  0  3  0  0  0  0  0  0
  188.7240  176.4560  144.7300 C   0  0  1  0  0  3  0  0  0  0  0  0
  189.4740  173.2150  139.9650 C   0  0  0  0  0  0  0  0  0  0  0  0
  188.4990  174.9120  140.8870 C   0  0  0  0  0  0  0  0  0  0  0  0
  190.4730  174.9840  145.4580 C   0  0  0  0  0  0  0  0  0  0  0  0
  189.4810  174.5780  143.1260 C   0  0  2  0  0  3  0  0  0  0  0  0
  192.2990  176.6270  143.8880 C   0  0  0  0  0  2  0  0  0  0  0  0
  187.4530  175.7500  141.3600 N   0  0  0  0  0  0  0  0  0  0  0  0
  192.1420  175.6950  147.2280 C   0  0  0  0  0  2  0  0  0  0  0  0
  191.4280  174.5330  146.5190 C   0  0  0  0  0  2  0  0  0  0  0  0
  192.0140  175.2010  143.4320 C   0  0  0  0  0  2  0  0  0  0  0  0
  185.3830  178.3920  146.6200 C   0  0  0  0  0  3  0  0  0  0  0  0
  187.5600  177.1410  145.3780 C   0  0  0  0  0  0  0  0  0  0  0  0
  187.0340  176.6210  146.5660 C   0  0  0  0  0  3  0  0  0  0  0  0
  185.9480  177.2450  147.1870 C   0  0  0  0  0  3  0  0  0  0  0  0
  185.9030  178.9150  145.4330 C   0  0  0  0  0  3  0  0  0  0  0  0
  186.9900  178.2910  144.8110 C   0  0  0  0  0  3  0  0  0  0  0  0
  2  6  1  6  0  0  0
  2 12  1  0  0  0  0
  3 21  1  6  0  0  0
  3 15  1  0  0  0  0
  4 13  1  0  0  0  0
  4 14  2  0  0  0  0
  5 13  1  0  0  0  0
  7  9  1  0  0  0  0
  7 11  1  0  0  0  0
  8 10  1  0  0  0  0
 10 19  1  0  0  0  0
 11 14  1  6  0  0  0
 11 16  1  0  0  0  0
 12 23  1  1  0  0  0
 12  1  1  0  0  0  0
 13  7  2  0  0  0  0
 14 18  1  0  0  0  0
 15  1  2  0  0  0  0
 15 20  1  0  0  0  0
 16  2  1  0  0  0  0
 16  3  1  0  0  0  0
 17  8  1  0  0  0  0
 18  6  2  0  0  0  0
 20 19  1  0  0  0  0
 21 17  1  0  0  0  0
 22 25  1  0  0  0  0
 23 24  1  0  0  0  0
 24 25  2  0  0  0  0
 26 22  2  0  0  0  0
 27 23  2  0  0  0  0
 27 26  1  0  0  0  0
M  END
>  <MODEL>
7

>  <REMARK>
 VINA RESULT:      -7.5      0.966      1.034
  Name = 
  1 active torsions:
  status: ('A' for Active; 'I' for Inactive)
    1  A    between atoms: C_9  and  C_15
                            x       y       z     vdW  Elec       q    Type
                         _______ _______ _______ _____ _____    ______ ____

>  <TORSDO>
F 1

$$$$
=
 OpenBabel11052418243D

 27 31  0  0  1  0  0  0  0  0999 V2000
  190.4560  175.4980  145.3240 N   0  0  0  0  0  0  0  0  0  0  0  0
  189.0520  174.7980  143.4360 C   0  0  2  0  0  3  0  0  0  0  0  0
  191.5730  174.1120  143.6550 C   0  0  1  0  0  3  0  0  0  0  0  0
  188.8410  172.9920  139.8980 N   0  0  0  0  0  0  0  0  0  0  0  0
  190.2150  170.9980  139.0800 C   0  0  0  0  0  1  0  0  0  0  0  0
  188.0070  175.2280  142.4200 C   0  0  0  0  0  3  0  0  0  0  0  0
  190.9260  172.7120  140.7600 C   0  0  0  0  0  0  0  0  0  0  0  0
  193.9960  176.3910  144.2550 C   0  0  0  0  0  2  0  0  0  0  0  0
  192.2870  172.1490  140.9940 C   0  0  0  0  0  1  0  0  0  0  0  0
  193.2970  176.8130  145.5390 C   0  0  0  0  0  2  0  0  0  0  0  0
  190.3910  173.9780  141.3480 C   0  0  1  0  0  3  0  0  0  0  0  0
  189.5110  175.9570  144.3300 C   0  0  1  0  0  3  0  0  0  0  0  0
  190.0370  172.2280  139.9040 C   0  0  0  0  0  0  0  0  0  0  0  0
  189.0430  173.9670  140.7210 C   0  0  0  0  0  0  0  0  0  0  0  0
  191.4070  174.6730  145.0460 C   0  0  0  0  0  0  0  0  0  0  0  0
  190.2390  173.9480  142.8780 C   0  0  2  0  0  3  0  0  0  0  0  0
  192.9790  176.2170  143.1360 C   0  0  0  0  0  2  0  0  0  0  0  0
  187.9920  174.7980  141.1950 N   0  0  0  0  0  0  0  0  0  0  0  0
  193.1790  175.6720  146.5580 C   0  0  0  0  0  2  0  0  0  0  0  0
  192.4790  174.4000  146.0540 C   0  0  0  0  0  2  0  0  0  0  0  0
  192.7450  174.7340  142.8700 C   0  0  0  0  0  2  0  0  0  0  0  0
  186.2330  177.9180  146.3030 C   0  0  0  0  0  3  0  0  0  0  0  0
  188.3680  176.6510  145.0060 C   0  0  0  0  0  0  0  0  0  0  0  0
  187.9090  176.1710  146.2380 C   0  0  0  0  0  3  0  0  0  0  0  0
  186.8440  176.8040  146.8860 C   0  0  0  0  0  3  0  0  0  0  0  0
  186.6860  178.4000  145.0720 C   0  0  0  0  0  3  0  0  0  0  0  0
  187.7520  177.7680  144.4230 C   0  0  0  0  0  3  0  0  0  0  0  0
  2  6  1  6  0  0  0
  2 12  1  0  0  0  0
  3 21  1  6  0  0  0
  3 15  1  0  0  0  0
  4 13  1  0  0  0  0
  4 14  2  0  0  0  0
  5 13  1  0  0  0  0
  7  9  1  0  0  0  0
  7 11  1  0  0  0  0
  8 10  1  0  0  0  0
 10 19  1  0  0  0  0
 11 14  1  6  0  0  0
 11 16  1  0  0  0  0
 12 23  1  1  0  0  0
 12  1  1  0  0  0  0
 13  7  2  0  0  0  0
 14 18  1  0  0  0  0
 15  1  2  0  0  0  0
 15 20  1  0  0  0  0
 16  2  1  0  0  0  0
 16  3  1  0  0  0  0
 17  8  1  0  0  0  0
 18  6  2  0  0  0  0
 20 19  1  0  0  0  0
 21 17  1  0  0  0  0
 22 25  1  0  0  0  0
 23 24  1  0  0  0  0
 24 25  2  0  0  0  0
 26 22  2  0  0  0  0
 27 23  2  0  0  0  0
 27 26  1  0  0  0  0
M  END
>  <MODEL>
8

>  <REMARK>
 VINA RESULT:      -7.5      1.558      2.006
  Name = 
  1 active torsions:
  status: ('A' for Active; 'I' for Inactive)
    1  A    between atoms: C_9  and  C_15
                            x       y       z     vdW  Elec       q    Type
                         _______ _______ _______ _____ _____    ______ ____

>  <TORSDO>
F 1

$$$$
=
 OpenBabel11052418243D

 27 31  0  0  1  0  0  0  0  0999 V2000
  188.8390  175.6880  142.0630 N   0  0  0  0  0  0  0  0  0  0  0  0
  188.4740  177.0820  144.0500 C   0  0  2  0  0  3  0  0  0  0  0  0
  190.3410  175.2470  143.9350 C   0  0  1  0  0  3  0  0  0  0  0  0
  189.4110  177.8340  147.8420 N   0  0  0  0  0  0  0  0  0  0  0  0
  191.6830  177.5410  148.9750 C   0  0  0  0  0  1  0  0  0  0  0  0
  187.4420  177.6910  144.9860 C   0  0  0  0  0  3  0  0  0  0  0  0
  190.8070  176.2360  147.0270 C   0  0  0  0  0  0  0  0  0  0  0  0
  189.6740  172.0830  142.9460 C   0  0  0  0  0  2  0  0  0  0  0  0
  191.9970  175.3480  146.8830 C   0  0  0  0  0  1  0  0  0  0  0  0
  189.1510  172.5980  141.6140 C   0  0  0  0  0  2  0  0  0  0  0  0
  189.5400  176.1350  146.2390 C   0  0  1  0  0  3  0  0  0  0  0  0
  187.8360  176.1980  142.9720 C   0  0  1  0  0  3  0  0  0  0  0  0
  190.6590  177.1690  147.9580 C   0  0  0  0  0  0  0  0  0  0  0  0
  188.7930  177.2560  146.8670 C   0  0  0  0  0  0  0  0  0  0  0  0
  189.9770  175.2400  142.4700 C   0  0  0  0  0  0  0  0  0  0  0  0
  189.7100  176.4170  144.7360 C   0  0  2  0  0  3  0  0  0  0  0  0
  189.1600  172.9530  144.0850 C   0  0  0  0  0  2  0  0  0  0  0  0
  187.6280  177.8060  146.2650 N   0  0  0  0  0  0  0  0  0  0  0  0
  190.2150  173.3470  140.8010 C   0  0  0  0  0  2  0  0  0  0  0  0
  190.8860  174.5300  141.5160 C   0  0  0  0  0  2  0  0  0  0  0  0
  190.2770  173.8560  144.5970 C   0  0  0  0  0  2  0  0  0  0  0  0
  184.8090  178.2490  140.7100 C   0  0  0  0  0  3  0  0  0  0  0  0
  186.7710  176.9120  142.1950 C   0  0  0  0  0  0  0  0  0  0  0  0
  187.0100  177.2500  140.8580 C   0  0  0  0  0  3  0  0  0  0  0  0
  186.0310  177.9160  140.1160 C   0  0  0  0  0  3  0  0  0  0  0  0
  184.5660  177.9160  142.0450 C   0  0  0  0  0  3  0  0  0  0  0  0
  185.5450  177.2490  142.7880 C   0  0  0  0  0  3  0  0  0  0  0  0
  1 15  2  0  0  0  0
  1 12  1  0  0  0  0
  2 16  1  0  0  0  0
  2  6  1  1  0  0  0
  3 21  1  1  0  0  0
  3 16  1  0  0  0  0
  4 13  1  0  0  0  0
  6 18  2  0  0  0  0
  7 13  2  0  0  0  0
  8 17  1  0  0  0  0
  9  7  1  0  0  0  0
 10  8  1  0  0  0  0
 11 14  1  1  0  0  0
 11  7  1  0  0  0  0
 12 23  1  6  0  0  0
 12  2  1  0  0  0  0
 13  5  1  0  0  0  0
 14  4  2  0  0  0  0
 15  3  1  0  0  0  0
 16 11  1  0  0  0  0
 17 21  1  0  0  0  0
 18 14  1  0  0  0  0
 19 20  1  0  0  0  0
 19 10  1  0  0  0  0
 20 15  1  0  0  0  0
 22 26  1  0  0  0  0
 23 27  1  0  0  0  0
 24 23  2  0  0  0  0
 25 22  2  0  0  0  0
 25 24  1  0  0  0  0
 26 27  2  0  0  0  0
M  END
>  <MODEL>
9

>  <REMARK>
 VINA RESULT:      -7.2      1.762      5.485
  Name = 
  1 active torsions:
  status: ('A' for Active; 'I' for Inactive)
    1  A    between atoms: C_9  and  C_15
                            x       y       z     vdW  Elec       q    Type
                         _______ _______ _______ _____ _____    ______ ____

>  <TORSDO>
F 1

$$$$
