=
 OpenBabel11052421383D

 32 37  0  0  1  0  0  0  0  0999 V2000
  189.5310  174.7140  144.3870 C   0  0  2  0  0  3  0  0  0  0  0  0
  190.1400  172.0490  141.5600 C   0  0  0  0  0  2  0  0  0  0  0  0
  188.7070  172.1180  141.0070 C   0  0  0  0  0  2  0  0  0  0  0  0
  188.1270  176.8800  144.8970 C   0  0  1  0  0  3  0  0  0  0  0  0
  187.0870  177.6960  144.1690 C   0  0  0  0  0  0  0  0  0  0  0  0
  185.6070  178.3660  142.6450 C   0  0  0  0  0  0  0  0  0  0  0  0
  190.1710  172.4760  143.0350 C   0  0  0  0  0  2  0  0  0  0  0  0
  189.4120  173.7550  143.2270 C   0  0  0  0  0  0  0  0  0  0  0  0
  187.8790  175.3560  142.8550 C   0  0  0  0  0  0  0  0  0  0  0  0
  185.6430  179.3220  143.6480 O   0  0  0  0  0  0  0  0  0  0  0  0
  186.5490  178.9420  144.6150 N   0  0  0  0  0  0  0  0  0  0  0  0
  188.1410  173.4140  141.2260 O   0  0  0  0  0  0  0  0  0  0  0  0
  188.4590  174.1280  142.3830 C   0  0  0  0  0  0  0  0  0  0  0  0
  186.9280  176.0980  142.2900 C   0  0  0  0  0  3  0  0  0  0  0  0
  187.5620  176.4050  146.2230 C   0  0  0  0  0  1  0  0  0  0  0  0
  184.8400  178.4190  141.5660 C   0  0  0  0  0  1  0  0  0  0  0  0
  188.5140  175.7210  144.0770 N   0  0  0  0  0  0  0  0  0  0  0  0
  186.5520  177.3260  143.0070 C   0  0  0  0  0  0  0  0  0  0  0  0
  194.8010  175.7040  146.0140 C   0  0  0  0  0  2  0  0  0  0  0  0
  192.9510  175.9940  143.7090 C   0  0  1  0  0  3  0  0  0  0  0  0
  191.3890  175.9060  145.4410 N   0  0  0  0  0  0  0  0  0  0  0  0
  193.6790  176.7410  146.0480 C   0  0  0  0  0  2  0  0  0  0  0  0
  190.8870  175.3400  144.3980 C   0  0  0  0  0  0  0  0  0  0  0  0
  195.2700  175.4300  144.5770 C   0  0  1  0  0  3  0  0  0  0  0  0
  192.6550  176.3730  145.0830 N   0  0  0  0  0  0  0  0  0  0  0  0
  194.1000  174.9810  143.6940 C   0  0  0  0  0  2  0  0  0  0  0  0
  191.7490  175.3520  143.3060 O   0  0  0  0  0  0  0  0  0  0  0  0
  195.9820  176.6350  143.9750 C   0  0  0  0  0  2  0  0  0  0  0  0
  196.5070  176.3670  141.5270 C   0  0  0  0  0  0  0  0  0  0  0  0
  196.8610  176.2050  142.8990 N   0  0  0  0  0  2  0  0  0  0  0  0
  197.4270  175.8750  140.4680 C   0  0  0  0  0  1  0  0  0  0  0  0
  195.4270  176.9300  141.2020 O   0  0  0  0  0  0  0  0  0  0  0  0
  1 23  1  6  0  0  0
  2  7  1  0  0  0  0
  3 12  1  0  0  0  0
  3  2  1  0  0  0  0
  4 15  1  1  0  0  0
  5 11  2  0  0  0  0
  5  4  1  0  0  0  0
  6 18  2  0  0  0  0
  6 10  1  0  0  0  0
  7  8  1  0  0  0  0
  8  1  1  0  0  0  0
  9 17  1  0  0  0  0
 10 11  1  0  0  0  0
 12 13  1  0  0  0  0
 13  9  1  0  0  0  0
 13  8  2  0  0  0  0
 14  9  2  0  0  0  0
 14 18  1  0  0  0  0
 16  6  1  0  0  0  0
 17  1  1  0  0  0  0
 17  4  1  0  0  0  0
 18  5  1  0  0  0  0
 19 22  1  0  0  0  0
 20 26  1  1  0  0  0
 20 25  1  0  0  0  0
 23 21  2  0  0  0  0
 24 28  1  6  0  0  0
 24 19  1  0  0  0  0
 25 21  1  0  0  0  0
 25 22  1  0  0  0  0
 26 24  1  0  0  0  0
 27 20  1  0  0  0  0
 27 23  1  0  0  0  0
 29 30  1  0  0  0  0
 30 28  1  0  0  0  0
 31 29  1  0  0  0  0
 32 29  2  0  0  0  0
M  END
>  <MODEL>
1

>  <REMARK>
 VINA RESULT:      -7.8      0.000      0.000
  Name = 
  3 active torsions:
  status: ('A' for Active; 'I' for Inactive)
    1  A    between atoms: C_3  and  C_14
    2  A    between atoms: N_10  and  C_24
    3  A    between atoms: C_19  and  C_24
                            x       y       z     vdW  Elec       q    Type
                         _______ _______ _______ _____ _____    ______ ____

>  <TORSDO>
F 3

$$$$
=
 OpenBabel11052421383D

 32 37  0  0  1  0  0  0  0  0999 V2000
  190.2680  176.4390  143.6820 C   0  0  2  0  0  3  0  0  0  0  0  0
  192.2170  175.6450  147.0050 C   0  0  0  0  0  2  0  0  0  0  0  0
  191.4070  176.6270  147.8670 C   0  0  0  0  0  2  0  0  0  0  0  0
  187.8840  177.1440  142.8200 C   0  0  1  0  0  3  0  0  0  0  0  0
  186.5560  177.4770  143.4530 C   0  0  0  0  0  0  0  0  0  0  0  0
  184.9820  177.9150  144.9680 C   0  0  0  0  0  0  0  0  0  0  0  0
  192.1920  176.0730  145.5290 C   0  0  0  0  0  2  0  0  0  0  0  0
  190.7900  176.3860  145.0980 C   0  0  0  0  0  0  0  0  0  0  0  0
  188.6430  177.0300  145.2620 C   0  0  0  0  0  0  0  0  0  0  0  0
  184.3920  177.9770  143.7160 O   0  0  0  0  0  0  0  0  0  0  0  0
  185.3370  177.7130  142.7470 N   0  0  0  0  0  0  0  0  0  0  0  0
  190.0800  176.7800  147.3510 O   0  0  0  0  0  0  0  0  0  0  0  0
  189.8590  176.7410  145.9730 C   0  0  0  0  0  0  0  0  0  0  0  0
  187.4540  177.3760  145.7540 C   0  0  0  0  0  3  0  0  0  0  0  0
  188.3520  178.3150  141.9750 C   0  0  0  0  0  1  0  0  0  0  0  0
  184.3580  178.1200  146.1190 C   0  0  0  0  0  1  0  0  0  0  0  0
  188.8770  176.8580  143.8670 N   0  0  0  0  0  0  0  0  0  0  0  0
  186.3820  177.5880  144.7690 C   0  0  0  0  0  0  0  0  0  0  0  0
  192.4920  171.7100  141.6590 C   0  0  0  0  0  2  0  0  0  0  0  0
  189.9800  172.8540  142.7570 C   0  0  1  0  0  3  0  0  0  0  0  0
  190.9930  174.8160  142.0020 N   0  0  0  0  0  0  0  0  0  0  0  0
  191.6650  172.6960  140.8340 C   0  0  0  0  0  2  0  0  0  0  0  0
  190.3160  175.0790  143.0660 C   0  0  0  0  0  0  0  0  0  0  0  0
  191.6090  170.9100  142.6290 C   0  0  1  0  0  3  0  0  0  0  0  0
  190.8040  173.4610  141.7220 N   0  0  0  0  0  0  0  0  0  0  0  0
  190.8170  171.8450  143.5500 C   0  0  0  0  0  2  0  0  0  0  0  0
  189.6670  173.9640  143.5870 O   0  0  0  0  0  0  0  0  0  0  0  0
  190.6830  169.9510  141.8910 C   0  0  0  0  0  2  0  0  0  0  0  0
  191.1790  169.0680  139.5850 C   0  0  0  0  0  0  0  0  0  0  0  0
  191.4530  169.1140  140.9850 N   0  0  0  0  0  2  0  0  0  0  0  0
  191.9720  168.1660  138.7110 C   0  0  0  0  0  1  0  0  0  0  0  0
  190.2760  169.7910  139.0820 O   0  0  0  0  0  0  0  0  0  0  0  0
  1 23  1  1  0  0  0
  1 17  1  0  0  0  0
  1  8  1  0  0  0  0
  2  3  1  0  0  0  0
  4 15  1  1  0  0  0
  4  5  1  0  0  0  0
  4 17  1  0  0  0  0
  5 18  1  0  0  0  0
  6 16  1  0  0  0  0
  7  2  1  0  0  0  0
  8  7  1  0  0  0  0
  8 13  2  0  0  0  0
  9 14  2  0  0  0  0
  9 13  1  0  0  0  0
 10  6  1  0  0  0  0
 11  5  2  0  0  0  0
 11 10  1  0  0  0  0
 12  3  1  0  0  0  0
 13 12  1  0  0  0  0
 17  9  1  0  0  0  0
 18  6  2  0  0  0  0
 18 14  1  0  0  0  0
 19 24  1  0  0  0  0
 20 26  1  1  0  0  0
 20 27  1  0  0  0  0
 21 23  2  0  0  0  0
 22 19  1  0  0  0  0
 22 25  1  0  0  0  0
 23 27  1  0  0  0  0
 24 28  1  6  0  0  0
 24 26  1  0  0  0  0
 25 21  1  0  0  0  0
 25 20  1  0  0  0  0
 29 30  1  0  0  0  0
 30 28  1  0  0  0  0
 31 29  1  0  0  0  0
 32 29  2  0  0  0  0
M  END
>  <MODEL>
2

>  <REMARK>
 VINA RESULT:      -7.7      3.052      5.472
  Name = 
  3 active torsions:
  status: ('A' for Active; 'I' for Inactive)
    1  A    between atoms: C_3  and  C_14
    2  A    between atoms: N_10  and  C_24
    3  A    between atoms: C_19  and  C_24
                            x       y       z     vdW  Elec       q    Type
                         _______ _______ _______ _____ _____    ______ ____

>  <TORSDO>
F 3

$$$$
=
 OpenBabel11052421383D

 32 37  0  0  1  0  0  0  0  0999 V2000
  190.1440  176.7590  143.8030 C   0  0  2  0  0  3  0  0  0  0  0  0
  192.0890  176.0500  147.1470 C   0  0  0  0  0  2  0  0  0  0  0  0
  191.2600  177.0340  147.9890 C   0  0  0  0  0  2  0  0  0  0  0  0
  187.7540  177.4130  142.9190 C   0  0  1  0  0  3  0  0  0  0  0  0
  186.4180  177.7360  143.5400 C   0  0  0  0  0  0  0  0  0  0  0  0
  184.8310  178.1750  145.0410 C   0  0  0  0  0  0  0  0  0  0  0  0
  192.0650  176.4530  145.6650 C   0  0  0  0  0  2  0  0  0  0  0  0
  190.6600  176.7370  145.2220 C   0  0  0  0  0  0  0  0  0  0  0  0
  188.5030  177.3510  145.3650 C   0  0  0  0  0  0  0  0  0  0  0  0
  184.2450  178.2070  143.7850 O   0  0  0  0  0  0  0  0  0  0  0  0
  185.1990  177.9420  142.8240 N   0  0  0  0  0  0  0  0  0  0  0  0
  189.9340  177.1580  147.4640 O   0  0  0  0  0  0  0  0  0  0  0  0
  189.7200  177.0920  146.0860 C   0  0  0  0  0  0  0  0  0  0  0  0
  187.3060  177.6870  145.8460 C   0  0  0  0  0  3  0  0  0  0  0  0
  188.2080  178.5760  142.0560 C   0  0  0  0  0  1  0  0  0  0  0  0
  184.1980  178.3900  146.1840 C   0  0  0  0  0  1  0  0  0  0  0  0
  188.7460  177.1590  143.9750 N   0  0  0  0  0  0  0  0  0  0  0  0
  186.2360  177.8660  144.8520 C   0  0  0  0  0  0  0  0  0  0  0  0
  188.5190  172.2380  140.9160 C   0  0  0  0  0  2  0  0  0  0  0  0
  190.9270  173.6300  141.9600 C   0  0  1  0  0  3  0  0  0  0  0  0
  189.3280  174.4830  143.4300 N   0  0  0  0  0  0  0  0  0  0  0  0
  188.8230  172.2420  142.4150 C   0  0  0  0  0  2  0  0  0  0  0  0
  190.2160  175.3900  143.2100 C   0  0  0  0  0  0  0  0  0  0  0  0
  189.8050  172.3400  140.0820 C   0  0  1  0  0  3  0  0  0  0  0  0
  189.7190  173.3460  142.7210 N   0  0  0  0  0  0  0  0  0  0  0  0
  190.6080  173.5890  140.4620 C   0  0  0  0  0  2  0  0  0  0  0  0
  191.2200  174.9670  142.3440 O   0  0  0  0  0  0  0  0  0  0  0  0
  190.6560  171.0820  140.2000 C   0  0  0  0  0  2  0  0  0  0  0  0
  190.5930  168.8940  138.9540 C   0  0  0  0  0  0  0  0  0  0  0  0
  190.5910  170.3210  138.9620 N   0  0  0  0  0  2  0  0  0  0  0  0
  190.5630  168.1660  137.6590 C   0  0  0  0  0  1  0  0  0  0  0  0
  190.6120  168.2440  140.0350 O   0  0  0  0  0  0  0  0  0  0  0  0
  1 23  1  1  0  0  0
  1 17  1  0  0  0  0
  1  8  1  0  0  0  0
  2  3  1  0  0  0  0
  4 15  1  1  0  0  0
  4  5  1  0  0  0  0
  4 17  1  0  0  0  0
  5 18  1  0  0  0  0
  6 16  1  0  0  0  0
  7  2  1  0  0  0  0
  8  7  1  0  0  0  0
  8 13  2  0  0  0  0
  9 14  2  0  0  0  0
  9 13  1  0  0  0  0
 10  6  1  0  0  0  0
 11  5  2  0  0  0  0
 11 10  1  0  0  0  0
 12  3  1  0  0  0  0
 13 12  1  0  0  0  0
 17  9  1  0  0  0  0
 18  6  2  0  0  0  0
 18 14  1  0  0  0  0
 19 22  1  0  0  0  0
 20 26  1  6  0  0  0
 20 27  1  0  0  0  0
 20 25  1  0  0  0  0
 22 25  1  0  0  0  0
 23 21  2  0  0  0  0
 24 28  1  1  0  0  0
 24 26  1  0  0  0  0
 24 19  1  0  0  0  0
 25 21  1  0  0  0  0
 27 23  1  0  0  0  0
 29 30  1  0  0  0  0
 29 32  2  0  0  0  0
 30 28  1  0  0  0  0
 31 29  1  0  0  0  0
M  END
>  <MODEL>
3

>  <REMARK>
 VINA RESULT:      -7.6      3.132      5.853
  Name = 
  3 active torsions:
  status: ('A' for Active; 'I' for Inactive)
    1  A    between atoms: C_3  and  C_14
    2  A    between atoms: N_10  and  C_24
    3  A    between atoms: C_19  and  C_24
                            x       y       z     vdW  Elec       q    Type
                         _______ _______ _______ _____ _____    ______ ____

>  <TORSDO>
F 3

$$$$
=
 OpenBabel11052421383D

 32 37  0  0  1  0  0  0  0  0999 V2000
  190.5700  174.5990  143.8510 C   0  0  2  0  0  3  0  0  0  0  0  0
  193.4950  176.9240  145.0780 C   0  0  0  0  0  2  0  0  0  0  0  0
  194.6130  176.0320  144.5150 C   0  0  0  0  0  2  0  0  0  0  0  0
  189.9470  172.9370  141.9080 C   0  0  1  0  0  3  0  0  0  0  0  0
  190.6380  172.3930  140.6820 C   0  0  0  0  0  0  0  0  0  0  0  0
  192.1960  171.9350  139.1570 C   0  0  0  0  0  0  0  0  0  0  0  0
  192.2290  176.0970  145.3510 C   0  0  0  0  0  2  0  0  0  0  0  0
  191.9030  175.2340  144.1680 C   0  0  0  0  0  0  0  0  0  0  0  0
  192.2370  174.0060  142.3160 C   0  0  0  0  0  0  0  0  0  0  0  0
  191.0210  171.3180  138.7590 O   0  0  0  0  0  0  0  0  0  0  0  0
  190.0280  171.5770  139.6810 N   0  0  0  0  0  0  0  0  0  0  0  0
  194.1570  175.3120  143.3650 O   0  0  0  0  0  0  0  0  0  0  0  0
  192.8350  174.8690  143.2980 C   0  0  0  0  0  0  0  0  0  0  0  0
  192.7990  173.4530  141.2420 C   0  0  0  0  0  3  0  0  0  0  0  0
  189.5190  171.7880  142.8020 C   0  0  0  0  0  1  0  0  0  0  0  0
  193.3460  171.8860  138.5000 C   0  0  0  0  0  1  0  0  0  0  0  0
  190.8620  173.8260  142.6420 N   0  0  0  0  0  0  0  0  0  0  0  0
  191.9200  172.6240  140.4040 C   0  0  0  0  0  0  0  0  0  0  0  0
  186.8340  177.5460  140.8900 C   0  0  0  0  0  2  0  0  0  0  0  0
  187.6610  176.9020  143.6690 C   0  0  1  0  0  3  0  0  0  0  0  0
  189.6740  176.4790  142.5660 N   0  0  0  0  0  0  0  0  0  0  0  0
  188.1270  178.1240  141.4670 C   0  0  0  0  0  2  0  0  0  0  0  0
  189.5570  175.6560  143.5500 C   0  0  0  0  0  0  0  0  0  0  0  0
  185.7950  177.2860  141.9900 C   0  0  1  0  0  3  0  0  0  0  0  0
  188.5540  177.3120  142.5960 N   0  0  0  0  0  0  0  0  0  0  0  0
  186.3600  176.3580  143.0710 C   0  0  0  0  0  2  0  0  0  0  0  0
  188.3840  175.8380  144.2750 O   0  0  0  0  0  0  0  0  0  0  0  0
  185.2760  178.5840  142.5970 C   0  0  0  0  0  2  0  0  0  0  0  0
  184.8030  178.8630  145.0550 C   0  0  0  0  0  0  0  0  0  0  0  0
  184.4870  178.2970  143.7840 N   0  0  0  0  0  2  0  0  0  0  0  0
  183.9850  178.5050  146.2430 C   0  0  0  0  0  1  0  0  0  0  0  0
  185.7640  179.6700  145.1790 O   0  0  0  0  0  0  0  0  0  0  0  0
  1 23  1  6  0  0  0
  1  8  1  0  0  0  0
  2  7  1  0  0  0  0
  3  2  1  0  0  0  0
  4 17  1  0  0  0  0
  4 15  1  1  0  0  0
  5  4  1  0  0  0  0
  6 18  2  0  0  0  0
  8  7  1  0  0  0  0
  9 17  1  0  0  0  0
  9 13  1  0  0  0  0
 10  6  1  0  0  0  0
 10 11  1  0  0  0  0
 11  5  2  0  0  0  0
 12  3  1  0  0  0  0
 13 12  1  0  0  0  0
 13  8  2  0  0  0  0
 14  9  2  0  0  0  0
 16  6  1  0  0  0  0
 17  1  1  0  0  0  0
 18  5  1  0  0  0  0
 18 14  1  0  0  0  0
 19 22  1  0  0  0  0
 19 24  1  0  0  0  0
 20 26  1  6  0  0  0
 20 27  1  0  0  0  0
 21 25  1  0  0  0  0
 21 23  2  0  0  0  0
 22 25  1  0  0  0  0
 23 27  1  0  0  0  0
 24 28  1  1  0  0  0
 24 26  1  0  0  0  0
 25 20  1  0  0  0  0
 28 30  1  0  0  0  0
 29 32  2  0  0  0  0
 29 31  1  0  0  0  0
 30 29  1  0  0  0  0
M  END
>  <MODEL>
4

>  <REMARK>
 VINA RESULT:      -7.6      2.509      7.999
  Name = 
  3 active torsions:
  status: ('A' for Active; 'I' for Inactive)
    1  A    between atoms: C_3  and  C_14
    2  A    between atoms: N_10  and  C_24
    3  A    between atoms: C_19  and  C_24
                            x       y       z     vdW  Elec       q    Type
                         _______ _______ _______ _____ _____    ______ ____

>  <TORSDO>
F 3

$$$$
=
 OpenBabel11052421383D

 32 37  0  0  1  0  0  0  0  0999 V2000
  191.1910  174.7150  143.8290 C   0  0  2  0  0  3  0  0  0  0  0  0
  192.9450  176.4200  146.9090 C   0  0  0  0  0  2  0  0  0  0  0  0
  194.3630  175.9790  146.5110 C   0  0  0  0  0  2  0  0  0  0  0  0
  191.6170  174.1010  141.3060 C   0  0  1  0  0  3  0  0  0  0  0  0
  192.7620  174.2420  140.3340 C   0  0  0  0  0  0  0  0  0  0  0  0
  194.7760  174.6630  139.4800 C   0  0  0  0  0  0  0  0  0  0  0  0
  191.8950  175.4670  146.3170 C   0  0  0  0  0  2  0  0  0  0  0  0
  192.1670  175.2290  144.8610 C   0  0  0  0  0  0  0  0  0  0  0  0
  193.3410  175.0290  142.9550 C   0  0  0  0  0  0  0  0  0  0  0  0
  193.9660  174.2140  138.4490 O   0  0  0  0  0  0  0  0  0  0  0  0
  192.7060  173.9400  138.9380 N   0  0  0  0  0  0  0  0  0  0  0  0
  194.4700  175.8420  145.0890 O   0  0  0  0  0  0  0  0  0  0  0  0
  193.3810  175.3820  144.3480 C   0  0  0  0  0  0  0  0  0  0  0  0
  194.3230  175.0830  142.0560 C   0  0  0  0  0  3  0  0  0  0  0  0
  191.2250  172.6400  141.4220 C   0  0  0  0  0  1  0  0  0  0  0  0
  196.0480  175.0120  139.3550 C   0  0  0  0  0  1  0  0  0  0  0  0
  192.0190  174.6140  142.6260 N   0  0  0  0  0  0  0  0  0  0  0  0
  193.9710  174.6720  140.6870 C   0  0  0  0  0  0  0  0  0  0  0  0
  187.2980  177.6760  141.0950 C   0  0  0  0  0  2  0  0  0  0  0  0
  188.0940  176.7630  143.8070 C   0  0  1  0  0  3  0  0  0  0  0  0
  190.1690  176.6550  142.7470 N   0  0  0  0  0  0  0  0  0  0  0  0
  188.5140  178.2860  141.7910 C   0  0  0  0  0  2  0  0  0  0  0  0
  190.0970  175.7090  143.6180 C   0  0  0  0  0  0  0  0  0  0  0  0
  186.2530  177.1920  142.1110 C   0  0  1  0  0  3  0  0  0  0  0  0
  188.9790  177.3790  142.8300 N   0  0  0  0  0  0  0  0  0  0  0  0
  186.8660  176.1880  143.0940 C   0  0  0  0  0  2  0  0  0  0  0  0
  188.8900  175.6990  144.3100 O   0  0  0  0  0  0  0  0  0  0  0  0
  185.6000  178.3550  142.8490 C   0  0  0  0  0  2  0  0  0  0  0  0
  185.0220  178.5730  145.2900 C   0  0  0  0  0  0  0  0  0  0  0  0
  184.9380  177.8720  144.0500 N   0  0  0  0  0  2  0  0  0  0  0  0
  184.3570  178.0150  146.4960 C   0  0  0  0  0  1  0  0  0  0  0  0
  185.6460  179.6660  145.3720 O   0  0  0  0  0  0  0  0  0  0  0  0
  1 23  1  6  0  0  0
  1  8  1  0  0  0  0
  3  2  1  0  0  0  0
  4 15  1  1  0  0  0
  4 17  1  0  0  0  0
  5 18  1  0  0  0  0
  5  4  1  0  0  0  0
  6 18  2  0  0  0  0
  7  2  1  0  0  0  0
  8  7  1  0  0  0  0
  9 13  1  0  0  0  0
 10 11  1  0  0  0  0
 10  6  1  0  0  0  0
 11  5  2  0  0  0  0
 12  3  1  0  0  0  0
 13  8  2  0  0  0  0
 13 12  1  0  0  0  0
 14  9  2  0  0  0  0
 16  6  1  0  0  0  0
 17  9  1  0  0  0  0
 17  1  1  0  0  0  0
 18 14  1  0  0  0  0
 19 22  1  0  0  0  0
 19 24  1  0  0  0  0
 20 26  1  6  0  0  0
 20 27  1  0  0  0  0
 21 25  1  0  0  0  0
 21 23  2  0  0  0  0
 22 25  1  0  0  0  0
 23 27  1  0  0  0  0
 24 28  1  1  0  0  0
 24 26  1  0  0  0  0
 25 20  1  0  0  0  0
 28 30  1  0  0  0  0
 29 32  2  0  0  0  0
 29 31  1  0  0  0  0
 30 29  1  0  0  0  0
M  END
>  <MODEL>
5

>  <REMARK>
 VINA RESULT:      -7.4      2.459      8.142
  Name = 
  3 active torsions:
  status: ('A' for Active; 'I' for Inactive)
    1  A    between atoms: C_3  and  C_14
    2  A    between atoms: N_10  and  C_24
    3  A    between atoms: C_19  and  C_24
                            x       y       z     vdW  Elec       q    Type
                         _______ _______ _______ _____ _____    ______ ____

>  <TORSDO>
F 3

$$$$
=
 OpenBabel11052421383D

 32 37  0  0  1  0  0  0  0  0999 V2000
  192.2400  174.3100  142.4690 C   0  0  2  0  0  3  0  0  0  0  0  0
  190.5730  171.2860  140.5860 C   0  0  0  0  0  2  0  0  0  0  0  0
  191.8640  170.4560  140.5070 C   0  0  0  0  0  2  0  0  0  0  0  0
  194.1490  174.8490  144.1980 C   0  0  1  0  0  3  0  0  0  0  0  0
  195.1940  174.0560  144.9440 C   0  0  0  0  0  0  0  0  0  0  0  0
  196.4880  172.3790  145.6310 C   0  0  0  0  0  0  0  0  0  0  0  0
  190.8980  172.7830  140.7040 C   0  0  0  0  0  2  0  0  0  0  0  0
  191.9390  173.0110  141.7600 C   0  0  0  0  0  0  0  0  0  0  0  0
  193.6920  172.5830  143.1000 C   0  0  0  0  0  0  0  0  0  0  0  0
  196.8400  173.5070  146.3540 O   0  0  0  0  0  0  0  0  0  0  0  0
  196.0600  174.5720  145.9560 N   0  0  0  0  0  0  0  0  0  0  0  0
  192.7280  170.7560  141.6090 O   0  0  0  0  0  0  0  0  0  0  0  0
  192.7840  172.0540  142.1180 C   0  0  0  0  0  0  0  0  0  0  0  0
  194.6640  171.9530  143.7580 C   0  0  0  0  0  3  0  0  0  0  0  0
  194.8240  175.9270  143.3700 C   0  0  0  0  0  1  0  0  0  0  0  0
  197.0430  171.1830  145.7630 C   0  0  0  0  0  1  0  0  0  0  0  0
  193.3790  173.9550  143.3190 N   0  0  0  0  0  0  0  0  0  0  0  0
  195.4200  172.7620  144.7270 C   0  0  0  0  0  0  0  0  0  0  0  0
  189.4570  176.1080  146.9880 C   0  0  0  0  0  2  0  0  0  0  0  0
  189.2450  175.8480  144.0370 C   0  0  1  0  0  3  0  0  0  0  0  0
  190.8170  174.1740  144.4540 N   0  0  0  0  0  0  0  0  0  0  0  0
  189.2610  174.7350  146.3440 C   0  0  0  0  0  2  0  0  0  0  0  0
  191.0770  174.7150  143.3140 C   0  0  0  0  0  0  0  0  0  0  0  0
  188.8390  177.2240  146.1330 C   0  0  1  0  0  3  0  0  0  0  0  0
  189.6700  174.7960  144.9490 N   0  0  0  0  0  0  0  0  0  0  0  0
  189.4180  177.2120  144.7130 C   0  0  0  0  0  2  0  0  0  0  0  0
  190.1820  175.7250  142.9750 O   0  0  0  0  0  0  0  0  0  0  0  0
  187.3180  177.1400  146.1060 C   0  0  0  0  0  2  0  0  0  0  0  0
  185.8800  179.0550  145.3260 C   0  0  0  0  0  0  0  0  0  0  0  0
  186.7920  177.9920  145.0520 N   0  0  0  0  0  2  0  0  0  0  0  0
  185.3440  179.8710  144.2060 C   0  0  0  0  0  1  0  0  0  0  0  0
  185.5320  179.3150  146.5100 O   0  0  0  0  0  0  0  0  0  0  0  0
  1 23  1  1  0  0  0
  1 17  1  0  0  0  0
  2  7  1  0  0  0  0
  3  2  1  0  0  0  0
  3 12  1  0  0  0  0
  4 15  1  6  0  0  0
  4  5  1  0  0  0  0
  5 11  2  0  0  0  0
  6 16  1  0  0  0  0
  6 10  1  0  0  0  0
  7  8  1  0  0  0  0
  8 13  2  0  0  0  0
  8  1  1  0  0  0  0
  9 17  1  0  0  0  0
  9 14  2  0  0  0  0
 11 10  1  0  0  0  0
 12 13  1  0  0  0  0
 13  9  1  0  0  0  0
 14 18  1  0  0  0  0
 17  4  1  0  0  0  0
 18  5  1  0  0  0  0
 18  6  2  0  0  0  0
 20 26  1  1  0  0  0
 20 25  1  0  0  0  0
 21 25  1  0  0  0  0
 22 19  1  0  0  0  0
 23 21  2  0  0  0  0
 24 28  1  6  0  0  0
 24 19  1  0  0  0  0
 25 22  1  0  0  0  0
 26 24  1  0  0  0  0
 27 23  1  0  0  0  0
 27 20  1  0  0  0  0
 29 32  2  0  0  0  0
 30 29  1  0  0  0  0
 30 28  1  0  0  0  0
 31 29  1  0  0  0  0
M  END
>  <MODEL>
6

>  <REMARK>
 VINA RESULT:      -7.2      2.611      7.862
  Name = 
  3 active torsions:
  status: ('A' for Active; 'I' for Inactive)
    1  A    between atoms: C_3  and  C_14
    2  A    between atoms: N_10  and  C_24
    3  A    between atoms: C_19  and  C_24
                            x       y       z     vdW  Elec       q    Type
                         _______ _______ _______ _____ _____    ______ ____

>  <TORSDO>
F 3

$$$$
=
 OpenBabel11052421383D

 32 37  0  0  1  0  0  0  0  0999 V2000
  191.4490  176.4180  143.3120 C   0  0  2  0  0  3  0  0  0  0  0  0
  194.4600  176.0150  145.8100 C   0  0  0  0  0  2  0  0  0  0  0  0
  193.8160  176.8560  146.9240 C   0  0  0  0  0  2  0  0  0  0  0  0
  188.8320  176.6940  143.2800 C   0  0  1  0  0  3  0  0  0  0  0  0
  187.7400  176.8030  144.3150 C   0  0  0  0  0  0  0  0  0  0  0  0
  186.6830  176.9860  146.2670 C   0  0  0  0  0  0  0  0  0  0  0  0
  193.8940  176.4120  144.4370 C   0  0  0  0  0  2  0  0  0  0  0  0
  192.3960  176.4740  144.4860 C   0  0  0  0  0  0  0  0  0  0  0  0
  190.3390  176.7440  145.3480 C   0  0  0  0  0  0  0  0  0  0  0  0
  185.7220  176.9290  145.2700 O   0  0  0  0  0  0  0  0  0  0  0  0
  186.3380  176.8170  144.0410 N   0  0  0  0  0  0  0  0  0  0  0  0
  192.3880  176.7720  146.8620 O   0  0  0  0  0  0  0  0  0  0  0  0
  191.7480  176.6770  145.6250 C   0  0  0  0  0  0  0  0  0  0  0  0
  189.3290  176.8880  146.2060 C   0  0  0  0  0  3  0  0  0  0  0  0
  188.8040  177.9150  142.3800 C   0  0  0  0  0  1  0  0  0  0  0  0
  186.4330  177.0970  147.5630 C   0  0  0  0  0  1  0  0  0  0  0  0
  190.1410  176.5960  143.9460 N   0  0  0  0  0  0  0  0  0  0  0  0
  187.9790  176.9010  145.6210 C   0  0  0  0  0  0  0  0  0  0  0  0
  190.0670  171.1240  142.1040 C   0  0  0  0  0  2  0  0  0  0  0  0
  191.5270  173.4810  141.0400 C   0  0  1  0  0  3  0  0  0  0  0  0
  191.6130  173.9780  143.3180 N   0  0  0  0  0  0  0  0  0  0  0  0
  191.4020  171.5480  142.7160 C   0  0  0  0  0  2  0  0  0  0  0  0
  191.5230  175.0790  142.6560 C   0  0  0  0  0  0  0  0  0  0  0  0
  189.9800  171.5110  140.6200 C   0  0  1  0  0  3  0  0  0  0  0  0
  191.6610  172.9410  142.3850 N   0  0  0  0  0  0  0  0  0  0  0  0
  190.2000  173.0170  140.4320 C   0  0  0  0  0  2  0  0  0  0  0  0
  191.4730  174.8810  141.2790 O   0  0  0  0  0  0  0  0  0  0  0  0
  190.9510  170.7040  139.7670 C   0  0  0  0  0  2  0  0  0  0  0  0
  190.7380  171.1040  137.2900 C   0  0  0  0  0  0  0  0  0  0  0  0
  190.3510  170.4110  138.4750 N   0  0  0  0  0  2  0  0  0  0  0  0
  190.0650  170.7910  136.0020 C   0  0  0  0  0  1  0  0  0  0  0  0
  191.6520  171.9730  137.3210 O   0  0  0  0  0  0  0  0  0  0  0  0
  1 23  1  1  0  0  0
  1 17  1  0  0  0  0
  1  8  1  0  0  0  0
  2  3  1  0  0  0  0
  4 15  1  6  0  0  0
  4 17  1  0  0  0  0
  4  5  1  0  0  0  0
  5 18  1  0  0  0  0
  6 16  1  0  0  0  0
  7  8  1  0  0  0  0
  7  2  1  0  0  0  0
  8 13  2  0  0  0  0
  9 13  1  0  0  0  0
  9 14  2  0  0  0  0
 10  6  1  0  0  0  0
 11  5  2  0  0  0  0
 11 10  1  0  0  0  0
 12  3  1  0  0  0  0
 13 12  1  0  0  0  0
 17  9  1  0  0  0  0
 18 14  1  0  0  0  0
 18  6  2  0  0  0  0
 19 22  1  0  0  0  0
 20 26  1  1  0  0  0
 20 27  1  0  0  0  0
 20 25  1  0  0  0  0
 23 21  2  0  0  0  0
 24 28  1  6  0  0  0
 24 19  1  0  0  0  0
 25 22  1  0  0  0  0
 25 21  1  0  0  0  0
 26 24  1  0  0  0  0
 27 23  1  0  0  0  0
 29 32  2  0  0  0  0
 29 30  1  0  0  0  0
 30 28  1  0  0  0  0
 31 29  1  0  0  0  0
M  END
>  <MODEL>
7

>  <REMARK>
 VINA RESULT:      -7.2      2.819      5.787
  Name = 
  3 active torsions:
  status: ('A' for Active; 'I' for Inactive)
    1  A    between atoms: C_3  and  C_14
    2  A    between atoms: N_10  and  C_24
    3  A    between atoms: C_19  and  C_24
                            x       y       z     vdW  Elec       q    Type
                         _______ _______ _______ _____ _____    ______ ____

>  <TORSDO>
F 3

$$$$
=
 OpenBabel11052421383D

 32 37  0  0  1  0  0  0  0  0999 V2000
  191.2080  174.8900  143.9850 C   0  0  2  0  0  3  0  0  0  0  0  0
  192.6000  176.7190  147.1760 C   0  0  0  0  0  2  0  0  0  0  0  0
  194.0710  176.3830  146.8860 C   0  0  0  0  0  2  0  0  0  0  0  0
  191.8640  174.3080  141.5040 C   0  0  1  0  0  3  0  0  0  0  0  0
  193.0640  174.5320  140.6180 C   0  0  0  0  0  0  0  0  0  0  0  0
  195.1000  175.0980  139.9130 C   0  0  0  0  0  0  0  0  0  0  0  0
  191.6690  175.6920  146.5130 C   0  0  0  0  0  2  0  0  0  0  0  0
  192.0650  175.4740  145.0820 C   0  0  0  0  0  0  0  0  0  0  0  0
  193.3890  175.3600  143.2700 C   0  0  0  0  0  0  0  0  0  0  0  0
  194.4030  174.5910  138.8270 O   0  0  0  0  0  0  0  0  0  0  0  0
  193.1340  174.2250  139.2240 N   0  0  0  0  0  0  0  0  0  0  0  0
  194.2940  176.2530  145.4780 O   0  0  0  0  0  0  0  0  0  0  0  0
  193.2990  175.7140  144.6610 C   0  0  0  0  0  0  0  0  0  0  0  0
  194.4280  175.4840  142.4460 C   0  0  0  0  0  3  0  0  0  0  0  0
  191.5710  172.8220  141.5980 C   0  0  0  0  0  1  0  0  0  0  0  0
  196.3490  175.5390  139.8810 C   0  0  0  0  0  1  0  0  0  0  0  0
  192.1280  174.8490  142.8460 N   0  0  0  0  0  0  0  0  0  0  0  0
  194.2090  175.0490  141.0570 C   0  0  0  0  0  0  0  0  0  0  0  0
  187.2910  177.5200  140.9610 C   0  0  0  0  0  2  0  0  0  0  0  0
  187.9850  176.7180  143.7360 C   0  0  1  0  0  3  0  0  0  0  0  0
  190.1220  176.7330  142.7990 N   0  0  0  0  0  0  0  0  0  0  0  0
  188.4200  178.2270  141.7120 C   0  0  0  0  0  2  0  0  0  0  0  0
  190.0630  175.8010  143.6870 C   0  0  0  0  0  0  0  0  0  0  0  0
  186.2230  176.9850  141.9270 C   0  0  1  0  0  3  0  0  0  0  0  0
  188.8820  177.3750  142.7970 N   0  0  0  0  0  0  0  0  0  0  0  0
  186.8430  176.0460  142.9670 C   0  0  0  0  0  2  0  0  0  0  0  0
  188.8210  175.7210  144.3080 O   0  0  0  0  0  0  0  0  0  0  0  0
  185.4510  178.1140  142.5990 C   0  0  0  0  0  2  0  0  0  0  0  0
  183.4290  178.2900  141.1080 C   0  0  0  0  0  0  0  0  0  0  0  0
  184.0250  177.9530  142.3590 N   0  0  0  0  0  2  0  0  0  0  0  0
  181.9610  178.1400  140.9300 C   0  0  0  0  0  1  0  0  0  0  0  0
  184.1340  178.7050  140.1490 O   0  0  0  0  0  0  0  0  0  0  0  0
  1 23  1  6  0  0  0
  1  8  1  0  0  0  0
  3  2  1  0  0  0  0
  4 15  1  1  0  0  0
  4 17  1  0  0  0  0
  5 18  1  0  0  0  0
  5  4  1  0  0  0  0
  6 18  2  0  0  0  0
  7  2  1  0  0  0  0
  8  7  1  0  0  0  0
  9 13  1  0  0  0  0
 10 11  1  0  0  0  0
 10  6  1  0  0  0  0
 11  5  2  0  0  0  0
 12  3  1  0  0  0  0
 13  8  2  0  0  0  0
 13 12  1  0  0  0  0
 14  9  2  0  0  0  0
 16  6  1  0  0  0  0
 17  9  1  0  0  0  0
 17  1  1  0  0  0  0
 18 14  1  0  0  0  0
 19 22  1  0  0  0  0
 19 24  1  0  0  0  0
 20 26  1  6  0  0  0
 20 27  1  0  0  0  0
 21 23  2  0  0  0  0
 22 25  1  0  0  0  0
 23 27  1  0  0  0  0
 24 28  1  1  0  0  0
 24 26  1  0  0  0  0
 25 21  1  0  0  0  0
 25 20  1  0  0  0  0
 29 30  1  0  0  0  0
 30 28  1  0  0  0  0
 31 29  1  0  0  0  0
 32 29  2  0  0  0  0
M  END
>  <MODEL>
8

>  <REMARK>
 VINA RESULT:      -7.1      2.415      8.361
  Name = 
  3 active torsions:
  status: ('A' for Active; 'I' for Inactive)
    1  A    between atoms: C_3  and  C_14
    2  A    between atoms: N_10  and  C_24
    3  A    between atoms: C_19  and  C_24
                            x       y       z     vdW  Elec       q    Type
                         _______ _______ _______ _____ _____    ______ ____

>  <TORSDO>
F 3

$$$$
=
 OpenBabel11052421383D

 32 37  0  0  1  0  0  0  0  0999 V2000
  193.1630  174.1380  144.5540 C   0  0  2  0  0  3  0  0  0  0  0  0
  196.0340  176.7910  144.1250 C   0  0  0  0  0  2  0  0  0  0  0  0
  196.6470  176.1180  142.8860 C   0  0  0  0  0  2  0  0  0  0  0  0
  191.6240  172.5340  143.1450 C   0  0  1  0  0  3  0  0  0  0  0  0
  191.4680  172.1840  141.6860 C   0  0  0  0  0  0  0  0  0  0  0  0
  191.8100  172.0700  139.4870 C   0  0  0  0  0  0  0  0  0  0  0  0
  195.2650  175.7660  144.9730 C   0  0  0  0  0  2  0  0  0  0  0  0
  194.3580  174.9440  144.1060 C   0  0  0  0  0  0  0  0  0  0  0  0
  193.5960  173.9070  142.2630 C   0  0  0  0  0  0  0  0  0  0  0  0
  190.6880  171.3110  139.7810 O   0  0  0  0  0  0  0  0  0  0  0  0
  190.4430  171.3540  141.1370 N   0  0  0  0  0  0  0  0  0  0  0  0
  195.6450  175.4160  142.1420 O   0  0  0  0  0  0  0  0  0  0  0  0
  194.5950  174.7840  142.8110 C   0  0  0  0  0  0  0  0  0  0  0  0
  193.4320  173.5190  140.9990 C   0  0  0  0  0  3  0  0  0  0  0  0
  191.9200  171.2760  143.9410 C   0  0  0  0  0  1  0  0  0  0  0  0
  192.3230  172.2390  138.2780 C   0  0  0  0  0  1  0  0  0  0  0  0
  192.7220  173.4990  143.3120 N   0  0  0  0  0  0  0  0  0  0  0  0
  192.2930  172.6240  140.7380 C   0  0  0  0  0  0  0  0  0  0  0  0
  188.5920  177.3790  144.4790 C   0  0  0  0  0  2  0  0  0  0  0  0
  190.3440  175.8140  146.2970 C   0  0  1  0  0  3  0  0  0  0  0  0
  191.8510  176.2020  144.5580 N   0  0  0  0  0  0  0  0  0  0  0  0
  189.9970  177.8770  144.8190 C   0  0  0  0  0  2  0  0  0  0  0  0
  192.0960  175.0460  145.0700 C   0  0  0  0  0  0  0  0  0  0  0  0
  188.0050  176.5340  145.6190 C   0  0  1  0  0  3  0  0  0  0  0  0
  190.8020  176.7600  145.2900 N   0  0  0  0  0  0  0  0  0  0  0  0
  188.9230  175.3540  145.9570 C   0  0  0  0  0  2  0  0  0  0  0  0
  191.2460  174.7290  146.1260 O   0  0  0  0  0  0  0  0  0  0  0  0
  187.7140  177.3750  146.8560 C   0  0  0  0  0  2  0  0  0  0  0  0
  185.2580  177.7330  146.4260 C   0  0  0  0  0  0  0  0  0  0  0  0
  186.5770  178.2470  146.6070 N   0  0  0  0  0  2  0  0  0  0  0  0
  184.1390  178.6660  146.1370 C   0  0  0  0  0  1  0  0  0  0  0  0
  185.0310  176.4960  146.5180 O   0  0  0  0  0  0  0  0  0  0  0  0
  1 23  1  6  0  0  0
  2  7  1  0  0  0  0
  3  2  1  0  0  0  0
  4 17  1  0  0  0  0
  4 15  1  1  0  0  0
  5  4  1  0  0  0  0
  6 10  1  0  0  0  0
  6 18  2  0  0  0  0
  8  1  1  0  0  0  0
  8  7  1  0  0  0  0
  9 13  1  0  0  0  0
  9 17  1  0  0  0  0
 10 11  1  0  0  0  0
 11  5  2  0  0  0  0
 12 13  1  0  0  0  0
 12  3  1  0  0  0  0
 13  8  2  0  0  0  0
 14  9  2  0  0  0  0
 16  6  1  0  0  0  0
 17  1  1  0  0  0  0
 18 14  1  0  0  0  0
 18  5  1  0  0  0  0
 19 22  1  0  0  0  0
 19 24  1  0  0  0  0
 20 26  1  6  0  0  0
 21 23  2  0  0  0  0
 21 25  1  0  0  0  0
 22 25  1  0  0  0  0
 23 27  1  0  0  0  0
 24 26  1  0  0  0  0
 24 28  1  1  0  0  0
 25 20  1  0  0  0  0
 27 20  1  0  0  0  0
 29 32  2  0  0  0  0
 29 30  1  0  0  0  0
 30 28  1  0  0  0  0
 31 29  1  0  0  0  0
M  END
>  <MODEL>
9

>  <REMARK>
 VINA RESULT:      -7.0      2.478      7.708
  Name = 
  3 active torsions:
  status: ('A' for Active; 'I' for Inactive)
    1  A    between atoms: C_3  and  C_14
    2  A    between atoms: N_10  and  C_24
    3  A    between atoms: C_19  and  C_24
                            x       y       z     vdW  Elec       q    Type
                         _______ _______ _______ _____ _____    ______ ____

>  <TORSDO>
F 3

$$$$
