=
 OpenBabel11052417563D

 31 34  0  0  1  0  0  0  0  0999 V2000
  184.7270  178.0970  142.4140 C   0  0  0  0  0  0  0  0  0  0  0  0
  187.5790  177.0960  144.6550 C   0  0  0  0  0  0  0  0  0  0  0  0
  186.9630  176.6880  145.9880 C   0  0  2  0  0  3  0  0  0  0  0  0
  184.9140  177.6870  146.8890 C   0  0  0  0  0  2  0  0  0  0  0  0
  186.8270  177.5000  143.5110 C   0  0  0  0  0  0  0  0  0  0  0  0
  185.3980  178.2960  141.2080 C   0  0  0  0  0  3  0  0  0  0  0  0
  185.4550  176.5070  146.0830 C   0  0  0  0  0  2  0  0  0  0  0  0
  189.6260  177.2070  143.3010 C   0  0  0  0  0  0  0  0  0  0  0  0
  183.3550  178.2860  142.4860 O   0  0  0  0  0  1  0  0  0  0  0  0
  189.6910  177.1240  146.9950 C   0  0  0  0  0  3  0  0  0  0  0  0
  186.0830  178.2990  147.6440 C   0  0  2  0  0  3  0  0  0  0  0  0
  188.8650  177.5550  142.1860 C   0  0  0  0  0  3  0  0  0  0  0  0
  188.9970  177.0220  144.5500 C   0  0  0  0  0  0  0  0  0  0  0  0
  185.4380  177.7040  143.5510 C   0  0  0  0  0  3  0  0  0  0  0  0
  186.0930  179.8000  147.4220 C   0  0  0  0  0  1  0  0  0  0  0  0
  187.4920  177.7200  142.2800 C   0  0  0  0  0  0  0  0  0  0  0  0
  186.7790  178.1090  141.1420 C   0  0  0  0  0  3  0  0  0  0  0  0
  189.8870  176.7700  145.7170 C   0  0  0  0  0  3  0  0  0  0  0  0
  188.5060  177.8100  147.5430 C   0  0  0  0  0  3  0  0  0  0  0  0
  187.2830  177.6760  147.0370 C   0  0  0  0  0  0  0  0  0  0  0  0
  191.1740  174.8380  142.4700 O   0  0  0  0  0  0  0  0  0  0  0  0
  191.7840  175.8870  142.8080 C   0  0  0  0  0  0  0  0  0  0  0  0
  191.0540  177.0610  143.1960 N   0  0  0  0  0  2  0  0  0  0  0  0
  193.8240  176.4270  141.7680 O   0  0  0  0  0  0  0  0  0  0  0  0
  195.5140  175.3210  143.6760 C   0  0  0  0  0  1  0  0  0  0  0  0
  194.0730  175.4420  143.8690 N   0  0  0  0  0  0  0  0  0  0  0  0
  193.2610  175.9370  142.7860 C   0  0  0  0  0  0  0  0  0  0  0  0
  193.5080  175.1950  145.1960 C   0  0  1  0  0  3  0  0  0  0  0  0
  193.1620  173.7230  145.3710 C   0  0  0  0  0  1  0  0  0  0  0  0
  194.1570  177.1000  146.6720 C   0  0  0  0  0  1  0  0  0  0  0  0
  194.4640  175.6660  146.2840 C   0  0  0  0  0  2  0  0  0  0  0  0
  1  9  1  0  0  0  0
  1 14  1  0  0  0  0
  2  3  1  0  0  0  0
  3  7  1  6  0  0  0
  3 20  1  0  0  0  0
  4 11  1  0  0  0  0
  5 14  2  0  0  0  0
  5  2  1  0  0  0  0
  6  1  2  0  0  0  0
  7  4  1  0  0  0  0
  8 13  1  0  0  0  0
 10 19  1  0  0  0  0
 11 15  1  6  0  0  0
 12 16  1  0  0  0  0
 12  8  2  0  0  0  0
 13  2  2  0  0  0  0
 13 18  1  0  0  0  0
 16  5  1  0  0  0  0
 17  6  1  0  0  0  0
 17 16  2  0  0  0  0
 18 10  2  0  0  0  0
 20 19  2  0  0  0  0
 20 11  1  0  0  0  0
 21 22  2  0  0  0  0
 22 23  1  0  0  0  0
 23  8  1  0  0  0  0
 24 27  2  0  0  0  0
 25 26  1  0  0  0  0
 26 28  1  0  0  0  0
 27 22  1  0  0  0  0
 27 26  1  0  0  0  0
 28 29  1  1  0  0  0
 28 31  1  0  0  0  0
 31 30  1  0  0  0  0
M  END
>  <MODEL>
1

>  <REMARK>
 VINA RESULT:      -8.9      0.000      0.000
  Name = 
  4 active torsions:
  status: ('A' for Active; 'I' for Inactive)
    1  A    between atoms: C_1  and  N_19
    2  A    between atoms: C_1  and  C_24
    3  A    between atoms: C_9  and  C_22
    4  A    between atoms: C_15  and  N_23
                            x       y       z     vdW  Elec       q    Type
                         _______ _______ _______ _____ _____    ______ ____

>  <TORSDO>
F 4

$$$$
=
 OpenBabel11052417563D

 31 34  0  0  1  0  0  0  0  0999 V2000
  185.5270  177.8250  142.2710 C   0  0  0  0  0  0  0  0  0  0  0  0
  188.0700  177.1830  144.9690 C   0  0  0  0  0  0  0  0  0  0  0  0
  187.2910  176.7820  146.2150 C   0  0  2  0  0  3  0  0  0  0  0  0
  185.0530  177.6320  146.7390 C   0  0  0  0  0  2  0  0  0  0  0  0
  187.4740  177.4670  143.7040 C   0  0  0  0  0  0  0  0  0  0  0  0
  186.3580  178.0300  141.1700 C   0  0  0  0  0  3  0  0  0  0  0  0
  185.8060  176.4710  146.0930 C   0  0  0  0  0  2  0  0  0  0  0  0
  190.2860  177.4170  143.9340 C   0  0  0  0  0  0  0  0  0  0  0  0
  184.1490  177.8940  142.1250 O   0  0  0  0  0  1  0  0  0  0  0  0
  189.7850  177.5030  147.5940 C   0  0  0  0  0  3  0  0  0  0  0  0
  186.0370  178.3780  147.6250 C   0  0  2  0  0  3  0  0  0  0  0  0
  189.6810  177.6460  142.6980 C   0  0  0  0  0  3  0  0  0  0  0  0
  189.4890  177.2320  145.0820 C   0  0  0  0  0  0  0  0  0  0  0  0
  186.0830  177.5480  143.5220 C   0  0  0  0  0  3  0  0  0  0  0  0
  185.9580  179.8640  147.3210 C   0  0  0  0  0  1  0  0  0  0  0  0
  188.3010  177.6910  142.5760 C   0  0  0  0  0  0  0  0  0  0  0  0
  187.7430  177.9640  141.3230 C   0  0  0  0  0  3  0  0  0  0  0  0
  190.2050  177.1120  146.3820 C   0  0  0  0  0  3  0  0  0  0  0  0
  188.4780  178.1040  147.9170 C   0  0  0  0  0  3  0  0  0  0  0  0
  187.3630  177.8390  147.2410 C   0  0  0  0  0  0  0  0  0  0  0  0
  192.0790  175.0810  144.0980 O   0  0  0  0  0  0  0  0  0  0  0  0
  192.5680  176.2410  144.1520 C   0  0  0  0  0  0  0  0  0  0  0  0
  191.7200  177.3950  144.0540 N   0  0  0  0  0  2  0  0  0  0  0  0
  194.4650  176.8810  145.3880 O   0  0  0  0  0  0  0  0  0  0  0  0
  196.3450  176.5720  143.3650 C   0  0  0  0  0  1  0  0  0  0  0  0
  194.9560  176.1450  143.2290 N   0  0  0  0  0  0  0  0  0  0  0  0
  194.0270  176.4340  144.2920 C   0  0  0  0  0  0  0  0  0  0  0  0
  194.5750  175.3120  142.0870 C   0  0  1  0  0  3  0  0  0  0  0  0
  194.7420  176.0750  140.7820 C   0  0  0  0  0  1  0  0  0  0  0  0
  194.7240  172.9790  142.9610 C   0  0  0  0  0  1  0  0  0  0  0  0
  195.3800  174.0180  142.0730 C   0  0  0  0  0  2  0  0  0  0  0  0
  1 14  1  0  0  0  0
  2 13  2  0  0  0  0
  2  3  1  0  0  0  0
  3  7  1  6  0  0  0
  3 20  1  0  0  0  0
  4 11  1  0  0  0  0
  5  2  1  0  0  0  0
  6 17  1  0  0  0  0
  6  1  2  0  0  0  0
  7  4  1  0  0  0  0
  8 23  1  0  0  0  0
  8 13  1  0  0  0  0
  9  1  1  0  0  0  0
 10 19  1  0  0  0  0
 11 15  1  6  0  0  0
 12  8  2  0  0  0  0
 13 18  1  0  0  0  0
 14  5  2  0  0  0  0
 16 12  1  0  0  0  0
 16  5  1  0  0  0  0
 17 16  2  0  0  0  0
 18 10  2  0  0  0  0
 20 11  1  0  0  0  0
 20 19  2  0  0  0  0
 21 22  2  0  0  0  0
 22 27  1  0  0  0  0
 23 22  1  0  0  0  0
 26 25  1  0  0  0  0
 26 27  1  0  0  0  0
 27 24  2  0  0  0  0
 28 29  1  6  0  0  0
 28 26  1  0  0  0  0
 31 28  1  0  0  0  0
 31 30  1  0  0  0  0
M  END
>  <MODEL>
2

>  <REMARK>
 VINA RESULT:      -7.7      1.341      2.051
  Name = 
  4 active torsions:
  status: ('A' for Active; 'I' for Inactive)
    1  A    between atoms: C_1  and  N_19
    2  A    between atoms: C_1  and  C_24
    3  A    between atoms: C_9  and  C_22
    4  A    between atoms: C_15  and  N_23
                            x       y       z     vdW  Elec       q    Type
                         _______ _______ _______ _____ _____    ______ ____

>  <TORSDO>
F 4

$$$$
=
 OpenBabel11052417563D

 31 34  0  0  1  0  0  0  0  0999 V2000
  187.2190  177.7450  146.3280 C   0  0  0  0  0  0  0  0  0  0  0  0
  189.2520  175.0310  144.6990 C   0  0  0  0  0  0  0  0  0  0  0  0
  189.9540  174.2780  145.8220 C   0  0  2  0  0  3  0  0  0  0  0  0
  190.6720  175.3380  147.9120 C   0  0  0  0  0  2  0  0  0  0  0  0
  188.3430  176.1120  144.8990 C   0  0  0  0  0  0  0  0  0  0  0  0
  186.5240  178.2500  145.2290 C   0  0  0  0  0  3  0  0  0  0  0  0
  189.5410  174.5430  147.2630 C   0  0  0  0  0  2  0  0  0  0  0  0
  188.7520  175.1080  142.2940 C   0  0  0  0  0  0  0  0  0  0  0  0
  187.0180  178.2910  147.5880 O   0  0  0  0  0  1  0  0  0  0  0  0
  191.7120  173.3630  143.6510 C   0  0  0  0  0  3  0  0  0  0  0  0
  191.9110  175.1570  147.0500 C   0  0  2  0  0  3  0  0  0  0  0  0
  187.8340  176.1330  142.5220 C   0  0  0  0  0  3  0  0  0  0  0  0
  189.4990  174.5850  143.3690 C   0  0  0  0  0  0  0  0  0  0  0  0
  188.1180  176.6890  146.1600 C   0  0  0  0  0  3  0  0  0  0  0  0
  192.5240  176.5160  146.7640 C   0  0  0  0  0  1  0  0  0  0  0  0
  187.6370  176.6470  143.7940 C   0  0  0  0  0  0  0  0  0  0  0  0
  186.7340  177.7010  143.9640 C   0  0  0  0  0  3  0  0  0  0  0  0
  190.5440  173.5780  143.0300 C   0  0  0  0  0  3  0  0  0  0  0  0
  192.2060  174.0540  144.8560 C   0  0  0  0  0  3  0  0  0  0  0  0
  191.4060  174.5410  145.8010 C   0  0  0  0  0  0  0  0  0  0  0  0
  187.6440  172.6660  141.0660 O   0  0  0  0  0  0  0  0  0  0  0  0
  188.4280  173.3930  140.3990 C   0  0  0  0  0  0  0  0  0  0  0  0
  188.9640  174.5980  140.9660 N   0  0  0  0  0  2  0  0  0  0  0  0
  188.1580  173.5860  138.0700 O   0  0  0  0  0  0  0  0  0  0  0  0
  189.9570  171.6040  137.3240 C   0  0  0  0  0  1  0  0  0  0  0  0
  189.8170  172.0700  138.7000 N   0  0  0  0  0  0  0  0  0  0  0  0
  188.7880  173.0320  139.0110 C   0  0  0  0  0  0  0  0  0  0  0  0
  190.8080  171.6620  139.6960 C   0  0  1  0  0  3  0  0  0  0  0  0
  190.8170  170.1500  139.8620 C   0  0  0  0  0  1  0  0  0  0  0  0
  192.3610  173.6150  139.7830 C   0  0  0  0  0  1  0  0  0  0  0  0
  192.1910  172.1800  139.3210 C   0  0  0  0  0  2  0  0  0  0  0  0
  1  9  1  0  0  0  0
  2  5  1  0  0  0  0
  2  3  1  0  0  0  0
  3  7  1  1  0  0  0
  5 14  2  0  0  0  0
  6  1  2  0  0  0  0
  7  4  1  0  0  0  0
  8 12  2  0  0  0  0
  8 13  1  0  0  0  0
 10 19  1  0  0  0  0
 11 15  1  6  0  0  0
 11  4  1  0  0  0  0
 12 16  1  0  0  0  0
 13  2  2  0  0  0  0
 14  1  1  0  0  0  0
 16 17  2  0  0  0  0
 16  5  1  0  0  0  0
 17  6  1  0  0  0  0
 18 13  1  0  0  0  0
 18 10  2  0  0  0  0
 19 20  2  0  0  0  0
 20  3  1  0  0  0  0
 20 11  1  0  0  0  0
 22 23  1  0  0  0  0
 22 21  2  0  0  0  0
 23  8  1  0  0  0  0
 24 27  2  0  0  0  0
 25 26  1  0  0  0  0
 26 27  1  0  0  0  0
 26 28  1  0  0  0  0
 27 22  1  0  0  0  0
 28 29  1  6  0  0  0
 31 28  1  0  0  0  0
 31 30  1  0  0  0  0
M  END
>  <MODEL>
3

>  <REMARK>
 VINA RESULT:      -7.6      3.753      5.513
  Name = 
  4 active torsions:
  status: ('A' for Active; 'I' for Inactive)
    1  A    between atoms: C_1  and  N_19
    2  A    between atoms: C_1  and  C_24
    3  A    between atoms: C_9  and  C_22
    4  A    between atoms: C_15  and  N_23
                            x       y       z     vdW  Elec       q    Type
                         _______ _______ _______ _____ _____    ______ ____

>  <TORSDO>
F 4

$$$$
=
 OpenBabel11052417563D

 31 34  0  0  1  0  0  0  0  0999 V2000
  191.8170  172.8690  140.6700 C   0  0  0  0  0  0  0  0  0  0  0  0
  190.5990  175.7170  142.8060 C   0  0  0  0  0  0  0  0  0  0  0  0
  191.8390  176.4520  143.3020 C   0  0  2  0  0  3  0  0  0  0  0  0
  193.9780  175.3400  143.7440 C   0  0  0  0  0  2  0  0  0  0  0  0
  190.6260  174.5960  141.9240 C   0  0  0  0  0  0  0  0  0  0  0  0
  190.6110  172.3820  140.1680 C   0  0  0  0  0  3  0  0  0  0  0  0
  193.1920  176.1170  142.6900 C   0  0  0  0  0  2  0  0  0  0  0  0
  188.1450  175.7130  142.6730 C   0  0  0  0  0  0  0  0  0  0  0  0
  193.0140  172.2690  140.3070 O   0  0  0  0  0  1  0  0  0  0  0  0
  189.9870  177.5130  145.3230 C   0  0  0  0  0  3  0  0  0  0  0  0
  193.3180  175.5990  145.0890 C   0  0  2  0  0  3  0  0  0  0  0  0
  188.2000  174.6470  141.7750 C   0  0  0  0  0  3  0  0  0  0  0  0
  189.3360  176.2220  143.2300 C   0  0  0  0  0  0  0  0  0  0  0  0
  191.8200  173.9640  141.5390 C   0  0  0  0  0  3  0  0  0  0  0  0
  193.0830  174.2760  145.7950 C   0  0  0  0  0  1  0  0  0  0  0  0
  189.4110  174.0780  141.4130 C   0  0  0  0  0  0  0  0  0  0  0  0
  189.4090  172.9850  140.5400 C   0  0  0  0  0  3  0  0  0  0  0  0
  189.1910  177.2790  144.2690 C   0  0  0  0  0  3  0  0  0  0  0  0
  191.2300  176.7950  145.6600 C   0  0  0  0  0  3  0  0  0  0  0  0
  192.0270  176.2440  144.7500 C   0  0  0  0  0  0  0  0  0  0  0  0
  186.8950  178.2160  141.7390 O   0  0  0  0  0  0  0  0  0  0  0  0
  186.3040  177.5140  142.6030 C   0  0  0  0  0  0  0  0  0  0  0  0
  186.8810  176.2810  143.0590 N   0  0  0  0  0  2  0  0  0  0  0  0
  183.9890  177.8720  142.3820 O   0  0  0  0  0  0  0  0  0  0  0  0
  183.5550  179.0240  144.8740 C   0  0  0  0  0  1  0  0  0  0  0  0
  184.8270  178.4200  144.4910 N   0  0  0  0  0  0  0  0  0  0  0  0
  184.9940  177.9350  143.1430 C   0  0  0  0  0  0  0  0  0  0  0  0
  185.8460  178.1920  145.5160 C   0  0  1  0  0  3  0  0  0  0  0  0
  185.8500  179.3220  146.5350 C   0  0  0  0  0  1  0  0  0  0  0  0
  186.8590  176.4650  147.0060 C   0  0  0  0  0  1  0  0  0  0  0  0
  185.6360  176.8440  146.1930 C   0  0  0  0  0  2  0  0  0  0  0  0
  1 14  1  0  0  0  0
  2 13  2  0  0  0  0
  2  3  1  0  0  0  0
  3  7  1  6  0  0  0
  3 20  1  0  0  0  0
  4 11  1  0  0  0  0
  5  2  1  0  0  0  0
  6 17  1  0  0  0  0
  6  1  2  0  0  0  0
  7  4  1  0  0  0  0
  8 23  1  0  0  0  0
  8 13  1  0  0  0  0
  9  1  1  0  0  0  0
 10 19  1  0  0  0  0
 11 15  1  6  0  0  0
 12  8  2  0  0  0  0
 13 18  1  0  0  0  0
 14  5  2  0  0  0  0
 16 12  1  0  0  0  0
 16  5  1  0  0  0  0
 17 16  2  0  0  0  0
 18 10  2  0  0  0  0
 20 11  1  0  0  0  0
 20 19  2  0  0  0  0
 21 22  2  0  0  0  0
 22 23  1  0  0  0  0
 22 27  1  0  0  0  0
 24 27  2  0  0  0  0
 26 25  1  0  0  0  0
 26 28  1  0  0  0  0
 27 26  1  0  0  0  0
 28 31  1  0  0  0  0
 28 29  1  1  0  0  0
 31 30  1  0  0  0  0
M  END
>  <MODEL>
4

>  <REMARK>
 VINA RESULT:      -7.5      2.547      7.258
  Name = 
  4 active torsions:
  status: ('A' for Active; 'I' for Inactive)
    1  A    between atoms: C_1  and  N_19
    2  A    between atoms: C_1  and  C_24
    3  A    between atoms: C_9  and  C_22
    4  A    between atoms: C_15  and  N_23
                            x       y       z     vdW  Elec       q    Type
                         _______ _______ _______ _____ _____    ______ ____

>  <TORSDO>
F 4

$$$$
=
 OpenBabel11052417563D

 31 34  0  0  1  0  0  0  0  0999 V2000
  184.3420  178.2140  142.4340 C   0  0  0  0  0  0  0  0  0  0  0  0
  187.2040  176.8900  144.4860 C   0  0  0  0  0  0  0  0  0  0  0  0
  186.6470  176.6020  145.8750 C   0  0  2  0  0  3  0  0  0  0  0  0
  184.8280  177.8910  146.8930 C   0  0  0  0  0  2  0  0  0  0  0  0
  186.4240  177.3650  143.3890 C   0  0  0  0  0  0  0  0  0  0  0  0
  184.9350  178.2920  141.1740 C   0  0  0  0  0  3  0  0  0  0  0  0
  185.1410  176.6290  146.0900 C   0  0  0  0  0  2  0  0  0  0  0  0
  189.1340  176.6900  142.9790 C   0  0  0  0  0  0  0  0  0  0  0  0
  183.0180  178.5900  142.6020 O   0  0  0  0  0  1  0  0  0  0  0  0
  189.4800  176.6880  146.6570 C   0  0  0  0  0  3  0  0  0  0  0  0
  186.1240  178.3560  147.5360 C   0  0  2  0  0  3  0  0  0  0  0  0
  188.3400  177.1110  141.9120 C   0  0  0  0  0  3  0  0  0  0  0  0
  188.5870  176.6220  144.2760 C   0  0  0  0  0  0  0  0  0  0  0  0
  185.0820  177.7560  143.5260 C   0  0  0  0  0  3  0  0  0  0  0  0
  186.3170  179.8370  147.2620 C   0  0  0  0  0  1  0  0  0  0  0  0
  187.0130  177.4630  142.1040 C   0  0  0  0  0  0  0  0  0  0  0  0
  186.2690  177.9170  141.0100 C   0  0  0  0  0  3  0  0  0  0  0  0
  189.5250  176.2800  145.3810 C   0  0  0  0  0  3  0  0  0  0  0  0
  188.4440  177.5410  147.2690 C   0  0  0  0  0  3  0  0  0  0  0  0
  187.1780  177.5620  146.8620 C   0  0  0  0  0  0  0  0  0  0  0  0
  190.3290  174.0210  142.5920 O   0  0  0  0  0  0  0  0  0  0  0  0
  191.0750  175.0370  142.6060 C   0  0  0  0  0  0  0  0  0  0  0  0
  190.5160  176.3490  142.7710 N   0  0  0  0  0  2  0  0  0  0  0  0
  193.2840  175.1750  143.4040 O   0  0  0  0  0  0  0  0  0  0  0  0
  194.5760  174.5770  141.0180 C   0  0  0  0  0  1  0  0  0  0  0  0
  193.1300  174.4730  141.1840 N   0  0  0  0  0  0  0  0  0  0  0  0
  192.5360  174.8980  142.4260 C   0  0  0  0  0  0  0  0  0  0  0  0
  192.3390  173.8090  140.1460 C   0  0  1  0  0  3  0  0  0  0  0  0
  192.8580  174.1650  138.7610 C   0  0  0  0  0  1  0  0  0  0  0  0
  192.7990  171.5890  139.1030 C   0  0  0  0  0  1  0  0  0  0  0  0
  192.3310  172.3010  140.3580 C   0  0  0  0  0  2  0  0  0  0  0  0
  1  9  1  0  0  0  0
  1 14  1  0  0  0  0
  2  3  1  0  0  0  0
  3  7  1  6  0  0  0
  3 20  1  0  0  0  0
  4 11  1  0  0  0  0
  5 14  2  0  0  0  0
  5  2  1  0  0  0  0
  6  1  2  0  0  0  0
  7  4  1  0  0  0  0
  8 13  1  0  0  0  0
 10 19  1  0  0  0  0
 11 15  1  6  0  0  0
 12 16  1  0  0  0  0
 12  8  2  0  0  0  0
 13  2  2  0  0  0  0
 13 18  1  0  0  0  0
 16  5  1  0  0  0  0
 17  6  1  0  0  0  0
 17 16  2  0  0  0  0
 18 10  2  0  0  0  0
 20 19  2  0  0  0  0
 20 11  1  0  0  0  0
 21 22  2  0  0  0  0
 22 23  1  0  0  0  0
 23  8  1  0  0  0  0
 25 26  1  0  0  0  0
 26 27  1  0  0  0  0
 27 22  1  0  0  0  0
 27 24  2  0  0  0  0
 28 29  1  6  0  0  0
 28 31  1  0  0  0  0
 28 26  1  0  0  0  0
 30 31  1  0  0  0  0
M  END
>  <MODEL>
5

>  <REMARK>
 VINA RESULT:      -7.1      1.913      2.814
  Name = 
  4 active torsions:
  status: ('A' for Active; 'I' for Inactive)
    1  A    between atoms: C_1  and  N_19
    2  A    between atoms: C_1  and  C_24
    3  A    between atoms: C_9  and  C_22
    4  A    between atoms: C_15  and  N_23
                            x       y       z     vdW  Elec       q    Type
                         _______ _______ _______ _____ _____    ______ ____

>  <TORSDO>
F 4

$$$$
=
 OpenBabel11052417563D

 31 34  0  0  1  0  0  0  0  0999 V2000
  194.4820  174.5690  145.5540 C   0  0  0  0  0  0  0  0  0  0  0  0
  190.9270  174.6120  144.3220 C   0  0  0  0  0  0  0  0  0  0  0  0
  190.7430  173.3550  143.4800 C   0  0  2  0  0  3  0  0  0  0  0  0
  192.5440  172.3380  142.1650 C   0  0  0  0  0  2  0  0  0  0  0  0
  192.1290  174.9480  145.0140 C   0  0  0  0  0  0  0  0  0  0  0  0
  194.4750  175.6660  146.4160 C   0  0  0  0  0  3  0  0  0  0  0  0
  191.8190  172.2790  143.5090 C   0  0  0  0  0  2  0  0  0  0  0  0
  189.8350  176.5550  145.3550 C   0  0  0  0  0  0  0  0  0  0  0  0
  195.6410  173.8260  145.3850 O   0  0  0  0  0  1  0  0  0  0  0  0
  188.4320  174.8230  142.4080 C   0  0  0  0  0  3  0  0  0  0  0  0
  191.6470  173.0900  141.1950 C   0  0  2  0  0  3  0  0  0  0  0  0
  191.0070  176.8370  146.0560 C   0  0  0  0  0  3  0  0  0  0  0  0
  189.8010  175.4740  144.4510 C   0  0  0  0  0  0  0  0  0  0  0  0
  193.3200  174.2180  144.8620 C   0  0  0  0  0  3  0  0  0  0  0  0
  192.4570  174.1670  140.4960 C   0  0  0  0  0  1  0  0  0  0  0  0
  192.1460  176.0660  145.8830 C   0  0  0  0  0  0  0  0  0  0  0  0
  193.3080  176.4140  146.5790 C   0  0  0  0  0  3  0  0  0  0  0  0
  188.5550  175.3090  143.6520 C   0  0  0  0  0  3  0  0  0  0  0  0
  189.5170  174.2910  141.5630 C   0  0  0  0  0  3  0  0  0  0  0  0
  190.6020  173.6990  142.0520 C   0  0  0  0  0  0  0  0  0  0  0  0
  187.4360  176.0180  146.9850 O   0  0  0  0  0  0  0  0  0  0  0  0
  187.5000  177.0810  146.3110 C   0  0  0  0  0  0  0  0  0  0  0  0
  188.6650  177.3760  145.5250 N   0  0  0  0  0  2  0  0  0  0  0  0
  186.2160  178.7330  147.3860 O   0  0  0  0  0  0  0  0  0  0  0  0
  184.2960  179.0560  145.4030 C   0  0  0  0  0  1  0  0  0  0  0  0
  185.4960  178.2470  145.2200 N   0  0  0  0  0  0  0  0  0  0  0  0
  186.3880  178.0550  146.3360 C   0  0  0  0  0  0  0  0  0  0  0  0
  185.8380  177.7710  143.8780 C   0  0  1  0  0  3  0  0  0  0  0  0
  184.5820  177.5420  143.0500 C   0  0  0  0  0  1  0  0  0  0  0  0
  187.1630  178.2270  141.8130 C   0  0  0  0  0  1  0  0  0  0  0  0
  186.7810  178.7460  143.1860 C   0  0  0  0  0  2  0  0  0  0  0  0
  1  6  1  0  0  0  0
  2 13  2  0  0  0  0
  2  5  1  0  0  0  0
  3  7  1  6  0  0  0
  3  2  1  0  0  0  0
  4  7  1  0  0  0  0
  5 16  2  0  0  0  0
  6 17  2  0  0  0  0
  8 23  1  0  0  0  0
  8 12  2  0  0  0  0
  9  1  1  0  0  0  0
 10 18  2  0  0  0  0
 11 15  1  1  0  0  0
 11 20  1  0  0  0  0
 11  4  1  0  0  0  0
 13  8  1  0  0  0  0
 14  5  1  0  0  0  0
 14  1  2  0  0  0  0
 16 12  1  0  0  0  0
 16 17  1  0  0  0  0
 18 13  1  0  0  0  0
 19 20  2  0  0  0  0
 19 10  1  0  0  0  0
 20  3  1  0  0  0  0
 22 27  1  0  0  0  0
 22 21  2  0  0  0  0
 23 22  1  0  0  0  0
 26 25  1  0  0  0  0
 26 27  1  0  0  0  0
 27 24  2  0  0  0  0
 28 29  1  6  0  0  0
 28 26  1  0  0  0  0
 30 31  1  0  0  0  0
 31 28  1  0  0  0  0
M  END
>  <MODEL>
6

>  <REMARK>
 VINA RESULT:      -7.1      2.788      8.079
  Name = 
  4 active torsions:
  status: ('A' for Active; 'I' for Inactive)
    1  A    between atoms: C_1  and  N_19
    2  A    between atoms: C_1  and  C_24
    3  A    between atoms: C_9  and  C_22
    4  A    between atoms: C_15  and  N_23
                            x       y       z     vdW  Elec       q    Type
                         _______ _______ _______ _____ _____    ______ ____

>  <TORSDO>
F 4

$$$$
=
 OpenBabel11052417563D

 31 34  0  0  1  0  0  0  0  0999 V2000
  195.0580  173.6050  140.4260 C   0  0  0  0  0  0  0  0  0  0  0  0
  193.7720  175.5410  143.3840 C   0  0  0  0  0  0  0  0  0  0  0  0
  194.9950  176.0150  144.1600 C   0  0  2  0  0  3  0  0  0  0  0  0
  197.0960  174.7570  144.2650 C   0  0  0  0  0  2  0  0  0  0  0  0
  193.8290  174.8070  142.1620 C   0  0  0  0  0  0  0  0  0  0  0  0
  193.8720  173.3630  139.7330 C   0  0  0  0  0  3  0  0  0  0  0  0
  196.3730  175.8810  143.5250 C   0  0  0  0  0  2  0  0  0  0  0  0
  191.3280  175.6560  143.1570 C   0  0  0  0  0  0  0  0  0  0  0  0
  196.2640  173.1390  139.9220 O   0  0  0  0  0  1  0  0  0  0  0  0
  193.0600  176.3430  146.3480 C   0  0  0  0  0  3  0  0  0  0  0  0
  196.3740  174.5410  145.5850 C   0  0  2  0  0  3  0  0  0  0  0  0
  191.4130  174.9780  141.9410 C   0  0  0  0  0  3  0  0  0  0  0  0
  192.4970  175.9000  143.9070 C   0  0  0  0  0  0  0  0  0  0  0  0
  195.0320  174.3190  141.6260 C   0  0  0  0  0  3  0  0  0  0  0  0
  196.0880  173.0600  145.7630 C   0  0  0  0  0  1  0  0  0  0  0  0
  192.6330  174.5400  141.4500 C   0  0  0  0  0  0  0  0  0  0  0  0
  192.6610  173.8300  140.2460 C   0  0  0  0  0  3  0  0  0  0  0  0
  192.3140  176.5210  145.2480 C   0  0  0  0  0  3  0  0  0  0  0  0
  194.2750  175.5160  146.4580 C   0  0  0  0  0  3  0  0  0  0  0  0
  195.1100  175.3010  145.4450 C   0  0  0  0  0  0  0  0  0  0  0  0
  189.7530  178.0310  142.3960 O   0  0  0  0  0  0  0  0  0  0  0  0
  189.3170  177.2610  143.2930 C   0  0  0  0  0  0  0  0  0  0  0  0
  190.0540  176.0870  143.6670 N   0  0  0  0  0  2  0  0  0  0  0  0
  187.0300  177.8130  143.2320 O   0  0  0  0  0  0  0  0  0  0  0  0
  186.6280  178.0180  145.9750 C   0  0  0  0  0  1  0  0  0  0  0  0
  187.8680  177.5160  145.3910 N   0  0  0  0  0  0  0  0  0  0  0  0
  188.0260  177.5380  143.9580 C   0  0  0  0  0  0  0  0  0  0  0  0
  188.8560  176.8740  146.2580 C   0  0  1  0  0  3  0  0  0  0  0  0
  189.4200  177.8680  147.2630 C   0  0  0  0  0  1  0  0  0  0  0  0
  189.3160  174.6210  147.2270 C   0  0  0  0  0  1  0  0  0  0  0  0
  188.2510  175.6670  146.9620 C   0  0  0  0  0  2  0  0  0  0  0  0
  1 14  1  0  0  0  0
  2 13  2  0  0  0  0
  2  3  1  0  0  0  0
  3  7  1  6  0  0  0
  3 20  1  0  0  0  0
  4 11  1  0  0  0  0
  5  2  1  0  0  0  0
  6 17  1  0  0  0  0
  6  1  2  0  0  0  0
  7  4  1  0  0  0  0
  8 23  1  0  0  0  0
  8 13  1  0  0  0  0
  9  1  1  0  0  0  0
 10 19  1  0  0  0  0
 11 15  1  6  0  0  0
 12  8  2  0  0  0  0
 13 18  1  0  0  0  0
 14  5  2  0  0  0  0
 16 12  1  0  0  0  0
 16  5  1  0  0  0  0
 17 16  2  0  0  0  0
 18 10  2  0  0  0  0
 20 11  1  0  0  0  0
 20 19  2  0  0  0  0
 21 22  2  0  0  0  0
 22 23  1  0  0  0  0
 22 27  1  0  0  0  0
 24 27  2  0  0  0  0
 26 25  1  0  0  0  0
 26 28  1  0  0  0  0
 27 26  1  0  0  0  0
 28 31  1  0  0  0  0
 28 29  1  1  0  0  0
 31 30  1  0  0  0  0
M  END
>  <MODEL>
7

>  <REMARK>
 VINA RESULT:      -6.9      2.286      7.805
  Name = 
  4 active torsions:
  status: ('A' for Active; 'I' for Inactive)
    1  A    between atoms: C_1  and  N_19
    2  A    between atoms: C_1  and  C_24
    3  A    between atoms: C_9  and  C_22
    4  A    between atoms: C_15  and  N_23
                            x       y       z     vdW  Elec       q    Type
                         _______ _______ _______ _____ _____    ______ ____

>  <TORSDO>
F 4

$$$$
=
 OpenBabel11052417563D

 31 34  0  0  1  0  0  0  0  0999 V2000
  194.3850  175.2180  145.8130 C   0  0  0  0  0  0  0  0  0  0  0  0
  191.7630  174.2050  143.3130 C   0  0  0  0  0  0  0  0  0  0  0  0
  192.3340  173.0260  142.5360 C   0  0  2  0  0  3  0  0  0  0  0  0
  194.7240  172.7490  142.0700 C   0  0  0  0  0  2  0  0  0  0  0  0
  192.4310  174.8580  144.3920 C   0  0  0  0  0  0  0  0  0  0  0  0
  193.6940  176.1840  146.5440 C   0  0  0  0  0  3  0  0  0  0  0  0
  193.6070  172.3560  143.0350 C   0  0  0  0  0  2  0  0  0  0  0  0
  189.7890  175.6060  143.7380 C   0  0  0  0  0  0  0  0  0  0  0  0
  195.6960  174.9040  146.1430 O   0  0  0  0  0  1  0  0  0  0  0  0
  190.2600  173.7460  140.5810 C   0  0  0  0  0  3  0  0  0  0  0  0
  194.0700  173.2430  140.7900 C   0  0  2  0  0  3  0  0  0  0  0  0
  190.4460  176.1960  144.8190 C   0  0  0  0  0  3  0  0  0  0  0  0
  190.4570  174.6450  142.9520 C   0  0  0  0  0  0  0  0  0  0  0  0
  193.7570  174.5650  144.7500 C   0  0  0  0  0  3  0  0  0  0  0  0
  194.6840  174.5750  140.3960 C   0  0  0  0  0  1  0  0  0  0  0  0
  191.7490  175.8500  145.1380 C   0  0  0  0  0  0  0  0  0  0  0  0
  192.3770  176.5000  146.2060 C   0  0  0  0  0  3  0  0  0  0  0  0
  189.7360  174.1480  141.7480 C   0  0  0  0  0  3  0  0  0  0  0  0
  191.6930  173.6600  140.2470 C   0  0  0  0  0  3  0  0  0  0  0  0
  192.6420  173.4140  141.1460 C   0  0  0  0  0  0  0  0  0  0  0  0
  188.8730  177.9880  142.2590 O   0  0  0  0  0  0  0  0  0  0  0  0
  188.0230  177.1670  142.6970 C   0  0  0  0  0  0  0  0  0  0  0  0
  188.4440  175.9890  143.4020 N   0  0  0  0  0  2  0  0  0  0  0  0
  186.0800  176.9890  141.3830 O   0  0  0  0  0  0  0  0  0  0  0  0
  184.3790  178.4280  143.0440 C   0  0  0  0  0  1  0  0  0  0  0  0
  185.7330  178.0480  143.4340 N   0  0  0  0  0  0  0  0  0  0  0  0
  186.5790  177.3890  142.4710 C   0  0  0  0  0  0  0  0  0  0  0  0
  186.1470  178.2160  144.8270 C   0  0  1  0  0  3  0  0  0  0  0  0
  185.5490  179.4820  145.4210 C   0  0  0  0  0  1  0  0  0  0  0  0
  186.9140  176.5970  146.5650 C   0  0  0  0  0  1  0  0  0  0  0  0
  185.7700  176.9920  145.6520 C   0  0  0  0  0  2  0  0  0  0  0  0
  1  9  1  0  0  0  0
  1  6  1  0  0  0  0
  2  5  1  0  0  0  0
  3  7  1  1  0  0  0
  3  2  1  0  0  0  0
  4  7  1  0  0  0  0
  5 14  1  0  0  0  0
  5 16  2  0  0  0  0
  8 12  2  0  0  0  0
 10 18  2  0  0  0  0
 11 15  1  1  0  0  0
 11 20  1  0  0  0  0
 11  4  1  0  0  0  0
 12 16  1  0  0  0  0
 13  2  2  0  0  0  0
 13  8  1  0  0  0  0
 14  1  2  0  0  0  0
 16 17  1  0  0  0  0
 17  6  2  0  0  0  0
 18 13  1  0  0  0  0
 19 10  1  0  0  0  0
 19 20  2  0  0  0  0
 20  3  1  0  0  0  0
 21 22  2  0  0  0  0
 22 23  1  0  0  0  0
 23  8  1  0  0  0  0
 24 27  2  0  0  0  0
 25 26  1  0  0  0  0
 26 28  1  0  0  0  0
 27 22  1  0  0  0  0
 27 26  1  0  0  0  0
 28 29  1  1  0  0  0
 28 31  1  0  0  0  0
 31 30  1  0  0  0  0
M  END
>  <MODEL>
8

>  <REMARK>
 VINA RESULT:      -6.9      2.592      8.251
  Name = 
  4 active torsions:
  status: ('A' for Active; 'I' for Inactive)
    1  A    between atoms: C_1  and  N_19
    2  A    between atoms: C_1  and  C_24
    3  A    between atoms: C_9  and  C_22
    4  A    between atoms: C_15  and  N_23
                            x       y       z     vdW  Elec       q    Type
                         _______ _______ _______ _____ _____    ______ ____

>  <TORSDO>
F 4

$$$$
=
 OpenBabel11052417563D

 31 34  0  0  1  0  0  0  0  0999 V2000
  187.2920  177.4800  144.7880 C   0  0  0  0  0  0  0  0  0  0  0  0
  189.5130  174.5130  144.1380 C   0  0  0  0  0  0  0  0  0  0  0  0
  189.9770  174.0090  145.4990 C   0  0  2  0  0  3  0  0  0  0  0  0
  190.3280  175.4750  147.4310 C   0  0  0  0  0  2  0  0  0  0  0  0
  188.6130  175.6040  143.9470 C   0  0  0  0  0  0  0  0  0  0  0  0
  186.8250  177.7460  143.5010 C   0  0  0  0  0  3  0  0  0  0  0  0
  189.3130  174.5540  146.7560 C   0  0  0  0  0  2  0  0  0  0  0  0
  189.4650  174.1000  141.7160 C   0  0  0  0  0  0  0  0  0  0  0  0
  186.8780  178.2660  145.8530 O   0  0  0  0  0  1  0  0  0  0  0  0
  192.0770  172.6930  143.9180 C   0  0  0  0  0  3  0  0  0  0  0  0
  191.6980  175.1360  146.8680 C   0  0  2  0  0  3  0  0  0  0  0  0
  188.5490  175.1400  141.5600 C   0  0  0  0  0  3  0  0  0  0  0  0
  189.9880  173.8110  142.9930 C   0  0  0  0  0  0  0  0  0  0  0  0
  188.1770  176.4200  145.0030 C   0  0  0  0  0  3  0  0  0  0  0  0
  192.3910  176.4160  146.4340 C   0  0  0  0  0  1  0  0  0  0  0  0
  188.1370  175.8980  142.6460 C   0  0  0  0  0  0  0  0  0  0  0  0
  187.2470  176.9560  142.4310 C   0  0  0  0  0  3  0  0  0  0  0  0
  191.0480  172.7670  143.0610 C   0  0  0  0  0  3  0  0  0  0  0  0
  192.3600  173.6170  145.0310 C   0  0  0  0  0  3  0  0  0  0  0  0
  191.4140  174.2760  145.6950 C   0  0  0  0  0  0  0  0  0  0  0  0
  187.8260  172.6660  139.7260 O   0  0  0  0  0  0  0  0  0  0  0  0
  189.0830  172.6280  139.6360 C   0  0  0  0  0  0  0  0  0  0  0  0
  189.9030  173.3350  140.5790 N   0  0  0  0  0  2  0  0  0  0  0  0
  189.6610  170.6170  138.5600 O   0  0  0  0  0  0  0  0  0  0  0  0
  191.2530  171.7120  136.5630 C   0  0  0  0  0  1  0  0  0  0  0  0
  190.4530  172.5250  137.4730 N   0  0  0  0  0  0  0  0  0  0  0  0
  189.7350  171.8770  138.5420 C   0  0  0  0  0  0  0  0  0  0  0  0
  190.2840  173.9510  137.1940 C   0  0  1  0  0  3  0  0  0  0  0  0
  191.5620  174.5450  136.6190 C   0  0  0  0  0  1  0  0  0  0  0  0
  189.3870  175.3430  135.3260 C   0  0  0  0  0  1  0  0  0  0  0  0
  189.1040  174.1810  136.2580 C   0  0  0  0  0  2  0  0  0  0  0  0
  1 14  1  0  0  0  0
  1  9  1  0  0  0  0
  2  3  1  0  0  0  0
  3 20  1  0  0  0  0
  3  7  1  1  0  0  0
  5  2  1  0  0  0  0
  5 14  2  0  0  0  0
  6  1  2  0  0  0  0
  7  4  1  0  0  0  0
  8 13  1  0  0  0  0
 10 19  1  0  0  0  0
 11 15  1  6  0  0  0
 11  4  1  0  0  0  0
 12  8  2  0  0  0  0
 12 16  1  0  0  0  0
 13 18  1  0  0  0  0
 13  2  2  0  0  0  0
 16  5  1  0  0  0  0
 17 16  2  0  0  0  0
 17  6  1  0  0  0  0
 18 10  2  0  0  0  0
 19 20  2  0  0  0  0
 20 11  1  0  0  0  0
 22 21  2  0  0  0  0
 22 23  1  0  0  0  0
 23  8  1  0  0  0  0
 25 26  1  0  0  0  0
 26 27  1  0  0  0  0
 27 24  2  0  0  0  0
 27 22  1  0  0  0  0
 28 29  1  6  0  0  0
 28 26  1  0  0  0  0
 30 31  1  0  0  0  0
 31 28  1  0  0  0  0
M  END
>  <MODEL>
9

>  <REMARK>
 VINA RESULT:      -6.7      4.160      6.151
  Name = 
  4 active torsions:
  status: ('A' for Active; 'I' for Inactive)
    1  A    between atoms: C_1  and  N_19
    2  A    between atoms: C_1  and  C_24
    3  A    between atoms: C_9  and  C_22
    4  A    between atoms: C_15  and  N_23
                            x       y       z     vdW  Elec       q    Type
                         _______ _______ _______ _____ _____    ______ ____

>  <TORSDO>
F 4

$$$$
