=
 OpenBabel11052421273D

 32 37  0  0  1  0  0  0  0  0999 V2000
  191.2450  173.2470  139.1590 C   0  0  0  0  0  2  0  0  0  0  0  0
  188.4000  175.4640  142.7600 C   0  0  0  0  0  0  0  0  0  0  0  0
  191.3840  175.1350  146.6180 O   0  0  0  0  0  0  0  0  0  0  0  0
  190.3150  175.1850  147.5290 C   0  0  0  0  0  2  0  0  0  0  0  0
  186.3700  176.9370  142.8620 C   0  0  0  0  0  0  0  0  0  0  0  0
  185.6180  177.6920  143.6610 C   0  0  0  0  0  0  0  0  0  0  0  0
  189.0620  174.4000  140.6620 C   0  0  0  0  0  0  0  0  0  0  0  0
  190.4100  173.9930  142.6640 C   0  0  0  0  0  3  0  0  0  0  0  0
  184.8620  178.7730  145.6360 C   0  0  1  0  0  3  0  0  0  0  0  0
  191.1050  172.8280  140.6230 C   0  0  0  0  0  2  0  0  0  0  0  0
  190.9290  174.3840  145.5190 C   0  0  0  0  0  2  0  0  0  0  0  0
  189.5320  174.8500  143.4180 N   0  0  0  0  0  0  0  0  0  0  0  0
  189.7870  175.0820  144.8140 C   0  0  0  0  0  0  0  0  0  0  0  0
  187.8220  176.4730  144.8810 N   0  0  0  0  0  0  0  0  0  0  0  0
  183.9590  179.1060  144.4250 C   0  0  0  0  0  2  0  0  0  0  0  0
  188.8980  174.1270  139.2250 C   0  0  0  0  0  0  0  0  0  0  0  0
  190.2140  173.7810  141.3610 C   0  0  0  0  0  0  0  0  0  0  0  0
  184.4930  178.4000  143.3020 O   0  0  0  0  0  0  0  0  0  0  0  0
  187.8600  174.5010  138.6130 O   0  0  0  0  0  0  0  0  0  0  0  0
  189.9310  173.4040  138.5370 N   0  0  0  0  0  0  0  0  0  0  0  0
  189.2320  176.1230  146.9920 C   0  0  0  0  0  2  0  0  0  0  0  0
  188.9480  175.8520  145.5310 C   0  0  0  0  0  0  0  0  0  0  0  0
  186.9360  177.3140  145.6510 C   0  0  0  0  0  3  0  0  0  0  0  0
  188.2100  175.1900  141.3220 C   0  0  0  0  0  3  0  0  0  0  0  0
  186.0280  176.8110  141.5190 O   0  0  0  0  0  1  0  0  0  0  0  0
  184.1190  178.0770  146.5900 O   0  0  0  0  0  1  0  0  0  0  0  0
  187.5640  176.2570  143.4640 C   0  0  0  0  0  0  0  0  0  0  0  0
  185.8920  177.8790  145.0510 C   0  0  0  0  0  0  0  0  0  0  0  0
  189.7200  172.8900  137.1900 C   0  0  0  0  0  2  0  0  0  0  0  0
  189.7870  171.4000  137.1890 C   0  0  0  0  0  0  0  0  0  0  0  0
  189.3210  170.6830  138.2830 O   0  0  0  0  0  1  0  0  0  0  0  0
  190.2320  170.7920  136.1820 O   0  0  0  0  0  0  0  0  0  0  0  0
  1 10  1  0  0  0  0
  2 12  1  0  0  0  0
  2 27  2  0  0  0  0
  3  4  1  0  0  0  0
  5 27  1  0  0  0  0
  5  6  2  0  0  0  0
  6 28  1  0  0  0  0
  7 24  2  0  0  0  0
  7 17  1  0  0  0  0
  8 12  1  0  0  0  0
  9 26  1  1  0  0  0
 10 17  1  0  0  0  0
 11  3  1  0  0  0  0
 12 13  1  0  0  0  0
 13 11  1  0  0  0  0
 13 22  2  0  0  0  0
 14 22  1  0  0  0  0
 14 23  1  0  0  0  0
 15  9  1  0  0  0  0
 16  7  1  0  0  0  0
 17  8  2  0  0  0  0
 18  6  1  0  0  0  0
 18 15  1  0  0  0  0
 19 16  2  0  0  0  0
 20  1  1  0  0  0  0
 20 16  1  0  0  0  0
 21  4  1  0  0  0  0
 22 21  1  0  0  0  0
 24  2  1  0  0  0  0
 25  5  1  0  0  0  0
 27 14  1  0  0  0  0
 28  9  1  0  0  0  0
 28 23  2  0  0  0  0
 29 20  1  0  0  0  0
 30 29  1  0  0  0  0
 30 31  1  0  0  0  0
 32 30  2  0  0  0  0
M  END
>  <MODEL>
1

>  <REMARK>
 VINA RESULT:      -8.0      0.000      0.000
  Name = 
  2 active torsions:
  status: ('A' for Active; 'I' for Inactive)
    1  A    between atoms: C_1  and  C_10
    2  A    between atoms: C_10  and  N_24
                            x       y       z     vdW  Elec       q    Type
                         _______ _______ _______ _____ _____    ______ ____

>  <TORSDO>
F 2

$$$$
=
 OpenBabel11052421273D

 32 37  0  0  1  0  0  0  0  0999 V2000
  191.8350  173.3390  139.8420 C   0  0  0  0  0  2  0  0  0  0  0  0
  188.9760  175.6730  143.3570 C   0  0  0  0  0  0  0  0  0  0  0  0
  192.2930  176.4710  146.8560 O   0  0  0  0  0  0  0  0  0  0  0  0
  191.3150  176.5100  147.8630 C   0  0  0  0  0  2  0  0  0  0  0  0
  186.7400  176.8120  143.4590 C   0  0  0  0  0  0  0  0  0  0  0  0
  185.9430  177.5670  144.2120 C   0  0  0  0  0  0  0  0  0  0  0  0
  189.6260  174.3820  141.3870 C   0  0  0  0  0  0  0  0  0  0  0  0
  191.1910  174.5340  143.2620 C   0  0  0  0  0  3  0  0  0  0  0  0
  185.1870  178.8400  146.0700 C   0  0  1  0  0  3  0  0  0  0  0  0
  191.8950  173.1600  141.3590 C   0  0  0  0  0  2  0  0  0  0  0  0
  191.8800  175.4820  145.9450 C   0  0  0  0  0  2  0  0  0  0  0  0
  190.2480  175.3620  143.9690 N   0  0  0  0  0  0  0  0  0  0  0  0
  190.5790  175.8660  145.2750 C   0  0  0  0  0  0  0  0  0  0  0  0
  188.4190  176.9280  145.3480 N   0  0  0  0  0  0  0  0  0  0  0  0
  184.1390  178.8180  144.9310 C   0  0  0  0  0  2  0  0  0  0  0  0
  189.3870  173.8450  140.0360 C   0  0  0  0  0  0  0  0  0  0  0  0
  190.9220  174.0760  142.0380 C   0  0  0  0  0  0  0  0  0  0  0  0
  184.6870  178.0210  143.8780 O   0  0  0  0  0  0  0  0  0  0  0  0
  188.2510  173.9450  139.4950 O   0  0  0  0  0  0  0  0  0  0  0  0
  190.4650  173.1830  139.3560 N   0  0  0  0  0  0  0  0  0  0  0  0
  190.0460  177.1650  147.3150 C   0  0  0  0  0  2  0  0  0  0  0  0
  189.6870  176.6080  145.9550 C   0  0  0  0  0  0  0  0  0  0  0  0
  187.4730  177.7420  146.0740 C   0  0  0  0  0  3  0  0  0  0  0  0
  188.7110  175.1320  142.0080 C   0  0  0  0  0  3  0  0  0  0  0  0
  186.3100  176.4070  142.1990 O   0  0  0  0  0  1  0  0  0  0  0  0
  184.6590  178.2110  147.1970 O   0  0  0  0  0  1  0  0  0  0  0  0
  188.0810  176.4370  144.0200 C   0  0  0  0  0  0  0  0  0  0  0  0
  186.3000  178.0280  145.5170 C   0  0  0  0  0  0  0  0  0  0  0  0
  190.2280  172.4200  138.1370 C   0  0  0  0  0  2  0  0  0  0  0  0
  190.7100  171.0190  138.3030 C   0  0  0  0  0  0  0  0  0  0  0  0
  191.6330  170.4920  137.4100 O   0  0  0  0  0  0  0  0  0  0  0  0
  190.3090  170.3270  139.2740 O   0  0  0  0  0  1  0  0  0  0  0  0
  1 10  1  0  0  0  0
  2 12  1  0  0  0  0
  2 27  2  0  0  0  0
  3  4  1  0  0  0  0
  5 27  1  0  0  0  0
  5  6  2  0  0  0  0
  6 28  1  0  0  0  0
  7 24  2  0  0  0  0
  7 17  1  0  0  0  0
  8 12  1  0  0  0  0
  9 26  1  1  0  0  0
 10 17  1  0  0  0  0
 11  3  1  0  0  0  0
 12 13  1  0  0  0  0
 13 11  1  0  0  0  0
 13 22  2  0  0  0  0
 14 22  1  0  0  0  0
 14 23  1  0  0  0  0
 15  9  1  0  0  0  0
 16  7  1  0  0  0  0
 17  8  2  0  0  0  0
 18  6  1  0  0  0  0
 18 15  1  0  0  0  0
 19 16  2  0  0  0  0
 20  1  1  0  0  0  0
 20 16  1  0  0  0  0
 21  4  1  0  0  0  0
 22 21  1  0  0  0  0
 24  2  1  0  0  0  0
 25  5  1  0  0  0  0
 27 14  1  0  0  0  0
 28  9  1  0  0  0  0
 28 23  2  0  0  0  0
 29 30  1  0  0  0  0
 29 20  1  0  0  0  0
 30 32  1  0  0  0  0
 31 30  2  0  0  0  0
M  END
>  <MODEL>
2

>  <REMARK>
 VINA RESULT:      -7.9      1.089      1.236
  Name = 
  2 active torsions:
  status: ('A' for Active; 'I' for Inactive)
    1  A    between atoms: C_1  and  C_10
    2  A    between atoms: C_10  and  N_24
                            x       y       z     vdW  Elec       q    Type
                         _______ _______ _______ _____ _____    ______ ____

>  <TORSDO>
F 2

$$$$
=
 OpenBabel11052421273D

 32 37  0  0  1  0  0  0  0  0999 V2000
  186.1170  178.7780  143.0600 C   0  0  0  0  0  2  0  0  0  0  0  0
  189.5440  175.0060  142.9990 C   0  0  0  0  0  0  0  0  0  0  0  0
  189.3900  173.7020  138.2910 O   0  0  0  0  0  0  0  0  0  0  0  0
  189.8380  172.4000  138.5710 C   0  0  0  0  0  2  0  0  0  0  0  0
  191.3910  174.1670  144.4770 C   0  0  0  0  0  0  0  0  0  0  0  0
  192.4280  173.3340  144.5480 C   0  0  0  0  0  0  0  0  0  0  0  0
  187.9700  176.6900  143.8100 C   0  0  0  0  0  0  0  0  0  0  0  0
  187.7040  175.8300  141.5340 C   0  0  0  0  0  3  0  0  0  0  0  0
  194.0140  171.6940  143.8870 C   0  0  1  0  0  3  0  0  0  0  0  0
  186.0370  177.4610  142.2870 C   0  0  0  0  0  2  0  0  0  0  0  0
  188.5430  174.0630  139.3550 C   0  0  0  0  0  2  0  0  0  0  0  0
  188.8550  174.9870  141.7280 N   0  0  0  0  0  0  0  0  0  0  0  0
  189.3050  174.1360  140.6600 C   0  0  0  0  0  0  0  0  0  0  0  0
  191.0530  173.3380  142.1110 N   0  0  0  0  0  0  0  0  0  0  0  0
  194.2750  172.1880  145.3290 C   0  0  0  0  0  2  0  0  0  0  0  0
  187.4530  177.6140  144.8340 C   0  0  0  0  0  0  0  0  0  0  0  0
  187.2800  176.6500  142.4980 C   0  0  0  0  0  0  0  0  0  0  0  0
  193.2650  173.1550  145.6270 O   0  0  0  0  0  0  0  0  0  0  0  0
  187.9030  177.5840  146.0130 O   0  0  0  0  0  0  0  0  0  0  0  0
  186.4120  178.5340  144.4710 N   0  0  0  0  0  0  0  0  0  0  0  0
  190.8520  172.4470  139.7170 C   0  0  0  0  0  2  0  0  0  0  0  0
  190.3570  173.3200  140.8490 C   0  0  0  0  0  0  0  0  0  0  0  0
  192.1940  172.4740  142.3020 C   0  0  0  0  0  3  0  0  0  0  0  0
  189.0330  175.9160  144.0450 C   0  0  0  0  0  3  0  0  0  0  0  0
  191.0720  174.9570  145.5770 O   0  0  0  0  0  1  0  0  0  0  0  0
  193.6900  170.3370  143.9140 O   0  0  0  0  0  1  0  0  0  0  0  0
  190.6160  174.2080  143.1940 C   0  0  0  0  0  0  0  0  0  0  0  0
  192.8290  172.4850  143.4700 C   0  0  0  0  0  0  0  0  0  0  0  0
  185.6930  179.2930  145.4860 C   0  0  0  0  0  2  0  0  0  0  0  0
  184.4180  178.6070  145.8380 C   0  0  0  0  0  0  0  0  0  0  0  0
  184.4270  177.5280  146.7110 O   0  0  0  0  0  1  0  0  0  0  0  0
  183.3280  179.0290  145.3720 O   0  0  0  0  0  0  0  0  0  0  0  0
  1 20  1  0  0  0  0
  2 27  2  0  0  0  0
  2 24  1  0  0  0  0
  3  4  1  0  0  0  0
  3 11  1  0  0  0  0
  4 21  1  0  0  0  0
  5  6  2  0  0  0  0
  5 25  1  0  0  0  0
  6 18  1  0  0  0  0
  7 24  2  0  0  0  0
  7 16  1  0  0  0  0
  8 12  1  0  0  0  0
  8 17  2  0  0  0  0
  9 26  1  1  0  0  0
  9 15  1  0  0  0  0
 10 17  1  0  0  0  0
 10  1  1  0  0  0  0
 11 13  1  0  0  0  0
 12  2  1  0  0  0  0
 13 22  2  0  0  0  0
 13 12  1  0  0  0  0
 14 23  1  0  0  0  0
 14 27  1  0  0  0  0
 15 18  1  0  0  0  0
 16 19  2  0  0  0  0
 17  7  1  0  0  0  0
 20 16  1  0  0  0  0
 20 29  1  0  0  0  0
 21 22  1  0  0  0  0
 22 14  1  0  0  0  0
 23 28  2  0  0  0  0
 27  5  1  0  0  0  0
 28  9  1  0  0  0  0
 28  6  1  0  0  0  0
 29 30  1  0  0  0  0
 30 31  1  0  0  0  0
 32 30  2  0  0  0  0
M  END
>  <MODEL>
3

>  <REMARK>
 VINA RESULT:      -7.8      2.176      8.302
  Name = 
  2 active torsions:
  status: ('A' for Active; 'I' for Inactive)
    1  A    between atoms: C_1  and  C_10
    2  A    between atoms: C_10  and  N_24
                            x       y       z     vdW  Elec       q    Type
                         _______ _______ _______ _____ _____    ______ ____

>  <TORSDO>
F 2

$$$$
=
 OpenBabel11052421273D

 32 37  0  0  1  0  0  0  0  0999 V2000
  186.7050  177.2090  147.0370 C   0  0  0  0  0  2  0  0  0  0  0  0
  190.2160  175.4950  143.7650 C   0  0  0  0  0  0  0  0  0  0  0  0
  194.2080  175.5620  146.5850 O   0  0  0  0  0  0  0  0  0  0  0  0
  195.0660  175.6800  145.4780 C   0  0  0  0  0  2  0  0  0  0  0  0
  190.2550  174.2990  141.5580 C   0  0  0  0  0  0  0  0  0  0  0  0
  191.0350  173.6740  140.6790 C   0  0  0  0  0  0  0  0  0  0  0  0
  188.1270  176.3960  144.6560 C   0  0  0  0  0  0  0  0  0  0  0  0
  190.1820  176.6910  145.9510 C   0  0  0  0  0  3  0  0  0  0  0  0
  192.9980  172.7640  139.6980 C   0  0  1  0  0  3  0  0  0  0  0  0
  188.1490  177.6900  146.8860 C   0  0  0  0  0  2  0  0  0  0  0  0
  193.0690  176.3290  146.2830 C   0  0  0  0  0  2  0  0  0  0  0  0
  190.9130  175.9790  144.9360 N   0  0  0  0  0  0  0  0  0  0  0  0
  192.3260  175.7610  145.0930 C   0  0  0  0  0  0  0  0  0  0  0  0
  192.3310  174.6380  142.9630 N   0  0  0  0  0  0  0  0  0  0  0  0
  191.7520  172.5110  138.8160 C   0  0  0  0  0  2  0  0  0  0  0  0
  186.6760  176.6420  144.5950 C   0  0  0  0  0  0  0  0  0  0  0  0
  188.8660  176.8840  145.8450 C   0  0  0  0  0  0  0  0  0  0  0  0
  190.6390  173.1060  139.4880 O   0  0  0  0  0  0  0  0  0  0  0  0
  186.0230  176.3840  143.5460 O   0  0  0  0  0  0  0  0  0  0  0  0
  186.0220  177.2030  145.7440 N   0  0  0  0  0  0  0  0  0  0  0  0
  194.5000  174.8710  144.3080 C   0  0  0  0  0  2  0  0  0  0  0  0
  193.0200  175.1300  144.1290 C   0  0  0  0  0  0  0  0  0  0  0  0
  193.0780  173.9430  141.9410 C   0  0  0  0  0  3  0  0  0  0  0  0
  188.7630  175.7440  143.6780 C   0  0  0  0  0  3  0  0  0  0  0  0
  188.8940  174.4250  141.2980 O   0  0  0  0  0  1  0  0  0  0  0  0
  193.8950  173.5800  139.0080 O   0  0  0  0  0  1  0  0  0  0  0  0
  190.8980  174.8390  142.8010 C   0  0  0  0  0  0  0  0  0  0  0  0
  192.4420  173.4980  140.8610 C   0  0  0  0  0  0  0  0  0  0  0  0
  184.6540  177.6960  145.6640 C   0  0  0  0  0  2  0  0  0  0  0  0
  184.5980  178.9310  144.8310 C   0  0  0  0  0  0  0  0  0  0  0  0
  185.6140  179.8730  144.9160 O   0  0  0  0  0  1  0  0  0  0  0  0
  183.6480  179.1030  144.0240 O   0  0  0  0  0  0  0  0  0  0  0  0
  2 12  1  0  0  0  0
  4  3  1  0  0  0  0
  5 27  1  0  0  0  0
  6 28  1  0  0  0  0
  6  5  2  0  0  0  0
  7 17  1  0  0  0  0
  9 26  1  6  0  0  0
  9 28  1  0  0  0  0
 10  1  1  0  0  0  0
 11  3  1  0  0  0  0
 12 13  1  0  0  0  0
 12  8  1  0  0  0  0
 13 11  1  0  0  0  0
 14 22  1  0  0  0  0
 15 18  1  0  0  0  0
 15  9  1  0  0  0  0
 16  7  1  0  0  0  0
 16 20  1  0  0  0  0
 17  8  2  0  0  0  0
 17 10  1  0  0  0  0
 18  6  1  0  0  0  0
 19 16  2  0  0  0  0
 20  1  1  0  0  0  0
 21  4  1  0  0  0  0
 22 21  1  0  0  0  0
 22 13  2  0  0  0  0
 23 14  1  0  0  0  0
 24  2  1  0  0  0  0
 24  7  2  0  0  0  0
 25  5  1  0  0  0  0
 27 14  1  0  0  0  0
 27  2  2  0  0  0  0
 28 23  2  0  0  0  0
 29 20  1  0  0  0  0
 30 31  1  0  0  0  0
 30 29  1  0  0  0  0
 32 30  2  0  0  0  0
M  END
>  <MODEL>
4

>  <REMARK>
 VINA RESULT:      -7.6      2.304      7.700
  Name = 
  2 active torsions:
  status: ('A' for Active; 'I' for Inactive)
    1  A    between atoms: C_1  and  C_10
    2  A    between atoms: C_10  and  N_24
                            x       y       z     vdW  Elec       q    Type
                         _______ _______ _______ _____ _____    ______ ____

>  <TORSDO>
F 2

$$$$
=
 OpenBabel11052421273D

 32 37  0  0  1  0  0  0  0  0999 V2000
  186.2230  177.7760  143.2960 C   0  0  0  0  0  2  0  0  0  0  0  0
  190.5070  175.0310  143.5740 C   0  0  0  0  0  0  0  0  0  0  0  0
  190.1930  172.4190  139.4550 O   0  0  0  0  0  0  0  0  0  0  0  0
  191.0020  171.3920  139.9690 C   0  0  0  0  0  2  0  0  0  0  0  0
  192.6630  175.0980  144.8590 C   0  0  0  0  0  0  0  0  0  0  0  0
  193.8860  174.5810  144.9510 C   0  0  0  0  0  0  0  0  0  0  0  0
  188.6380  176.4730  144.2030 C   0  0  0  0  0  0  0  0  0  0  0  0
  188.3640  174.9530  142.3040 C   0  0  0  0  0  3  0  0  0  0  0  0
  195.7710  173.2240  144.4500 C   0  0  1  0  0  3  0  0  0  0  0  0
  186.4140  176.3100  142.9080 C   0  0  0  0  0  2  0  0  0  0  0  0
  189.4020  172.8710  140.5270 C   0  0  0  0  0  2  0  0  0  0  0  0
  189.7130  174.4880  142.4940 N   0  0  0  0  0  0  0  0  0  0  0  0
  190.2550  173.4890  141.6130 C   0  0  0  0  0  0  0  0  0  0  0  0
  192.3020  173.5650  142.8800 N   0  0  0  0  0  0  0  0  0  0  0  0
  196.0470  174.1610  145.6500 C   0  0  0  0  0  2  0  0  0  0  0  0
  188.0080  177.5120  145.0360 C   0  0  0  0  0  0  0  0  0  0  0  0
  187.8450  175.8990  143.0900 C   0  0  0  0  0  0  0  0  0  0  0  0
  194.8540  174.9170  145.8710 O   0  0  0  0  0  0  0  0  0  0  0  0
  188.5760  177.9280  146.0840 O   0  0  0  0  0  0  0  0  0  0  0  0
  186.7250  178.0250  144.6460 N   0  0  0  0  0  0  0  0  0  0  0  0
  192.0850  171.9970  140.8640 C   0  0  0  0  0  2  0  0  0  0  0  0
  191.5020  173.0250  141.8100 C   0  0  0  0  0  0  0  0  0  0  0  0
  193.6460  173.0770  143.0740 C   0  0  0  0  0  3  0  0  0  0  0  0
  189.8890  176.0630  144.4300 C   0  0  0  0  0  3  0  0  0  0  0  0
  192.2650  176.0790  145.7630 O   0  0  0  0  0  1  0  0  0  0  0  0
  195.8280  171.8970  144.8770 O   0  0  0  0  0  1  0  0  0  0  0  0
  191.7680  174.5880  143.7680 C   0  0  0  0  0  0  0  0  0  0  0  0
  194.3790  173.5700  144.0680 C   0  0  0  0  0  0  0  0  0  0  0  0
  185.9450  178.8610  145.5490 C   0  0  0  0  0  2  0  0  0  0  0  0
  184.7690  178.1060  146.0680 C   0  0  0  0  0  0  0  0  0  0  0  0
  184.9230  176.7990  146.5090 O   0  0  0  0  0  1  0  0  0  0  0  0
  183.6440  178.6650  146.1390 O   0  0  0  0  0  0  0  0  0  0  0  0
  1 20  1  0  0  0  0
  2 27  2  0  0  0  0
  2 24  1  0  0  0  0
  3  4  1  0  0  0  0
  3 11  1  0  0  0  0
  4 21  1  0  0  0  0
  5  6  2  0  0  0  0
  5 25  1  0  0  0  0
  6 18  1  0  0  0  0
  7 24  2  0  0  0  0
  7 16  1  0  0  0  0
  8 12  1  0  0  0  0
  8 17  2  0  0  0  0
  9 26  1  1  0  0  0
  9 15  1  0  0  0  0
 10 17  1  0  0  0  0
 10  1  1  0  0  0  0
 11 13  1  0  0  0  0
 12  2  1  0  0  0  0
 13 22  2  0  0  0  0
 13 12  1  0  0  0  0
 14 23  1  0  0  0  0
 14 27  1  0  0  0  0
 15 18  1  0  0  0  0
 16 19  2  0  0  0  0
 17  7  1  0  0  0  0
 20 16  1  0  0  0  0
 20 29  1  0  0  0  0
 21 22  1  0  0  0  0
 22 14  1  0  0  0  0
 23 28  2  0  0  0  0
 27  5  1  0  0  0  0
 28  9  1  0  0  0  0
 28  6  1  0  0  0  0
 29 30  1  0  0  0  0
 30 32  2  0  0  0  0
 30 31  1  0  0  0  0
M  END
>  <MODEL>
5

>  <REMARK>
 VINA RESULT:      -7.5      2.498      8.347
  Name = 
  2 active torsions:
  status: ('A' for Active; 'I' for Inactive)
    1  A    between atoms: C_1  and  C_10
    2  A    between atoms: C_10  and  N_24
                            x       y       z     vdW  Elec       q    Type
                         _______ _______ _______ _____ _____    ______ ____

>  <TORSDO>
F 2

$$$$
=
 OpenBabel11052421273D

 32 37  0  0  1  0  0  0  0  0999 V2000
  187.4340  177.4610  146.8450 C   0  0  0  0  0  2  0  0  0  0  0  0
  189.5410  175.0340  142.8910 C   0  0  0  0  0  0  0  0  0  0  0  0
  193.0700  172.5070  145.1380 O   0  0  0  0  0  0  0  0  0  0  0  0
  193.8500  172.4360  143.9720 C   0  0  0  0  0  2  0  0  0  0  0  0
  188.9310  174.5010  140.5140 C   0  0  0  0  0  0  0  0  0  0  0  0
  189.2730  173.7900  139.4410 C   0  0  0  0  0  0  0  0  0  0  0  0
  188.2080  176.6140  144.1930 C   0  0  0  0  0  0  0  0  0  0  0  0
  190.1540  175.5690  145.2460 C   0  0  0  0  0  3  0  0  0  0  0  0
  190.4900  172.2840  138.0660 C   0  0  1  0  0  3  0  0  0  0  0  0
  188.9200  177.1950  146.6020 C   0  0  0  0  0  2  0  0  0  0  0  0
  192.4690  173.7790  145.1320 C   0  0  0  0  0  2  0  0  0  0  0  0
  190.4080  174.8390  144.0310 N   0  0  0  0  0  0  0  0  0  0  0  0
  191.5200  173.9300  143.9630 C   0  0  0  0  0  0  0  0  0  0  0  0
  190.9190  173.4580  141.6800 N   0  0  0  0  0  0  0  0  0  0  0  0
  189.2710  172.8770  137.3190 C   0  0  0  0  0  2  0  0  0  0  0  0
  187.0790  177.5440  144.3650 C   0  0  0  0  0  0  0  0  0  0  0  0
  189.1140  176.3990  145.3460 C   0  0  0  0  0  0  0  0  0  0  0  0
  188.6230  173.7710  138.2270 O   0  0  0  0  0  0  0  0  0  0  0  0
  186.3670  177.8810  143.3790 O   0  0  0  0  0  0  0  0  0  0  0  0
  186.8180  178.0790  145.6720 N   0  0  0  0  0  0  0  0  0  0  0  0
  192.9330  172.2930  142.7550 C   0  0  0  0  0  2  0  0  0  0  0  0
  191.7830  173.2740  142.8180 C   0  0  0  0  0  0  0  0  0  0  0  0
  191.1940  172.7370  140.4590 C   0  0  0  0  0  3  0  0  0  0  0  0
  188.4110  175.9730  143.0380 C   0  0  0  0  0  3  0  0  0  0  0  0
  187.8150  175.3310  140.4580 O   0  0  0  0  0  1  0  0  0  0  0  0
  191.6640  172.6880  137.4300 O   0  0  0  0  0  1  0  0  0  0  0  0
  189.7810  174.3640  141.7430 C   0  0  0  0  0  0  0  0  0  0  0  0
  190.4020  172.9140  139.4070 C   0  0  0  0  0  0  0  0  0  0  0  0
  185.8850  179.1820  145.8600 C   0  0  0  0  0  2  0  0  0  0  0  0
  184.4810  178.6820  145.8230 C   0  0  0  0  0  0  0  0  0  0  0  0
  183.6430  179.0400  144.7760 O   0  0  0  0  0  0  0  0  0  0  0  0
  184.0660  177.9070  146.7230 O   0  0  0  0  0  1  0  0  0  0  0  0
  2 24  1  0  0  0  0
  2 12  1  0  0  0  0
  4  3  1  0  0  0  0
  5 27  1  0  0  0  0
  6  5  2  0  0  0  0
  7 16  1  0  0  0  0
  7 17  1  0  0  0  0
  8 17  2  0  0  0  0
  9 26  1  6  0  0  0
  9 28  1  0  0  0  0
 10  1  1  0  0  0  0
 11  3  1  0  0  0  0
 12  8  1  0  0  0  0
 13 12  1  0  0  0  0
 13 11  1  0  0  0  0
 14 27  1  0  0  0  0
 14 22  1  0  0  0  0
 15  9  1  0  0  0  0
 15 18  1  0  0  0  0
 16 20  1  0  0  0  0
 17 10  1  0  0  0  0
 18  6  1  0  0  0  0
 19 16  2  0  0  0  0
 20 29  1  0  0  0  0
 20  1  1  0  0  0  0
 21 22  1  0  0  0  0
 21  4  1  0  0  0  0
 22 13  2  0  0  0  0
 23 14  1  0  0  0  0
 24  7  2  0  0  0  0
 25  5  1  0  0  0  0
 27  2  2  0  0  0  0
 28  6  1  0  0  0  0
 28 23  2  0  0  0  0
 30 29  1  0  0  0  0
 30 32  1  0  0  0  0
 31 30  2  0  0  0  0
M  END
>  <MODEL>
6

>  <REMARK>
 VINA RESULT:      -7.3      1.668      7.615
  Name = 
  2 active torsions:
  status: ('A' for Active; 'I' for Inactive)
    1  A    between atoms: C_1  and  C_10
    2  A    between atoms: C_10  and  N_24
                            x       y       z     vdW  Elec       q    Type
                         _______ _______ _______ _____ _____    ______ ____

>  <TORSDO>
F 2

$$$$
=
 OpenBabel11052421273D

 32 37  0  0  1  0  0  0  0  0999 V2000
  187.3480  177.9420  144.1600 C   0  0  0  0  0  2  0  0  0  0  0  0
  189.6160  173.7120  142.4460 C   0  0  0  0  0  0  0  0  0  0  0  0
  188.8460  174.1420  137.6380 O   0  0  0  0  0  0  0  0  0  0  0  0
  188.9410  172.7550  137.4350 C   0  0  0  0  0  2  0  0  0  0  0  0
  191.2480  172.0120  143.3120 C   0  0  0  0  0  0  0  0  0  0  0  0
  192.0230  170.9840  142.9730 C   0  0  0  0  0  0  0  0  0  0  0  0
  188.6050  175.3480  143.9540 C   0  0  0  0  0  0  0  0  0  0  0  0
  187.9870  175.3910  141.5860 C   0  0  0  0  0  3  0  0  0  0  0  0
  193.0650  169.3350  141.6170 C   0  0  1  0  0  3  0  0  0  0  0  0
  186.8700  177.0200  143.0370 C   0  0  0  0  0  2  0  0  0  0  0  0
  188.1910  174.3140  138.8710 C   0  0  0  0  0  2  0  0  0  0  0  0
  188.8770  174.2850  141.3440 N   0  0  0  0  0  0  0  0  0  0  0  0
  189.0170  173.7610  140.0120 C   0  0  0  0  0  0  0  0  0  0  0  0
  190.5640  172.1320  140.8790 N   0  0  0  0  0  0  0  0  0  0  0  0
  193.5320  169.2390  143.0890 C   0  0  0  0  0  2  0  0  0  0  0  0
  188.4180  175.9680  145.2760 C   0  0  0  0  0  0  0  0  0  0  0  0
  187.8570  175.9150  142.8070 C   0  0  0  0  0  0  0  0  0  0  0  0
  192.8400  170.2590  143.8120 O   0  0  0  0  0  0  0  0  0  0  0  0
  188.9080  175.4380  146.3120 O   0  0  0  0  0  0  0  0  0  0  0  0
  187.6450  177.1750  145.3690 N   0  0  0  0  0  0  0  0  0  0  0  0
  189.9930  172.1720  138.3810 C   0  0  0  0  0  2  0  0  0  0  0  0
  189.8190  172.7040  139.7870 C   0  0  0  0  0  0  0  0  0  0  0  0
  191.4370  171.0100  140.6290 C   0  0  0  0  0  3  0  0  0  0  0  0
  189.4310  174.3110  143.7830 C   0  0  0  0  0  3  0  0  0  0  0  0
  191.2170  172.4390  144.6360 O   0  0  0  0  0  1  0  0  0  0  0  0
  192.3880  168.1660  141.2690 O   0  0  0  0  0  1  0  0  0  0  0  0
  190.4410  172.6650  142.2290 C   0  0  0  0  0  0  0  0  0  0  0  0
  192.1170  170.4770  141.6400 C   0  0  0  0  0  0  0  0  0  0  0  0
  187.2180  177.6960  146.6610 C   0  0  0  0  0  2  0  0  0  0  0  0
  185.7320  177.8060  146.7080 C   0  0  0  0  0  0  0  0  0  0  0  0
  185.1330  179.0370  146.9390 O   0  0  0  0  0  1  0  0  0  0  0  0
  185.0200  176.7900  146.5010 O   0  0  0  0  0  0  0  0  0  0  0  0
  1 20  1  0  0  0  0
  2 24  1  0  0  0  0
  3 11  1  0  0  0  0
  4  3  1  0  0  0  0
  4 21  1  0  0  0  0
  5 25  1  0  0  0  0
  6  5  2  0  0  0  0
  6 18  1  0  0  0  0
  7 16  1  0  0  0  0
  8 17  2  0  0  0  0
  9 26  1  1  0  0  0
  9 28  1  0  0  0  0
  9 15  1  0  0  0  0
 10  1  1  0  0  0  0
 11 13  1  0  0  0  0
 12  8  1  0  0  0  0
 12  2  1  0  0  0  0
 13 12  1  0  0  0  0
 14 27  1  0  0  0  0
 15 18  1  0  0  0  0
 16 20  1  0  0  0  0
 16 19  2  0  0  0  0
 17 10  1  0  0  0  0
 17  7  1  0  0  0  0
 20 29  1  0  0  0  0
 21 22  1  0  0  0  0
 22 13  2  0  0  0  0
 22 14  1  0  0  0  0
 23 14  1  0  0  0  0
 23 28  2  0  0  0  0
 24  7  2  0  0  0  0
 27  2  2  0  0  0  0
 27  5  1  0  0  0  0
 28  6  1  0  0  0  0
 29 30  1  0  0  0  0
 30 31  1  0  0  0  0
 32 30  2  0  0  0  0
M  END
>  <MODEL>
7

>  <REMARK>
 VINA RESULT:      -6.9      2.399      8.787
  Name = 
  2 active torsions:
  status: ('A' for Active; 'I' for Inactive)
    1  A    between atoms: C_1  and  C_10
    2  A    between atoms: C_10  and  N_24
                            x       y       z     vdW  Elec       q    Type
                         _______ _______ _______ _____ _____    ______ ____

>  <TORSDO>
F 2

$$$$
=
 OpenBabel11052421273D

 32 37  0  0  1  0  0  0  0  0999 V2000
  187.6200  177.7330  144.4860 C   0  0  0  0  0  2  0  0  0  0  0  0
  191.0170  173.9910  143.8370 C   0  0  0  0  0  0  0  0  0  0  0  0
  194.7500  175.6650  146.5110 O   0  0  0  0  0  0  0  0  0  0  0  0
  195.6920  174.9310  145.7710 C   0  0  0  0  0  2  0  0  0  0  0  0
  191.0120  171.6110  143.0340 C   0  0  0  0  0  0  0  0  0  0  0  0
  191.7360  170.4980  142.9410 C   0  0  0  0  0  0  0  0  0  0  0  0
  189.0510  175.4100  143.5350 C   0  0  0  0  0  0  0  0  0  0  0  0
  191.0280  176.3550  144.6240 C   0  0  0  0  0  3  0  0  0  0  0  0
  193.5820  169.0200  143.1630 C   0  0  1  0  0  3  0  0  0  0  0  0
  189.1310  177.8710  144.2980 C   0  0  0  0  0  2  0  0  0  0  0  0
  193.7810  176.1020  145.5900 C   0  0  0  0  0  2  0  0  0  0  0  0
  191.7000  175.0890  144.4820 N   0  0  0  0  0  0  0  0  0  0  0  0
  193.0410  174.9330  144.9780 C   0  0  0  0  0  0  0  0  0  0  0  0
  193.0090  172.6610  144.1780 N   0  0  0  0  0  0  0  0  0  0  0  0
  192.3780  168.3270  142.4820 C   0  0  0  0  0  2  0  0  0  0  0  0
  187.6710  175.6560  143.0840 C   0  0  0  0  0  0  0  0  0  0  0  0
  189.7750  176.5210  144.1980 C   0  0  0  0  0  0  0  0  0  0  0  0
  191.3360  169.3020  142.3880 O   0  0  0  0  0  0  0  0  0  0  0  0
  187.0610  174.8020  142.3830 O   0  0  0  0  0  0  0  0  0  0  0  0
  187.0400  176.8970  143.4360 N   0  0  0  0  0  0  0  0  0  0  0  0
  195.0840  173.5870  145.3640 C   0  0  0  0  0  2  0  0  0  0  0  0
  193.6850  173.7630  144.8140 C   0  0  0  0  0  0  0  0  0  0  0  0
  193.6990  171.4030  144.0220 C   0  0  0  0  0  3  0  0  0  0  0  0
  189.6370  174.2210  143.3640 C   0  0  0  0  0  3  0  0  0  0  0  0
  189.7140  171.6270  142.5330 O   0  0  0  0  0  1  0  0  0  0  0  0
  194.6510  169.0750  142.2690 O   0  0  0  0  0  1  0  0  0  0  0  0
  191.6460  172.8050  143.6870 C   0  0  0  0  0  0  0  0  0  0  0  0
  193.0760  170.3900  143.4270 C   0  0  0  0  0  0  0  0  0  0  0  0
  185.7840  177.3030  142.8200 C   0  0  0  0  0  2  0  0  0  0  0  0
  186.0440  178.0020  141.5290 C   0  0  0  0  0  0  0  0  0  0  0  0
  187.2940  177.9160  140.9310 O   0  0  0  0  0  0  0  0  0  0  0  0
  185.1190  178.6410  140.9630 O   0  0  0  0  0  1  0  0  0  0  0  0
  2 12  1  0  0  0  0
  4  3  1  0  0  0  0
  5 27  1  0  0  0  0
  6  5  2  0  0  0  0
  6 28  1  0  0  0  0
  7 17  1  0  0  0  0
  9 26  1  6  0  0  0
  9 28  1  0  0  0  0
 10  1  1  0  0  0  0
 11  3  1  0  0  0  0
 12  8  1  0  0  0  0
 12 13  1  0  0  0  0
 13 11  1  0  0  0  0
 14 22  1  0  0  0  0
 15  9  1  0  0  0  0
 16 20  1  0  0  0  0
 16  7  1  0  0  0  0
 17 10  1  0  0  0  0
 17  8  2  0  0  0  0
 18 15  1  0  0  0  0
 18  6  1  0  0  0  0
 19 16  2  0  0  0  0
 20  1  1  0  0  0  0
 21  4  1  0  0  0  0
 22 13  2  0  0  0  0
 22 21  1  0  0  0  0
 23 14  1  0  0  0  0
 24  7  2  0  0  0  0
 24  2  1  0  0  0  0
 25  5  1  0  0  0  0
 27  2  2  0  0  0  0
 27 14  1  0  0  0  0
 28 23  2  0  0  0  0
 29 20  1  0  0  0  0
 30 29  1  0  0  0  0
 31 30  2  0  0  0  0
 32 30  1  0  0  0  0
M  END
>  <MODEL>
8

>  <REMARK>
 VINA RESULT:      -6.8      3.381      7.600
  Name = 
  2 active torsions:
  status: ('A' for Active; 'I' for Inactive)
    1  A    between atoms: C_1  and  C_10
    2  A    between atoms: C_10  and  N_24
                            x       y       z     vdW  Elec       q    Type
                         _______ _______ _______ _____ _____    ______ ____

>  <TORSDO>
F 2

$$$$
=
 OpenBabel11052421273D

 32 37  0  0  1  0  0  0  0  0999 V2000
  188.5220  172.2910  138.2770 C   0  0  0  0  0  2  0  0  0  0  0  0
  190.7670  174.6580  142.1920 C   0  0  0  0  0  0  0  0  0  0  0  0
  186.9020  176.7380  144.3450 O   0  0  0  0  0  0  0  0  0  0  0  0
  187.6890  177.7460  144.9260 C   0  0  0  0  0  2  0  0  0  0  0  0
  192.9730  174.5650  143.3870 C   0  0  0  0  0  0  0  0  0  0  0  0
  193.6410  174.9790  144.4610 C   0  0  0  0  0  0  0  0  0  0  0  0
  190.4470  173.4800  140.0760 C   0  0  0  0  0  0  0  0  0  0  0  0
  188.5790  174.7620  141.0030 C   0  0  0  0  0  3  0  0  0  0  0  0
  194.0850  176.0870  146.5150 C   0  0  1  0  0  3  0  0  0  0  0  0
  188.1910  173.6730  138.8410 C   0  0  0  0  0  2  0  0  0  0  0  0
  187.4480  176.4990  143.0700 C   0  0  0  0  0  2  0  0  0  0  0  0
  189.4000  175.1260  142.1280 N   0  0  0  0  0  0  0  0  0  0  0  0
  188.8550  175.9520  143.1720 C   0  0  0  0  0  0  0  0  0  0  0  0
  190.9900  175.8570  144.2810 N   0  0  0  0  0  0  0  0  0  0  0  0
  195.3160  175.2910  146.0210 C   0  0  0  0  0  2  0  0  0  0  0  0
  190.9080  172.6170  138.9750 C   0  0  0  0  0  0  0  0  0  0  0  0
  189.0500  173.9750  140.0330 C   0  0  0  0  0  0  0  0  0  0  0  0
  194.9460  174.6790  144.7830 O   0  0  0  0  0  0  0  0  0  0  0  0
  192.1230  172.2900  138.8800 O   0  0  0  0  0  0  0  0  0  0  0  0
  189.9530  172.1740  137.9980 N   0  0  0  0  0  0  0  0  0  0  0  0
  189.0490  177.1670  145.3220 C   0  0  0  0  0  2  0  0  0  0  0  0
  189.6300  176.3250  144.2070 C   0  0  0  0  0  0  0  0  0  0  0  0
  191.8110  176.2450  145.4040 C   0  0  0  0  0  3  0  0  0  0  0  0
  191.2530  173.8030  141.0910 C   0  0  0  0  0  3  0  0  0  0  0  0
  193.6100  173.7470  142.4580 O   0  0  0  0  0  1  0  0  0  0  0  0
  194.3930  177.4470  146.5400 O   0  0  0  0  0  1  0  0  0  0  0  0
  191.5470  175.0080  143.2380 C   0  0  0  0  0  0  0  0  0  0  0  0
  193.0700  175.8200  145.4660 C   0  0  0  0  0  0  0  0  0  0  0  0
  190.3840  171.5330  136.7630 C   0  0  0  0  0  2  0  0  0  0  0  0
  189.9660  172.3460  135.5860 C   0  0  0  0  0  0  0  0  0  0  0  0
  190.3250  173.6840  135.5020 O   0  0  0  0  0  1  0  0  0  0  0  0
  189.3170  171.8090  134.6500 O   0  0  0  0  0  0  0  0  0  0  0  0
  1 10  1  0  0  0  0
  2 27  2  0  0  0  0
  3  4  1  0  0  0  0
  4 21  1  0  0  0  0
  5  6  2  0  0  0  0
  6 18  1  0  0  0  0
  6 28  1  0  0  0  0
  7 24  2  0  0  0  0
  8 12  1  0  0  0  0
  9 26  1  6  0  0  0
 10 17  1  0  0  0  0
 11 13  1  0  0  0  0
 11  3  1  0  0  0  0
 12  2  1  0  0  0  0
 12 13  1  0  0  0  0
 13 22  2  0  0  0  0
 14 23  1  0  0  0  0
 15  9  1  0  0  0  0
 16  7  1  0  0  0  0
 17  7  1  0  0  0  0
 17  8  2  0  0  0  0
 18 15  1  0  0  0  0
 19 16  2  0  0  0  0
 20  1  1  0  0  0  0
 20 16  1  0  0  0  0
 22 14  1  0  0  0  0
 22 21  1  0  0  0  0
 23 28  2  0  0  0  0
 24  2  1  0  0  0  0
 25  5  1  0  0  0  0
 27  5  1  0  0  0  0
 27 14  1  0  0  0  0
 28  9  1  0  0  0  0
 29 20  1  0  0  0  0
 30 29  1  0  0  0  0
 31 30  1  0  0  0  0
 32 30  2  0  0  0  0
M  END
>  <MODEL>
9

>  <REMARK>
 VINA RESULT:      -6.8      2.350      5.488
  Name = 
  2 active torsions:
  status: ('A' for Active; 'I' for Inactive)
    1  A    between atoms: C_1  and  C_10
    2  A    between atoms: C_10  and  N_24
                            x       y       z     vdW  Elec       q    Type
                         _______ _______ _______ _____ _____    ______ ____

>  <TORSDO>
F 2

$$$$
