=
 OpenBabel11052418183D

 28 30  0  0  1  0  0  0  0  0999 V2000
  189.5610  177.8260  147.4160 O   0  0  0  0  0  1  0  0  0  0  0  0
  188.3010  176.3320  144.7670 C   0  0  1  0  0  3  0  0  0  0  0  0
  189.6220  178.1780  143.9280 O   0  0  0  0  0  1  0  0  0  0  0  0
  190.7440  176.0700  146.1870 C   0  0  2  0  0  3  0  0  0  0  0  0
  189.2440  175.2170  144.2930 C   0  0  0  0  0  2  0  0  0  0  0  0
  190.0790  177.4710  146.1680 C   0  0  1  0  0  3  0  0  0  0  0  0
  189.0170  177.6580  145.0760 C   0  0  2  0  0  3  0  0  0  0  0  0
  190.6860  175.3860  144.8050 C   0  0  2  0  0  3  0  0  0  0  0  0
  191.4810  174.0730  144.7400 C   0  0  1  0  0  3  0  0  0  0  0  0
  191.4410  173.4680  143.3270 C   0  0  1  0  0  3  0  0  0  0  0  0
  192.6630  173.7590  142.4920 C   0  0  0  0  0  0  0  0  0  0  0  0
  195.0280  173.4170  143.2770 C   0  0  0  0  0  1  0  0  0  0  0  0
  193.8830  174.4060  143.1020 C   0  0  2  0  0  3  0  0  0  0  0  0
  193.6100  175.1190  144.2930 O   0  0  0  0  0  0  0  0  0  0  0  0
  192.9320  174.2740  145.1930 C   0  0  0  0  0  2  0  0  0  0  0  0
  192.6640  173.4750  141.3050 O   0  0  0  0  0  0  0  0  0  0  0  0
  191.0310  171.6860  143.3670 S   0  0  0  0  0  0  0  0  0  0  0  0
  189.5030  171.8230  142.3900 C   0  0  0  0  0  1  0  0  0  0  0  0
  187.3680  177.1010  142.5300 C   0  0  0  0  0  2  0  0  0  0  0  0
  185.9050  177.1700  144.5670 C   0  0  0  0  0  0  0  0  0  0  0  0
  184.9960  177.7650  142.3230 C   0  0  0  0  0  0  0  0  0  0  0  0
  187.0480  176.4520  143.8860 C   0  0  2  0  0  3  0  0  0  0  0  0
  184.8830  177.7500  143.7510 N   0  0  0  0  0  2  0  0  0  0  0  0
  185.5930  176.9400  146.1600 S   0  0  0  0  0  0  0  0  0  0  0  0
  183.8160  178.1260  141.4950 C   0  0  0  0  0  1  0  0  0  0  0  0
  186.1330  177.4000  141.7300 C   0  0  0  0  0  3  0  0  0  0  0  0
  190.3070  175.1630  147.3480 C   0  0  0  0  0  2  0  0  0  0  0  0
  191.2640  175.1300  148.3630 O   0  0  0  0  0  1  0  0  0  0  0  0
  2  5  1  6  0  0  0
  2  7  1  0  0  0  0
  4 27  1  1  0  0  0
  6  4  1  0  0  0  0
  6  1  1  1  0  0  0
  7  3  1  6  0  0  0
  7  6  1  0  0  0  0
  8  5  1  1  0  0  0
  8  4  1  0  0  0  0
  9  8  1  0  0  0  0
  9 15  1  6  0  0  0
 10 17  1  1  0  0  0
 10  9  1  0  0  0  0
 11 13  1  0  0  0  0
 11 10  1  0  0  0  0
 13 12  1  1  0  0  0
 13 14  1  0  0  0  0
 14 15  1  0  0  0  0
 16 11  2  0  0  0  0
 18 17  1  0  0  0  0
 20 24  2  0  0  0  0
 21 23  1  0  0  0  0
 22 19  1  6  0  0  0
 22 20  1  0  0  0  0
 22  2  1  0  0  0  0
 23 20  1  0  0  0  0
 25 21  1  0  0  0  0
 26 21  2  0  0  0  0
 26 19  1  0  0  0  0
 27 28  1  0  0  0  0
M  END
>  <MODEL>
1

>  <REMARK>
 VINA RESULT:      -6.5      0.000      0.000
  Name = 
  4 active torsions:
  status: ('A' for Active; 'I' for Inactive)
    1  A    between atoms: C_1  and  C_27
    2  A    between atoms: C_2  and  S_7
    3  A    between atoms: C_10  and  C_13
    4  A    between atoms: C_16  and  C_19
                            x       y       z     vdW  Elec       q    Type
                         _______ _______ _______ _____ _____    ______ ____

>  <TORSDO>
F 4

$$$$
=
 OpenBabel11052418183D

 28 30  0  0  1  0  0  0  0  0999 V2000
  191.7250  179.0790  143.8890 O   0  0  0  0  0  1  0  0  0  0  0  0
  189.3230  176.8490  144.1850 C   0  0  1  0  0  3  0  0  0  0  0  0
  189.0550  177.8320  141.9900 O   0  0  0  0  0  1  0  0  0  0  0  0
  191.9520  176.7670  143.1210 C   0  0  2  0  0  3  0  0  0  0  0  0
  189.8140  175.4770  143.7010 C   0  0  0  0  0  2  0  0  0  0  0  0
  191.1900  178.1140  143.0320 C   0  0  1  0  0  3  0  0  0  0  0  0
  189.6730  178.0050  143.2320 C   0  0  2  0  0  3  0  0  0  0  0  0
  191.0420  175.5680  142.7770 C   0  0  2  0  0  3  0  0  0  0  0  0
  191.7990  174.2330  142.6890 C   0  0  1  0  0  3  0  0  0  0  0  0
  190.8710  173.0470  142.9960 C   0  0  1  0  0  3  0  0  0  0  0  0
  190.3380  172.3420  141.7720 C   0  0  0  0  0  0  0  0  0  0  0  0
  191.7650  171.5710  139.8500 C   0  0  0  0  0  1  0  0  0  0  0  0
  190.8660  172.6720  140.3970 C   0  0  2  0  0  3  0  0  0  0  0  0
  191.4760  173.9460  140.3150 O   0  0  0  0  0  0  0  0  0  0  0  0
  192.4590  174.0540  141.3170 C   0  0  0  0  0  2  0  0  0  0  0  0
  189.4630  171.5010  141.8940 O   0  0  0  0  0  0  0  0  0  0  0  0
  191.6280  171.8890  144.1930 S   0  0  0  0  0  0  0  0  0  0  0  0
  192.9120  173.0380  144.7780 C   0  0  0  0  0  1  0  0  0  0  0  0
  187.0940  178.0730  144.2380 C   0  0  0  0  0  2  0  0  0  0  0  0
  187.7240  176.5750  146.1490 C   0  0  0  0  0  0  0  0  0  0  0  0
  185.4890  177.6760  146.0750 C   0  0  0  0  0  0  0  0  0  0  0  0
  187.8620  176.8120  144.6620 C   0  0  2  0  0  3  0  0  0  0  0  0
  186.5060  176.9650  146.7900 N   0  0  0  0  0  2  0  0  0  0  0  0
  188.7200  175.5360  146.9340 S   0  0  0  0  0  0  0  0  0  0  0  0
  184.1400  177.8330  146.6770 C   0  0  0  0  0  1  0  0  0  0  0  0
  185.7250  178.1460  144.8500 C   0  0  0  0  0  3  0  0  0  0  0  0
  192.7760  176.5730  144.4040 C   0  0  0  0  0  2  0  0  0  0  0  0
  194.1300  176.3930  144.1220 O   0  0  0  0  0  1  0  0  0  0  0  0
  2  5  1  6  0  0  0
  2 22  1  0  0  0  0
  4 27  1  1  0  0  0
  6  4  1  0  0  0  0
  6  7  1  0  0  0  0
  6  1  1  1  0  0  0
  7  3  1  6  0  0  0
  7  2  1  0  0  0  0
  8  4  1  0  0  0  0
  8  5  1  1  0  0  0
  9 15  1  6  0  0  0
  9  8  1  0  0  0  0
  9 10  1  0  0  0  0
 10 17  1  1  0  0  0
 11 16  2  0  0  0  0
 11 10  1  0  0  0  0
 13 12  1  1  0  0  0
 13 11  1  0  0  0  0
 14 13  1  0  0  0  0
 14 15  1  0  0  0  0
 17 18  1  0  0  0  0
 19 26  1  0  0  0  0
 20 23  1  0  0  0  0
 20 24  2  0  0  0  0
 21 25  1  0  0  0  0
 21 23  1  0  0  0  0
 22 19  1  1  0  0  0
 22 20  1  0  0  0  0
 26 21  2  0  0  0  0
 28 27  1  0  0  0  0
M  END
>  <MODEL>
2

>  <REMARK>
 VINA RESULT:      -6.2      2.411      3.373
  Name = 
  4 active torsions:
  status: ('A' for Active; 'I' for Inactive)
    1  A    between atoms: C_1  and  C_27
    2  A    between atoms: C_2  and  S_7
    3  A    between atoms: C_10  and  C_13
    4  A    between atoms: C_16  and  C_19
                            x       y       z     vdW  Elec       q    Type
                         _______ _______ _______ _____ _____    ______ ____

>  <TORSDO>
F 4

$$$$
=
 OpenBabel11052418183D

 28 30  0  0  1  0  0  0  0  0999 V2000
  193.0650  177.1670  145.0440 O   0  0  0  0  0  1  0  0  0  0  0  0
  190.1210  175.8240  144.4400 C   0  0  1  0  0  3  0  0  0  0  0  0
  190.4070  177.5750  142.7940 O   0  0  0  0  0  1  0  0  0  0  0  0
  192.7340  175.3460  143.4430 C   0  0  2  0  0  3  0  0  0  0  0  0
  190.2690  174.6470  143.4660 C   0  0  0  0  0  2  0  0  0  0  0  0
  192.3930  176.7950  143.8770 C   0  0  1  0  0  3  0  0  0  0  0  0
  190.8920  177.0850  144.0100 C   0  0  2  0  0  3  0  0  0  0  0  0
  191.5780  174.6930  142.6570 C   0  0  2  0  0  3  0  0  0  0  0  0
  191.9400  173.3220  142.0640 C   0  0  1  0  0  3  0  0  0  0  0  0
  190.6860  172.5780  141.5790 C   0  0  1  0  0  3  0  0  0  0  0  0
  190.4360  172.6830  140.0950 C   0  0  0  0  0  0  0  0  0  0  0  0
  192.1750  172.2430  138.3310 C   0  0  0  0  0  1  0  0  0  0  0  0
  191.4660  173.2940  139.1760 C   0  0  2  0  0  3  0  0  0  0  0  0
  192.3800  174.1470  139.8390 O   0  0  0  0  0  0  0  0  0  0  0  0
  192.9550  173.4570  140.9230 C   0  0  0  0  0  2  0  0  0  0  0  0
  189.3820  172.2770  139.6300 O   0  0  0  0  0  0  0  0  0  0  0  0
  190.6580  170.8460  142.1690 S   0  0  0  0  0  0  0  0  0  0  0  0
  191.7610  171.1160  143.5910 C   0  0  0  0  0  1  0  0  0  0  0  0
  188.1430  177.4210  144.3690 C   0  0  0  0  0  2  0  0  0  0  0  0
  188.4290  175.8970  146.3420 C   0  0  0  0  0  0  0  0  0  0  0  0
  186.4270  177.3700  146.1480 C   0  0  0  0  0  0  0  0  0  0  0  0
  188.6610  176.0590  144.8560 C   0  0  2  0  0  3  0  0  0  0  0  0
  187.2770  176.5150  146.9220 N   0  0  0  0  0  2  0  0  0  0  0  0
  189.1960  174.7260  147.1940 S   0  0  0  0  0  0  0  0  0  0  0  0
  185.1060  177.7810  146.6890 C   0  0  0  0  0  1  0  0  0  0  0  0
  186.7870  177.7520  144.9220 C   0  0  0  0  0  3  0  0  0  0  0  0
  193.3090  174.4560  144.5560 C   0  0  0  0  0  2  0  0  0  0  0  0
  194.6190  174.0650  144.2760 O   0  0  0  0  0  1  0  0  0  0  0  0
  2  5  1  6  0  0  0
  2 22  1  0  0  0  0
  4  6  1  0  0  0  0
  4 27  1  1  0  0  0
  6  7  1  0  0  0  0
  6  1  1  1  0  0  0
  7  3  1  6  0  0  0
  7  2  1  0  0  0  0
  8  4  1  0  0  0  0
  8  5  1  1  0  0  0
  9 15  1  6  0  0  0
  9  8  1  0  0  0  0
 10  9  1  0  0  0  0
 10 17  1  6  0  0  0
 11 10  1  0  0  0  0
 13 12  1  1  0  0  0
 13 14  1  0  0  0  0
 13 11  1  0  0  0  0
 14 15  1  0  0  0  0
 16 11  2  0  0  0  0
 17 18  1  0  0  0  0
 19 26  1  0  0  0  0
 20 23  1  0  0  0  0
 20 24  2  0  0  0  0
 21 25  1  0  0  0  0
 21 23  1  0  0  0  0
 22 19  1  1  0  0  0
 22 20  1  0  0  0  0
 26 21  2  0  0  0  0
 28 27  1  0  0  0  0
M  END
>  <MODEL>
3

>  <REMARK>
 VINA RESULT:      -6.1      2.435      3.608
  Name = 
  4 active torsions:
  status: ('A' for Active; 'I' for Inactive)
    1  A    between atoms: C_1  and  C_27
    2  A    between atoms: C_2  and  S_7
    3  A    between atoms: C_10  and  C_13
    4  A    between atoms: C_16  and  C_19
                            x       y       z     vdW  Elec       q    Type
                         _______ _______ _______ _____ _____    ______ ____

>  <TORSDO>
F 4

$$$$
=
 OpenBabel11052418183D

 28 30  0  0  1  0  0  0  0  0999 V2000
  189.3000  171.9030  144.5490 O   0  0  0  0  0  1  0  0  0  0  0  0
  189.8350  175.1250  144.1410 C   0  0  1  0  0  3  0  0  0  0  0  0
  190.2530  174.6690  146.4810 O   0  0  0  0  0  1  0  0  0  0  0  0
  191.5090  172.8360  144.0590 C   0  0  2  0  0  3  0  0  0  0  0  0
  191.2990  175.3710  143.7500 C   0  0  0  0  0  2  0  0  0  0  0  0
  190.2820  172.7860  145.0060 C   0  0  1  0  0  3  0  0  0  0  0  0
  189.6640  174.1540  145.3230 C   0  0  2  0  0  3  0  0  0  0  0  0
  192.2280  174.2000  144.1200 C   0  0  2  0  0  3  0  0  0  0  0  0
  193.5440  174.2320  143.3270 C   0  0  1  0  0  3  0  0  0  0  0  0
  194.1300  175.6530  143.2810 C   0  0  1  0  0  3  0  0  0  0  0  0
  195.2230  175.9060  144.2910 C   0  0  0  0  0  0  0  0  0  0  0  0
  197.2040  174.3970  144.6420 C   0  0  0  0  0  1  0  0  0  0  0  0
  195.8030  174.7760  145.1050 C   0  0  2  0  0  3  0  0  0  0  0  0
  194.9510  173.6500  145.1990 O   0  0  0  0  0  0  0  0  0  0  0  0
  194.5690  173.2500  143.9030 C   0  0  0  0  0  2  0  0  0  0  0  0
  195.6370  177.0420  144.4580 O   0  0  0  0  0  0  0  0  0  0  0  0
  194.6260  176.1250  141.5850 S   0  0  0  0  0  0  0  0  0  0  0  0
  193.6240  174.8630  140.7390 C   0  0  0  0  0  1  0  0  0  0  0  0
  188.4270  176.6170  145.6440 C   0  0  0  0  0  2  0  0  0  0  0  0
  187.9640  176.5600  143.1790 C   0  0  0  0  0  0  0  0  0  0  0  0
  186.7190  178.1180  144.6750 C   0  0  0  0  0  0  0  0  0  0  0  0
  189.0300  176.4300  144.2440 C   0  0  2  0  0  3  0  0  0  0  0  0
  186.8730  177.4540  143.4150 N   0  0  0  0  0  2  0  0  0  0  0  0
  188.2360  176.0510  141.6450 S   0  0  0  0  0  0  0  0  0  0  0  0
  185.7450  179.2320  144.8060 C   0  0  0  0  0  1  0  0  0  0  0  0
  187.4860  177.7840  145.7140 C   0  0  0  0  0  3  0  0  0  0  0  0
  191.2440  172.3360  142.6300 C   0  0  0  0  0  2  0  0  0  0  0  0
  191.8800  171.1180  142.3860 O   0  0  0  0  0  1  0  0  0  0  0  0
  2  5  1  1  0  0  0
  2 22  1  0  0  0  0
  2  7  1  0  0  0  0
  4 27  1  6  0  0  0
  4  8  1  0  0  0  0
  4  6  1  0  0  0  0
  6  1  1  6  0  0  0
  6  7  1  0  0  0  0
  7  3  1  1  0  0  0
  8  5  1  6  0  0  0
  9 15  1  1  0  0  0
  9  8  1  0  0  0  0
 10 17  1  6  0  0  0
 10  9  1  0  0  0  0
 10 11  1  0  0  0  0
 11 16  2  0  0  0  0
 11 13  1  0  0  0  0
 13 12  1  6  0  0  0
 13 14  1  0  0  0  0
 15 14  1  0  0  0  0
 18 17  1  0  0  0  0
 19 26  1  0  0  0  0
 20 23  1  0  0  0  0
 20 22  1  0  0  0  0
 21 25  1  0  0  0  0
 21 26  2  0  0  0  0
 22 19  1  1  0  0  0
 23 21  1  0  0  0  0
 24 20  2  0  0  0  0
 28 27  1  0  0  0  0
M  END
>  <MODEL>
4

>  <REMARK>
 VINA RESULT:      -6.1      2.484      4.060
  Name = 
  4 active torsions:
  status: ('A' for Active; 'I' for Inactive)
    1  A    between atoms: C_1  and  C_27
    2  A    between atoms: C_2  and  S_7
    3  A    between atoms: C_10  and  C_13
    4  A    between atoms: C_16  and  C_19
                            x       y       z     vdW  Elec       q    Type
                         _______ _______ _______ _____ _____    ______ ____

>  <TORSDO>
F 4

$$$$
=
 OpenBabel11052418183D

 28 30  0  0  1  0  0  0  0  0999 V2000
  189.3140  172.2710  141.5440 O   0  0  0  0  0  1  0  0  0  0  0  0
  190.0340  174.6820  143.6650 C   0  0  1  0  0  3  0  0  0  0  0  0
  189.6840  172.6970  145.0040 O   0  0  0  0  0  1  0  0  0  0  0  0
  191.5890  172.7230  142.3250 C   0  0  2  0  0  3  0  0  0  0  0  0
  191.5530  174.7640  143.8740 C   0  0  0  0  0  2  0  0  0  0  0  0
  190.1250  172.3510  142.6780 C   0  0  1  0  0  3  0  0  0  0  0  0
  189.4760  173.2500  143.7370 C   0  0  2  0  0  3  0  0  0  0  0  0
  192.2880  173.4690  143.4810 C   0  0  2  0  0  3  0  0  0  0  0  0
  193.7870  173.7060  143.2370 C   0  0  1  0  0  3  0  0  0  0  0  0
  194.3110  174.8720  144.0900 C   0  0  1  0  0  3  0  0  0  0  0  0
  195.0140  174.4490  145.3570 C   0  0  0  0  0  0  0  0  0  0  0  0
  196.8250  172.7070  145.4560 C   0  0  0  0  0  1  0  0  0  0  0  0
  195.3390  172.9980  145.6150 C   0  0  2  0  0  3  0  0  0  0  0  0
  194.5380  172.0980  144.8730 O   0  0  0  0  0  0  0  0  0  0  0  0
  194.6040  172.4370  143.5080 C   0  0  0  0  0  2  0  0  0  0  0  0
  195.3170  175.2900  146.1880 O   0  0  0  0  0  0  0  0  0  0  0  0
  195.3080  176.0400  143.0970 S   0  0  0  0  0  0  0  0  0  0  0  0
  194.2070  176.0410  141.6480 C   0  0  0  0  0  1  0  0  0  0  0  0
  189.1290  175.2900  145.9630 C   0  0  0  0  0  2  0  0  0  0  0  0
  187.9260  176.0900  143.9120 C   0  0  0  0  0  0  0  0  0  0  0  0
  187.1730  176.7840  146.1840 C   0  0  0  0  0  0  0  0  0  0  0  0
  189.2730  175.7260  144.4970 C   0  0  2  0  0  3  0  0  0  0  0  0
  186.9420  176.6660  144.7760 N   0  0  0  0  0  2  0  0  0  0  0  0
  187.7210  176.2330  142.2920 S   0  0  0  0  0  0  0  0  0  0  0  0
  186.2640  177.6180  147.0120 C   0  0  0  0  0  1  0  0  0  0  0  0
  188.2310  176.2000  146.7490 C   0  0  0  0  0  3  0  0  0  0  0  0
  191.7740  173.3900  140.9530 C   0  0  0  0  0  2  0  0  0  0  0  0
  192.5290  172.5930  140.0920 O   0  0  0  0  0  1  0  0  0  0  0  0
  2  7  1  0  0  0  0
  2  5  1  1  0  0  0
  2 22  1  0  0  0  0
  4 27  1  6  0  0  0
  4  6  1  0  0  0  0
  4  8  1  0  0  0  0
  6  1  1  6  0  0  0
  6  7  1  0  0  0  0
  7  3  1  1  0  0  0
  8  5  1  6  0  0  0
  9  8  1  0  0  0  0
  9 15  1  1  0  0  0
  9 10  1  0  0  0  0
 10 17  1  6  0  0  0
 10 11  1  0  0  0  0
 11 13  1  0  0  0  0
 11 16  2  0  0  0  0
 13 12  1  6  0  0  0
 14 13  1  0  0  0  0
 15 14  1  0  0  0  0
 18 17  1  0  0  0  0
 19 26  1  0  0  0  0
 20 22  1  0  0  0  0
 20 23  1  0  0  0  0
 21 26  2  0  0  0  0
 21 25  1  0  0  0  0
 22 19  1  1  0  0  0
 23 21  1  0  0  0  0
 24 20  2  0  0  0  0
 28 27  1  0  0  0  0
M  END
>  <MODEL>
5

>  <REMARK>
 VINA RESULT:      -5.9      2.919      4.833
  Name = 
  4 active torsions:
  status: ('A' for Active; 'I' for Inactive)
    1  A    between atoms: C_1  and  C_27
    2  A    between atoms: C_2  and  S_7
    3  A    between atoms: C_10  and  C_13
    4  A    between atoms: C_16  and  C_19
                            x       y       z     vdW  Elec       q    Type
                         _______ _______ _______ _____ _____    ______ ____

>  <TORSDO>
F 4

$$$$
=
 OpenBabel11052418183D

 28 30  0  0  1  0  0  0  0  0999 V2000
  192.4870  176.3430  145.9550 O   0  0  0  0  0  1  0  0  0  0  0  0
  189.8330  175.9280  144.0520 C   0  0  1  0  0  3  0  0  0  0  0  0
  191.1390  177.6760  143.0060 O   0  0  0  0  0  1  0  0  0  0  0  0
  192.4540  174.8400  144.0230 C   0  0  2  0  0  3  0  0  0  0  0  0
  190.1070  174.8510  142.9920 C   0  0  0  0  0  2  0  0  0  0  0  0
  192.2870  176.2800  144.5740 C   0  0  1  0  0  3  0  0  0  0  0  0
  190.9650  176.9600  144.1930 C   0  0  2  0  0  3  0  0  0  0  0  0
  191.6080  174.6080  142.7530 C   0  0  2  0  0  3  0  0  0  0  0  0
  191.8750  173.2510  142.0820 C   0  0  1  0  0  3  0  0  0  0  0  0
  190.5690  172.6120  141.5830 C   0  0  1  0  0  3  0  0  0  0  0  0
  190.3020  172.8130  140.1110 C   0  0  0  0  0  0  0  0  0  0  0  0
  191.9820  172.3620  138.2940 C   0  0  0  0  0  1  0  0  0  0  0  0
  191.3540  173.4070  139.2060 C   0  0  2  0  0  3  0  0  0  0  0  0
  192.3300  174.1660  139.8950 O   0  0  0  0  0  0  0  0  0  0  0  0
  192.8780  173.3840  140.9300 C   0  0  0  0  0  2  0  0  0  0  0  0
  189.2180  172.4980  139.6470 O   0  0  0  0  0  0  0  0  0  0  0  0
  190.4430  170.8570  142.0820 S   0  0  0  0  0  0  0  0  0  0  0  0
  191.9590  170.8390  143.0880 C   0  0  0  0  0  1  0  0  0  0  0  0
  188.3320  177.5650  142.8130 C   0  0  0  0  0  2  0  0  0  0  0  0
  187.8950  177.0810  145.2360 C   0  0  0  0  0  0  0  0  0  0  0  0
  186.3650  178.5560  143.9330 C   0  0  0  0  0  0  0  0  0  0  0  0
  188.4190  176.5180  143.9340 C   0  0  2  0  0  3  0  0  0  0  0  0
  186.8370  178.0420  145.1840 N   0  0  0  0  0  2  0  0  0  0  0  0
  188.2000  176.3330  146.6620 S   0  0  0  0  0  0  0  0  0  0  0  0
  185.1030  179.3390  143.8890 C   0  0  0  0  0  1  0  0  0  0  0  0
  187.0170  178.2880  142.8020 C   0  0  0  0  0  3  0  0  0  0  0  0
  192.3150  173.7270  145.0730 C   0  0  0  0  0  2  0  0  0  0  0  0
  193.5510  173.1620  145.3900 O   0  0  0  0  0  1  0  0  0  0  0  0
  2  5  1  6  0  0  0
  2  7  1  0  0  0  0
  4  6  1  0  0  0  0
  4 27  1  1  0  0  0
  6  1  1  1  0  0  0
  7  3  1  6  0  0  0
  7  6  1  0  0  0  0
  8  5  1  1  0  0  0
  8  4  1  0  0  0  0
  9 15  1  6  0  0  0
  9  8  1  0  0  0  0
 10 17  1  6  0  0  0
 10  9  1  0  0  0  0
 11 10  1  0  0  0  0
 13 12  1  1  0  0  0
 13 14  1  0  0  0  0
 13 11  1  0  0  0  0
 14 15  1  0  0  0  0
 16 11  2  0  0  0  0
 17 18  1  0  0  0  0
 20 24  2  0  0  0  0
 21 23  1  0  0  0  0
 22 19  1  6  0  0  0
 22  2  1  0  0  0  0
 22 20  1  0  0  0  0
 23 20  1  0  0  0  0
 25 21  1  0  0  0  0
 26 19  1  0  0  0  0
 26 21  2  0  0  0  0
 27 28  1  0  0  0  0
M  END
>  <MODEL>
6

>  <REMARK>
 VINA RESULT:      -5.8      2.130      3.084
  Name = 
  4 active torsions:
  status: ('A' for Active; 'I' for Inactive)
    1  A    between atoms: C_1  and  C_27
    2  A    between atoms: C_2  and  S_7
    3  A    between atoms: C_10  and  C_13
    4  A    between atoms: C_16  and  C_19
                            x       y       z     vdW  Elec       q    Type
                         _______ _______ _______ _____ _____    ______ ____

>  <TORSDO>
F 4

$$$$
=
 OpenBabel11052418183D

 28 30  0  0  1  0  0  0  0  0999 V2000
  192.3640  173.3910  144.9440 O   0  0  0  0  0  1  0  0  0  0  0  0
  190.6580  173.7560  142.1530 C   0  0  1  0  0  3  0  0  0  0  0  0
  189.3760  172.2300  143.5260 O   0  0  0  0  0  1  0  0  0  0  0  0
  190.5940  175.0590  144.6720 C   0  0  2  0  0  3  0  0  0  0  0  0
  189.6970  174.9470  142.2750 C   0  0  0  0  0  2  0  0  0  0  0  0
  191.0090  173.5650  144.6550 C   0  0  1  0  0  3  0  0  0  0  0  0
  190.6360  172.8140  143.3700 C   0  0  2  0  0  3  0  0  0  0  0  0
  189.4010  175.3370  143.7340 C   0  0  2  0  0  3  0  0  0  0  0  0
  188.8530  176.7680  143.8510 C   0  0  1  0  0  3  0  0  0  0  0  0
  187.5230  176.9170  143.0940 C   0  0  1  0  0  3  0  0  0  0  0  0
  186.2970  176.8270  143.9700 C   0  0  0  0  0  0  0  0  0  0  0  0
  185.9810  178.1250  146.1010 C   0  0  0  0  0  1  0  0  0  0  0  0
  186.4190  176.8080  145.4740 C   0  0  2  0  0  3  0  0  0  0  0  0
  187.6920  176.3980  145.9340 O   0  0  0  0  0  0  0  0  0  0  0  0
  188.6830  177.1850  145.3160 C   0  0  0  0  0  2  0  0  0  0  0  0
  185.1920  176.7600  143.4550 O   0  0  0  0  0  0  0  0  0  0  0  0
  187.5130  178.4060  142.0320 S   0  0  0  0  0  0  0  0  0  0  0  0
  187.0480  177.5400  140.5000 C   0  0  0  0  0  1  0  0  0  0  0  0
  189.1000  172.7860  140.3920 C   0  0  0  0  0  2  0  0  0  0  0  0
  191.3870  171.7990  140.6940 C   0  0  0  0  0  0  0  0  0  0  0  0
  189.8780  170.9910  138.8820 C   0  0  0  0  0  0  0  0  0  0  0  0
  190.5590  173.0620  140.7850 C   0  0  2  0  0  3  0  0  0  0  0  0
  191.0460  170.8330  139.6960 N   0  0  0  0  0  2  0  0  0  0  0  0
  192.8650  171.7070  141.3960 S   0  0  0  0  0  0  0  0  0  0  0  0
  189.6920  170.1280  137.6870 C   0  0  0  0  0  1  0  0  0  0  0  0
  188.9870  171.9450  139.1540 C   0  0  0  0  0  3  0  0  0  0  0  0
  191.7550  176.0540  144.5120 C   0  0  0  0  0  2  0  0  0  0  0  0
  192.1200  176.6190  145.7340 O   0  0  0  0  0  1  0  0  0  0  0  0
  2  5  1  1  0  0  0
  2  7  1  0  0  0  0
  4 27  1  6  0  0  0
  6  4  1  0  0  0  0
  6  1  1  6  0  0  0
  7  3  1  1  0  0  0
  7  6  1  0  0  0  0
  8  5  1  6  0  0  0
  8  9  1  0  0  0  0
  8  4  1  0  0  0  0
  9 15  1  1  0  0  0
 10 17  1  1  0  0  0
 10  9  1  0  0  0  0
 10 11  1  0  0  0  0
 11 13  1  0  0  0  0
 13 14  1  0  0  0  0
 13 12  1  6  0  0  0
 15 14  1  0  0  0  0
 16 11  2  0  0  0  0
 18 17  1  0  0  0  0
 20 22  1  0  0  0  0
 20 24  2  0  0  0  0
 21 26  2  0  0  0  0
 21 23  1  0  0  0  0
 22 19  1  1  0  0  0
 22  2  1  0  0  0  0
 23 20  1  0  0  0  0
 25 21  1  0  0  0  0
 26 19  1  0  0  0  0
 27 28  1  0  0  0  0
M  END
>  <MODEL>
7

>  <REMARK>
 VINA RESULT:      -5.7      3.141      6.700
  Name = 
  4 active torsions:
  status: ('A' for Active; 'I' for Inactive)
    1  A    between atoms: C_1  and  C_27
    2  A    between atoms: C_2  and  S_7
    3  A    between atoms: C_10  and  C_13
    4  A    between atoms: C_16  and  C_19
                            x       y       z     vdW  Elec       q    Type
                         _______ _______ _______ _____ _____    ______ ____

>  <TORSDO>
F 4

$$$$
=
 OpenBabel11052418183D

 28 30  0  0  1  0  0  0  0  0999 V2000
  191.2640  175.9420  146.5330 O   0  0  0  0  0  1  0  0  0  0  0  0
  190.6410  176.0730  143.3030 C   0  0  1  0  0  3  0  0  0  0  0  0
  191.5940  178.2200  143.8880 O   0  0  0  0  0  1  0  0  0  0  0  0
  192.9250  175.3660  144.8300 C   0  0  2  0  0  3  0  0  0  0  0  0
  191.8520  175.5580  142.5110 C   0  0  0  0  0  2  0  0  0  0  0  0
  191.9700  176.4300  145.4310 C   0  0  1  0  0  3  0  0  0  0  0  0
  191.0080  177.0670  144.4190 C   0  0  2  0  0  3  0  0  0  0  0  0
  193.1600  175.5890  143.3210 C   0  0  2  0  0  3  0  0  0  0  0  0
  194.2310  174.6610  142.7270 C   0  0  1  0  0  3  0  0  0  0  0  0
  193.9960  174.4320  141.2250 C   0  0  1  0  0  3  0  0  0  0  0  0
  194.8450  175.2940  140.3240 C   0  0  0  0  0  0  0  0  0  0  0  0
  197.3350  175.5610  140.5580 C   0  0  0  0  0  1  0  0  0  0  0  0
  195.9640  176.1370  140.8880 C   0  0  2  0  0  3  0  0  0  0  0  0
  195.8230  176.4160  142.2670 O   0  0  0  0  0  0  0  0  0  0  0  0
  195.6430  175.2070  142.9680 C   0  0  0  0  0  2  0  0  0  0  0  0
  194.6200  175.3190  139.1250 O   0  0  0  0  0  0  0  0  0  0  0  0
  194.0950  172.6580  140.7880 S   0  0  0  0  0  0  0  0  0  0  0  0
  192.9270  172.0870  142.0610 C   0  0  0  0  0  1  0  0  0  0  0  0
  188.9810  177.9180  142.7460 C   0  0  0  0  0  2  0  0  0  0  0  0
  188.3440  175.5240  142.3510 C   0  0  0  0  0  0  0  0  0  0  0  0
  186.8180  177.3770  141.6800 C   0  0  0  0  0  0  0  0  0  0  0  0
  189.4880  176.5120  142.3880 C   0  0  2  0  0  3  0  0  0  0  0  0
  187.0560  175.9880  141.9350 N   0  0  0  0  0  2  0  0  0  0  0  0
  188.6240  173.9080  142.3610 S   0  0  0  0  0  0  0  0  0  0  0  0
  185.5650  177.7960  141.0000 C   0  0  0  0  0  1  0  0  0  0  0  0
  187.7370  178.2910  141.9930 C   0  0  0  0  0  3  0  0  0  0  0  0
  192.5880  173.9130  145.1980 C   0  0  0  0  0  2  0  0  0  0  0  0
  193.6830  173.2580  145.7630 O   0  0  0  0  0  1  0  0  0  0  0  0
  2  5  1  6  0  0  0
  2  7  1  0  0  0  0
  4 27  1  6  0  0  0
  4  6  1  0  0  0  0
  6  1  1  1  0  0  0
  7  3  1  6  0  0  0
  7  6  1  0  0  0  0
  8  5  1  6  0  0  0
  8  4  1  0  0  0  0
  9 15  1  6  0  0  0
  9  8  1  0  0  0  0
 10 17  1  6  0  0  0
 10  9  1  0  0  0  0
 11 13  1  0  0  0  0
 11 10  1  0  0  0  0
 13 12  1  1  0  0  0
 13 14  1  0  0  0  0
 14 15  1  0  0  0  0
 16 11  2  0  0  0  0
 17 18  1  0  0  0  0
 20 24  2  0  0  0  0
 20 22  1  0  0  0  0
 21 23  1  0  0  0  0
 21 26  2  0  0  0  0
 22 19  1  1  0  0  0
 22  2  1  0  0  0  0
 23 20  1  0  0  0  0
 25 21  1  0  0  0  0
 26 19  1  0  0  0  0
 27 28  1  0  0  0  0
M  END
>  <MODEL>
8

>  <REMARK>
 VINA RESULT:      -5.6      2.435      3.226
  Name = 
  4 active torsions:
  status: ('A' for Active; 'I' for Inactive)
    1  A    between atoms: C_1  and  C_27
    2  A    between atoms: C_2  and  S_7
    3  A    between atoms: C_10  and  C_13
    4  A    between atoms: C_16  and  C_19
                            x       y       z     vdW  Elec       q    Type
                         _______ _______ _______ _____ _____    ______ ____

>  <TORSDO>
F 4

$$$$
=
 OpenBabel11052418183D

 28 30  0  0  1  0  0  0  0  0999 V2000
  190.9640  177.0600  146.3720 O   0  0  0  0  0  1  0  0  0  0  0  0
  189.2280  176.0960  143.7460 C   0  0  1  0  0  3  0  0  0  0  0  0
  190.3090  178.1660  143.1100 O   0  0  0  0  0  1  0  0  0  0  0  0
  191.9130  175.6990  144.5740 C   0  0  2  0  0  3  0  0  0  0  0  0
  190.0810  175.1780  142.8590 C   0  0  0  0  0  2  0  0  0  0  0  0
  191.2260  177.0210  145.0000 C   0  0  1  0  0  3  0  0  0  0  0  0
  189.9610  177.3690  144.2050 C   0  0  2  0  0  3  0  0  0  0  0  0
  191.5920  175.3290  143.1100 C   0  0  2  0  0  3  0  0  0  0  0  0
  192.3880  174.1180  142.5980 C   0  0  1  0  0  3  0  0  0  0  0  0
  191.8770  173.6590  141.2220 C   0  0  1  0  0  3  0  0  0  0  0  0
  192.6950  174.1580  140.0570 C   0  0  0  0  0  0  0  0  0  0  0  0
  195.2000  173.9840  139.9100 C   0  0  0  0  0  1  0  0  0  0  0  0
  194.0120  174.8620  140.2800 C   0  0  2  0  0  3  0  0  0  0  0  0
  194.1450  175.4180  141.5740 O   0  0  0  0  0  0  0  0  0  0  0  0
  193.8890  174.4210  142.5350 C   0  0  0  0  0  2  0  0  0  0  0  0
  192.2850  173.9980  138.9190 O   0  0  0  0  0  0  0  0  0  0  0  0
  191.6170  171.8500  141.1680 S   0  0  0  0  0  0  0  0  0  0  0  0
  189.8860  171.9260  140.6130 C   0  0  0  0  0  1  0  0  0  0  0  0
  187.8690  177.0090  141.8000 C   0  0  0  0  0  2  0  0  0  0  0  0
  186.9030  177.0680  144.1150 C   0  0  0  0  0  0  0  0  0  0  0  0
  185.5560  177.8050  142.1510 C   0  0  0  0  0  0  0  0  0  0  0  0
  187.8200  176.3210  143.1730 C   0  0  2  0  0  3  0  0  0  0  0  0
  185.7630  177.7360  143.5670 N   0  0  0  0  0  2  0  0  0  0  0  0
  186.9400  176.7860  145.7290 S   0  0  0  0  0  0  0  0  0  0  0  0
  184.2460  178.2630  141.6210 C   0  0  0  0  0  1  0  0  0  0  0  0
  186.5080  177.4070  141.3070 C   0  0  0  0  0  3  0  0  0  0  0  0
  191.7410  174.5330  145.5610 C   0  0  0  0  0  2  0  0  0  0  0  0
  192.9460  174.2030  146.1810 O   0  0  0  0  0  1  0  0  0  0  0  0
  2  5  1  6  0  0  0
  2  7  1  0  0  0  0
  4  6  1  0  0  0  0
  4 27  1  1  0  0  0
  6  1  1  1  0  0  0
  7  3  1  6  0  0  0
  7  6  1  0  0  0  0
  8  5  1  1  0  0  0
  8  4  1  0  0  0  0
  9 15  1  6  0  0  0
  9  8  1  0  0  0  0
 10 17  1  1  0  0  0
 10  9  1  0  0  0  0
 11 13  1  0  0  0  0
 11 10  1  0  0  0  0
 13 12  1  1  0  0  0
 13 14  1  0  0  0  0
 14 15  1  0  0  0  0
 16 11  2  0  0  0  0
 18 17  1  0  0  0  0
 20 24  2  0  0  0  0
 21 23  1  0  0  0  0
 22 19  1  6  0  0  0
 22  2  1  0  0  0  0
 22 20  1  0  0  0  0
 23 20  1  0  0  0  0
 25 21  1  0  0  0  0
 26 19  1  0  0  0  0
 26 21  2  0  0  0  0
 27 28  1  0  0  0  0
M  END
>  <MODEL>
9

>  <REMARK>
 VINA RESULT:      -5.5      1.681      1.976
  Name = 
  4 active torsions:
  status: ('A' for Active; 'I' for Inactive)
    1  A    between atoms: C_1  and  C_27
    2  A    between atoms: C_2  and  S_7
    3  A    between atoms: C_10  and  C_13
    4  A    between atoms: C_16  and  C_19
                            x       y       z     vdW  Elec       q    Type
                         _______ _______ _______ _____ _____    ______ ____

>  <TORSDO>
F 4

$$$$
