=
 OpenBabel11052421253D

 32 37  0  0  1  0  0  0  0  0999 V2000
  192.3070  175.2910  147.2630 C   0  0  0  0  0  2  0  0  0  0  0  0
  188.4400  177.1790  144.5300 C   0  0  2  0  0  3  0  0  0  0  0  0
  184.8160  178.1930  147.8660 C   0  0  0  0  0  2  0  0  0  0  0  0
  183.9250  177.9700  146.6410 C   0  0  0  0  0  2  0  0  0  0  0  0
  187.2830  177.6280  142.2950 C   0  0  0  0  0  0  0  0  0  0  0  0
  187.8500  176.6180  141.5000 C   0  0  0  0  0  0  0  0  0  0  0  0
  190.6910  176.3360  145.1690 C   0  0  2  0  0  3  0  0  0  0  0  0
  188.8160  176.6240  146.8530 O   0  0  0  0  0  0  0  0  0  0  0  0
  185.6780  178.1600  140.5740 C   0  0  0  0  0  0  0  0  0  0  0  0
  190.8940  175.7280  147.5540 C   0  0  0  0  0  3  0  0  0  0  0  0
  186.2360  177.6340  147.6610 C   0  0  0  0  0  2  0  0  0  0  0  0
  188.1460  177.5340  145.9830 C   0  0  2  0  0  3  0  0  0  0  0  0
  186.6400  177.5520  146.1820 C   0  0  2  0  0  3  0  0  0  0  0  0
  186.7270  179.0650  144.0560 C   0  0  2  0  0  3  0  0  0  0  0  0
  186.2370  177.1660  139.7580 C   0  0  0  0  0  3  0  0  0  0  0  0
  190.1310  176.2280  146.5800 C   0  0  0  0  0  0  0  0  0  0  0  0
  187.3180  176.3960  140.2210 C   0  0  0  0  0  3  0  0  0  0  0  0
  192.1630  176.6380  145.2000 C   0  0  0  0  0  3  0  0  0  0  0  0
  192.9310  176.1460  146.1780 C   0  0  0  0  0  0  0  0  0  0  0  0
  184.4960  178.6570  145.3900 C   0  0  0  0  0  2  0  0  0  0  0  0
  186.0330  178.7320  145.4050 C   0  0  1  0  0  3  0  0  0  0  0  0
  185.7610  179.3290  142.8780 C   0  0  0  0  0  2  0  0  0  0  0  0
  189.9380  177.3580  144.3150 C   0  0  0  0  0  2  0  0  0  0  0  0
  188.9110  175.8450  141.9490 O   0  0  0  0  0  1  0  0  0  0  0  0
  184.6260  178.8940  140.1370 F   0  0  0  0  0  0  0  0  0  0  0  0
  187.6480  178.0050  143.6150 N   0  0  0  0  0  0  0  0  0  0  0  0
  186.2230  178.3690  141.8410 C   0  0  0  0  0  0  0  0  0  0  0  0
  194.3010  176.4220  146.1670 O   0  0  0  0  0  0  0  0  0  0  0  0
  195.0340  176.6400  144.9670 C   0  0  0  0  0  2  0  0  0  0  0  0
  195.7440  175.3660  144.5380 C   0  0  2  0  0  3  0  0  0  0  0  0
  194.9220  174.6320  143.6840 O   0  0  0  0  0  1  0  0  0  0  0  0
  196.0670  174.5350  145.7610 C   0  0  0  0  0  1  0  0  0  0  0  0
  1 10  1  0  0  0  0
  2 23  1  6  0  0  0
  2 12  1  0  0  0  0
  4  3  1  0  0  0  0
  5 26  1  0  0  0  0
  6 24  1  0  0  0  0
  6  5  2  0  0  0  0
  7 23  1  6  0  0  0
  7 18  1  0  0  0  0
  7 16  1  0  0  0  0
  9 27  2  0  0  0  0
 11  3  1  0  0  0  0
 12 13  1  0  0  0  0
 12  8  1  1  0  0  0
 13 11  1  1  0  0  0
 14 22  1  6  0  0  0
 14 21  1  0  0  0  0
 15 17  2  0  0  0  0
 15  9  1  0  0  0  0
 16  8  1  0  0  0  0
 16 10  2  0  0  0  0
 17  6  1  0  0  0  0
 18 19  2  0  0  0  0
 19  1  1  0  0  0  0
 20  4  1  0  0  0  0
 21 20  1  6  0  0  0
 21 13  1  0  0  0  0
 25  9  1  0  0  0  0
 26 14  1  0  0  0  0
 26  2  1  0  0  0  0
 27  5  1  0  0  0  0
 27 22  1  0  0  0  0
 28 19  1  0  0  0  0
 29 28  1  0  0  0  0
 30 29  1  0  0  0  0
 30 32  1  1  0  0  0
 31 30  1  0  0  0  0
M  END
>  <MODEL>
1

>  <REMARK>
 VINA RESULT:      -9.3      0.000      0.000
  Name = 
  3 active torsions:
  status: ('A' for Active; 'I' for Inactive)
    1  A    between atoms: C_1  and  C_10
    2  A    between atoms: C_10  and  O_19
    3  A    between atoms: O_19  and  C_24
                            x       y       z     vdW  Elec       q    Type
                         _______ _______ _______ _____ _____    ______ ____

>  <TORSDO>
F 3

$$$$
=
 OpenBabel11052421253D

 32 37  0  0  1  0  0  0  0  0999 V2000
  186.2410  177.5930  138.9330 C   0  0  0  0  0  2  0  0  0  0  0  0
  187.9910  176.8020  143.6550 C   0  0  2  0  0  3  0  0  0  0  0  0
  184.3670  178.4650  146.7190 C   0  0  0  0  0  2  0  0  0  0  0  0
  185.5570  178.6680  147.6620 C   0  0  0  0  0  2  0  0  0  0  0  0
  189.8830  176.2420  145.2810 C   0  0  0  0  0  0  0  0  0  0  0  0
  191.0010  176.6280  144.5230 C   0  0  0  0  0  0  0  0  0  0  0  0
  187.7750  176.7600  141.1780 C   0  0  2  0  0  3  0  0  0  0  0  0
  186.0220  177.8100  142.6790 O   0  0  0  0  0  0  0  0  0  0  0  0
  191.2470  175.9530  147.2500 C   0  0  0  0  0  0  0  0  0  0  0  0
  185.7590  177.9050  140.3270 C   0  0  0  0  0  3  0  0  0  0  0  0
  184.8100  178.2810  145.2570 C   0  0  0  0  0  2  0  0  0  0  0  0
  186.4940  177.0560  143.7940 C   0  0  2  0  0  3  0  0  0  0  0  0
  186.2410  177.7380  145.1280 C   0  0  2  0  0  3  0  0  0  0  0  0
  187.7120  175.7730  146.0170 C   0  0  2  0  0  3  0  0  0  0  0  0
  192.3780  176.3240  146.5090 C   0  0  0  0  0  3  0  0  0  0  0  0
  186.4670  177.5100  141.3870 C   0  0  0  0  0  0  0  0  0  0  0  0
  192.2550  176.6620  145.1510 C   0  0  0  0  0  3  0  0  0  0  0  0
  187.7010  175.8870  139.9560 C   0  0  0  0  0  3  0  0  0  0  0  0
  186.9860  176.2740  138.8950 C   0  0  0  0  0  0  0  0  0  0  0  0
  186.5140  177.4660  147.6370 C   0  0  0  0  0  2  0  0  0  0  0  0
  186.5350  176.7550  146.2720 C   0  0  1  0  0  3  0  0  0  0  0  0
  188.6850  175.6060  147.2070 C   0  0  0  0  0  2  0  0  0  0  0  0
  188.1910  175.9500  142.4080 C   0  0  0  0  0  2  0  0  0  0  0  0
  190.8910  176.9740  143.1830 O   0  0  0  0  0  1  0  0  0  0  0  0
  191.3590  175.6400  148.5640 F   0  0  0  0  0  0  0  0  0  0  0  0
  188.5300  176.1580  144.8550 N   0  0  0  0  0  0  0  0  0  0  0  0
  190.0080  175.9210  146.6070 C   0  0  0  0  0  0  0  0  0  0  0  0
  186.9560  175.4550  137.7620 O   0  0  0  0  0  0  0  0  0  0  0  0
  186.4420  175.8900  136.5090 C   0  0  0  0  0  2  0  0  0  0  0  0
  187.5610  176.0100  135.4880 C   0  0  2  0  0  3  0  0  0  0  0  0
  188.6690  175.2780  135.9130 O   0  0  0  0  0  1  0  0  0  0  0  0
  187.9490  177.4650  135.3380 C   0  0  0  0  0  1  0  0  0  0  0  0
  1 10  1  0  0  0  0
  2 23  1  6  0  0  0
  2 12  1  0  0  0  0
  2 26  1  0  0  0  0
  3  4  1  0  0  0  0
  5 27  1  0  0  0  0
  6 17  1  0  0  0  0
  6  5  2  0  0  0  0
  7 18  1  6  0  0  0
  7 16  1  0  0  0  0
  7 23  1  0  0  0  0
  9 25  1  0  0  0  0
 10 16  2  0  0  0  0
 11  3  1  0  0  0  0
 12  8  1  6  0  0  0
 12 13  1  0  0  0  0
 13 11  1  6  0  0  0
 13 21  1  0  0  0  0
 14 21  1  0  0  0  0
 14 22  1  1  0  0  0
 15  9  1  0  0  0  0
 16  8  1  0  0  0  0
 17 15  2  0  0  0  0
 19  1  1  0  0  0  0
 19 18  2  0  0  0  0
 20  4  1  0  0  0  0
 21 20  1  1  0  0  0
 24  6  1  0  0  0  0
 26  5  1  0  0  0  0
 26 14  1  0  0  0  0
 27 22  1  0  0  0  0
 27  9  2  0  0  0  0
 28 19  1  0  0  0  0
 29 28  1  0  0  0  0
 30 32  1  1  0  0  0
 30 31  1  0  0  0  0
 30 29  1  0  0  0  0
M  END
>  <MODEL>
2

>  <REMARK>
 VINA RESULT:      -8.2      3.002      7.215
  Name = 
  3 active torsions:
  status: ('A' for Active; 'I' for Inactive)
    1  A    between atoms: C_1  and  C_10
    2  A    between atoms: C_10  and  O_19
    3  A    between atoms: O_19  and  C_24
                            x       y       z     vdW  Elec       q    Type
                         _______ _______ _______ _____ _____    ______ ____

>  <TORSDO>
F 3

$$$$
=
 OpenBabel11052421253D

 32 37  0  0  1  0  0  0  0  0999 V2000
  193.1000  174.7700  145.2160 C   0  0  0  0  0  2  0  0  0  0  0  0
  188.7060  176.8290  143.6570 C   0  0  2  0  0  3  0  0  0  0  0  0
  185.8420  177.1490  147.7780 C   0  0  0  0  0  2  0  0  0  0  0  0
  184.7190  177.0600  146.7410 C   0  0  0  0  0  2  0  0  0  0  0  0
  187.0950  177.5390  141.8020 C   0  0  0  0  0  0  0  0  0  0  0  0
  187.5040  176.6890  140.7620 C   0  0  0  0  0  0  0  0  0  0  0  0
  191.0580  176.0230  143.6850 C   0  0  2  0  0  3  0  0  0  0  0  0
  189.5730  175.9600  145.7390 O   0  0  0  0  0  0  0  0  0  0  0  0
  185.1540  178.2320  140.5480 C   0  0  0  0  0  0  0  0  0  0  0  0
  191.7710  175.0830  145.8540 C   0  0  0  0  0  3  0  0  0  0  0  0
  187.1990  176.7020  147.2040 C   0  0  0  0  0  2  0  0  0  0  0  0
  188.7160  176.9520  145.1760 C   0  0  2  0  0  3  0  0  0  0  0  0
  187.2850  176.8600  145.6790 C   0  0  2  0  0  3  0  0  0  0  0  0
  186.8910  178.6710  143.8400 C   0  0  2  0  0  3  0  0  0  0  0  0
  185.5500  177.3990  139.4920 C   0  0  0  0  0  3  0  0  0  0  0  0
  190.8100  175.6790  145.1460 C   0  0  0  0  0  0  0  0  0  0  0  0
  186.7210  176.6290  139.6000 C   0  0  0  0  0  3  0  0  0  0  0  0
  192.4970  176.3950  143.4600 C   0  0  0  0  0  3  0  0  0  0  0  0
  193.4630  175.8070  144.1730 C   0  0  0  0  0  0  0  0  0  0  0  0
  184.9990  177.9530  145.5220 C   0  0  0  0  0  2  0  0  0  0  0  0
  186.5030  178.1070  145.2350 C   0  0  1  0  0  3  0  0  0  0  0  0
  185.6940  179.0530  142.9400 C   0  0  0  0  0  2  0  0  0  0  0  0
  190.1210  177.1180  143.1710 C   0  0  0  0  0  2  0  0  0  0  0  0
  188.6530  175.9150  140.8600 O   0  0  0  0  0  1  0  0  0  0  0  0
  184.0180  178.9660  140.4540 F   0  0  0  0  0  0  0  0  0  0  0  0
  187.7220  177.7370  143.0620 N   0  0  0  0  0  0  0  0  0  0  0  0
  185.9490  178.2820  141.6940 C   0  0  0  0  0  0  0  0  0  0  0  0
  194.7950  176.1530  143.9250 O   0  0  0  0  0  0  0  0  0  0  0  0
  195.6830  175.3240  143.1830 C   0  0  0  0  0  2  0  0  0  0  0  0
  196.7860  176.1570  142.5520 C   0  0  2  0  0  3  0  0  0  0  0  0
  196.2440  176.9970  141.5790 O   0  0  0  0  0  1  0  0  0  0  0  0
  197.8040  175.2390  141.9120 C   0  0  0  0  0  1  0  0  0  0  0  0
  1 10  1  0  0  0  0
  2 23  1  6  0  0  0
  2 12  1  0  0  0  0
  4  3  1  0  0  0  0
  5 26  1  0  0  0  0
  6 24  1  0  0  0  0
  6  5  2  0  0  0  0
  7 23  1  1  0  0  0
  7 16  1  0  0  0  0
  9 27  2  0  0  0  0
 11  3  1  0  0  0  0
 12 13  1  0  0  0  0
 12  8  1  1  0  0  0
 13 11  1  1  0  0  0
 14 22  1  6  0  0  0
 14 21  1  0  0  0  0
 15 17  2  0  0  0  0
 15  9  1  0  0  0  0
 16  8  1  0  0  0  0
 16 10  2  0  0  0  0
 17  6  1  0  0  0  0
 18  7  1  0  0  0  0
 18 19  2  0  0  0  0
 19  1  1  0  0  0  0
 20  4  1  0  0  0  0
 21 20  1  6  0  0  0
 21 13  1  0  0  0  0
 25  9  1  0  0  0  0
 26  2  1  0  0  0  0
 26 14  1  0  0  0  0
 27  5  1  0  0  0  0
 27 22  1  0  0  0  0
 28 19  1  0  0  0  0
 29 28  1  0  0  0  0
 30 32  1  6  0  0  0
 30 29  1  0  0  0  0
 31 30  1  0  0  0  0
M  END
>  <MODEL>
3

>  <REMARK>
 VINA RESULT:      -8.2      1.411      1.656
  Name = 
  3 active torsions:
  status: ('A' for Active; 'I' for Inactive)
    1  A    between atoms: C_1  and  C_10
    2  A    between atoms: C_10  and  O_19
    3  A    between atoms: O_19  and  C_24
                            x       y       z     vdW  Elec       q    Type
                         _______ _______ _______ _____ _____    ______ ____

>  <TORSDO>
F 3

$$$$
=
 OpenBabel11052421253D

 32 37  0  0  1  0  0  0  0  0999 V2000
  185.1830  179.5140  143.5130 C   0  0  0  0  0  2  0  0  0  0  0  0
  188.6320  175.7660  143.7020 C   0  0  2  0  0  3  0  0  0  0  0  0
  191.2400  176.5610  147.9280 C   0  0  0  0  0  2  0  0  0  0  0  0
  192.3250  175.8200  147.1410 C   0  0  0  0  0  2  0  0  0  0  0  0
  189.9070  173.8340  142.6150 C   0  0  0  0  0  0  0  0  0  0  0  0
  189.8020  174.1830  141.2590 C   0  0  0  0  0  0  0  0  0  0  0  0
  186.6840  177.1510  143.0160 C   0  0  2  0  0  3  0  0  0  0  0  0
  188.1120  177.7150  145.0340 O   0  0  0  0  0  0  0  0  0  0  0  0
  191.5020  172.0970  142.1030 C   0  0  0  0  0  0  0  0  0  0  0  0
  186.3330  179.1540  144.4170 C   0  0  0  0  0  3  0  0  0  0  0  0
  190.1080  177.0700  147.0170 C   0  0  0  0  0  2  0  0  0  0  0  0
  188.5870  176.3720  145.1000 C   0  0  2  0  0  3  0  0  0  0  0  0
  189.9690  176.2570  145.7220 C   0  0  2  0  0  3  0  0  0  0  0  0
  189.7300  173.7750  144.9470 C   0  0  2  0  0  3  0  0  0  0  0  0
  191.4020  172.4200  140.7420 C   0  0  0  0  0  3  0  0  0  0  0  0
  187.0380  178.0420  144.1980 C   0  0  0  0  0  0  0  0  0  0  0  0
  190.5570  173.4610  140.3220 C   0  0  0  0  0  3  0  0  0  0  0  0
  185.2030  177.1630  142.7610 C   0  0  0  0  0  3  0  0  0  0  0  0
  184.4910  178.2720  142.9880 C   0  0  0  0  0  0  0  0  0  0  0  0
  191.7590  174.5920  146.4100 C   0  0  0  0  0  2  0  0  0  0  0  0
  190.2890  174.7780  145.9940 C   0  0  1  0  0  3  0  0  0  0  0  0
  190.7280  172.6830  144.4990 C   0  0  0  0  0  2  0  0  0  0  0  0
  187.2010  175.7200  143.1830 C   0  0  0  0  0  2  0  0  0  0  0  0
  188.9780  175.2150  140.8320 O   0  0  0  0  0  1  0  0  0  0  0  0
  192.3280  171.1050  142.5140 F   0  0  0  0  0  0  0  0  0  0  0  0
  189.2550  174.4400  143.7220 N   0  0  0  0  0  0  0  0  0  0  0  0
  190.7400  172.8240  143.0200 C   0  0  0  0  0  0  0  0  0  0  0  0
  183.1190  178.2630  142.7180 O   0  0  0  0  0  0  0  0  0  0  0  0
  182.5930  178.2260  141.3960 C   0  0  0  0  0  2  0  0  0  0  0  0
  181.0760  178.1570  141.4290 C   0  0  2  0  0  3  0  0  0  0  0  0
  180.5730  178.2080  140.1290 O   0  0  0  0  0  1  0  0  0  0  0  0
  180.5360  179.3270  142.2220 C   0  0  0  0  0  1  0  0  0  0  0  0
  1 10  1  0  0  0  0
  2 23  1  1  0  0  0
  2 26  1  0  0  0  0
  2 12  1  0  0  0  0
  4  3  1  0  0  0  0
  5 27  1  0  0  0  0
  5 26  1  0  0  0  0
  6  5  2  0  0  0  0
  7 18  1  1  0  0  0
  7 23  1  0  0  0  0
  7 16  1  0  0  0  0
  9 25  1  0  0  0  0
  9 27  2  0  0  0  0
 11  3  1  0  0  0  0
 12  8  1  6  0  0  0
 12 13  1  0  0  0  0
 13 21  1  0  0  0  0
 13 11  1  1  0  0  0
 14 22  1  6  0  0  0
 14 21  1  0  0  0  0
 15  9  1  0  0  0  0
 16 10  2  0  0  0  0
 16  8  1  0  0  0  0
 17 15  2  0  0  0  0
 17  6  1  0  0  0  0
 18 19  2  0  0  0  0
 19  1  1  0  0  0  0
 20  4  1  0  0  0  0
 21 20  1  6  0  0  0
 24  6  1  0  0  0  0
 26 14  1  0  0  0  0
 27 22  1  0  0  0  0
 28 19  1  0  0  0  0
 29 30  1  0  0  0  0
 29 28  1  0  0  0  0
 30 32  1  1  0  0  0
 31 30  1  0  0  0  0
M  END
>  <MODEL>
4

>  <REMARK>
 VINA RESULT:      -7.9      3.902      8.117
  Name = 
  3 active torsions:
  status: ('A' for Active; 'I' for Inactive)
    1  A    between atoms: C_1  and  C_10
    2  A    between atoms: C_10  and  O_19
    3  A    between atoms: O_19  and  C_24
                            x       y       z     vdW  Elec       q    Type
                         _______ _______ _______ _____ _____    ______ ____

>  <TORSDO>
F 3

$$$$
=
 OpenBabel11052421253D

 32 37  0  0  1  0  0  0  0  0999 V2000
  191.6840  175.6400  147.7820 C   0  0  0  0  0  2  0  0  0  0  0  0
  188.8410  176.4800  143.6360 C   0  0  2  0  0  3  0  0  0  0  0  0
  184.8510  179.0780  145.2540 C   0  0  0  0  0  2  0  0  0  0  0  0
  184.2010  178.4250  144.0310 C   0  0  0  0  0  2  0  0  0  0  0  0
  188.2560  176.0280  141.1880 C   0  0  0  0  0  0  0  0  0  0  0  0
  188.7860  174.7370  141.0270 C   0  0  0  0  0  0  0  0  0  0  0  0
  190.7320  175.8200  145.1080 C   0  0  2  0  0  3  0  0  0  0  0  0
  188.6360  176.9320  146.0020 O   0  0  0  0  0  0  0  0  0  0  0  0
  187.1510  175.9010  139.0470 C   0  0  0  0  0  0  0  0  0  0  0  0
  190.3400  176.2640  147.5060 C   0  0  0  0  0  3  0  0  0  0  0  0
  186.1620  178.3800  145.6570 C   0  0  0  0  0  2  0  0  0  0  0  0
  188.3250  177.4380  144.7040 C   0  0  2  0  0  3  0  0  0  0  0  0
  186.8360  177.6500  144.4860 C   0  0  2  0  0  3  0  0  0  0  0  0
  187.6150  178.1120  142.0370 C   0  0  2  0  0  3  0  0  0  0  0  0
  187.6810  174.6160  138.8600 C   0  0  0  0  0  3  0  0  0  0  0  0
  189.8890  176.3610  146.2540 C   0  0  0  0  0  0  0  0  0  0  0  0
  188.4940  174.0360  139.8480 C   0  0  0  0  0  3  0  0  0  0  0  0
  192.1980  175.9950  145.3940 C   0  0  0  0  0  3  0  0  0  0  0  0
  192.6530  175.9070  146.6490 C   0  0  0  0  0  0  0  0  0  0  0  0
  185.1240  178.4740  142.8030 C   0  0  0  0  0  2  0  0  0  0  0  0
  186.6150  178.4330  143.1820 C   0  0  1  0  0  3  0  0  0  0  0  0
  186.9690  177.9240  140.6450 C   0  0  0  0  0  2  0  0  0  0  0  0
  190.3580  176.4390  143.7590 C   0  0  0  0  0  2  0  0  0  0  0  0
  189.5830  174.1490  142.0000 O   0  0  0  0  0  1  0  0  0  0  0  0
  186.3540  176.4580  138.1030 F   0  0  0  0  0  0  0  0  0  0  0  0
  188.4070  176.8980  142.3000 N   0  0  0  0  0  0  0  0  0  0  0  0
  187.4560  176.5850  140.2240 C   0  0  0  0  0  0  0  0  0  0  0  0
  194.0250  176.0490  146.8830 O   0  0  0  0  0  0  0  0  0  0  0  0
  195.0020  175.8900  145.8600 C   0  0  0  0  0  2  0  0  0  0  0  0
  195.3560  174.4220  145.6870 C   0  0  2  0  0  3  0  0  0  0  0  0
  196.6990  174.2200  146.0050 O   0  0  0  0  0  1  0  0  0  0  0  0
  195.1140  174.0130  144.2510 C   0  0  0  0  0  1  0  0  0  0  0  0
  2 23  1  6  0  0  0
  2 12  1  0  0  0  0
  3 11  1  0  0  0  0
  4  3  1  0  0  0  0
  5 26  1  0  0  0  0
  6  5  1  0  0  0  0
  6 24  1  0  0  0  0
  7 23  1  6  0  0  0
  7 18  1  0  0  0  0
  7 16  1  0  0  0  0
  8 16  1  0  0  0  0
  9 27  1  0  0  0  0
 10  1  1  0  0  0  0
 12  8  1  1  0  0  0
 13 12  1  0  0  0  0
 13 11  1  1  0  0  0
 14 22  1  6  0  0  0
 14 26  1  0  0  0  0
 14 21  1  0  0  0  0
 15  9  2  0  0  0  0
 15 17  1  0  0  0  0
 16 10  2  0  0  0  0
 17  6  2  0  0  0  0
 18 19  2  0  0  0  0
 19 28  1  0  0  0  0
 19  1  1  0  0  0  0
 20  4  1  0  0  0  0
 21 20  1  6  0  0  0
 21 13  1  0  0  0  0
 25  9  1  0  0  0  0
 26  2  1  0  0  0  0
 27 22  1  0  0  0  0
 27  5  2  0  0  0  0
 29 28  1  0  0  0  0
 30 32  1  6  0  0  0
 30 29  1  0  0  0  0
 30 31  1  0  0  0  0
M  END
>  <MODEL>
5

>  <REMARK>
 VINA RESULT:      -7.8      1.460      2.063
  Name = 
  3 active torsions:
  status: ('A' for Active; 'I' for Inactive)
    1  A    between atoms: C_1  and  C_10
    2  A    between atoms: C_10  and  O_19
    3  A    between atoms: O_19  and  C_24
                            x       y       z     vdW  Elec       q    Type
                         _______ _______ _______ _____ _____    ______ ____

>  <TORSDO>
F 3

$$$$
=
 OpenBabel11052421253D

 32 37  0  0  1  0  0  0  0  0999 V2000
  193.1430  174.3160  142.7340 C   0  0  0  0  0  2  0  0  0  0  0  0
  188.7900  176.3770  144.4020 C   0  0  2  0  0  3  0  0  0  0  0  0
  186.1440  177.4450  140.2620 C   0  0  0  0  0  2  0  0  0  0  0  0
  185.5360  178.5040  141.1850 C   0  0  0  0  0  2  0  0  0  0  0  0
  187.3610  177.4030  146.2580 C   0  0  0  0  0  0  0  0  0  0  0  0
  188.3600  177.8760  147.1250 C   0  0  0  0  0  0  0  0  0  0  0  0
  190.9940  175.2260  144.3580 C   0  0  2  0  0  3  0  0  0  0  0  0
  189.7930  175.9480  142.2450 O   0  0  0  0  0  0  0  0  0  0  0  0
  185.6520  178.5660  147.5020 C   0  0  0  0  0  0  0  0  0  0  0  0
  191.9310  174.9390  142.0910 C   0  0  0  0  0  3  0  0  0  0  0  0
  187.4640  176.8790  140.8170 C   0  0  0  0  0  2  0  0  0  0  0  0
  188.5510  176.0030  142.9440 C   0  0  2  0  0  3  0  0  0  0  0  0
  187.5710  176.9970  142.3440 C   0  0  2  0  0  3  0  0  0  0  0  0
  186.2000  176.4090  144.4870 C   0  0  2  0  0  3  0  0  0  0  0  0
  186.6310  179.0390  148.3880 C   0  0  0  0  0  3  0  0  0  0  0  0
  190.9130  175.3610  142.8450 C   0  0  0  0  0  0  0  0  0  0  0  0
  187.9800  178.6960  148.1980 C   0  0  0  0  0  3  0  0  0  0  0  0
  191.7510  173.9860  144.7450 C   0  0  0  0  0  3  0  0  0  0  0  0
  192.7660  173.5540  143.9890 C   0  0  0  0  0  0  0  0  0  0  0  0
  185.2220  177.9330  142.5770 C   0  0  0  0  0  2  0  0  0  0  0  0
  186.1860  176.8050  142.9840 C   0  0  1  0  0  3  0  0  0  0  0  0
  185.1910  177.1800  145.3690 C   0  0  0  0  0  2  0  0  0  0  0  0
  189.6170  175.2600  145.0260 C   0  0  0  0  0  2  0  0  0  0  0  0
  189.6980  177.5530  146.9430 O   0  0  0  0  0  1  0  0  0  0  0  0
  184.3510  178.9060  147.6720 F   0  0  0  0  0  0  0  0  0  0  0  0
  187.5230  176.5850  145.1080 N   0  0  0  0  0  0  0  0  0  0  0  0
  186.0480  177.7480  146.4430 C   0  0  0  0  0  0  0  0  0  0  0  0
  193.4690  172.4130  144.3870 O   0  0  0  0  0  0  0  0  0  0  0  0
  194.2740  172.3730  145.5590 C   0  0  0  0  0  2  0  0  0  0  0  0
  195.7060  172.7650  145.2350 C   0  0  2  0  0  3  0  0  0  0  0  0
  196.5890  171.8640  145.8300 O   0  0  0  0  0  1  0  0  0  0  0  0
  195.9780  174.1570  145.7630 C   0  0  0  0  0  1  0  0  0  0  0  0
  1 19  1  0  0  0  0
  2 23  1  1  0  0  0
  2 26  1  0  0  0  0
  3 11  1  0  0  0  0
  3  4  1  0  0  0  0
  4 20  1  0  0  0  0
  5 27  2  0  0  0  0
  5  6  1  0  0  0  0
  6 17  2  0  0  0  0
  7 18  1  6  0  0  0
  7 23  1  0  0  0  0
  8 16  1  0  0  0  0
  9 25  1  0  0  0  0
  9 15  2  0  0  0  0
 10  1  1  0  0  0  0
 10 16  2  0  0  0  0
 12  8  1  6  0  0  0
 12  2  1  0  0  0  0
 13 11  1  6  0  0  0
 13 12  1  0  0  0  0
 13 21  1  0  0  0  0
 14 26  1  0  0  0  0
 14 22  1  1  0  0  0
 16  7  1  0  0  0  0
 17 15  1  0  0  0  0
 19 28  1  0  0  0  0
 19 18  2  0  0  0  0
 21 20  1  1  0  0  0
 21 14  1  0  0  0  0
 22 27  1  0  0  0  0
 24  6  1  0  0  0  0
 26  5  1  0  0  0  0
 27  9  1  0  0  0  0
 28 29  1  0  0  0  0
 30 29  1  0  0  0  0
 30 32  1  1  0  0  0
 30 31  1  0  0  0  0
M  END
>  <MODEL>
6

>  <REMARK>
 VINA RESULT:      -7.7      2.357      4.817
  Name = 
  3 active torsions:
  status: ('A' for Active; 'I' for Inactive)
    1  A    between atoms: C_1  and  C_10
    2  A    between atoms: C_10  and  O_19
    3  A    between atoms: O_19  and  C_24
                            x       y       z     vdW  Elec       q    Type
                         _______ _______ _______ _____ _____    ______ ____

>  <TORSDO>
F 3

$$$$
=
 OpenBabel11052421253D

 32 37  0  0  1  0  0  0  0  0999 V2000
  188.9600  173.3540  138.4420 C   0  0  0  0  0  2  0  0  0  0  0  0
  189.4480  175.1740  143.1780 C   0  0  2  0  0  3  0  0  0  0  0  0
  185.3730  178.0190  143.9440 C   0  0  0  0  0  2  0  0  0  0  0  0
  186.3160  178.7270  144.9190 C   0  0  0  0  0  2  0  0  0  0  0  0
  190.8350  175.6090  145.2820 C   0  0  0  0  0  0  0  0  0  0  0  0
  192.1330  175.5990  144.7450 C   0  0  0  0  0  0  0  0  0  0  0  0
  189.8270  173.8580  141.1030 C   0  0  2  0  0  3  0  0  0  0  0  0
  187.8750  175.4540  141.3640 O   0  0  0  0  0  0  0  0  0  0  0  0
  191.6550  176.4300  147.3970 C   0  0  0  0  0  0  0  0  0  0  0  0
  188.1910  174.3170  139.3100 C   0  0  0  0  0  3  0  0  0  0  0  0
  186.1330  177.1290  142.9440 C   0  0  0  0  0  2  0  0  0  0  0  0
  187.9930  175.4000  142.7850 C   0  0  2  0  0  3  0  0  0  0  0  0
  187.4940  176.6590  143.4750 C   0  0  2  0  0  3  0  0  0  0  0  0
  188.5170  175.4930  145.5750 C   0  0  2  0  0  3  0  0  0  0  0  0
  192.9610  176.4160  146.8860 C   0  0  0  0  0  3  0  0  0  0  0  0
  188.5850  174.5520  140.5640 C   0  0  0  0  0  0  0  0  0  0  0  0
  193.1980  176.0030  145.5640 C   0  0  0  0  0  3  0  0  0  0  0  0
  189.9650  172.4790  140.5190 C   0  0  0  0  0  3  0  0  0  0  0  0
  189.5640  172.2360  139.2670 C   0  0  0  0  0  0  0  0  0  0  0  0
  187.1330  177.7240  145.7500 C   0  0  0  0  0  2  0  0  0  0  0  0
  187.4120  176.4160  144.9910 C   0  0  1  0  0  3  0  0  0  0  0  0
  189.1570  176.0010  146.8880 C   0  0  0  0  0  2  0  0  0  0  0  0
  189.8580  173.8120  142.6320 C   0  0  0  0  0  2  0  0  0  0  0  0
  192.3800  175.2030  143.4380 O   0  0  0  0  0  1  0  0  0  0  0  0
  191.4200  176.8420  148.6670 F   0  0  0  0  0  0  0  0  0  0  0  0
  189.6210  175.2620  144.6300 N   0  0  0  0  0  0  0  0  0  0  0  0
  190.6090  176.0200  146.5690 C   0  0  0  0  0  0  0  0  0  0  0  0
  189.7270  170.9500  138.7410 O   0  0  0  0  0  0  0  0  0  0  0  0
  190.8420  170.5830  137.9360 C   0  0  0  0  0  2  0  0  0  0  0  0
  190.3740  170.0240  136.6030 C   0  0  2  0  0  3  0  0  0  0  0  0
  191.3900  169.2620  136.0270 O   0  0  0  0  0  1  0  0  0  0  0  0
  190.0170  171.1660  135.6770 C   0  0  0  0  0  1  0  0  0  0  0  0
  1 19  1  0  0  0  0
  1 10  1  0  0  0  0
  2 23  1  1  0  0  0
  2 26  1  0  0  0  0
  3  4  1  0  0  0  0
  4 20  1  0  0  0  0
  5 27  1  0  0  0  0
  6  5  2  0  0  0  0
  6 17  1  0  0  0  0
  7 18  1  6  0  0  0
  7 23  1  0  0  0  0
  9 25  1  0  0  0  0
 10 16  2  0  0  0  0
 11  3  1  0  0  0  0
 12  8  1  6  0  0  0
 12  2  1  0  0  0  0
 12 13  1  0  0  0  0
 13 11  1  6  0  0  0
 13 21  1  0  0  0  0
 14 22  1  1  0  0  0
 15  9  1  0  0  0  0
 16  7  1  0  0  0  0
 16  8  1  0  0  0  0
 17 15  2  0  0  0  0
 19 18  2  0  0  0  0
 21 14  1  0  0  0  0
 21 20  1  1  0  0  0
 24  6  1  0  0  0  0
 26  5  1  0  0  0  0
 26 14  1  0  0  0  0
 27 22  1  0  0  0  0
 27  9  2  0  0  0  0
 28 19  1  0  0  0  0
 29 28  1  0  0  0  0
 30 32  1  6  0  0  0
 30 29  1  0  0  0  0
 31 30  1  0  0  0  0
M  END
>  <MODEL>
7

>  <REMARK>
 VINA RESULT:      -7.7      4.178      7.135
  Name = 
  3 active torsions:
  status: ('A' for Active; 'I' for Inactive)
    1  A    between atoms: C_1  and  C_10
    2  A    between atoms: C_10  and  O_19
    3  A    between atoms: O_19  and  C_24
                            x       y       z     vdW  Elec       q    Type
                         _______ _______ _______ _____ _____    ______ ____

>  <TORSDO>
F 3

$$$$
=
 OpenBabel11052421253D

 32 37  0  0  1  0  0  0  0  0999 V2000
  185.9140  176.5960  143.1610 C   0  0  0  0  0  2  0  0  0  0  0  0
  190.8970  175.5230  143.1500 C   0  0  2  0  0  3  0  0  0  0  0  0
  191.4960  171.9900  139.6220 C   0  0  0  0  0  2  0  0  0  0  0  0
  192.6980  171.6260  140.4980 C   0  0  0  0  0  2  0  0  0  0  0  0
  193.2230  175.6580  144.2040 C   0  0  0  0  0  0  0  0  0  0  0  0
  192.8870  175.8790  145.5500 C   0  0  0  0  0  0  0  0  0  0  0  0
  188.7190  176.6220  143.6290 C   0  0  2  0  0  3  0  0  0  0  0  0
  188.9400  174.6910  142.0010 O   0  0  0  0  0  0  0  0  0  0  0  0
  195.5370  175.2990  144.7830 C   0  0  0  0  0  0  0  0  0  0  0  0
  186.8010  175.6060  142.4500 C   0  0  0  0  0  3  0  0  0  0  0  0
  190.4910  172.8910  140.3610 C   0  0  0  0  0  2  0  0  0  0  0  0
  190.3360  174.9440  141.8560 C   0  0  2  0  0  3  0  0  0  0  0  0
  191.1350  173.7030  141.4940 C   0  0  2  0  0  3  0  0  0  0  0  0
  193.1530  175.3110  141.8920 C   0  0  2  0  0  3  0  0  0  0  0  0
  195.2270  175.5290  146.1310 C   0  0  0  0  0  3  0  0  0  0  0  0
  188.1200  175.6170  142.6560 C   0  0  0  0  0  0  0  0  0  0  0  0
  193.9050  175.8160  146.5130 C   0  0  0  0  0  3  0  0  0  0  0  0
  187.9530  177.9160  143.6010 C   0  0  0  0  0  3  0  0  0  0  0  0
  186.6330  177.9110  143.3860 C   0  0  0  0  0  0  0  0  0  0  0  0
  193.4720  172.8750  140.9500 C   0  0  0  0  0  2  0  0  0  0  0  0
  192.5650  174.1080  141.1030 C   0  0  1  0  0  3  0  0  0  0  0  0
  194.6080  175.1180  142.3770 C   0  0  0  0  0  2  0  0  0  0  0  0
  190.2100  176.8620  143.3820 C   0  0  0  0  0  2  0  0  0  0  0  0
  191.5830  176.1540  145.9420 O   0  0  0  0  0  1  0  0  0  0  0  0
  196.8080  175.0070  144.4120 F   0  0  0  0  0  0  0  0  0  0  0  0
  192.3550  175.6540  143.0800 N   0  0  0  0  0  0  0  0  0  0  0  0
  194.5120  175.3700  143.8390 C   0  0  0  0  0  0  0  0  0  0  0  0
  185.9410  179.1260  143.3910 O   0  0  0  0  0  0  0  0  0  0  0  0
  185.5660  179.7950  144.5900 C   0  0  0  0  0  2  0  0  0  0  0  0
  185.0420  178.8010  145.6130 C   0  0  2  0  0  3  0  0  0  0  0  0
  183.6650  178.9600  145.7630 O   0  0  0  0  0  1  0  0  0  0  0  0
  185.7240  179.0410  146.9420 C   0  0  0  0  0  1  0  0  0  0  0  0
  1 19  1  0  0  0  0
  2 23  1  6  0  0  0
  3 11  1  0  0  0  0
  3  4  1  0  0  0  0
  4 20  1  0  0  0  0
  5  6  1  0  0  0  0
  6 24  1  0  0  0  0
  6 17  2  0  0  0  0
  7 23  1  6  0  0  0
  8 16  1  0  0  0  0
  9 15  2  0  0  0  0
 10 16  2  0  0  0  0
 10  1  1  0  0  0  0
 12  8  1  1  0  0  0
 12  2  1  0  0  0  0
 13 11  1  6  0  0  0
 13 12  1  0  0  0  0
 14 22  1  1  0  0  0
 14 26  1  0  0  0  0
 15 17  1  0  0  0  0
 16  7  1  0  0  0  0
 18  7  1  0  0  0  0
 19 28  1  0  0  0  0
 19 18  2  0  0  0  0
 21 20  1  1  0  0  0
 21 13  1  0  0  0  0
 21 14  1  0  0  0  0
 22 27  1  0  0  0  0
 25  9  1  0  0  0  0
 26  2  1  0  0  0  0
 26  5  1  0  0  0  0
 27  5  2  0  0  0  0
 27  9  1  0  0  0  0
 28 29  1  0  0  0  0
 29 30  1  0  0  0  0
 30 31  1  0  0  0  0
 30 32  1  1  0  0  0
M  END
>  <MODEL>
8

>  <REMARK>
 VINA RESULT:      -7.7      3.958      8.694
  Name = 
  3 active torsions:
  status: ('A' for Active; 'I' for Inactive)
    1  A    between atoms: C_1  and  C_10
    2  A    between atoms: C_10  and  O_19
    3  A    between atoms: O_19  and  C_24
                            x       y       z     vdW  Elec       q    Type
                         _______ _______ _______ _____ _____    ______ ____

>  <TORSDO>
F 3

$$$$
=
 OpenBabel11052421253D

 32 37  0  0  1  0  0  0  0  0999 V2000
  189.5620  177.7260  144.0540 C   0  0  0  0  0  2  0  0  0  0  0  0
  193.3170  174.3320  144.6530 C   0  0  2  0  0  3  0  0  0  0  0  0
  197.4970  176.6820  143.1380 C   0  0  0  0  0  2  0  0  0  0  0  0
  197.9410  175.2450  142.8490 C   0  0  0  0  0  2  0  0  0  0  0  0
  194.1390  171.9470  145.0730 C   0  0  0  0  0  0  0  0  0  0  0  0
  193.0270  171.2080  144.6390 C   0  0  0  0  0  0  0  0  0  0  0  0
  191.0900  175.4330  144.7550 C   0  0  2  0  0  3  0  0  0  0  0  0
  193.1300  176.5770  143.7770 O   0  0  0  0  0  0  0  0  0  0  0  0
  195.4740  169.9450  145.2460 C   0  0  0  0  0  0  0  0  0  0  0  0
  191.0360  177.6850  143.7430 C   0  0  0  0  0  3  0  0  0  0  0  0
  195.9730  176.7920  143.3250 C   0  0  0  0  0  2  0  0  0  0  0  0
  193.9940  175.6870  144.4810 C   0  0  2  0  0  3  0  0  0  0  0  0
  195.3300  175.4770  143.7880 C   0  0  2  0  0  3  0  0  0  0  0  0
  195.6160  173.6680  145.6490 C   0  0  2  0  0  3  0  0  0  0  0  0
  194.3730  169.1850  144.8270 C   0  0  0  0  0  3  0  0  0  0  0  0
  191.7630  176.6160  144.0760 C   0  0  0  0  0  0  0  0  0  0  0  0
  193.1540  169.8150  144.5230 C   0  0  0  0  0  3  0  0  0  0  0  0
  189.9770  175.8940  145.6550 C   0  0  0  0  0  3  0  0  0  0  0  0
  189.2510  176.9690  145.3300 C   0  0  0  0  0  0  0  0  0  0  0  0
  197.5660  174.2930  143.9960 C   0  0  0  0  0  2  0  0  0  0  0  0
  196.2860  174.7280  144.7310 C   0  0  1  0  0  3  0  0  0  0  0  0
  196.3680  172.3200  145.7380 C   0  0  0  0  0  2  0  0  0  0  0  0
  192.0820  174.5500  145.5170 C   0  0  0  0  0  2  0  0  0  0  0  0
  191.8210  171.8190  144.3270 O   0  0  0  0  0  1  0  0  0  0  0  0
  196.6560  169.3430  145.5260 F   0  0  0  0  0  0  0  0  0  0  0  0
  194.2370  173.3550  145.2410 N   0  0  0  0  0  0  0  0  0  0  0  0
  195.3280  171.3280  145.3600 C   0  0  0  0  0  0  0  0  0  0  0  0
  188.2060  177.3600  146.1720 O   0  0  0  0  0  0  0  0  0  0  0  0
  187.3780  176.4280  146.8570 C   0  0  0  0  0  2  0  0  0  0  0  0
  186.0810  177.0890  147.2940 C   0  0  2  0  0  3  0  0  0  0  0  0
  185.0740  176.8100  146.3710 O   0  0  0  0  0  1  0  0  0  0  0  0
  186.2840  178.5870  147.3790 C   0  0  0  0  0  1  0  0  0  0  0  0
  1 19  1  0  0  0  0
  2 26  1  0  0  0  0
  2 23  1  1  0  0  0
  3 11  1  0  0  0  0
  4  3  1  0  0  0  0
  4 20  1  0  0  0  0
  5 26  1  0  0  0  0
  5 27  1  0  0  0  0
  6  5  2  0  0  0  0
  7 23  1  1  0  0  0
  7 18  1  0  0  0  0
  8 16  1  0  0  0  0
  9 27  2  0  0  0  0
  9 25  1  0  0  0  0
 10  1  1  0  0  0  0
 10 16  2  0  0  0  0
 12  8  1  6  0  0  0
 12  2  1  0  0  0  0
 13 11  1  1  0  0  0
 13 12  1  0  0  0  0
 13 21  1  0  0  0  0
 14 22  1  6  0  0  0
 15  9  1  0  0  0  0
 16  7  1  0  0  0  0
 17  6  1  0  0  0  0
 17 15  2  0  0  0  0
 19 18  2  0  0  0  0
 19 28  1  0  0  0  0
 21 20  1  6  0  0  0
 21 14  1  0  0  0  0
 24  6  1  0  0  0  0
 26 14  1  0  0  0  0
 27 22  1  0  0  0  0
 28 29  1  0  0  0  0
 29 30  1  0  0  0  0
 30 32  1  6  0  0  0
 31 30  1  0  0  0  0
M  END
>  <MODEL>
9

>  <REMARK>
 VINA RESULT:      -7.5      4.167      9.535
  Name = 
  3 active torsions:
  status: ('A' for Active; 'I' for Inactive)
    1  A    between atoms: C_1  and  C_10
    2  A    between atoms: C_10  and  O_19
    3  A    between atoms: O_19  and  C_24
                            x       y       z     vdW  Elec       q    Type
                         _______ _______ _______ _____ _____    ______ ____

>  <TORSDO>
F 3

$$$$
