=
 OpenBabel11052417483D

 31 34  0  0  0  0  0  0  0  0999 V2000
  185.3820  178.2560  146.9880 C   0  0  0  0  0  0  0  0  0  0  0  0
  186.5860  177.9120  143.4280 C   0  0  0  0  0  0  0  0  0  0  0  0
  185.4230  178.0330  142.5940 C   0  0  0  0  0  0  0  0  0  0  0  0
  182.9820  178.3620  142.3920 C   0  0  0  0  0  3  0  0  0  0  0  0
  186.5610  177.9860  144.8600 C   0  0  0  0  0  0  0  0  0  0  0  0
  186.5800  178.1290  147.6870 C   0  0  0  0  0  3  0  0  0  0  0  0
  184.0680  178.2480  143.1510 C   0  0  0  0  0  3  0  0  0  0  0  0
  189.0280  177.5780  143.5540 C   0  0  0  0  0  0  0  0  0  0  0  0
  184.2220  178.4470  147.6610 F   0  0  0  0  0  0  0  0  0  0  0  0
  186.8020  177.7480  140.6080 C   0  0  0  0  0  3  0  0  0  0  0  0
  183.0700  178.2820  140.9330 C   0  0  0  0  0  0  0  0  0  0  0  0
  188.9770  177.6620  144.9390 C   0  0  0  0  0  3  0  0  0  0  0  0
  187.8490  177.7060  142.7940 C   0  0  0  0  0  0  0  0  0  0  0  0
  185.3770  178.1850  145.5930 C   0  0  0  0  0  3  0  0  0  0  0  0
  182.0230  178.3940  140.2450 O   0  0  0  0  0  0  0  0  0  0  0  0
  187.7700  177.8590  145.5940 C   0  0  0  0  0  0  0  0  0  0  0  0
  187.7710  177.9320  146.9900 C   0  0  0  0  0  3  0  0  0  0  0  0
  187.9320  177.6280  141.3990 C   0  0  0  0  0  3  0  0  0  0  0  0
  185.5550  177.9490  141.1850 C   0  0  0  0  0  0  0  0  0  0  0  0
  184.3840  178.0680  140.2460 C   0  0  0  0  0  2  0  0  0  0  0  0
  190.3670  177.3870  142.9160 C   0  0  0  0  0  2  0  0  0  0  0  0
  191.4060  177.4440  143.9290 N   0  0  0  0  0  2  0  0  0  0  0  0
  192.4320  176.4970  143.5280 C   0  0  0  0  0  2  0  0  0  0  0  0
  193.5660  176.4980  144.5410 C   0  0  0  0  0  2  0  0  0  0  0  0
  193.0390  176.5280  145.9710 C   0  0  0  0  0  2  0  0  0  0  0  0
  193.2610  174.1710  146.1700 O   0  0  0  0  0  0  0  0  0  0  0  0
  192.5450  175.1850  146.3880 C   0  0  0  0  0  0  0  0  0  0  0  0
  190.1540  174.6470  146.5650 C   0  0  0  0  0  0  0  0  0  0  0  0
  190.0140  174.1650  145.1580 C   0  0  0  0  0  1  0  0  0  0  0  0
  188.9510  174.6230  147.4360 C   0  0  0  0  0  1  0  0  0  0  0  0
  191.2770  175.0840  147.0560 N   0  0  0  0  0  0  0  0  0  0  0  0
  1  9  1  0  0  0  0
  1  6  1  0  0  0  0
  2  5  1  0  0  0  0
  3  7  1  0  0  0  0
  3  2  1  0  0  0  0
  4  7  2  0  0  0  0
  5 14  1  0  0  0  0
  5 16  2  0  0  0  0
  8 12  2  0  0  0  0
 10 19  1  0  0  0  0
 10 18  2  0  0  0  0
 11  4  1  0  0  0  0
 12 16  1  0  0  0  0
 13  2  2  0  0  0  0
 13  8  1  0  0  0  0
 14  1  2  0  0  0  0
 15 11  2  0  0  0  0
 16 17  1  0  0  0  0
 17  6  2  0  0  0  0
 18 13  1  0  0  0  0
 19  3  2  0  0  0  0
 20 11  1  0  0  0  0
 20 19  1  0  0  0  0
 21  8  1  0  0  0  0
 21 22  1  0  0  0  0
 23 22  1  0  0  0  0
 23 24  1  0  0  0  0
 24 25  1  0  0  0  0
 25 27  1  0  0  0  0
 26 27  2  0  0  0  0
 27 31  1  0  0  0  0
 28 31  2  0  0  0  0
 28 30  1  0  0  0  0
 29 28  1  0  0  0  0
M  END
>  <MODEL>
1

>  <REMARK>
 VINA RESULT:      -8.3      0.000      0.000
  Name = 
  7 active torsions:
  status: ('A' for Active; 'I' for Inactive)
    1  A    between atoms: C_3  and  C_19
    2  A    between atoms: C_3  and  C_22
    3  A    between atoms: C_7  and  N_9
    4  A    between atoms: C_7  and  C_22
    5  A    between atoms: N_9  and  C_23
    6  A    between atoms: C_15  and  C_23
    7  A    between atoms: C_19  and  N_24
                            x       y       z     vdW  Elec       q    Type
                         _______ _______ _______ _____ _____    ______ ____

>  <TORSDO>
F 7

$$$$
=
 OpenBabel11052417483D

 31 34  0  0  0  0  0  0  0  0999 V2000
  184.6600  178.5310  146.0440 C   0  0  0  0  0  0  0  0  0  0  0  0
  187.3150  176.5170  144.2750 C   0  0  0  0  0  0  0  0  0  0  0  0
  187.0790  176.6830  142.8680 C   0  0  0  0  0  0  0  0  0  0  0  0
  185.7380  177.6750  141.0440 C   0  0  0  0  0  3  0  0  0  0  0  0
  186.5200  177.1240  145.3020 C   0  0  0  0  0  0  0  0  0  0  0  0
  184.9940  178.2990  147.3760 C   0  0  0  0  0  3  0  0  0  0  0  0
  185.9700  177.5120  142.3430 C   0  0  0  0  0  3  0  0  0  0  0  0
  188.6980  175.4920  146.0440 C   0  0  0  0  0  0  0  0  0  0  0  0
  183.6020  179.3200  145.7390 F   0  0  0  0  0  0  0  0  0  0  0  0
  188.9830  175.2520  142.3660 C   0  0  0  0  0  3  0  0  0  0  0  0
  186.5870  177.0320  140.0410 C   0  0  0  0  0  0  0  0  0  0  0  0
  187.9170  176.0990  147.0180 C   0  0  0  0  0  3  0  0  0  0  0  0
  188.4130  175.6960  144.6800 C   0  0  0  0  0  0  0  0  0  0  0  0
  185.4160  177.9500  145.0230 C   0  0  0  0  0  3  0  0  0  0  0  0
  186.3410  177.2080  138.8190 O   0  0  0  0  0  0  0  0  0  0  0  0
  186.8410  176.9010  146.6670 C   0  0  0  0  0  0  0  0  0  0  0  0
  186.0830  177.4860  147.6860 C   0  0  0  0  0  3  0  0  0  0  0  0
  189.2230  175.0820  143.7190 C   0  0  0  0  0  3  0  0  0  0  0  0
  187.9270  176.0420  141.9310 C   0  0  0  0  0  0  0  0  0  0  0  0
  187.7440  176.1680  140.4420 C   0  0  0  0  0  2  0  0  0  0  0  0
  189.8550  174.6590  146.4960 C   0  0  0  0  0  2  0  0  0  0  0  0
  190.3280  175.1350  147.7840 N   0  0  0  0  0  2  0  0  0  0  0  0
  191.6920  175.5940  147.5840 C   0  0  0  0  0  2  0  0  0  0  0  0
  192.2770  174.9600  146.3310 C   0  0  0  0  0  2  0  0  0  0  0  0
  193.7610  175.2750  146.1870 C   0  0  0  0  0  2  0  0  0  0  0  0
  195.1350  176.6460  144.8180 O   0  0  0  0  0  0  0  0  0  0  0  0
  193.9780  176.4260  145.2660 C   0  0  0  0  0  0  0  0  0  0  0  0
  192.2040  177.2170  143.7610 C   0  0  0  0  0  0  0  0  0  0  0  0
  192.5510  176.2950  142.6390 C   0  0  0  0  0  1  0  0  0  0  0  0
  191.0610  178.1480  143.5760 C   0  0  0  0  0  1  0  0  0  0  0  0
  192.8550  177.2390  144.8870 N   0  0  0  0  0  0  0  0  0  0  0  0
  1  6  1  0  0  0  0
  2 13  2  0  0  0  0
  2  5  1  0  0  0  0
  3  2  1  0  0  0  0
  4  7  2  0  0  0  0
  5 16  2  0  0  0  0
  6 17  2  0  0  0  0
  7  3  1  0  0  0  0
  8 21  1  0  0  0  0
  8 12  2  0  0  0  0
  9  1  1  0  0  0  0
 10 18  2  0  0  0  0
 11 20  1  0  0  0  0
 11  4  1  0  0  0  0
 13  8  1  0  0  0  0
 14  5  1  0  0  0  0
 14  1  2  0  0  0  0
 15 11  2  0  0  0  0
 16 12  1  0  0  0  0
 16 17  1  0  0  0  0
 18 13  1  0  0  0  0
 19 10  1  0  0  0  0
 19  3  2  0  0  0  0
 20 19  1  0  0  0  0
 21 22  1  0  0  0  0
 23 22  1  0  0  0  0
 24 23  1  0  0  0  0
 25 24  1  0  0  0  0
 26 27  2  0  0  0  0
 27 25  1  0  0  0  0
 28 31  2  0  0  0  0
 29 28  1  0  0  0  0
 30 28  1  0  0  0  0
 31 27  1  0  0  0  0
M  END
>  <MODEL>
2

>  <REMARK>
 VINA RESULT:      -8.1      1.784      3.212
  Name = 
  7 active torsions:
  status: ('A' for Active; 'I' for Inactive)
    1  A    between atoms: C_3  and  C_19
    2  A    between atoms: C_3  and  C_22
    3  A    between atoms: C_7  and  N_9
    4  A    between atoms: C_7  and  C_22
    5  A    between atoms: N_9  and  C_23
    6  A    between atoms: C_15  and  C_23
    7  A    between atoms: C_19  and  N_24
                            x       y       z     vdW  Elec       q    Type
                         _______ _______ _______ _____ _____    ______ ____

>  <TORSDO>
F 7

$$$$
=
 OpenBabel11052417483D

 31 34  0  0  0  0  0  0  0  0999 V2000
  185.3500  178.2110  147.1460 C   0  0  0  0  0  0  0  0  0  0  0  0
  186.9160  177.8530  143.7320 C   0  0  0  0  0  0  0  0  0  0  0  0
  185.8440  177.9610  142.7810 C   0  0  0  0  0  0  0  0  0  0  0  0
  183.4350  178.2710  142.3270 C   0  0  0  0  0  3  0  0  0  0  0  0
  186.7440  177.9370  145.1530 C   0  0  0  0  0  0  0  0  0  0  0  0
  186.4710  178.0980  147.9660 C   0  0  0  0  0  3  0  0  0  0  0  0
  184.4380  178.1690  143.1940 C   0  0  0  0  0  3  0  0  0  0  0  0
  189.3350  177.5390  144.1110 C   0  0  0  0  0  0  0  0  0  0  0  0
  184.1260  178.3990  147.6950 F   0  0  0  0  0  0  0  0  0  0  0  0
  187.4220  177.6730  140.9500 C   0  0  0  0  0  3  0  0  0  0  0  0
  183.6730  178.1810  140.8860 C   0  0  0  0  0  0  0  0  0  0  0  0
  189.1400  177.6310  145.4830 C   0  0  0  0  0  3  0  0  0  0  0  0
  188.2390  177.6530  143.2320 C   0  0  0  0  0  0  0  0  0  0  0  0
  185.4890  178.1320  145.7590 C   0  0  0  0  0  3  0  0  0  0  0  0
  182.7020  178.2820  140.0920 O   0  0  0  0  0  0  0  0  0  0  0  0
  187.8710  177.8230  146.0080 C   0  0  0  0  0  0  0  0  0  0  0  0
  187.7290  177.9050  147.3970 C   0  0  0  0  0  3  0  0  0  0  0  0
  188.4650  177.5670  141.8540 C   0  0  0  0  0  3  0  0  0  0  0  0
  186.1210  177.8690  141.3950 C   0  0  0  0  0  0  0  0  0  0  0  0
  185.0520  177.9720  140.3390 C   0  0  0  0  0  2  0  0  0  0  0  0
  190.7340  177.3540  143.6150 C   0  0  0  0  0  2  0  0  0  0  0  0
  191.6320  177.1650  144.7400 N   0  0  0  0  0  2  0  0  0  0  0  0
  192.3630  175.9360  144.4890 C   0  0  0  0  0  2  0  0  0  0  0  0
  192.2190  174.9930  145.6730 C   0  0  0  0  0  2  0  0  0  0  0  0
  190.8070  174.4260  145.7670 C   0  0  0  0  0  2  0  0  0  0  0  0
  191.3680  172.4930  144.5050 O   0  0  0  0  0  0  0  0  0  0  0  0
  190.5530  173.4380  144.6810 C   0  0  0  0  0  0  0  0  0  0  0  0
  189.2890  173.9280  142.6310 C   0  0  0  0  0  0  0  0  0  0  0  0
  190.4860  174.2730  141.8080 C   0  0  0  0  0  1  0  0  0  0  0  0
  187.9520  173.9980  141.9870 C   0  0  0  0  0  1  0  0  0  0  0  0
  189.3670  173.5700  143.8800 N   0  0  0  0  0  0  0  0  0  0  0  0
  1  9  1  0  0  0  0
  1  6  1  0  0  0  0
  2  5  1  0  0  0  0
  3  7  1  0  0  0  0
  3  2  1  0  0  0  0
  4  7  2  0  0  0  0
  5 14  1  0  0  0  0
  5 16  2  0  0  0  0
  8 12  2  0  0  0  0
 10 19  1  0  0  0  0
 10 18  2  0  0  0  0
 11  4  1  0  0  0  0
 12 16  1  0  0  0  0
 13  2  2  0  0  0  0
 13  8  1  0  0  0  0
 14  1  2  0  0  0  0
 15 11  2  0  0  0  0
 16 17  1  0  0  0  0
 17  6  2  0  0  0  0
 18 13  1  0  0  0  0
 19  3  2  0  0  0  0
 20 11  1  0  0  0  0
 20 19  1  0  0  0  0
 21  8  1  0  0  0  0
 21 22  1  0  0  0  0
 23 22  1  0  0  0  0
 23 24  1  0  0  0  0
 24 25  1  0  0  0  0
 26 27  2  0  0  0  0
 27 25  1  0  0  0  0
 28 31  2  0  0  0  0
 29 28  1  0  0  0  0
 30 28  1  0  0  0  0
 31 27  1  0  0  0  0
M  END
>  <MODEL>
3

>  <REMARK>
 VINA RESULT:      -8.0      1.473      1.943
  Name = 
  7 active torsions:
  status: ('A' for Active; 'I' for Inactive)
    1  A    between atoms: C_3  and  C_19
    2  A    between atoms: C_3  and  C_22
    3  A    between atoms: C_7  and  N_9
    4  A    between atoms: C_7  and  C_22
    5  A    between atoms: N_9  and  C_23
    6  A    between atoms: C_15  and  C_23
    7  A    between atoms: C_19  and  N_24
                            x       y       z     vdW  Elec       q    Type
                         _______ _______ _______ _____ _____    ______ ____

>  <TORSDO>
F 7

$$$$
=
 OpenBabel11052417483D

 31 34  0  0  0  0  0  0  0  0999 V2000
  185.3300  178.1890  147.0220 C   0  0  0  0  0  0  0  0  0  0  0  0
  186.5870  177.7900  143.4870 C   0  0  0  0  0  0  0  0  0  0  0  0
  185.4470  177.9610  142.6300 C   0  0  0  0  0  0  0  0  0  0  0  0
  183.0270  178.3960  142.3800 C   0  0  0  0  0  3  0  0  0  0  0  0
  186.5380  177.8670  144.9190 C   0  0  0  0  0  0  0  0  0  0  0  0
  186.5070  178.0110  147.7450 C   0  0  0  0  0  3  0  0  0  0  0  0
  184.0920  178.2350  143.1600 C   0  0  0  0  0  3  0  0  0  0  0  0
  189.0100  177.3510  143.6610 C   0  0  0  0  0  0  0  0  0  0  0  0
  184.1670  178.4320  147.6730 F   0  0  0  0  0  0  0  0  0  0  0  0
  186.8510  177.6150  140.6720 C   0  0  0  0  0  3  0  0  0  0  0  0
  183.1400  178.3100  140.9240 C   0  0  0  0  0  0  0  0  0  0  0  0
  188.9350  177.4380  145.0450 C   0  0  0  0  0  3  0  0  0  0  0  0
  187.8530  177.5290  142.8780 C   0  0  0  0  0  0  0  0  0  0  0  0
  185.3490  178.1180  145.6280 C   0  0  0  0  0  3  0  0  0  0  0  0
  182.1130  178.4680  140.2150 O   0  0  0  0  0  0  0  0  0  0  0  0
  187.7250  177.6880  145.6760 C   0  0  0  0  0  0  0  0  0  0  0  0
  187.7020  177.7620  147.0720 C   0  0  0  0  0  3  0  0  0  0  0  0
  187.9590  177.4470  141.4850 C   0  0  0  0  0  3  0  0  0  0  0  0
  185.6030  177.8700  141.2250 C   0  0  0  0  0  0  0  0  0  0  0  0
  184.4570  178.0390  140.2620 C   0  0  0  0  0  2  0  0  0  0  0  0
  190.3520  177.1020  143.0490 C   0  0  0  0  0  2  0  0  0  0  0  0
  191.3690  177.8310  143.7840 N   0  0  0  0  0  2  0  0  0  0  0  0
  192.5070  176.9390  143.9180 C   0  0  0  0  0  2  0  0  0  0  0  0
  192.2160  175.8760  144.9650 C   0  0  0  0  0  2  0  0  0  0  0  0
  192.6690  176.3180  146.3520 C   0  0  0  0  0  2  0  0  0  0  0  0
  194.6410  177.6410  146.4070 O   0  0  0  0  0  0  0  0  0  0  0  0
  194.1500  176.4810  146.4050 C   0  0  0  0  0  0  0  0  0  0  0  0
  195.7750  174.8390  145.5670 C   0  0  0  0  0  0  0  0  0  0  0  0
  195.9470  175.4820  144.2300 C   0  0  0  0  0  1  0  0  0  0  0  0
  196.5510  173.6060  145.8570 C   0  0  0  0  0  1  0  0  0  0  0  0
  194.9790  175.3100  146.4830 N   0  0  0  0  0  0  0  0  0  0  0  0
  1  9  1  0  0  0  0
  1  6  1  0  0  0  0
  2  5  1  0  0  0  0
  3  7  1  0  0  0  0
  3  2  1  0  0  0  0
  4  7  2  0  0  0  0
  5 14  1  0  0  0  0
  5 16  2  0  0  0  0
  8 12  2  0  0  0  0
 10 19  1  0  0  0  0
 10 18  2  0  0  0  0
 11  4  1  0  0  0  0
 12 16  1  0  0  0  0
 13  2  2  0  0  0  0
 13  8  1  0  0  0  0
 14  1  2  0  0  0  0
 15 11  2  0  0  0  0
 16 17  1  0  0  0  0
 17  6  2  0  0  0  0
 18 13  1  0  0  0  0
 19  3  2  0  0  0  0
 20 11  1  0  0  0  0
 20 19  1  0  0  0  0
 21  8  1  0  0  0  0
 21 22  1  0  0  0  0
 22 23  1  0  0  0  0
 23 24  1  0  0  0  0
 24 25  1  0  0  0  0
 25 27  1  0  0  0  0
 27 26  2  0  0  0  0
 27 31  1  0  0  0  0
 28 30  1  0  0  0  0
 28 31  2  0  0  0  0
 29 28  1  0  0  0  0
M  END
>  <MODEL>
4

>  <REMARK>
 VINA RESULT:      -8.0      1.474      2.327
  Name = 
  7 active torsions:
  status: ('A' for Active; 'I' for Inactive)
    1  A    between atoms: C_3  and  C_19
    2  A    between atoms: C_3  and  C_22
    3  A    between atoms: C_7  and  N_9
    4  A    between atoms: C_7  and  C_22
    5  A    between atoms: N_9  and  C_23
    6  A    between atoms: C_15  and  C_23
    7  A    between atoms: C_19  and  N_24
                            x       y       z     vdW  Elec       q    Type
                         _______ _______ _______ _____ _____    ______ ____

>  <TORSDO>
F 7

$$$$
=
 OpenBabel11052417483D

 31 34  0  0  0  0  0  0  0  0999 V2000
  184.5780  178.4440  146.0650 C   0  0  0  0  0  0  0  0  0  0  0  0
  187.3420  176.5360  144.3450 C   0  0  0  0  0  0  0  0  0  0  0  0
  187.1240  176.6910  142.9350 C   0  0  0  0  0  0  0  0  0  0  0  0
  185.7760  177.6270  141.0870 C   0  0  0  0  0  3  0  0  0  0  0  0
  186.5050  177.1120  145.3580 C   0  0  0  0  0  0  0  0  0  0  0  0
  184.8970  178.2260  147.4040 C   0  0  0  0  0  3  0  0  0  0  0  0
  185.9910  177.4740  142.3900 C   0  0  0  0  0  3  0  0  0  0  0  0
  188.7340  175.5700  146.1400 C   0  0  0  0  0  0  0  0  0  0  0  0
  183.4940  179.1890  145.7400 F   0  0  0  0  0  0  0  0  0  0  0  0
  189.0930  175.3380  142.4680 C   0  0  0  0  0  3  0  0  0  0  0  0
  186.6680  177.0180  140.0990 C   0  0  0  0  0  0  0  0  0  0  0  0
  187.9120  176.1460  147.1000 C   0  0  0  0  0  3  0  0  0  0  0  0
  188.4650  175.7610  144.7710 C   0  0  0  0  0  0  0  0  0  0  0  0
  185.3740  177.8930  145.0590 C   0  0  0  0  0  3  0  0  0  0  0  0
  186.4360  177.1820  138.8730 O   0  0  0  0  0  0  0  0  0  0  0  0
  186.8110  176.9030  146.7290 C   0  0  0  0  0  0  0  0  0  0  0  0
  186.0130  177.4580  147.7340 C   0  0  0  0  0  3  0  0  0  0  0  0
  189.3150  175.1790  143.8250 C   0  0  0  0  0  3  0  0  0  0  0  0
  188.0130  176.0840  142.0130 C   0  0  0  0  0  0  0  0  0  0  0  0
  187.8510  176.2020  140.5210 C   0  0  0  0  0  2  0  0  0  0  0  0
  189.9160  174.7850  146.6140 C   0  0  0  0  0  2  0  0  0  0  0  0
  190.4860  175.4170  147.7900 N   0  0  0  0  0  2  0  0  0  0  0  0
  191.4440  176.3990  147.3130 C   0  0  0  0  0  2  0  0  0  0  0  0
  192.6320  175.6990  146.6720 C   0  0  0  0  0  2  0  0  0  0  0  0
  192.9060  176.2320  145.2710 C   0  0  0  0  0  2  0  0  0  0  0  0
  194.6150  177.7610  145.8890 O   0  0  0  0  0  0  0  0  0  0  0  0
  194.2870  176.7830  145.1660 C   0  0  0  0  0  0  0  0  0  0  0  0
  196.0270  175.1740  144.5150 C   0  0  0  0  0  0  0  0  0  0  0  0
  196.1060  174.5060  145.8480 C   0  0  0  0  0  1  0  0  0  0  0  0
  196.9140  174.6810  143.4300 C   0  0  0  0  0  1  0  0  0  0  0  0
  195.2190  176.1640  144.2650 N   0  0  0  0  0  0  0  0  0  0  0  0
  1  6  1  0  0  0  0
  2 13  2  0  0  0  0
  2  5  1  0  0  0  0
  3  2  1  0  0  0  0
  4  7  2  0  0  0  0
  5 16  2  0  0  0  0
  6 17  2  0  0  0  0
  7  3  1  0  0  0  0
  8 21  1  0  0  0  0
  8 12  2  0  0  0  0
  9  1  1  0  0  0  0
 10 18  2  0  0  0  0
 11 20  1  0  0  0  0
 11  4  1  0  0  0  0
 13  8  1  0  0  0  0
 14  5  1  0  0  0  0
 14  1  2  0  0  0  0
 15 11  2  0  0  0  0
 16 12  1  0  0  0  0
 16 17  1  0  0  0  0
 18 13  1  0  0  0  0
 19 10  1  0  0  0  0
 19  3  2  0  0  0  0
 20 19  1  0  0  0  0
 21 22  1  0  0  0  0
 23 22  1  0  0  0  0
 24 23  1  0  0  0  0
 25 24  1  0  0  0  0
 27 25  1  0  0  0  0
 27 26  2  0  0  0  0
 28 29  1  0  0  0  0
 30 28  1  0  0  0  0
 31 28  2  0  0  0  0
 31 27  1  0  0  0  0
M  END
>  <MODEL>
5

>  <REMARK>
 VINA RESULT:      -7.8      2.107      3.702
  Name = 
  7 active torsions:
  status: ('A' for Active; 'I' for Inactive)
    1  A    between atoms: C_3  and  C_19
    2  A    between atoms: C_3  and  C_22
    3  A    between atoms: C_7  and  N_9
    4  A    between atoms: C_7  and  C_22
    5  A    between atoms: N_9  and  C_23
    6  A    between atoms: C_15  and  C_23
    7  A    between atoms: C_19  and  N_24
                            x       y       z     vdW  Elec       q    Type
                         _______ _______ _______ _____ _____    ______ ____

>  <TORSDO>
F 7

$$$$
=
 OpenBabel11052417483D

 31 34  0  0  0  0  0  0  0  0999 V2000
  185.1590  178.2520  146.9040 C   0  0  0  0  0  0  0  0  0  0  0  0
  186.3410  177.9770  143.3310 C   0  0  0  0  0  0  0  0  0  0  0  0
  185.1690  178.0850  142.5070 C   0  0  0  0  0  0  0  0  0  0  0  0
  182.7210  178.3680  142.3290 C   0  0  0  0  0  3  0  0  0  0  0  0
  186.3260  178.0320  144.7640 C   0  0  0  0  0  0  0  0  0  0  0  0
  186.3650  178.1400  147.5920 C   0  0  0  0  0  3  0  0  0  0  0  0
  183.8140  178.2660  143.0780 C   0  0  0  0  0  3  0  0  0  0  0  0
  188.7900  177.6910  143.4340 C   0  0  0  0  0  0  0  0  0  0  0  0
  184.0010  178.4120  147.5880 F   0  0  0  0  0  0  0  0  0  0  0  0
  186.5370  177.8530  140.5080 C   0  0  0  0  0  3  0  0  0  0  0  0
  182.7990  178.3080  140.8690 C   0  0  0  0  0  0  0  0  0  0  0  0
  188.7480  177.7560  144.8200 C   0  0  0  0  0  3  0  0  0  0  0  0
  187.6030  177.8040  142.6840 C   0  0  0  0  0  0  0  0  0  0  0  0
  185.1440  178.1980  145.5090 C   0  0  0  0  0  3  0  0  0  0  0  0
  181.7440  178.4080  140.1900 O   0  0  0  0  0  0  0  0  0  0  0  0
  187.5430  177.9200  145.4860 C   0  0  0  0  0  0  0  0  0  0  0  0
  187.5550  177.9760  146.8840 C   0  0  0  0  0  3  0  0  0  0  0  0
  187.6760  177.7460  141.2880 C   0  0  0  0  0  3  0  0  0  0  0  0
  185.2910  178.0220  141.0970 C   0  0  0  0  0  0  0  0  0  0  0  0
  184.1110  178.1290  140.1680 C   0  0  0  0  0  2  0  0  0  0  0  0
  190.1280  177.5340  142.7830 C   0  0  0  0  0  2  0  0  0  0  0  0
  190.8750  176.4810  143.4450 N   0  0  0  0  0  2  0  0  0  0  0  0
  191.3120  175.5630  142.4070 C   0  0  0  0  0  2  0  0  0  0  0  0
  190.9300  174.1380  142.7760 C   0  0  0  0  0  2  0  0  0  0  0  0
  189.5830  174.0880  143.4880 C   0  0  0  0  0  2  0  0  0  0  0  0
  189.8260  172.2840  145.0140 O   0  0  0  0  0  0  0  0  0  0  0  0
  189.7240  173.5310  144.8630 C   0  0  0  0  0  0  0  0  0  0  0  0
  190.8270  174.9130  146.5700 C   0  0  0  0  0  0  0  0  0  0  0  0
  192.2180  174.5750  146.1460 C   0  0  0  0  0  1  0  0  0  0  0  0
  190.6490  175.8410  147.7160 C   0  0  0  0  0  1  0  0  0  0  0  0
  189.7700  174.4320  145.9810 N   0  0  0  0  0  0  0  0  0  0  0  0
  1  9  1  0  0  0  0
  1  6  1  0  0  0  0
  2  5  1  0  0  0  0
  3  7  1  0  0  0  0
  3  2  1  0  0  0  0
  4  7  2  0  0  0  0
  5 16  2  0  0  0  0
  5 14  1  0  0  0  0
  8 12  2  0  0  0  0
 10 19  1  0  0  0  0
 10 18  2  0  0  0  0
 11  4  1  0  0  0  0
 12 16  1  0  0  0  0
 13  2  2  0  0  0  0
 13  8  1  0  0  0  0
 14  1  2  0  0  0  0
 15 11  2  0  0  0  0
 16 17  1  0  0  0  0
 17  6  2  0  0  0  0
 18 13  1  0  0  0  0
 19  3  2  0  0  0  0
 20 11  1  0  0  0  0
 20 19  1  0  0  0  0
 21  8  1  0  0  0  0
 21 22  1  0  0  0  0
 23 24  1  0  0  0  0
 23 22  1  0  0  0  0
 24 25  1  0  0  0  0
 25 27  1  0  0  0  0
 27 26  2  0  0  0  0
 27 31  1  0  0  0  0
 28 30  1  0  0  0  0
 29 28  1  0  0  0  0
 31 28  2  0  0  0  0
M  END
>  <MODEL>
6

>  <REMARK>
 VINA RESULT:      -7.8      1.212      1.710
  Name = 
  7 active torsions:
  status: ('A' for Active; 'I' for Inactive)
    1  A    between atoms: C_3  and  C_19
    2  A    between atoms: C_3  and  C_22
    3  A    between atoms: C_7  and  N_9
    4  A    between atoms: C_7  and  C_22
    5  A    between atoms: N_9  and  C_23
    6  A    between atoms: C_15  and  C_23
    7  A    between atoms: C_19  and  N_24
                            x       y       z     vdW  Elec       q    Type
                         _______ _______ _______ _____ _____    ______ ____

>  <TORSDO>
F 7

$$$$
=
 OpenBabel11052417483D

 31 34  0  0  0  0  0  0  0  0999 V2000
  185.6410  177.8790  147.4450 C   0  0  0  0  0  0  0  0  0  0  0  0
  186.9720  176.7930  144.0850 C   0  0  0  0  0  0  0  0  0  0  0  0
  188.1670  176.0410  144.3470 C   0  0  0  0  0  0  0  0  0  0  0  0
  189.7780  175.1180  145.9780 C   0  0  0  0  0  3  0  0  0  0  0  0
  186.1550  177.3880  145.1030 C   0  0  0  0  0  0  0  0  0  0  0  0
  184.4990  178.5800  147.0640 C   0  0  0  0  0  3  0  0  0  0  0  0
  188.6740  175.8110  145.7190 C   0  0  0  0  0  3  0  0  0  0  0  0
  185.4040  177.6850  142.4000 C   0  0  0  0  0  0  0  0  0  0  0  0
  185.9610  177.7660  148.7560 F   0  0  0  0  0  0  0  0  0  0  0  0
  188.4750  175.6740  141.9600 C   0  0  0  0  0  3  0  0  0  0  0  0
  190.5700  174.5300  144.8960 C   0  0  0  0  0  0  0  0  0  0  0  0
  184.6280  178.2440  143.4060 C   0  0  0  0  0  3  0  0  0  0  0  0
  186.5670  176.9590  142.7250 C   0  0  0  0  0  0  0  0  0  0  0  0
  186.4560  177.2910  146.4740 C   0  0  0  0  0  3  0  0  0  0  0  0
  191.6100  173.8790  145.1750 O   0  0  0  0  0  0  0  0  0  0  0  0
  184.9880  178.1080  144.7390 C   0  0  0  0  0  0  0  0  0  0  0  0
  184.1740  178.6940  145.7140 C   0  0  0  0  0  3  0  0  0  0  0  0
  187.3250  176.3970  141.6920 C   0  0  0  0  0  3  0  0  0  0  0  0
  188.9030  175.4890  143.2690 C   0  0  0  0  0  0  0  0  0  0  0  0
  190.1640  174.6900  143.4620 C   0  0  0  0  0  2  0  0  0  0  0  0
  184.9430  177.8540  140.9870 C   0  0  0  0  0  2  0  0  0  0  0  0
  183.8380  178.7940  140.9410 N   0  0  0  0  0  2  0  0  0  0  0  0
  182.6700  178.0450  140.5120 C   0  0  0  0  0  2  0  0  0  0  0  0
  181.4090  178.6740  141.0830 C   0  0  0  0  0  2  0  0  0  0  0  0
  180.1530  178.0640  140.4710 C   0  0  0  0  0  2  0  0  0  0  0  0
  177.9860  178.9960  140.1950 O   0  0  0  0  0  0  0  0  0  0  0  0
  178.9260  178.7300  140.9910 C   0  0  0  0  0  0  0  0  0  0  0  0
  178.4660  178.2240  143.3510 C   0  0  0  0  0  0  0  0  0  0  0  0
  178.0670  176.8040  143.1150 C   0  0  0  0  0  1  0  0  0  0  0  0
  178.4420  178.7350  144.7460 C   0  0  0  0  0  1  0  0  0  0  0  0
  178.8320  179.0260  142.3940 N   0  0  0  0  0  0  0  0  0  0  0  0
  1  9  1  0  0  0  0
  2  3  1  0  0  0  0
  2  5  1  0  0  0  0
  3  7  1  0  0  0  0
  5 14  1  0  0  0  0
  6  1  1  0  0  0  0
  7  4  2  0  0  0  0
  8 13  1  0  0  0  0
  8 12  2  0  0  0  0
 10 19  1  0  0  0  0
 11 15  2  0  0  0  0
 11  4  1  0  0  0  0
 12 16  1  0  0  0  0
 13  2  2  0  0  0  0
 14  1  2  0  0  0  0
 16  5  2  0  0  0  0
 16 17  1  0  0  0  0
 17  6  2  0  0  0  0
 18 10  2  0  0  0  0
 18 13  1  0  0  0  0
 19 20  1  0  0  0  0
 19  3  2  0  0  0  0
 20 11  1  0  0  0  0
 21  8  1  0  0  0  0
 22 21  1  0  0  0  0
 23 22  1  0  0  0  0
 23 24  1  0  0  0  0
 25 27  1  0  0  0  0
 25 24  1  0  0  0  0
 26 27  2  0  0  0  0
 27 31  1  0  0  0  0
 28 30  1  0  0  0  0
 29 28  1  0  0  0  0
 31 28  2  0  0  0  0
M  END
>  <MODEL>
7

>  <REMARK>
 VINA RESULT:      -7.7      3.566      8.494
  Name = 
  7 active torsions:
  status: ('A' for Active; 'I' for Inactive)
    1  A    between atoms: C_3  and  C_19
    2  A    between atoms: C_3  and  C_22
    3  A    between atoms: C_7  and  N_9
    4  A    between atoms: C_7  and  C_22
    5  A    between atoms: N_9  and  C_23
    6  A    between atoms: C_15  and  C_23
    7  A    between atoms: C_19  and  N_24
                            x       y       z     vdW  Elec       q    Type
                         _______ _______ _______ _____ _____    ______ ____

>  <TORSDO>
F 7

$$$$
=
 OpenBabel11052417483D

 31 34  0  0  0  0  0  0  0  0999 V2000
  186.1600  178.2310  141.8600 C   0  0  0  0  0  0  0  0  0  0  0  0
  188.3840  175.5120  143.2390 C   0  0  0  0  0  0  0  0  0  0  0  0
  188.7360  174.6740  142.1280 C   0  0  0  0  0  0  0  0  0  0  0  0
  188.5670  174.1690  139.7140 C   0  0  0  0  0  3  0  0  0  0  0  0
  187.5430  176.6700  143.1410 C   0  0  0  0  0  0  0  0  0  0  0  0
  185.8960  178.9680  143.0120 C   0  0  0  0  0  3  0  0  0  0  0  0
  188.2500  174.9360  140.7530 C   0  0  0  0  0  3  0  0  0  0  0  0
  188.5980  175.9560  145.6580 C   0  0  0  0  0  0  0  0  0  0  0  0
  185.6280  178.6130  140.6740 F   0  0  0  0  0  0  0  0  0  0  0  0
  190.0640  173.2600  143.5970 C   0  0  0  0  0  3  0  0  0  0  0  0
  189.4340  173.0010  139.8760 C   0  0  0  0  0  0  0  0  0  0  0  0
  187.7870  177.0760  145.5330 C   0  0  0  0  0  3  0  0  0  0  0  0
  188.9050  175.1750  144.5260 C   0  0  0  0  0  0  0  0  0  0  0  0
  186.9740  177.0980  141.9270 C   0  0  0  0  0  3  0  0  0  0  0  0
  189.7140  172.2970  138.8710 O   0  0  0  0  0  0  0  0  0  0  0  0
  187.2600  177.4360  144.3010 C   0  0  0  0  0  0  0  0  0  0  0  0
  186.4460  178.5710  144.2300 C   0  0  0  0  0  3  0  0  0  0  0  0
  189.7320  174.0580  144.6790 C   0  0  0  0  0  3  0  0  0  0  0  0
  189.5790  173.5530  142.3300 C   0  0  0  0  0  0  0  0  0  0  0  0
  189.9920  172.6290  141.2150 C   0  0  0  0  0  2  0  0  0  0  0  0
  189.1490  175.6410  147.0120 C   0  0  0  0  0  2  0  0  0  0  0  0
  190.2140  176.5730  147.3370 N   0  0  0  0  0  2  0  0  0  0  0  0
  191.2930  175.7900  147.9120 C   0  0  0  0  0  2  0  0  0  0  0  0
  192.6360  176.3570  147.4780 C   0  0  0  0  0  2  0  0  0  0  0  0
  193.2560  175.5290  146.3580 C   0  0  0  0  0  2  0  0  0  0  0  0
  194.6870  176.3030  144.6270 O   0  0  0  0  0  0  0  0  0  0  0  0
  193.5510  176.3760  145.1680 C   0  0  0  0  0  0  0  0  0  0  0  0
  191.9060  177.1280  143.5050 C   0  0  0  0  0  0  0  0  0  0  0  0
  192.1990  176.0470  142.5180 C   0  0  0  0  0  1  0  0  0  0  0  0
  190.8610  178.1270  143.1600 C   0  0  0  0  0  1  0  0  0  0  0  0
  192.5210  177.2320  144.6470 N   0  0  0  0  0  0  0  0  0  0  0  0
  1 14  2  0  0  0  0
  1  6  1  0  0  0  0
  2 13  1  0  0  0  0
  3 19  2  0  0  0  0
  3  2  1  0  0  0  0
  4 11  1  0  0  0  0
  4  7  2  0  0  0  0
  5  2  2  0  0  0  0
  5 16  1  0  0  0  0
  6 17  2  0  0  0  0
  7  3  1  0  0  0  0
  8 21  1  0  0  0  0
  9  1  1  0  0  0  0
 10 18  2  0  0  0  0
 11 20  1  0  0  0  0
 12  8  1  0  0  0  0
 13 18  1  0  0  0  0
 13  8  2  0  0  0  0
 14  5  1  0  0  0  0
 15 11  2  0  0  0  0
 16 12  2  0  0  0  0
 17 16  1  0  0  0  0
 19 10  1  0  0  0  0
 20 19  1  0  0  0  0
 21 22  1  0  0  0  0
 22 23  1  0  0  0  0
 24 23  1  0  0  0  0
 25 24  1  0  0  0  0
 26 27  2  0  0  0  0
 27 25  1  0  0  0  0
 28 31  2  0  0  0  0
 29 28  1  0  0  0  0
 30 28  1  0  0  0  0
 31 27  1  0  0  0  0
M  END
>  <MODEL>
8

>  <REMARK>
 VINA RESULT:      -7.6      2.860      4.983
  Name = 
  7 active torsions:
  status: ('A' for Active; 'I' for Inactive)
    1  A    between atoms: C_3  and  C_19
    2  A    between atoms: C_3  and  C_22
    3  A    between atoms: C_7  and  N_9
    4  A    between atoms: C_7  and  C_22
    5  A    between atoms: N_9  and  C_23
    6  A    between atoms: C_15  and  C_23
    7  A    between atoms: C_19  and  N_24
                            x       y       z     vdW  Elec       q    Type
                         _______ _______ _______ _____ _____    ______ ____

>  <TORSDO>
F 7

$$$$
=
 OpenBabel11052417483D

 31 34  0  0  0  0  0  0  0  0999 V2000
  188.9300  174.5480  141.1900 C   0  0  0  0  0  0  0  0  0  0  0  0
  187.8330  175.9490  144.5180 C   0  0  0  0  0  0  0  0  0  0  0  0
  186.6770  176.7590  144.2550 C   0  0  0  0  0  0  0  0  0  0  0  0
  185.0550  177.6790  142.6320 C   0  0  0  0  0  3  0  0  0  0  0  0
  188.5600  175.2310  143.5110 C   0  0  0  0  0  0  0  0  0  0  0  0
  190.0330  173.7880  141.5730 C   0  0  0  0  0  3  0  0  0  0  0  0
  186.1240  176.9320  142.8920 C   0  0  0  0  0  3  0  0  0  0  0  0
  189.4160  175.0670  146.1940 C   0  0  0  0  0  0  0  0  0  0  0  0
  188.5600  174.5970  139.8880 F   0  0  0  0  0  0  0  0  0  0  0  0
  186.5010  177.3000  146.6210 C   0  0  0  0  0  3  0  0  0  0  0  0
  184.3510  178.3850  143.7030 C   0  0  0  0  0  0  0  0  0  0  0  0
  190.0970  174.3770  145.2000 C   0  0  0  0  0  3  0  0  0  0  0  0
  188.2880  175.8460  145.8680 C   0  0  0  0  0  0  0  0  0  0  0  0
  188.2050  175.2580  142.1500 C   0  0  0  0  0  3  0  0  0  0  0  0
  183.3430  179.0840  143.4230 O   0  0  0  0  0  0  0  0  0  0  0  0
  189.6880  174.4520  143.8770 C   0  0  0  0  0  0  0  0  0  0  0  0
  190.4110  173.7400  142.9140 C   0  0  0  0  0  3  0  0  0  0  0  0
  187.6150  176.5230  146.8910 C   0  0  0  0  0  3  0  0  0  0  0  0
  186.0260  177.4260  145.3220 C   0  0  0  0  0  0  0  0  0  0  0  0
  184.8100  178.2920  145.1260 C   0  0  0  0  0  2  0  0  0  0  0  0
  189.9000  174.9220  147.6020 C   0  0  0  0  0  2  0  0  0  0  0  0
  191.3120  175.2560  147.6710 N   0  0  0  0  0  2  0  0  0  0  0  0
  191.3940  176.7020  147.7800 C   0  0  0  0  0  2  0  0  0  0  0  0
  192.8270  177.1600  147.5590 C   0  0  0  0  0  2  0  0  0  0  0  0
  193.6070  176.1650  146.7090 C   0  0  0  0  0  2  0  0  0  0  0  0
  194.9260  177.8920  145.7500 O   0  0  0  0  0  0  0  0  0  0  0  0
  194.2580  176.8430  145.5520 C   0  0  0  0  0  0  0  0  0  0  0  0
  193.1500  176.4130  143.4010 C   0  0  0  0  0  0  0  0  0  0  0  0
  191.9470  177.2490  143.6930 C   0  0  0  0  0  1  0  0  0  0  0  0
  193.2210  175.7230  142.0870 C   0  0  0  0  0  1  0  0  0  0  0  0
  194.1310  176.2650  144.2420 N   0  0  0  0  0  0  0  0  0  0  0  0
  1  6  2  0  0  0  0
  1 14  1  0  0  0  0
  2 13  1  0  0  0  0
  3  2  2  0  0  0  0
  3 19  1  0  0  0  0
  4  7  2  0  0  0  0
  4 11  1  0  0  0  0
  5 16  1  0  0  0  0
  5  2  1  0  0  0  0
  6 17  1  0  0  0  0
  7  3  1  0  0  0  0
  8 21  1  0  0  0  0
  9  1  1  0  0  0  0
 10 18  1  0  0  0  0
 11 20  1  0  0  0  0
 12  8  2  0  0  0  0
 13  8  1  0  0  0  0
 13 18  2  0  0  0  0
 14  5  2  0  0  0  0
 15 11  2  0  0  0  0
 16 12  1  0  0  0  0
 17 16  2  0  0  0  0
 19 10  2  0  0  0  0
 20 19  1  0  0  0  0
 21 22  1  0  0  0  0
 22 23  1  0  0  0  0
 24 23  1  0  0  0  0
 25 24  1  0  0  0  0
 27 26  2  0  0  0  0
 27 25  1  0  0  0  0
 28 29  1  0  0  0  0
 28 31  2  0  0  0  0
 30 28  1  0  0  0  0
 31 27  1  0  0  0  0
M  END
>  <MODEL>
9

>  <REMARK>
 VINA RESULT:      -7.6      2.609      4.820
  Name = 
  7 active torsions:
  status: ('A' for Active; 'I' for Inactive)
    1  A    between atoms: C_3  and  C_19
    2  A    between atoms: C_3  and  C_22
    3  A    between atoms: C_7  and  N_9
    4  A    between atoms: C_7  and  C_22
    5  A    between atoms: N_9  and  C_23
    6  A    between atoms: C_15  and  C_23
    7  A    between atoms: C_19  and  N_24
                            x       y       z     vdW  Elec       q    Type
                         _______ _______ _______ _____ _____    ______ ____

>  <TORSDO>
F 7

$$$$
