=
 OpenBabel11052420103D

 37 41  0  0  1  0  0  0  0  0999 V2000
  190.8280  177.2310  144.4770 O   0  0  0  0  0  1  0  0  0  0  0  0
  190.6300  175.9380  144.9940 C   0  0  1  0  0  0  0  0  0  0  0  0
  192.4440  175.5860  142.0950 O   0  0  0  0  0  1  0  0  0  0  0  0
  191.1220  175.5520  142.5370 C   0  0  2  0  0  3  0  0  0  0  0  0
  190.0620  173.6050  142.4560 C   0  0  1  0  0  3  0  0  0  0  0  0
  191.0570  174.9330  143.9120 C   0  0  2  0  0  3  0  0  0  0  0  0
  190.3650  174.7450  141.6910 O   0  0  0  0  0  0  0  0  0  0  0  0
  190.1410  173.8860  143.8270 O   0  0  0  0  0  0  0  0  0  0  0  0
  188.6780  173.0760  142.0980 C   0  0  0  0  0  2  0  0  0  0  0  0
  187.6480  174.1940  142.0500 C   0  0  0  0  0  1  0  0  0  0  0  0
  191.5140  175.7410  146.2640 C   0  0  2  0  0  3  0  0  0  0  0  0
  190.8190  175.9340  147.6250 C   0  0  1  0  0  3  0  0  0  0  0  0
  191.3900  175.1330  148.6160 O   0  0  0  0  0  1  0  0  0  0  0  0
  190.7730  177.3860  148.0690 C   0  0  0  0  0  2  0  0  0  0  0  0
  191.6100  177.5720  149.1680 O   0  0  0  0  0  1  0  0  0  0  0  0
  192.6630  176.5370  146.2090 O   0  0  0  0  0  0  0  0  0  0  0  0
  193.7280  175.6470  146.3560 C   0  0  0  0  0  2  0  0  0  0  0  0
  195.1190  175.3390  144.3480 C   0  0  2  0  0  0  0  0  0  0  0  0
  194.9280  176.1620  145.5880 C   0  0  1  0  0  3  0  0  0  0  0  0
  194.5200  176.6360  144.3640 O   0  0  0  0  0  0  0  0  0  0  0  0
  196.0180  175.4080  143.1180 C   0  0  2  0  0  3  0  0  0  0  0  0
  196.5440  175.3000  144.3810 O   0  0  0  0  0  0  0  0  0  0  0  0
  196.2770  176.5600  141.2470 C   0  0  0  0  0  1  0  0  0  0  0  0
  196.2600  176.7000  142.6350 O   0  0  0  0  0  0  0  0  0  0  0  0
  189.2550  175.7170  145.2700 O   0  0  0  0  0  0  0  0  0  0  0  0
  188.5170  176.8820  144.9990 C   0  0  0  0  0  2  0  0  0  0  0  0
  187.0570  176.6600  145.3700 C   0  0  1  0  0  3  0  0  0  0  0  0
  186.5290  177.8960  146.1150 C   0  0  0  0  0  0  0  0  0  0  0  0
  185.1030  178.0350  146.6680 C   0  0  0  0  0  2  0  0  0  0  0  0
  186.1040  177.5720  144.6760 C   0  0  1  0  0  3  0  0  0  0  0  0
  186.0390  177.1360  147.3560 C   0  0  0  0  0  2  0  0  0  0  0  0
  186.7400  178.4650  143.7890 O   0  0  0  0  0  0  0  0  0  0  0  0
  185.9870  178.5480  142.5920 C   0  0  1  0  0  3  0  0  0  0  0  0
  186.6740  177.8780  141.4040 C   0  0  0  0  0  2  0  0  0  0  0  0
  188.1790  177.9290  141.5730 C   0  0  0  0  0  1  0  0  0  0  0  0
  184.5460  178.0710  142.7530 C   0  0  0  0  0  2  0  0  0  0  0  0
  183.8850  178.1430  141.5270 O   0  0  0  0  0  1  0  0  0  0  0  0
  2  1  1  6  0  0  0
  2 25  1  0  0  0  0
  2 11  1  0  0  0  0
  4  3  1  6  0  0  0
  4  6  1  0  0  0  0
  5  9  1  1  0  0  0
  5  8  1  0  0  0  0
  6  2  1  1  0  0  0
  7  5  1  0  0  0  0
  7  4  1  0  0  0  0
  8  6  1  0  0  0  0
 10  9  1  0  0  0  0
 11 16  1  6  0  0  0
 11 12  1  0  0  0  0
 12 14  1  0  0  0  0
 12 13  1  1  0  0  0
 14 15  1  0  0  0  0
 16 17  1  0  0  0  0
 18 20  1  6  0  0  0
 18 22  1  0  0  0  0
 18 19  1  0  0  0  0
 19 17  1  1  0  0  0
 20 19  1  0  0  0  0
 21 24  1  1  0  0  0
 21 18  1  0  0  0  0
 21 22  1  0  0  0  0
 23 24  1  0  0  0  0
 26 25  1  0  0  0  0
 27 26  1  6  0  0  0
 27 28  1  0  0  0  0
 28 29  1  0  0  0  0
 28 31  1  0  0  0  0
 29 31  1  0  0  0  0
 30 32  1  6  0  0  0
 30 27  1  0  0  0  0
 30 28  1  0  0  0  0
 33 34  1  6  0  0  0
 33 36  1  0  0  0  0
 33 32  1  0  0  0  0
 34 35  1  0  0  0  0
 37 36  1  0  0  0  0
M  END
>  <MODEL>
1

>  <REMARK>
 VINA RESULT:      -6.1      0.000      0.000
  Name = 
  16 active torsions:
  status: ('A' for Active; 'I' for Inactive)
    1  A    between atoms: C_1  and  C_36
    2  A    between atoms: C_3  and  C_21
    3  A    between atoms: C_4  and  C_10
    4  A    between atoms: C_4  and  C_22
    5  A    between atoms: C_6  and  C_31
    6  A    between atoms: C_7  and  C_33
    7  A    between atoms: C_10  and  O_14
    8  A    between atoms: C_10  and  C_20
    9  A    between atoms: C_11  and  C_33
   10  A    between atoms: O_14  and  C_31
   11  A    between atoms: C_17  and  O_26
   12  A    between atoms: C_18  and  O_19
   13  A    between atoms: C_20  and  C_24
   14  A    between atoms: C_20  and  O_29
   15  A    between atoms: O_26  and  C_33
   16  A    between atoms: O_29  and  C_36
                            x       y       z     vdW  Elec       q    Type
                         _______ _______ _______ _____ _____    ______ ____

>  <TORSDO>
F 16

$$$$
=
 OpenBabel11052420103D

 37 41  0  0  1  0  0  0  0  0999 V2000
  190.8850  175.6240  142.3320 O   0  0  0  0  0  1  0  0  0  0  0  0
  189.8290  175.0400  143.0550 C   0  0  1  0  0  0  0  0  0  0  0  0
  190.3420  178.2030  144.3030 O   0  0  0  0  0  1  0  0  0  0  0  0
  190.6290  176.8730  144.6130 C   0  0  2  0  0  3  0  0  0  0  0  0
  189.6580  176.0050  146.4090 C   0  0  1  0  0  3  0  0  0  0  0  0
  189.4720  175.9920  144.2090 C   0  0  2  0  0  3  0  0  0  0  0  0
  190.7840  176.7360  145.9900 O   0  0  0  0  0  0  0  0  0  0  0  0
  189.1140  175.2690  145.3460 O   0  0  0  0  0  0  0  0  0  0  0  0
  190.0220  175.0830  147.5660 C   0  0  0  0  0  2  0  0  0  0  0  0
  191.4810  175.2360  147.9650 C   0  0  0  0  0  1  0  0  0  0  0  0
  188.5900  174.8670  142.1240 C   0  0  2  0  0  3  0  0  0  0  0  0
  188.5060  173.5520  141.3250 C   0  0  1  0  0  3  0  0  0  0  0  0
  187.4000  172.7870  141.7010 O   0  0  0  0  0  1  0  0  0  0  0  0
  188.5220  173.7680  139.8220 C   0  0  0  0  0  2  0  0  0  0  0  0
  188.0050  172.6460  139.1760 O   0  0  0  0  0  1  0  0  0  0  0  0
  188.4560  175.9520  141.2510 O   0  0  0  0  0  0  0  0  0  0  0  0
  187.0950  176.2640  141.2670 C   0  0  0  0  0  2  0  0  0  0  0  0
  185.3490  177.5390  142.4430 C   0  0  2  0  0  0  0  0  0  0  0  0
  186.7790  177.0910  142.4960 C   0  0  1  0  0  3  0  0  0  0  0  0
  185.8170  176.4530  143.2430 O   0  0  0  0  0  0  0  0  0  0  0  0
  184.3920  178.2550  143.3910 C   0  0  2  0  0  3  0  0  0  0  0  0
  185.5560  178.8480  142.9700 O   0  0  0  0  0  0  0  0  0  0  0  0
  184.3430  179.1010  145.4350 C   0  0  0  0  0  1  0  0  0  0  0  0
  184.5240  177.9040  144.7400 O   0  0  0  0  0  0  0  0  0  0  0  0
  190.2370  173.8050  143.6240 O   0  0  0  0  0  0  0  0  0  0  0  0
  191.6030  173.5870  143.3680 C   0  0  0  0  0  2  0  0  0  0  0  0
  192.3190  173.2540  144.6700 C   0  0  1  0  0  3  0  0  0  0  0  0
  193.7570  172.8140  144.3600 C   0  0  0  0  0  0  0  0  0  0  0  0
  194.7810  172.3780  145.4190 C   0  0  0  0  0  2  0  0  0  0  0  0
  193.4440  174.1730  145.0020 C   0  0  1  0  0  3  0  0  0  0  0  0
  193.6740  171.4690  145.0950 C   0  0  0  0  0  2  0  0  0  0  0  0
  193.6240  175.1940  144.0450 O   0  0  0  0  0  0  0  0  0  0  0  0
  194.5140  176.1660  144.5640 C   0  0  1  0  0  3  0  0  0  0  0  0
  194.7260  176.0420  146.0710 C   0  0  0  0  0  2  0  0  0  0  0  0
  194.2810  177.3120  146.7680 C   0  0  0  0  0  1  0  0  0  0  0  0
  195.8400  176.2310  143.8100 C   0  0  0  0  0  2  0  0  0  0  0  0
  196.7060  175.2490  144.2900 O   0  0  0  0  0  1  0  0  0  0  0  0
  2  1  1  6  0  0  0
  2 25  1  0  0  0  0
  4  3  1  1  0  0  0
  4  7  1  0  0  0  0
  5  9  1  1  0  0  0
  6  2  1  6  0  0  0
  6  4  1  0  0  0  0
  6  8  1  0  0  0  0
  7  5  1  0  0  0  0
  8  5  1  0  0  0  0
  9 10  1  0  0  0  0
 11 16  1  6  0  0  0
 11  2  1  0  0  0  0
 12 13  1  6  0  0  0
 12 11  1  0  0  0  0
 14 12  1  0  0  0  0
 15 14  1  0  0  0  0
 16 17  1  0  0  0  0
 18 19  1  0  0  0  0
 18 22  1  1  0  0  0
 18 20  1  0  0  0  0
 18 21  1  0  0  0  0
 19 17  1  6  0  0  0
 19 20  1  0  0  0  0
 21 24  1  1  0  0  0
 22 21  1  0  0  0  0
 24 23  1  0  0  0  0
 26 25  1  0  0  0  0
 27 26  1  6  0  0  0
 27 30  1  0  0  0  0
 28 27  1  0  0  0  0
 28 30  1  0  0  0  0
 28 31  1  0  0  0  0
 28 29  1  0  0  0  0
 30 32  1  6  0  0  0
 31 29  1  0  0  0  0
 32 33  1  0  0  0  0
 33 36  1  6  0  0  0
 33 34  1  0  0  0  0
 34 35  1  0  0  0  0
 36 37  1  0  0  0  0
M  END
>  <MODEL>
2

>  <REMARK>
 VINA RESULT:      -5.9      1.924      8.303
  Name = 
  16 active torsions:
  status: ('A' for Active; 'I' for Inactive)
    1  A    between atoms: C_1  and  C_36
    2  A    between atoms: C_3  and  C_21
    3  A    between atoms: C_4  and  C_10
    4  A    between atoms: C_4  and  C_22
    5  A    between atoms: C_6  and  C_31
    6  A    between atoms: C_7  and  C_33
    7  A    between atoms: C_10  and  O_14
    8  A    between atoms: C_10  and  C_20
    9  A    between atoms: C_11  and  C_33
   10  A    between atoms: O_14  and  C_31
   11  A    between atoms: C_17  and  O_26
   12  A    between atoms: C_18  and  O_19
   13  A    between atoms: C_20  and  C_24
   14  A    between atoms: C_20  and  O_29
   15  A    between atoms: O_26  and  C_33
   16  A    between atoms: O_29  and  C_36
                            x       y       z     vdW  Elec       q    Type
                         _______ _______ _______ _____ _____    ______ ____

>  <TORSDO>
F 16

$$$$
=
 OpenBabel11052420103D

 37 41  0  0  1  0  0  0  0  0999 V2000
  189.9910  177.4910  143.7220 O   0  0  0  0  0  1  0  0  0  0  0  0
  189.6590  176.1750  144.0930 C   0  0  1  0  0  0  0  0  0  0  0  0
  188.2220  175.4640  141.0520 O   0  0  0  0  0  1  0  0  0  0  0  0
  188.4370  174.8710  142.2960 C   0  0  2  0  0  3  0  0  0  0  0  0
  189.8140  173.1340  142.3810 C   0  0  1  0  0  3  0  0  0  0  0  0
  189.7790  175.2930  142.8400 C   0  0  2  0  0  3  0  0  0  0  0  0
  188.4720  173.4850  142.1550 O   0  0  0  0  0  0  0  0  0  0  0  0
  190.4700  174.1180  143.1330 O   0  0  0  0  0  0  0  0  0  0  0  0
  189.9000  171.7820  143.0790 C   0  0  0  0  0  2  0  0  0  0  0  0
  190.8230  171.8350  144.2870 C   0  0  0  0  0  1  0  0  0  0  0  0
  190.6570  175.6710  145.1810 C   0  0  2  0  0  3  0  0  0  0  0  0
  190.0730  175.4010  146.5810 C   0  0  1  0  0  3  0  0  0  0  0  0
  189.3650  174.1980  146.6240 O   0  0  0  0  0  1  0  0  0  0  0  0
  191.1200  175.4470  147.6800 C   0  0  0  0  0  2  0  0  0  0  0  0
  191.0560  176.6710  148.3450 O   0  0  0  0  0  1  0  0  0  0  0  0
  191.7600  176.5240  145.2920 O   0  0  0  0  0  0  0  0  0  0  0  0
  192.8600  175.7420  144.9380 C   0  0  0  0  0  2  0  0  0  0  0  0
  194.9530  175.6960  143.6420 C   0  0  2  0  0  0  0  0  0  0  0  0
  193.8110  176.5600  144.0890 C   0  0  1  0  0  3  0  0  0  0  0  0
  193.8440  176.0490  142.8140 O   0  0  0  0  0  0  0  0  0  0  0  0
  196.1350  175.8520  142.6900 C   0  0  2  0  0  3  0  0  0  0  0  0
  195.9790  176.6770  143.7760 O   0  0  0  0  0  0  0  0  0  0  0  0
  196.5950  175.9360  140.5280 C   0  0  0  0  0  1  0  0  0  0  0  0
  195.8630  176.5810  141.5250 O   0  0  0  0  0  0  0  0  0  0  0  0
  188.3140  176.1080  144.5410 O   0  0  0  0  0  0  0  0  0  0  0  0
  187.8220  177.4040  144.7790 C   0  0  0  0  0  2  0  0  0  0  0  0
  186.3710  177.3240  145.2330 C   0  0  1  0  0  3  0  0  0  0  0  0
  185.7670  178.7360  145.2540 C   0  0  0  0  0  0  0  0  0  0  0  0
  184.3270  179.0600  145.6800 C   0  0  0  0  0  2  0  0  0  0  0  0
  185.3810  177.7030  144.1860 C   0  0  1  0  0  3  0  0  0  0  0  0
  185.3000  178.6880  146.7160 C   0  0  0  0  0  2  0  0  0  0  0  0
  185.9800  178.0540  142.9580 O   0  0  0  0  0  0  0  0  0  0  0  0
  185.0900  177.7490  141.9010 C   0  0  1  0  0  3  0  0  0  0  0  0
  183.6370  178.0940  142.2210 C   0  0  0  0  0  2  0  0  0  0  0  0
  182.8290  178.1970  140.9430 C   0  0  0  0  0  1  0  0  0  0  0  0
  185.5250  178.3310  140.5590 C   0  0  0  0  0  2  0  0  0  0  0  0
  185.8920  177.3010  139.6930 O   0  0  0  0  0  1  0  0  0  0  0  0
  2  1  1  6  0  0  0
  2 25  1  0  0  0  0
  2 11  1  0  0  0  0
  4  3  1  6  0  0  0
  4  6  1  0  0  0  0
  5  9  1  1  0  0  0
  5  8  1  0  0  0  0
  6  8  1  0  0  0  0
  6  2  1  1  0  0  0
  7  4  1  0  0  0  0
  7  5  1  0  0  0  0
  9 10  1  0  0  0  0
 11 16  1  1  0  0  0
 11 12  1  0  0  0  0
 12 13  1  6  0  0  0
 12 14  1  0  0  0  0
 14 15  1  0  0  0  0
 17 16  1  0  0  0  0
 18 20  1  6  0  0  0
 18 22  1  0  0  0  0
 18 19  1  0  0  0  0
 19 17  1  1  0  0  0
 20 19  1  0  0  0  0
 21 24  1  6  0  0  0
 21 18  1  0  0  0  0
 21 22  1  0  0  0  0
 23 24  1  0  0  0  0
 25 26  1  0  0  0  0
 27 26  1  6  0  0  0
 27 28  1  0  0  0  0
 28 29  1  0  0  0  0
 28 31  1  0  0  0  0
 29 31  1  0  0  0  0
 30 32  1  6  0  0  0
 30 27  1  0  0  0  0
 30 28  1  0  0  0  0
 33 36  1  6  0  0  0
 33 34  1  0  0  0  0
 33 32  1  0  0  0  0
 35 34  1  0  0  0  0
 37 36  1  0  0  0  0
M  END
>  <MODEL>
3

>  <REMARK>
 VINA RESULT:      -5.7      1.481      2.132
  Name = 
  16 active torsions:
  status: ('A' for Active; 'I' for Inactive)
    1  A    between atoms: C_1  and  C_36
    2  A    between atoms: C_3  and  C_21
    3  A    between atoms: C_4  and  C_10
    4  A    between atoms: C_4  and  C_22
    5  A    between atoms: C_6  and  C_31
    6  A    between atoms: C_7  and  C_33
    7  A    between atoms: C_10  and  O_14
    8  A    between atoms: C_10  and  C_20
    9  A    between atoms: C_11  and  C_33
   10  A    between atoms: O_14  and  C_31
   11  A    between atoms: C_17  and  O_26
   12  A    between atoms: C_18  and  O_19
   13  A    between atoms: C_20  and  C_24
   14  A    between atoms: C_20  and  O_29
   15  A    between atoms: O_26  and  C_33
   16  A    between atoms: O_29  and  C_36
                            x       y       z     vdW  Elec       q    Type
                         _______ _______ _______ _____ _____    ______ ____

>  <TORSDO>
F 16

$$$$
=
 OpenBabel11052420103D

 37 41  0  0  1  0  0  0  0  0999 V2000
  189.2250  174.7470  146.2300 O   0  0  0  0  0  1  0  0  0  0  0  0
  189.5150  175.2690  144.9560 C   0  0  1  0  0  0  0  0  0  0  0  0
  191.1300  177.8290  143.3240 O   0  0  0  0  0  1  0  0  0  0  0  0
  191.4140  176.6160  143.9530 C   0  0  2  0  0  3  0  0  0  0  0  0
  192.5860  176.6850  145.8350 C   0  0  1  0  0  3  0  0  0  0  0  0
  190.5050  176.4310  145.1430 C   0  0  2  0  0  3  0  0  0  0  0  0
  192.7200  176.6330  144.4360 O   0  0  0  0  0  0  0  0  0  0  0  0
  191.3360  176.1940  146.2370 O   0  0  0  0  0  0  0  0  0  0  0  0
  193.7080  175.9020  146.5060 C   0  0  0  0  0  2  0  0  0  0  0  0
  194.9420  175.8230  145.6210 C   0  0  0  0  0  1  0  0  0  0  0  0
  190.1730  174.1620  144.0760 C   0  0  2  0  0  3  0  0  0  0  0  0
  189.3440  173.6430  142.8850 C   0  0  1  0  0  3  0  0  0  0  0  0
  189.9700  173.9050  141.6650 O   0  0  0  0  0  1  0  0  0  0  0  0
  188.9930  172.1700  143.0040 C   0  0  0  0  0  2  0  0  0  0  0  0
  189.7330  171.4310  142.0820 O   0  0  0  0  0  1  0  0  0  0  0  0
  190.5990  173.0810  144.8540 O   0  0  0  0  0  0  0  0  0  0  0  0
  191.9890  173.0700  144.7310 C   0  0  0  0  0  2  0  0  0  0  0  0
  193.6020  171.7990  143.3710 C   0  0  2  0  0  0  0  0  0  0  0  0
  192.4510  171.6850  144.3270 C   0  0  1  0  0  3  0  0  0  0  0  0
  193.7410  171.4870  144.7580 O   0  0  0  0  0  0  0  0  0  0  0  0
  194.5800  170.8290  142.7180 C   0  0  2  0  0  3  0  0  0  0  0  0
  193.2260  170.7220  142.5160 O   0  0  0  0  0  0  0  0  0  0  0  0
  195.1370  168.6890  142.6690 C   0  0  0  0  0  1  0  0  0  0  0  0
  195.0010  169.7730  143.5360 O   0  0  0  0  0  0  0  0  0  0  0  0
  188.3420  175.7930  144.3530 O   0  0  0  0  0  0  0  0  0  0  0  0
  187.8070  176.8180  145.1540 C   0  0  0  0  0  2  0  0  0  0  0  0
  186.2890  176.8200  145.0330 C   0  0  1  0  0  3  0  0  0  0  0  0
  185.7380  178.1430  145.5840 C   0  0  0  0  0  0  0  0  0  0  0  0
  184.2470  178.5040  145.6510 C   0  0  0  0  0  2  0  0  0  0  0  0
  185.7530  177.8330  144.0810 C   0  0  1  0  0  3  0  0  0  0  0  0
  184.7710  177.5060  146.5920 C   0  0  0  0  0  2  0  0  0  0  0  0
  186.7620  178.5940  143.4560 O   0  0  0  0  0  0  0  0  0  0  0  0
  186.6010  178.5190  142.0520 C   0  0  1  0  0  3  0  0  0  0  0  0
  187.8000  177.8930  141.3430 C   0  0  0  0  0  2  0  0  0  0  0  0
  187.5420  176.4240  141.0740 C   0  0  0  0  0  1  0  0  0  0  0  0
  185.2900  177.8610  141.6300 C   0  0  0  0  0  2  0  0  0  0  0  0
  184.7570  178.5310  140.5290 O   0  0  0  0  0  1  0  0  0  0  0  0
  2  1  1  1  0  0  0
  4  3  1  1  0  0  0
  4  7  1  0  0  0  0
  4  6  1  0  0  0  0
  5  8  1  0  0  0  0
  5  9  1  1  0  0  0
  6  2  1  6  0  0  0
  6  8  1  0  0  0  0
  7  5  1  0  0  0  0
 10  9  1  0  0  0  0
 11 16  1  1  0  0  0
 11  2  1  0  0  0  0
 12 13  1  6  0  0  0
 12 14  1  0  0  0  0
 12 11  1  0  0  0  0
 15 14  1  0  0  0  0
 17 16  1  0  0  0  0
 18 22  1  1  0  0  0
 18 19  1  0  0  0  0
 18 20  1  0  0  0  0
 19 17  1  1  0  0  0
 19 20  1  0  0  0  0
 21 18  1  0  0  0  0
 21 24  1  1  0  0  0
 22 21  1  0  0  0  0
 23 24  1  0  0  0  0
 25  2  1  0  0  0  0
 25 26  1  0  0  0  0
 27 26  1  6  0  0  0
 27 28  1  0  0  0  0
 28 29  1  0  0  0  0
 28 31  1  0  0  0  0
 29 31  1  0  0  0  0
 30 32  1  6  0  0  0
 30 27  1  0  0  0  0
 30 28  1  0  0  0  0
 33 34  1  6  0  0  0
 33 32  1  0  0  0  0
 35 34  1  0  0  0  0
 36 33  1  0  0  0  0
 37 36  1  0  0  0  0
M  END
>  <MODEL>
4

>  <REMARK>
 VINA RESULT:      -5.7      2.454      4.467
  Name = 
  16 active torsions:
  status: ('A' for Active; 'I' for Inactive)
    1  A    between atoms: C_1  and  C_36
    2  A    between atoms: C_3  and  C_21
    3  A    between atoms: C_4  and  C_10
    4  A    between atoms: C_4  and  C_22
    5  A    between atoms: C_6  and  C_31
    6  A    between atoms: C_7  and  C_33
    7  A    between atoms: C_10  and  O_14
    8  A    between atoms: C_10  and  C_20
    9  A    between atoms: C_11  and  C_33
   10  A    between atoms: O_14  and  C_31
   11  A    between atoms: C_17  and  O_26
   12  A    between atoms: C_18  and  O_19
   13  A    between atoms: C_20  and  C_24
   14  A    between atoms: C_20  and  O_29
   15  A    between atoms: O_26  and  C_33
   16  A    between atoms: O_29  and  C_36
                            x       y       z     vdW  Elec       q    Type
                         _______ _______ _______ _____ _____    ______ ____

>  <TORSDO>
F 16

$$$$
=
 OpenBabel11052420103D

 37 41  0  0  1  0  0  0  0  0999 V2000
  189.2380  174.7110  146.2130 O   0  0  0  0  0  1  0  0  0  0  0  0
  189.4930  175.3420  144.9820 C   0  0  1  0  0  0  0  0  0  0  0  0
  191.0480  178.0410  143.5280 O   0  0  0  0  0  1  0  0  0  0  0  0
  191.3600  176.7950  144.0730 C   0  0  2  0  0  3  0  0  0  0  0  0
  192.5320  176.7620  145.9560 C   0  0  1  0  0  3  0  0  0  0  0  0
  190.4570  176.5090  145.2470 C   0  0  2  0  0  3  0  0  0  0  0  0
  192.6660  176.8090  144.5570 O   0  0  0  0  0  0  0  0  0  0  0  0
  191.2940  176.2180  146.3240 O   0  0  0  0  0  0  0  0  0  0  0  0
  193.6720  175.9620  146.5740 C   0  0  0  0  0  2  0  0  0  0  0  0
  194.9390  176.0560  145.7370 C   0  0  0  0  0  1  0  0  0  0  0  0
  190.1620  174.3270  144.0040 C   0  0  2  0  0  3  0  0  0  0  0  0
  189.3770  173.9800  142.7250 C   0  0  1  0  0  3  0  0  0  0  0  0
  190.0930  174.3070  141.5720 O   0  0  0  0  0  1  0  0  0  0  0  0
  188.9220  172.5320  142.6820 C   0  0  0  0  0  2  0  0  0  0  0  0
  189.5900  171.8560  141.6610 O   0  0  0  0  0  1  0  0  0  0  0  0
  190.5220  173.1480  144.6650 O   0  0  0  0  0  0  0  0  0  0  0  0
  191.9120  173.2060  144.7790 C   0  0  0  0  0  2  0  0  0  0  0  0
  193.8150  173.6720  143.2880 C   0  0  2  0  0  0  0  0  0  0  0  0
  192.5440  172.8900  143.4390 C   0  0  1  0  0  3  0  0  0  0  0  0
  193.7640  172.2890  143.6370 O   0  0  0  0  0  0  0  0  0  0  0  0
  194.9600  173.7140  142.2810 C   0  0  2  0  0  3  0  0  0  0  0  0
  193.6680  173.9810  141.9040 O   0  0  0  0  0  0  0  0  0  0  0  0
  195.4590  172.6830  140.3890 C   0  0  0  0  0  1  0  0  0  0  0  0
  195.3350  172.4680  141.7620 O   0  0  0  0  0  0  0  0  0  0  0  0
  188.2960  175.8820  144.4420 O   0  0  0  0  0  0  0  0  0  0  0  0
  187.7960  176.8850  145.2910 C   0  0  0  0  0  2  0  0  0  0  0  0
  186.2770  176.9210  145.1990 C   0  0  1  0  0  3  0  0  0  0  0  0
  185.7680  178.2700  145.7290 C   0  0  0  0  0  0  0  0  0  0  0  0
  184.2870  178.6680  145.8140 C   0  0  0  0  0  2  0  0  0  0  0  0
  185.7470  177.9240  144.2330 C   0  0  1  0  0  3  0  0  0  0  0  0
  184.8050  177.6800  146.7690 C   0  0  0  0  0  2  0  0  0  0  0  0
  186.7620  178.6460  143.5720 O   0  0  0  0  0  0  0  0  0  0  0  0
  186.6350  178.4570  142.1750 C   0  0  1  0  0  3  0  0  0  0  0  0
  187.8640  177.8090  141.5420 C   0  0  0  0  0  2  0  0  0  0  0  0
  187.4700  176.5390  140.8140 C   0  0  0  0  0  1  0  0  0  0  0  0
  185.3490  177.7350  141.7800 C   0  0  0  0  0  2  0  0  0  0  0  0
  184.5750  178.5600  140.9640 O   0  0  0  0  0  1  0  0  0  0  0  0
  2  1  1  1  0  0  0
  4  3  1  1  0  0  0
  4  7  1  0  0  0  0
  4  6  1  0  0  0  0
  5  8  1  0  0  0  0
  5  9  1  1  0  0  0
  6  2  1  6  0  0  0
  6  8  1  0  0  0  0
  7  5  1  0  0  0  0
 10  9  1  0  0  0  0
 11 16  1  1  0  0  0
 11  2  1  0  0  0  0
 12 13  1  6  0  0  0
 12 11  1  0  0  0  0
 14 12  1  0  0  0  0
 15 14  1  0  0  0  0
 16 17  1  0  0  0  0
 18 22  1  6  0  0  0
 18 19  1  0  0  0  0
 18 20  1  0  0  0  0
 19 20  1  0  0  0  0
 19 17  1  1  0  0  0
 21 24  1  6  0  0  0
 21 18  1  0  0  0  0
 22 21  1  0  0  0  0
 23 24  1  0  0  0  0
 25  2  1  0  0  0  0
 25 26  1  0  0  0  0
 27 26  1  6  0  0  0
 27 28  1  0  0  0  0
 28 29  1  0  0  0  0
 28 31  1  0  0  0  0
 29 31  1  0  0  0  0
 30 32  1  6  0  0  0
 30 27  1  0  0  0  0
 30 28  1  0  0  0  0
 33 34  1  1  0  0  0
 33 32  1  0  0  0  0
 35 34  1  0  0  0  0
 36 33  1  0  0  0  0
 37 36  1  0  0  0  0
M  END
>  <MODEL>
5

>  <REMARK>
 VINA RESULT:      -5.7      1.771      4.041
  Name = 
  16 active torsions:
  status: ('A' for Active; 'I' for Inactive)
    1  A    between atoms: C_1  and  C_36
    2  A    between atoms: C_3  and  C_21
    3  A    between atoms: C_4  and  C_10
    4  A    between atoms: C_4  and  C_22
    5  A    between atoms: C_6  and  C_31
    6  A    between atoms: C_7  and  C_33
    7  A    between atoms: C_10  and  O_14
    8  A    between atoms: C_10  and  C_20
    9  A    between atoms: C_11  and  C_33
   10  A    between atoms: O_14  and  C_31
   11  A    between atoms: C_17  and  O_26
   12  A    between atoms: C_18  and  O_19
   13  A    between atoms: C_20  and  C_24
   14  A    between atoms: C_20  and  O_29
   15  A    between atoms: O_26  and  C_33
   16  A    between atoms: O_29  and  C_36
                            x       y       z     vdW  Elec       q    Type
                         _______ _______ _______ _____ _____    ______ ____

>  <TORSDO>
F 16

$$$$
=
 OpenBabel11052420103D

 37 41  0  0  1  0  0  0  0  0999 V2000
  190.6060  176.8050  142.5700 O   0  0  0  0  0  1  0  0  0  0  0  0
  190.6630  175.4100  142.7410 C   0  0  1  0  0  0  0  0  0  0  0  0
  189.8630  173.1540  145.2100 O   0  0  0  0  0  1  0  0  0  0  0  0
  189.5450  174.4500  144.8040 C   0  0  2  0  0  3  0  0  0  0  0  0
  190.1640  176.1210  146.1250 C   0  0  1  0  0  3  0  0  0  0  0  0
  190.7730  175.1290  144.2490 C   0  0  2  0  0  3  0  0  0  0  0  0
  189.1290  175.1970  145.9030 O   0  0  0  0  0  0  0  0  0  0  0  0
  190.9160  176.3210  144.9580 O   0  0  0  0  0  0  0  0  0  0  0  0
  189.5990  177.4440  146.6290 C   0  0  0  0  0  2  0  0  0  0  0  0
  188.1100  177.3410  146.9190 C   0  0  0  0  0  1  0  0  0  0  0  0
  189.3580  174.7610  142.1860 C   0  0  2  0  0  3  0  0  0  0  0  0
  189.5290  173.5010  141.3170 C   0  0  1  0  0  3  0  0  0  0  0  0
  188.7090  172.4570  141.7500 O   0  0  0  0  0  1  0  0  0  0  0  0
  189.3220  173.7670  139.8360 C   0  0  0  0  0  2  0  0  0  0  0  0
  190.5370  173.6590  139.1600 O   0  0  0  0  0  1  0  0  0  0  0  0
  188.5780  175.6980  141.5000 O   0  0  0  0  0  0  0  0  0  0  0  0
  187.3210  175.6360  142.1040 C   0  0  0  0  0  2  0  0  0  0  0  0
  185.6120  177.1360  143.0490 C   0  0  2  0  0  0  0  0  0  0  0  0
  187.0870  176.8930  142.9160 C   0  0  1  0  0  3  0  0  0  0  0  0
  186.4260  176.5720  144.0780 O   0  0  0  0  0  0  0  0  0  0  0  0
  184.7300  178.1080  143.8250 C   0  0  2  0  0  3  0  0  0  0  0  0
  185.6560  178.5540  142.9140 O   0  0  0  0  0  0  0  0  0  0  0  0
  184.0270  178.7690  145.8160 C   0  0  0  0  0  1  0  0  0  0  0  0
  185.1800  178.4130  145.1150 O   0  0  0  0  0  0  0  0  0  0  0  0
  191.8220  174.8790  142.1170 O   0  0  0  0  0  0  0  0  0  0  0  0
  192.8980  175.7710  142.2640 C   0  0  0  0  0  2  0  0  0  0  0  0
  194.1880  175.0920  141.8240 C   0  0  1  0  0  3  0  0  0  0  0  0
  195.1960  176.1590  141.3710 C   0  0  0  0  0  0  0  0  0  0  0  0
  196.6030  175.8560  140.8380 C   0  0  0  0  0  2  0  0  0  0  0  0
  195.3630  175.3920  142.6900 C   0  0  1  0  0  3  0  0  0  0  0  0
  195.4490  175.5590  139.9800 C   0  0  0  0  0  2  0  0  0  0  0  0
  195.0520  176.2440  143.7690 O   0  0  0  0  0  0  0  0  0  0  0  0
  195.6380  175.7310  144.9520 C   0  0  1  0  0  3  0  0  0  0  0  0
  194.6140  175.4070  146.0370 C   0  0  0  0  0  2  0  0  0  0  0  0
  194.0070  176.6840  146.5830 C   0  0  0  0  0  1  0  0  0  0  0  0
  196.5820  174.5590  144.6970 C   0  0  0  0  0  2  0  0  0  0  0  0
  196.9680  173.9910  145.9110 O   0  0  0  0  0  1  0  0  0  0  0  0
  2  1  1  6  0  0  0
  4  3  1  1  0  0  0
  4  7  1  0  0  0  0
  5  9  1  6  0  0  0
  6  2  1  6  0  0  0
  6  4  1  0  0  0  0
  6  8  1  0  0  0  0
  7  5  1  0  0  0  0
  8  5  1  0  0  0  0
  9 10  1  0  0  0  0
 11 16  1  6  0  0  0
 11  2  1  0  0  0  0
 12 13  1  1  0  0  0
 12 11  1  0  0  0  0
 14 12  1  0  0  0  0
 15 14  1  0  0  0  0
 16 17  1  0  0  0  0
 18 22  1  1  0  0  0
 18 21  1  0  0  0  0
 18 20  1  0  0  0  0
 19 17  1  6  0  0  0
 19 18  1  0  0  0  0
 19 20  1  0  0  0  0
 21 24  1  1  0  0  0
 22 21  1  0  0  0  0
 24 23  1  0  0  0  0
 25 26  1  0  0  0  0
 25  2  1  0  0  0  0
 27 26  1  1  0  0  0
 27 30  1  0  0  0  0
 28 27  1  0  0  0  0
 28 30  1  0  0  0  0
 29 28  1  0  0  0  0
 30 32  1  1  0  0  0
 31 29  1  0  0  0  0
 31 28  1  0  0  0  0
 32 33  1  0  0  0  0
 33 36  1  6  0  0  0
 33 34  1  0  0  0  0
 34 35  1  0  0  0  0
 36 37  1  0  0  0  0
M  END
>  <MODEL>
6

>  <REMARK>
 VINA RESULT:      -5.5      1.727      8.572
  Name = 
  16 active torsions:
  status: ('A' for Active; 'I' for Inactive)
    1  A    between atoms: C_1  and  C_36
    2  A    between atoms: C_3  and  C_21
    3  A    between atoms: C_4  and  C_10
    4  A    between atoms: C_4  and  C_22
    5  A    between atoms: C_6  and  C_31
    6  A    between atoms: C_7  and  C_33
    7  A    between atoms: C_10  and  O_14
    8  A    between atoms: C_10  and  C_20
    9  A    between atoms: C_11  and  C_33
   10  A    between atoms: O_14  and  C_31
   11  A    between atoms: C_17  and  O_26
   12  A    between atoms: C_18  and  O_19
   13  A    between atoms: C_20  and  C_24
   14  A    between atoms: C_20  and  O_29
   15  A    between atoms: O_26  and  C_33
   16  A    between atoms: O_29  and  C_36
                            x       y       z     vdW  Elec       q    Type
                         _______ _______ _______ _____ _____    ______ ____

>  <TORSDO>
F 16

$$$$
=
 OpenBabel11052420103D

 37 41  0  0  1  0  0  0  0  0999 V2000
  188.5660  177.2290  141.7160 O   0  0  0  0  0  1  0  0  0  0  0  0
  187.7130  176.2780  142.3050 C   0  0  1  0  0  0  0  0  0  0  0  0
  185.6540  178.2840  140.4170 O   0  0  0  0  0  1  0  0  0  0  0  0
  186.2120  178.2280  141.6940 C   0  0  2  0  0  3  0  0  0  0  0  0
  184.8330  177.9220  143.4040 C   0  0  1  0  0  3  0  0  0  0  0  0
  186.2720  176.7960  142.1650 C   0  0  2  0  0  3  0  0  0  0  0  0
  185.4000  178.9180  142.5910 O   0  0  0  0  0  0  0  0  0  0  0  0
  185.6180  176.7610  143.3970 O   0  0  0  0  0  0  0  0  0  0  0  0
  184.6520  178.4350  144.8280 C   0  0  0  0  0  2  0  0  0  0  0  0
  185.1140  177.4110  145.8540 C   0  0  0  0  0  1  0  0  0  0  0  0
  187.8500  174.9180  141.5550 C   0  0  2  0  0  3  0  0  0  0  0  0
  188.0740  173.6680  142.4280 C   0  0  1  0  0  3  0  0  0  0  0  0
  187.2960  172.5910  142.0000 O   0  0  0  0  0  1  0  0  0  0  0  0
  189.5360  173.2680  142.5300 C   0  0  0  0  0  2  0  0  0  0  0  0
  189.7150  171.9890  142.0030 O   0  0  0  0  0  1  0  0  0  0  0  0
  188.8400  174.9800  140.5680 O   0  0  0  0  0  0  0  0  0  0  0  0
  188.1980  174.6030  139.3870 C   0  0  0  0  0  2  0  0  0  0  0  0
  189.6050  173.7680  137.5470 C   0  0  2  0  0  0  0  0  0  0  0  0
  188.8830  173.3840  138.8050 C   0  0  1  0  0  3  0  0  0  0  0  0
  190.2450  173.5770  138.8100 O   0  0  0  0  0  0  0  0  0  0  0  0
  190.5680  173.0790  136.5850 C   0  0  2  0  0  3  0  0  0  0  0  0
  189.3050  172.5880  136.8060 O   0  0  0  0  0  0  0  0  0  0  0  0
  191.6550  171.1770  136.2840 C   0  0  0  0  0  1  0  0  0  0  0  0
  191.4980  172.2250  137.1910 O   0  0  0  0  0  0  0  0  0  0  0  0
  187.9930  176.1470  143.6900 O   0  0  0  0  0  0  0  0  0  0  0  0
  189.1120  176.9280  144.0290 C   0  0  0  0  0  2  0  0  0  0  0  0
  189.3140  176.9020  145.5390 C   0  0  1  0  0  3  0  0  0  0  0  0
  189.7810  175.5030  145.9650 C   0  0  0  0  0  0  0  0  0  0  0  0
  190.0680  175.0850  147.4140 C   0  0  0  0  0  2  0  0  0  0  0  0
  190.7290  176.7100  145.9630 C   0  0  1  0  0  3  0  0  0  0  0  0
  188.6720  175.2730  147.0000 C   0  0  0  0  0  2  0  0  0  0  0  0
  191.6230  176.6020  144.8770 O   0  0  0  0  0  0  0  0  0  0  0  0
  192.8170  175.9810  145.3170 C   0  0  1  0  0  3  0  0  0  0  0  0
  193.2120  174.7730  144.4710 C   0  0  0  0  0  2  0  0  0  0  0  0
  192.9500  173.4910  145.2360 C   0  0  0  0  0  1  0  0  0  0  0  0
  193.9780  176.9590  145.4830 C   0  0  0  0  0  2  0  0  0  0  0  0
  194.2610  177.1320  146.8370 O   0  0  0  0  0  1  0  0  0  0  0  0
  2  1  1  6  0  0  0
  2 25  1  0  0  0  0
  4  3  1  6  0  0  0
  4  6  1  0  0  0  0
  4  7  1  0  0  0  0
  5  9  1  1  0  0  0
  6  2  1  1  0  0  0
  6  8  1  0  0  0  0
  7  5  1  0  0  0  0
  8  5  1  0  0  0  0
  9 10  1  0  0  0  0
 11 16  1  6  0  0  0
 11  2  1  0  0  0  0
 11 12  1  0  0  0  0
 12 13  1  6  0  0  0
 12 14  1  0  0  0  0
 15 14  1  0  0  0  0
 17 16  1  0  0  0  0
 18 22  1  1  0  0  0
 18 19  1  0  0  0  0
 18 20  1  0  0  0  0
 19 20  1  0  0  0  0
 19 17  1  1  0  0  0
 21 22  1  0  0  0  0
 21 24  1  1  0  0  0
 21 18  1  0  0  0  0
 23 24  1  0  0  0  0
 25 26  1  0  0  0  0
 27 26  1  6  0  0  0
 27 30  1  0  0  0  0
 27 28  1  0  0  0  0
 28 31  1  0  0  0  0
 28 29  1  0  0  0  0
 30 32  1  6  0  0  0
 30 28  1  0  0  0  0
 31 29  1  0  0  0  0
 32 33  1  0  0  0  0
 33 34  1  6  0  0  0
 33 36  1  0  0  0  0
 34 35  1  0  0  0  0
 36 37  1  0  0  0  0
M  END
>  <MODEL>
7

>  <REMARK>
 VINA RESULT:      -5.5      2.753      7.095
  Name = 
  16 active torsions:
  status: ('A' for Active; 'I' for Inactive)
    1  A    between atoms: C_1  and  C_36
    2  A    between atoms: C_3  and  C_21
    3  A    between atoms: C_4  and  C_10
    4  A    between atoms: C_4  and  C_22
    5  A    between atoms: C_6  and  C_31
    6  A    between atoms: C_7  and  C_33
    7  A    between atoms: C_10  and  O_14
    8  A    between atoms: C_10  and  C_20
    9  A    between atoms: C_11  and  C_33
   10  A    between atoms: O_14  and  C_31
   11  A    between atoms: C_17  and  O_26
   12  A    between atoms: C_18  and  O_19
   13  A    between atoms: C_20  and  C_24
   14  A    between atoms: C_20  and  O_29
   15  A    between atoms: O_26  and  C_33
   16  A    between atoms: O_29  and  C_36
                            x       y       z     vdW  Elec       q    Type
                         _______ _______ _______ _____ _____    ______ ____

>  <TORSDO>
F 16

$$$$
=
 OpenBabel11052420103D

 37 41  0  0  1  0  0  0  0  0999 V2000
  188.4920  173.4400  142.3720 O   0  0  0  0  0  1  0  0  0  0  0  0
  189.6210  174.2520  142.1590 C   0  0  1  0  0  0  0  0  0  0  0  0
  190.5360  172.0650  144.6500 O   0  0  0  0  0  1  0  0  0  0  0  0
  189.9180  173.3060  144.4920 C   0  0  2  0  0  3  0  0  0  0  0  0
  190.9870  175.0910  145.2630 C   0  0  1  0  0  3  0  0  0  0  0  0
  190.5660  174.0600  143.3570 C   0  0  2  0  0  3  0  0  0  0  0  0
  190.0990  174.0700  145.6430 O   0  0  0  0  0  0  0  0  0  0  0  0
  190.9530  175.2950  143.8760 O   0  0  0  0  0  0  0  0  0  0  0  0
  190.6610  176.3830  146.0010 C   0  0  0  0  0  2  0  0  0  0  0  0
  190.4050  177.5290  145.0340 C   0  0  0  0  0  1  0  0  0  0  0  0
  190.3440  173.8070  140.8510 C   0  0  2  0  0  3  0  0  0  0  0  0
  189.5490  172.8930  139.8990 C   0  0  1  0  0  3  0  0  0  0  0  0
  189.2610  173.5280  138.6900 O   0  0  0  0  0  1  0  0  0  0  0  0
  190.2280  171.5560  139.6550 C   0  0  0  0  0  2  0  0  0  0  0  0
  189.7220  170.9730  138.4930 O   0  0  0  0  0  1  0  0  0  0  0  0
  191.5850  173.2250  141.1300 O   0  0  0  0  0  0  0  0  0  0  0  0
  192.5220  174.0560  140.5150 C   0  0  0  0  0  2  0  0  0  0  0  0
  194.5370  175.4100  140.9290 C   0  0  2  0  0  0  0  0  0  0  0  0
  193.6800  174.3000  141.4620 C   0  0  1  0  0  3  0  0  0  0  0  0
  193.5870  175.5680  141.9830 O   0  0  0  0  0  0  0  0  0  0  0  0
  195.7290  176.2120  141.4400 C   0  0  2  0  0  3  0  0  0  0  0  0
  195.7960  174.8490  141.2920 O   0  0  0  0  0  0  0  0  0  0  0  0
  197.0200  176.7970  143.1390 C   0  0  0  0  0  1  0  0  0  0  0  0
  195.6940  176.5180  142.8060 O   0  0  0  0  0  0  0  0  0  0  0  0
  189.2490  175.6210  142.1160 O   0  0  0  0  0  0  0  0  0  0  0  0
  187.9520  175.7830  142.6350 C   0  0  0  0  0  2  0  0  0  0  0  0
  187.4820  177.2120  142.4000 C   0  0  1  0  0  3  0  0  0  0  0  0
  185.9500  177.2650  142.4920 C   0  0  0  0  0  0  0  0  0  0  0  0
  185.1100  178.5340  142.2890 C   0  0  0  0  0  2  0  0  0  0  0  0
  186.8500  177.8510  143.5880 C   0  0  1  0  0  3  0  0  0  0  0  0
  185.7300  177.9070  141.1140 C   0  0  0  0  0  2  0  0  0  0  0  0
  186.8190  177.0090  144.7190 O   0  0  0  0  0  0  0  0  0  0  0  0
  186.3640  177.7470  145.8380 C   0  0  1  0  0  3  0  0  0  0  0  0
  184.9050  177.4660  146.1890 C   0  0  0  0  0  2  0  0  0  0  0  0
  184.0450  178.6690  145.8550 C   0  0  0  0  0  1  0  0  0  0  0  0
  187.2730  177.6170  147.0560 C   0  0  0  0  0  2  0  0  0  0  0  0
  186.7320  178.3260  148.1280 O   0  0  0  0  0  1  0  0  0  0  0  0
  2  1  1  1  0  0  0
  4  3  1  1  0  0  0
  4  7  1  0  0  0  0
  5  7  1  0  0  0  0
  5  9  1  1  0  0  0
  6  2  1  6  0  0  0
  6  8  1  0  0  0  0
  6  4  1  0  0  0  0
  8  5  1  0  0  0  0
 10  9  1  0  0  0  0
 11 16  1  1  0  0  0
 11  2  1  0  0  0  0
 12 13  1  6  0  0  0
 12 11  1  0  0  0  0
 14 12  1  0  0  0  0
 15 14  1  0  0  0  0
 17 16  1  0  0  0  0
 18 22  1  1  0  0  0
 18 21  1  0  0  0  0
 18 19  1  0  0  0  0
 18 20  1  0  0  0  0
 19 17  1  6  0  0  0
 19 20  1  0  0  0  0
 21 24  1  1  0  0  0
 22 21  1  0  0  0  0
 24 23  1  0  0  0  0
 25  2  1  0  0  0  0
 25 26  1  0  0  0  0
 27 28  1  0  0  0  0
 27 26  1  1  0  0  0
 27 30  1  0  0  0  0
 28 30  1  0  0  0  0
 29 28  1  0  0  0  0
 30 32  1  1  0  0  0
 31 29  1  0  0  0  0
 31 28  1  0  0  0  0
 32 33  1  0  0  0  0
 33 34  1  1  0  0  0
 33 36  1  0  0  0  0
 35 34  1  0  0  0  0
 36 37  1  0  0  0  0
M  END
>  <MODEL>
8

>  <REMARK>
 VINA RESULT:      -5.4      2.067      5.267
  Name = 
  16 active torsions:
  status: ('A' for Active; 'I' for Inactive)
    1  A    between atoms: C_1  and  C_36
    2  A    between atoms: C_3  and  C_21
    3  A    between atoms: C_4  and  C_10
    4  A    between atoms: C_4  and  C_22
    5  A    between atoms: C_6  and  C_31
    6  A    between atoms: C_7  and  C_33
    7  A    between atoms: C_10  and  O_14
    8  A    between atoms: C_10  and  C_20
    9  A    between atoms: C_11  and  C_33
   10  A    between atoms: O_14  and  C_31
   11  A    between atoms: C_17  and  O_26
   12  A    between atoms: C_18  and  O_19
   13  A    between atoms: C_20  and  C_24
   14  A    between atoms: C_20  and  O_29
   15  A    between atoms: O_26  and  C_33
   16  A    between atoms: O_29  and  C_36
                            x       y       z     vdW  Elec       q    Type
                         _______ _______ _______ _____ _____    ______ ____

>  <TORSDO>
F 16

$$$$
=
 OpenBabel11052420103D

 37 41  0  0  1  0  0  0  0  0999 V2000
  192.0940  172.9930  143.6960 O   0  0  0  0  0  1  0  0  0  0  0  0
  191.2940  174.1050  144.0170 C   0  0  1  0  0  0  0  0  0  0  0  0
  193.2010  175.9840  141.8600 O   0  0  0  0  0  1  0  0  0  0  0  0
  193.3490  175.1690  142.9820 C   0  0  2  0  0  3  0  0  0  0  0  0
  194.0120  176.1300  144.8690 C   0  0  1  0  0  3  0  0  0  0  0  0
  192.1770  175.3600  143.9120 C   0  0  2  0  0  3  0  0  0  0  0  0
  194.4920  175.5430  143.6860 O   0  0  0  0  0  0  0  0  0  0  0  0
  192.7130  175.6860  145.1580 O   0  0  0  0  0  0  0  0  0  0  0  0
  194.9490  175.8290  146.0320 C   0  0  0  0  0  2  0  0  0  0  0  0
  195.6690  174.5030  145.8400 C   0  0  0  0  0  1  0  0  0  0  0  0
  190.1160  174.2130  143.0010 C   0  0  2  0  0  3  0  0  0  0  0  0
  190.0290  173.1120  141.9270 C   0  0  1  0  0  3  0  0  0  0  0  0
  191.2090  173.0170  141.1860 O   0  0  0  0  0  1  0  0  0  0  0  0
  189.6400  171.7580  142.4930 C   0  0  0  0  0  2  0  0  0  0  0  0
  190.4930  170.7730  141.9960 O   0  0  0  0  0  1  0  0  0  0  0  0
  190.0890  175.4690  142.3860 O   0  0  0  0  0  0  0  0  0  0  0  0
  188.9380  175.4620  141.5980 C   0  0  0  0  0  2  0  0  0  0  0  0
  187.0220  176.8900  141.0020 C   0  0  2  0  0  0  0  0  0  0  0  0
  187.9740  176.5170  142.1000 C   0  0  1  0  0  3  0  0  0  0  0  0
  186.6940  176.0160  142.0820 O   0  0  0  0  0  0  0  0  0  0  0  0
  185.7700  177.7530  140.8870 C   0  0  2  0  0  3  0  0  0  0  0  0
  186.9710  178.2870  141.2820 O   0  0  0  0  0  0  0  0  0  0  0  0
  183.7340  178.3030  141.5530 C   0  0  0  0  0  1  0  0  0  0  0  0
  184.9120  177.6990  141.9920 O   0  0  0  0  0  0  0  0  0  0  0  0
  190.8290  174.0140  145.3560 O   0  0  0  0  0  0  0  0  0  0  0  0
  189.5500  174.5870  145.4590 C   0  0  0  0  0  2  0  0  0  0  0  0
  189.4190  175.3050  146.7960 C   0  0  1  0  0  3  0  0  0  0  0  0
  189.6560  176.8080  146.5910 C   0  0  0  0  0  0  0  0  0  0  0  0
  189.6270  177.8550  147.7140 C   0  0  0  0  0  2  0  0  0  0  0  0
  188.2600  176.2380  146.8780 C   0  0  1  0  0  3  0  0  0  0  0  0
  190.7720  176.9370  147.6370 C   0  0  0  0  0  2  0  0  0  0  0  0
  187.4900  176.2700  145.6960 O   0  0  0  0  0  0  0  0  0  0  0  0
  186.2210  176.8290  145.9820 C   0  0  1  0  0  3  0  0  0  0  0  0
  186.0430  177.1920  147.4550 C   0  0  0  0  0  2  0  0  0  0  0  0
  185.4410  178.5760  147.5840 C   0  0  0  0  0  1  0  0  0  0  0  0
  185.8560  177.9940  145.0660 C   0  0  0  0  0  2  0  0  0  0  0  0
  187.0170  178.6080  144.5960 O   0  0  0  0  0  1  0  0  0  0  0  0
  2  1  1  6  0  0  0
  2 25  1  0  0  0  0
  4  3  1  6  0  0  0
  4  7  1  0  0  0  0
  4  6  1  0  0  0  0
  5  8  1  0  0  0  0
  5  9  1  1  0  0  0
  6  2  1  1  0  0  0
  6  8  1  0  0  0  0
  7  5  1  0  0  0  0
 10  9  1  0  0  0  0
 11 16  1  6  0  0  0
 11  2  1  0  0  0  0
 12 13  1  1  0  0  0
 12 14  1  0  0  0  0
 12 11  1  0  0  0  0
 15 14  1  0  0  0  0
 17 16  1  0  0  0  0
 18 22  1  1  0  0  0
 18 20  1  0  0  0  0
 18 19  1  0  0  0  0
 19 17  1  6  0  0  0
 20 19  1  0  0  0  0
 21 18  1  0  0  0  0
 21 22  1  0  0  0  0
 21 24  1  1  0  0  0
 23 24  1  0  0  0  0
 25 26  1  0  0  0  0
 27 26  1  6  0  0  0
 27 30  1  0  0  0  0
 28 27  1  0  0  0  0
 28 30  1  0  0  0  0
 28 31  1  0  0  0  0
 28 29  1  0  0  0  0
 30 32  1  6  0  0  0
 31 29  1  0  0  0  0
 32 33  1  0  0  0  0
 33 36  1  6  0  0  0
 33 34  1  0  0  0  0
 34 35  1  0  0  0  0
 37 36  1  0  0  0  0
M  END
>  <MODEL>
9

>  <REMARK>
 VINA RESULT:      -5.4      1.828      6.418
  Name = 
  16 active torsions:
  status: ('A' for Active; 'I' for Inactive)
    1  A    between atoms: C_1  and  C_36
    2  A    between atoms: C_3  and  C_21
    3  A    between atoms: C_4  and  C_10
    4  A    between atoms: C_4  and  C_22
    5  A    between atoms: C_6  and  C_31
    6  A    between atoms: C_7  and  C_33
    7  A    between atoms: C_10  and  O_14
    8  A    between atoms: C_10  and  C_20
    9  A    between atoms: C_11  and  C_33
   10  A    between atoms: O_14  and  C_31
   11  A    between atoms: C_17  and  O_26
   12  A    between atoms: C_18  and  O_19
   13  A    between atoms: C_20  and  C_24
   14  A    between atoms: C_20  and  O_29
   15  A    between atoms: O_26  and  C_33
   16  A    between atoms: O_29  and  C_36
                            x       y       z     vdW  Elec       q    Type
                         _______ _______ _______ _____ _____    ______ ____

>  <TORSDO>
F 16

$$$$
