=
 OpenBabel11052420543D

 43 47  0  0  1  0  0  0  0  0999 V2000
  190.7170  172.5640  144.8690 N   0  0  0  0  0  2  0  0  0  0  0  0
  191.5770  174.7060  145.6270 C   0  0  2  0  0  3  0  0  0  0  0  0
  190.9940  173.7860  144.5910 C   0  0  0  0  0  0  0  0  0  0  0  0
  193.9120  173.5790  143.8650 N   0  0  0  0  0  0  0  0  0  0  0  0
  193.0050  174.3320  146.0090 C   0  0  0  0  0  2  0  0  0  0  0  0
  191.9920  173.6190  142.3170 C   0  0  0  0  0  2  0  0  0  0  0  0
  193.3790  174.1810  142.6210 C   0  0  2  0  0  3  0  0  0  0  0  0
  193.9700  174.6340  144.8690 C   0  0  0  0  0  2  0  0  0  0  0  0
  190.9160  174.2660  143.1780 C   0  0  0  0  0  2  0  0  0  0  0  0
  196.8230  173.8350  140.1480 C   0  0  1  0  0  3  0  0  0  0  0  0
  195.3330  175.2040  141.1800 C   0  0  0  0  0  0  0  0  0  0  0  0
  195.7920  172.7400  139.8830 C   0  0  0  0  0  2  0  0  0  0  0  0
  197.9180  173.7550  139.1070 C   0  0  0  0  0  1  0  0  0  0  0  0
  194.2520  174.1100  141.3400 C   0  0  1  0  0  3  0  0  0  0  0  0
  196.2090  175.1000  140.0830 O   0  0  0  0  0  0  0  0  0  0  0  0
  194.7970  172.7090  141.0370 C   0  0  0  0  0  2  0  0  0  0  0  0
  194.7530  176.6000  141.2620 C   0  0  0  0  0  2  0  0  0  0  0  0
  195.7560  176.1310  142.3020 C   0  0  0  0  0  2  0  0  0  0  0  0
  195.2610  173.0240  143.7540 C   0  0  0  0  0  2  0  0  0  0  0  0
  194.0880  169.6410  145.2200 C   0  0  0  0  0  2  0  0  0  0  0  0
  194.8570  169.7100  146.5400 C   0  0  2  0  0  3  0  0  0  0  0  0
  196.1330  171.6910  145.7060 C   0  0  0  0  0  2  0  0  0  0  0  0
  193.9660  171.0320  144.6060 C   0  0  0  0  0  2  0  0  0  0  0  0
  195.3540  171.6410  144.3930 C   0  0  1  0  0  3  0  0  0  0  0  0
  196.2480  170.2920  146.3020 C   0  0  0  0  0  2  0  0  0  0  0  0
  196.3440  168.1660  147.8070 C   0  0  0  0  0  1  0  0  0  0  0  0
  194.9900  168.3240  147.1420 C   0  0  0  0  0  2  0  0  0  0  0  0
  190.6630  174.9190  146.8370 C   0  0  0  0  0  2  0  0  0  0  0  0
  189.1830  175.0610  146.4850 C   0  0  0  0  0  2  0  0  0  0  0  0
  189.7950  177.3790  147.2170 C   0  0  0  0  0  1  0  0  0  0  0  0
  188.6800  176.4820  146.6990 C   0  0  1  0  0  3  0  0  0  0  0  0
  188.0260  177.0200  145.4160 C   0  0  1  0  0  3  0  0  0  0  0  0
  186.6550  177.6070  145.5980 C   0  0  0  0  0  0  0  0  0  0  0  0
  184.4560  177.4720  146.6120 C   0  0  0  0  0  3  0  0  0  0  0  0
  184.9620  179.2630  145.0650 C   0  0  0  0  0  3  0  0  0  0  0  0
  184.0640  178.6220  145.9220 C   0  0  0  0  0  3  0  0  0  0  0  0
  186.2540  178.7560  144.9020 C   0  0  0  0  0  3  0  0  0  0  0  0
  185.7490  176.9640  146.4480 C   0  0  0  0  0  3  0  0  0  0  0  0
  188.9420  177.7990  144.4560 C   0  0  0  0  0  2  0  0  0  0  0  0
  188.8510  177.3540  143.0330 C   0  0  0  0  0  0  0  0  0  0  0  0
  189.5580  177.9540  142.1290 N   0  0  0  0  0  2  0  0  0  0  0  0
  186.8600  176.4510  141.8890 C   0  0  0  0  0  1  0  0  0  0  0  0
  188.0140  176.2870  142.6970 O   0  0  0  0  0  0  0  0  0  0  0  0
  2  5  1  0  0  0  0
  2 28  1  1  0  0  0
  3  1  2  0  0  0  0
  3  2  1  0  0  0  0
  4  8  1  0  0  0  0
  6  9  1  0  0  0  0
  7  6  1  6  0  0  0
  7  4  1  0  0  0  0
  8  5  1  0  0  0  0
  9  3  1  0  0  0  0
 10 13  1  6  0  0  0
 11 17  1  0  0  0  0
 11 14  1  0  0  0  0
 11 18  1  0  0  0  0
 12 10  1  0  0  0  0
 12 16  1  0  0  0  0
 14 16  1  1  0  0  0
 14  7  1  0  0  0  0
 15 10  1  0  0  0  0
 15 11  1  0  0  0  0
 17 18  1  0  0  0  0
 19  4  1  0  0  0  0
 20 21  1  0  0  0  0
 21 27  1  6  0  0  0
 22 25  1  0  0  0  0
 23 20  1  0  0  0  0
 24 19  1  1  0  0  0
 24 23  1  0  0  0  0
 24 22  1  0  0  0  0
 25 21  1  0  0  0  0
 27 26  1  0  0  0  0
 29 31  1  0  0  0  0
 29 28  1  0  0  0  0
 31 30  1  6  0  0  0
 32 39  1  1  0  0  0
 32 33  1  0  0  0  0
 32 31  1  0  0  0  0
 33 38  1  0  0  0  0
 35 36  2  0  0  0  0
 36 34  1  0  0  0  0
 37 35  1  0  0  0  0
 37 33  2  0  0  0  0
 38 34  2  0  0  0  0
 40 39  1  0  0  0  0
 41 40  2  0  0  0  0
 42 43  1  0  0  0  0
 43 40  1  0  0  0  0
M  END
>  <MODEL>
1

>  <REMARK>
 VINA RESULT:      -7.7      0.000      0.000
  Name = 
  12 active torsions:
  status: ('A' for Active; 'I' for Inactive)
    1  A    between atoms: C_1  and  N_8
    2  A    between atoms: C_1  and  C_35
    3  A    between atoms: C_4  and  C_12
    4  A    between atoms: C_4  and  C_14
    5  A    between atoms: C_6  and  C_17
    6  A    between atoms: C_10  and  C_41
    7  A    between atoms: C_10  and  O_42
    8  A    between atoms: C_11  and  C_14
    9  A    between atoms: C_12  and  C_17
   10  A    between atoms: C_14  and  C_41
   11  A    between atoms: C_19  and  C_37
   12  A    between atoms: C_21  and  C_30
                            x       y       z     vdW  Elec       q    Type
                         _______ _______ _______ _____ _____    ______ ____

>  <TORSDO>
F 12

$$$$
=
 OpenBabel11052420543D

 43 47  0  0  1  0  0  0  0  0999 V2000
  191.8500  174.1370  145.6590 N   0  0  0  0  0  2  0  0  0  0  0  0
  190.5570  175.7800  144.4240 C   0  0  2  0  0  3  0  0  0  0  0  0
  190.7750  174.4160  145.0170 C   0  0  0  0  0  0  0  0  0  0  0  0
  191.6240  173.8730  142.1770 N   0  0  0  0  0  0  0  0  0  0  0  0
  191.4880  176.0670  143.2510 C   0  0  0  0  0  2  0  0  0  0  0  0
  190.3840  172.3570  143.6760 C   0  0  0  0  0  2  0  0  0  0  0  0
  190.4600  172.9630  142.2760 C   0  0  2  0  0  3  0  0  0  0  0  0
  191.1070  175.2280  142.0370 C   0  0  0  0  0  2  0  0  0  0  0  0
  189.8000  173.3340  144.6870 C   0  0  0  0  0  2  0  0  0  0  0  0
  190.9230  170.8260  138.6280 C   0  0  1  0  0  3  0  0  0  0  0  0
  189.6430  172.2170  139.8860 C   0  0  0  0  0  0  0  0  0  0  0  0
  191.4600  170.0590  139.8350 C   0  0  0  0  0  2  0  0  0  0  0  0
  190.9500  169.9270  137.4110 C   0  0  0  0  0  1  0  0  0  0  0  0
  190.3200  171.8340  141.2210 C   0  0  1  0  0  3  0  0  0  0  0  0
  189.6010  171.2420  138.8720 O   0  0  0  0  0  0  0  0  0  0  0  0
  191.6040  171.0220  141.0070 C   0  0  0  0  0  2  0  0  0  0  0  0
  188.2710  172.8230  140.0920 C   0  0  0  0  0  2  0  0  0  0  0  0
  189.3800  173.6490  139.4630 C   0  0  0  0  0  2  0  0  0  0  0  0
  192.5010  173.6320  141.0310 C   0  0  0  0  0  2  0  0  0  0  0  0
  195.6380  173.3250  143.2740 C   0  0  0  0  0  2  0  0  0  0  0  0
  196.2430  174.6970  142.9730 C   0  0  2  0  0  3  0  0  0  0  0  0
  194.5950  175.0300  141.1230 C   0  0  0  0  0  2  0  0  0  0  0  0
  194.1580  173.3070  142.9070 C   0  0  0  0  0  2  0  0  0  0  0  0
  193.9730  173.6690  141.4310 C   0  0  1  0  0  3  0  0  0  0  0  0
  196.0750  175.0260  141.4930 C   0  0  0  0  0  2  0  0  0  0  0  0
  197.9390  174.0700  144.6850 C   0  0  0  0  0  1  0  0  0  0  0  0
  197.7180  174.7080  143.3260 C   0  0  0  0  0  2  0  0  0  0  0  0
  190.5330  176.9020  145.4660 C   0  0  0  0  0  2  0  0  0  0  0  0
  189.1790  177.5980  145.6040 C   0  0  0  0  0  2  0  0  0  0  0  0
  187.7500  176.0590  146.9740 C   0  0  0  0  0  1  0  0  0  0  0  0
  188.0240  176.6060  145.5790 C   0  0  1  0  0  3  0  0  0  0  0  0
  186.7840  177.2400  144.9310 C   0  0  1  0  0  3  0  0  0  0  0  0
  186.7770  177.2320  143.4290 C   0  0  0  0  0  0  0  0  0  0  0  0
  187.4940  176.2020  141.3540 C   0  0  0  0  0  3  0  0  0  0  0  0
  186.1730  178.2290  141.2990 C   0  0  0  0  0  3  0  0  0  0  0  0
  186.8500  177.2070  140.6280 C   0  0  0  0  0  3  0  0  0  0  0  0
  186.1380  178.2430  142.6950 C   0  0  0  0  0  3  0  0  0  0  0  0
  187.4600  176.2170  142.7520 C   0  0  0  0  0  3  0  0  0  0  0  0
  185.4300  176.9220  145.5860 C   0  0  0  0  0  2  0  0  0  0  0  0
  184.7630  178.1040  146.2120 C   0  0  0  0  0  0  0  0  0  0  0  0
  183.9120  178.7960  145.5230 N   0  0  0  0  0  2  0  0  0  0  0  0
  186.0850  179.3540  147.8790 C   0  0  0  0  0  1  0  0  0  0  0  0
  185.0560  178.4390  147.5360 O   0  0  0  0  0  0  0  0  0  0  0  0
  2  3  1  0  0  0  0
  2 28  1  1  0  0  0
  3  1  2  0  0  0  0
  4  7  1  0  0  0  0
  5  2  1  0  0  0  0
  6  9  1  0  0  0  0
  7  6  1  1  0  0  0
  8  4  1  0  0  0  0
  8  5  1  0  0  0  0
  9  3  1  0  0  0  0
 10 13  1  6  0  0  0
 10 15  1  0  0  0  0
 10 12  1  0  0  0  0
 11 17  1  0  0  0  0
 11 14  1  0  0  0  0
 12 16  1  0  0  0  0
 14 16  1  6  0  0  0
 14  7  1  0  0  0  0
 15 11  1  0  0  0  0
 18 11  1  0  0  0  0
 18 17  1  0  0  0  0
 19  4  1  0  0  0  0
 21 20  1  0  0  0  0
 21 27  1  6  0  0  0
 22 24  1  0  0  0  0
 22 25  1  0  0  0  0
 23 20  1  0  0  0  0
 24 19  1  1  0  0  0
 24 23  1  0  0  0  0
 25 21  1  0  0  0  0
 27 26  1  0  0  0  0
 28 29  1  0  0  0  0
 31 29  1  0  0  0  0
 31 30  1  1  0  0  0
 32 31  1  0  0  0  0
 32 39  1  1  0  0  0
 33 32  1  0  0  0  0
 34 38  2  0  0  0  0
 35 37  1  0  0  0  0
 36 35  2  0  0  0  0
 36 34  1  0  0  0  0
 37 33  2  0  0  0  0
 38 33  1  0  0  0  0
 39 40  1  0  0  0  0
 40 43  1  0  0  0  0
 41 40  2  0  0  0  0
 43 42  1  0  0  0  0
M  END
>  <MODEL>
2

>  <REMARK>
 VINA RESULT:      -7.5      2.945      4.946
  Name = 
  12 active torsions:
  status: ('A' for Active; 'I' for Inactive)
    1  A    between atoms: C_1  and  N_8
    2  A    between atoms: C_1  and  C_35
    3  A    between atoms: C_4  and  C_12
    4  A    between atoms: C_4  and  C_14
    5  A    between atoms: C_6  and  C_17
    6  A    between atoms: C_10  and  C_41
    7  A    between atoms: C_10  and  O_42
    8  A    between atoms: C_11  and  C_14
    9  A    between atoms: C_12  and  C_17
   10  A    between atoms: C_14  and  C_41
   11  A    between atoms: C_19  and  C_37
   12  A    between atoms: C_21  and  C_30
                            x       y       z     vdW  Elec       q    Type
                         _______ _______ _______ _____ _____    ______ ____

>  <TORSDO>
F 12

$$$$
=
 OpenBabel11052420543D

 43 47  0  0  1  0  0  0  0  0999 V2000
  191.5050  173.9060  145.2170 N   0  0  0  0  0  2  0  0  0  0  0  0
  192.2910  176.0900  145.9290 C   0  0  2  0  0  3  0  0  0  0  0  0
  191.8710  175.0910  144.8880 C   0  0  0  0  0  0  0  0  0  0  0  0
  194.8620  174.7600  144.7250 N   0  0  0  0  0  0  0  0  0  0  0  0
  193.6130  175.7250  146.5960 C   0  0  0  0  0  2  0  0  0  0  0  0
  193.2540  174.6950  142.8570 C   0  0  0  0  0  2  0  0  0  0  0  0
  194.5830  175.2550  143.3580 C   0  0  2  0  0  3  0  0  0  0  0  0
  194.7770  175.9020  145.6280 C   0  0  0  0  0  2  0  0  0  0  0  0
  192.0650  175.4400  143.4490 C   0  0  0  0  0  2  0  0  0  0  0  0
  196.3830  174.9870  139.5130 C   0  0  1  0  0  3  0  0  0  0  0  0
  195.4300  173.8990  141.2640 C   0  0  0  0  0  0  0  0  0  0  0  0
  197.0230  176.0590  140.3920 C   0  0  0  0  0  2  0  0  0  0  0  0
  197.1960  174.8250  138.2480 C   0  0  0  0  0  1  0  0  0  0  0  0
  195.6680  175.0500  142.2680 C   0  0  1  0  0  3  0  0  0  0  0  0
  196.3430  173.7600  140.2020 O   0  0  0  0  0  0  0  0  0  0  0  0
  196.1010  176.3460  141.5710 C   0  0  0  0  0  2  0  0  0  0  0  0
  195.2190  172.5690  141.9560 C   0  0  0  0  0  2  0  0  0  0  0  0
  194.1050  173.1770  141.1210 C   0  0  0  0  0  2  0  0  0  0  0  0
  196.1880  174.1700  144.9100 C   0  0  0  0  0  2  0  0  0  0  0  0
  197.1230  170.5080  145.7370 C   0  0  0  0  0  2  0  0  0  0  0  0
  195.7450  169.8850  145.5040 C   0  0  2  0  0  3  0  0  0  0  0  0
  194.7290  172.1640  145.3510 C   0  0  0  0  0  2  0  0  0  0  0  0
  197.2120  171.8680  145.0500 C   0  0  0  0  0  2  0  0  0  0  0  0
  196.1050  172.7930  145.5620 C   0  0  1  0  0  3  0  0  0  0  0  0
  194.6590  170.8090  146.0470 C   0  0  0  0  0  2  0  0  0  0  0  0
  196.0840  168.6670  147.6480 C   0  0  0  0  0  1  0  0  0  0  0  0
  195.6550  168.5400  146.1990 C   0  0  0  0  0  2  0  0  0  0  0  0
  191.1840  176.4320  146.9300 C   0  0  0  0  0  2  0  0  0  0  0  0
  190.0390  177.2540  146.3380 C   0  0  0  0  0  2  0  0  0  0  0  0
  188.4910  175.3970  147.0030 C   0  0  0  0  0  1  0  0  0  0  0  0
  188.8740  176.3760  145.9020 C   0  0  1  0  0  3  0  0  0  0  0  0
  187.6940  177.2420  145.4340 C   0  0  1  0  0  3  0  0  0  0  0  0
  187.5330  177.3470  143.9440 C   0  0  0  0  0  0  0  0  0  0  0  0
  188.4830  177.9250  141.7880 C   0  0  0  0  0  3  0  0  0  0  0  0
  186.1810  177.1920  141.9340 C   0  0  0  0  0  3  0  0  0  0  0  0
  187.2670  177.6250  141.1680 C   0  0  0  0  0  3  0  0  0  0  0  0
  186.3130  177.0550  143.3180 C   0  0  0  0  0  3  0  0  0  0  0  0
  188.6140  177.7890  143.1740 C   0  0  0  0  0  3  0  0  0  0  0  0
  186.3790  177.0890  146.2180 C   0  0  0  0  0  2  0  0  0  0  0  0
  186.0390  178.2680  147.0710 C   0  0  0  0  0  0  0  0  0  0  0  0
  186.7760  178.5480  148.0980 N   0  0  0  0  0  2  0  0  0  0  0  0
  184.0230  178.7040  145.7160 C   0  0  0  0  0  1  0  0  0  0  0  0
  184.9370  179.0610  146.7410 O   0  0  0  0  0  0  0  0  0  0  0  0
  2  5  1  0  0  0  0
  2 28  1  1  0  0  0
  3  1  2  0  0  0  0
  3  2  1  0  0  0  0
  4 19  1  0  0  0  0
  4  8  1  0  0  0  0
  6  9  1  0  0  0  0
  7  6  1  6  0  0  0
  7  4  1  0  0  0  0
  8  5  1  0  0  0  0
  9  3  1  0  0  0  0
 10 13  1  6  0  0  0
 10 15  1  0  0  0  0
 10 12  1  0  0  0  0
 11 17  1  0  0  0  0
 11 14  1  0  0  0  0
 12 16  1  0  0  0  0
 14 16  1  6  0  0  0
 14  7  1  0  0  0  0
 15 11  1  0  0  0  0
 18 11  1  0  0  0  0
 18 17  1  0  0  0  0
 21 20  1  0  0  0  0
 21 25  1  0  0  0  0
 21 27  1  1  0  0  0
 22 24  1  0  0  0  0
 22 25  1  0  0  0  0
 23 24  1  0  0  0  0
 23 20  1  0  0  0  0
 24 19  1  6  0  0  0
 27 26  1  0  0  0  0
 29 28  1  0  0  0  0
 31 29  1  0  0  0  0
 31 30  1  1  0  0  0
 32 31  1  0  0  0  0
 32 39  1  1  0  0  0
 33 32  1  0  0  0  0
 34 38  1  0  0  0  0
 35 37  2  0  0  0  0
 36 34  2  0  0  0  0
 36 35  1  0  0  0  0
 37 33  1  0  0  0  0
 38 33  2  0  0  0  0
 39 40  1  0  0  0  0
 40 41  2  0  0  0  0
 42 43  1  0  0  0  0
 43 40  1  0  0  0  0
M  END
>  <MODEL>
3

>  <REMARK>
 VINA RESULT:      -7.4      1.835      3.066
  Name = 
  12 active torsions:
  status: ('A' for Active; 'I' for Inactive)
    1  A    between atoms: C_1  and  N_8
    2  A    between atoms: C_1  and  C_35
    3  A    between atoms: C_4  and  C_12
    4  A    between atoms: C_4  and  C_14
    5  A    between atoms: C_6  and  C_17
    6  A    between atoms: C_10  and  C_41
    7  A    between atoms: C_10  and  O_42
    8  A    between atoms: C_11  and  C_14
    9  A    between atoms: C_12  and  C_17
   10  A    between atoms: C_14  and  C_41
   11  A    between atoms: C_19  and  C_37
   12  A    between atoms: C_21  and  C_30
                            x       y       z     vdW  Elec       q    Type
                         _______ _______ _______ _____ _____    ______ ____

>  <TORSDO>
F 12

$$$$
=
 OpenBabel11052420543D

 43 47  0  0  1  0  0  0  0  0999 V2000
  192.3050  172.7090  144.6870 N   0  0  0  0  0  2  0  0  0  0  0  0
  190.7920  174.5140  144.0960 C   0  0  2  0  0  3  0  0  0  0  0  0
  191.1470  173.0630  144.2620 C   0  0  0  0  0  0  0  0  0  0  0  0
  191.6760  173.3790  141.3110 N   0  0  0  0  0  0  0  0  0  0  0  0
  191.5600  175.1830  142.9600 C   0  0  0  0  0  2  0  0  0  0  0  0
  190.7020  171.4180  142.4480 C   0  0  0  0  0  2  0  0  0  0  0  0
  190.5790  172.3840  141.2710 C   0  0  2  0  0  3  0  0  0  0  0  0
  191.0780  174.6750  141.6060 C   0  0  0  0  0  2  0  0  0  0  0  0
  190.1950  172.0350  143.7440 C   0  0  0  0  0  2  0  0  0  0  0  0
  190.6970  171.3630  137.1440 C   0  0  1  0  0  3  0  0  0  0  0  0
  189.5110  172.2460  138.8680 C   0  0  0  0  0  0  0  0  0  0  0  0
  191.4220  170.3490  138.0250 C   0  0  0  0  0  2  0  0  0  0  0  0
  190.6200  170.8330  135.7290 C   0  0  0  0  0  1  0  0  0  0  0  0
  190.3700  171.5760  139.9640 C   0  0  1  0  0  3  0  0  0  0  0  0
  189.3950  171.5810  137.6320 O   0  0  0  0  0  0  0  0  0  0  0  0
  191.6590  170.9670  139.3980 C   0  0  0  0  0  2  0  0  0  0  0  0
  188.1440  172.6510  139.3780 C   0  0  0  0  0  2  0  0  0  0  0  0
  189.1190  173.7090  138.8910 C   0  0  0  0  0  2  0  0  0  0  0  0
  192.4190  173.5290  140.0600 C   0  0  0  0  0  2  0  0  0  0  0  0
  195.8430  173.2890  141.8450 C   0  0  0  0  0  2  0  0  0  0  0  0
  196.1870  174.7790  141.8340 C   0  0  2  0  0  3  0  0  0  0  0  0
  194.2710  175.2210  140.2900 C   0  0  0  0  0  2  0  0  0  0  0  0
  194.3460  173.0900  141.6290 C   0  0  0  0  0  2  0  0  0  0  0  0
  193.9100  173.7370  140.3130 C   0  0  1  0  0  3  0  0  0  0  0  0
  195.7710  175.3980  140.5030 C   0  0  0  0  0  2  0  0  0  0  0  0
  197.9410  176.2250  142.8490 C   0  0  0  0  0  1  0  0  0  0  0  0
  197.6780  174.9730  142.0340 C   0  0  0  0  0  2  0  0  0  0  0  0
  190.8370  175.3070  145.4060 C   0  0  0  0  0  2  0  0  0  0  0  0
  189.4620  175.6510  145.9750 C   0  0  0  0  0  2  0  0  0  0  0  0
  190.1720  177.8710  145.0500 C   0  0  0  0  0  1  0  0  0  0  0  0
  188.9990  177.0380  145.5490 C   0  0  1  0  0  3  0  0  0  0  0  0
  187.8610  176.9320  144.5220 C   0  0  1  0  0  3  0  0  0  0  0  0
  186.5650  177.5670  144.9400 C   0  0  0  0  0  0  0  0  0  0  0  0
  184.5530  177.4840  146.2920 C   0  0  0  0  0  3  0  0  0  0  0  0
  184.8870  179.3100  144.7390 C   0  0  0  0  0  3  0  0  0  0  0  0
  184.1080  178.6750  145.7100 C   0  0  0  0  0  3  0  0  0  0  0  0
  186.1110  178.7580  144.3540 C   0  0  0  0  0  3  0  0  0  0  0  0
  185.7770  176.9300  145.9050 C   0  0  0  0  0  3  0  0  0  0  0  0
  188.2440  177.1550  143.0490 C   0  0  0  0  0  2  0  0  0  0  0  0
  187.5920  176.2020  142.1000 C   0  0  0  0  0  0  0  0  0  0  0  0
  187.5960  174.9340  142.3640 N   0  0  0  0  0  2  0  0  0  0  0  0
  185.9980  177.7200  140.9850 C   0  0  0  0  0  1  0  0  0  0  0  0
  186.9760  176.6930  140.9460 O   0  0  0  0  0  0  0  0  0  0  0  0
  2  3  1  0  0  0  0
  2 28  1  1  0  0  0
  3  1  2  0  0  0  0
  4  8  1  0  0  0  0
  5  2  1  0  0  0  0
  6  9  1  0  0  0  0
  7  4  1  0  0  0  0
  7  6  1  1  0  0  0
  8  5  1  0  0  0  0
  9  3  1  0  0  0  0
 10 13  1  6  0  0  0
 10 15  1  0  0  0  0
 10 12  1  0  0  0  0
 11 18  1  0  0  0  0
 11 17  1  0  0  0  0
 11 14  1  0  0  0  0
 12 16  1  0  0  0  0
 14 16  1  6  0  0  0
 14  7  1  0  0  0  0
 15 11  1  0  0  0  0
 18 17  1  0  0  0  0
 19  4  1  0  0  0  0
 21 20  1  0  0  0  0
 21 27  1  6  0  0  0
 22 24  1  0  0  0  0
 22 25  1  0  0  0  0
 23 20  1  0  0  0  0
 24 19  1  1  0  0  0
 24 23  1  0  0  0  0
 25 21  1  0  0  0  0
 27 26  1  0  0  0  0
 28 29  1  0  0  0  0
 31 30  1  6  0  0  0
 31 29  1  0  0  0  0
 32 39  1  6  0  0  0
 32 33  1  0  0  0  0
 32 31  1  0  0  0  0
 33 38  1  0  0  0  0
 35 36  2  0  0  0  0
 36 34  1  0  0  0  0
 37 35  1  0  0  0  0
 37 33  2  0  0  0  0
 38 34  2  0  0  0  0
 40 41  2  0  0  0  0
 40 39  1  0  0  0  0
 43 42  1  0  0  0  0
 43 40  1  0  0  0  0
M  END
>  <MODEL>
4

>  <REMARK>
 VINA RESULT:      -7.3      2.980      4.710
  Name = 
  12 active torsions:
  status: ('A' for Active; 'I' for Inactive)
    1  A    between atoms: C_1  and  N_8
    2  A    between atoms: C_1  and  C_35
    3  A    between atoms: C_4  and  C_12
    4  A    between atoms: C_4  and  C_14
    5  A    between atoms: C_6  and  C_17
    6  A    between atoms: C_10  and  C_41
    7  A    between atoms: C_10  and  O_42
    8  A    between atoms: C_11  and  C_14
    9  A    between atoms: C_12  and  C_17
   10  A    between atoms: C_14  and  C_41
   11  A    between atoms: C_19  and  C_37
   12  A    between atoms: C_21  and  C_30
                            x       y       z     vdW  Elec       q    Type
                         _______ _______ _______ _____ _____    ______ ____

>  <TORSDO>
F 12

$$$$
=
 OpenBabel11052420543D

 43 47  0  0  1  0  0  0  0  0999 V2000
  191.0420  173.4910  145.7070 N   0  0  0  0  0  2  0  0  0  0  0  0
  189.9670  175.5630  145.0360 C   0  0  2  0  0  3  0  0  0  0  0  0
  190.1170  174.0680  145.0300 C   0  0  0  0  0  0  0  0  0  0  0  0
  191.5790  174.7320  142.4800 N   0  0  0  0  0  0  0  0  0  0  0  0
  191.1130  176.2720  144.3230 C   0  0  0  0  0  2  0  0  0  0  0  0
  190.1190  172.7870  142.8960 C   0  0  0  0  0  2  0  0  0  0  0  0
  190.4650  173.9230  141.9340 C   0  0  2  0  0  3  0  0  0  0  0  0
  191.0400  176.0430  142.8170 C   0  0  0  0  0  2  0  0  0  0  0  0
  189.2870  173.2740  144.0740 C   0  0  0  0  0  2  0  0  0  0  0  0
  189.7720  171.4870  138.5180 C   0  0  1  0  0  3  0  0  0  0  0  0
  191.0110  171.8650  140.3830 C   0  0  0  0  0  0  0  0  0  0  0  0
  189.5420  172.9700  138.2420 C   0  0  0  0  0  2  0  0  0  0  0  0
  189.6940  170.7170  137.2170 C   0  0  0  0  0  1  0  0  0  0  0  0
  190.6070  173.3530  140.4990 C   0  0  1  0  0  3  0  0  0  0  0  0
  191.0410  171.2950  139.0970 O   0  0  0  0  0  0  0  0  0  0  0  0
  189.4390  173.7090  139.5710 C   0  0  0  0  0  2  0  0  0  0  0  0
  192.2950  171.5610  141.1250 C   0  0  0  0  0  2  0  0  0  0  0  0
  190.9940  170.9020  141.5530 C   0  0  0  0  0  2  0  0  0  0  0  0
  192.6910  174.9540  141.5550 C   0  0  0  0  0  2  0  0  0  0  0  0
  195.1840  173.3660  144.0500 C   0  0  0  0  0  2  0  0  0  0  0  0
  196.0120  174.6190  144.3420 C   0  0  2  0  0  3  0  0  0  0  0  0
  194.8740  175.8200  142.4680 C   0  0  0  0  0  2  0  0  0  0  0  0
  193.8330  173.7510  143.4570 C   0  0  0  0  0  2  0  0  0  0  0  0
  194.0290  174.5790  142.1840 C   0  0  1  0  0  3  0  0  0  0  0  0
  196.2210  175.4140  143.0570 C   0  0  0  0  0  2  0  0  0  0  0  0
  197.1780  173.4050  146.1770 C   0  0  0  0  0  1  0  0  0  0  0  0
  197.3610  174.2330  144.9190 C   0  0  0  0  0  2  0  0  0  0  0  0
  189.6680  176.1410  146.4230 C   0  0  0  0  0  2  0  0  0  0  0  0
  188.6810  177.3070  146.4140 C   0  0  0  0  0  2  0  0  0  0  0  0
  186.4410  176.8910  147.4600 C   0  0  0  0  0  1  0  0  0  0  0  0
  187.2510  176.8410  146.1730 C   0  0  1  0  0  3  0  0  0  0  0  0
  186.6090  177.6440  145.0300 C   0  0  1  0  0  3  0  0  0  0  0  0
  187.0540  177.2540  143.6500 C   0  0  0  0  0  0  0  0  0  0  0  0
  188.1070  177.8730  141.5540 C   0  0  0  0  0  3  0  0  0  0  0  0
  187.1850  175.6520  141.8300 C   0  0  0  0  0  3  0  0  0  0  0  0
  187.8460  176.5980  141.0430 C   0  0  0  0  0  3  0  0  0  0  0  0
  186.7880  175.9790  143.1290 C   0  0  0  0  0  3  0  0  0  0  0  0
  187.7080  178.2000  142.8540 C   0  0  0  0  0  3  0  0  0  0  0  0
  185.1070  177.9460  145.1650 C   0  0  0  0  0  2  0  0  0  0  0  0
  184.6610  179.1610  144.4180 C   0  0  0  0  0  0  0  0  0  0  0  0
  185.2620  180.2910  144.6180 N   0  0  0  0  0  2  0  0  0  0  0  0
  183.7090  178.2900  142.3150 C   0  0  0  0  0  1  0  0  0  0  0  0
  183.6110  179.0590  143.5030 O   0  0  0  0  0  0  0  0  0  0  0  0
  2 28  1  1  0  0  0
  3  2  1  0  0  0  0
  3  1  2  0  0  0  0
  4  8  1  0  0  0  0
  5  2  1  0  0  0  0
  6  9  1  0  0  0  0
  7  4  1  0  0  0  0
  7  6  1  1  0  0  0
  8  5  1  0  0  0  0
  9  3  1  0  0  0  0
 10 13  1  6  0  0  0
 10 15  1  0  0  0  0
 11 14  1  0  0  0  0
 11 17  1  0  0  0  0
 11 18  1  0  0  0  0
 12 10  1  0  0  0  0
 12 16  1  0  0  0  0
 14 16  1  1  0  0  0
 14  7  1  0  0  0  0
 15 11  1  0  0  0  0
 17 18  1  0  0  0  0
 19  4  1  0  0  0  0
 20 21  1  0  0  0  0
 21 27  1  6  0  0  0
 22 25  1  0  0  0  0
 23 20  1  0  0  0  0
 24 19  1  1  0  0  0
 24 22  1  0  0  0  0
 24 23  1  0  0  0  0
 25 21  1  0  0  0  0
 27 26  1  0  0  0  0
 29 28  1  0  0  0  0
 31 29  1  0  0  0  0
 31 30  1  1  0  0  0
 32 39  1  6  0  0  0
 32 31  1  0  0  0  0
 33 32  1  0  0  0  0
 34 38  1  0  0  0  0
 35 37  2  0  0  0  0
 36 34  2  0  0  0  0
 36 35  1  0  0  0  0
 37 33  1  0  0  0  0
 38 33  2  0  0  0  0
 40 41  2  0  0  0  0
 40 39  1  0  0  0  0
 42 43  1  0  0  0  0
 43 40  1  0  0  0  0
M  END
>  <MODEL>
5

>  <REMARK>
 VINA RESULT:      -7.2      2.715      4.686
  Name = 
  12 active torsions:
  status: ('A' for Active; 'I' for Inactive)
    1  A    between atoms: C_1  and  N_8
    2  A    between atoms: C_1  and  C_35
    3  A    between atoms: C_4  and  C_12
    4  A    between atoms: C_4  and  C_14
    5  A    between atoms: C_6  and  C_17
    6  A    between atoms: C_10  and  C_41
    7  A    between atoms: C_10  and  O_42
    8  A    between atoms: C_11  and  C_14
    9  A    between atoms: C_12  and  C_17
   10  A    between atoms: C_14  and  C_41
   11  A    between atoms: C_19  and  C_37
   12  A    between atoms: C_21  and  C_30
                            x       y       z     vdW  Elec       q    Type
                         _______ _______ _______ _____ _____    ______ ____

>  <TORSDO>
F 12

$$$$
=
 OpenBabel11052420543D

 43 47  0  0  1  0  0  0  0  0999 V2000
  193.9700  177.4410  145.3220 N   0  0  0  0  0  2  0  0  0  0  0  0
  192.4970  176.4230  143.6810 C   0  0  2  0  0  3  0  0  0  0  0  0
  193.1210  176.5190  145.0450 C   0  0  0  0  0  0  0  0  0  0  0  0
  194.9070  174.4240  143.8180 N   0  0  0  0  0  0  0  0  0  0  0  0
  193.4960  176.0120  142.6040 C   0  0  0  0  0  2  0  0  0  0  0  0
  194.1050  174.5170  146.1490 C   0  0  0  0  0  2  0  0  0  0  0  0
  194.3040  173.6360  144.9170 C   0  0  2  0  0  3  0  0  0  0  0  0
  193.9030  174.5520  142.7700 C   0  0  0  0  0  2  0  0  0  0  0  0
  192.8790  175.4100  146.0160 C   0  0  0  0  0  2  0  0  0  0  0  0
  196.6690  170.1100  144.6660 C   0  0  1  0  0  3  0  0  0  0  0  0
  194.6020  171.0440  144.5520 C   0  0  0  0  0  0  0  0  0  0  0  0
  197.1620  171.0770  145.7390 C   0  0  0  0  0  2  0  0  0  0  0  0
  197.4370  168.8110  144.7700 C   0  0  0  0  0  1  0  0  0  0  0  0
  194.9980  172.3150  145.3390 C   0  0  1  0  0  3  0  0  0  0  0  0
  195.2960  169.8540  144.8420 O   0  0  0  0  0  0  0  0  0  0  0  0
  196.5170  172.4390  145.5100 C   0  0  0  0  0  2  0  0  0  0  0  0
  193.1080  170.8020  144.5700 C   0  0  0  0  0  2  0  0  0  0  0  0
  193.8180  171.0750  143.2550 C   0  0  0  0  0  2  0  0  0  0  0  0
  196.0890  173.8200  143.2020 C   0  0  0  0  0  2  0  0  0  0  0  0
  196.6540  173.5870  139.3820 C   0  0  0  0  0  2  0  0  0  0  0  0
  197.8030  174.5920  139.2810 C   0  0  2  0  0  3  0  0  0  0  0  0
  197.4060  175.3000  141.6450 C   0  0  0  0  0  2  0  0  0  0  0  0
  196.5030  173.0990  140.8190 C   0  0  0  0  0  2  0  0  0  0  0  0
  196.2700  174.2840  141.7600 C   0  0  1  0  0  3  0  0  0  0  0  0
  197.5380  175.7780  140.2030 C   0  0  0  0  0  2  0  0  0  0  0  0
  196.5740  175.2450  137.2160 C   0  0  0  0  0  1  0  0  0  0  0  0
  197.9410  175.0860  137.8530 C   0  0  0  0  0  2  0  0  0  0  0  0
  191.6710  177.6550  143.3000 C   0  0  0  0  0  2  0  0  0  0  0  0
  190.5700  178.0030  144.3010 C   0  0  0  0  0  2  0  0  0  0  0  0
  189.3170  177.9140  142.1310 C   0  0  0  0  0  1  0  0  0  0  0  0
  189.1980  178.0610  143.6420 C   0  0  1  0  0  3  0  0  0  0  0  0
  188.2550  177.0250  144.2720 C   0  0  1  0  0  3  0  0  0  0  0  0
  188.9020  175.7240  144.6550 C   0  0  0  0  0  0  0  0  0  0  0  0
  189.8350  173.5900  143.9790 C   0  0  0  0  0  3  0  0  0  0  0  0
  189.6910  174.1520  146.3290 C   0  0  0  0  0  3  0  0  0  0  0  0
  190.0530  173.2570  145.3190 C   0  0  0  0  0  3  0  0  0  0  0  0
  189.1160  175.3820  145.9980 C   0  0  0  0  0  3  0  0  0  0  0  0
  189.2580  174.8200  143.6490 C   0  0  0  0  0  3  0  0  0  0  0  0
  187.2280  177.5590  145.2840 C   0  0  0  0  0  2  0  0  0  0  0  0
  185.8050  177.3230  144.8910 C   0  0  0  0  0  0  0  0  0  0  0  0
  185.5080  177.1500  143.6420 N   0  0  0  0  0  2  0  0  0  0  0  0
  184.4430  178.4220  146.6300 C   0  0  0  0  0  1  0  0  0  0  0  0
  184.8170  177.2790  145.8760 O   0  0  0  0  0  0  0  0  0  0  0  0
  2 28  1  6  0  0  0
  2  3  1  0  0  0  0
  3  1  2  0  0  0  0
  3  9  1  0  0  0  0
  4  7  1  0  0  0  0
  5  8  1  0  0  0  0
  5  2  1  0  0  0  0
  7 14  1  0  0  0  0
  7  6  1  1  0  0  0
  8  4  1  0  0  0  0
  9  6  1  0  0  0  0
 10 13  1  1  0  0  0
 10 15  1  0  0  0  0
 10 12  1  0  0  0  0
 11 17  1  0  0  0  0
 11 15  1  0  0  0  0
 11 14  1  0  0  0  0
 14 16  1  6  0  0  0
 16 12  1  0  0  0  0
 18 11  1  0  0  0  0
 18 17  1  0  0  0  0
 19  4  1  0  0  0  0
 20 23  1  0  0  0  0
 21 27  1  6  0  0  0
 21 20  1  0  0  0  0
 21 25  1  0  0  0  0
 22 24  1  0  0  0  0
 23 24  1  0  0  0  0
 24 19  1  1  0  0  0
 25 22  1  0  0  0  0
 26 27  1  0  0  0  0
 28 29  1  0  0  0  0
 31 30  1  6  0  0  0
 31 32  1  0  0  0  0
 31 29  1  0  0  0  0
 32 33  1  0  0  0  0
 32 39  1  1  0  0  0
 33 37  1  0  0  0  0
 34 36  2  0  0  0  0
 36 35  1  0  0  0  0
 37 35  2  0  0  0  0
 38 34  1  0  0  0  0
 38 33  2  0  0  0  0
 40 39  1  0  0  0  0
 40 43  1  0  0  0  0
 41 40  2  0  0  0  0
 43 42  1  0  0  0  0
M  END
>  <MODEL>
6

>  <REMARK>
 VINA RESULT:      -7.2      2.235      5.742
  Name = 
  12 active torsions:
  status: ('A' for Active; 'I' for Inactive)
    1  A    between atoms: C_1  and  N_8
    2  A    between atoms: C_1  and  C_35
    3  A    between atoms: C_4  and  C_12
    4  A    between atoms: C_4  and  C_14
    5  A    between atoms: C_6  and  C_17
    6  A    between atoms: C_10  and  C_41
    7  A    between atoms: C_10  and  O_42
    8  A    between atoms: C_11  and  C_14
    9  A    between atoms: C_12  and  C_17
   10  A    between atoms: C_14  and  C_41
   11  A    between atoms: C_19  and  C_37
   12  A    between atoms: C_21  and  C_30
                            x       y       z     vdW  Elec       q    Type
                         _______ _______ _______ _____ _____    ______ ____

>  <TORSDO>
F 12

$$$$
=
 OpenBabel11052420543D

 43 47  0  0  1  0  0  0  0  0999 V2000
  191.2480  170.3720  142.8050 N   0  0  0  0  0  2  0  0  0  0  0  0
  193.0000  172.0030  143.2150 C   0  0  2  0  0  3  0  0  0  0  0  0
  191.6830  171.3460  143.5190 C   0  0  0  0  0  0  0  0  0  0  0  0
  190.7080  173.7180  141.9360 N   0  0  0  0  0  0  0  0  0  0  0  0
  192.9750  172.7960  141.9120 C   0  0  0  0  0  2  0  0  0  0  0  0
  189.6320  172.7010  143.9080 C   0  0  0  0  0  2  0  0  0  0  0  0
  190.0740  174.0030  143.2430 C   0  0  2  0  0  3  0  0  0  0  0  0
  192.1220  174.0510  142.0560 C   0  0  0  0  0  2  0  0  0  0  0  0
  190.8000  171.9670  144.5510 C   0  0  0  0  0  2  0  0  0  0  0  0
  187.5610  177.2470  142.1220 C   0  0  1  0  0  3  0  0  0  0  0  0
  189.2920  176.5130  143.3970 C   0  0  0  0  0  0  0  0  0  0  0  0
  186.8160  175.9150  142.1810 C   0  0  0  0  0  2  0  0  0  0  0  0
  186.5680  178.3670  141.9070 C   0  0  0  0  0  1  0  0  0  0  0  0
  188.9040  175.0210  143.2830 C   0  0  1  0  0  3  0  0  0  0  0  0
  188.2560  177.4640  143.3270 O   0  0  0  0  0  0  0  0  0  0  0  0
  187.8340  174.7820  142.2110 C   0  0  0  0  0  2  0  0  0  0  0  0
  190.1770  176.7860  144.5940 C   0  0  0  0  0  2  0  0  0  0  0  0
  190.7020  177.0290  143.1890 C   0  0  0  0  0  2  0  0  0  0  0  0
  190.1840  174.4940  140.8120 C   0  0  0  0  0  2  0  0  0  0  0  0
  189.4120  171.3480  138.6960 C   0  0  0  0  0  2  0  0  0  0  0  0
  190.6610  171.3810  137.8130 C   0  0  2  0  0  3  0  0  0  0  0  0
  191.2210  173.6610  138.6720 C   0  0  0  0  0  2  0  0  0  0  0  0
  189.6300  172.1870  139.9520 C   0  0  0  0  0  2  0  0  0  0  0  0
  189.9870  173.6260  139.5720 C   0  0  1  0  0  3  0  0  0  0  0  0
  190.9820  172.8210  137.4220 C   0  0  0  0  0  2  0  0  0  0  0  0
  189.4800  171.2740  135.6240 C   0  0  0  0  0  1  0  0  0  0  0  0
  190.4370  170.5580  136.5590 C   0  0  0  0  0  2  0  0  0  0  0  0
  194.1960  171.0530  143.3210 C   0  0  0  0  0  2  0  0  0  0  0  0
  195.5260  171.7520  143.6000 C   0  0  0  0  0  2  0  0  0  0  0  0
  196.6520  171.9850  145.8270 C   0  0  0  0  0  1  0  0  0  0  0  0
  195.5190  172.4770  144.9380 C   0  0  1  0  0  3  0  0  0  0  0  0
  195.5430  173.9990  144.7250 C   0  0  1  0  0  3  0  0  0  0  0  0
  194.5260  174.7690  145.5180 C   0  0  0  0  0  0  0  0  0  0  0  0
  193.9060  176.8080  146.6760 C   0  0  0  0  0  3  0  0  0  0  0  0
  192.3950  174.9180  146.6720 C   0  0  0  0  0  3  0  0  0  0  0  0
  192.6920  176.2280  147.0550 C   0  0  0  0  0  3  0  0  0  0  0  0
  193.3100  174.1900  145.9070 C   0  0  0  0  0  3  0  0  0  0  0  0
  194.8220  176.0790  145.9120 C   0  0  0  0  0  3  0  0  0  0  0  0
  196.9310  174.6570  144.6400 C   0  0  0  0  0  2  0  0  0  0  0  0
  197.2820  175.1630  143.2790 C   0  0  0  0  0  0  0  0  0  0  0  0
  197.9410  174.4020  142.4640 N   0  0  0  0  0  2  0  0  0  0  0  0
  196.2520  176.7090  141.6550 C   0  0  0  0  0  1  0  0  0  0  0  0
  196.8840  176.4470  142.8980 O   0  0  0  0  0  0  0  0  0  0  0  0
  1  3  2  0  0  0  0
  2 28  1  6  0  0  0
  2  3  1  0  0  0  0
  3  9  1  0  0  0  0
  4  8  1  0  0  0  0
  4  7  1  0  0  0  0
  5  8  1  0  0  0  0
  5  2  1  0  0  0  0
  6  9  1  0  0  0  0
  7 14  1  0  0  0  0
  7  6  1  6  0  0  0
 10 13  1  1  0  0  0
 10 12  1  0  0  0  0
 10 15  1  0  0  0  0
 11 17  1  0  0  0  0
 12 16  1  0  0  0  0
 14 16  1  6  0  0  0
 14 11  1  0  0  0  0
 15 11  1  0  0  0  0
 18 11  1  0  0  0  0
 18 17  1  0  0  0  0
 19  4  1  0  0  0  0
 20 23  1  0  0  0  0
 21 27  1  6  0  0  0
 21 20  1  0  0  0  0
 22 24  1  0  0  0  0
 24 23  1  0  0  0  0
 24 19  1  1  0  0  0
 25 21  1  0  0  0  0
 25 22  1  0  0  0  0
 26 27  1  0  0  0  0
 28 29  1  0  0  0  0
 29 31  1  0  0  0  0
 31 30  1  1  0  0  0
 32 39  1  1  0  0  0
 32 31  1  0  0  0  0
 32 33  1  0  0  0  0
 33 37  2  0  0  0  0
 33 38  1  0  0  0  0
 34 36  1  0  0  0  0
 35 36  2  0  0  0  0
 37 35  1  0  0  0  0
 38 34  2  0  0  0  0
 40 39  1  0  0  0  0
 41 40  2  0  0  0  0
 42 43  1  0  0  0  0
 43 40  1  0  0  0  0
M  END
>  <MODEL>
7

>  <REMARK>
 VINA RESULT:      -7.2      2.850      7.986
  Name = 
  12 active torsions:
  status: ('A' for Active; 'I' for Inactive)
    1  A    between atoms: C_1  and  N_8
    2  A    between atoms: C_1  and  C_35
    3  A    between atoms: C_4  and  C_12
    4  A    between atoms: C_4  and  C_14
    5  A    between atoms: C_6  and  C_17
    6  A    between atoms: C_10  and  C_41
    7  A    between atoms: C_10  and  O_42
    8  A    between atoms: C_11  and  C_14
    9  A    between atoms: C_12  and  C_17
   10  A    between atoms: C_14  and  C_41
   11  A    between atoms: C_19  and  C_37
   12  A    between atoms: C_21  and  C_30
                            x       y       z     vdW  Elec       q    Type
                         _______ _______ _______ _____ _____    ______ ____

>  <TORSDO>
F 12

$$$$
=
 OpenBabel11052420543D

 43 47  0  0  1  0  0  0  0  0999 V2000
  192.1400  177.1170  146.9390 N   0  0  0  0  0  2  0  0  0  0  0  0
  191.4300  176.7470  144.6460 C   0  0  2  0  0  3  0  0  0  0  0  0
  191.6360  176.3170  146.0710 C   0  0  0  0  0  0  0  0  0  0  0  0
  194.1230  175.1550  144.8280 N   0  0  0  0  0  0  0  0  0  0  0  0
  192.7420  176.9460  143.8950 C   0  0  0  0  0  2  0  0  0  0  0  0
  192.7440  174.1540  146.6110 C   0  0  0  0  0  2  0  0  0  0  0  0
  193.4590  173.9120  145.2830 C   0  0  2  0  0  3  0  0  0  0  0  0
  193.4250  175.6090  143.6320 C   0  0  0  0  0  2  0  0  0  0  0  0
  191.4190  174.8810  146.4190 C   0  0  0  0  0  2  0  0  0  0  0  0
  196.3600  170.9520  144.3290 C   0  0  1  0  0  3  0  0  0  0  0  0
  194.1900  171.6150  144.2220 C   0  0  0  0  0  0  0  0  0  0  0  0
  196.5990  171.5950  145.6930 C   0  0  0  0  0  2  0  0  0  0  0  0
  197.3100  169.7890  144.1500 C   0  0  0  0  0  1  0  0  0  0  0  0
  194.3120  172.6210  145.3890 C   0  0  1  0  0  3  0  0  0  0  0  0
  195.0340  170.4890  144.2410 O   0  0  0  0  0  0  0  0  0  0  0  0
  195.7710  172.8720  145.7870 C   0  0  0  0  0  2  0  0  0  0  0  0
  192.7570  171.1970  143.9720 C   0  0  0  0  0  2  0  0  0  0  0  0
  193.5290  171.9460  142.8990 C   0  0  0  0  0  2  0  0  0  0  0  0
  195.5330  175.0040  144.4660 C   0  0  0  0  0  2  0  0  0  0  0  0
  196.6690  174.1710  140.8630 C   0  0  0  0  0  2  0  0  0  0  0  0
  197.4250  175.4700  140.5790 C   0  0  2  0  0  3  0  0  0  0  0  0
  196.4910  176.4830  142.6650 C   0  0  0  0  0  2  0  0  0  0  0  0
  196.4890  173.9820  142.3660 C   0  0  0  0  0  2  0  0  0  0  0  0
  195.7500  175.1810  142.9660 C   0  0  1  0  0  3  0  0  0  0  0  0
  196.6580  176.6550  141.1590 C   0  0  0  0  0  2  0  0  0  0  0  0
  196.5590  174.8450  138.3300 C   0  0  0  0  0  1  0  0  0  0  0  0
  197.5900  175.6630  139.0830 C   0  0  0  0  0  2  0  0  0  0  0  0
  190.4640  177.9270  144.4980 C   0  0  0  0  0  2  0  0  0  0  0  0
  188.9880  177.5410  144.5910 C   0  0  0  0  0  2  0  0  0  0  0  0
  188.6180  175.6680  142.9660 C   0  0  0  0  0  1  0  0  0  0  0  0
  188.4140  177.1530  143.2350 C   0  0  1  0  0  3  0  0  0  0  0  0
  186.9430  177.5830  143.1310 C   0  0  1  0  0  3  0  0  0  0  0  0
  186.2400  177.7720  144.4450 C   0  0  0  0  0  0  0  0  0  0  0  0
  185.3200  179.2760  146.1100 C   0  0  0  0  0  3  0  0  0  0  0  0
  185.2880  176.8870  146.4950 C   0  0  0  0  0  3  0  0  0  0  0  0
  184.9890  178.1850  146.9180 C   0  0  0  0  0  3  0  0  0  0  0  0
  185.9130  176.6810  145.2630 C   0  0  0  0  0  3  0  0  0  0  0  0
  185.9470  179.0700  144.8780 C   0  0  0  0  0  3  0  0  0  0  0  0
  186.6130  178.6400  142.0630 C   0  0  0  0  0  2  0  0  0  0  0  0
  185.9260  178.0900  140.8550 C   0  0  0  0  0  0  0  0  0  0  0  0
  186.6020  177.3960  139.9950 N   0  0  0  0  0  2  0  0  0  0  0  0
  183.6360  178.2910  141.7520 C   0  0  0  0  0  1  0  0  0  0  0  0
  184.5600  178.3200  140.6750 O   0  0  0  0  0  0  0  0  0  0  0  0
  2 28  1  1  0  0  0
  2  3  1  0  0  0  0
  3  9  1  0  0  0  0
  3  1  2  0  0  0  0
  4  7  1  0  0  0  0
  5  2  1  0  0  0  0
  7 14  1  0  0  0  0
  7  6  1  1  0  0  0
  8  5  1  0  0  0  0
  8  4  1  0  0  0  0
  9  6  1  0  0  0  0
 10 13  1  1  0  0  0
 10 12  1  0  0  0  0
 11 15  1  0  0  0  0
 11 14  1  0  0  0  0
 12 16  1  0  0  0  0
 14 16  1  6  0  0  0
 15 10  1  0  0  0  0
 17 11  1  0  0  0  0
 18 17  1  0  0  0  0
 18 11  1  0  0  0  0
 19  4  1  0  0  0  0
 20 23  1  0  0  0  0
 21 27  1  6  0  0  0
 21 20  1  0  0  0  0
 21 25  1  0  0  0  0
 22 24  1  0  0  0  0
 23 24  1  0  0  0  0
 24 19  1  1  0  0  0
 25 22  1  0  0  0  0
 26 27  1  0  0  0  0
 28 29  1  0  0  0  0
 31 30  1  1  0  0  0
 31 29  1  0  0  0  0
 32 39  1  1  0  0  0
 32 31  1  0  0  0  0
 32 33  1  0  0  0  0
 33 38  2  0  0  0  0
 33 37  1  0  0  0  0
 34 36  2  0  0  0  0
 35 36  1  0  0  0  0
 37 35  2  0  0  0  0
 38 34  1  0  0  0  0
 40 39  1  0  0  0  0
 41 40  2  0  0  0  0
 43 40  1  0  0  0  0
 43 42  1  0  0  0  0
M  END
>  <MODEL>
8

>  <REMARK>
 VINA RESULT:      -7.1      2.288      4.953
  Name = 
  12 active torsions:
  status: ('A' for Active; 'I' for Inactive)
    1  A    between atoms: C_1  and  N_8
    2  A    between atoms: C_1  and  C_35
    3  A    between atoms: C_4  and  C_12
    4  A    between atoms: C_4  and  C_14
    5  A    between atoms: C_6  and  C_17
    6  A    between atoms: C_10  and  C_41
    7  A    between atoms: C_10  and  O_42
    8  A    between atoms: C_11  and  C_14
    9  A    between atoms: C_12  and  C_17
   10  A    between atoms: C_14  and  C_41
   11  A    between atoms: C_19  and  C_37
   12  A    between atoms: C_21  and  C_30
                            x       y       z     vdW  Elec       q    Type
                         _______ _______ _______ _____ _____    ______ ____

>  <TORSDO>
F 12

$$$$
=
 OpenBabel11052420543D

 43 47  0  0  1  0  0  0  0  0999 V2000
  190.3560  172.9590  145.0270 N   0  0  0  0  0  2  0  0  0  0  0  0
  191.0750  174.8870  143.7360 C   0  0  2  0  0  3  0  0  0  0  0  0
  190.1380  173.7520  144.0410 C   0  0  0  0  0  0  0  0  0  0  0  0
  191.7990  172.4690  141.8770 N   0  0  0  0  0  0  0  0  0  0  0  0
  192.4300  174.4110  143.2250 C   0  0  0  0  0  2  0  0  0  0  0  0
  189.3750  172.2010  142.2500 C   0  0  0  0  0  2  0  0  0  0  0  0
  190.4720  172.4650  141.2200 C   0  0  2  0  0  3  0  0  0  0  0  0
  192.3090  173.8330  141.8200 C   0  0  0  0  0  2  0  0  0  0  0  0
  189.0500  173.4460  143.0650 C   0  0  0  0  0  2  0  0  0  0  0  0
  191.3590  170.1400  137.7710 C   0  0  1  0  0  3  0  0  0  0  0  0
  190.6240  172.1160  138.6140 C   0  0  0  0  0  0  0  0  0  0  0  0
  190.7530  169.3120  138.9020 C   0  0  0  0  0  2  0  0  0  0  0  0
  191.4650  169.2860  136.5270 C   0  0  0  0  0  1  0  0  0  0  0  0
  190.2620  171.5330  139.9980 C   0  0  1  0  0  3  0  0  0  0  0  0
  190.5460  171.2570  137.5020 O   0  0  0  0  0  0  0  0  0  0  0  0
  190.8210  170.1180  140.1930 C   0  0  0  0  0  2  0  0  0  0  0  0
  189.8950  173.4130  138.3300 C   0  0  0  0  0  2  0  0  0  0  0  0
  191.4120  173.3980  138.4270 C   0  0  0  0  0  2  0  0  0  0  0  0
  192.8030  171.6130  141.2460 C   0  0  0  0  0  2  0  0  0  0  0  0
  193.4070  169.5530  144.4650 C   0  0  0  0  0  2  0  0  0  0  0  0
  194.6750  170.2680  144.9330 C   0  0  2  0  0  3  0  0  0  0  0  0
  194.8250  171.4610  142.7420 C   0  0  0  0  0  2  0  0  0  0  0  0
  192.6490  170.4210  143.4650 C   0  0  0  0  0  2  0  0  0  0  0  0
  193.5470  170.7660  142.2750 C   0  0  1  0  0  3  0  0  0  0  0  0
  195.5700  170.5770  143.7360 C   0  0  0  0  0  2  0  0  0  0  0  0
  194.5730  169.0960  147.1280 C   0  0  0  0  0  1  0  0  0  0  0  0
  195.4340  169.3970  145.9160 C   0  0  0  0  0  2  0  0  0  0  0  0
  191.1810  175.9120  144.8690 C   0  0  0  0  0  2  0  0  0  0  0  0
  189.8340  176.4360  145.3660 C   0  0  0  0  0  2  0  0  0  0  0  0
  190.6100  178.2910  143.8700 C   0  0  0  0  0  1  0  0  0  0  0  0
  189.4550  177.7510  144.7010 C   0  0  1  0  0  3  0  0  0  0  0  0
  188.1590  177.5900  143.8910 C   0  0  1  0  0  3  0  0  0  0  0  0
  186.8920  177.8200  144.6650 C   0  0  0  0  0  0  0  0  0  0  0  0
  185.1900  176.9600  146.1640 C   0  0  0  0  0  3  0  0  0  0  0  0
  184.9960  179.2050  145.2810 C   0  0  0  0  0  3  0  0  0  0  0  0
  184.4970  178.1710  146.0770 C   0  0  0  0  0  3  0  0  0  0  0  0
  186.1890  179.0300  144.5750 C   0  0  0  0  0  3  0  0  0  0  0  0
  186.3830  176.7840  145.4570 C   0  0  0  0  0  3  0  0  0  0  0  0
  188.1630  178.1760  142.4690 C   0  0  0  0  0  2  0  0  0  0  0  0
  187.4320  177.3430  141.4660 C   0  0  0  0  0  0  0  0  0  0  0  0
  187.7210  176.0860  141.3460 N   0  0  0  0  0  2  0  0  0  0  0  0
  185.1650  178.2800  141.2000 C   0  0  0  0  0  1  0  0  0  0  0  0
  186.4370  177.9280  140.6790 O   0  0  0  0  0  0  0  0  0  0  0  0
  2  3  1  0  0  0  0
  2 28  1  1  0  0  0
  3  1  2  0  0  0  0
  5  2  1  0  0  0  0
  6  9  1  0  0  0  0
  7  4  1  0  0  0  0
  7  6  1  1  0  0  0
  8  4  1  0  0  0  0
  8  5  1  0  0  0  0
  9  3  1  0  0  0  0
 10 13  1  6  0  0  0
 10 12  1  0  0  0  0
 11 14  1  0  0  0  0
 12 16  1  0  0  0  0
 14 16  1  1  0  0  0
 14  7  1  0  0  0  0
 15 10  1  0  0  0  0
 15 11  1  0  0  0  0
 17 18  1  0  0  0  0
 17 11  1  0  0  0  0
 18 11  1  0  0  0  0
 19  4  1  0  0  0  0
 20 21  1  0  0  0  0
 21 27  1  1  0  0  0
 22 25  1  0  0  0  0
 23 20  1  0  0  0  0
 24 19  1  6  0  0  0
 24 22  1  0  0  0  0
 24 23  1  0  0  0  0
 25 21  1  0  0  0  0
 27 26  1  0  0  0  0
 28 29  1  0  0  0  0
 31 30  1  6  0  0  0
 31 29  1  0  0  0  0
 32 39  1  6  0  0  0
 32 33  1  0  0  0  0
 32 31  1  0  0  0  0
 33 38  1  0  0  0  0
 35 36  2  0  0  0  0
 36 34  1  0  0  0  0
 37 33  2  0  0  0  0
 37 35  1  0  0  0  0
 38 34  2  0  0  0  0
 40 39  1  0  0  0  0
 41 40  2  0  0  0  0
 43 42  1  0  0  0  0
 43 40  1  0  0  0  0
M  END
>  <MODEL>
9

>  <REMARK>
 VINA RESULT:      -7.1      2.779      3.618
  Name = 
  12 active torsions:
  status: ('A' for Active; 'I' for Inactive)
    1  A    between atoms: C_1  and  N_8
    2  A    between atoms: C_1  and  C_35
    3  A    between atoms: C_4  and  C_12
    4  A    between atoms: C_4  and  C_14
    5  A    between atoms: C_6  and  C_17
    6  A    between atoms: C_10  and  C_41
    7  A    between atoms: C_10  and  O_42
    8  A    between atoms: C_11  and  C_14
    9  A    between atoms: C_12  and  C_17
   10  A    between atoms: C_14  and  C_41
   11  A    between atoms: C_19  and  C_37
   12  A    between atoms: C_21  and  C_30
                            x       y       z     vdW  Elec       q    Type
                         _______ _______ _______ _____ _____    ______ ____

>  <TORSDO>
F 12

$$$$
