=
 OpenBabel11052420283D

 34 38  0  0  1  0  0  0  0  0999 V2000
  188.6220  177.2440  144.9420 C   0  0  2  0  0  3  0  0  0  0  0  0
  185.0320  178.7520  144.7780 C   0  0  0  0  0  2  0  0  0  0  0  0
  186.5110  177.8730  146.6760 C   0  0  0  0  0  2  0  0  0  0  0  0
  190.0070  177.9440  143.0430 N   0  0  0  0  0  1  0  0  0  0  0  0
  189.7410  176.8490  143.9640 C   0  0  1  0  0  3  0  0  0  0  0  0
  189.5690  175.5840  146.5830 C   0  0  0  0  0  0  0  0  0  0  0  0
  189.5170  174.9380  147.6630 O   0  0  0  0  0  0  0  0  0  0  0  0
  190.8100  175.6640  145.8820 N   0  0  0  0  0  2  0  0  0  0  0  0
  191.0300  176.5600  144.7500 C   0  0  1  0  0  3  0  0  0  0  0  0
  187.2640  176.5940  146.9380 C   0  0  0  0  0  0  0  0  0  0  0  0
  188.3130  176.1220  145.9480 C   0  0  1  0  0  3  0  0  0  0  0  0
  186.9740  175.9210  147.9130 O   0  0  0  0  0  0  0  0  0  0  0  0
  184.4600  178.1910  143.4820 C   0  0  0  0  0  2  0  0  0  0  0  0
  184.9910  178.9130  142.3190 N   0  0  0  0  0  0  0  0  0  0  0  0
  186.4620  178.9710  142.2950 C   0  0  0  0  0  2  0  0  0  0  0  0
  186.3160  178.0770  145.1910 C   0  0  2  0  0  3  0  0  0  0  0  0
  187.1210  177.6990  142.8300 C   0  0  0  0  0  2  0  0  0  0  0  0
  187.3180  177.7410  144.3290 C   0  0  2  0  0  3  0  0  0  0  0  0
  192.8160  174.8400  141.8500 C   0  0  0  0  0  3  0  0  0  0  0  0
  193.4520  176.1810  144.2470 C   0  0  0  0  0  3  0  0  0  0  0  0
  196.5060  175.0220  142.4220 C   0  0  1  0  0  3  0  0  0  0  0  0
  195.3430  174.5500  141.5320 C   0  0  0  0  0  2  0  0  0  0  0  0
  194.1400  175.0210  142.2490 C   0  0  0  0  0  0  0  0  0  0  0  0
  195.9100  175.7390  143.6460 C   0  0  2  0  0  3  0  0  0  0  0  0
  194.4510  175.6740  143.4130 C   0  0  0  0  0  0  0  0  0  0  0  0
  196.3300  177.0690  143.6520 O   0  0  0  0  0  1  0  0  0  0  0  0
  192.1090  176.0160  143.8690 C   0  0  0  0  0  0  0  0  0  0  0  0
  191.7950  175.3450  142.6680 C   0  0  0  0  0  3  0  0  0  0  0  0
  197.3520  173.8650  142.8450 C   0  0  0  0  0  0  0  0  0  0  0  0
  197.8150  173.0610  141.9940 O   0  0  0  0  0  0  0  0  0  0  0  0
  197.6270  173.6750  144.1920 O   0  0  0  0  0  1  0  0  0  0  0  0
  184.5570  178.1990  141.1260 C   0  0  0  0  0  2  0  0  0  0  0  0
  182.6320  177.4990  139.9010 O   0  0  0  0  0  1  0  0  0  0  0  0
  183.0420  178.2250  141.0200 C   0  0  0  0  0  2  0  0  0  0  0  0
  1 11  1  0  0  0  0
  2 16  1  0  0  0  0
  3 10  1  0  0  0  0
  4  5  1  0  0  0  0
  5  9  1  0  0  0  0
  5  1  1  0  0  0  0
  6  7  2  0  0  0  0
  8  6  1  0  0  0  0
  9  8  1  0  0  0  0
 10 12  2  0  0  0  0
 11  6  1  0  0  0  0
 11 10  1  0  0  0  0
 13  2  1  0  0  0  0
 14 13  1  0  0  0  0
 15 14  1  0  0  0  0
 15 17  1  0  0  0  0
 16  3  1  0  0  0  0
 17 18  1  0  0  0  0
 18  1  1  0  0  0  0
 18 16  1  0  0  0  0
 19 23  2  0  0  0  0
 19 28  1  0  0  0  0
 21 29  1  0  0  0  0
 21 24  1  0  0  0  0
 22 23  1  0  0  0  0
 22 21  1  0  0  0  0
 23 25  1  0  0  0  0
 24 26  1  0  0  0  0
 25 24  1  0  0  0  0
 25 20  2  0  0  0  0
 27 20  1  0  0  0  0
 27  9  1  0  0  0  0
 28 27  2  0  0  0  0
 29 31  1  0  0  0  0
 30 29  2  0  0  0  0
 32 14  1  0  0  0  0
 33 34  1  0  0  0  0
 34 32  1  0  0  0  0
M  END
>  <MODEL>
1

>  <REMARK>
 VINA RESULT:      -8.2      0.000      0.000
  Name = 
  4 active torsions:
  status: ('A' for Active; 'I' for Inactive)
    1  A    between atoms: C_3  and  C_24
    2  A    between atoms: C_3  and  N_25
    3  A    between atoms: C_7  and  C_11
    4  A    between atoms: C_18  and  C_30
                            x       y       z     vdW  Elec       q    Type
                         _______ _______ _______ _____ _____    ______ ____

>  <TORSDO>
F 4

$$$$
=
 OpenBabel11052420283D

 34 38  0  0  1  0  0  0  0  0999 V2000
  192.1050  173.8270  145.1500 C   0  0  2  0  0  3  0  0  0  0  0  0
  194.1250  170.7240  143.9330 C   0  0  0  0  0  2  0  0  0  0  0  0
  194.5340  172.5390  145.6940 C   0  0  0  0  0  2  0  0  0  0  0  0
  189.7020  173.5960  144.7140 N   0  0  0  0  0  1  0  0  0  0  0  0
  190.7970  174.5520  144.7900 C   0  0  1  0  0  3  0  0  0  0  0  0
  192.9570  175.9950  146.1110 C   0  0  0  0  0  0  0  0  0  0  0  0
  193.8700  176.7040  146.6100 O   0  0  0  0  0  0  0  0  0  0  0  0
  191.6010  176.4250  146.2290 N   0  0  0  0  0  2  0  0  0  0  0  0
  190.4620  175.5790  145.8840 C   0  0  1  0  0  3  0  0  0  0  0  0
  194.5350  174.0460  145.6940 C   0  0  0  0  0  0  0  0  0  0  0  0
  193.2920  174.7990  145.2570 C   0  0  1  0  0  3  0  0  0  0  0  0
  195.5590  174.6420  145.9860 O   0  0  0  0  0  0  0  0  0  0  0  0
  193.8690  170.6890  142.4320 C   0  0  0  0  0  2  0  0  0  0  0  0
  192.5400  170.1400  142.1400 N   0  0  0  0  0  0  0  0  0  0  0  0
  191.4570  170.8220  142.8680 C   0  0  0  0  0  2  0  0  0  0  0  0
  193.6680  172.0110  144.5750 C   0  0  2  0  0  3  0  0  0  0  0  0
  191.6970  172.3240  143.0300 C   0  0  0  0  0  2  0  0  0  0  0  0
  192.5000  172.6470  144.2710 C   0  0  2  0  0  3  0  0  0  0  0  0
  187.3400  177.7560  146.1400 C   0  0  0  0  0  3  0  0  0  0  0  0
  189.0350  176.6910  144.1550 C   0  0  0  0  0  3  0  0  0  0  0  0
  186.2570  178.7320  142.6970 C   0  0  1  0  0  3  0  0  0  0  0  0
  186.0090  178.8000  144.2140 C   0  0  0  0  0  2  0  0  0  0  0  0
  187.1150  178.0050  144.7870 C   0  0  0  0  0  0  0  0  0  0  0  0
  187.5070  177.8670  142.4570 C   0  0  2  0  0  3  0  0  0  0  0  0
  187.9390  177.4890  143.8200 C   0  0  0  0  0  0  0  0  0  0  0  0
  188.4940  178.6390  141.8450 O   0  0  0  0  0  1  0  0  0  0  0  0
  189.2880  176.4270  145.5110 C   0  0  0  0  0  0  0  0  0  0  0  0
  188.4380  176.9620  146.5020 C   0  0  0  0  0  3  0  0  0  0  0  0
  185.0710  178.1580  141.9930 C   0  0  0  0  0  0  0  0  0  0  0  0
  184.0040  177.9200  142.6180 O   0  0  0  0  0  1  0  0  0  0  0  0
  185.1490  177.8840  140.6350 O   0  0  0  0  0  0  0  0  0  0  0  0
  192.2960  170.3220  140.7150 C   0  0  0  0  0  2  0  0  0  0  0  0
  190.3000  170.7890  139.4940 O   0  0  0  0  0  1  0  0  0  0  0  0
  190.8910  169.8680  140.3590 C   0  0  0  0  0  2  0  0  0  0  0  0
  1 11  1  0  0  0  0
  2 16  1  0  0  0  0
  3 10  1  0  0  0  0
  4  5  1  0  0  0  0
  5  1  1  0  0  0  0
  5  9  1  0  0  0  0
  6  8  1  0  0  0  0
  6  7  2  0  0  0  0
  9  8  1  0  0  0  0
 10 12  2  0  0  0  0
 11 10  1  0  0  0  0
 11  6  1  0  0  0  0
 13  2  1  0  0  0  0
 14 13  1  0  0  0  0
 14 15  1  0  0  0  0
 15 17  1  0  0  0  0
 16  3  1  0  0  0  0
 17 18  1  0  0  0  0
 18 16  1  0  0  0  0
 18  1  1  0  0  0  0
 19 28  1  0  0  0  0
 20 27  1  0  0  0  0
 21 22  1  0  0  0  0
 22 23  1  0  0  0  0
 23 19  2  0  0  0  0
 24 21  1  0  0  0  0
 24 25  1  0  0  0  0
 25 20  2  0  0  0  0
 25 23  1  0  0  0  0
 26 24  1  0  0  0  0
 27  9  1  0  0  0  0
 27 28  2  0  0  0  0
 29 30  1  0  0  0  0
 29 21  1  0  0  0  0
 31 29  2  0  0  0  0
 32 14  1  0  0  0  0
 33 34  1  0  0  0  0
 34 32  1  0  0  0  0
M  END
>  <MODEL>
2

>  <REMARK>
 VINA RESULT:      -8.0      3.416      8.738
  Name = 
  4 active torsions:
  status: ('A' for Active; 'I' for Inactive)
    1  A    between atoms: C_3  and  C_24
    2  A    between atoms: C_3  and  N_25
    3  A    between atoms: C_7  and  C_11
    4  A    between atoms: C_18  and  C_30
                            x       y       z     vdW  Elec       q    Type
                         _______ _______ _______ _____ _____    ______ ____

>  <TORSDO>
F 4

$$$$
=
 OpenBabel11052420283D

 34 38  0  0  1  0  0  0  0  0999 V2000
  189.0710  177.2220  145.2030 C   0  0  2  0  0  3  0  0  0  0  0  0
  185.3630  178.3490  144.7980 C   0  0  0  0  0  2  0  0  0  0  0  0
  186.7770  177.5490  146.7790 C   0  0  0  0  0  2  0  0  0  0  0  0
  190.5160  178.1460  143.4490 N   0  0  0  0  0  1  0  0  0  0  0  0
  190.3000  176.9900  144.3070 C   0  0  1  0  0  3  0  0  0  0  0  0
  190.0620  175.6000  146.8570 C   0  0  0  0  0  0  0  0  0  0  0  0
  189.9960  174.9060  147.9050 O   0  0  0  0  0  0  0  0  0  0  0  0
  191.3380  175.8410  146.2630 N   0  0  0  0  0  2  0  0  0  0  0  0
  191.5470  176.8030  145.1850 C   0  0  1  0  0  3  0  0  0  0  0  0
  187.6410  176.3460  147.0570 C   0  0  0  0  0  0  0  0  0  0  0  0
  188.8080  176.0310  146.1410 C   0  0  1  0  0  3  0  0  0  0  0  0
  187.3510  175.6050  147.9810 O   0  0  0  0  0  0  0  0  0  0  0  0
  184.9580  177.7890  143.4410 C   0  0  0  0  0  2  0  0  0  0  0  0
  185.4960  178.6130  142.3520 N   0  0  0  0  0  0  0  0  0  0  0  0
  186.9500  178.8260  142.4500 C   0  0  0  0  0  2  0  0  0  0  0  0
  186.6760  177.7960  145.2920 C   0  0  2  0  0  3  0  0  0  0  0  0
  187.6990  177.6090  142.9930 C   0  0  0  0  0  2  0  0  0  0  0  0
  187.7730  177.6060  144.5030 C   0  0  2  0  0  3  0  0  0  0  0  0
  195.1600  176.3830  144.0360 C   0  0  0  0  0  3  0  0  0  0  0  0
  192.5620  175.7030  143.1800 C   0  0  0  0  0  3  0  0  0  0  0  0
  195.1940  174.5010  140.8060 C   0  0  1  0  0  3  0  0  0  0  0  0
  195.9910  175.2120  141.9120 C   0  0  0  0  0  2  0  0  0  0  0  0
  194.9510  175.6730  142.8540 C   0  0  0  0  0  0  0  0  0  0  0  0
  193.6990  174.6030  141.1540 C   0  0  2  0  0  3  0  0  0  0  0  0
  193.6880  175.3400  142.4370 C   0  0  0  0  0  0  0  0  0  0  0  0
  193.1780  173.3230  141.3400 O   0  0  0  0  0  1  0  0  0  0  0  0
  192.7440  176.4150  144.3770 C   0  0  0  0  0  0  0  0  0  0  0  0
  194.0460  176.7530  144.8020 C   0  0  0  0  0  3  0  0  0  0  0  0
  195.4710  175.1180  139.4740 C   0  0  0  0  0  0  0  0  0  0  0  0
  194.5590  175.2240  138.6110 O   0  0  0  0  0  0  0  0  0  0  0  0
  196.7480  175.5790  139.1850 O   0  0  0  0  0  1  0  0  0  0  0  0
  185.2350  177.9100  141.1030 C   0  0  0  0  0  2  0  0  0  0  0  0
  182.9000  177.9070  140.6150 O   0  0  0  0  0  1  0  0  0  0  0  0
  184.0960  178.5750  140.3520 C   0  0  0  0  0  2  0  0  0  0  0  0
  1 11  1  0  0  0  0
  2 16  1  0  0  0  0
  3 10  1  0  0  0  0
  4  5  1  0  0  0  0
  5  9  1  0  0  0  0
  5  1  1  0  0  0  0
  6  7  2  0  0  0  0
  8  6  1  0  0  0  0
  9  8  1  0  0  0  0
 10 12  2  0  0  0  0
 11  6  1  0  0  0  0
 11 10  1  0  0  0  0
 13  2  1  0  0  0  0
 14 15  1  0  0  0  0
 14 13  1  0  0  0  0
 15 17  1  0  0  0  0
 16  3  1  0  0  0  0
 17 18  1  0  0  0  0
 18  1  1  0  0  0  0
 18 16  1  0  0  0  0
 19 28  1  0  0  0  0
 20 27  1  0  0  0  0
 21 24  1  0  0  0  0
 21 22  1  0  0  0  0
 22 23  1  0  0  0  0
 23 19  2  0  0  0  0
 24 26  1  0  0  0  0
 24 25  1  0  0  0  0
 25 23  1  0  0  0  0
 25 20  2  0  0  0  0
 27 28  2  0  0  0  0
 27  9  1  0  0  0  0
 29 21  1  0  0  0  0
 30 29  2  0  0  0  0
 31 29  1  0  0  0  0
 32 14  1  0  0  0  0
 34 33  1  0  0  0  0
 34 32  1  0  0  0  0
M  END
>  <MODEL>
3

>  <REMARK>
 VINA RESULT:      -7.9      1.590      2.163
  Name = 
  4 active torsions:
  status: ('A' for Active; 'I' for Inactive)
    1  A    between atoms: C_3  and  C_24
    2  A    between atoms: C_3  and  N_25
    3  A    between atoms: C_7  and  C_11
    4  A    between atoms: C_18  and  C_30
                            x       y       z     vdW  Elec       q    Type
                         _______ _______ _______ _____ _____    ______ ____

>  <TORSDO>
F 4

$$$$
=
 OpenBabel11052420283D

 34 38  0  0  1  0  0  0  0  0999 V2000
  190.8110  174.8530  141.9840 C   0  0  2  0  0  3  0  0  0  0  0  0
  194.4410  173.4690  141.6710 C   0  0  0  0  0  2  0  0  0  0  0  0
  192.2050  172.8730  140.5720 C   0  0  0  0  0  2  0  0  0  0  0  0
  190.7700  177.1710  142.7840 N   0  0  0  0  0  1  0  0  0  0  0  0
  190.0560  175.9030  142.8160 C   0  0  1  0  0  3  0  0  0  0  0  0
  188.6230  173.6490  141.6520 C   0  0  0  0  0  0  0  0  0  0  0  0
  187.9480  172.6660  141.2480 O   0  0  0  0  0  0  0  0  0  0  0  0
  187.9530  174.8730  141.9550 N   0  0  0  0  0  2  0  0  0  0  0  0
  188.6590  176.1240  142.2170 C   0  0  1  0  0  3  0  0  0  0  0  0
  190.8280  172.5240  141.0740 C   0  0  0  0  0  0  0  0  0  0  0  0
  190.0870  173.4950  141.9750 C   0  0  1  0  0  3  0  0  0  0  0  0
  190.3520  171.4340  140.8020 O   0  0  0  0  0  0  0  0  0  0  0  0
  194.9810  173.5390  143.0930 C   0  0  0  0  0  2  0  0  0  0  0  0
  195.3620  174.9130  143.4430 N   0  0  0  0  0  0  0  0  0  0  0  0
  194.2850  175.8900  143.2130 C   0  0  0  0  0  2  0  0  0  0  0  0
  192.9510  173.6930  141.5990 C   0  0  2  0  0  3  0  0  0  0  0  0
  192.8940  175.3320  143.5170 C   0  0  0  0  0  2  0  0  0  0  0  0
  192.2810  174.6350  142.3220 C   0  0  2  0  0  3  0  0  0  0  0  0
  186.3250  178.9290  143.3320 C   0  0  0  0  0  3  0  0  0  0  0  0
  187.7380  176.7630  144.4540 C   0  0  0  0  0  3  0  0  0  0  0  0
  185.7990  178.6700  147.0250 C   0  0  1  0  0  3  0  0  0  0  0  0
  185.5050  179.4160  145.7120 C   0  0  0  0  0  2  0  0  0  0  0  0
  186.2610  178.6530  144.6970 C   0  0  0  0  0  0  0  0  0  0  0  0
  186.7460  177.5000  146.7070 C   0  0  2  0  0  3  0  0  0  0  0  0
  186.9460  177.5990  145.2440 C   0  0  0  0  0  0  0  0  0  0  0  0
  186.1150  176.2960  147.0180 O   0  0  0  0  0  1  0  0  0  0  0  0
  187.8190  177.0160  143.0750 C   0  0  0  0  0  0  0  0  0  0  0  0
  187.1090  178.1000  142.5170 C   0  0  0  0  0  3  0  0  0  0  0  0
  186.4120  179.5910  148.0300 C   0  0  0  0  0  0  0  0  0  0  0  0
  185.9420  180.7440  148.2160 O   0  0  0  0  0  0  0  0  0  0  0  0
  187.5110  179.1680  148.7630 O   0  0  0  0  0  1  0  0  0  0  0  0
  195.6780  174.9300  144.8650 C   0  0  0  0  0  2  0  0  0  0  0  0
  196.9510  173.6450  146.4220 O   0  0  0  0  0  1  0  0  0  0  0  0
  196.9640  174.1650  145.1280 C   0  0  0  0  0  2  0  0  0  0  0  0
  1 18  1  0  0  0  0
  1  5  1  0  0  0  0
  2 13  1  0  0  0  0
  3 10  1  0  0  0  0
  3 16  1  0  0  0  0
  4  5  1  0  0  0  0
  6  8  1  0  0  0  0
  6 11  1  0  0  0  0
  7  6  2  0  0  0  0
  8  9  1  0  0  0  0
  9  5  1  0  0  0  0
  9 27  1  0  0  0  0
 10 11  1  0  0  0  0
 11  1  1  0  0  0  0
 12 10  2  0  0  0  0
 13 14  1  0  0  0  0
 14 32  1  0  0  0  0
 15 14  1  0  0  0  0
 15 17  1  0  0  0  0
 16  2  1  0  0  0  0
 16 18  1  0  0  0  0
 18 17  1  0  0  0  0
 19 23  1  0  0  0  0
 20 25  1  0  0  0  0
 21 29  1  0  0  0  0
 22 21  1  0  0  0  0
 23 25  2  0  0  0  0
 23 22  1  0  0  0  0
 24 26  1  0  0  0  0
 24 21  1  0  0  0  0
 25 24  1  0  0  0  0
 27 20  2  0  0  0  0
 28 27  1  0  0  0  0
 28 19  2  0  0  0  0
 29 30  2  0  0  0  0
 29 31  1  0  0  0  0
 32 34  1  0  0  0  0
 34 33  1  0  0  0  0
M  END
>  <MODEL>
4

>  <REMARK>
 VINA RESULT:      -7.7      2.814      9.408
  Name = 
  4 active torsions:
  status: ('A' for Active; 'I' for Inactive)
    1  A    between atoms: C_3  and  C_24
    2  A    between atoms: C_3  and  N_25
    3  A    between atoms: C_7  and  C_11
    4  A    between atoms: C_18  and  C_30
                            x       y       z     vdW  Elec       q    Type
                         _______ _______ _______ _____ _____    ______ ____

>  <TORSDO>
F 4

$$$$
=
 OpenBabel11052420283D

 34 38  0  0  1  0  0  0  0  0999 V2000
  188.1320  176.9120  144.6720 C   0  0  2  0  0  3  0  0  0  0  0  0
  184.9220  179.1210  144.6180 C   0  0  0  0  0  2  0  0  0  0  0  0
  186.4390  178.2260  146.4780 C   0  0  0  0  0  2  0  0  0  0  0  0
  189.3610  177.0140  142.5520 N   0  0  0  0  0  1  0  0  0  0  0  0
  189.0100  176.1470  143.6670 C   0  0  1  0  0  3  0  0  0  0  0  0
  188.9430  175.3390  146.4650 C   0  0  0  0  0  0  0  0  0  0  0  0
  188.9090  174.8830  147.6380 O   0  0  0  0  0  0  0  0  0  0  0  0
  190.0700  175.0470  145.6390 N   0  0  0  0  0  2  0  0  0  0  0  0
  190.3090  175.7010  144.3560 C   0  0  1  0  0  3  0  0  0  0  0  0
  186.9520  176.8650  146.8750 C   0  0  0  0  0  0  0  0  0  0  0  0
  187.7440  176.0400  145.8790 C   0  0  1  0  0  3  0  0  0  0  0  0
  186.6680  176.4190  147.9740 O   0  0  0  0  0  0  0  0  0  0  0  0
  184.0830  178.5170  143.5000 C   0  0  0  0  0  2  0  0  0  0  0  0
  184.5860  178.9330  142.1840 N   0  0  0  0  0  0  0  0  0  0  0  0
  186.0220  178.6660  142.0020 C   0  0  0  0  0  2  0  0  0  0  0  0
  186.0910  178.2510  145.0080 C   0  0  2  0  0  3  0  0  0  0  0  0
  186.4820  177.3720  142.6750 C   0  0  0  0  0  2  0  0  0  0  0  0
  186.8830  177.5860  144.1180 C   0  0  2  0  0  3  0  0  0  0  0  0
  193.2680  174.2250  142.4540 C   0  0  0  0  0  3  0  0  0  0  0  0
  190.5200  173.7240  142.8370 C   0  0  0  0  0  3  0  0  0  0  0  0
  192.1080  171.2230  140.5500 C   0  0  1  0  0  3  0  0  0  0  0  0
  193.2630  172.1690  140.9220 C   0  0  0  0  0  2  0  0  0  0  0  0
  192.6360  173.1470  141.8350 C   0  0  0  0  0  0  0  0  0  0  0  0
  190.8380  171.7190  141.2620 C   0  0  2  0  0  3  0  0  0  0  0  0
  191.3000  172.9010  142.0210 C   0  0  0  0  0  0  0  0  0  0  0  0
  190.3880  170.7360  142.1430 O   0  0  0  0  0  1  0  0  0  0  0  0
  191.1320  174.8160  143.4750 C   0  0  0  0  0  0  0  0  0  0  0  0
  192.5070  175.0620  143.2820 C   0  0  0  0  0  3  0  0  0  0  0  0
  191.9080  171.1900  139.0700 C   0  0  0  0  0  0  0  0  0  0  0  0
  191.3450  172.1470  138.4750 O   0  0  0  0  0  1  0  0  0  0  0  0
  192.3470  170.0910  138.3440 O   0  0  0  0  0  0  0  0  0  0  0  0
  183.8630  178.1650  141.1790 C   0  0  0  0  0  2  0  0  0  0  0  0
  181.6840  177.9170  140.2390 O   0  0  0  0  0  1  0  0  0  0  0  0
  182.3650  178.2910  141.3970 C   0  0  0  0  0  2  0  0  0  0  0  0
  1 11  1  0  0  0  0
  2 16  1  0  0  0  0
  3 10  1  0  0  0  0
  4  5  1  0  0  0  0
  5  9  1  0  0  0  0
  5  1  1  0  0  0  0
  6  7  2  0  0  0  0
  8  6  1  0  0  0  0
  9  8  1  0  0  0  0
 10 12  2  0  0  0  0
 11  6  1  0  0  0  0
 11 10  1  0  0  0  0
 13  2  1  0  0  0  0
 14 13  1  0  0  0  0
 15 14  1  0  0  0  0
 15 17  1  0  0  0  0
 16  3  1  0  0  0  0
 17 18  1  0  0  0  0
 18  1  1  0  0  0  0
 18 16  1  0  0  0  0
 19 28  1  0  0  0  0
 20 27  1  0  0  0  0
 21 22  1  0  0  0  0
 21 24  1  0  0  0  0
 22 23  1  0  0  0  0
 23 25  1  0  0  0  0
 23 19  2  0  0  0  0
 24 25  1  0  0  0  0
 24 26  1  0  0  0  0
 25 20  2  0  0  0  0
 27  9  1  0  0  0  0
 28 27  2  0  0  0  0
 29 21  1  0  0  0  0
 30 29  1  0  0  0  0
 31 29  2  0  0  0  0
 32 34  1  0  0  0  0
 32 14  1  0  0  0  0
 33 34  1  0  0  0  0
M  END
>  <MODEL>
5

>  <REMARK>
 VINA RESULT:      -7.7      2.768      3.481
  Name = 
  4 active torsions:
  status: ('A' for Active; 'I' for Inactive)
    1  A    between atoms: C_3  and  C_24
    2  A    between atoms: C_3  and  N_25
    3  A    between atoms: C_7  and  C_11
    4  A    between atoms: C_18  and  C_30
                            x       y       z     vdW  Elec       q    Type
                         _______ _______ _______ _____ _____    ______ ____

>  <TORSDO>
F 4

$$$$
=
 OpenBabel11052420283D

 34 38  0  0  1  0  0  0  0  0999 V2000
  187.1470  177.7950  144.5440 C   0  0  2  0  0  3  0  0  0  0  0  0
  184.3140  178.8020  142.0640 C   0  0  0  0  0  2  0  0  0  0  0  0
  184.5700  178.8960  144.6110 C   0  0  0  0  0  2  0  0  0  0  0  0
  189.3520  177.7750  143.4710 N   0  0  0  0  0  1  0  0  0  0  0  0
  188.5330  177.1310  144.4870 C   0  0  1  0  0  3  0  0  0  0  0  0
  186.9590  177.0290  146.9370 C   0  0  0  0  0  0  0  0  0  0  0  0
  186.3090  176.8750  148.0040 O   0  0  0  0  0  0  0  0  0  0  0  0
  188.3820  176.9200  146.9680 N   0  0  0  0  0  2  0  0  0  0  0  0
  189.2360  177.2940  145.8440 C   0  0  1  0  0  3  0  0  0  0  0  0
  184.9250  177.9010  145.6860 C   0  0  0  0  0  0  0  0  0  0  0  0
  186.2460  177.1560  145.6150 C   0  0  1  0  0  3  0  0  0  0  0  0
  184.1160  177.6600  146.5670 O   0  0  0  0  0  0  0  0  0  0  0  0
  184.3640  177.7180  140.9950 C   0  0  0  0  0  2  0  0  0  0  0  0
  185.4790  177.9470  140.0670 N   0  0  0  0  0  0  0  0  0  0  0  0
  186.7740  178.1120  140.7470 C   0  0  0  0  0  2  0  0  0  0  0  0
  185.1390  178.4620  143.2800 C   0  0  2  0  0  3  0  0  0  0  0  0
  186.9180  177.2270  141.9860 C   0  0  0  0  0  2  0  0  0  0  0  0
  186.3770  177.8900  143.2320 C   0  0  2  0  0  3  0  0  0  0  0  0
  192.1180  175.1440  147.1180 C   0  0  0  0  0  3  0  0  0  0  0  0
  191.3440  176.4880  144.7640 C   0  0  0  0  0  3  0  0  0  0  0  0
  194.6310  174.7410  144.3800 C   0  0  1  0  0  3  0  0  0  0  0  0
  194.2190  174.4360  145.8300 C   0  0  0  0  0  2  0  0  0  0  0  0
  192.9150  175.1160  145.9740 C   0  0  0  0  0  0  0  0  0  0  0  0
  193.5370  175.6160  143.7460 C   0  0  2  0  0  3  0  0  0  0  0  0
  192.5390  175.7680  144.8280 C   0  0  0  0  0  0  0  0  0  0  0  0
  192.9670  174.9380  142.6690 O   0  0  0  0  0  1  0  0  0  0  0  0
  190.5210  176.5310  145.9010 C   0  0  0  0  0  0  0  0  0  0  0  0
  190.9110  175.8560  147.0770 C   0  0  0  0  0  3  0  0  0  0  0  0
  195.9540  175.4340  144.3410 C   0  0  0  0  0  0  0  0  0  0  0  0
  197.0080  174.8290  144.6720 O   0  0  0  0  0  1  0  0  0  0  0  0
  196.0200  176.7600  143.9360 O   0  0  0  0  0  0  0  0  0  0  0  0
  185.5770  176.7770  139.2060 C   0  0  0  0  0  2  0  0  0  0  0  0
  187.0740  175.6620  137.7180 O   0  0  0  0  0  1  0  0  0  0  0  0
  186.7750  176.9030  138.2810 C   0  0  0  0  0  2  0  0  0  0  0  0
  1 11  1  0  0  0  0
  2 16  1  0  0  0  0
  3 10  1  0  0  0  0
  4  5  1  0  0  0  0
  5  1  1  0  0  0  0
  5  9  1  0  0  0  0
  6  8  1  0  0  0  0
  6  7  2  0  0  0  0
  9 27  1  0  0  0  0
  9  8  1  0  0  0  0
 10 12  2  0  0  0  0
 11 10  1  0  0  0  0
 11  6  1  0  0  0  0
 13  2  1  0  0  0  0
 14 15  1  0  0  0  0
 14 13  1  0  0  0  0
 15 17  1  0  0  0  0
 16  3  1  0  0  0  0
 17 18  1  0  0  0  0
 18 16  1  0  0  0  0
 18  1  1  0  0  0  0
 20 25  2  0  0  0  0
 20 27  1  0  0  0  0
 21 22  1  0  0  0  0
 22 23  1  0  0  0  0
 23 19  2  0  0  0  0
 24 21  1  0  0  0  0
 24 25  1  0  0  0  0
 25 23  1  0  0  0  0
 26 24  1  0  0  0  0
 27 28  2  0  0  0  0
 28 19  1  0  0  0  0
 29 21  1  0  0  0  0
 29 30  1  0  0  0  0
 31 29  2  0  0  0  0
 32 14  1  0  0  0  0
 33 34  1  0  0  0  0
 34 32  1  0  0  0  0
M  END
>  <MODEL>
6

>  <REMARK>
 VINA RESULT:      -7.6      1.996      3.111
  Name = 
  4 active torsions:
  status: ('A' for Active; 'I' for Inactive)
    1  A    between atoms: C_3  and  C_24
    2  A    between atoms: C_3  and  N_25
    3  A    between atoms: C_7  and  C_11
    4  A    between atoms: C_18  and  C_30
                            x       y       z     vdW  Elec       q    Type
                         _______ _______ _______ _____ _____    ______ ____

>  <TORSDO>
F 4

$$$$
=
 OpenBabel11052420283D

 34 38  0  0  1  0  0  0  0  0999 V2000
  194.9650  174.1410  145.4010 C   0  0  2  0  0  3  0  0  0  0  0  0
  197.1670  170.9260  145.3600 C   0  0  0  0  0  2  0  0  0  0  0  0
  197.6640  173.4300  145.1480 C   0  0  0  0  0  2  0  0  0  0  0  0
  192.8460  173.7960  146.5860 N   0  0  0  0  0  1  0  0  0  0  0  0
  193.4720  174.5030  145.4790 C   0  0  1  0  0  3  0  0  0  0  0  0
  195.3660  176.3510  144.2590 C   0  0  0  0  0  0  0  0  0  0  0  0
  196.1080  177.1660  143.6500 O   0  0  0  0  0  0  0  0  0  0  0  0
  194.1400  176.8160  144.8220 N   0  0  0  0  0  2  0  0  0  0  0  0
  193.3230  176.0120  145.7280 C   0  0  1  0  0  3  0  0  0  0  0  0
  197.1590  174.5490  144.2740 C   0  0  0  0  0  0  0  0  0  0  0  0
  195.6770  174.8760  144.2530 C   0  0  1  0  0  3  0  0  0  0  0  0
  197.9410  175.1360  143.5450 O   0  0  0  0  0  0  0  0  0  0  0  0
  196.3140  169.9090  144.6140 C   0  0  0  0  0  2  0  0  0  0  0  0
  195.2600  169.3710  145.4830 N   0  0  0  0  0  0  0  0  0  0  0  0
  194.4430  170.4180  146.1200 C   0  0  0  0  0  2  0  0  0  0  0  0
  196.6320  172.3320  145.2520 C   0  0  2  0  0  3  0  0  0  0  0  0
  194.2090  171.6290  145.2160 C   0  0  0  0  0  2  0  0  0  0  0  0
  195.3100  172.6580  145.3380 C   0  0  2  0  0  3  0  0  0  0  0  0
  189.8330  177.1730  146.7410 C   0  0  0  0  0  3  0  0  0  0  0  0
  191.2720  176.5510  144.3980 C   0  0  0  0  0  3  0  0  0  0  0  0
  187.7530  177.5880  143.6620 C   0  0  1  0  0  3  0  0  0  0  0  0
  187.8470  177.6640  145.1960 C   0  0  0  0  0  2  0  0  0  0  0  0
  189.2410  177.2670  145.4820 C   0  0  0  0  0  0  0  0  0  0  0  0
  189.1160  177.1220  143.1230 C   0  0  2  0  0  3  0  0  0  0  0  0
  189.9400  176.9670  144.3410 C   0  0  0  0  0  0  0  0  0  0  0  0
  189.6570  178.1170  142.3090 O   0  0  0  0  0  1  0  0  0  0  0  0
  191.8940  176.4500  145.6530 C   0  0  0  0  0  0  0  0  0  0  0  0
  191.1710  176.7630  146.8230 C   0  0  0  0  0  3  0  0  0  0  0  0
  186.6680  176.6490  143.2450 C   0  0  0  0  0  0  0  0  0  0  0  0
  186.9360  175.6090  142.5870 O   0  0  0  0  0  0  0  0  0  0  0  0
  185.3520  176.9290  143.5860 O   0  0  0  0  0  1  0  0  0  0  0  0
  194.3770  168.5660  144.6510 C   0  0  0  0  0  2  0  0  0  0  0  0
  193.8140  169.2730  142.4420 O   0  0  0  0  0  1  0  0  0  0  0  0
  194.8060  168.6460  143.1960 C   0  0  0  0  0  2  0  0  0  0  0  0
  1  5  1  0  0  0  0
  3 16  1  0  0  0  0
  5  9  1  0  0  0  0
  5  4  1  0  0  0  0
  6  8  1  0  0  0  0
  7  6  2  0  0  0  0
  8  9  1  0  0  0  0
 10  3  1  0  0  0  0
 11  6  1  0  0  0  0
 11 10  1  0  0  0  0
 11  1  1  0  0  0  0
 12 10  2  0  0  0  0
 13  2  1  0  0  0  0
 13 14  1  0  0  0  0
 14 15  1  0  0  0  0
 16 18  1  0  0  0  0
 16  2  1  0  0  0  0
 17 18  1  0  0  0  0
 17 15  1  0  0  0  0
 18  1  1  0  0  0  0
 19 28  1  0  0  0  0
 20 27  1  0  0  0  0
 21 22  1  0  0  0  0
 22 23  1  0  0  0  0
 23 19  2  0  0  0  0
 24 21  1  0  0  0  0
 24 25  1  0  0  0  0
 25 20  2  0  0  0  0
 25 23  1  0  0  0  0
 26 24  1  0  0  0  0
 27  9  1  0  0  0  0
 27 28  2  0  0  0  0
 29 31  1  0  0  0  0
 29 21  1  0  0  0  0
 30 29  2  0  0  0  0
 32 14  1  0  0  0  0
 33 34  1  0  0  0  0
 34 32  1  0  0  0  0
M  END
>  <MODEL>
7

>  <REMARK>
 VINA RESULT:      -7.5      3.515      9.734
  Name = 
  4 active torsions:
  status: ('A' for Active; 'I' for Inactive)
    1  A    between atoms: C_3  and  C_24
    2  A    between atoms: C_3  and  N_25
    3  A    between atoms: C_7  and  C_11
    4  A    between atoms: C_18  and  C_30
                            x       y       z     vdW  Elec       q    Type
                         _______ _______ _______ _____ _____    ______ ____

>  <TORSDO>
F 4

$$$$
=
 OpenBabel11052420283D

 34 38  0  0  1  0  0  0  0  0999 V2000
  194.3630  174.3870  144.0500 C   0  0  2  0  0  3  0  0  0  0  0  0
  197.1850  171.9990  145.2850 C   0  0  0  0  0  2  0  0  0  0  0  0
  197.1630  174.2870  144.1320 C   0  0  0  0  0  2  0  0  0  0  0  0
  192.2520  174.0190  145.2430 N   0  0  0  0  0  1  0  0  0  0  0  0
  192.8270  174.3910  143.9590 C   0  0  1  0  0  3  0  0  0  0  0  0
  194.4060  176.0420  142.1520 C   0  0  0  0  0  0  0  0  0  0  0  0
  195.0190  176.7220  141.2870 O   0  0  0  0  0  0  0  0  0  0  0  0
  193.0570  176.3810  142.4730 N   0  0  0  0  0  2  0  0  0  0  0  0
  192.3380  175.8030  143.6050 C   0  0  1  0  0  3  0  0  0  0  0  0
  196.5270  174.8490  142.8870 C   0  0  0  0  0  0  0  0  0  0  0  0
  195.0200  174.7880  142.7180 C   0  0  1  0  0  3  0  0  0  0  0  0
  197.2400  175.2900  142.0000 O   0  0  0  0  0  0  0  0  0  0  0  0
  196.6470  170.6090  144.9740 C   0  0  0  0  0  2  0  0  0  0  0  0
  195.6460  170.2000  145.9670 N   0  0  0  0  0  0  0  0  0  0  0  0
  194.5640  171.1850  146.1390 C   0  0  0  0  0  2  0  0  0  0  0  0
  196.3800  173.0970  144.6350 C   0  0  2  0  0  3  0  0  0  0  0  0
  194.1760  171.8830  144.8350 C   0  0  0  0  0  2  0  0  0  0  0  0
  195.0170  173.1120  144.5680 C   0  0  2  0  0  3  0  0  0  0  0  0
  188.8920  174.9870  142.1860 C   0  0  0  0  0  3  0  0  0  0  0  0
  190.0670  176.7590  144.0380 C   0  0  0  0  0  3  0  0  0  0  0  0
  186.3670  177.2490  143.7620 C   0  0  1  0  0  3  0  0  0  0  0  0
  186.6640  176.1130  142.7680 C   0  0  0  0  0  2  0  0  0  0  0  0
  188.1220  175.9130  142.8890 C   0  0  0  0  0  0  0  0  0  0  0  0
  187.6950  177.6770  144.4090 C   0  0  2  0  0  3  0  0  0  0  0  0
  188.6920  176.7750  143.7910 C   0  0  0  0  0  0  0  0  0  0  0  0
  187.6360  177.4460  145.7830 O   0  0  0  0  0  1  0  0  0  0  0  0
  190.8650  175.8340  143.3460 C   0  0  0  0  0  0  0  0  0  0  0  0
  190.2740  174.9490  142.4210 C   0  0  0  0  0  3  0  0  0  0  0  0
  185.7200  178.4040  143.0680 C   0  0  0  0  0  0  0  0  0  0  0  0
  185.1440  178.2460  141.9580 O   0  0  0  0  0  0  0  0  0  0  0  0
  185.7560  179.6610  143.6530 O   0  0  0  0  0  1  0  0  0  0  0  0
  195.0430  168.9610  145.4950 C   0  0  0  0  0  2  0  0  0  0  0  0
  195.3780  168.1660  147.7210 O   0  0  0  0  0  1  0  0  0  0  0  0
  194.4690  168.1770  146.6620 C   0  0  0  0  0  2  0  0  0  0  0  0
  1 18  1  0  0  0  0
  3 16  1  0  0  0  0
  5  1  1  0  0  0  0
  5  4  1  0  0  0  0
  6  8  1  0  0  0  0
  6 11  1  0  0  0  0
  7  6  2  0  0  0  0
  8  9  1  0  0  0  0
  9  5  1  0  0  0  0
 10  3  1  0  0  0  0
 11 10  1  0  0  0  0
 11  1  1  0  0  0  0
 12 10  2  0  0  0  0
 13  2  1  0  0  0  0
 13 14  1  0  0  0  0
 14 15  1  0  0  0  0
 16  2  1  0  0  0  0
 17 15  1  0  0  0  0
 18 16  1  0  0  0  0
 18 17  1  0  0  0  0
 19 28  2  0  0  0  0
 19 23  1  0  0  0  0
 21 24  1  0  0  0  0
 22 23  1  0  0  0  0
 22 21  1  0  0  0  0
 23 25  2  0  0  0  0
 24 26  1  0  0  0  0
 25 20  1  0  0  0  0
 25 24  1  0  0  0  0
 27  9  1  0  0  0  0
 27 20  2  0  0  0  0
 28 27  1  0  0  0  0
 29 31  1  0  0  0  0
 29 21  1  0  0  0  0
 30 29  2  0  0  0  0
 32 14  1  0  0  0  0
 32 34  1  0  0  0  0
 34 33  1  0  0  0  0
M  END
>  <MODEL>
8

>  <REMARK>
 VINA RESULT:      -7.4      3.353     10.075
  Name = 
  4 active torsions:
  status: ('A' for Active; 'I' for Inactive)
    1  A    between atoms: C_3  and  C_24
    2  A    between atoms: C_3  and  N_25
    3  A    between atoms: C_7  and  C_11
    4  A    between atoms: C_18  and  C_30
                            x       y       z     vdW  Elec       q    Type
                         _______ _______ _______ _____ _____    ______ ____

>  <TORSDO>
F 4

$$$$
=
 OpenBabel11052420283D

 34 38  0  0  1  0  0  0  0  0999 V2000
  191.4970  174.9610  144.9300 C   0  0  2  0  0  3  0  0  0  0  0  0
  194.5060  173.3230  143.0720 C   0  0  0  0  0  2  0  0  0  0  0  0
  194.1080  174.1040  145.4790 C   0  0  0  0  0  2  0  0  0  0  0  0
  189.3580  174.4780  143.8320 N   0  0  0  0  0  1  0  0  0  0  0  0
  190.0900  175.4810  144.5910 C   0  0  1  0  0  3  0  0  0  0  0  0
  191.5160  176.5190  146.9100 C   0  0  0  0  0  0  0  0  0  0  0  0
  192.0960  177.0710  147.8810 O   0  0  0  0  0  0  0  0  0  0  0  0
  190.0900  176.5480  146.8460 N   0  0  0  0  0  2  0  0  0  0  0  0
  189.3180  175.7590  145.8900 C   0  0  1  0  0  3  0  0  0  0  0  0
  193.6520  175.3870  146.1240 C   0  0  0  0  0  0  0  0  0  0  0  0
  192.3080  175.9820  145.7460 C   0  0  1  0  0  3  0  0  0  0  0  0
  194.3980  175.9650  146.8960 O   0  0  0  0  0  0  0  0  0  0  0  0
  194.4740  173.9640  141.6910 C   0  0  0  0  0  2  0  0  0  0  0  0
  193.4240  173.3620  140.8590 N   0  0  0  0  0  0  0  0  0  0  0  0
  192.1000  173.3680  141.5020 C   0  0  0  0  0  2  0  0  0  0  0  0
  193.5990  174.0150  144.0600 C   0  0  2  0  0  3  0  0  0  0  0  0
  191.8480  174.6180  142.3460 C   0  0  0  0  0  2  0  0  0  0  0  0
  192.3440  174.4610  143.7660 C   0  0  2  0  0  3  0  0  0  0  0  0
  185.7410  177.0100  146.3310 C   0  0  0  0  0  3  0  0  0  0  0  0
  187.7960  177.0730  144.4010 C   0  0  0  0  0  3  0  0  0  0  0  0
  184.7180  178.8630  143.2490 C   0  0  1  0  0  3  0  0  0  0  0  0
  184.3440  178.3510  144.6500 C   0  0  0  0  0  2  0  0  0  0  0  0
  185.5660  177.6570  145.1080 C   0  0  0  0  0  0  0  0  0  0  0  0
  186.1580  178.4150  142.9450 C   0  0  2  0  0  3  0  0  0  0  0  0
  186.5640  177.6900  144.1690 C   0  0  0  0  0  0  0  0  0  0  0  0
  186.9650  179.5390  142.7710 O   0  0  0  0  0  1  0  0  0  0  0  0
  188.0010  176.4170  145.6260 C   0  0  0  0  0  0  0  0  0  0  0  0
  186.9710  176.3880  146.5890 C   0  0  0  0  0  3  0  0  0  0  0  0
  183.7710  178.3320  142.2220 C   0  0  0  0  0  0  0  0  0  0  0  0
  184.1940  177.9050  141.1160 O   0  0  0  0  0  0  0  0  0  0  0  0
  182.4100  178.3120  142.4920 O   0  0  0  0  0  1  0  0  0  0  0  0
  193.3270  174.1540  139.6390 C   0  0  0  0  0  2  0  0  0  0  0  0
  194.9520  174.9740  138.0960 O   0  0  0  0  0  1  0  0  0  0  0  0
  194.5890  174.9750  139.4430 C   0  0  0  0  0  2  0  0  0  0  0  0
  1 11  1  0  0  0  0
  2 16  1  0  0  0  0
  3 10  1  0  0  0  0
  4  5  1  0  0  0  0
  5  1  1  0  0  0  0
  5  9  1  0  0  0  0
  6  7  2  0  0  0  0
  8  6  1  0  0  0  0
  9  8  1  0  0  0  0
 10 12  2  0  0  0  0
 11 10  1  0  0  0  0
 11  6  1  0  0  0  0
 13  2  1  0  0  0  0
 14 15  1  0  0  0  0
 14 13  1  0  0  0  0
 15 17  1  0  0  0  0
 16  3  1  0  0  0  0
 17 18  1  0  0  0  0
 18 16  1  0  0  0  0
 18  1  1  0  0  0  0
 19 28  1  0  0  0  0
 20 27  1  0  0  0  0
 21 22  1  0  0  0  0
 22 23  1  0  0  0  0
 23 19  2  0  0  0  0
 24 21  1  0  0  0  0
 24 25  1  0  0  0  0
 25 20  2  0  0  0  0
 25 23  1  0  0  0  0
 26 24  1  0  0  0  0
 27  9  1  0  0  0  0
 27 28  2  0  0  0  0
 29 31  1  0  0  0  0
 29 21  1  0  0  0  0
 30 29  2  0  0  0  0
 32 14  1  0  0  0  0
 33 34  1  0  0  0  0
 34 32  1  0  0  0  0
M  END
>  <MODEL>
9

>  <REMARK>
 VINA RESULT:      -7.4      2.534      8.886
  Name = 
  4 active torsions:
  status: ('A' for Active; 'I' for Inactive)
    1  A    between atoms: C_3  and  C_24
    2  A    between atoms: C_3  and  N_25
    3  A    between atoms: C_7  and  C_11
    4  A    between atoms: C_18  and  C_30
                            x       y       z     vdW  Elec       q    Type
                         _______ _______ _______ _____ _____    ______ ____

>  <TORSDO>
F 4

$$$$
