=
 OpenBabel11052420363D

 34 38  0  0  1  0  0  0  0  0999 V2000
  190.3120  177.5300  145.2940 C   0  0  1  0  0  3  0  0  0  0  0  0
  193.5160  175.2650  144.6070 C   0  0  1  0  0  3  0  0  0  0  0  0
  193.8750  174.2500  141.4170 C   0  0  0  0  0  1  0  0  0  0  0  0
  192.5000  176.0890  146.7960 C   0  0  0  0  0  2  0  0  0  0  0  0
  188.1570  176.4840  144.3820 C   0  0  2  0  0  3  0  0  0  0  0  0
  189.0800  177.7040  144.3950 C   0  0  0  0  0  2  0  0  0  0  0  0
  189.0100  175.7530  146.6780 C   0  0  2  0  0  3  0  0  0  0  0  0
  189.6290  174.4040  146.3330 C   0  0  0  0  0  1  0  0  0  0  0  0
  187.7900  176.0380  145.8000 C   0  0  0  0  0  2  0  0  0  0  0  0
  191.2630  176.6250  147.4710 C   0  0  0  0  0  0  0  0  0  0  0  0
  190.0080  176.9300  146.6870 C   0  0  1  0  0  3  0  0  0  0  0  0
  191.2730  176.8010  148.6760 O   0  0  0  0  0  0  0  0  0  0  0  0
  193.7250  175.9570  143.2410 C   0  0  1  0  0  3  0  0  0  0  0  0
  193.5250  175.6860  141.7490 C   0  0  2  0  0  3  0  0  0  0  0  0
  192.3260  175.7280  142.6270 C   0  0  2  0  0  3  0  0  0  0  0  0
  192.2410  175.7960  145.3200 C   0  0  1  0  0  3  0  0  0  0  0  0
  191.6120  176.9960  143.0650 C   0  0  0  0  0  2  0  0  0  0  0  0
  191.6120  177.0400  144.6210 C   0  0  1  0  0  3  0  0  0  0  0  0
  193.5320  173.7420  144.5530 C   0  0  0  0  0  2  0  0  0  0  0  0
  192.2490  173.2530  144.7180 F   0  0  0  0  0  0  0  0  0  0  0  0
  188.7050  175.3370  143.5370 C   0  0  0  0  0  2  0  0  0  0  0  0
  187.7610  174.9670  142.3980 C   0  0  0  0  0  2  0  0  0  0  0  0
  188.0890  175.7460  141.1350 C   0  0  0  0  0  2  0  0  0  0  0  0
  186.5940  176.8360  139.1090 C   0  0  0  0  0  1  0  0  0  0  0  0
  186.2360  177.3250  141.3790 C   0  0  2  0  0  3  0  0  0  0  0  0
  187.6890  177.2140  141.2990 C   0  0  2  0  0  3  0  0  0  0  0  0
  186.9170  177.7950  140.1620 N   0  0  0  0  0  0  0  0  0  0  0  0
  185.1750  178.3360  143.4350 C   0  0  0  0  0  0  0  0  0  0  0  0
  185.8720  178.4710  142.1960 N   0  0  0  0  0  2  0  0  0  0  0  0
  184.9190  177.1950  143.9030 O   0  0  0  0  0  0  0  0  0  0  0  0
  184.7400  179.5530  144.1770 C   0  0  0  0  0  2  0  0  0  0  0  0
  185.6030  179.7870  145.4100 C   0  0  0  0  0  2  0  0  0  0  0  0
  185.1670  178.9000  146.5660 C   0  0  0  0  0  2  0  0  0  0  0  0
  186.2100  178.9080  147.6660 C   0  0  0  0  0  1  0  0  0  0  0  0
  1  6  1  6  0  0  0
  1 11  1  0  0  0  0
  2 19  1  6  0  0  0
  2 16  1  0  0  0  0
  3 14  1  0  0  0  0
  4 10  1  0  0  0  0
  5 21  1  1  0  0  0
  5  6  1  0  0  0  0
  5  9  1  0  0  0  0
  7  8  1  6  0  0  0
  7 11  1  0  0  0  0
  9  7  1  0  0  0  0
 10 12  2  0  0  0  0
 11 10  1  6  0  0  0
 13  2  1  0  0  0  0
 14 15  1  0  0  0  0
 14 13  1  0  0  0  0
 15 17  1  0  0  0  0
 15 13  1  0  0  0  0
 16  4  1  0  0  0  0
 17 18  1  0  0  0  0
 18  1  1  0  0  0  0
 18 16  1  0  0  0  0
 19 20  1  0  0  0  0
 22 21  1  0  0  0  0
 23 26  1  0  0  0  0
 23 22  1  0  0  0  0
 24 27  1  0  0  0  0
 25 29  1  0  0  0  0
 26 25  1  0  0  0  0
 27 26  1  0  0  0  0
 27 25  1  0  0  0  0
 28 30  2  0  0  0  0
 28 31  1  0  0  0  0
 29 28  1  0  0  0  0
 31 32  1  0  0  0  0
 32 33  1  0  0  0  0
 33 34  1  0  0  0  0
M  END
>  <MODEL>
1

>  <REMARK>
 VINA RESULT:      -7.6      0.000      0.000
  Name = 
  9 active torsions:
  status: ('A' for Active; 'I' for Inactive)
    1  A    between atoms: C_2  and  C_13
    2  A    between atoms: C_6  and  C_28
    3  A    between atoms: C_6  and  C_30
    4  A    between atoms: C_7  and  C_29
    5  A    between atoms: C_8  and  C_18
    6  A    between atoms: C_11  and  C_15
    7  A    between atoms: C_11  and  C_29
    8  A    between atoms: N_14  and  C_16
    9  A    between atoms: C_18  and  C_30
                            x       y       z     vdW  Elec       q    Type
                         _______ _______ _______ _____ _____    ______ ____

>  <TORSDO>
F 9

$$$$
=
 OpenBabel11052420363D

 34 38  0  0  1  0  0  0  0  0999 V2000
  191.6700  176.8590  144.1470 C   0  0  1  0  0  3  0  0  0  0  0  0
  190.8490  173.9360  141.5680 C   0  0  1  0  0  3  0  0  0  0  0  0
  187.6970  172.7630  141.7140 C   0  0  0  0  0  1  0  0  0  0  0  0
  193.0670  175.0310  142.1910 C   0  0  0  0  0  2  0  0  0  0  0  0
  190.9840  176.2720  146.5460 C   0  0  2  0  0  3  0  0  0  0  0  0
  190.8620  177.2640  145.3880 C   0  0  0  0  0  2  0  0  0  0  0  0
  193.2400  175.4510  145.6700 C   0  0  2  0  0  3  0  0  0  0  0  0
  192.9170  173.9890  145.3830 C   0  0  0  0  0  1  0  0  0  0  0  0
  192.4470  175.9630  146.8730 C   0  0  0  0  0  2  0  0  0  0  0  0
  193.8090  175.8430  143.2220 C   0  0  0  0  0  0  0  0  0  0  0  0
  193.1110  176.3850  144.4480 C   0  0  1  0  0  3  0  0  0  0  0  0
  194.9990  176.0520  143.0700 O   0  0  0  0  0  0  0  0  0  0  0  0
  189.4370  174.5210  141.3380 C   0  0  1  0  0  3  0  0  0  0  0  0
  187.9810  174.2500  141.7200 C   0  0  2  0  0  3  0  0  0  0  0  0
  188.9480  174.5780  142.8020 C   0  0  2  0  0  3  0  0  0  0  0  0
  191.6330  174.7520  142.6350 C   0  0  1  0  0  3  0  0  0  0  0  0
  189.3750  175.9850  143.1900 C   0  0  0  0  0  2  0  0  0  0  0  0
  190.9220  176.0790  143.0450 C   0  0  1  0  0  3  0  0  0  0  0  0
  190.8720  172.4450  141.8800 C   0  0  0  0  0  2  0  0  0  0  0  0
  191.1400  172.2490  143.2230 F   0  0  0  0  0  0  0  0  0  0  0  0
  190.1580  175.0060  146.3300 C   0  0  0  0  0  2  0  0  0  0  0  0
  188.9420  174.9570  147.2490 C   0  0  0  0  0  2  0  0  0  0  0  0
  188.2280  176.2980  147.2930 C   0  0  0  0  0  2  0  0  0  0  0  0
  186.0040  177.7980  147.8620 C   0  0  0  0  0  1  0  0  0  0  0  0
  187.0040  177.7360  145.7370 C   0  0  2  0  0  3  0  0  0  0  0  0
  187.1540  176.3620  146.2040 C   0  0  2  0  0  3  0  0  0  0  0  0
  185.9350  177.1460  146.5580 N   0  0  0  0  0  0  0  0  0  0  0  0
  185.8800  178.8360  143.7620 C   0  0  0  0  0  0  0  0  0  0  0  0
  186.5900  177.7430  144.3440 N   0  0  0  0  0  2  0  0  0  0  0  0
  185.6560  179.8800  144.4290 O   0  0  0  0  0  0  0  0  0  0  0  0
  185.3930  178.7400  142.3560 C   0  0  0  0  0  2  0  0  0  0  0  0
  185.8430  177.4400  141.7030 C   0  0  0  0  0  2  0  0  0  0  0  0
  186.9970  177.6760  140.7400 C   0  0  0  0  0  2  0  0  0  0  0  0
  186.6530  177.1580  139.3580 C   0  0  0  0  0  1  0  0  0  0  0  0
  1 11  1  0  0  0  0
  1  6  1  1  0  0  0
  2 19  1  1  0  0  0
  2 16  1  0  0  0  0
  3 14  1  0  0  0  0
  4 16  1  0  0  0  0
  4 10  1  0  0  0  0
  5 21  1  6  0  0  0
  5  9  1  0  0  0  0
  6  5  1  0  0  0  0
  7  8  1  6  0  0  0
  7  9  1  0  0  0  0
 11 10  1  6  0  0  0
 11  7  1  0  0  0  0
 12 10  2  0  0  0  0
 13  2  1  0  0  0  0
 13 14  1  0  0  0  0
 13 15  1  0  0  0  0
 14 15  1  0  0  0  0
 15 17  1  0  0  0  0
 16 18  1  0  0  0  0
 18 17  1  0  0  0  0
 18  1  1  0  0  0  0
 19 20  1  0  0  0  0
 21 22  1  0  0  0  0
 22 23  1  0  0  0  0
 25 26  1  0  0  0  0
 25 27  1  0  0  0  0
 26 27  1  0  0  0  0
 26 23  1  0  0  0  0
 27 24  1  0  0  0  0
 28 29  1  0  0  0  0
 28 30  2  0  0  0  0
 29 25  1  0  0  0  0
 31 28  1  0  0  0  0
 32 31  1  0  0  0  0
 33 32  1  0  0  0  0
 34 33  1  0  0  0  0
M  END
>  <MODEL>
2

>  <REMARK>
 VINA RESULT:      -7.5      2.007      4.658
  Name = 
  9 active torsions:
  status: ('A' for Active; 'I' for Inactive)
    1  A    between atoms: C_2  and  C_13
    2  A    between atoms: C_6  and  C_28
    3  A    between atoms: C_6  and  C_30
    4  A    between atoms: C_7  and  C_29
    5  A    between atoms: C_8  and  C_18
    6  A    between atoms: C_11  and  C_15
    7  A    between atoms: C_11  and  C_29
    8  A    between atoms: N_14  and  C_16
    9  A    between atoms: C_18  and  C_30
                            x       y       z     vdW  Elec       q    Type
                         _______ _______ _______ _____ _____    ______ ____

>  <TORSDO>
F 9

$$$$
=
 OpenBabel11052420363D

 34 38  0  0  1  0  0  0  0  0999 V2000
  190.4840  172.2800  144.6110 C   0  0  1  0  0  3  0  0  0  0  0  0
  192.4010  175.7610  144.8820 C   0  0  1  0  0  3  0  0  0  0  0  0
  190.5730  178.4550  144.0230 C   0  0  0  0  0  1  0  0  0  0  0  0
  193.2630  173.3680  145.0720 C   0  0  0  0  0  2  0  0  0  0  0  0
  189.3370  171.9660  142.3400 C   0  0  2  0  0  3  0  0  0  0  0  0
  189.1760  171.9890  143.8620 C   0  0  0  0  0  2  0  0  0  0  0  0
  191.8170  171.3890  142.5620 C   0  0  2  0  0  3  0  0  0  0  0  0
  192.4500  172.6080  141.9000 C   0  0  0  0  0  1  0  0  0  0  0  0
  190.4780  171.0430  141.9070 C   0  0  0  0  0  2  0  0  0  0  0  0
  192.9970  171.9200  144.7510 C   0  0  0  0  0  0  0  0  0  0  0  0
  191.7060  171.4820  144.0980 C   0  0  1  0  0  3  0  0  0  0  0  0
  193.8470  171.0870  145.0110 O   0  0  0  0  0  0  0  0  0  0  0  0
  191.1150  176.4400  145.4060 C   0  0  1  0  0  3  0  0  0  0  0  0
  190.0060  177.3760  144.9230 C   0  0  2  0  0  3  0  0  0  0  0  0
  190.1440  176.0460  144.2710 C   0  0  2  0  0  3  0  0  0  0  0  0
  192.1500  174.2660  144.5360 C   0  0  1  0  0  3  0  0  0  0  0  0
  189.5790  174.7460  144.8190 C   0  0  0  0  0  2  0  0  0  0  0  0
  190.7570  173.7460  145.0070 C   0  0  1  0  0  3  0  0  0  0  0  0
  193.0790  176.4930  143.7300 C   0  0  0  0  0  2  0  0  0  0  0  0
  192.9980  175.7330  142.5770 F   0  0  0  0  0  0  0  0  0  0  0  0
  189.4590  173.3630  141.7370 C   0  0  0  0  0  2  0  0  0  0  0  0
  188.1080  174.0640  141.6460 C   0  0  0  0  0  2  0  0  0  0  0  0
  188.1750  175.2740  140.7290 C   0  0  0  0  0  2  0  0  0  0  0  0
  186.6160  177.2650  139.6660 C   0  0  0  0  0  1  0  0  0  0  0  0
  186.6850  176.7730  141.9620 C   0  0  2  0  0  3  0  0  0  0  0  0
  188.0680  176.5640  141.5460 C   0  0  2  0  0  3  0  0  0  0  0  0
  187.2530  177.6470  140.9230 N   0  0  0  0  0  0  0  0  0  0  0  0
  185.4530  178.0570  143.7530 C   0  0  0  0  0  0  0  0  0  0  0  0
  186.6530  177.4910  143.2250 N   0  0  0  0  0  2  0  0  0  0  0  0
  184.3520  177.8800  143.1680 O   0  0  0  0  0  0  0  0  0  0  0  0
  185.5030  178.8690  145.0020 C   0  0  0  0  0  2  0  0  0  0  0  0
  184.6800  178.2280  146.1120 C   0  0  0  0  0  2  0  0  0  0  0  0
  185.2170  176.8500  146.4710 C   0  0  0  0  0  2  0  0  0  0  0  0
  186.6420  176.9480  146.9760 C   0  0  0  0  0  1  0  0  0  0  0  0
  1  6  1  6  0  0  0
  1 18  1  0  0  0  0
  2 19  1  6  0  0  0
  2 13  1  0  0  0  0
  3 14  1  0  0  0  0
  5 21  1  1  0  0  0
  5  6  1  0  0  0  0
  7  8  1  6  0  0  0
  7 11  1  0  0  0  0
  9  5  1  0  0  0  0
  9  7  1  0  0  0  0
 10 12  2  0  0  0  0
 10  4  1  0  0  0  0
 11  1  1  0  0  0  0
 11 10  1  6  0  0  0
 14 13  1  0  0  0  0
 15 17  1  0  0  0  0
 15 14  1  0  0  0  0
 15 13  1  0  0  0  0
 16  2  1  0  0  0  0
 16 18  1  0  0  0  0
 16  4  1  0  0  0  0
 17 18  1  0  0  0  0
 20 19  1  0  0  0  0
 22 21  1  0  0  0  0
 23 26  1  0  0  0  0
 23 22  1  0  0  0  0
 24 27  1  0  0  0  0
 25 29  1  0  0  0  0
 26 25  1  0  0  0  0
 27 26  1  0  0  0  0
 27 25  1  0  0  0  0
 28 31  1  0  0  0  0
 29 28  1  0  0  0  0
 30 28  2  0  0  0  0
 31 32  1  0  0  0  0
 32 33  1  0  0  0  0
 33 34  1  0  0  0  0
M  END
>  <MODEL>
3

>  <REMARK>
 VINA RESULT:      -7.3      2.353      3.848
  Name = 
  9 active torsions:
  status: ('A' for Active; 'I' for Inactive)
    1  A    between atoms: C_2  and  C_13
    2  A    between atoms: C_6  and  C_28
    3  A    between atoms: C_6  and  C_30
    4  A    between atoms: C_7  and  C_29
    5  A    between atoms: C_8  and  C_18
    6  A    between atoms: C_11  and  C_15
    7  A    between atoms: C_11  and  C_29
    8  A    between atoms: N_14  and  C_16
    9  A    between atoms: C_18  and  C_30
                            x       y       z     vdW  Elec       q    Type
                         _______ _______ _______ _____ _____    ______ ____

>  <TORSDO>
F 9

$$$$
=
 OpenBabel11052420363D

 34 38  0  0  1  0  0  0  0  0999 V2000
  192.8550  174.0180  144.3820 C   0  0  1  0  0  3  0  0  0  0  0  0
  190.9790  176.5530  146.8150 C   0  0  1  0  0  3  0  0  0  0  0  0
  187.6850  175.9740  147.1980 C   0  0  0  0  0  1  0  0  0  0  0  0
  193.3440  176.6050  145.8610 C   0  0  0  0  0  2  0  0  0  0  0  0
  191.6660  173.7630  142.1250 C   0  0  2  0  0  3  0  0  0  0  0  0
  192.2220  173.0590  143.3640 C   0  0  0  0  0  2  0  0  0  0  0  0
  193.2660  175.7280  142.4650 C   0  0  2  0  0  3  0  0  0  0  0  0
  192.2740  176.8640  142.6850 C   0  0  0  0  0  1  0  0  0  0  0  0
  192.7050  174.6910  141.4900 C   0  0  0  0  0  2  0  0  0  0  0  0
  194.2600  176.1000  144.7760 C   0  0  0  0  0  0  0  0  0  0  0  0
  193.7930  175.0800  143.7630 C   0  0  1  0  0  3  0  0  0  0  0  0
  195.3960  176.5350  144.7070 O   0  0  0  0  0  0  0  0  0  0  0  0
  190.1140  175.3980  147.3690 C   0  0  1  0  0  3  0  0  0  0  0  0
  188.6930  174.8450  147.2610 C   0  0  2  0  0  3  0  0  0  0  0  0
  189.5440  174.8540  146.0410 C   0  0  2  0  0  3  0  0  0  0  0  0
  191.9290  176.0590  145.6880 C   0  0  1  0  0  3  0  0  0  0  0  0
  190.5820  173.7980  145.6970 C   0  0  0  0  0  2  0  0  0  0  0  0
  191.9590  174.5060  145.5400 C   0  0  1  0  0  3  0  0  0  0  0  0
  190.1900  177.7820  146.3800 C   0  0  0  0  0  2  0  0  0  0  0  0
  190.1920  177.8770  145.0000 F   0  0  0  0  0  0  0  0  0  0  0  0
  190.3410  174.4720  142.3930 C   0  0  0  0  0  2  0  0  0  0  0  0
  189.1740  173.4930  142.4550 C   0  0  0  0  0  2  0  0  0  0  0  0
  187.8530  174.1920  142.1810 C   0  0  0  0  0  2  0  0  0  0  0  0
  187.4610  176.1740  140.3260 C   0  0  0  0  0  1  0  0  0  0  0  0
  186.5970  176.2660  142.5090 C   0  0  2  0  0  3  0  0  0  0  0  0
  187.8960  175.6300  142.7030 C   0  0  2  0  0  3  0  0  0  0  0  0
  187.7260  176.6890  141.6660 N   0  0  0  0  0  0  0  0  0  0  0  0
  185.2290  178.1130  143.5540 C   0  0  0  0  0  0  0  0  0  0  0  0
  186.3740  177.2610  143.5450 N   0  0  0  0  0  2  0  0  0  0  0  0
  184.3220  177.9730  142.6920 O   0  0  0  0  0  0  0  0  0  0  0  0
  185.1080  179.1830  144.5860 C   0  0  0  0  0  2  0  0  0  0  0  0
  184.0450  178.8360  145.6190 C   0  0  0  0  0  2  0  0  0  0  0  0
  184.6590  178.1710  146.8420 C   0  0  0  0  0  2  0  0  0  0  0  0
  185.7040  179.0710  147.4700 C   0  0  0  0  0  1  0  0  0  0  0  0
  1  6  1  6  0  0  0
  1 18  1  0  0  0  0
  2 19  1  6  0  0  0
  2 13  1  0  0  0  0
  3 14  1  0  0  0  0
  5 21  1  1  0  0  0
  5  6  1  0  0  0  0
  7  8  1  1  0  0  0
  7 11  1  0  0  0  0
  9  5  1  0  0  0  0
  9  7  1  0  0  0  0
 10  4  1  0  0  0  0
 11  1  1  0  0  0  0
 11 10  1  1  0  0  0
 12 10  2  0  0  0  0
 14 13  1  0  0  0  0
 15 14  1  0  0  0  0
 15 13  1  0  0  0  0
 16  4  1  0  0  0  0
 16  2  1  0  0  0  0
 17 15  1  0  0  0  0
 18 16  1  0  0  0  0
 18 17  1  0  0  0  0
 20 19  1  0  0  0  0
 21 22  1  0  0  0  0
 23 22  1  0  0  0  0
 23 26  1  0  0  0  0
 24 27  1  0  0  0  0
 25 26  1  0  0  0  0
 25 29  1  0  0  0  0
 27 25  1  0  0  0  0
 27 26  1  0  0  0  0
 28 31  1  0  0  0  0
 29 28  1  0  0  0  0
 30 28  2  0  0  0  0
 31 32  1  0  0  0  0
 32 33  1  0  0  0  0
 33 34  1  0  0  0  0
M  END
>  <MODEL>
4

>  <REMARK>
 VINA RESULT:      -7.3      1.817      4.108
  Name = 
  9 active torsions:
  status: ('A' for Active; 'I' for Inactive)
    1  A    between atoms: C_2  and  C_13
    2  A    between atoms: C_6  and  C_28
    3  A    between atoms: C_6  and  C_30
    4  A    between atoms: C_7  and  C_29
    5  A    between atoms: C_8  and  C_18
    6  A    between atoms: C_11  and  C_15
    7  A    between atoms: C_11  and  C_29
    8  A    between atoms: N_14  and  C_16
    9  A    between atoms: C_18  and  C_30
                            x       y       z     vdW  Elec       q    Type
                         _______ _______ _______ _____ _____    ______ ____

>  <TORSDO>
F 9

$$$$
=
 OpenBabel11052420363D

 34 38  0  0  1  0  0  0  0  0999 V2000
  190.7770  172.0510  143.9610 C   0  0  1  0  0  3  0  0  0  0  0  0
  192.2590  175.2750  145.7710 C   0  0  1  0  0  3  0  0  0  0  0  0
  189.9520  177.4600  146.8840 C   0  0  0  0  0  1  0  0  0  0  0  0
  193.4200  173.4270  144.4510 C   0  0  0  0  0  2  0  0  0  0  0  0
  189.0740  172.6440  142.1390 C   0  0  2  0  0  3  0  0  0  0  0  0
  189.3540  171.8540  143.4200 C   0  0  0  0  0  2  0  0  0  0  0  0
  191.5640  172.6920  141.5660 C   0  0  2  0  0  3  0  0  0  0  0  0
  191.8300  174.1930  141.5900 C   0  0  0  0  0  1  0  0  0  0  0  0
  190.1460  172.3940  141.0760 C   0  0  0  0  0  2  0  0  0  0  0  0
  193.2490  172.3270  143.4350 C   0  0  0  0  0  0  0  0  0  0  0  0
  191.8870  171.9650  142.8880 C   0  0  1  0  0  3  0  0  0  0  0  0
  194.2320  171.7270  143.0370 O   0  0  0  0  0  0  0  0  0  0  0  0
  191.1050  175.2410  146.7990 C   0  0  1  0  0  3  0  0  0  0  0  0
  189.8000  175.9710  147.1180 C   0  0  2  0  0  3  0  0  0  0  0  0
  189.9040  175.2400  145.8280 C   0  0  2  0  0  3  0  0  0  0  0  0
  192.1010  174.1530  144.7070 C   0  0  1  0  0  3  0  0  0  0  0  0
  189.6800  173.7460  145.6540 C   0  0  0  0  0  2  0  0  0  0  0  0
  190.9740  173.1300  145.0470 C   0  0  1  0  0  3  0  0  0  0  0  0
  192.4850  176.6330  145.1190 C   0  0  0  0  0  2  0  0  0  0  0  0
  192.1250  176.5810  143.7850 F   0  0  0  0  0  0  0  0  0  0  0  0
  188.8490  174.1320  142.3990 C   0  0  0  0  0  2  0  0  0  0  0  0
  188.2610  174.8400  141.1840 C   0  0  0  0  0  2  0  0  0  0  0  0
  187.9750  176.3020  141.4820 C   0  0  0  0  0  2  0  0  0  0  0  0
  189.1420  177.9960  143.2970 C   0  0  0  0  0  1  0  0  0  0  0  0
  186.8170  177.8130  143.0190 C   0  0  2  0  0  3  0  0  0  0  0  0
  187.2720  176.4390  142.8350 C   0  0  2  0  0  3  0  0  0  0  0  0
  187.9530  177.3300  143.8190 N   0  0  0  0  0  0  0  0  0  0  0  0
  185.1350  179.0230  144.4620 C   0  0  0  0  0  0  0  0  0  0  0  0
  185.6220  177.8300  143.8470 N   0  0  0  0  0  2  0  0  0  0  0  0
  185.6910  180.1300  144.2380 O   0  0  0  0  0  0  0  0  0  0  0  0
  183.9630  178.9580  145.3820 C   0  0  0  0  0  2  0  0  0  0  0  0
  184.2020  177.9650  146.5120 C   0  0  0  0  0  2  0  0  0  0  0  0
  185.4990  178.2660  147.2470 C   0  0  0  0  0  2  0  0  0  0  0  0
  186.3110  177.0000  147.4350 C   0  0  0  0  0  1  0  0  0  0  0  0
  1  6  1  6  0  0  0
  1 18  1  0  0  0  0
  2 19  1  6  0  0  0
  2 13  1  0  0  0  0
  3 14  1  0  0  0  0
  4 16  1  0  0  0  0
  5 21  1  1  0  0  0
  5  6  1  0  0  0  0
  7  8  1  1  0  0  0
  7 11  1  0  0  0  0
  9  7  1  0  0  0  0
  9  5  1  0  0  0  0
 10  4  1  0  0  0  0
 11 10  1  1  0  0  0
 11  1  1  0  0  0  0
 12 10  2  0  0  0  0
 13 14  1  0  0  0  0
 15 13  1  0  0  0  0
 15 14  1  0  0  0  0
 16 18  1  0  0  0  0
 16  2  1  0  0  0  0
 17 15  1  0  0  0  0
 18 17  1  0  0  0  0
 20 19  1  0  0  0  0
 22 23  1  0  0  0  0
 22 21  1  0  0  0  0
 23 26  1  0  0  0  0
 24 27  1  0  0  0  0
 25 27  1  0  0  0  0
 25 29  1  0  0  0  0
 26 25  1  0  0  0  0
 26 27  1  0  0  0  0
 28 31  1  0  0  0  0
 29 28  1  0  0  0  0
 30 28  2  0  0  0  0
 31 32  1  0  0  0  0
 32 33  1  0  0  0  0
 33 34  1  0  0  0  0
M  END
>  <MODEL>
5

>  <REMARK>
 VINA RESULT:      -7.1      2.431      4.332
  Name = 
  9 active torsions:
  status: ('A' for Active; 'I' for Inactive)
    1  A    between atoms: C_2  and  C_13
    2  A    between atoms: C_6  and  C_28
    3  A    between atoms: C_6  and  C_30
    4  A    between atoms: C_7  and  C_29
    5  A    between atoms: C_8  and  C_18
    6  A    between atoms: C_11  and  C_15
    7  A    between atoms: C_11  and  C_29
    8  A    between atoms: N_14  and  C_16
    9  A    between atoms: C_18  and  C_30
                            x       y       z     vdW  Elec       q    Type
                         _______ _______ _______ _____ _____    ______ ____

>  <TORSDO>
F 9

$$$$
=
 OpenBabel11052420363D

 34 38  0  0  1  0  0  0  0  0999 V2000
  187.9470  178.6140  143.0700 C   0  0  1  0  0  3  0  0  0  0  0  0
  187.2840  177.3040  146.7730 C   0  0  1  0  0  3  0  0  0  0  0  0
  189.0090  174.5420  147.6280 C   0  0  0  0  0  1  0  0  0  0  0  0
  186.1050  179.1090  145.4110 C   0  0  0  0  0  2  0  0  0  0  0  0
  187.7050  176.7610  141.3160 C   0  0  2  0  0  3  0  0  0  0  0  0
  188.6010  177.8490  141.9110 C   0  0  0  0  0  2  0  0  0  0  0  0
  185.6080  177.9760  142.1280 C   0  0  2  0  0  3  0  0  0  0  0  0
  185.0310  176.9360  143.0820 C   0  0  0  0  0  1  0  0  0  0  0  0
  186.3210  177.3060  140.9520 C   0  0  0  0  0  2  0  0  0  0  0  0
  185.8330  179.6490  144.0300 C   0  0  0  0  0  0  0  0  0  0  0  0
  186.4870  179.0470  142.8070 C   0  0  1  0  0  3  0  0  0  0  0  0
  185.0590  180.5790  143.8980 O   0  0  0  0  0  0  0  0  0  0  0  0
  188.7770  176.9310  146.9200 C   0  0  1  0  0  3  0  0  0  0  0  0
  189.6810  175.6970  146.9150 C   0  0  2  0  0  3  0  0  0  0  0  0
  188.9340  176.0320  145.6730 C   0  0  2  0  0  3  0  0  0  0  0  0
  186.9770  177.8570  145.3530 C   0  0  1  0  0  3  0  0  0  0  0  0
  189.3790  177.0540  144.6400 C   0  0  0  0  0  2  0  0  0  0  0  0
  188.2550  178.1220  144.5010 C   0  0  1  0  0  3  0  0  0  0  0  0
  186.3140  176.1950  147.1620 C   0  0  0  0  0  2  0  0  0  0  0  0
  185.1070  176.3770  146.5130 F   0  0  0  0  0  0  0  0  0  0  0  0
  187.6260  175.5140  142.1930 C   0  0  0  0  0  2  0  0  0  0  0  0
  188.8700  174.6420  142.0570 C   0  0  0  0  0  2  0  0  0  0  0  0
  188.5580  173.1860  142.3590 C   0  0  0  0  0  2  0  0  0  0  0  0
  190.2550  171.0760  141.9160 C   0  0  0  0  0  1  0  0  0  0  0  0
  190.8000  172.8970  143.2960 C   0  0  2  0  0  3  0  0  0  0  0  0
  189.3780  172.7080  143.5610 C   0  0  2  0  0  3  0  0  0  0  0  0
  190.2570  171.5300  143.3040 N   0  0  0  0  0  0  0  0  0  0  0  0
  192.2340  174.3420  144.7900 C   0  0  0  0  0  0  0  0  0  0  0  0
  191.5060  173.1390  144.5440 N   0  0  0  0  0  2  0  0  0  0  0  0
  192.2210  175.2800  143.9510 O   0  0  0  0  0  0  0  0  0  0  0  0
  193.0220  174.4880  146.0480 C   0  0  0  0  0  2  0  0  0  0  0  0
  193.4740  175.9270  146.2530 C   0  0  0  0  0  2  0  0  0  0  0  0
  194.8740  176.1510  145.6990 C   0  0  0  0  0  2  0  0  0  0  0  0
  195.6980  174.8840  145.8040 C   0  0  0  0  0  1  0  0  0  0  0  0
  1  6  1  6  0  0  0
  1 18  1  0  0  0  0
  2 13  1  0  0  0  0
  2 19  1  6  0  0  0
  5  6  1  0  0  0  0
  5 21  1  1  0  0  0
  7 11  1  0  0  0  0
  7  8  1  1  0  0  0
  9  5  1  0  0  0  0
  9  7  1  0  0  0  0
 10  4  1  0  0  0  0
 11  1  1  0  0  0  0
 11 10  1  1  0  0  0
 12 10  2  0  0  0  0
 14 13  1  0  0  0  0
 14  3  1  0  0  0  0
 15 14  1  0  0  0  0
 15 13  1  0  0  0  0
 16  4  1  0  0  0  0
 16  2  1  0  0  0  0
 17 15  1  0  0  0  0
 18 17  1  0  0  0  0
 18 16  1  0  0  0  0
 20 19  1  0  0  0  0
 22 21  1  0  0  0  0
 22 23  1  0  0  0  0
 23 26  1  0  0  0  0
 24 27  1  0  0  0  0
 25 27  1  0  0  0  0
 25 26  1  0  0  0  0
 25 29  1  0  0  0  0
 27 26  1  0  0  0  0
 28 31  1  0  0  0  0
 29 28  1  0  0  0  0
 30 28  2  0  0  0  0
 31 32  1  0  0  0  0
 33 34  1  0  0  0  0
 33 32  1  0  0  0  0
M  END
>  <MODEL>
6

>  <REMARK>
 VINA RESULT:      -7.0      3.070      6.665
  Name = 
  9 active torsions:
  status: ('A' for Active; 'I' for Inactive)
    1  A    between atoms: C_2  and  C_13
    2  A    between atoms: C_6  and  C_28
    3  A    between atoms: C_6  and  C_30
    4  A    between atoms: C_7  and  C_29
    5  A    between atoms: C_8  and  C_18
    6  A    between atoms: C_11  and  C_15
    7  A    between atoms: C_11  and  C_29
    8  A    between atoms: N_14  and  C_16
    9  A    between atoms: C_18  and  C_30
                            x       y       z     vdW  Elec       q    Type
                         _______ _______ _______ _____ _____    ______ ____

>  <TORSDO>
F 9

$$$$
=
 OpenBabel11052420363D

 34 38  0  0  1  0  0  0  0  0999 V2000
  193.0850  174.1070  145.3100 C   0  0  1  0  0  3  0  0  0  0  0  0
  190.7010  177.2780  145.6670 C   0  0  1  0  0  3  0  0  0  0  0  0
  187.4430  176.5570  146.1120 C   0  0  0  0  0  1  0  0  0  0  0  0
  193.1600  177.1110  145.0130 C   0  0  0  0  0  2  0  0  0  0  0  0
  192.2350  172.4310  143.5660 C   0  0  2  0  0  3  0  0  0  0  0  0
  192.6750  172.6570  145.0140 C   0  0  0  0  0  2  0  0  0  0  0  0
  193.6110  174.4390  142.7840 C   0  0  2  0  0  3  0  0  0  0  0  0
  192.5100  175.3370  142.2320 C   0  0  0  0  0  1  0  0  0  0  0  0
  193.2720  172.9620  142.5720 C   0  0  0  0  0  2  0  0  0  0  0  0
  194.2520  176.2110  144.4910 C   0  0  0  0  0  0  0  0  0  0  0  0
  194.0090  174.7400  144.2440 C   0  0  1  0  0  3  0  0  0  0  0  0
  195.3480  176.6850  144.2500 O   0  0  0  0  0  0  0  0  0  0  0  0
  189.8650  176.5420  146.7390 C   0  0  1  0  0  3  0  0  0  0  0  0
  188.5200  175.8290  146.8890 C   0  0  2  0  0  3  0  0  0  0  0  0
  189.5240  175.2570  145.9520 C   0  0  2  0  0  3  0  0  0  0  0  0
  191.8300  176.3670  145.1070 C   0  0  1  0  0  3  0  0  0  0  0  0
  190.6810  174.3590  146.3590 C   0  0  0  0  0  2  0  0  0  0  0  0
  192.0050  175.0370  145.9020 C   0  0  1  0  0  3  0  0  0  0  0  0
  189.8810  177.9020  144.5440 C   0  0  0  0  0  2  0  0  0  0  0  0
  190.0140  177.1510  143.3900 F   0  0  0  0  0  0  0  0  0  0  0  0
  190.8330  172.9650  143.2830 C   0  0  0  0  0  2  0  0  0  0  0  0
  189.9910  171.9640  142.4990 C   0  0  0  0  0  2  0  0  0  0  0  0
  188.6870  172.5890  142.0310 C   0  0  0  0  0  2  0  0  0  0  0  0
  188.5660  174.2250  139.8330 C   0  0  0  0  0  1  0  0  0  0  0  0
  187.4410  174.6860  141.8430 C   0  0  2  0  0  3  0  0  0  0  0  0
  188.6930  174.0950  142.3030 C   0  0  2  0  0  3  0  0  0  0  0  0
  188.6740  174.9620  141.0890 N   0  0  0  0  0  0  0  0  0  0  0  0
  186.6580  177.0730  142.0950 C   0  0  0  0  0  0  0  0  0  0  0  0
  187.1110  175.8430  142.6590 N   0  0  0  0  0  2  0  0  0  0  0  0
  186.4510  177.1710  140.8570 O   0  0  0  0  0  0  0  0  0  0  0  0
  186.4340  178.2550  142.9760 C   0  0  0  0  0  2  0  0  0  0  0  0
  184.9590  178.4180  143.3180 C   0  0  0  0  0  2  0  0  0  0  0  0
  184.7620  179.3980  144.4660 C   0  0  0  0  0  2  0  0  0  0  0  0
  184.3580  178.6650  145.7290 C   0  0  0  0  0  1  0  0  0  0  0  0
  1  6  1  6  0  0  0
  1 18  1  0  0  0  0
  2 19  1  6  0  0  0
  2 13  1  0  0  0  0
  3 14  1  0  0  0  0
  4 16  1  0  0  0  0
  5 21  1  6  0  0  0
  5  6  1  0  0  0  0
  7  8  1  1  0  0  0
  7 11  1  0  0  0  0
  9  7  1  0  0  0  0
  9  5  1  0  0  0  0
 10  4  1  0  0  0  0
 11 10  1  6  0  0  0
 11  1  1  0  0  0  0
 12 10  2  0  0  0  0
 13 14  1  0  0  0  0
 15 17  1  0  0  0  0
 15 13  1  0  0  0  0
 15 14  1  0  0  0  0
 16  2  1  0  0  0  0
 16 18  1  0  0  0  0
 18 17  1  0  0  0  0
 20 19  1  0  0  0  0
 22 21  1  0  0  0  0
 23 26  1  0  0  0  0
 23 22  1  0  0  0  0
 24 27  1  0  0  0  0
 25 26  1  0  0  0  0
 25 29  1  0  0  0  0
 27 25  1  0  0  0  0
 27 26  1  0  0  0  0
 28 29  1  0  0  0  0
 28 31  1  0  0  0  0
 30 28  2  0  0  0  0
 31 32  1  0  0  0  0
 32 33  1  0  0  0  0
 33 34  1  0  0  0  0
M  END
>  <MODEL>
7

>  <REMARK>
 VINA RESULT:      -7.0      2.131      4.468
  Name = 
  9 active torsions:
  status: ('A' for Active; 'I' for Inactive)
    1  A    between atoms: C_2  and  C_13
    2  A    between atoms: C_6  and  C_28
    3  A    between atoms: C_6  and  C_30
    4  A    between atoms: C_7  and  C_29
    5  A    between atoms: C_8  and  C_18
    6  A    between atoms: C_11  and  C_15
    7  A    between atoms: C_11  and  C_29
    8  A    between atoms: N_14  and  C_16
    9  A    between atoms: C_18  and  C_30
                            x       y       z     vdW  Elec       q    Type
                         _______ _______ _______ _____ _____    ______ ____

>  <TORSDO>
F 9

$$$$
=
 OpenBabel11052420363D

 34 38  0  0  1  0  0  0  0  0999 V2000
  190.5290  173.6570  145.0850 C   0  0  1  0  0  3  0  0  0  0  0  0
  194.3890  174.6370  145.1760 C   0  0  1  0  0  3  0  0  0  0  0  0
  195.0100  177.8950  145.7540 C   0  0  0  0  0  1  0  0  0  0  0  0
  193.2400  172.4650  144.4940 C   0  0  0  0  0  2  0  0  0  0  0  0
  189.1680  175.1740  143.5310 C   0  0  2  0  0  3  0  0  0  0  0  0
  189.3280  174.6020  144.9410 C   0  0  0  0  0  2  0  0  0  0  0  0
  190.4230  173.1860  142.5290 C   0  0  2  0  0  3  0  0  0  0  0  0
  191.6250  173.8930  141.9130 C   0  0  0  0  0  1  0  0  0  0  0  0
  189.1770  174.0710  142.4700 C   0  0  0  0  0  2  0  0  0  0  0  0
  191.9510  171.8260  144.0410 C   0  0  0  0  0  0  0  0  0  0  0  0
  190.6690  172.6230  143.9450 C   0  0  1  0  0  3  0  0  0  0  0  0
  191.9470  170.6480  143.7330 O   0  0  0  0  0  0  0  0  0  0  0  0
  194.1210  175.6280  146.3320 C   0  0  1  0  0  3  0  0  0  0  0  0
  193.9920  177.1320  146.5770 C   0  0  2  0  0  3  0  0  0  0  0  0
  193.0040  176.4740  145.6810 C   0  0  2  0  0  3  0  0  0  0  0  0
  193.0720  173.9700  144.6860 C   0  0  1  0  0  3  0  0  0  0  0  0
  191.7690  175.7240  146.1520 C   0  0  0  0  0  2  0  0  0  0  0  0
  191.8480  174.2690  145.6040 C   0  0  1  0  0  3  0  0  0  0  0  0
  195.1840  175.2200  144.0140 C   0  0  0  0  0  2  0  0  0  0  0  0
  194.3680  175.3540  142.9060 F   0  0  0  0  0  0  0  0  0  0  0  0
  190.1720  176.2830  143.2250 C   0  0  0  0  0  2  0  0  0  0  0  0
  189.5170  177.6600  143.2230 C   0  0  0  0  0  2  0  0  0  0  0  0
  188.5580  177.8130  142.0550 C   0  0  0  0  0  2  0  0  0  0  0  0
  186.3920  177.5300  140.3950 C   0  0  0  0  0  1  0  0  0  0  0  0
  186.2390  177.4300  142.7370 C   0  0  2  0  0  3  0  0  0  0  0  0
  187.2510  178.4590  142.5240 C   0  0  2  0  0  3  0  0  0  0  0  0
  186.1020  178.3300  141.5810 N   0  0  0  0  0  0  0  0  0  0  0  0
  185.4730  177.4460  145.1430 C   0  0  0  0  0  0  0  0  0  0  0  0
  185.3200  177.8490  143.7820 N   0  0  0  0  0  2  0  0  0  0  0  0
  186.4720  176.7670  145.5000 O   0  0  0  0  0  0  0  0  0  0  0  0
  184.4410  177.8250  146.1500 C   0  0  0  0  0  2  0  0  0  0  0  0
  185.0730  178.1370  147.4990 C   0  0  0  0  0  2  0  0  0  0  0  0
  185.9080  179.4080  147.4380 C   0  0  0  0  0  2  0  0  0  0  0  0
  187.0930  179.3130  148.3780 C   0  0  0  0  0  1  0  0  0  0  0  0
  1  6  1  6  0  0  0
  1 18  1  0  0  0  0
  2 19  1  6  0  0  0
  2 13  1  0  0  0  0
  3 14  1  0  0  0  0
  4 16  1  0  0  0  0
  5 21  1  6  0  0  0
  5  6  1  0  0  0  0
  7  8  1  1  0  0  0
  7 11  1  0  0  0  0
  9  7  1  0  0  0  0
  9  5  1  0  0  0  0
 10  4  1  0  0  0  0
 11 10  1  6  0  0  0
 11  1  1  0  0  0  0
 12 10  2  0  0  0  0
 13 14  1  0  0  0  0
 15 17  1  0  0  0  0
 15 13  1  0  0  0  0
 15 14  1  0  0  0  0
 16  2  1  0  0  0  0
 16 18  1  0  0  0  0
 18 17  1  0  0  0  0
 20 19  1  0  0  0  0
 22 21  1  0  0  0  0
 23 26  1  0  0  0  0
 23 22  1  0  0  0  0
 24 27  1  0  0  0  0
 25 29  1  0  0  0  0
 26 25  1  0  0  0  0
 27 26  1  0  0  0  0
 27 25  1  0  0  0  0
 28 30  2  0  0  0  0
 28 31  1  0  0  0  0
 29 28  1  0  0  0  0
 31 32  1  0  0  0  0
 33 32  1  0  0  0  0
 33 34  1  0  0  0  0
M  END
>  <MODEL>
8

>  <REMARK>
 VINA RESULT:      -6.9      2.237      3.515
  Name = 
  9 active torsions:
  status: ('A' for Active; 'I' for Inactive)
    1  A    between atoms: C_2  and  C_13
    2  A    between atoms: C_6  and  C_28
    3  A    between atoms: C_6  and  C_30
    4  A    between atoms: C_7  and  C_29
    5  A    between atoms: C_8  and  C_18
    6  A    between atoms: C_11  and  C_15
    7  A    between atoms: C_11  and  C_29
    8  A    between atoms: N_14  and  C_16
    9  A    between atoms: C_18  and  C_30
                            x       y       z     vdW  Elec       q    Type
                         _______ _______ _______ _____ _____    ______ ____

>  <TORSDO>
F 9

$$$$
=
 OpenBabel11052420363D

 34 38  0  0  1  0  0  0  0  0999 V2000
  188.9640  175.0230  145.3650 C   0  0  1  0  0  3  0  0  0  0  0  0
  191.0590  173.9860  142.1400 C   0  0  1  0  0  3  0  0  0  0  0  0
  193.6820  171.9640  142.7450 C   0  0  0  0  0  1  0  0  0  0  0  0
  189.1920  175.6980  142.4300 C   0  0  0  0  0  2  0  0  0  0  0  0
  190.4470  175.9290  147.2490 C   0  0  2  0  0  3  0  0  0  0  0  0
  189.3900  174.9030  146.8350 C   0  0  0  0  0  2  0  0  0  0  0  0
  189.7060  177.5160  145.3870 C   0  0  2  0  0  3  0  0  0  0  0  0
  190.9820  177.5900  144.5560 C   0  0  0  0  0  1  0  0  0  0  0  0
  190.0290  177.3520  146.8740 C   0  0  0  0  0  2  0  0  0  0  0  0
  188.4290  176.5560  143.4080 C   0  0  0  0  0  0  0  0  0  0  0  0
  188.6840  176.4690  144.8960 C   0  0  1  0  0  3  0  0  0  0  0  0
  187.6020  177.3440  142.9880 O   0  0  0  0  0  0  0  0  0  0  0  0
  191.2520  172.5620  142.7100 C   0  0  1  0  0  3  0  0  0  0  0  0
  192.3300  171.7050  143.3760 C   0  0  2  0  0  3  0  0  0  0  0  0
  191.8570  172.9240  144.0850 C   0  0  2  0  0  3  0  0  0  0  0  0
  190.2810  174.8920  143.1340 C   0  0  1  0  0  3  0  0  0  0  0  0
  190.6010  173.0020  144.9360 C   0  0  0  0  0  2  0  0  0  0  0  0
  189.6840  174.1130  144.3470 C   0  0  1  0  0  3  0  0  0  0  0  0
  192.3410  174.6550  141.6610 C   0  0  0  0  0  2  0  0  0  0  0  0
  192.6520  175.7210  142.4870 F   0  0  0  0  0  0  0  0  0  0  0  0
  191.8430  175.5800  146.7380 C   0  0  0  0  0  2  0  0  0  0  0  0
  192.9000  176.5400  147.2700 C   0  0  0  0  0  2  0  0  0  0  0  0
  194.2030  176.4090  146.4980 C   0  0  0  0  0  2  0  0  0  0  0  0
  195.6920  176.3250  144.1960 C   0  0  0  0  0  1  0  0  0  0  0  0
  195.6240  174.5640  145.7490 C   0  0  2  0  0  3  0  0  0  0  0  0
  194.2530  175.0640  145.7690 C   0  0  2  0  0  3  0  0  0  0  0  0
  195.0310  175.0580  144.4960 N   0  0  0  0  0  0  0  0  0  0  0  0
  196.6910  172.3450  145.1890 C   0  0  0  0  0  0  0  0  0  0  0  0
  195.6190  173.1100  145.7400 N   0  0  0  0  0  2  0  0  0  0  0  0
  197.7280  172.9150  144.7590 O   0  0  0  0  0  0  0  0  0  0  0  0
  196.5810  170.8600  145.1160 C   0  0  0  0  0  2  0  0  0  0  0  0
  196.5960  170.2350  146.5050 C   0  0  0  0  0  2  0  0  0  0  0  0
  195.3650  169.3720  146.7360 C   0  0  0  0  0  2  0  0  0  0  0  0
  194.4550  169.4060  145.5240 C   0  0  0  0  0  1  0  0  0  0  0  0
  1  6  1  1  0  0  0
  2 19  1  1  0  0  0
  2 13  1  0  0  0  0
  2 16  1  0  0  0  0
  3 14  1  0  0  0  0
  4 16  1  0  0  0  0
  4 10  1  0  0  0  0
  5 21  1  6  0  0  0
  6  5  1  0  0  0  0
  7  8  1  6  0  0  0
  7  9  1  0  0  0  0
  9  5  1  0  0  0  0
 11 10  1  6  0  0  0
 11  1  1  0  0  0  0
 11  7  1  0  0  0  0
 12 10  2  0  0  0  0
 13 14  1  0  0  0  0
 13 15  1  0  0  0  0
 14 15  1  0  0  0  0
 15 17  1  0  0  0  0
 16 18  1  0  0  0  0
 18 17  1  0  0  0  0
 18  1  1  0  0  0  0
 19 20  1  0  0  0  0
 21 22  1  0  0  0  0
 23 22  1  0  0  0  0
 24 27  1  0  0  0  0
 25 26  1  0  0  0  0
 26 23  1  0  0  0  0
 27 25  1  0  0  0  0
 27 26  1  0  0  0  0
 28 29  1  0  0  0  0
 29 25  1  0  0  0  0
 30 28  2  0  0  0  0
 31 28  1  0  0  0  0
 31 32  1  0  0  0  0
 32 33  1  0  0  0  0
 34 33  1  0  0  0  0
M  END
>  <MODEL>
9

>  <REMARK>
 VINA RESULT:      -6.8      3.782      7.868
  Name = 
  9 active torsions:
  status: ('A' for Active; 'I' for Inactive)
    1  A    between atoms: C_2  and  C_13
    2  A    between atoms: C_6  and  C_28
    3  A    between atoms: C_6  and  C_30
    4  A    between atoms: C_7  and  C_29
    5  A    between atoms: C_8  and  C_18
    6  A    between atoms: C_11  and  C_15
    7  A    between atoms: C_11  and  C_29
    8  A    between atoms: N_14  and  C_16
    9  A    between atoms: C_18  and  C_30
                            x       y       z     vdW  Elec       q    Type
                         _______ _______ _______ _____ _____    ______ ____

>  <TORSDO>
F 9

$$$$
