=
 OpenBabel11052421373D

 32 36  0  0  1  0  0  0  0  0999 V2000
  183.2230  178.5640  143.1840 C   0  0  0  0  0  3  0  0  0  0  0  0
  187.8340  177.4120  142.2220 C   0  0  0  0  0  0  0  0  0  0  0  0
  189.2610  176.9080  147.5500 C   0  0  0  0  0  2  0  0  0  0  0  0
  189.4980  175.4950  147.0990 C   0  0  0  0  0  3  0  0  0  0  0  0
  185.1930  177.8320  141.3720 C   0  0  0  0  0  0  0  0  0  0  0  0
  186.8560  177.7610  143.1730 C   0  0  0  0  0  0  0  0  0  0  0  0
  184.5240  178.3560  143.6390 C   0  0  0  0  0  3  0  0  0  0  0  0
  188.0750  177.5330  146.8130 C   0  0  0  0  0  2  0  0  0  0  0  0
  187.1840  177.9200  144.6130 C   0  0  0  0  0  3  0  0  0  0  0  0
  188.1400  177.3070  145.3260 C   0  0  0  0  0  0  0  0  0  0  0  0
  189.4510  176.1170  143.5430 C   0  0  0  0  0  0  0  0  0  0  0  0
  183.5560  177.9040  139.7390 O   0  0  0  0  0  0  0  0  0  0  0  0
  183.8670  178.0480  140.9550 C   0  0  0  0  0  0  0  0  0  0  0  0
  185.5290  177.9890  142.7370 C   0  0  0  0  0  0  0  0  0  0  0  0
  186.1840  177.4660  140.4530 C   0  0  0  0  0  3  0  0  0  0  0  0
  182.9140  178.4130  141.8670 N   0  0  0  0  0  0  0  0  0  0  0  0
  189.4230  175.1810  145.8060 C   0  0  0  0  0  3  0  0  0  0  0  0
  188.9980  176.1910  144.8120 C   0  0  0  0  0  0  0  0  0  0  0  0
  187.4940  177.2650  140.8760 C   0  0  0  0  0  3  0  0  0  0  0  0
  189.2630  177.2670  142.6030 C   0  0  0  0  0  2  0  0  0  0  0  0
  192.1640  174.0330  141.6800 C   0  0  2  0  0  3  0  0  0  0  0  0
  191.6310  172.6880  142.1960 C   0  0  0  0  0  2  0  0  0  0  0  0
  189.3610  173.6880  142.7730 C   0  0  2  0  0  3  0  0  0  0  0  0
  189.6780  171.3340  142.4550 O   0  0  0  0  0  1  0  0  0  0  0  0
  190.1160  172.5840  142.0200 C   0  0  2  0  0  3  0  0  0  0  0  0
  191.2160  175.2140  141.9330 C   0  0  0  0  0  2  0  0  0  0  0  0
  192.4370  173.9420  140.3160 O   0  0  0  0  0  1  0  0  0  0  0  0
  188.2350  174.0510  142.0290 O   0  0  0  0  0  1  0  0  0  0  0  0
  190.2430  174.9160  143.0770 C   0  0  1  0  0  3  0  0  0  0  0  0
  181.5340  178.6450  141.4530 C   0  0  0  0  0  2  0  0  0  0  0  0
  180.7290  179.2910  142.5750 C   0  0  0  0  0  2  0  0  0  0  0  0
  179.2890  178.8170  142.5380 C   0  0  0  0  0  1  0  0  0  0  0  0
  1  7  2  0  0  0  0
  2 20  1  0  0  0  0
  2  6  1  0  0  0  0
  4  3  1  0  0  0  0
  5 14  1  0  0  0  0
  6  9  1  0  0  0  0
  8  3  1  0  0  0  0
  9 10  2  0  0  0  0
 10  8  1  0  0  0  0
 11 18  2  0  0  0  0
 12 13  2  0  0  0  0
 13  5  1  0  0  0  0
 13 16  1  0  0  0  0
 14  6  2  0  0  0  0
 14  7  1  0  0  0  0
 15 19  1  0  0  0  0
 15  5  2  0  0  0  0
 16  1  1  0  0  0  0
 17  4  2  0  0  0  0
 18 10  1  0  0  0  0
 18 17  1  0  0  0  0
 19  2  2  0  0  0  0
 20 11  1  0  0  0  0
 21 27  1  6  0  0  0
 21 26  1  0  0  0  0
 21 22  1  0  0  0  0
 23 28  1  6  0  0  0
 23 29  1  0  0  0  0
 25 22  1  0  0  0  0
 25 24  1  1  0  0  0
 25 23  1  0  0  0  0
 26 29  1  0  0  0  0
 29 11  1  6  0  0  0
 30 16  1  0  0  0  0
 30 31  1  0  0  0  0
 32 31  1  0  0  0  0
M  END
>  <MODEL>
1

>  <REMARK>
 VINA RESULT:      -7.8      0.000      0.000
  Name = 
  3 active torsions:
  status: ('A' for Active; 'I' for Inactive)
    1  A    between atoms: C_1  and  C_10
    2  A    between atoms: C_10  and  N_24
    3  A    between atoms: C_16  and  C_32
                            x       y       z     vdW  Elec       q    Type
                         _______ _______ _______ _____ _____    ______ ____

>  <TORSDO>
F 3

$$$$
=
 OpenBabel11052421373D

 32 36  0  0  1  0  0  0  0  0999 V2000
  186.5250  177.8270  143.4200 C   0  0  0  0  0  3  0  0  0  0  0  0
  189.6170  174.1780  144.2170 C   0  0  0  0  0  0  0  0  0  0  0  0
  190.3100  173.0350  138.8430 C   0  0  0  0  0  2  0  0  0  0  0  0
  191.7140  173.4360  139.1900 C   0  0  0  0  0  3  0  0  0  0  0  0
  188.1610  176.3920  145.1420 C   0  0  0  0  0  0  0  0  0  0  0  0
  188.8150  174.8970  143.3110 C   0  0  0  0  0  0  0  0  0  0  0  0
  187.2410  176.7370  142.9290 C   0  0  0  0  0  3  0  0  0  0  0  0
  189.2880  173.8450  139.6420 C   0  0  0  0  0  2  0  0  0  0  0  0
  188.7110  174.5120  141.8790 C   0  0  0  0  0  3  0  0  0  0  0  0
  189.6250  173.9050  141.1090 C   0  0  0  0  0  0  0  0  0  0  0  0
  191.3860  173.2600  142.7810 C   0  0  0  0  0  0  0  0  0  0  0  0
  187.5050  177.8600  146.8050 O   0  0  0  0  0  0  0  0  0  0  0  0
  187.4240  177.5000  145.5960 C   0  0  0  0  0  0  0  0  0  0  0  0
  188.0680  176.0010  143.7850 C   0  0  0  0  0  0  0  0  0  0  0  0
  188.9820  175.6690  146.0150 C   0  0  0  0  0  3  0  0  0  0  0  0
  186.6200  178.1900  144.7290 N   0  0  0  0  0  0  0  0  0  0  0  0
  192.0560  173.6580  140.4590 C   0  0  0  0  0  3  0  0  0  0  0  0
  191.0350  173.6190  141.5290 C   0  0  0  0  0  0  0  0  0  0  0  0
  189.6980  174.5680  145.5560 C   0  0  0  0  0  3  0  0  0  0  0  0
  190.3380  172.9470  143.8020 C   0  0  0  0  0  2  0  0  0  0  0  0
  194.5600  171.7480  144.4570 C   0  0  2  0  0  3  0  0  0  0  0  0
  195.5060  172.7930  143.8460 C   0  0  0  0  0  2  0  0  0  0  0  0
  193.5900  174.4010  143.3660 C   0  0  2  0  0  3  0  0  0  0  0  0
  195.8690  175.1300  143.5020 O   0  0  0  0  0  1  0  0  0  0  0  0
  194.9630  174.2100  144.0270 C   0  0  2  0  0  3  0  0  0  0  0  0
  193.0720  172.0920  144.3030 C   0  0  0  0  0  2  0  0  0  0  0  0
  194.8580  171.5740  145.8080 O   0  0  0  0  0  1  0  0  0  0  0  0
  192.8340  175.2800  144.1440 O   0  0  0  0  0  1  0  0  0  0  0  0
  192.8400  173.0700  143.1480 C   0  0  1  0  0  3  0  0  0  0  0  0
  185.8450  179.3400  145.1830 C   0  0  0  0  0  2  0  0  0  0  0  0
  184.3580  179.0120  145.2290 C   0  0  0  0  0  2  0  0  0  0  0  0
  184.0200  178.2490  146.4960 C   0  0  0  0  0  1  0  0  0  0  0  0
  1 16  1  0  0  0  0
  2 19  1  0  0  0  0
  3  4  1  0  0  0  0
  3  8  1  0  0  0  0
  4 17  2  0  0  0  0
  5 13  1  0  0  0  0
  5 15  1  0  0  0  0
  6 14  1  0  0  0  0
  6  2  2  0  0  0  0
  7  1  2  0  0  0  0
  7 14  1  0  0  0  0
  8 10  1  0  0  0  0
  9  6  1  0  0  0  0
 10 18  1  0  0  0  0
 10  9  2  0  0  0  0
 11 20  1  0  0  0  0
 13 12  2  0  0  0  0
 14  5  2  0  0  0  0
 16 30  1  0  0  0  0
 16 13  1  0  0  0  0
 17 18  1  0  0  0  0
 18 11  2  0  0  0  0
 19 15  2  0  0  0  0
 20  2  1  0  0  0  0
 21 27  1  1  0  0  0
 22 25  1  0  0  0  0
 22 21  1  0  0  0  0
 23 25  1  0  0  0  0
 23 28  1  1  0  0  0
 25 24  1  6  0  0  0
 26 21  1  0  0  0  0
 29 11  1  1  0  0  0
 29 23  1  0  0  0  0
 29 26  1  0  0  0  0
 30 31  1  0  0  0  0
 31 32  1  0  0  0  0
M  END
>  <MODEL>
2

>  <REMARK>
 VINA RESULT:      -7.7      3.094      5.565
  Name = 
  3 active torsions:
  status: ('A' for Active; 'I' for Inactive)
    1  A    between atoms: C_1  and  C_10
    2  A    between atoms: C_10  and  N_24
    3  A    between atoms: C_16  and  C_32
                            x       y       z     vdW  Elec       q    Type
                         _______ _______ _______ _____ _____    ______ ____

>  <TORSDO>
F 3

$$$$
=
 OpenBabel11052421373D

 32 36  0  0  1  0  0  0  0  0999 V2000
  181.4170  178.6660  142.4570 C   0  0  0  0  0  3  0  0  0  0  0  0
  186.2590  178.4160  142.4870 C   0  0  0  0  0  0  0  0  0  0  0  0
  186.6800  179.1160  147.9650 C   0  0  0  0  0  2  0  0  0  0  0  0
  187.2610  177.7360  147.8500 C   0  0  0  0  0  3  0  0  0  0  0  0
  183.8050  178.0990  141.1630 C   0  0  0  0  0  0  0  0  0  0  0  0
  185.0660  178.6910  143.1820 C   0  0  0  0  0  0  0  0  0  0  0  0
  182.6180  178.8260  143.1440 C   0  0  0  0  0  3  0  0  0  0  0  0
  185.5660  179.3350  146.9400 C   0  0  0  0  0  2  0  0  0  0  0  0
  185.0690  179.1520  144.5940 C   0  0  0  0  0  3  0  0  0  0  0  0
  185.9640  178.8890  145.5570 C   0  0  0  0  0  0  0  0  0  0  0  0
  187.7980  177.7430  144.2800 C   0  0  0  0  0  0  0  0  0  0  0  0
  182.5380  177.5410  139.3100 O   0  0  0  0  0  0  0  0  0  0  0  0
  182.5710  177.9470  140.5070 C   0  0  0  0  0  0  0  0  0  0  0  0
  183.8320  178.5480  142.5040 C   0  0  0  0  0  0  0  0  0  0  0  0
  185.0080  177.8150  140.5050 C   0  0  0  0  0  3  0  0  0  0  0  0
  181.4060  178.2370  141.1640 N   0  0  0  0  0  0  0  0  0  0  0  0
  187.5020  177.2060  146.6510 C   0  0  0  0  0  3  0  0  0  0  0  0
  187.1000  177.9220  145.4200 C   0  0  0  0  0  0  0  0  0  0  0  0
  186.2240  177.9800  141.1620 C   0  0  0  0  0  3  0  0  0  0  0  0
  187.5870  178.6530  143.1110 C   0  0  0  0  0  2  0  0  0  0  0  0
  191.2670  176.1150  143.5770 C   0  0  2  0  0  3  0  0  0  0  0  0
  190.8070  174.7110  143.9970 C   0  0  0  0  0  2  0  0  0  0  0  0
  188.3490  175.3170  143.7200 C   0  0  2  0  0  3  0  0  0  0  0  0
  189.1150  173.0460  143.7130 O   0  0  0  0  0  1  0  0  0  0  0  0
  189.4750  174.3420  143.3450 C   0  0  2  0  0  3  0  0  0  0  0  0
  190.1180  177.1200  143.4110 C   0  0  0  0  0  2  0  0  0  0  0  0
  191.9910  176.0400  142.3880 O   0  0  0  0  0  1  0  0  0  0  0  0
  187.4960  175.4620  142.6230 O   0  0  0  0  0  1  0  0  0  0  0  0
  188.8770  176.6860  144.1950 C   0  0  1  0  0  3  0  0  0  0  0  0
  180.1150  178.0890  140.4990 C   0  0  0  0  0  2  0  0  0  0  0  0
  178.9700  178.3800  141.4600 C   0  0  0  0  0  2  0  0  0  0  0  0
  178.0730  177.1650  141.6040 C   0  0  0  0  0  1  0  0  0  0  0  0
  1  7  2  0  0  0  0
  2 20  1  0  0  0  0
  2  6  1  0  0  0  0
  4  3  1  0  0  0  0
  5 14  1  0  0  0  0
  6  9  1  0  0  0  0
  8  3  1  0  0  0  0
  9 10  2  0  0  0  0
 10  8  1  0  0  0  0
 11 18  2  0  0  0  0
 12 13  2  0  0  0  0
 13  5  1  0  0  0  0
 13 16  1  0  0  0  0
 14  7  1  0  0  0  0
 14  6  2  0  0  0  0
 15 19  1  0  0  0  0
 15  5  2  0  0  0  0
 16  1  1  0  0  0  0
 17  4  2  0  0  0  0
 18 10  1  0  0  0  0
 18 17  1  0  0  0  0
 19  2  2  0  0  0  0
 20 11  1  0  0  0  0
 21 27  1  6  0  0  0
 21 22  1  0  0  0  0
 23 28  1  6  0  0  0
 23 29  1  0  0  0  0
 25 24  1  1  0  0  0
 25 23  1  0  0  0  0
 25 22  1  0  0  0  0
 26 21  1  0  0  0  0
 26 29  1  0  0  0  0
 29 11  1  6  0  0  0
 30 16  1  0  0  0  0
 30 31  1  0  0  0  0
 31 32  1  0  0  0  0
M  END
>  <MODEL>
3

>  <REMARK>
 VINA RESULT:      -7.5      1.595      2.319
  Name = 
  3 active torsions:
  status: ('A' for Active; 'I' for Inactive)
    1  A    between atoms: C_1  and  C_10
    2  A    between atoms: C_10  and  N_24
    3  A    between atoms: C_16  and  C_32
                            x       y       z     vdW  Elec       q    Type
                         _______ _______ _______ _____ _____    ______ ____

>  <TORSDO>
F 3

$$$$
=
 OpenBabel11052421373D

 32 36  0  0  1  0  0  0  0  0999 V2000
  187.3980  176.9210  146.8580 C   0  0  0  0  0  3  0  0  0  0  0  0
  190.4860  176.3400  143.1650 C   0  0  0  0  0  0  0  0  0  0  0  0
  194.9230  175.7230  146.4210 C   0  0  0  0  0  2  0  0  0  0  0  0
  194.9090  174.3710  145.7690 C   0  0  0  0  0  3  0  0  0  0  0  0
  187.8650  176.5070  144.1540 C   0  0  0  0  0  0  0  0  0  0  0  0
  190.2860  176.5280  144.5460 C   0  0  0  0  0  0  0  0  0  0  0  0
  188.7110  176.8350  146.3990 C   0  0  0  0  0  3  0  0  0  0  0  0
  193.5030  176.2490  146.6350 C   0  0  0  0  0  2  0  0  0  0  0  0
  191.4240  176.6480  145.4930 C   0  0  0  0  0  3  0  0  0  0  0  0
  192.6480  176.1090  145.4020 C   0  0  0  0  0  0  0  0  0  0  0  0
  192.6420  175.1660  143.0740 C   0  0  0  0  0  0  0  0  0  0  0  0
  185.5680  176.4810  143.8780 O   0  0  0  0  0  0  0  0  0  0  0  0
  186.5550  176.5960  144.6590 C   0  0  0  0  0  0  0  0  0  0  0  0
  188.9630  176.6300  145.0370 C   0  0  0  0  0  0  0  0  0  0  0  0
  188.0950  176.3010  142.7880 C   0  0  0  0  0  3  0  0  0  0  0  0
  186.3500  176.8050  145.9960 N   0  0  0  0  0  0  0  0  0  0  0  0
  194.0690  174.1170  144.7650 C   0  0  0  0  0  3  0  0  0  0  0  0
  193.0660  175.1240  144.3540 C   0  0  0  0  0  0  0  0  0  0  0  0
  189.3960  176.2260  142.2990 C   0  0  0  0  0  3  0  0  0  0  0  0
  191.8500  176.3350  142.5760 C   0  0  0  0  0  2  0  0  0  0  0  0
  193.7100  173.4920  139.7230 C   0  0  2  0  0  3  0  0  0  0  0  0
  193.7120  172.0740  140.3140 C   0  0  0  0  0  2  0  0  0  0  0  0
  192.2500  172.7760  142.2770 C   0  0  2  0  0  3  0  0  0  0  0  0
  192.4540  170.4900  141.5870 O   0  0  0  0  0  1  0  0  0  0  0  0
  192.4360  171.7990  141.1070 C   0  0  2  0  0  3  0  0  0  0  0  0
  193.0560  174.5420  140.6320 C   0  0  0  0  0  2  0  0  0  0  0  0
  193.0690  173.4880  138.4840 O   0  0  0  0  0  1  0  0  0  0  0  0
  190.8870  173.0330  142.4380 O   0  0  0  0  0  1  0  0  0  0  0  0
  193.0420  174.0870  142.0940 C   0  0  1  0  0  3  0  0  0  0  0  0
  184.9990  176.9040  146.5390 C   0  0  0  0  0  2  0  0  0  0  0  0
  184.6470  178.3490  146.8670 C   0  0  0  0  0  2  0  0  0  0  0  0
  184.0520  179.0410  145.6570 C   0  0  0  0  0  1  0  0  0  0  0  0
  2  6  1  0  0  0  0
  3  8  1  0  0  0  0
  4  3  1  0  0  0  0
  5 13  1  0  0  0  0
  5 14  1  0  0  0  0
  6 14  2  0  0  0  0
  6  9  1  0  0  0  0
  7  1  2  0  0  0  0
 10  9  2  0  0  0  0
 10  8  1  0  0  0  0
 11 18  2  0  0  0  0
 12 13  2  0  0  0  0
 13 16  1  0  0  0  0
 14  7  1  0  0  0  0
 15  5  2  0  0  0  0
 16 30  1  0  0  0  0
 16  1  1  0  0  0  0
 17  4  2  0  0  0  0
 18 17  1  0  0  0  0
 18 10  1  0  0  0  0
 19 15  1  0  0  0  0
 19  2  2  0  0  0  0
 20 11  1  0  0  0  0
 20  2  1  0  0  0  0
 21 27  1  6  0  0  0
 21 22  1  0  0  0  0
 21 26  1  0  0  0  0
 22 25  1  0  0  0  0
 23 28  1  6  0  0  0
 25 24  1  1  0  0  0
 25 23  1  0  0  0  0
 26 29  1  0  0  0  0
 29 23  1  0  0  0  0
 29 11  1  1  0  0  0
 30 31  1  0  0  0  0
 32 31  1  0  0  0  0
M  END
>  <MODEL>
4

>  <REMARK>
 VINA RESULT:      -7.5      2.820      4.301
  Name = 
  3 active torsions:
  status: ('A' for Active; 'I' for Inactive)
    1  A    between atoms: C_1  and  C_10
    2  A    between atoms: C_10  and  N_24
    3  A    between atoms: C_16  and  C_32
                            x       y       z     vdW  Elec       q    Type
                         _______ _______ _______ _____ _____    ______ ____

>  <TORSDO>
F 3

$$$$
=
 OpenBabel11052421373D

 32 36  0  0  1  0  0  0  0  0999 V2000
  186.9360  177.1010  144.0620 C   0  0  0  0  0  3  0  0  0  0  0  0
  190.9620  174.5400  144.9220 C   0  0  0  0  0  0  0  0  0  0  0  0
  191.6150  173.0000  139.6420 C   0  0  0  0  0  2  0  0  0  0  0  0
  192.8710  173.8030  139.8190 C   0  0  0  0  0  3  0  0  0  0  0  0
  189.0080  176.3730  145.7580 C   0  0  0  0  0  0  0  0  0  0  0  0
  189.9380  174.9040  144.0270 C   0  0  0  0  0  0  0  0  0  0  0  0
  187.8950  176.1940  143.6150 C   0  0  0  0  0  3  0  0  0  0  0  0
  190.4590  173.5940  140.4490 C   0  0  0  0  0  2  0  0  0  0  0  0
  189.8580  174.3390  142.6550 C   0  0  0  0  0  3  0  0  0  0  0  0
  190.8550  173.9140  141.8670 C   0  0  0  0  0  0  0  0  0  0  0  0
  192.8250  173.9700  143.4250 C   0  0  0  0  0  0  0  0  0  0  0  0
  188.0740  177.7950  147.3240 O   0  0  0  0  0  0  0  0  0  0  0  0
  188.0220  177.2870  146.1680 C   0  0  0  0  0  0  0  0  0  0  0  0
  188.9440  175.8140  144.4590 C   0  0  0  0  0  0  0  0  0  0  0  0
  190.0500  176.0060  146.6180 C   0  0  0  0  0  3  0  0  0  0  0  0
  187.0070  177.6280  145.3150 N   0  0  0  0  0  0  0  0  0  0  0  0
  193.2150  174.2560  141.0240 C   0  0  0  0  0  3  0  0  0  0  0  0
  192.3120  174.0700  142.1810 C   0  0  0  0  0  0  0  0  0  0  0  0
  191.0140  175.0920  146.2030 C   0  0  0  0  0  3  0  0  0  0  0  0
  191.9700  173.5080  144.5630 C   0  0  0  0  0  2  0  0  0  0  0  0
  196.3750  173.6240  144.9920 C   0  0  2  0  0  3  0  0  0  0  0  0
  196.9710  174.7580  144.1450 C   0  0  0  0  0  2  0  0  0  0  0  0
  194.6710  175.7180  143.6210 C   0  0  2  0  0  3  0  0  0  0  0  0
  196.6740  177.0190  143.4280 O   0  0  0  0  0  1  0  0  0  0  0  0
  196.0780  175.9990  144.1680 C   0  0  2  0  0  3  0  0  0  0  0  0
  194.8430  173.5450  144.9330 C   0  0  0  0  0  2  0  0  0  0  0  0
  196.7800  173.7600  146.3190 O   0  0  0  0  0  1  0  0  0  0  0  0
  193.7490  176.4920  144.3310 O   0  0  0  0  0  1  0  0  0  0  0  0
  194.2950  174.2230  143.6750 C   0  0  1  0  0  3  0  0  0  0  0  0
  185.9720  178.5720  145.7250 C   0  0  0  0  0  2  0  0  0  0  0  0
  184.5910  178.0830  145.3060 C   0  0  0  0  0  2  0  0  0  0  0  0
  183.9470  179.0650  144.3460 C   0  0  0  0  0  1  0  0  0  0  0  0
  1 16  1  0  0  0  0
  2 19  1  0  0  0  0
  3  4  1  0  0  0  0
  3  8  1  0  0  0  0
  4 17  2  0  0  0  0
  5 13  1  0  0  0  0
  5 15  1  0  0  0  0
  6 14  1  0  0  0  0
  6  2  2  0  0  0  0
  7  1  2  0  0  0  0
  7 14  1  0  0  0  0
  8 10  1  0  0  0  0
  9  6  1  0  0  0  0
 10 18  1  0  0  0  0
 10  9  2  0  0  0  0
 11 20  1  0  0  0  0
 13 12  2  0  0  0  0
 14  5  2  0  0  0  0
 16 30  1  0  0  0  0
 16 13  1  0  0  0  0
 17 18  1  0  0  0  0
 18 11  2  0  0  0  0
 19 15  2  0  0  0  0
 20  2  1  0  0  0  0
 21 27  1  1  0  0  0
 22 25  1  0  0  0  0
 22 21  1  0  0  0  0
 23 29  1  0  0  0  0
 23 25  1  0  0  0  0
 23 28  1  1  0  0  0
 25 24  1  6  0  0  0
 26 21  1  0  0  0  0
 29 11  1  1  0  0  0
 29 26  1  0  0  0  0
 31 30  1  0  0  0  0
 32 31  1  0  0  0  0
M  END
>  <MODEL>
5

>  <REMARK>
 VINA RESULT:      -7.5      3.349      6.153
  Name = 
  3 active torsions:
  status: ('A' for Active; 'I' for Inactive)
    1  A    between atoms: C_1  and  C_10
    2  A    between atoms: C_10  and  N_24
    3  A    between atoms: C_16  and  C_32
                            x       y       z     vdW  Elec       q    Type
                         _______ _______ _______ _____ _____    ______ ____

>  <TORSDO>
F 3

$$$$
=
 OpenBabel11052421373D

 32 36  0  0  1  0  0  0  0  0999 V2000
  187.5830  176.9550  146.0000 C   0  0  0  0  0  3  0  0  0  0  0  0
  190.2250  174.9670  142.4530 C   0  0  0  0  0  0  0  0  0  0  0  0
  194.4780  173.6910  145.7630 C   0  0  0  0  0  2  0  0  0  0  0  0
  194.0710  172.3080  145.3460 C   0  0  0  0  0  3  0  0  0  0  0  0
  187.7950  176.0010  143.4030 C   0  0  0  0  0  0  0  0  0  0  0  0
  190.1480  175.4220  143.7830 C   0  0  0  0  0  0  0  0  0  0  0  0
  188.8020  176.4410  145.5610 C   0  0  0  0  0  3  0  0  0  0  0  0
  193.2640  174.6130  145.8870 C   0  0  0  0  0  2  0  0  0  0  0  0
  191.3190  175.3770  144.6970 C   0  0  0  0  0  3  0  0  0  0  0  0
  192.3470  174.5160  144.6960 C   0  0  0  0  0  0  0  0  0  0  0  0
  191.9790  173.2500  142.5580 C   0  0  0  0  0  0  0  0  0  0  0  0
  185.5660  176.5590  143.1380 O   0  0  0  0  0  0  0  0  0  0  0  0
  186.5830  176.5240  143.8870 C   0  0  0  0  0  0  0  0  0  0  0  0
  188.9260  175.9590  144.2530 C   0  0  0  0  0  0  0  0  0  0  0  0
  187.8980  175.5230  142.0910 C   0  0  0  0  0  3  0  0  0  0  0  0
  186.5040  176.9930  145.1710 N   0  0  0  0  0  0  0  0  0  0  0  0
  193.1480  172.1360  144.3990 C   0  0  0  0  0  3  0  0  0  0  0  0
  192.4350  173.2990  143.8260 C   0  0  0  0  0  0  0  0  0  0  0  0
  189.1060  175.0180  141.6200 C   0  0  0  0  0  3  0  0  0  0  0  0
  191.5090  174.4950  141.8720 C   0  0  0  0  0  2  0  0  0  0  0  0
  192.3290  170.8380  139.5190 C   0  0  2  0  0  3  0  0  0  0  0  0
  192.0480  169.5800  140.3550 C   0  0  0  0  0  2  0  0  0  0  0  0
  190.9680  170.9330  142.2230 C   0  0  2  0  0  3  0  0  0  0  0  0
  190.5680  168.5870  141.9470 O   0  0  0  0  0  1  0  0  0  0  0  0
  190.8160  169.7620  141.2410 C   0  0  2  0  0  3  0  0  0  0  0  0
  192.0220  172.1510  140.2520 C   0  0  0  0  0  2  0  0  0  0  0  0
  191.6010  170.7890  138.3310 O   0  0  0  0  0  1  0  0  0  0  0  0
  189.7230  171.5410  142.3940 O   0  0  0  0  0  1  0  0  0  0  0  0
  192.0280  171.9590  141.7710 C   0  0  1  0  0  3  0  0  0  0  0  0
  185.2560  177.5430  145.6910 C   0  0  0  0  0  2  0  0  0  0  0  0
  185.3830  179.0410  145.9400 C   0  0  0  0  0  2  0  0  0  0  0  0
  185.5100  179.7910  144.6290 C   0  0  0  0  0  1  0  0  0  0  0  0
  2  6  1  0  0  0  0
  3  8  1  0  0  0  0
  4  3  1  0  0  0  0
  5 13  1  0  0  0  0
  5 14  1  0  0  0  0
  6 14  2  0  0  0  0
  6  9  1  0  0  0  0
  7  1  2  0  0  0  0
 10  9  2  0  0  0  0
 10  8  1  0  0  0  0
 11 18  2  0  0  0  0
 12 13  2  0  0  0  0
 13 16  1  0  0  0  0
 14  7  1  0  0  0  0
 15  5  2  0  0  0  0
 16 30  1  0  0  0  0
 16  1  1  0  0  0  0
 17  4  2  0  0  0  0
 18 17  1  0  0  0  0
 18 10  1  0  0  0  0
 19 15  1  0  0  0  0
 19  2  2  0  0  0  0
 20  2  1  0  0  0  0
 20 11  1  0  0  0  0
 21 27  1  6  0  0  0
 21 26  1  0  0  0  0
 21 22  1  0  0  0  0
 22 25  1  0  0  0  0
 23 28  1  6  0  0  0
 25 24  1  1  0  0  0
 25 23  1  0  0  0  0
 26 29  1  0  0  0  0
 29 23  1  0  0  0  0
 29 11  1  1  0  0  0
 30 31  1  0  0  0  0
 32 31  1  0  0  0  0
M  END
>  <MODEL>
6

>  <REMARK>
 VINA RESULT:      -7.5      2.846      4.496
  Name = 
  3 active torsions:
  status: ('A' for Active; 'I' for Inactive)
    1  A    between atoms: C_1  and  C_10
    2  A    between atoms: C_10  and  N_24
    3  A    between atoms: C_16  and  C_32
                            x       y       z     vdW  Elec       q    Type
                         _______ _______ _______ _____ _____    ______ ____

>  <TORSDO>
F 3

$$$$
=
 OpenBabel11052421373D

 32 36  0  0  1  0  0  0  0  0999 V2000
  185.0670  178.2850  144.5700 C   0  0  0  0  0  3  0  0  0  0  0  0
  189.7100  177.9220  143.2210 C   0  0  0  0  0  0  0  0  0  0  0  0
  191.4440  176.1210  148.1630 C   0  0  0  0  0  2  0  0  0  0  0  0
  191.7870  174.9190  147.3310 C   0  0  0  0  0  3  0  0  0  0  0  0
  187.0020  178.2860  142.5810 C   0  0  0  0  0  0  0  0  0  0  0  0
  188.7530  177.8930  144.2530 C   0  0  0  0  0  0  0  0  0  0  0  0
  186.4030  178.0950  144.9190 C   0  0  0  0  0  3  0  0  0  0  0  0
  190.1690  176.8000  147.6570 C   0  0  0  0  0  2  0  0  0  0  0  0
  189.1380  177.6830  145.6730 C   0  0  0  0  0  3  0  0  0  0  0  0
  190.1800  176.9990  146.1640 C   0  0  0  0  0  0  0  0  0  0  0  0
  191.5040  176.4870  144.0910 C   0  0  0  0  0  0  0  0  0  0  0  0
  185.2860  178.6360  141.0710 O   0  0  0  0  0  0  0  0  0  0  0  0
  185.6430  178.4710  142.2720 C   0  0  0  0  0  0  0  0  0  0  0  0
  187.3910  178.0960  143.9280 C   0  0  0  0  0  0  0  0  0  0  0  0
  187.9750  178.2910  141.5750 C   0  0  0  0  0  3  0  0  0  0  0  0
  184.7070  178.4710  143.2710 N   0  0  0  0  0  0  0  0  0  0  0  0
  191.6770  174.9670  146.0040 C   0  0  0  0  0  3  0  0  0  0  0  0
  191.1110  176.1630  145.3400 C   0  0  0  0  0  0  0  0  0  0  0  0
  189.3180  178.1170  141.8950 C   0  0  0  0  0  3  0  0  0  0  0  0
  191.1640  177.8250  143.5130 C   0  0  0  0  0  2  0  0  0  0  0  0
  194.3220  175.2840  141.6860 C   0  0  2  0  0  3  0  0  0  0  0  0
  193.9210  173.8050  141.7920 C   0  0  0  0  0  2  0  0  0  0  0  0
  191.5940  174.3870  142.6480 C   0  0  2  0  0  3  0  0  0  0  0  0
  192.0990  172.2640  141.6580 O   0  0  0  0  0  1  0  0  0  0  0  0
  192.4160  173.6200  141.6020 C   0  0  2  0  0  3  0  0  0  0  0  0
  193.2860  176.2510  142.2770 C   0  0  0  0  0  2  0  0  0  0  0  0
  194.5570  175.6160  140.3520 O   0  0  0  0  0  1  0  0  0  0  0  0
  190.4190  174.8460  142.0500 O   0  0  0  0  0  1  0  0  0  0  0  0
  192.3790  175.5490  143.2910 C   0  0  1  0  0  3  0  0  0  0  0  0
  183.2920  178.6660  142.9700 C   0  0  0  0  0  2  0  0  0  0  0  0
  182.8950  177.9160  141.7040 C   0  0  0  0  0  2  0  0  0  0  0  0
  181.4900  178.2950  141.2790 C   0  0  0  0  0  1  0  0  0  0  0  0
  1  7  2  0  0  0  0
  2 20  1  0  0  0  0
  2  6  1  0  0  0  0
  4  3  1  0  0  0  0
  5 14  1  0  0  0  0
  6  9  1  0  0  0  0
  8  3  1  0  0  0  0
  9 10  2  0  0  0  0
 10  8  1  0  0  0  0
 11 18  2  0  0  0  0
 12 13  2  0  0  0  0
 13  5  1  0  0  0  0
 13 16  1  0  0  0  0
 14  6  2  0  0  0  0
 14  7  1  0  0  0  0
 15 19  1  0  0  0  0
 15  5  2  0  0  0  0
 16  1  1  0  0  0  0
 17  4  2  0  0  0  0
 18 17  1  0  0  0  0
 18 10  1  0  0  0  0
 19  2  2  0  0  0  0
 20 11  1  0  0  0  0
 21 27  1  6  0  0  0
 21 22  1  0  0  0  0
 21 26  1  0  0  0  0
 23 28  1  6  0  0  0
 23 29  1  0  0  0  0
 25 24  1  1  0  0  0
 25 22  1  0  0  0  0
 25 23  1  0  0  0  0
 26 29  1  0  0  0  0
 29 11  1  6  0  0  0
 30 16  1  0  0  0  0
 31 30  1  0  0  0  0
 32 31  1  0  0  0  0
M  END
>  <MODEL>
7

>  <REMARK>
 VINA RESULT:      -7.2      1.702      2.352
  Name = 
  3 active torsions:
  status: ('A' for Active; 'I' for Inactive)
    1  A    between atoms: C_1  and  C_10
    2  A    between atoms: C_10  and  N_24
    3  A    between atoms: C_16  and  C_32
                            x       y       z     vdW  Elec       q    Type
                         _______ _______ _______ _____ _____    ______ ____

>  <TORSDO>
F 3

$$$$
=
 OpenBabel11052421373D

 32 36  0  0  1  0  0  0  0  0999 V2000
  187.9140  177.5040  145.7220 C   0  0  0  0  0  3  0  0  0  0  0  0
  190.8090  175.2780  142.5320 C   0  0  0  0  0  0  0  0  0  0  0  0
  195.2600  175.4370  145.8240 C   0  0  0  0  0  2  0  0  0  0  0  0
  195.0890  173.9490  145.7180 C   0  0  0  0  0  3  0  0  0  0  0  0
  188.2510  176.0760  143.3670 C   0  0  0  0  0  0  0  0  0  0  0  0
  190.6730  175.9820  143.7440 C   0  0  0  0  0  0  0  0  0  0  0  0
  189.1970  177.1170  145.3380 C   0  0  0  0  0  3  0  0  0  0  0  0
  193.9090  176.1530  145.8150 C   0  0  0  0  0  2  0  0  0  0  0  0
  191.8470  176.3210  144.5890 C   0  0  0  0  0  3  0  0  0  0  0  0
  193.0060  175.6600  144.7150 C   0  0  0  0  0  0  0  0  0  0  0  0
  192.8310  173.9320  142.9000 C   0  0  0  0  0  0  0  0  0  0  0  0
  185.9570  176.1940  143.1010 O   0  0  0  0  0  0  0  0  0  0  0  0
  186.9740  176.4830  143.7920 C   0  0  0  0  0  0  0  0  0  0  0  0
  189.3840  176.3980  144.1520 C   0  0  0  0  0  0  0  0  0  0  0  0
  188.4170  175.3580  142.1760 C   0  0  0  0  0  3  0  0  0  0  0  0
  186.8340  177.1910  144.9550 N   0  0  0  0  0  0  0  0  0  0  0  0
  194.1960  173.4340  144.8710 C   0  0  0  0  0  3  0  0  0  0  0  0
  193.2890  174.3190  144.1090 C   0  0  0  0  0  0  0  0  0  0  0  0
  189.6870  174.9690  141.7610 C   0  0  0  0  0  3  0  0  0  0  0  0
  192.1470  174.9110  141.9990 C   0  0  0  0  0  2  0  0  0  0  0  0
  193.4940  171.0200  140.3990 C   0  0  2  0  0  3  0  0  0  0  0  0
  193.4960  169.9430  141.4950 C   0  0  0  0  0  2  0  0  0  0  0  0
  192.2650  171.4560  143.1320 C   0  0  2  0  0  3  0  0  0  0  0  0
  192.3060  169.0730  143.3760 O   0  0  0  0  0  1  0  0  0  0  0  0
  192.2940  170.0930  142.4260 C   0  0  2  0  0  3  0  0  0  0  0  0
  192.9760  172.3850  140.8730 C   0  0  0  0  0  2  0  0  0  0  0  0
  192.7340  170.5870  139.3130 O   0  0  0  0  0  1  0  0  0  0  0  0
  190.9360  171.8580  143.2820 O   0  0  0  0  0  1  0  0  0  0  0  0
  193.0880  172.5310  142.3920 C   0  0  1  0  0  3  0  0  0  0  0  0
  185.5170  177.6260  145.4110 C   0  0  0  0  0  2  0  0  0  0  0  0
  185.4720  179.1390  145.5820 C   0  0  0  0  0  2  0  0  0  0  0  0
  185.3540  179.8240  144.2340 C   0  0  0  0  0  1  0  0  0  0  0  0
  2  6  1  0  0  0  0
  4  3  1  0  0  0  0
  5 13  1  0  0  0  0
  5 14  1  0  0  0  0
  6 14  2  0  0  0  0
  6  9  1  0  0  0  0
  7  1  2  0  0  0  0
  8  3  1  0  0  0  0
  9 10  2  0  0  0  0
 10  8  1  0  0  0  0
 11 18  2  0  0  0  0
 12 13  2  0  0  0  0
 13 16  1  0  0  0  0
 14  7  1  0  0  0  0
 15  5  2  0  0  0  0
 16 30  1  0  0  0  0
 16  1  1  0  0  0  0
 17  4  2  0  0  0  0
 18 10  1  0  0  0  0
 18 17  1  0  0  0  0
 19 15  1  0  0  0  0
 19  2  2  0  0  0  0
 20  2  1  0  0  0  0
 20 11  1  0  0  0  0
 21 27  1  6  0  0  0
 21 26  1  0  0  0  0
 21 22  1  0  0  0  0
 22 25  1  0  0  0  0
 23 28  1  6  0  0  0
 25 23  1  0  0  0  0
 25 24  1  1  0  0  0
 26 29  1  0  0  0  0
 29 11  1  1  0  0  0
 29 23  1  0  0  0  0
 30 31  1  0  0  0  0
 32 31  1  0  0  0  0
M  END
>  <MODEL>
8

>  <REMARK>
 VINA RESULT:      -7.2      2.867      4.598
  Name = 
  3 active torsions:
  status: ('A' for Active; 'I' for Inactive)
    1  A    between atoms: C_1  and  C_10
    2  A    between atoms: C_10  and  N_24
    3  A    between atoms: C_16  and  C_32
                            x       y       z     vdW  Elec       q    Type
                         _______ _______ _______ _____ _____    ______ ____

>  <TORSDO>
F 3

$$$$
=
 OpenBabel11052421373D

 32 36  0  0  1  0  0  0  0  0999 V2000
  193.0560  176.3560  146.5130 C   0  0  0  0  0  3  0  0  0  0  0  0
  189.0120  175.7220  143.9130 C   0  0  0  0  0  0  0  0  0  0  0  0
  185.7520  178.3030  147.5710 C   0  0  0  0  0  2  0  0  0  0  0  0
  185.5820  179.2260  146.4000 C   0  0  0  0  0  3  0  0  0  0  0  0
  191.8070  175.6280  144.1430 C   0  0  0  0  0  0  0  0  0  0  0  0
  189.6130  176.1210  145.1220 C   0  0  0  0  0  0  0  0  0  0  0  0
  191.6660  176.4210  146.4270 C   0  0  0  0  0  3  0  0  0  0  0  0
  187.1670  177.7240  147.6190 C   0  0  0  0  0  2  0  0  0  0  0  0
  188.8080  176.5830  146.2820 C   0  0  0  0  0  3  0  0  0  0  0  0
  187.6170  177.1980  146.2820 C   0  0  0  0  0  0  0  0  0  0  0  0
  186.9360  177.0360  143.8690 C   0  0  0  0  0  0  0  0  0  0  0  0
  193.9170  175.2070  143.2940 O   0  0  0  0  0  0  0  0  0  0  0  0
  193.2070  175.5800  144.2710 C   0  0  0  0  0  0  0  0  0  0  0  0
  191.0220  176.0540  145.2400 C   0  0  0  0  0  0  0  0  0  0  0  0
  191.1820  175.2570  142.9470 C   0  0  0  0  0  3  0  0  0  0  0  0
  193.8000  175.9410  145.4510 N   0  0  0  0  0  0  0  0  0  0  0  0
  186.0860  178.9010  145.2090 C   0  0  0  0  0  3  0  0  0  0  0  0
  186.9130  177.6840  145.0520 C   0  0  0  0  0  0  0  0  0  0  0  0
  189.7950  175.2980  142.8380 C   0  0  0  0  0  3  0  0  0  0  0  0
  187.5340  175.6670  143.7660 C   0  0  0  0  0  2  0  0  0  0  0  0
  184.1240  178.4140  141.5530 C   0  0  2  0  0  3  0  0  0  0  0  0
  185.0780  178.6710  140.3760 C   0  0  0  0  0  2  0  0  0  0  0  0
  186.8390  177.0920  141.3220 C   0  0  2  0  0  3  0  0  0  0  0  0
  186.7890  177.7140  139.0080 O   0  0  0  0  0  1  0  0  0  0  0  0
  185.9720  177.4600  140.1090 C   0  0  2  0  0  3  0  0  0  0  0  0
  184.7410  177.5740  142.6790 C   0  0  0  0  0  2  0  0  0  0  0  0
  182.9630  177.7940  141.0940 O   0  0  0  0  0  1  0  0  0  0  0  0
  186.9830  175.7030  141.3670 O   0  0  0  0  0  1  0  0  0  0  0  0
  186.2700  177.6330  142.6500 C   0  0  1  0  0  3  0  0  0  0  0  0
  195.2500  175.8940  145.6030 C   0  0  0  0  0  2  0  0  0  0  0  0
  195.7000  174.5420  146.1420 C   0  0  0  0  0  2  0  0  0  0  0  0
  196.9280  174.0530  145.3990 C   0  0  0  0  0  1  0  0  0  0  0  0
  2  6  1  0  0  0  0
  3  8  1  0  0  0  0
  4  3  1  0  0  0  0
  5 13  1  0  0  0  0
  5 14  1  0  0  0  0
  6 14  2  0  0  0  0
  6  9  1  0  0  0  0
  7  1  2  0  0  0  0
 10  9  2  0  0  0  0
 10  8  1  0  0  0  0
 11 18  2  0  0  0  0
 12 13  2  0  0  0  0
 13 16  1  0  0  0  0
 14  7  1  0  0  0  0
 15  5  2  0  0  0  0
 16 30  1  0  0  0  0
 16  1  1  0  0  0  0
 17  4  2  0  0  0  0
 18 17  1  0  0  0  0
 18 10  1  0  0  0  0
 19 15  1  0  0  0  0
 19  2  2  0  0  0  0
 20 11  1  0  0  0  0
 20  2  1  0  0  0  0
 21 27  1  6  0  0  0
 21 26  1  0  0  0  0
 22 21  1  0  0  0  0
 23 28  1  1  0  0  0
 23 29  1  0  0  0  0
 25 24  1  6  0  0  0
 25 22  1  0  0  0  0
 25 23  1  0  0  0  0
 29 26  1  0  0  0  0
 29 11  1  1  0  0  0
 30 31  1  0  0  0  0
 32 31  1  0  0  0  0
M  END
>  <MODEL>
9

>  <REMARK>
 VINA RESULT:      -7.2      3.235      8.097
  Name = 
  3 active torsions:
  status: ('A' for Active; 'I' for Inactive)
    1  A    between atoms: C_1  and  C_10
    2  A    between atoms: C_10  and  N_24
    3  A    between atoms: C_16  and  C_32
                            x       y       z     vdW  Elec       q    Type
                         _______ _______ _______ _____ _____    ______ ____

>  <TORSDO>
F 3

$$$$
