=
 OpenBabel11052419133D

 32 37  0  0  1  0  0  0  0  0999 V2000
  189.1070  174.3910  144.7530 O   0  0  0  0  0  0  0  0  0  0  0  0
  189.0000  175.6730  142.1270 C   0  0  2  0  0  3  0  0  0  0  0  0
  186.8650  177.9760  143.5820 C   0  0  0  0  0  0  0  0  0  0  0  0
  190.0560  173.5840  145.3860 C   0  0  0  0  0  2  0  0  0  0  0  0
  189.8130  174.4950  141.5690 C   0  0  2  0  0  3  0  0  0  0  0  0
  189.5710  174.3600  140.1360 N   0  0  0  0  0  2  0  0  0  0  0  0
  184.9640  179.4460  146.3170 F   0  0  0  0  0  0  0  0  0  0  0  0
  187.1470  178.3460  142.2360 N   0  0  0  0  0  1  0  0  0  0  0  0
  189.8100  176.7540  142.8490 C   0  0  0  0  0  2  0  0  0  0  0  0
  189.5520  173.1700  142.2850 C   0  0  1  0  0  3  0  0  0  0  0  0
  186.6620  177.9310  146.6680 C   0  0  0  0  0  3  0  0  0  0  0  0
  188.0970  176.4910  145.2020 C   0  0  0  0  0  0  0  0  0  0  0  0
  189.1650  171.9010  141.0600 S   0  0  0  0  0  0  0  0  0  0  0  0
  186.2990  178.8770  144.3820 C   0  0  0  0  0  2  0  0  0  0  0  0
  187.8280  177.0750  146.3700 C   0  0  0  0  0  3  0  0  0  0  0  0
  190.7590  172.7470  143.1110 C   0  0  0  0  0  2  0  0  0  0  0  0
  187.1150  176.5730  144.0550 C   0  0  0  0  0  0  0  0  0  0  0  0
  187.2830  175.3190  142.7080 S   0  0  0  0  0  0  0  0  0  0  0  0
  190.3250  176.3920  144.1770 N   0  0  0  0  0  0  0  0  0  0  0  0
  185.9630  178.6850  145.8100 C   0  0  0  0  0  0  0  0  0  0  0  0
  189.3810  175.7210  145.1010 C   0  0  2  0  0  3  0  0  0  0  0  0
  188.6770  173.2310  139.9390 C   0  0  2  0  0  3  0  0  0  0  0  0
  190.3280  172.3570  144.5220 C   0  0  0  0  0  2  0  0  0  0  0  0
  188.7120  172.7660  138.4900 C   0  0  0  0  0  2  0  0  0  0  0  0
  188.3490  173.8030  137.6280 O   0  0  0  0  0  1  0  0  0  0  0  0
  191.6050  175.7000  144.0500 C   0  0  0  0  0  2  0  0  0  0  0  0
  192.7280  176.4680  144.7430 C   0  0  1  0  0  3  0  0  0  0  0  0
  193.7620  176.8690  146.9320 C   0  0  0  0  0  2  0  0  0  0  0  0
  194.5040  175.7980  146.2480 N   0  0  2  0  0  0  0  0  0  0  0  0
  195.0790  176.3780  145.0370 C   0  0  0  0  0  2  0  0  0  0  0  0
  193.0360  175.8980  146.1170 C   0  0  2  0  0  3  0  0  0  0  0  0
  194.0160  176.3890  143.9650 C   0  0  0  0  0  2  0  0  0  0  0  0
  1  4  1  0  0  0  0
  2 18  1  0  0  0  0
  2  9  1  1  0  0  0
  3 17  2  0  0  0  0
  3 14  1  0  0  0  0
  5  6  1  6  0  0  0
  5  2  1  0  0  0  0
  5 10  1  0  0  0  0
  8  3  1  0  0  0  0
  9 19  1  0  0  0  0
 10 16  1  6  0  0  0
 12 15  2  0  0  0  0
 13 10  1  0  0  0  0
 14 20  1  0  0  0  0
 15 11  1  0  0  0  0
 16 23  1  0  0  0  0
 17 12  1  0  0  0  0
 18 17  1  0  0  0  0
 19 21  1  0  0  0  0
 20  7  1  0  0  0  0
 20 11  2  0  0  0  0
 21  1  1  6  0  0  0
 21 12  1  0  0  0  0
 22 24  1  6  0  0  0
 22  6  1  0  0  0  0
 22 13  1  0  0  0  0
 23  4  1  0  0  0  0
 25 24  1  0  0  0  0
 26 19  1  0  0  0  0
 27 26  1  6  0  0  0
 27 31  1  0  0  0  0
 29 30  1  6  0  0  0
 29 28  1  0  0  0  0
 31 29  1  0  0  0  0
 31 28  1  1  0  0  0
 32 27  1  0  0  0  0
 32 30  1  0  0  0  0
M  END
>  <MODEL>
1

>  <REMARK>
 VINA RESULT:      -7.8      0.000      0.000
  Name = 
  3 active torsions:
  status: ('A' for Active; 'I' for Inactive)
    1  A    between atoms: C_9  and  C_28
    2  A    between atoms: C_13  and  C_29
    3  A    between atoms: N_24  and  C_28
                            x       y       z     vdW  Elec       q    Type
                         _______ _______ _______ _____ _____    ______ ____

>  <TORSDO>
F 3

$$$$
=
 OpenBabel11052419133D

 32 37  0  0  1  0  0  0  0  0999 V2000
  189.9710  176.8330  142.9600 O   0  0  0  0  0  0  0  0  0  0  0  0
  189.6690  173.9250  142.9550 C   0  0  2  0  0  3  0  0  0  0  0  0
  192.6080  173.8360  144.7800 C   0  0  0  0  0  0  0  0  0  0  0  0
  189.0640  177.8900  142.8490 C   0  0  0  0  0  2  0  0  0  0  0  0
  188.4760  174.0960  142.0010 C   0  0  2  0  0  3  0  0  0  0  0  0
  188.2810  172.8750  141.2270 N   0  0  0  0  0  2  0  0  0  0  0  0
  195.4760  175.2860  146.4930 F   0  0  0  0  0  0  0  0  0  0  0  0
  192.0690  172.5240  144.6470 N   0  0  0  0  0  1  0  0  0  0  0  0
  189.3700  174.1580  144.4390 C   0  0  0  0  0  2  0  0  0  0  0  0
  188.5940  175.3070  141.0760 C   0  0  1  0  0  3  0  0  0  0  0  0
  193.6230  176.5260  145.9190 C   0  0  0  0  0  3  0  0  0  0  0  0
  191.5400  176.1100  144.5870 C   0  0  0  0  0  0  0  0  0  0  0  0
  188.3160  174.7780  139.3720 S   0  0  0  0  0  0  0  0  0  0  0  0
  193.5700  174.0380  145.6780 C   0  0  0  0  0  2  0  0  0  0  0  0
  192.2480  176.8220  145.4640 C   0  0  0  0  0  3  0  0  0  0  0  0
  187.5900  176.3860  141.4570 C   0  0  0  0  0  2  0  0  0  0  0  0
  192.1650  174.9380  143.8620 C   0  0  0  0  0  0  0  0  0  0  0  0
  191.3410  174.3700  142.3090 S   0  0  0  0  0  0  0  0  0  0  0  0
  189.1620  175.5560  144.8400 N   0  0  0  0  0  0  0  0  0  0  0  0
  194.2230  175.3310  145.9780 C   0  0  0  0  0  0  0  0  0  0  0  0
  190.1310  176.5520  144.3250 C   0  0  2  0  0  3  0  0  0  0  0  0
  188.7880  173.1110  139.8850 C   0  0  2  0  0  3  0  0  0  0  0  0
  188.2800  177.7450  141.5500 C   0  0  0  0  0  2  0  0  0  0  0  0
  188.2500  172.0670  138.9180 C   0  0  0  0  0  2  0  0  0  0  0  0
  189.2560  171.1720  138.5450 O   0  0  0  0  0  1  0  0  0  0  0  0
  187.7680  175.9390  144.6330 C   0  0  0  0  0  2  0  0  0  0  0  0
  187.3330  177.0260  145.6130 C   0  0  1  0  0  3  0  0  0  0  0  0
  185.7300  178.8590  145.9140 C   0  0  0  0  0  2  0  0  0  0  0  0
  185.1860  177.6470  146.5460 N   0  0  2  0  0  0  0  0  0  0  0  0
  186.1000  177.2750  147.6220 C   0  0  0  0  0  2  0  0  0  0  0  0
  185.9490  177.5600  145.2840 C   0  0  2  0  0  3  0  0  0  0  0  0
  187.2510  176.5020  147.0230 C   0  0  0  0  0  2  0  0  0  0  0  0
  2  9  1  1  0  0  0
  3 14  1  0  0  0  0
  4  1  1  0  0  0  0
  5  6  1  6  0  0  0
  5  2  1  0  0  0  0
  8  3  1  0  0  0  0
  9 19  1  0  0  0  0
 10 16  1  1  0  0  0
 10  5  1  0  0  0  0
 11 20  2  0  0  0  0
 12 15  2  0  0  0  0
 13 22  1  0  0  0  0
 13 10  1  0  0  0  0
 14 20  1  0  0  0  0
 15 11  1  0  0  0  0
 16 23  1  0  0  0  0
 17 12  1  0  0  0  0
 17  3  2  0  0  0  0
 18  2  1  0  0  0  0
 18 17  1  0  0  0  0
 20  7  1  0  0  0  0
 21  1  1  6  0  0  0
 21 12  1  0  0  0  0
 21 19  1  0  0  0  0
 22 24  1  6  0  0  0
 22  6  1  0  0  0  0
 23  4  1  0  0  0  0
 25 24  1  0  0  0  0
 26 19  1  0  0  0  0
 27 26  1  6  0  0  0
 27 32  1  0  0  0  0
 29 28  1  1  0  0  0
 29 30  1  0  0  0  0
 31 27  1  0  0  0  0
 31 28  1  1  0  0  0
 31 29  1  0  0  0  0
 32 30  1  0  0  0  0
M  END
>  <MODEL>
2

>  <REMARK>
 VINA RESULT:      -7.5      2.838      5.836
  Name = 
  3 active torsions:
  status: ('A' for Active; 'I' for Inactive)
    1  A    between atoms: C_9  and  C_28
    2  A    between atoms: C_13  and  C_29
    3  A    between atoms: N_24  and  C_28
                            x       y       z     vdW  Elec       q    Type
                         _______ _______ _______ _____ _____    ______ ____

>  <TORSDO>
F 3

$$$$
=
 OpenBabel11052419133D

 32 37  0  0  1  0  0  0  0  0999 V2000
  189.5910  173.7150  144.2760 O   0  0  0  0  0  0  0  0  0  0  0  0
  189.8580  175.0820  141.7050 C   0  0  2  0  0  3  0  0  0  0  0  0
  187.6520  177.4280  142.9730 C   0  0  0  0  0  0  0  0  0  0  0  0
  190.4220  172.8480  144.9900 C   0  0  0  0  0  2  0  0  0  0  0  0
  190.6860  173.8870  141.2070 C   0  0  2  0  0  3  0  0  0  0  0  0
  190.6160  173.8080  139.7520 N   0  0  0  0  0  2  0  0  0  0  0  0
  185.4890  178.8940  145.5090 F   0  0  0  0  0  0  0  0  0  0  0  0
  188.1120  177.8280  141.6850 N   0  0  0  0  0  1  0  0  0  0  0  0
  190.6150  176.1040  142.5590 C   0  0  0  0  0  2  0  0  0  0  0  0
  190.2870  172.5540  141.8380 C   0  0  1  0  0  3  0  0  0  0  0  0
  187.0700  177.2960  146.0080 C   0  0  0  0  0  3  0  0  0  0  0  0
  188.6170  175.8420  144.6760 C   0  0  0  0  0  0  0  0  0  0  0  0
  190.0040  171.3410  140.5300 S   0  0  0  0  0  0  0  0  0  0  0  0
  187.0280  178.3280  143.7310 C   0  0  0  0  0  2  0  0  0  0  0  0
  188.2300  176.4000  145.8230 C   0  0  0  0  0  3  0  0  0  0  0  0
  191.3660  172.0530  142.7880 C   0  0  0  0  0  2  0  0  0  0  0  0
  187.7870  176.0020  143.4210 C   0  0  0  0  0  0  0  0  0  0  0  0
  188.0690  174.7850  142.0610 S   0  0  0  0  0  0  0  0  0  0  0  0
  190.9490  175.6780  143.9250 N   0  0  0  0  0  0  0  0  0  0  0  0
  186.5120  178.1070  145.0990 C   0  0  0  0  0  0  0  0  0  0  0  0
  189.8730  175.0210  144.7030 C   0  0  2  0  0  3  0  0  0  0  0  0
  189.7090  172.7250  139.4060 C   0  0  2  0  0  3  0  0  0  0  0  0
  190.7510  171.6380  144.1220 C   0  0  0  0  0  2  0  0  0  0  0  0
  189.9040  172.3050  137.9570 C   0  0  0  0  0  2  0  0  0  0  0  0
  188.9160  172.8620  137.1420 O   0  0  0  0  0  1  0  0  0  0  0  0
  192.2060  174.9360  143.9300 C   0  0  0  0  0  2  0  0  0  0  0  0
  193.1290  175.4030  145.0520 C   0  0  1  0  0  3  0  0  0  0  0  0
  195.3450  175.0370  146.0420 C   0  0  0  0  0  2  0  0  0  0  0  0
  195.4300  176.1600  145.0940 N   0  0  2  0  0  0  0  0  0  0  0  0
  194.5560  177.2160  145.5980 C   0  0  0  0  0  2  0  0  0  0  0  0
  194.5710  174.9930  144.8040 C   0  0  2  0  0  3  0  0  0  0  0  0
  193.1400  176.9040  145.1740 C   0  0  0  0  0  2  0  0  0  0  0  0
  1  4  1  0  0  0  0
  2 18  1  0  0  0  0
  2  9  1  1  0  0  0
  3 17  2  0  0  0  0
  3 14  1  0  0  0  0
  5  6  1  6  0  0  0
  5  2  1  0  0  0  0
  5 10  1  0  0  0  0
  8  3  1  0  0  0  0
  9 19  1  0  0  0  0
 10 16  1  1  0  0  0
 12 21  1  0  0  0  0
 12 15  2  0  0  0  0
 13 10  1  0  0  0  0
 14 20  1  0  0  0  0
 15 11  1  0  0  0  0
 16 23  1  0  0  0  0
 17 12  1  0  0  0  0
 18 17  1  0  0  0  0
 19 26  1  0  0  0  0
 19 21  1  0  0  0  0
 20  7  1  0  0  0  0
 20 11  2  0  0  0  0
 21  1  1  6  0  0  0
 22 24  1  6  0  0  0
 22  6  1  0  0  0  0
 22 13  1  0  0  0  0
 23  4  1  0  0  0  0
 25 24  1  0  0  0  0
 27 26  1  6  0  0  0
 27 32  1  0  0  0  0
 29 30  1  1  0  0  0
 29 28  1  0  0  0  0
 31 27  1  0  0  0  0
 31 29  1  0  0  0  0
 31 28  1  1  0  0  0
 32 30  1  0  0  0  0
M  END
>  <MODEL>
3

>  <REMARK>
 VINA RESULT:      -7.1      1.092      1.248
  Name = 
  3 active torsions:
  status: ('A' for Active; 'I' for Inactive)
    1  A    between atoms: C_9  and  C_28
    2  A    between atoms: C_13  and  C_29
    3  A    between atoms: N_24  and  C_28
                            x       y       z     vdW  Elec       q    Type
                         _______ _______ _______ _____ _____    ______ ____

>  <TORSDO>
F 3

$$$$
=
 OpenBabel11052419133D

 32 37  0  0  1  0  0  0  0  0999 V2000
  190.8860  172.7000  143.9940 O   0  0  0  0  0  0  0  0  0  0  0  0
  190.3180  174.4700  141.7370 C   0  0  2  0  0  3  0  0  0  0  0  0
  188.2830  176.2300  143.9140 C   0  0  0  0  0  0  0  0  0  0  0  0
  191.9650  171.8700  144.3120 C   0  0  0  0  0  2  0  0  0  0  0  0
  191.1100  173.5050  140.8400 C   0  0  2  0  0  3  0  0  0  0  0  0
  190.6690  173.6410  139.4560 N   0  0  0  0  0  2  0  0  0  0  0  0
  186.7170  176.9430  147.1230 F   0  0  0  0  0  0  0  0  0  0  0  0
  188.3420  176.8880  142.6510 N   0  0  0  0  0  1  0  0  0  0  0  0
  191.1580  175.4520  142.5600 C   0  0  0  0  0  2  0  0  0  0  0  0
  191.0380  172.0460  141.2880 C   0  0  1  0  0  3  0  0  0  0  0  0
  188.5370  175.5470  146.9190 C   0  0  0  0  0  3  0  0  0  0  0  0
  189.8280  174.5670  145.0070 C   0  0  0  0  0  0  0  0  0  0  0  0
  190.5530  171.0200  139.8820 S   0  0  0  0  0  0  0  0  0  0  0  0
  187.7870  176.8970  144.9540 C   0  0  0  0  0  2  0  0  0  0  0  0
  189.6980  174.8760  146.2970 C   0  0  0  0  0  3  0  0  0  0  0  0
  192.3770  171.5750  141.8390 C   0  0  0  0  0  2  0  0  0  0  0  0
  188.6840  174.7890  144.0410 C   0  0  0  0  0  0  0  0  0  0  0  0
  188.7290  173.8530  142.4500 S   0  0  0  0  0  0  0  0  0  0  0  0
  191.8830  174.8760  143.7010 N   0  0  0  0  0  0  0  0  0  0  0  0
  187.6760  176.3920  146.3390 C   0  0  0  0  0  0  0  0  0  0  0  0
  191.1270  173.9520  144.5770 C   0  0  2  0  0  3  0  0  0  0  0  0
  189.8260  172.4990  139.1420 C   0  0  2  0  0  3  0  0  0  0  0  0
  192.1820  170.8720  143.1800 C   0  0  0  0  0  2  0  0  0  0  0  0
  189.6770  172.3410  137.6360 C   0  0  0  0  0  2  0  0  0  0  0  0
  189.1990  173.5190  137.0590 O   0  0  0  0  0  1  0  0  0  0  0  0
  193.1700  174.3430  143.2650 C   0  0  0  0  0  2  0  0  0  0  0  0
  194.3310  175.0020  144.0050 C   0  0  1  0  0  3  0  0  0  0  0  0
  194.9370  176.9780  145.3280 C   0  0  0  0  0  2  0  0  0  0  0  0
  194.5740  175.8870  146.2460 N   0  0  2  0  0  0  0  0  0  0  0  0
  195.5370  174.8090  146.0370 C   0  0  0  0  0  2  0  0  0  0  0  0
  193.8490  176.0700  144.9720 C   0  0  2  0  0  3  0  0  0  0  0  0
  195.0970  174.0060  144.8350 C   0  0  0  0  0  2  0  0  0  0  0  0
  1  4  1  0  0  0  0
  2 18  1  0  0  0  0
  2  9  1  1  0  0  0
  3 17  2  0  0  0  0
  3 14  1  0  0  0  0
  5  6  1  6  0  0  0
  5 10  1  0  0  0  0
  5  2  1  0  0  0  0
  8  3  1  0  0  0  0
  9 19  1  0  0  0  0
 10 16  1  6  0  0  0
 12 15  2  0  0  0  0
 13 10  1  0  0  0  0
 14 20  1  0  0  0  0
 15 11  1  0  0  0  0
 16 23  1  0  0  0  0
 17 12  1  0  0  0  0
 18 17  1  0  0  0  0
 19 21  1  0  0  0  0
 20 11  2  0  0  0  0
 20  7  1  0  0  0  0
 21  1  1  6  0  0  0
 21 12  1  0  0  0  0
 22 24  1  6  0  0  0
 22  6  1  0  0  0  0
 22 13  1  0  0  0  0
 23  4  1  0  0  0  0
 25 24  1  0  0  0  0
 26 19  1  0  0  0  0
 27 26  1  1  0  0  0
 27 32  1  0  0  0  0
 27 31  1  0  0  0  0
 29 28  1  6  0  0  0
 30 29  1  0  0  0  0
 31 28  1  6  0  0  0
 31 29  1  0  0  0  0
 32 30  1  0  0  0  0
M  END
>  <MODEL>
4

>  <REMARK>
 VINA RESULT:      -6.9      1.729      2.241
  Name = 
  3 active torsions:
  status: ('A' for Active; 'I' for Inactive)
    1  A    between atoms: C_9  and  C_28
    2  A    between atoms: C_13  and  C_29
    3  A    between atoms: N_24  and  C_28
                            x       y       z     vdW  Elec       q    Type
                         _______ _______ _______ _____ _____    ______ ____

>  <TORSDO>
F 3

$$$$
=
 OpenBabel11052419133D

 32 37  0  0  1  0  0  0  0  0999 V2000
  191.0410  176.2360  142.7680 O   0  0  0  0  0  0  0  0  0  0  0  0
  189.6020  174.6220  144.7360 C   0  0  2  0  0  3  0  0  0  0  0  0
  189.9610  171.9910  142.5160 C   0  0  0  0  0  0  0  0  0  0  0  0
  191.8260  177.3880  142.8640 C   0  0  0  0  0  2  0  0  0  0  0  0
  189.3630  175.9050  145.5460 C   0  0  2  0  0  3  0  0  0  0  0  0
  188.1830  175.7460  146.3890 N   0  0  0  0  0  2  0  0  0  0  0  0
  191.0730  170.3990  139.4350 F   0  0  0  0  0  0  0  0  0  0  0  0
  189.3490  171.5410  143.7210 N   0  0  0  0  0  1  0  0  0  0  0  0
  190.9800  173.9750  144.9100 C   0  0  0  0  0  2  0  0  0  0  0  0
  189.2450  177.1640  144.6880 C   0  0  1  0  0  3  0  0  0  0  0  0
  191.9200  172.4140  140.1600 C   0  0  0  0  0  3  0  0  0  0  0  0
  191.3820  174.0110  142.0150 C   0  0  0  0  0  0  0  0  0  0  0  0
  187.7380  178.0500  145.1410 S   0  0  0  0  0  0  0  0  0  0  0  0
  190.4350  171.0810  141.6660 C   0  0  0  0  0  3  0  0  0  0  0  0
  192.1960  173.5470  141.0670 C   0  0  0  0  0  3  0  0  0  0  0  0
  190.4560  178.0680  144.8720 C   0  0  0  0  0  2  0  0  0  0  0  0
  189.9850  173.4520  142.1730 C   0  0  2  0  0  3  0  0  0  0  0  0
  188.7620  174.4850  143.0960 S   0  0  0  0  0  0  0  0  0  0  0  0
  192.1020  174.6720  144.2670 N   0  0  0  0  0  0  0  0  0  0  0  0
  191.1270  171.3590  140.3890 C   0  0  0  0  0  0  0  0  0  0  0  0
  191.8960  175.1290  142.8730 C   0  0  2  0  0  3  0  0  0  0  0  0
  187.0920  176.4870  145.7760 C   0  0  2  0  0  3  0  0  0  0  0  0
  191.0100  178.4980  143.5170 C   0  0  0  0  0  2  0  0  0  0  0  0
  185.9740  176.7230  146.7810 C   0  0  0  0  0  2  0  0  0  0  0  0
  184.8160  177.1670  146.1380 O   0  0  0  0  0  1  0  0  0  0  0  0
  192.6230  175.7120  145.1490 C   0  0  0  0  0  2  0  0  0  0  0  0
  194.1230  175.5520  145.3810 C   0  0  1  0  0  3  0  0  0  0  0  0
  195.8760  173.8760  145.7570 C   0  0  0  0  0  2  0  0  0  0  0  0
  195.8240  174.1920  144.3210 N   0  0  2  0  0  0  0  0  0  0  0  0
  196.1650  175.6040  144.1770 C   0  0  0  0  0  2  0  0  0  0  0  0
  194.5850  174.1280  145.1230 C   0  0  2  0  0  3  0  0  0  0  0  0
  194.9250  176.4230  144.4490 C   0  0  0  0  0  2  0  0  0  0  0  0
  1  4  1  0  0  0  0
  1 21  1  0  0  0  0
  2  9  1  6  0  0  0
  2  5  1  0  0  0  0
  3  8  1  0  0  0  0
  4 23  1  0  0  0  0
  5  6  1  6  0  0  0
  7 20  1  0  0  0  0
 10 16  1  1  0  0  0
 10 13  1  0  0  0  0
 10  5  1  0  0  0  0
 11 20  2  0  0  0  0
 11 15  1  0  0  0  0
 13 22  1  0  0  0  0
 14  3  2  0  0  0  0
 15 12  2  0  0  0  0
 17 12  1  1  0  0  0
 17  3  1  0  0  0  0
 17 18  1  0  0  0  0
 18  2  1  0  0  0  0
 19  9  1  0  0  0  0
 19 26  1  0  0  0  0
 20 14  1  0  0  0  0
 21 12  1  6  0  0  0
 21 19  1  0  0  0  0
 22  6  1  0  0  0  0
 22 24  1  1  0  0  0
 23 16  1  0  0  0  0
 25 24  1  0  0  0  0
 27 26  1  6  0  0  0
 29 30  1  1  0  0  0
 29 31  1  0  0  0  0
 29 28  1  0  0  0  0
 30 32  1  0  0  0  0
 31 27  1  0  0  0  0
 31 28  1  1  0  0  0
 32 27  1  0  0  0  0
M  END
>  <MODEL>
5

>  <REMARK>
 VINA RESULT:      -6.7      3.374      6.203
  Name = 
  3 active torsions:
  status: ('A' for Active; 'I' for Inactive)
    1  A    between atoms: C_9  and  C_28
    2  A    between atoms: C_13  and  C_29
    3  A    between atoms: N_24  and  C_28
                            x       y       z     vdW  Elec       q    Type
                         _______ _______ _______ _____ _____    ______ ____

>  <TORSDO>
F 3

$$$$
=
 OpenBabel11052419133D

 32 37  0  0  1  0  0  0  0  0999 V2000
  192.2810  172.7290  144.5670 O   0  0  0  0  0  0  0  0  0  0  0  0
  191.3950  174.1910  142.1940 C   0  0  2  0  0  3  0  0  0  0  0  0
  190.1680  176.5700  144.3870 C   0  0  0  0  0  0  0  0  0  0  0  0
  193.3000  171.8000  144.7940 C   0  0  0  0  0  2  0  0  0  0  0  0
  191.8280  172.9850  141.3450 C   0  0  2  0  0  3  0  0  0  0  0  0
  191.0850  172.9700  140.0900 N   0  0  0  0  0  2  0  0  0  0  0  0
  189.5200  178.0160  147.6660 F   0  0  0  0  0  0  0  0  0  0  0  0
  189.9970  177.0040  143.0410 N   0  0  0  0  0  1  0  0  0  0  0  0
  192.5180  175.1440  142.6130 C   0  0  0  0  0  2  0  0  0  0  0  0
  191.6950  171.6440  142.0660 C   0  0  1  0  0  3  0  0  0  0  0  0
  191.0600  176.3350  147.3390 C   0  0  0  0  0  3  0  0  0  0  0  0
  191.7260  174.8760  145.4130 C   0  0  0  0  0  0  0  0  0  0  0  0
  190.7690  170.5000  141.0200 S   0  0  0  0  0  0  0  0  0  0  0  0
  190.0200  177.4620  145.3650 C   0  0  0  0  0  2  0  0  0  0  0  0
  191.9490  175.4000  146.6180 C   0  0  0  0  0  3  0  0  0  0  0  0
  193.0630  171.0600  142.3920 C   0  0  0  0  0  2  0  0  0  0  0  0
  190.4170  175.1220  144.6950 C   0  0  0  0  0  0  0  0  0  0  0  0
  189.9650  173.9520  143.3390 S   0  0  0  0  0  0  0  0  0  0  0  0
  193.4260  174.6480  143.6570 N   0  0  0  0  0  0  0  0  0  0  0  0
  190.1890  177.2050  146.8110 C   0  0  0  0  0  0  0  0  0  0  0  0
  192.8010  174.0030  144.8360 C   0  0  2  0  0  3  0  0  0  0  0  0
  190.0620  171.9400  140.1890 C   0  0  2  0  0  3  0  0  0  0  0  0
  193.1180  170.6150  143.8510 C   0  0  0  0  0  2  0  0  0  0  0  0
  189.5360  171.5730  138.8090 C   0  0  0  0  0  2  0  0  0  0  0  0
  189.7870  170.2290  138.5240 O   0  0  0  0  0  1  0  0  0  0  0  0
  194.4970  173.8560  143.0610 C   0  0  0  0  0  2  0  0  0  0  0  0
  195.8150  174.6260  143.0310 C   0  0  1  0  0  3  0  0  0  0  0  0
  197.4720  175.6070  141.5100 C   0  0  0  0  0  2  0  0  0  0  0  0
  196.5190  176.6550  141.9100 N   0  0  2  0  0  0  0  0  0  0  0  0
  196.6440  176.8230  143.3550 C   0  0  0  0  0  2  0  0  0  0  0  0
  196.0610  175.2690  141.6770 C   0  0  2  0  0  3  0  0  0  0  0  0
  195.8230  175.7520  144.0320 C   0  0  0  0  0  2  0  0  0  0  0  0
  1  4  1  0  0  0  0
  2  9  1  1  0  0  0
  2 18  1  0  0  0  0
  3 17  2  0  0  0  0
  3 14  1  0  0  0  0
  5  6  1  6  0  0  0
  5 10  1  0  0  0  0
  5  2  1  0  0  0  0
  6 22  1  0  0  0  0
  8  3  1  0  0  0  0
  9 19  1  0  0  0  0
 10 16  1  6  0  0  0
 12 15  2  0  0  0  0
 13 10  1  0  0  0  0
 14 20  1  0  0  0  0
 15 11  1  0  0  0  0
 16 23  1  0  0  0  0
 17 12  1  0  0  0  0
 18 17  1  0  0  0  0
 19 21  1  0  0  0  0
 20 11  2  0  0  0  0
 20  7  1  0  0  0  0
 21  1  1  6  0  0  0
 21 12  1  0  0  0  0
 22 24  1  6  0  0  0
 22 13  1  0  0  0  0
 23  4  1  0  0  0  0
 25 24  1  0  0  0  0
 26 19  1  0  0  0  0
 27 26  1  6  0  0  0
 27 32  1  0  0  0  0
 29 28  1  6  0  0  0
 29 30  1  0  0  0  0
 30 32  1  0  0  0  0
 31 28  1  1  0  0  0
 31 29  1  0  0  0  0
 31 27  1  0  0  0  0
M  END
>  <MODEL>
6

>  <REMARK>
 VINA RESULT:      -6.7      2.698      3.704
  Name = 
  3 active torsions:
  status: ('A' for Active; 'I' for Inactive)
    1  A    between atoms: C_9  and  C_28
    2  A    between atoms: C_13  and  C_29
    3  A    between atoms: N_24  and  C_28
                            x       y       z     vdW  Elec       q    Type
                         _______ _______ _______ _____ _____    ______ ____

>  <TORSDO>
F 3

$$$$
=
 OpenBabel11052419133D

 32 37  0  0  1  0  0  0  0  0999 V2000
  192.6920  175.6340  143.4120 O   0  0  0  0  0  0  0  0  0  0  0  0
  190.4940  173.9670  144.3830 C   0  0  2  0  0  3  0  0  0  0  0  0
  190.2120  172.8280  141.1270 C   0  0  0  0  0  0  0  0  0  0  0  0
  193.8140  176.1930  144.0290 C   0  0  0  0  0  2  0  0  0  0  0  0
  190.6130  174.6790  145.7390 C   0  0  2  0  0  3  0  0  0  0  0  0
  189.3440  174.6000  146.4530 N   0  0  0  0  0  2  0  0  0  0  0  0
  191.1230  172.6330  137.6070 F   0  0  0  0  0  0  0  0  0  0  0  0
  189.3060  172.1280  141.9760 N   0  0  0  0  0  1  0  0  0  0  0  0
  191.5050  172.8450  144.1320 C   0  0  0  0  0  2  0  0  0  0  0  0
  191.0840  176.1290  145.6360 C   0  0  1  0  0  3  0  0  0  0  0  0
  192.5190  173.5440  139.1950 C   0  0  0  0  0  3  0  0  0  0  0  0
  192.3200  174.1140  141.6280 C   0  0  0  0  0  0  0  0  0  0  0  0
  189.9460  177.1870  146.5560 S   0  0  0  0  0  0  0  0  0  0  0  0
  190.4480  172.3390  139.9110 C   0  0  0  0  0  3  0  0  0  0  0  0
  193.0440  173.8930  140.5310 C   0  0  0  0  0  3  0  0  0  0  0  0
  192.4970  176.2860  146.1810 C   0  0  0  0  0  2  0  0  0  0  0  0
  190.8080  174.1350  141.5620 C   0  0  2  0  0  3  0  0  0  0  0  0
  189.9140  174.9730  142.9450 S   0  0  0  0  0  0  0  0  0  0  0  0
  192.8860  173.2720  143.8630 N   0  0  0  0  0  0  0  0  0  0  0  0
  191.3750  172.9080  138.9090 C   0  0  0  0  0  0  0  0  0  0  0  0
  193.0670  174.3830  142.9010 C   0  0  2  0  0  3  0  0  0  0  0  0
  188.6950  175.8980  146.3560 C   0  0  2  0  0  3  0  0  0  0  0  0
  193.3630  177.0660  145.1950 C   0  0  0  0  0  2  0  0  0  0  0  0
  187.6000  176.0300  147.4040 C   0  0  0  0  0  2  0  0  0  0  0  0
  186.7870  177.1340  147.1360 O   0  0  0  0  0  1  0  0  0  0  0  0
  193.6080  173.4660  145.1180 C   0  0  0  0  0  2  0  0  0  0  0  0
  195.0880  173.1230  144.9720 C   0  0  1  0  0  3  0  0  0  0  0  0
  197.3430  174.0700  145.1690 C   0  0  0  0  0  2  0  0  0  0  0  0
  197.0000  173.4000  146.4330 N   0  0  2  0  0  0  0  0  0  0  0  0
  196.8130  171.9830  146.1330 C   0  0  0  0  0  2  0  0  0  0  0  0
  195.9730  174.1400  145.6710 C   0  0  2  0  0  3  0  0  0  0  0  0
  195.4130  171.7920  145.5980 C   0  0  0  0  0  2  0  0  0  0  0  0
  1  4  1  0  0  0  0
  2  9  1  6  0  0  0
  2  5  1  0  0  0  0
  3  8  1  0  0  0  0
  4 23  1  0  0  0  0
  5  6  1  6  0  0  0
  7 20  1  0  0  0  0
 10  5  1  0  0  0  0
 10 16  1  1  0  0  0
 10 13  1  0  0  0  0
 11 15  1  0  0  0  0
 14  3  2  0  0  0  0
 15 12  2  0  0  0  0
 17  3  1  1  0  0  0
 17 12  1  0  0  0  0
 17 18  1  0  0  0  0
 18  2  1  0  0  0  0
 19  9  1  0  0  0  0
 19 26  1  0  0  0  0
 20 11  2  0  0  0  0
 20 14  1  0  0  0  0
 21 12  1  6  0  0  0
 21  1  1  0  0  0  0
 21 19  1  0  0  0  0
 22  6  1  0  0  0  0
 22 13  1  0  0  0  0
 22 24  1  1  0  0  0
 23 16  1  0  0  0  0
 25 24  1  0  0  0  0
 27 26  1  1  0  0  0
 27 32  1  0  0  0  0
 27 31  1  0  0  0  0
 29 28  1  6  0  0  0
 30 29  1  0  0  0  0
 31 28  1  6  0  0  0
 31 29  1  0  0  0  0
 32 30  1  0  0  0  0
M  END
>  <MODEL>
7

>  <REMARK>
 VINA RESULT:      -6.5      3.652      6.511
  Name = 
  3 active torsions:
  status: ('A' for Active; 'I' for Inactive)
    1  A    between atoms: C_9  and  C_28
    2  A    between atoms: C_13  and  C_29
    3  A    between atoms: N_24  and  C_28
                            x       y       z     vdW  Elec       q    Type
                         _______ _______ _______ _____ _____    ______ ____

>  <TORSDO>
F 3

$$$$
=
 OpenBabel11052419133D

 32 37  0  0  1  0  0  0  0  0999 V2000
  190.7140  172.4190  143.9160 O   0  0  0  0  0  0  0  0  0  0  0  0
  190.7010  174.4630  141.8250 C   0  0  2  0  0  3  0  0  0  0  0  0
  188.8170  176.3730  144.0110 C   0  0  0  0  0  0  0  0  0  0  0  0
  191.5870  171.3730  144.2280 C   0  0  0  0  0  2  0  0  0  0  0  0
  191.3880  173.4510  140.8950 C   0  0  2  0  0  3  0  0  0  0  0  0
  191.1170  173.7940  139.5030 N   0  0  0  0  0  2  0  0  0  0  0  0
  187.1000  177.0760  147.1450 F   0  0  0  0  0  0  0  0  0  0  0  0
  189.1180  177.1200  142.8360 N   0  0  0  0  0  1  0  0  0  0  0  0
  191.6210  175.1870  142.8130 C   0  0  0  0  0  2  0  0  0  0  0  0
  191.0080  171.9980  141.1760 C   0  0  1  0  0  3  0  0  0  0  0  0
  188.6470  175.3830  146.9370 C   0  0  0  0  0  3  0  0  0  0  0  0
  189.9190  174.3530  145.0380 C   0  0  0  0  0  0  0  0  0  0  0  0
  190.4850  171.2150  139.6340 S   0  0  0  0  0  0  0  0  0  0  0  0
  188.3510  177.0250  145.0750 C   0  0  0  0  0  2  0  0  0  0  0  0
  189.7210  174.5630  146.3390 C   0  0  0  0  0  3  0  0  0  0  0  0
  192.1790  171.2320  141.7770 C   0  0  0  0  0  2  0  0  0  0  0  0
  188.9350  174.8770  144.0140 C   0  0  0  0  0  0  0  0  0  0  0  0
  188.9640  174.0980  142.3390 S   0  0  0  0  0  0  0  0  0  0  0  0
  192.1140  174.3830  143.9400 N   0  0  0  0  0  0  0  0  0  0  0  0
  188.0150  176.4270  146.3850 C   0  0  0  0  0  0  0  0  0  0  0  0
  191.1200  173.5430  144.6480 C   0  0  2  0  0  3  0  0  0  0  0  0
  190.1150  172.8670  139.0020 C   0  0  2  0  0  3  0  0  0  0  0  0
  191.7290  170.4590  143.0150 C   0  0  0  0  0  2  0  0  0  0  0  0
  190.0880  172.8780  137.4810 C   0  0  0  0  0  2  0  0  0  0  0  0
  189.8120  174.1600  136.9990 O   0  0  0  0  0  1  0  0  0  0  0  0
  193.3190  173.6550  143.5520 C   0  0  0  0  0  2  0  0  0  0  0  0
  194.2630  173.4610  144.7350 C   0  0  1  0  0  3  0  0  0  0  0  0
  196.2400  172.2090  145.4740 C   0  0  0  0  0  2  0  0  0  0  0  0
  196.6750  173.5150  144.9520 N   0  0  2  0  0  0  0  0  0  0  0  0
  196.0820  174.5400  145.8070 C   0  0  0  0  0  2  0  0  0  0  0  0
  195.5580  172.7850  144.3180 C   0  0  2  0  0  3  0  0  0  0  0  0
  194.6620  174.7770  145.3490 C   0  0  0  0  0  2  0  0  0  0  0  0
  1  4  1  0  0  0  0
  2 18  1  0  0  0  0
  2  9  1  1  0  0  0
  3 17  2  0  0  0  0
  3 14  1  0  0  0  0
  5  6  1  6  0  0  0
  5 10  1  0  0  0  0
  5  2  1  0  0  0  0
  8  3  1  0  0  0  0
  9 19  1  0  0  0  0
 10 16  1  6  0  0  0
 12 15  2  0  0  0  0
 13 10  1  0  0  0  0
 14 20  1  0  0  0  0
 15 11  1  0  0  0  0
 16 23  1  0  0  0  0
 17 12  1  0  0  0  0
 18 17  1  0  0  0  0
 19 21  1  0  0  0  0
 20 11  2  0  0  0  0
 20  7  1  0  0  0  0
 21  1  1  6  0  0  0
 21 12  1  0  0  0  0
 22 24  1  6  0  0  0
 22  6  1  0  0  0  0
 22 13  1  0  0  0  0
 23  4  1  0  0  0  0
 25 24  1  0  0  0  0
 26 19  1  0  0  0  0
 27 26  1  6  0  0  0
 27 32  1  0  0  0  0
 29 28  1  1  0  0  0
 29 30  1  0  0  0  0
 31 27  1  0  0  0  0
 31 29  1  0  0  0  0
 31 28  1  1  0  0  0
 32 30  1  0  0  0  0
M  END
>  <MODEL>
8

>  <REMARK>
 VINA RESULT:      -6.4      2.211      2.791
  Name = 
  3 active torsions:
  status: ('A' for Active; 'I' for Inactive)
    1  A    between atoms: C_9  and  C_28
    2  A    between atoms: C_13  and  C_29
    3  A    between atoms: N_24  and  C_28
                            x       y       z     vdW  Elec       q    Type
                         _______ _______ _______ _____ _____    ______ ____

>  <TORSDO>
F 3

$$$$
=
 OpenBabel11052419133D

 32 37  0  0  1  0  0  0  0  0999 V2000
  194.3510  175.8660  144.8320 O   0  0  0  0  0  0  0  0  0  0  0  0
  192.3070  174.8140  143.0250 C   0  0  2  0  0  3  0  0  0  0  0  0
  194.6700  175.1370  140.5180 C   0  0  0  0  0  0  0  0  0  0  0  0
  194.5720  175.7380  146.2060 C   0  0  0  0  0  2  0  0  0  0  0  0
  191.3060  174.8840  144.1900 C   0  0  2  0  0  3  0  0  0  0  0  0
  189.9470  174.9820  143.6700 N   0  0  0  0  0  2  0  0  0  0  0  0
  197.9410  175.9680  139.1510 F   0  0  0  0  0  0  0  0  0  0  0  0
  193.4880  174.5250  140.0080 N   0  0  0  0  0  1  0  0  0  0  0  0
  193.2320  173.5940  143.0190 C   0  0  0  0  0  2  0  0  0  0  0  0
  191.5880  176.0140  145.1790 C   0  0  1  0  0  3  0  0  0  0  0  0
  197.5800  175.6890  141.4080 C   0  0  0  0  0  3  0  0  0  0  0  0
  195.5680  175.3440  142.8630 C   0  0  0  0  0  0  0  0  0  0  0  0
  190.0780  176.9730  145.4260 S   0  0  0  0  0  0  0  0  0  0  0  0
  195.7790  175.0870  139.7820 C   0  0  0  0  0  3  0  0  0  0  0  0
  196.8840  175.3150  142.6570 C   0  0  0  0  0  3  0  0  0  0  0  0
  192.0810  175.4660  146.5110 C   0  0  0  0  0  2  0  0  0  0  0  0
  194.6350  175.9010  141.8100 C   0  0  2  0  0  3  0  0  0  0  0  0
  192.9480  176.4140  142.3620 S   0  0  0  0  0  0  0  0  0  0  0  0
  194.3010  173.5930  144.0270 N   0  0  0  0  0  0  0  0  0  0  0  0
  197.0990  175.6350  140.1590 C   0  0  0  0  0  0  0  0  0  0  0  0
  195.0700  174.8490  144.1890 C   0  0  2  0  0  3  0  0  0  0  0  0
  189.5080  176.3600  143.8250 C   0  0  2  0  0  3  0  0  0  0  0  0
  193.3350  176.2120  146.9610 C   0  0  0  0  0  2  0  0  0  0  0  0
  187.9940  176.4570  143.7080 C   0  0  0  0  0  2  0  0  0  0  0  0
  187.4140  176.6820  144.9580 O   0  0  0  0  0  1  0  0  0  0  0  0
  193.8060  173.0480  145.2880 C   0  0  0  0  0  2  0  0  0  0  0  0
  194.6540  171.8710  145.7620 C   0  0  1  0  0  3  0  0  0  0  0  0
  194.9370  169.4440  145.5280 C   0  0  0  0  0  2  0  0  0  0  0  0
  195.8520  170.1190  144.5940 N   0  0  2  0  0  0  0  0  0  0  0  0
  196.7870  170.9020  145.3970 C   0  0  0  0  0  2  0  0  0  0  0  0
  194.5030  170.6640  144.8510 C   0  0  2  0  0  3  0  0  0  0  0  0
  196.1220  172.2080  145.7620 C   0  0  0  0  0  2  0  0  0  0  0  0
  1  4  1  0  0  0  0
  2  9  1  1  0  0  0
  2  5  1  0  0  0  0
  4 23  1  0  0  0  0
  5  6  1  6  0  0  0
  5 10  1  0  0  0  0
  6 22  1  0  0  0  0
  7 20  1  0  0  0  0
  8  3  1  0  0  0  0
  9 19  1  0  0  0  0
 10 13  1  0  0  0  0
 10 16  1  1  0  0  0
 11 15  1  0  0  0  0
 14 20  1  0  0  0  0
 14  3  2  0  0  0  0
 15 12  2  0  0  0  0
 16 23  1  0  0  0  0
 17  3  1  6  0  0  0
 17 18  1  0  0  0  0
 17 12  1  0  0  0  0
 18  2  1  0  0  0  0
 19 21  1  0  0  0  0
 19 26  1  0  0  0  0
 20 11  2  0  0  0  0
 21 12  1  6  0  0  0
 21  1  1  0  0  0  0
 22 24  1  1  0  0  0
 22 13  1  0  0  0  0
 24 25  1  0  0  0  0
 27 26  1  6  0  0  0
 29 31  1  0  0  0  0
 29 30  1  1  0  0  0
 29 28  1  0  0  0  0
 30 32  1  0  0  0  0
 31 28  1  1  0  0  0
 31 27  1  0  0  0  0
 32 27  1  0  0  0  0
M  END
>  <MODEL>
9

>  <REMARK>
 VINA RESULT:      -6.4      4.465      7.309
  Name = 
  3 active torsions:
  status: ('A' for Active; 'I' for Inactive)
    1  A    between atoms: C_9  and  C_28
    2  A    between atoms: C_13  and  C_29
    3  A    between atoms: N_24  and  C_28
                            x       y       z     vdW  Elec       q    Type
                         _______ _______ _______ _____ _____    ______ ____

>  <TORSDO>
F 3

$$$$
