=
 OpenBabel11052419143D

 32 36  0  0  1  0  0  0  0  0999 V2000
  187.0510  176.7250  141.5180 C   0  0  0  0  0  0  0  0  0  0  0  0
  186.3950  177.2640  144.2020 C   0  0  0  0  0  0  0  0  0  0  0  0
  187.5620  176.6530  140.0960 C   0  0  0  0  0  2  0  0  0  0  0  0
  185.9380  177.5530  141.8090 C   0  0  0  0  0  0  0  0  0  0  0  0
  184.6120  178.7460  143.5080 C   0  0  0  0  0  3  0  0  0  0  0  0
  186.1040  177.0090  148.0250 C   0  0  0  0  0  2  0  0  0  0  0  0
  185.6410  177.8610  143.1600 C   0  0  0  0  0  0  0  0  0  0  0  0
  184.4790  178.4270  147.2880 C   0  0  0  0  0  2  0  0  0  0  0  0
  184.9870  178.3620  145.8610 C   0  0  0  0  0  0  0  0  0  0  0  0
  185.2210  178.2380  140.6240 C   0  0  1  0  0  3  0  0  0  0  0  0
  184.2670  178.9690  144.8410 C   0  0  0  0  0  3  0  0  0  0  0  0
  185.3830  177.5050  139.3140 C   0  0  0  0  0  3  0  0  0  0  0  0
  187.4550  176.4180  143.8770 C   0  0  0  0  0  3  0  0  0  0  0  0
  187.7890  176.1190  142.5590 C   0  0  0  0  0  0  0  0  0  0  0  0
  186.0740  177.5200  145.5520 C   0  0  0  0  0  0  0  0  0  0  0  0
  186.4610  176.7560  139.0780 C   0  0  0  0  0  3  0  0  0  0  0  0
  185.5580  178.3060  148.1880 O   0  0  0  0  0  0  0  0  0  0  0  0
  186.8850  176.9300  146.6920 C   0  0  0  0  0  2  0  0  0  0  0  0
  189.9560  173.0540  141.7600 C   0  0  0  0  0  0  0  0  0  0  0  0
  189.8350  171.6940  141.4810 O   0  0  0  0  0  1  0  0  0  0  0  0
  188.9580  175.2240  142.2910 C   0  0  0  0  0  0  0  0  0  0  0  0
  191.2330  173.6060  141.8490 C   0  0  0  0  0  3  0  0  0  0  0  0
  190.2530  175.7460  142.4100 C   0  0  0  0  0  3  0  0  0  0  0  0
  188.8180  173.8470  141.9950 C   0  0  0  0  0  0  0  0  0  0  0  0
  187.4690  173.1950  141.9480 C   0  0  0  0  0  1  0  0  0  0  0  0
  191.3910  174.9550  142.1990 C   0  0  0  0  0  0  0  0  0  0  0  0
  192.9800  176.2900  143.5680 C   0  0  0  0  0  1  0  0  0  0  0  0
  192.6560  175.5330  142.3980 O   0  0  0  0  0  0  0  0  0  0  0  0
  182.8680  177.8720  140.2810 C   0  0  0  0  0  3  0  0  0  0  0  0
  183.8170  178.5300  140.8610 N   0  0  0  0  0  0  0  0  0  0  0  0
  181.4340  178.1640  140.6150 C   0  0  0  0  0  2  0  0  0  0  0  0
  181.3230  178.8080  141.9860 C   0  0  0  0  0  1  0  0  0  0  0  0
  1  4  2  0  0  0  0
  1 14  1  0  0  0  0
  2 15  1  0  0  0  0
  3  1  1  0  0  0  0
  4  7  1  0  0  0  0
  5 11  2  0  0  0  0
  6 17  1  0  0  0  0
  7  5  1  0  0  0  0
  7  2  2  0  0  0  0
  8 17  1  0  0  0  0
  9  8  1  0  0  0  0
 10 30  1  1  0  0  0
 10  4  1  0  0  0  0
 11  9  1  0  0  0  0
 12 10  1  0  0  0  0
 13  2  1  0  0  0  0
 14 13  2  0  0  0  0
 15  9  2  0  0  0  0
 15 18  1  0  0  0  0
 16 12  2  0  0  0  0
 16  3  1  0  0  0  0
 18  6  1  0  0  0  0
 19 22  2  0  0  0  0
 19 24  1  0  0  0  0
 20 19  1  0  0  0  0
 21 23  1  0  0  0  0
 21 14  1  0  0  0  0
 22 26  1  0  0  0  0
 24 21  2  0  0  0  0
 25 24  1  0  0  0  0
 26 28  1  0  0  0  0
 26 23  2  0  0  0  0
 28 27  1  0  0  0  0
 29 31  1  0  0  0  0
 29 30  2  0  0  0  0
 31 32  1  0  0  0  0
M  END
>  <MODEL>
1

>  <REMARK>
 VINA RESULT:      -7.6      0.000      0.000
  Name = 
  4 active torsions:
  status: ('A' for Active; 'I' for Inactive)
    1  A    between atoms: C_13  and  C_18
    2  A    between atoms: C_14  and  N_29
    3  A    between atoms: O_15  and  C_26
    4  A    between atoms: C_16  and  C_27
                            x       y       z     vdW  Elec       q    Type
                         _______ _______ _______ _____ _____    ______ ____

>  <TORSDO>
F 4

$$$$
=
 OpenBabel11052419143D

 32 36  0  0  1  0  0  0  0  0999 V2000
  187.0320  176.7930  141.5840 C   0  0  0  0  0  0  0  0  0  0  0  0
  186.3610  177.3040  144.2700 C   0  0  0  0  0  0  0  0  0  0  0  0
  187.5460  176.7390  140.1620 C   0  0  0  0  0  2  0  0  0  0  0  0
  185.8960  177.5880  141.8780 C   0  0  0  0  0  0  0  0  0  0  0  0
  184.5370  178.7370  143.5800 C   0  0  0  0  0  3  0  0  0  0  0  0
  186.0780  177.0280  148.0920 C   0  0  0  0  0  2  0  0  0  0  0  0
  185.5910  177.8830  143.2300 C   0  0  0  0  0  0  0  0  0  0  0  0
  184.4130  178.4020  147.3590 C   0  0  0  0  0  2  0  0  0  0  0  0
  184.9230  178.3560  145.9330 C   0  0  0  0  0  0  0  0  0  0  0  0
  185.1610  178.2560  140.6950 C   0  0  1  0  0  3  0  0  0  0  0  0
  184.1860  178.9450  144.9140 C   0  0  0  0  0  3  0  0  0  0  0  0
  185.3430  177.5320  139.3820 C   0  0  0  0  0  3  0  0  0  0  0  0
  187.4440  176.4890  143.9420 C   0  0  0  0  0  3  0  0  0  0  0  0
  187.7870  176.2040  142.6230 C   0  0  0  0  0  0  0  0  0  0  0  0
  186.0330  177.5460  145.6200 C   0  0  0  0  0  0  0  0  0  0  0  0
  186.4410  176.8150  139.1440 C   0  0  0  0  0  3  0  0  0  0  0  0
  185.4940  178.3090  148.2590 O   0  0  0  0  0  0  0  0  0  0  0  0
  186.8600  176.9760  146.7590 C   0  0  0  0  0  2  0  0  0  0  0  0
  191.3930  174.9640  142.1830 C   0  0  0  0  0  0  0  0  0  0  0  0
  192.7060  175.4220  142.2710 O   0  0  0  0  0  1  0  0  0  0  0  0
  188.9810  175.3430  142.3520 C   0  0  0  0  0  0  0  0  0  0  0  0
  191.1690  173.6520  141.7700 C   0  0  0  0  0  3  0  0  0  0  0  0
  188.7830  174.0320  141.9000 C   0  0  0  0  0  3  0  0  0  0  0  0
  190.3100  175.8190  142.4590 C   0  0  0  0  0  0  0  0  0  0  0  0
  190.5990  177.2390  142.8420 C   0  0  0  0  0  1  0  0  0  0  0  0
  189.8580  173.1830  141.6020 C   0  0  0  0  0  0  0  0  0  0  0  0
  190.6000  171.0440  140.5730 C   0  0  0  0  0  1  0  0  0  0  0  0
  189.5800  171.9030  141.0940 O   0  0  0  0  0  0  0  0  0  0  0  0
  182.8190  177.9080  140.2630 C   0  0  0  0  0  3  0  0  0  0  0  0
  183.7490  178.5070  140.9330 N   0  0  0  0  0  0  0  0  0  0  0  0
  181.3760  178.1480  140.5980 C   0  0  0  0  0  2  0  0  0  0  0  0
  181.2460  178.9250  141.8960 C   0  0  0  0  0  1  0  0  0  0  0  0
  1  4  2  0  0  0  0
  1 14  1  0  0  0  0
  2 15  1  0  0  0  0
  3  1  1  0  0  0  0
  4  7  1  0  0  0  0
  5 11  2  0  0  0  0
  6 17  1  0  0  0  0
  7  5  1  0  0  0  0
  7  2  2  0  0  0  0
  8 17  1  0  0  0  0
  9  8  1  0  0  0  0
 10 30  1  1  0  0  0
 10  4  1  0  0  0  0
 11  9  1  0  0  0  0
 12 10  1  0  0  0  0
 13  2  1  0  0  0  0
 14 13  2  0  0  0  0
 15  9  2  0  0  0  0
 15 18  1  0  0  0  0
 16 12  2  0  0  0  0
 16  3  1  0  0  0  0
 18  6  1  0  0  0  0
 19 20  1  0  0  0  0
 19 24  1  0  0  0  0
 21 24  2  0  0  0  0
 21 14  1  0  0  0  0
 22 19  2  0  0  0  0
 23 21  1  0  0  0  0
 24 25  1  0  0  0  0
 26 22  1  0  0  0  0
 26 23  2  0  0  0  0
 27 28  1  0  0  0  0
 28 26  1  0  0  0  0
 29 31  1  0  0  0  0
 29 30  2  0  0  0  0
 31 32  1  0  0  0  0
M  END
>  <MODEL>
2

>  <REMARK>
 VINA RESULT:      -7.5      0.538      2.091
  Name = 
  4 active torsions:
  status: ('A' for Active; 'I' for Inactive)
    1  A    between atoms: C_13  and  C_18
    2  A    between atoms: C_14  and  N_29
    3  A    between atoms: O_15  and  C_26
    4  A    between atoms: C_16  and  C_27
                            x       y       z     vdW  Elec       q    Type
                         _______ _______ _______ _____ _____    ______ ____

>  <TORSDO>
F 4

$$$$
=
 OpenBabel11052419143D

 32 36  0  0  1  0  0  0  0  0999 V2000
  191.4290  175.0430  145.3940 C   0  0  0  0  0  0  0  0  0  0  0  0
  190.4430  174.4040  142.8350 C   0  0  0  0  0  0  0  0  0  0  0  0
  191.8440  175.1540  146.8450 C   0  0  0  0  0  2  0  0  0  0  0  0
  190.1480  175.5100  145.0050 C   0  0  0  0  0  0  0  0  0  0  0  0
  188.3430  175.4980  143.3310 C   0  0  0  0  0  3  0  0  0  0  0  0
  190.2430  173.3980  139.1330 C   0  0  0  0  0  2  0  0  0  0  0  0
  189.6360  175.1450  143.7350 C   0  0  0  0  0  0  0  0  0  0  0  0
  188.2760  174.4030  139.6970 C   0  0  0  0  0  2  0  0  0  0  0  0
  188.6840  174.5160  141.1520 C   0  0  0  0  0  0  0  0  0  0  0  0
  189.2930  176.2330  146.0700 C   0  0  1  0  0  3  0  0  0  0  0  0
  187.8830  175.2170  142.0450 C   0  0  0  0  0  3  0  0  0  0  0  0
  190.1090  176.8780  147.1660 C   0  0  0  0  0  3  0  0  0  0  0  0
  191.7170  174.0020  143.2370 C   0  0  0  0  0  3  0  0  0  0  0  0
  192.2370  174.3200  144.4880 C   0  0  0  0  0  0  0  0  0  0  0  0
  189.9660  174.0830  141.5480 C   0  0  0  0  0  0  0  0  0  0  0  0
  191.2990  176.3870  147.5110 C   0  0  0  0  0  3  0  0  0  0  0  0
  188.8340  173.2390  139.1300 O   0  0  0  0  0  0  0  0  0  0  0  0
  190.7870  173.2570  140.5740 C   0  0  0  0  0  2  0  0  0  0  0  0
  196.0290  174.0790  145.0290 C   0  0  0  0  0  0  0  0  0  0  0  0
  197.1920  174.8240  144.8430 O   0  0  0  0  0  1  0  0  0  0  0  0
  193.6020  173.8260  144.8550 C   0  0  0  0  0  0  0  0  0  0  0  0
  196.1390  172.7840  145.5340 C   0  0  0  0  0  3  0  0  0  0  0  0
  193.7430  172.5150  145.3290 C   0  0  0  0  0  3  0  0  0  0  0  0
  194.7720  174.6010  144.6720 C   0  0  0  0  0  0  0  0  0  0  0  0
  194.7100  175.9750  144.0780 C   0  0  0  0  0  1  0  0  0  0  0  0
  194.9960  171.9820  145.6650 C   0  0  0  0  0  0  0  0  0  0  0  0
  196.3000  169.9180  146.1360 C   0  0  0  0  0  1  0  0  0  0  0  0
  195.0660  170.6410  146.0740 O   0  0  0  0  0  0  0  0  0  0  0  0
  187.2530  177.5060  146.1400 C   0  0  0  0  0  3  0  0  0  0  0  0
  188.3450  177.1910  145.5260 N   0  0  0  0  0  0  0  0  0  0  0  0
  186.3430  178.5550  145.5710 C   0  0  0  0  0  2  0  0  0  0  0  0
  186.4050  178.5550  144.0530 C   0  0  0  0  0  1  0  0  0  0  0  0
  1  3  1  0  0  0  0
  2 13  2  0  0  0  0
  2  7  1  0  0  0  0
  3 16  1  0  0  0  0
  4  1  1  0  0  0  0
  4 10  1  0  0  0  0
  5  7  1  0  0  0  0
  6 18  1  0  0  0  0
  7  4  2  0  0  0  0
  8  9  1  0  0  0  0
  9 15  2  0  0  0  0
  9 11  1  0  0  0  0
 10 30  1  6  0  0  0
 10 12  1  0  0  0  0
 11  5  2  0  0  0  0
 12 16  2  0  0  0  0
 13 14  1  0  0  0  0
 14 21  1  0  0  0  0
 14  1  2  0  0  0  0
 15  2  1  0  0  0  0
 17  6  1  0  0  0  0
 17  8  1  0  0  0  0
 18 15  1  0  0  0  0
 19 22  1  0  0  0  0
 20 19  1  0  0  0  0
 21 23  2  0  0  0  0
 22 26  2  0  0  0  0
 23 26  1  0  0  0  0
 24 21  1  0  0  0  0
 24 19  2  0  0  0  0
 25 24  1  0  0  0  0
 26 28  1  0  0  0  0
 28 27  1  0  0  0  0
 30 29  2  0  0  0  0
 31 29  1  0  0  0  0
 32 31  1  0  0  0  0
M  END
>  <MODEL>
3

>  <REMARK>
 VINA RESULT:      -7.3      3.514      7.168
  Name = 
  4 active torsions:
  status: ('A' for Active; 'I' for Inactive)
    1  A    between atoms: C_13  and  C_18
    2  A    between atoms: C_14  and  N_29
    3  A    between atoms: O_15  and  C_26
    4  A    between atoms: C_16  and  C_27
                            x       y       z     vdW  Elec       q    Type
                         _______ _______ _______ _____ _____    ______ ____

>  <TORSDO>
F 4

$$$$
=
 OpenBabel11052419143D

 32 36  0  0  1  0  0  0  0  0999 V2000
  189.6430  175.4770  144.5060 C   0  0  0  0  0  0  0  0  0  0  0  0
  187.6700  176.5160  142.7860 C   0  0  0  0  0  0  0  0  0  0  0  0
  190.5830  174.6820  145.3850 C   0  0  0  0  0  2  0  0  0  0  0  0
  188.4230  175.9510  145.0520 C   0  0  0  0  0  0  0  0  0  0  0  0
  186.1550  176.8220  144.6490 C   0  0  0  0  0  3  0  0  0  0  0  0
  185.9120  178.0810  139.7490 C   0  0  0  0  0  2  0  0  0  0  0  0
  187.4140  176.4270  144.1780 C   0  0  0  0  0  0  0  0  0  0  0  0
  184.5280  178.2890  141.5480 C   0  0  0  0  0  2  0  0  0  0  0  0
  185.4640  177.4910  142.4340 C   0  0  0  0  0  0  0  0  0  0  0  0
  188.1810  175.7390  146.5630 C   0  0  1  0  0  3  0  0  0  0  0  0
  185.2030  177.3770  143.7940 C   0  0  0  0  0  3  0  0  0  0  0  0
  189.4540  175.6190  147.3680 C   0  0  0  0  0  3  0  0  0  0  0  0
  188.9000  176.0830  142.2920 C   0  0  0  0  0  3  0  0  0  0  0  0
  189.9000  175.5830  143.1210 C   0  0  0  0  0  0  0  0  0  0  0  0
  186.6940  177.0390  141.9130 C   0  0  0  0  0  0  0  0  0  0  0  0
  190.5700  175.1450  146.8150 C   0  0  0  0  0  3  0  0  0  0  0  0
  184.6030  177.8160  140.2220 O   0  0  0  0  0  0  0  0  0  0  0  0
  186.9180  177.1110  140.4140 C   0  0  0  0  0  2  0  0  0  0  0  0
  192.5650  173.4400  141.3780 C   0  0  0  0  0  0  0  0  0  0  0  0
  192.7290  172.1770  140.8140 O   0  0  0  0  0  1  0  0  0  0  0  0
  191.1830  175.1120  142.5100 C   0  0  0  0  0  0  0  0  0  0  0  0
  193.6630  174.2980  141.4270 C   0  0  0  0  0  3  0  0  0  0  0  0
  192.3110  175.9400  142.5800 C   0  0  0  0  0  3  0  0  0  0  0  0
  191.3300  173.8300  141.9290 C   0  0  0  0  0  0  0  0  0  0  0  0
  190.1950  172.8520  141.9050 C   0  0  0  0  0  1  0  0  0  0  0  0
  193.5490  175.5480  142.0520 C   0  0  0  0  0  0  0  0  0  0  0  0
  195.7480  176.4310  141.2990 C   0  0  0  0  0  1  0  0  0  0  0  0
  194.6500  176.4050  142.2160 O   0  0  0  0  0  0  0  0  0  0  0  0
  187.6970  177.9120  147.4750 C   0  0  0  0  0  3  0  0  0  0  0  0
  187.2990  176.7210  147.1710 N   0  0  0  0  0  0  0  0  0  0  0  0
  186.7260  178.9120  148.0340 C   0  0  0  0  0  2  0  0  0  0  0  0
  185.3070  178.5810  147.6070 C   0  0  0  0  0  1  0  0  0  0  0  0
  1  4  1  0  0  0  0
  1  3  1  0  0  0  0
  2  7  1  0  0  0  0
  3 16  1  0  0  0  0
  4 10  1  0  0  0  0
  6 17  1  0  0  0  0
  6 18  1  0  0  0  0
  7  5  1  0  0  0  0
  7  4  2  0  0  0  0
  8  9  1  0  0  0  0
  9 11  1  0  0  0  0
 10 30  1  1  0  0  0
 10 12  1  0  0  0  0
 11  5  2  0  0  0  0
 13  2  2  0  0  0  0
 13 14  1  0  0  0  0
 14  1  2  0  0  0  0
 15  9  2  0  0  0  0
 15  2  1  0  0  0  0
 16 12  2  0  0  0  0
 17  8  1  0  0  0  0
 18 15  1  0  0  0  0
 19 22  2  0  0  0  0
 19 24  1  0  0  0  0
 20 19  1  0  0  0  0
 21 23  1  0  0  0  0
 21 14  1  0  0  0  0
 22 26  1  0  0  0  0
 24 21  2  0  0  0  0
 25 24  1  0  0  0  0
 26 28  1  0  0  0  0
 26 23  2  0  0  0  0
 27 28  1  0  0  0  0
 29 31  1  0  0  0  0
 30 29  2  0  0  0  0
 32 31  1  0  0  0  0
M  END
>  <MODEL>
4

>  <REMARK>
 VINA RESULT:      -7.3      2.621      5.266
  Name = 
  4 active torsions:
  status: ('A' for Active; 'I' for Inactive)
    1  A    between atoms: C_13  and  C_18
    2  A    between atoms: C_14  and  N_29
    3  A    between atoms: O_15  and  C_26
    4  A    between atoms: C_16  and  C_27
                            x       y       z     vdW  Elec       q    Type
                         _______ _______ _______ _____ _____    ______ ____

>  <TORSDO>
F 4

$$$$
=
 OpenBabel11052419143D

 32 36  0  0  1  0  0  0  0  0999 V2000
  189.4470  175.4770  144.4170 C   0  0  0  0  0  0  0  0  0  0  0  0
  187.4460  176.5480  142.7500 C   0  0  0  0  0  0  0  0  0  0  0  0
  190.3980  174.6660  145.2700 C   0  0  0  0  0  2  0  0  0  0  0  0
  188.2490  175.9670  144.9950 C   0  0  0  0  0  0  0  0  0  0  0  0
  185.9840  176.8720  144.6510 C   0  0  0  0  0  3  0  0  0  0  0  0
  185.6350  178.1450  139.7620 C   0  0  0  0  0  2  0  0  0  0  0  0
  187.2250  176.4600  144.1480 C   0  0  0  0  0  0  0  0  0  0  0  0
  184.3000  178.3690  141.5960 C   0  0  0  0  0  2  0  0  0  0  0  0
  185.2470  177.5560  142.4570 C   0  0  0  0  0  0  0  0  0  0  0  0
  188.0430  175.7550  146.5110 C   0  0  1  0  0  3  0  0  0  0  0  0
  185.0190  177.4430  143.8220 C   0  0  0  0  0  3  0  0  0  0  0  0
  189.3340  175.6150  147.2830 C   0  0  0  0  0  3  0  0  0  0  0  0
  188.6560  176.0980  142.2230 C   0  0  0  0  0  3  0  0  0  0  0  0
  189.6700  175.5820  143.0250 C   0  0  0  0  0  0  0  0  0  0  0  0
  186.4560  177.0880  141.9030 C   0  0  0  0  0  0  0  0  0  0  0  0
  190.4290  175.1270  146.7000 C   0  0  0  0  0  3  0  0  0  0  0  0
  184.3340  177.8980  140.2680 O   0  0  0  0  0  0  0  0  0  0  0  0
  186.6430  177.1590  140.3980 C   0  0  0  0  0  2  0  0  0  0  0  0
  193.2950  175.3120  141.7930 C   0  0  0  0  0  0  0  0  0  0  0  0
  194.4950  176.0200  141.8160 O   0  0  0  0  0  1  0  0  0  0  0  0
  190.9300  175.0940  142.3810 C   0  0  0  0  0  0  0  0  0  0  0  0
  193.2420  174.1090  141.0890 C   0  0  0  0  0  3  0  0  0  0  0  0
  190.8940  173.9070  141.6360 C   0  0  0  0  0  3  0  0  0  0  0  0
  192.1450  175.8180  142.4250 C   0  0  0  0  0  0  0  0  0  0  0  0
  192.2350  177.1440  143.1190 C   0  0  0  0  0  1  0  0  0  0  0  0
  192.0320  173.4090  140.9860 C   0  0  0  0  0  0  0  0  0  0  0  0
  190.7310  171.4270  140.2350 C   0  0  0  0  0  1  0  0  0  0  0  0
  191.9040  172.2470  140.2070 O   0  0  0  0  0  0  0  0  0  0  0  0
  187.6270  177.9160  147.4840 C   0  0  0  0  0  3  0  0  0  0  0  0
  187.1910  176.7490  147.1440 N   0  0  0  0  0  0  0  0  0  0  0  0
  186.6880  178.9320  148.0680 C   0  0  0  0  0  2  0  0  0  0  0  0
  185.2610  178.6590  147.6280 C   0  0  0  0  0  1  0  0  0  0  0  0
  1  4  1  0  0  0  0
  1  3  1  0  0  0  0
  2  7  1  0  0  0  0
  3 16  1  0  0  0  0
  4 10  1  0  0  0  0
  6 17  1  0  0  0  0
  6 18  1  0  0  0  0
  7  5  1  0  0  0  0
  7  4  2  0  0  0  0
  8  9  1  0  0  0  0
  9 11  1  0  0  0  0
 10 30  1  1  0  0  0
 10 12  1  0  0  0  0
 11  5  2  0  0  0  0
 13  2  2  0  0  0  0
 13 14  1  0  0  0  0
 14  1  2  0  0  0  0
 15  9  2  0  0  0  0
 15  2  1  0  0  0  0
 16 12  2  0  0  0  0
 17  8  1  0  0  0  0
 18 15  1  0  0  0  0
 19 20  1  0  0  0  0
 19 24  1  0  0  0  0
 21 24  2  0  0  0  0
 21 14  1  0  0  0  0
 22 19  2  0  0  0  0
 23 21  1  0  0  0  0
 24 25  1  0  0  0  0
 26 22  1  0  0  0  0
 26 23  2  0  0  0  0
 28 27  1  0  0  0  0
 28 26  1  0  0  0  0
 29 31  1  0  0  0  0
 30 29  2  0  0  0  0
 32 31  1  0  0  0  0
M  END
>  <MODEL>
5

>  <REMARK>
 VINA RESULT:      -7.3      2.537      5.550
  Name = 
  4 active torsions:
  status: ('A' for Active; 'I' for Inactive)
    1  A    between atoms: C_13  and  C_18
    2  A    between atoms: C_14  and  N_29
    3  A    between atoms: O_15  and  C_26
    4  A    between atoms: C_16  and  C_27
                            x       y       z     vdW  Elec       q    Type
                         _______ _______ _______ _____ _____    ______ ____

>  <TORSDO>
F 4

$$$$
=
 OpenBabel11052419143D

 32 36  0  0  1  0  0  0  0  0999 V2000
  190.8880  175.9100  144.8760 C   0  0  0  0  0  0  0  0  0  0  0  0
  190.3390  174.5440  142.4760 C   0  0  0  0  0  0  0  0  0  0  0  0
  191.2360  176.8550  146.0050 C   0  0  0  0  0  2  0  0  0  0  0  0
  191.9290  175.1990  144.2260 C   0  0  0  0  0  0  0  0  0  0  0  0
  192.6650  173.9140  142.2590 C   0  0  0  0  0  3  0  0  0  0  0  0
  188.5010  172.7300  139.6310 C   0  0  0  0  0  2  0  0  0  0  0  0
  191.6590  174.5540  142.9930 C   0  0  0  0  0  0  0  0  0  0  0  0
  190.7170  172.2220  139.4740 C   0  0  0  0  0  2  0  0  0  0  0  0
  191.0740  173.1680  140.6030 C   0  0  0  0  0  0  0  0  0  0  0  0
  193.3570  175.3300  144.8000 C   0  0  1  0  0  3  0  0  0  0  0  0
  192.3720  173.2020  141.0960 C   0  0  0  0  0  3  0  0  0  0  0  0
  193.3880  175.6780  146.2700 C   0  0  0  0  0  3  0  0  0  0  0  0
  189.3320  175.2170  143.1670 C   0  0  0  0  0  3  0  0  0  0  0  0
  189.5710  175.8840  144.3650 C   0  0  0  0  0  0  0  0  0  0  0  0
  190.0470  173.8590  141.2780 C   0  0  0  0  0  0  0  0  0  0  0  0
  192.3950  176.3690  146.8300 C   0  0  0  0  0  3  0  0  0  0  0  0
  189.6140  172.7260  138.7550 O   0  0  0  0  0  0  0  0  0  0  0  0
  188.6540  173.8620  140.6740 C   0  0  0  0  0  2  0  0  0  0  0  0
  186.8840  176.9610  146.8850 C   0  0  0  0  0  0  0  0  0  0  0  0
  186.3820  176.6130  148.1380 O   0  0  0  0  0  1  0  0  0  0  0  0
  188.4430  176.6060  145.0330 C   0  0  0  0  0  0  0  0  0  0  0  0
  186.2730  178.0020  146.1870 C   0  0  0  0  0  3  0  0  0  0  0  0
  187.7880  177.6320  144.3370 C   0  0  0  0  0  3  0  0  0  0  0  0
  187.9540  176.2490  146.3120 C   0  0  0  0  0  0  0  0  0  0  0  0
  188.5380  175.0990  147.0750 C   0  0  0  0  0  1  0  0  0  0  0  0
  186.7080  178.3300  144.8950 C   0  0  0  0  0  0  0  0  0  0  0  0
  184.6530  179.5380  144.1860 C   0  0  0  0  0  1  0  0  0  0  0  0
  186.0630  179.3020  144.1130 O   0  0  0  0  0  0  0  0  0  0  0  0
  194.5390  173.3440  145.4680 C   0  0  0  0  0  3  0  0  0  0  0  0
  194.2130  174.1840  144.5420 N   0  0  0  0  0  0  0  0  0  0  0  0
  195.3670  172.1360  145.1330 C   0  0  0  0  0  2  0  0  0  0  0  0
  196.6810  172.1580  145.8930 C   0  0  0  0  0  1  0  0  0  0  0  0
  1  3  1  0  0  0  0
  2  7  1  0  0  0  0
  2 13  1  0  0  0  0
  3 16  1  0  0  0  0
  4 10  1  0  0  0  0
  4  1  2  0  0  0  0
  5  7  2  0  0  0  0
  6 18  1  0  0  0  0
  7  4  1  0  0  0  0
  8  9  1  0  0  0  0
  9 11  2  0  0  0  0
  9 15  1  0  0  0  0
 10 30  1  1  0  0  0
 10 12  1  0  0  0  0
 11  5  1  0  0  0  0
 12 16  2  0  0  0  0
 13 14  2  0  0  0  0
 14  1  1  0  0  0  0
 14 21  1  0  0  0  0
 15  2  2  0  0  0  0
 17  8  1  0  0  0  0
 17  6  1  0  0  0  0
 18 15  1  0  0  0  0
 19 20  1  0  0  0  0
 21 24  2  0  0  0  0
 22 19  2  0  0  0  0
 23 26  2  0  0  0  0
 23 21  1  0  0  0  0
 24 19  1  0  0  0  0
 24 25  1  0  0  0  0
 26 22  1  0  0  0  0
 28 27  1  0  0  0  0
 28 26  1  0  0  0  0
 30 29  2  0  0  0  0
 31 29  1  0  0  0  0
 31 32  1  0  0  0  0
M  END
>  <MODEL>
6

>  <REMARK>
 VINA RESULT:      -7.3      3.385      9.007
  Name = 
  4 active torsions:
  status: ('A' for Active; 'I' for Inactive)
    1  A    between atoms: C_13  and  C_18
    2  A    between atoms: C_14  and  N_29
    3  A    between atoms: O_15  and  C_26
    4  A    between atoms: C_16  and  C_27
                            x       y       z     vdW  Elec       q    Type
                         _______ _______ _______ _____ _____    ______ ____

>  <TORSDO>
F 4

$$$$
=
 OpenBabel11052419143D

 32 36  0  0  1  0  0  0  0  0999 V2000
  188.9840  176.5350  143.6340 C   0  0  0  0  0  0  0  0  0  0  0  0
  189.4230  174.6630  141.5770 C   0  0  0  0  0  0  0  0  0  0  0  0
  188.8530  177.7200  144.5660 C   0  0  0  0  0  2  0  0  0  0  0  0
  190.2120  175.8260  143.5880 C   0  0  0  0  0  0  0  0  0  0  0  0
  191.6730  174.2610  142.3730 C   0  0  0  0  0  3  0  0  0  0  0  0
  188.8500  172.1230  138.7520 C   0  0  0  0  0  2  0  0  0  0  0  0
  190.4470  174.9210  142.5240 C   0  0  0  0  0  0  0  0  0  0  0  0
  190.9720  171.8400  139.5340 C   0  0  0  0  0  2  0  0  0  0  0  0
  190.8490  173.0270  140.4680 C   0  0  0  0  0  0  0  0  0  0  0  0
  191.3110  176.2260  144.5980 C   0  0  1  0  0  3  0  0  0  0  0  0
  191.8620  173.3020  141.3780 C   0  0  0  0  0  3  0  0  0  0  0  0
  190.7730  176.8640  145.8570 C   0  0  0  0  0  3  0  0  0  0  0  0
  188.2120  175.3460  141.6820 C   0  0  0  0  0  3  0  0  0  0  0  0
  187.9610  176.2620  142.6990 C   0  0  0  0  0  0  0  0  0  0  0  0
  189.6250  173.7230  140.5450 C   0  0  0  0  0  0  0  0  0  0  0  0
  189.6240  177.5410  145.8440 C   0  0  0  0  0  3  0  0  0  0  0  0
  190.2130  172.0660  138.3680 O   0  0  0  0  0  0  0  0  0  0  0  0
  188.5660  173.4510  139.4920 C   0  0  0  0  0  2  0  0  0  0  0  0
  184.7890  178.1520  141.6510 C   0  0  0  0  0  0  0  0  0  0  0  0
  184.1690  178.6660  140.5130 O   0  0  0  0  0  1  0  0  0  0  0  0
  186.6450  176.9760  142.7270 C   0  0  0  0  0  0  0  0  0  0  0  0
  184.1840  178.3550  142.8900 C   0  0  0  0  0  3  0  0  0  0  0  0
  186.0350  177.2260  143.9640 C   0  0  0  0  0  3  0  0  0  0  0  0
  186.0220  177.4810  141.5610 C   0  0  0  0  0  0  0  0  0  0  0  0
  186.6630  177.3390  140.2130 C   0  0  0  0  0  1  0  0  0  0  0  0
  184.8170  177.9130  144.0610 C   0  0  0  0  0  0  0  0  0  0  0  0
  184.7850  177.5310  146.5180 C   0  0  0  0  0  1  0  0  0  0  0  0
  184.2980  178.1800  145.3390 O   0  0  0  0  0  0  0  0  0  0  0  0
  193.4310  175.3790  145.3560 C   0  0  0  0  0  3  0  0  0  0  0  0
  192.2300  175.1530  144.9370 N   0  0  0  0  0  0  0  0  0  0  0  0
  194.3160  174.2370  145.7630 C   0  0  0  0  0  2  0  0  0  0  0  0
  193.6920  172.9090  145.3740 C   0  0  0  0  0  1  0  0  0  0  0  0
  1  3  1  0  0  0  0
  2 13  2  0  0  0  0
  2  7  1  0  0  0  0
  3 16  1  0  0  0  0
  4  1  1  0  0  0  0
  4 10  1  0  0  0  0
  5  7  1  0  0  0  0
  6 18  1  0  0  0  0
  7  4  2  0  0  0  0
  8  9  1  0  0  0  0
  9 15  2  0  0  0  0
  9 11  1  0  0  0  0
 10 30  1  1  0  0  0
 10 12  1  0  0  0  0
 11  5  2  0  0  0  0
 13 14  1  0  0  0  0
 14 21  1  0  0  0  0
 14  1  2  0  0  0  0
 15  2  1  0  0  0  0
 16 12  2  0  0  0  0
 17  6  1  0  0  0  0
 17  8  1  0  0  0  0
 18 15  1  0  0  0  0
 19 22  1  0  0  0  0
 20 19  1  0  0  0  0
 21 23  2  0  0  0  0
 22 26  2  0  0  0  0
 23 26  1  0  0  0  0
 24 19  2  0  0  0  0
 24 21  1  0  0  0  0
 25 24  1  0  0  0  0
 26 28  1  0  0  0  0
 28 27  1  0  0  0  0
 29 31  1  0  0  0  0
 30 29  2  0  0  0  0
 32 31  1  0  0  0  0
M  END
>  <MODEL>
7

>  <REMARK>
 VINA RESULT:      -7.1      2.966      8.395
  Name = 
  4 active torsions:
  status: ('A' for Active; 'I' for Inactive)
    1  A    between atoms: C_13  and  C_18
    2  A    between atoms: C_14  and  N_29
    3  A    between atoms: O_15  and  C_26
    4  A    between atoms: C_16  and  C_27
                            x       y       z     vdW  Elec       q    Type
                         _______ _______ _______ _____ _____    ______ ____

>  <TORSDO>
F 4

$$$$
=
 OpenBabel11052419143D

 32 36  0  0  1  0  0  0  0  0999 V2000
  189.1680  174.5740  142.9130 C   0  0  0  0  0  0  0  0  0  0  0  0
  191.5810  175.0460  144.2850 C   0  0  0  0  0  0  0  0  0  0  0  0
  187.8140  174.1580  142.3820 C   0  0  0  0  0  2  0  0  0  0  0  0
  190.2970  173.7610  142.6360 C   0  0  0  0  0  0  0  0  0  0  0  0
  192.6120  173.1430  143.2030 C   0  0  0  0  0  3  0  0  0  0  0  0
  194.3840  176.7470  146.2890 C   0  0  0  0  0  2  0  0  0  0  0  0
  191.4940  173.9710  143.3650 C   0  0  0  0  0  0  0  0  0  0  0  0
  195.2640  174.9100  145.2670 C   0  0  0  0  0  2  0  0  0  0  0  0
  193.9100  174.4850  144.7340 C   0  0  0  0  0  0  0  0  0  0  0  0
  190.1000  172.5560  141.6900 C   0  0  1  0  0  3  0  0  0  0  0  0
  193.8160  173.4150  143.8540 C   0  0  0  0  0  3  0  0  0  0  0  0
  188.9500  172.7250  140.7260 C   0  0  0  0  0  3  0  0  0  0  0  0
  190.4640  175.8530  144.4970 C   0  0  0  0  0  3  0  0  0  0  0  0
  189.2640  175.6550  143.8180 C   0  0  0  0  0  0  0  0  0  0  0  0
  192.7850  175.2990  144.9760 C   0  0  0  0  0  0  0  0  0  0  0  0
  187.8990  173.4820  141.0420 C   0  0  0  0  0  3  0  0  0  0  0  0
  195.1100  175.5510  146.5130 O   0  0  0  0  0  0  0  0  0  0  0  0
  192.9010  176.4160  145.9980 C   0  0  0  0  0  2  0  0  0  0  0  0
  186.5810  178.3890  143.5920 C   0  0  0  0  0  0  0  0  0  0  0  0
  186.1590  179.4160  142.7490 O   0  0  0  0  0  1  0  0  0  0  0  0
  188.1010  176.5470  144.1210 C   0  0  0  0  0  0  0  0  0  0  0  0
  185.9230  178.2110  144.8080 C   0  0  0  0  0  3  0  0  0  0  0  0
  187.4470  176.4120  145.3530 C   0  0  0  0  0  3  0  0  0  0  0  0
  187.6770  177.5770  143.2480 C   0  0  0  0  0  0  0  0  0  0  0  0
  188.3900  177.8460  141.9570 C   0  0  0  0  0  1  0  0  0  0  0  0
  186.3680  177.2330  145.7100 C   0  0  0  0  0  0  0  0  0  0  0  0
  185.9410  178.0680  148.0130 C   0  0  0  0  0  1  0  0  0  0  0  0
  185.8030  177.0800  146.9870 O   0  0  0  0  0  0  0  0  0  0  0  0
  191.4610  172.4060  139.7110 C   0  0  0  0  0  3  0  0  0  0  0  0
  191.2990  172.1600  140.9700 N   0  0  0  0  0  0  0  0  0  0  0  0
  192.7480  172.0400  139.0310 C   0  0  0  0  0  2  0  0  0  0  0  0
  193.9280  172.7010  139.7220 C   0  0  0  0  0  1  0  0  0  0  0  0
  1 14  1  0  0  0  0
  2 13  1  0  0  0  0
  2 15  1  0  0  0  0
  3  1  1  0  0  0  0
  4  1  2  0  0  0  0
  4  7  1  0  0  0  0
  5  7  1  0  0  0  0
  5 11  2  0  0  0  0
  6 17  1  0  0  0  0
  7  2  2  0  0  0  0
  8 17  1  0  0  0  0
  9 15  2  0  0  0  0
  9  8  1  0  0  0  0
 10 30  1  6  0  0  0
 10  4  1  0  0  0  0
 11  9  1  0  0  0  0
 12 16  2  0  0  0  0
 12 10  1  0  0  0  0
 14 21  1  0  0  0  0
 14 13  2  0  0  0  0
 15 18  1  0  0  0  0
 16  3  1  0  0  0  0
 18  6  1  0  0  0  0
 19 22  1  0  0  0  0
 20 19  1  0  0  0  0
 21 23  2  0  0  0  0
 22 26  2  0  0  0  0
 23 26  1  0  0  0  0
 24 19  2  0  0  0  0
 24 21  1  0  0  0  0
 25 24  1  0  0  0  0
 26 28  1  0  0  0  0
 28 27  1  0  0  0  0
 29 30  2  0  0  0  0
 31 29  1  0  0  0  0
 31 32  1  0  0  0  0
M  END
>  <MODEL>
8

>  <REMARK>
 VINA RESULT:      -7.0      3.387      7.835
  Name = 
  4 active torsions:
  status: ('A' for Active; 'I' for Inactive)
    1  A    between atoms: C_13  and  C_18
    2  A    between atoms: C_14  and  N_29
    3  A    between atoms: O_15  and  C_26
    4  A    between atoms: C_16  and  C_27
                            x       y       z     vdW  Elec       q    Type
                         _______ _______ _______ _____ _____    ______ ____

>  <TORSDO>
F 4

$$$$
=
 OpenBabel11052419143D

 32 36  0  0  1  0  0  0  0  0999 V2000
  190.9640  174.5620  144.3200 C   0  0  0  0  0  0  0  0  0  0  0  0
  188.4980  175.8470  143.8790 C   0  0  0  0  0  0  0  0  0  0  0  0
  192.1380  173.6550  144.6150 C   0  0  0  0  0  2  0  0  0  0  0  0
  190.3330  175.2430  145.3920 C   0  0  0  0  0  0  0  0  0  0  0  0
  188.3540  176.4540  146.2170 C   0  0  0  0  0  3  0  0  0  0  0  0
  185.5210  177.5740  142.1720 C   0  0  0  0  0  2  0  0  0  0  0  0
  189.0690  175.8470  145.1770 C   0  0  0  0  0  0  0  0  0  0  0  0
  185.4360  178.0620  144.3970 C   0  0  0  0  0  2  0  0  0  0  0  0
  186.6110  177.1530  144.7000 C   0  0  0  0  0  0  0  0  0  0  0  0
  190.9690  175.1230  146.7950 C   0  0  1  0  0  3  0  0  0  0  0  0
  187.1560  177.1270  145.9770 C   0  0  0  0  0  3  0  0  0  0  0  0
  192.4490  174.8260  146.7640 C   0  0  0  0  0  3  0  0  0  0  0  0
  189.1710  175.2060  142.8400 C   0  0  0  0  0  3  0  0  0  0  0  0
  190.4000  174.5790  143.0250 C   0  0  0  0  0  0  0  0  0  0  0  0
  187.2660  176.4920  143.6410 C   0  0  0  0  0  0  0  0  0  0  0  0
  192.9920  174.1610  145.7440 C   0  0  0  0  0  3  0  0  0  0  0  0
  184.6910  177.5400  143.3200 O   0  0  0  0  0  0  0  0  0  0  0  0
  186.6070  176.4780  142.2740 C   0  0  0  0  0  2  0  0  0  0  0  0
  191.3600  171.9690  140.3810 C   0  0  0  0  0  0  0  0  0  0  0  0
  191.0510  170.6660  139.9930 O   0  0  0  0  0  1  0  0  0  0  0  0
  191.0460  173.8880  141.8650 C   0  0  0  0  0  0  0  0  0  0  0  0
  192.3600  172.6520  139.6900 C   0  0  0  0  0  3  0  0  0  0  0  0
  192.0800  174.5390  141.1780 C   0  0  0  0  0  3  0  0  0  0  0  0
  190.7110  172.5690  141.4750 C   0  0  0  0  0  0  0  0  0  0  0  0
  189.6850  171.7730  142.2240 C   0  0  0  0  0  1  0  0  0  0  0  0
  192.7440  173.9370  140.1010 C   0  0  0  0  0  0  0  0  0  0  0  0
  194.8360  175.2710  140.2650 C   0  0  0  0  0  1  0  0  0  0  0  0
  193.8110  174.6260  139.5020 O   0  0  0  0  0  0  0  0  0  0  0  0
  191.6260  176.7840  148.4060 C   0  0  0  0  0  3  0  0  0  0  0  0
  190.7060  176.2530  147.6700 N   0  0  0  0  0  0  0  0  0  0  0  0
  191.3200  177.9960  149.2380 C   0  0  0  0  0  2  0  0  0  0  0  0
  190.0500  178.6730  148.7540 C   0  0  0  0  0  1  0  0  0  0  0  0
  1  3  1  0  0  0  0
  1  4  1  0  0  0  0
  2  7  1  0  0  0  0
  3 16  1  0  0  0  0
  4 10  1  0  0  0  0
  6 18  1  0  0  0  0
  6 17  1  0  0  0  0
  7  4  2  0  0  0  0
  7  5  1  0  0  0  0
  8  9  1  0  0  0  0
  9 11  1  0  0  0  0
 10 30  1  6  0  0  0
 11  5  2  0  0  0  0
 12 10  1  0  0  0  0
 13 14  1  0  0  0  0
 13  2  2  0  0  0  0
 14  1  2  0  0  0  0
 15  2  1  0  0  0  0
 15  9  2  0  0  0  0
 16 12  2  0  0  0  0
 17  8  1  0  0  0  0
 18 15  1  0  0  0  0
 19 24  1  0  0  0  0
 20 19  1  0  0  0  0
 21 14  1  0  0  0  0
 22 26  1  0  0  0  0
 22 19  2  0  0  0  0
 23 21  1  0  0  0  0
 24 21  2  0  0  0  0
 24 25  1  0  0  0  0
 26 23  2  0  0  0  0
 28 26  1  0  0  0  0
 28 27  1  0  0  0  0
 29 31  1  0  0  0  0
 30 29  2  0  0  0  0
 32 31  1  0  0  0  0
M  END
>  <MODEL>
9

>  <REMARK>
 VINA RESULT:      -7.0      3.166      6.115
  Name = 
  4 active torsions:
  status: ('A' for Active; 'I' for Inactive)
    1  A    between atoms: C_13  and  C_18
    2  A    between atoms: C_14  and  N_29
    3  A    between atoms: O_15  and  C_26
    4  A    between atoms: C_16  and  C_27
                            x       y       z     vdW  Elec       q    Type
                         _______ _______ _______ _____ _____    ______ ____

>  <TORSDO>
F 4

$$$$
