=
 OpenBabel11052420233D

 34 37  0  0  1  0  0  0  0  0999 V2000
  190.8580  175.4570  143.5630 O   0  0  0  0  0  0  0  0  0  0  0  0
  191.8400  174.9580  147.0030 C   0  0  0  0  0  2  0  0  0  0  0  0
  193.0370  174.5300  146.1730 C   0  0  1  0  0  3  0  0  0  0  0  0
  193.3040  174.4320  143.7400 O   0  0  0  0  0  1  0  0  0  0  0  0
  192.4820  174.0870  144.8190 C   0  0  2  0  0  3  0  0  0  0  0  0
  190.7260  175.3170  146.0320 C   0  0  0  0  0  2  0  0  0  0  0  0
  191.0430  174.6180  144.7000 C   0  0  1  0  0  0  0  0  0  0  0  0
  193.6790  176.9430  145.8740 O   0  0  0  0  0  0  0  0  0  0  0  0
  194.0580  175.6260  146.1050 C   0  0  0  0  0  0  0  0  0  0  0  0
  195.2740  175.3470  146.2630 O   0  0  0  0  0  1  0  0  0  0  0  0
  190.0730  173.4370  144.5230 C   0  0  0  0  0  2  0  0  0  0  0  0
  190.7890  172.2730  142.4070 C   0  0  0  0  0  3  0  0  0  0  0  0
  189.3480  172.2220  140.4610 C   0  0  0  0  0  3  0  0  0  0  0  0
  190.5510  171.8790  141.0860 C   0  0  0  0  0  3  0  0  0  0  0  0
  188.6220  173.3540  142.4760 C   0  0  0  0  0  3  0  0  0  0  0  0
  189.8260  173.0150  143.1030 C   0  0  0  0  0  0  0  0  0  0  0  0
  188.3840  172.9590  141.1550 C   0  0  0  0  0  3  0  0  0  0  0  0
  190.2880  176.6980  143.9150 C   0  0  2  0  0  3  0  0  0  0  0  0
  187.6770  177.9040  141.7380 C   0  0  0  0  0  2  0  0  0  0  0  0
  187.0650  177.8840  144.7500 C   0  0  0  0  0  2  0  0  0  0  0  0
  183.9310  178.2900  141.9700 N   0  0  0  0  0  0  0  0  0  0  0  0
  182.7850  178.0460  141.1460 C   0  0  0  0  0  0  0  0  0  0  0  0
  185.2680  178.3050  141.3890 C   0  0  0  0  0  2  0  0  0  0  0  0
  182.9280  177.7360  139.9320 O   0  0  0  0  0  0  0  0  0  0  0  0
  186.2860  177.7400  142.3800 C   0  0  2  0  0  3  0  0  0  0  0  0
  181.5040  178.1520  141.6770 O   0  0  0  0  0  1  0  0  0  0  0  0
  184.8120  178.1560  144.2270 C   0  0  0  0  0  2  0  0  0  0  0  0
  186.1590  178.4010  143.7040 N   0  0  1  0  0  0  0  0  0  0  0  0
  183.7620  178.7920  143.3270 C   0  0  0  0  0  2  0  0  0  0  0  0
  187.8060  176.5870  144.3950 C   0  0  0  0  0  2  0  0  0  0  0  0
  188.7110  178.0570  142.6730 O   0  0  0  0  0  0  0  0  0  0  0  0
  188.8800  176.8180  143.3200 C   0  0  1  0  0  3  0  0  0  0  0  0
  191.2080  177.8510  143.5050 C   0  0  0  0  0  2  0  0  0  0  0  0
  192.3000  177.3860  142.7690 O   0  0  0  0  0  1  0  0  0  0  0  0
  1 18  1  0  0  0  0
  1  7  1  0  0  0  0
  3  9  1  6  0  0  0
  3  2  1  0  0  0  0
  5  4  1  6  0  0  0
  5  3  1  0  0  0  0
  6  2  1  0  0  0  0
  7 11  1  6  0  0  0
  7  5  1  0  0  0  0
  7  6  1  0  0  0  0
  8  9  2  0  0  0  0
  9 10  1  0  0  0  0
 12 16  1  0  0  0  0
 13 14  1  0  0  0  0
 13 17  2  0  0  0  0
 14 12  2  0  0  0  0
 15 16  2  0  0  0  0
 16 11  1  0  0  0  0
 17 15  1  0  0  0  0
 18 33  1  6  0  0  0
 19 25  1  0  0  0  0
 19 31  1  0  0  0  0
 21 29  1  0  0  0  0
 22 26  1  0  0  0  0
 22 21  1  0  0  0  0
 23 21  1  0  0  0  0
 24 22  2  0  0  0  0
 25 23  1  6  0  0  0
 25 28  1  0  0  0  0
 28 27  1  1  0  0  0
 28 20  1  0  0  0  0
 29 27  1  0  0  0  0
 30 20  1  0  0  0  0
 31 32  1  0  0  0  0
 32 18  1  1  0  0  0
 32 30  1  0  0  0  0
 34 33  1  0  0  0  0
M  END
>  <MODEL>
1

>  <REMARK>
 VINA RESULT:      -7.2      0.000      0.000
  Name = 
  7 active torsions:
  status: ('A' for Active; 'I' for Inactive)
    1  A    between atoms: C_1  and  C_20
    2  A    between atoms: C_1  and  C_34
    3  A    between atoms: O_5  and  C_18
    4  A    between atoms: O_5  and  C_34
    5  A    between atoms: C_8  and  C_18
    6  A    between atoms: C_13  and  C_23
    7  A    between atoms: C_18  and  C_33
                            x       y       z     vdW  Elec       q    Type
                         _______ _______ _______ _____ _____    ______ ____

>  <TORSDO>
F 7

$$$$
=
 OpenBabel11052420233D

 34 37  0  0  1  0  0  0  0  0999 V2000
  188.7580  176.2880  142.3860 O   0  0  0  0  0  0  0  0  0  0  0  0
  185.3000  177.1950  142.8970 C   0  0  0  0  0  2  0  0  0  0  0  0
  185.8810  178.2890  142.0180 C   0  0  1  0  0  3  0  0  0  0  0  0
  188.1700  178.5920  141.2000 O   0  0  0  0  0  1  0  0  0  0  0  0
  187.3790  178.3330  142.3240 C   0  0  2  0  0  3  0  0  0  0  0  0
  186.4390  176.2540  143.2540 C   0  0  0  0  0  2  0  0  0  0  0  0
  187.7510  177.0340  143.0610 C   0  0  1  0  0  0  0  0  0  0  0  0
  186.3040  177.1910  139.7960 O   0  0  0  0  0  0  0  0  0  0  0  0
  185.5420  178.0510  140.5770 C   0  0  0  0  0  0  0  0  0  0  0  0
  184.5510  178.6370  140.0710 O   0  0  0  0  0  1  0  0  0  0  0  0
  188.3260  177.3770  144.4470 C   0  0  0  0  0  2  0  0  0  0  0  0
  186.5880  178.8190  145.5620 C   0  0  0  0  0  3  0  0  0  0  0  0
  185.4020  178.0500  147.5280 C   0  0  0  0  0  3  0  0  0  0  0  0
  185.6370  179.0360  146.5650 C   0  0  0  0  0  3  0  0  0  0  0  0
  187.0680  176.6330  146.4870 C   0  0  0  0  0  3  0  0  0  0  0  0
  187.3080  177.6180  145.5230 C   0  0  0  0  0  0  0  0  0  0  0  0
  186.1160  176.8490  147.4890 C   0  0  0  0  0  3  0  0  0  0  0  0
  188.7630  174.9340  142.7820 C   0  0  2  0  0  3  0  0  0  0  0  0
  191.3050  173.5170  144.9130 C   0  0  0  0  0  2  0  0  0  0  0  0
  191.8150  176.3570  143.8550 C   0  0  0  0  0  2  0  0  0  0  0  0
  194.9800  174.1280  145.5050 N   0  0  0  0  0  0  0  0  0  0  0  0
  196.1720  173.3520  145.6750 C   0  0  0  0  0  0  0  0  0  0  0  0
  193.6690  173.5010  145.6160 C   0  0  0  0  0  2  0  0  0  0  0  0
  196.1030  172.1010  145.8160 O   0  0  0  0  0  1  0  0  0  0  0  0
  192.6830  174.1520  144.6460 C   0  0  2  0  0  3  0  0  0  0  0  0
  197.4170  173.9730  145.6900 O   0  0  0  0  0  0  0  0  0  0  0  0
  194.0430  176.1220  144.4890 C   0  0  0  0  0  2  0  0  0  0  0  0
  192.6970  175.6300  144.7910 N   0  0  1  0  0  0  0  0  0  0  0  0
  195.0510  175.5830  145.4950 C   0  0  0  0  0  2  0  0  0  0  0  0
  191.2250  175.5130  142.7160 C   0  0  0  0  0  2  0  0  0  0  0  0
  190.2290  174.3710  144.6280 O   0  0  0  0  0  0  0  0  0  0  0  0
  190.1700  174.5200  143.2290 C   0  0  1  0  0  3  0  0  0  0  0  0
  188.2050  174.0440  141.6680 C   0  0  0  0  0  2  0  0  0  0  0  0
  188.3920  174.6300  140.4150 O   0  0  0  0  0  1  0  0  0  0  0  0
  1 18  1  0  0  0  0
  1  7  1  0  0  0  0
  2  6  1  0  0  0  0
  3  9  1  6  0  0  0
  3  5  1  0  0  0  0
  3  2  1  0  0  0  0
  5  4  1  6  0  0  0
  5  7  1  0  0  0  0
  7  6  1  0  0  0  0
  7 11  1  1  0  0  0
  8  9  2  0  0  0  0
 10  9  1  0  0  0  0
 11 16  1  0  0  0  0
 12 14  1  0  0  0  0
 14 13  2  0  0  0  0
 15 17  2  0  0  0  0
 16 12  2  0  0  0  0
 16 15  1  0  0  0  0
 17 13  1  0  0  0  0
 18 33  1  6  0  0  0
 21 23  1  0  0  0  0
 21 22  1  0  0  0  0
 22 26  2  0  0  0  0
 22 24  1  0  0  0  0
 25 28  1  0  0  0  0
 25 19  1  1  0  0  0
 25 23  1  0  0  0  0
 27 28  1  0  0  0  0
 27 29  1  0  0  0  0
 28 20  1  6  0  0  0
 29 21  1  0  0  0  0
 30 32  1  0  0  0  0
 30 20  1  0  0  0  0
 31 19  1  0  0  0  0
 32 18  1  1  0  0  0
 32 31  1  0  0  0  0
 34 33  1  0  0  0  0
M  END
>  <MODEL>
2

>  <REMARK>
 VINA RESULT:      -7.1      2.907      8.759
  Name = 
  7 active torsions:
  status: ('A' for Active; 'I' for Inactive)
    1  A    between atoms: C_1  and  C_20
    2  A    between atoms: C_1  and  C_34
    3  A    between atoms: O_5  and  C_18
    4  A    between atoms: O_5  and  C_34
    5  A    between atoms: C_8  and  C_18
    6  A    between atoms: C_13  and  C_23
    7  A    between atoms: C_18  and  C_33
                            x       y       z     vdW  Elec       q    Type
                         _______ _______ _______ _____ _____    ______ ____

>  <TORSDO>
F 7

$$$$
=
 OpenBabel11052420233D

 34 37  0  0  1  0  0  0  0  0999 V2000
  188.7220  174.5860  144.0690 O   0  0  0  0  0  0  0  0  0  0  0  0
  190.1530  177.8490  144.6600 C   0  0  0  0  0  2  0  0  0  0  0  0
  189.7500  177.3280  146.0290 C   0  0  1  0  0  3  0  0  0  0  0  0
  188.6290  175.2380  146.6430 O   0  0  0  0  0  1  0  0  0  0  0  0
  188.6000  176.3480  145.7920 C   0  0  2  0  0  3  0  0  0  0  0  0
  189.6970  176.8210  143.6370 C   0  0  0  0  0  2  0  0  0  0  0  0
  188.5870  175.9860  144.2960 C   0  0  1  0  0  0  0  0  0  0  0  0
  191.9950  176.1940  146.0440 O   0  0  0  0  0  0  0  0  0  0  0  0
  190.9320  176.7470  146.7470 C   0  0  0  0  0  0  0  0  0  0  0  0
  190.9600  176.7660  148.0040 O   0  0  0  0  0  1  0  0  0  0  0  0
  187.2360  176.3920  143.6820 C   0  0  0  0  0  2  0  0  0  0  0  0
  185.5740  176.6960  145.5500 C   0  0  0  0  0  3  0  0  0  0  0  0
  184.7760  178.8980  146.1650 C   0  0  0  0  0  3  0  0  0  0  0  0
  184.7750  177.5130  146.3570 C   0  0  0  0  0  3  0  0  0  0  0  0
  186.3730  178.6480  144.3600 C   0  0  0  0  0  3  0  0  0  0  0  0
  186.3720  177.2620  144.5470 C   0  0  0  0  0  0  0  0  0  0  0  0
  185.5750  179.4660  145.1680 C   0  0  0  0  0  3  0  0  0  0  0  0
  190.0480  174.2340  143.7430 C   0  0  2  0  0  3  0  0  0  0  0  0
  191.3870  173.4430  140.4880 C   0  0  0  0  0  2  0  0  0  0  0  0
  188.5020  174.4990  140.5760 C   0  0  0  0  0  2  0  0  0  0  0  0
  189.9420  172.6030  137.1060 N   0  0  0  0  0  0  0  0  0  0  0  0
  190.1810  171.6630  136.0520 C   0  0  0  0  0  0  0  0  0  0  0  0
  190.9430  172.8200  138.1430 C   0  0  0  0  0  2  0  0  0  0  0  0
  191.2100  170.9350  136.0690 O   0  0  0  0  0  1  0  0  0  0  0  0
  190.2670  173.1090  139.4840 C   0  0  2  0  0  3  0  0  0  0  0  0
  189.2800  171.5460  134.9980 O   0  0  0  0  0  0  0  0  0  0  0  0
  188.2290  173.7470  138.3890 C   0  0  0  0  0  2  0  0  0  0  0  0
  189.2520  174.1840  139.3430 N   0  0  1  0  0  0  0  0  0  0  0  0
  188.8340  173.5450  137.0070 C   0  0  0  0  0  2  0  0  0  0  0  0
  188.6930  173.5080  141.7330 C   0  0  0  0  0  2  0  0  0  0  0  0
  190.9830  174.3170  141.5080 O   0  0  0  0  0  0  0  0  0  0  0  0
  190.0990  173.6080  142.3440 C   0  0  1  0  0  3  0  0  0  0  0  0
  190.6470  173.3280  144.8230 C   0  0  0  0  0  2  0  0  0  0  0  0
  189.7370  172.3440  145.2150 O   0  0  0  0  0  1  0  0  0  0  0  0
  1  7  1  0  0  0  0
  2  3  1  0  0  0  0
  3  9  1  6  0  0  0
  5  3  1  0  0  0  0
  5  4  1  1  0  0  0
  6  7  1  0  0  0  0
  6  2  1  0  0  0  0
  7 11  1  6  0  0  0
  7  5  1  0  0  0  0
  8  9  2  0  0  0  0
  9 10  1  0  0  0  0
 11 16  1  0  0  0  0
 12 14  1  0  0  0  0
 13 14  2  0  0  0  0
 15 16  1  0  0  0  0
 15 17  2  0  0  0  0
 16 12  2  0  0  0  0
 17 13  1  0  0  0  0
 18  1  1  0  0  0  0
 18 33  1  1  0  0  0
 19 31  1  0  0  0  0
 20 30  1  0  0  0  0
 21 23  1  0  0  0  0
 22 24  1  0  0  0  0
 22 21  1  0  0  0  0
 25 23  1  6  0  0  0
 25 19  1  0  0  0  0
 26 22  2  0  0  0  0
 28 27  1  6  0  0  0
 28 25  1  0  0  0  0
 28 20  1  0  0  0  0
 29 21  1  0  0  0  0
 29 27  1  0  0  0  0
 30 32  1  0  0  0  0
 31 32  1  0  0  0  0
 32 18  1  1  0  0  0
 33 34  1  0  0  0  0
M  END
>  <MODEL>
3

>  <REMARK>
 VINA RESULT:      -7.1      3.658      6.746
  Name = 
  7 active torsions:
  status: ('A' for Active; 'I' for Inactive)
    1  A    between atoms: C_1  and  C_20
    2  A    between atoms: C_1  and  C_34
    3  A    between atoms: O_5  and  C_18
    4  A    between atoms: O_5  and  C_34
    5  A    between atoms: C_8  and  C_18
    6  A    between atoms: C_13  and  C_23
    7  A    between atoms: C_18  and  C_33
                            x       y       z     vdW  Elec       q    Type
                         _______ _______ _______ _____ _____    ______ ____

>  <TORSDO>
F 7

$$$$
=
 OpenBabel11052420233D

 34 37  0  0  1  0  0  0  0  0999 V2000
  188.9060  174.6610  143.8890 O   0  0  0  0  0  0  0  0  0  0  0  0
  190.0970  177.9520  144.7840 C   0  0  0  0  0  2  0  0  0  0  0  0
  189.7570  177.2710  146.0980 C   0  0  1  0  0  3  0  0  0  0  0  0
  188.8080  175.0510  146.5150 O   0  0  0  0  0  1  0  0  0  0  0  0
  188.6800  176.2330  145.7770 C   0  0  2  0  0  3  0  0  0  0  0  0
  189.7020  176.9960  143.6690 C   0  0  0  0  0  2  0  0  0  0  0  0
  188.6700  176.0170  144.2540 C   0  0  1  0  0  0  0  0  0  0  0  0
  191.1270  176.7010  148.1290 O   0  0  0  0  0  1  0  0  0  0  0  0
  190.9910  176.7150  146.7460 C   0  0  0  0  0  0  0  0  0  0  0  0
  191.9110  176.2530  146.0250 O   0  0  0  0  0  0  0  0  0  0  0  0
  187.2820  176.3770  143.6940 C   0  0  0  0  0  2  0  0  0  0  0  0
  186.4100  178.6220  144.4310 C   0  0  0  0  0  3  0  0  0  0  0  0
  184.8260  178.8090  146.2530 C   0  0  0  0  0  3  0  0  0  0  0  0
  185.6100  179.4110  145.2640 C   0  0  0  0  0  3  0  0  0  0  0  0
  185.6420  176.6310  145.5770 C   0  0  0  0  0  3  0  0  0  0  0  0
  186.4300  177.2300  144.5880 C   0  0  0  0  0  0  0  0  0  0  0  0
  184.8410  177.4200  146.4090 C   0  0  0  0  0  3  0  0  0  0  0  0
  190.2220  174.4670  143.4180 C   0  0  2  0  0  3  0  0  0  0  0  0
  188.8530  174.0860  140.1020 C   0  0  0  0  0  2  0  0  0  0  0  0
  190.4350  171.7030  141.2260 C   0  0  0  0  0  2  0  0  0  0  0  0
  189.5960  171.9170  137.1070 N   0  0  0  0  0  0  0  0  0  0  0  0
  189.7100  172.0690  135.6880 C   0  0  0  0  0  0  0  0  0  0  0  0
  188.9680  172.9570  137.9130 C   0  0  0  0  0  2  0  0  0  0  0  0
  189.3680  173.1480  135.1330 O   0  0  0  0  0  1  0  0  0  0  0  0
  189.6490  173.0560  139.2790 C   0  0  2  0  0  3  0  0  0  0  0  0
  190.1980  171.0250  134.9070 O   0  0  0  0  0  0  0  0  0  0  0  0
  190.5380  170.8380  139.0660 C   0  0  0  0  0  2  0  0  0  0  0  0
  189.7410  171.7210  139.9220 N   0  0  1  0  0  0  0  0  0  0  0  0
  189.8480  170.6220  137.7260 C   0  0  0  0  0  2  0  0  0  0  0  0
  191.1770  172.9960  141.5940 C   0  0  0  0  0  2  0  0  0  0  0  0
  188.8950  173.8510  141.4850 O   0  0  0  0  0  0  0  0  0  0  0  0
  190.2030  174.1390  141.9200 C   0  0  1  0  0  3  0  0  0  0  0  0
  190.9410  173.4030  144.2520 C   0  0  0  0  0  2  0  0  0  0  0  0
  190.0300  172.5260  144.8430 O   0  0  0  0  0  1  0  0  0  0  0  0
  1  7  1  0  0  0  0
  2  3  1  0  0  0  0
  3  9  1  6  0  0  0
  5  3  1  0  0  0  0
  5  4  1  1  0  0  0
  6  7  1  0  0  0  0
  6  2  1  0  0  0  0
  7 11  1  6  0  0  0
  7  5  1  0  0  0  0
  9  8  1  0  0  0  0
 10  9  2  0  0  0  0
 11 16  1  0  0  0  0
 12 16  2  0  0  0  0
 12 14  1  0  0  0  0
 13 17  1  0  0  0  0
 14 13  2  0  0  0  0
 15 17  2  0  0  0  0
 16 15  1  0  0  0  0
 18  1  1  0  0  0  0
 18 33  1  1  0  0  0
 19 31  1  0  0  0  0
 20 30  1  0  0  0  0
 21 29  1  0  0  0  0
 21 23  1  0  0  0  0
 22 21  1  0  0  0  0
 24 22  1  0  0  0  0
 25 23  1  6  0  0  0
 25 28  1  0  0  0  0
 25 19  1  0  0  0  0
 26 22  2  0  0  0  0
 28 27  1  6  0  0  0
 28 20  1  0  0  0  0
 29 27  1  0  0  0  0
 30 32  1  0  0  0  0
 31 32  1  0  0  0  0
 32 18  1  1  0  0  0
 33 34  1  0  0  0  0
M  END
>  <MODEL>
4

>  <REMARK>
 VINA RESULT:      -7.1      3.789      6.911
  Name = 
  7 active torsions:
  status: ('A' for Active; 'I' for Inactive)
    1  A    between atoms: C_1  and  C_20
    2  A    between atoms: C_1  and  C_34
    3  A    between atoms: O_5  and  C_18
    4  A    between atoms: O_5  and  C_34
    5  A    between atoms: C_8  and  C_18
    6  A    between atoms: C_13  and  C_23
    7  A    between atoms: C_18  and  C_33
                            x       y       z     vdW  Elec       q    Type
                         _______ _______ _______ _____ _____    ______ ____

>  <TORSDO>
F 7

$$$$
=
 OpenBabel11052420233D

 34 37  0  0  1  0  0  0  0  0999 V2000
  188.0080  178.3840  144.3560 O   0  0  0  0  0  0  0  0  0  0  0  0
  184.8860  176.6550  144.9130 C   0  0  0  0  0  2  0  0  0  0  0  0
  184.5090  178.1050  144.6640 C   0  0  1  0  0  3  0  0  0  0  0  0
  185.9410  180.0530  144.2690 O   0  0  0  0  0  1  0  0  0  0  0  0
  185.7180  178.9400  145.0880 C   0  0  2  0  0  3  0  0  0  0  0  0
  186.4050  176.5810  144.9130 C   0  0  0  0  0  2  0  0  0  0  0  0
  186.9290  177.9980  145.2010 C   0  0  1  0  0  0  0  0  0  0  0  0
  184.7560  177.7060  142.1940 O   0  0  0  0  0  0  0  0  0  0  0  0
  184.0730  178.3080  143.2440 C   0  0  0  0  0  0  0  0  0  0  0  0
  183.0720  179.0290  143.0030 O   0  0  0  0  0  1  0  0  0  0  0  0
  187.4760  178.0350  146.6390 C   0  0  0  0  0  2  0  0  0  0  0  0
  189.8930  177.5410  147.1480 C   0  0  0  0  0  3  0  0  0  0  0  0
  190.6590  175.2680  147.4780 C   0  0  0  0  0  3  0  0  0  0  0  0
  190.9260  176.6390  147.4210 C   0  0  0  0  0  3  0  0  0  0  0  0
  188.3260  175.7000  146.9890 C   0  0  0  0  0  3  0  0  0  0  0  0
  188.5910  177.0730  146.9270 C   0  0  0  0  0  0  0  0  0  0  0  0
  189.3610  174.7980  147.2630 C   0  0  0  0  0  3  0  0  0  0  0  0
  188.3180  177.3830  143.4120 C   0  0  2  0  0  3  0  0  0  0  0  0
  191.9250  177.3510  143.3650 C   0  0  0  0  0  2  0  0  0  0  0  0
  190.5070  174.8420  142.2970 C   0  0  0  0  0  2  0  0  0  0  0  0
  194.6010  174.6930  143.2640 N   0  0  0  0  0  0  0  0  0  0  0  0
  195.8520  174.4210  143.9050 C   0  0  0  0  0  0  0  0  0  0  0  0
  194.0010  176.0190  143.3480 C   0  0  0  0  0  2  0  0  0  0  0  0
  196.3950  175.2910  144.6380 O   0  0  0  0  0  1  0  0  0  0  0  0
  192.4770  175.9130  143.3990 C   0  0  2  0  0  3  0  0  0  0  0  0
  196.4810  173.1930  143.7230 O   0  0  0  0  0  0  0  0  0  0  0  0
  192.5370  173.7100  142.4500 C   0  0  0  0  0  2  0  0  0  0  0  0
  191.9690  175.0530  142.3000 N   0  0  1  0  0  0  0  0  0  0  0  0
  194.0510  173.7470  142.3020 C   0  0  0  0  0  2  0  0  0  0  0  0
  189.7710  175.3170  143.5580 C   0  0  0  0  0  2  0  0  0  0  0  0
  190.6570  177.4510  142.7750 O   0  0  0  0  0  0  0  0  0  0  0  0
  189.7350  176.8500  143.6550 C   0  0  1  0  0  3  0  0  0  0  0  0
  188.1140  177.9040  141.9860 C   0  0  0  0  0  2  0  0  0  0  0  0
  187.7760  176.8670  141.1150 O   0  0  0  0  0  1  0  0  0  0  0  0
  1  7  1  0  0  0  0
  2  6  1  0  0  0  0
  3  9  1  6  0  0  0
  3  2  1  0  0  0  0
  3  5  1  0  0  0  0
  5  4  1  6  0  0  0
  5  7  1  0  0  0  0
  6  7  1  0  0  0  0
  7 11  1  1  0  0  0
  8  9  2  0  0  0  0
 10  9  1  0  0  0  0
 11 16  1  0  0  0  0
 12 14  1  0  0  0  0
 14 13  2  0  0  0  0
 15 17  2  0  0  0  0
 16 15  1  0  0  0  0
 16 12  2  0  0  0  0
 17 13  1  0  0  0  0
 18 33  1  6  0  0  0
 18  1  1  0  0  0  0
 19 25  1  0  0  0  0
 20 30  1  0  0  0  0
 21 23  1  0  0  0  0
 21 22  1  0  0  0  0
 22 24  1  0  0  0  0
 25 23  1  6  0  0  0
 26 22  2  0  0  0  0
 28 20  1  1  0  0  0
 28 27  1  0  0  0  0
 28 25  1  0  0  0  0
 29 27  1  0  0  0  0
 29 21  1  0  0  0  0
 30 32  1  0  0  0  0
 31 19  1  0  0  0  0
 31 32  1  0  0  0  0
 32 18  1  6  0  0  0
 34 33  1  0  0  0  0
M  END
>  <MODEL>
5

>  <REMARK>
 VINA RESULT:      -7.0      2.836      8.272
  Name = 
  7 active torsions:
  status: ('A' for Active; 'I' for Inactive)
    1  A    between atoms: C_1  and  C_20
    2  A    between atoms: C_1  and  C_34
    3  A    between atoms: O_5  and  C_18
    4  A    between atoms: O_5  and  C_34
    5  A    between atoms: C_8  and  C_18
    6  A    between atoms: C_13  and  C_23
    7  A    between atoms: C_18  and  C_33
                            x       y       z     vdW  Elec       q    Type
                         _______ _______ _______ _____ _____    ______ ____

>  <TORSDO>
F 7

$$$$
=
 OpenBabel11052420233D

 34 37  0  0  1  0  0  0  0  0999 V2000
  191.3080  176.5840  145.6690 O   0  0  0  0  0  0  0  0  0  0  0  0
  194.2200  174.4490  145.7460 C   0  0  0  0  0  2  0  0  0  0  0  0
  194.0810  174.8940  144.3010 C   0  0  1  0  0  3  0  0  0  0  0  0
  192.3670  176.2930  143.2490 O   0  0  0  0  0  1  0  0  0  0  0  0
  192.5970  175.1960  144.0870 C   0  0  2  0  0  3  0  0  0  0  0  0
  193.0300  175.0140  146.5060 C   0  0  0  0  0  2  0  0  0  0  0  0
  191.9350  175.3210  145.4710 C   0  0  1  0  0  0  0  0  0  0  0  0
  195.1390  177.0970  144.8950 O   0  0  0  0  0  1  0  0  0  0  0  0
  195.0040  176.0380  144.0040 C   0  0  0  0  0  0  0  0  0  0  0  0
  195.6660  176.0360  142.9350 O   0  0  0  0  0  0  0  0  0  0  0  0
  190.8240  174.2650  145.6040 C   0  0  0  0  0  2  0  0  0  0  0  0
  189.6740  173.6830  143.4400 C   0  0  0  0  0  3  0  0  0  0  0  0
  190.3060  171.7150  142.1800 C   0  0  0  0  0  3  0  0  0  0  0  0
  189.5080  172.8530  142.3270 C   0  0  0  0  0  3  0  0  0  0  0  0
  191.4360  172.2370  144.2590 C   0  0  0  0  0  3  0  0  0  0  0  0
  190.6360  173.3750  144.4100 C   0  0  0  0  0  0  0  0  0  0  0  0
  191.2700  171.4070  143.1440 C   0  0  0  0  0  3  0  0  0  0  0  0
  190.0960  176.4630  146.3790 C   0  0  2  0  0  3  0  0  0  0  0  0
  188.2260  177.8720  143.6340 C   0  0  0  0  0  2  0  0  0  0  0  0
  186.8210  177.7920  146.3660 C   0  0  0  0  0  2  0  0  0  0  0  0
  184.5780  178.4480  142.8660 N   0  0  0  0  0  0  0  0  0  0  0  0
  183.6890  178.2910  141.7550 C   0  0  0  0  0  0  0  0  0  0  0  0
  186.0220  178.4100  142.6680 C   0  0  0  0  0  2  0  0  0  0  0  0
  184.1410  178.0110  140.6110 O   0  0  0  0  0  0  0  0  0  0  0  0
  186.7080  177.7620  143.8710 C   0  0  2  0  0  3  0  0  0  0  0  0
  182.3170  178.4480  141.9260 O   0  0  0  0  0  1  0  0  0  0  0  0
  184.8080  178.1990  145.2690 C   0  0  0  0  0  2  0  0  0  0  0  0
  186.2550  178.3880  145.1390 N   0  0  1  0  0  0  0  0  0  0  0  0
  184.0690  178.9170  144.1490 C   0  0  0  0  0  2  0  0  0  0  0  0
  187.5740  176.4690  146.1680 C   0  0  0  0  0  2  0  0  0  0  0  0
  188.9740  177.9410  144.8190 O   0  0  0  0  0  0  0  0  0  0  0  0
  188.9080  176.6760  145.4330 C   0  0  1  0  0  3  0  0  0  0  0  0
  190.0770  177.4100  147.5810 C   0  0  0  0  0  2  0  0  0  0  0  0
  191.1910  177.2080  148.3980 O   0  0  0  0  0  1  0  0  0  0  0  0
  1 18  1  0  0  0  0
  2  6  1  0  0  0  0
  3  9  1  1  0  0  0
  3  2  1  0  0  0  0
  5  4  1  1  0  0  0
  5  3  1  0  0  0  0
  5  7  1  0  0  0  0
  7 11  1  1  0  0  0
  7  1  1  0  0  0  0
  7  6  1  0  0  0  0
  9  8  1  0  0  0  0
 10  9  2  0  0  0  0
 12 16  1  0  0  0  0
 13 14  1  0  0  0  0
 13 17  2  0  0  0  0
 14 12  2  0  0  0  0
 15 16  2  0  0  0  0
 16 11  1  0  0  0  0
 17 15  1  0  0  0  0
 18 33  1  1  0  0  0
 19 25  1  0  0  0  0
 19 31  1  0  0  0  0
 21 29  1  0  0  0  0
 22 26  1  0  0  0  0
 22 21  1  0  0  0  0
 23 21  1  0  0  0  0
 24 22  2  0  0  0  0
 25 23  1  6  0  0  0
 25 28  1  0  0  0  0
 28 27  1  1  0  0  0
 28 20  1  0  0  0  0
 29 27  1  0  0  0  0
 30 20  1  0  0  0  0
 31 32  1  0  0  0  0
 32 30  1  0  0  0  0
 32 18  1  1  0  0  0
 33 34  1  0  0  0  0
M  END
>  <MODEL>
6

>  <REMARK>
 VINA RESULT:      -6.9      1.614      2.341
  Name = 
  7 active torsions:
  status: ('A' for Active; 'I' for Inactive)
    1  A    between atoms: C_1  and  C_20
    2  A    between atoms: C_1  and  C_34
    3  A    between atoms: O_5  and  C_18
    4  A    between atoms: O_5  and  C_34
    5  A    between atoms: C_8  and  C_18
    6  A    between atoms: C_13  and  C_23
    7  A    between atoms: C_18  and  C_33
                            x       y       z     vdW  Elec       q    Type
                         _______ _______ _______ _____ _____    ______ ____

>  <TORSDO>
F 7

$$$$
=
 OpenBabel11052420233D

 34 37  0  0  1  0  0  0  0  0999 V2000
  189.4640  176.1240  143.5090 O   0  0  0  0  0  0  0  0  0  0  0  0
  188.9700  177.4580  146.8300 C   0  0  0  0  0  2  0  0  0  0  0  0
  189.4120  176.0190  147.0310 C   0  0  1  0  0  3  0  0  0  0  0  0
  189.9080  174.2840  145.3740 O   0  0  0  0  0  1  0  0  0  0  0  0
  188.9890  175.2610  145.7720 C   0  0  2  0  0  3  0  0  0  0  0  0
  188.8380  177.6810  145.3310 C   0  0  0  0  0  2  0  0  0  0  0  0
  188.6710  176.2980  144.6800 C   0  0  1  0  0  0  0  0  0  0  0  0
  191.3510  175.1290  148.3600 O   0  0  0  0  0  1  0  0  0  0  0  0
  190.8760  175.9490  147.3440 C   0  0  0  0  0  0  0  0  0  0  0  0
  191.6850  176.6390  146.6720 O   0  0  0  0  0  0  0  0  0  0  0  0
  187.2070  176.1400  144.2330 C   0  0  0  0  0  2  0  0  0  0  0  0
  186.0350  178.3690  144.2730 C   0  0  0  0  0  3  0  0  0  0  0  0
  184.4210  178.9000  145.9990 C   0  0  0  0  0  3  0  0  0  0  0  0
  185.1280  179.2650  144.8490 C   0  0  0  0  0  3  0  0  0  0  0  0
  185.5280  176.7450  145.9970 C   0  0  0  0  0  3  0  0  0  0  0  0
  186.2400  177.1080  144.8480 C   0  0  0  0  0  0  0  0  0  0  0  0
  184.6200  177.6410  146.5720 C   0  0  0  0  0  3  0  0  0  0  0  0
  188.6850  176.1780  142.3350 C   0  0  2  0  0  3  0  0  0  0  0  0
  188.4280  173.6450  139.7800 C   0  0  0  0  0  2  0  0  0  0  0  0
  190.1010  172.9410  142.2600 C   0  0  0  0  0  2  0  0  0  0  0  0
  190.4380  170.6170  138.7670 N   0  0  0  0  0  0  0  0  0  0  0  0
  190.9150  170.0150  137.5590 C   0  0  0  0  0  0  0  0  0  0  0  0
  189.4000  171.6390  138.7230 C   0  0  0  0  0  2  0  0  0  0  0  0
  190.5200  170.4360  136.4380 O   0  0  0  0  0  0  0  0  0  0  0  0
  189.6270  172.6780  139.8220 C   0  0  2  0  0  3  0  0  0  0  0  0
  191.8160  168.9560  137.6110 O   0  0  0  0  0  1  0  0  0  0  0  0
  190.9950  171.1520  141.0680 C   0  0  0  0  0  2  0  0  0  0  0  0
  189.8180  172.0210  141.1390 N   0  0  1  0  0  0  0  0  0  0  0  0
  190.7770  170.0330  140.0590 C   0  0  0  0  0  2  0  0  0  0  0  0
  190.4110  174.3900  141.8600 C   0  0  0  0  0  2  0  0  0  0  0  0
  188.1260  174.2170  141.0250 O   0  0  0  0  0  0  0  0  0  0  0  0
  189.1630  175.1180  141.3360 C   0  0  1  0  0  3  0  0  0  0  0  0
  188.6900  177.5930  141.7490 C   0  0  0  0  0  2  0  0  0  0  0  0
  187.5270  177.8380  141.0160 O   0  0  0  0  0  1  0  0  0  0  0  0
  1  7  1  0  0  0  0
  2  3  1  0  0  0  0
  3  9  1  6  0  0  0
  5  4  1  6  0  0  0
  5  3  1  0  0  0  0
  6  2  1  0  0  0  0
  7 11  1  6  0  0  0
  7  6  1  0  0  0  0
  7  5  1  0  0  0  0
  9  8  1  0  0  0  0
 10  9  2  0  0  0  0
 11 16  1  0  0  0  0
 12 16  2  0  0  0  0
 12 14  1  0  0  0  0
 13 17  1  0  0  0  0
 14 13  2  0  0  0  0
 15 17  2  0  0  0  0
 16 15  1  0  0  0  0
 18 33  1  6  0  0  0
 18  1  1  0  0  0  0
 19 25  1  0  0  0  0
 19 31  1  0  0  0  0
 21 29  1  0  0  0  0
 22 26  1  0  0  0  0
 22 21  1  0  0  0  0
 23 21  1  0  0  0  0
 24 22  2  0  0  0  0
 25 23  1  6  0  0  0
 25 28  1  0  0  0  0
 28 27  1  6  0  0  0
 28 20  1  0  0  0  0
 29 27  1  0  0  0  0
 30 20  1  0  0  0  0
 31 32  1  0  0  0  0
 32 30  1  0  0  0  0
 32 18  1  1  0  0  0
 34 33  1  0  0  0  0
M  END
>  <MODEL>
7

>  <REMARK>
 VINA RESULT:      -6.8      3.583      7.003
  Name = 
  7 active torsions:
  status: ('A' for Active; 'I' for Inactive)
    1  A    between atoms: C_1  and  C_20
    2  A    between atoms: C_1  and  C_34
    3  A    between atoms: O_5  and  C_18
    4  A    between atoms: O_5  and  C_34
    5  A    between atoms: C_8  and  C_18
    6  A    between atoms: C_13  and  C_23
    7  A    between atoms: C_18  and  C_33
                            x       y       z     vdW  Elec       q    Type
                         _______ _______ _______ _____ _____    ______ ____

>  <TORSDO>
F 7

$$$$
=
 OpenBabel11052420233D

 34 37  0  0  1  0  0  0  0  0999 V2000
  192.8100  176.2160  144.4450 O   0  0  0  0  0  0  0  0  0  0  0  0
  194.4190  172.9850  144.3270 C   0  0  0  0  0  2  0  0  0  0  0  0
  195.4430  173.9690  143.7880 C   0  0  1  0  0  3  0  0  0  0  0  0
  195.2510  176.3810  143.4080 O   0  0  0  0  0  1  0  0  0  0  0  0
  194.6470  175.1360  143.2020 C   0  0  2  0  0  3  0  0  0  0  0  0
  193.1420  173.7660  144.5900 C   0  0  0  0  0  2  0  0  0  0  0  0
  193.2080  175.0450  143.7380 C   0  0  1  0  0  0  0  0  0  0  0  0
  196.0230  174.5200  146.1720 O   0  0  0  0  0  1  0  0  0  0  0  0
  196.4270  174.3510  144.8520 C   0  0  0  0  0  0  0  0  0  0  0  0
  197.6350  174.5180  144.5450 O   0  0  0  0  0  0  0  0  0  0  0  0
  192.2290  174.9010  142.5600 C   0  0  0  0  0  2  0  0  0  0  0  0
  190.3520  173.3810  143.2740 C   0  0  0  0  0  3  0  0  0  0  0  0
  190.1240  171.1570  142.3440 C   0  0  0  0  0  3  0  0  0  0  0  0
  189.6690  172.1620  143.2020 C   0  0  0  0  0  3  0  0  0  0  0  0
  191.9450  172.5870  141.6320 C   0  0  0  0  0  3  0  0  0  0  0  0
  191.4940  173.5940  142.4920 C   0  0  0  0  0  0  0  0  0  0  0  0
  191.2610  171.3690  141.5590 C   0  0  0  0  0  3  0  0  0  0  0  0
  192.3520  175.9140  145.7440 C   0  0  2  0  0  3  0  0  0  0  0  0
  188.8950  175.9380  146.7750 C   0  0  0  0  0  2  0  0  0  0  0  0
  189.4820  176.8110  143.8870 C   0  0  0  0  0  2  0  0  0  0  0  0
  185.7470  177.6710  145.6260 N   0  0  0  0  0  0  0  0  0  0  0  0
  184.6290  178.3430  146.2160 C   0  0  0  0  0  0  0  0  0  0  0  0
  186.6230  176.8390  146.4410 C   0  0  0  0  0  2  0  0  0  0  0  0
  184.4510  178.3090  147.4640 O   0  0  0  0  0  1  0  0  0  0  0  0
  188.0650  176.9330  145.9400 C   0  0  2  0  0  3  0  0  0  0  0  0
  183.7250  179.0360  145.4170 O   0  0  0  0  0  0  0  0  0  0  0  0
  187.3330  177.7040  143.7900 C   0  0  0  0  0  2  0  0  0  0  0  0
  188.1340  176.6880  144.4780 N   0  0  1  0  0  0  0  0  0  0  0  0
  185.8660  177.5850  144.1760 C   0  0  0  0  0  2  0  0  0  0  0  0
  190.5490  177.4220  144.8060 C   0  0  0  0  0  2  0  0  0  0  0  0
  190.0040  175.4210  146.0890 O   0  0  0  0  0  0  0  0  0  0  0  0
  190.9360  176.4660  145.9460 C   0  0  1  0  0  3  0  0  0  0  0  0
  193.3430  176.4180  146.7970 C   0  0  0  0  0  2  0  0  0  0  0  0
  194.2130  177.3670  146.2550 O   0  0  0  0  0  1  0  0  0  0  0  0
  1 18  1  0  0  0  0
  2  6  1  0  0  0  0
  3  2  1  0  0  0  0
  3  9  1  1  0  0  0
  5  4  1  1  0  0  0
  5  7  1  0  0  0  0
  5  3  1  0  0  0  0
  7 11  1  6  0  0  0
  7  1  1  0  0  0  0
  7  6  1  0  0  0  0
  9  8  1  0  0  0  0
 10  9  2  0  0  0  0
 13 14  2  0  0  0  0
 14 12  1  0  0  0  0
 15 16  1  0  0  0  0
 16 11  1  0  0  0  0
 16 12  2  0  0  0  0
 17 15  2  0  0  0  0
 17 13  1  0  0  0  0
 18 33  1  1  0  0  0
 20 28  1  0  0  0  0
 20 30  1  0  0  0  0
 21 22  1  0  0  0  0
 21 23  1  0  0  0  0
 22 24  1  0  0  0  0
 25 23  1  1  0  0  0
 25 19  1  0  0  0  0
 26 22  2  0  0  0  0
 27 29  1  0  0  0  0
 28 27  1  6  0  0  0
 28 25  1  0  0  0  0
 29 21  1  0  0  0  0
 30 32  1  0  0  0  0
 31 19  1  0  0  0  0
 32 18  1  6  0  0  0
 32 31  1  0  0  0  0
 34 33  1  0  0  0  0
M  END
>  <MODEL>
8

>  <REMARK>
 VINA RESULT:      -6.7      2.372      3.672
  Name = 
  7 active torsions:
  status: ('A' for Active; 'I' for Inactive)
    1  A    between atoms: C_1  and  C_20
    2  A    between atoms: C_1  and  C_34
    3  A    between atoms: O_5  and  C_18
    4  A    between atoms: O_5  and  C_34
    5  A    between atoms: C_8  and  C_18
    6  A    between atoms: C_13  and  C_23
    7  A    between atoms: C_18  and  C_33
                            x       y       z     vdW  Elec       q    Type
                         _______ _______ _______ _____ _____    ______ ____

>  <TORSDO>
F 7

$$$$
=
 OpenBabel11052420233D

 34 37  0  0  1  0  0  0  0  0999 V2000
  192.7340  176.2460  145.3430 O   0  0  0  0  0  0  0  0  0  0  0  0
  196.0670  174.8540  145.2790 C   0  0  0  0  0  2  0  0  0  0  0  0
  195.6400  174.9530  143.8250 C   0  0  1  0  0  3  0  0  0  0  0  0
  193.5150  175.7010  142.8620 O   0  0  0  0  0  1  0  0  0  0  0  0
  194.1120  174.8760  143.8210 C   0  0  2  0  0  3  0  0  0  0  0  0
  194.8810  175.2910  146.1250 C   0  0  0  0  0  2  0  0  0  0  0  0
  193.6210  175.1350  145.2570 C   0  0  1  0  0  0  0  0  0  0  0  0
  196.5030  176.2120  141.8270 O   0  0  0  0  0  0  0  0  0  0  0  0
  196.2070  176.1850  143.1840 C   0  0  0  0  0  0  0  0  0  0  0  0
  196.4150  177.2070  143.8870 O   0  0  0  0  0  1  0  0  0  0  0  0
  192.8300  173.9130  145.7560 C   0  0  0  0  0  2  0  0  0  0  0  0
  194.1550  171.8030  145.3900 C   0  0  0  0  0  3  0  0  0  0  0  0
  193.5560  170.2410  143.6390 C   0  0  0  0  0  3  0  0  0  0  0  0
  194.3880  170.6080  144.7000 C   0  0  0  0  0  3  0  0  0  0  0  0
  192.2570  172.2610  143.9570 C   0  0  0  0  0  3  0  0  0  0  0  0
  193.0900  172.6330  145.0170 C   0  0  0  0  0  0  0  0  0  0  0  0
  192.4900  171.0660  143.2680 C   0  0  0  0  0  3  0  0  0  0  0  0
  191.5370  175.9100  146.0090 C   0  0  2  0  0  3  0  0  0  0  0  0
  189.4490  177.8280  143.7780 C   0  0  0  0  0  2  0  0  0  0  0  0
  188.0780  176.5980  146.2390 C   0  0  0  0  0  2  0  0  0  0  0  0
  185.7570  178.0110  143.0250 N   0  0  0  0  0  0  0  0  0  0  0  0
  184.9110  178.0920  141.8720 C   0  0  0  0  0  0  0  0  0  0  0  0
  187.1850  178.2840  142.9140 C   0  0  0  0  0  2  0  0  0  0  0  0
  185.4070  178.2940  140.7310 O   0  0  0  0  0  0  0  0  0  0  0  0
  187.9740  177.3930  143.8730 C   0  0  2  0  0  3  0  0  0  0  0  0
  183.5330  177.9510  142.0020 O   0  0  0  0  0  1  0  0  0  0  0  0
  186.0250  177.0090  145.2180 C   0  0  0  0  0  2  0  0  0  0  0  0
  187.4160  177.4700  145.2460 N   0  0  1  0  0  0  0  0  0  0  0  0
  185.1720  177.9290  144.3570 C   0  0  0  0  0  2  0  0  0  0  0  0
  189.0550  175.5650  145.6590 C   0  0  0  0  0  2  0  0  0  0  0  0
  190.1720  177.6180  144.9620 O   0  0  0  0  0  0  0  0  0  0  0  0
  190.3310  176.2270  145.1170 C   0  0  1  0  0  3  0  0  0  0  0  0
  191.4660  176.6000  147.3730 C   0  0  0  0  0  2  0  0  0  0  0  0
  191.1910  175.6810  148.3880 O   0  0  0  0  0  1  0  0  0  0  0  0
  1 18  1  0  0  0  0
  2  6  1  0  0  0  0
  3  9  1  1  0  0  0
  3  2  1  0  0  0  0
  5  4  1  6  0  0  0
  5  3  1  0  0  0  0
  5  7  1  0  0  0  0
  7  1  1  0  0  0  0
  7 11  1  1  0  0  0
  7  6  1  0  0  0  0
  8  9  2  0  0  0  0
  9 10  1  0  0  0  0
 13 14  1  0  0  0  0
 14 12  2  0  0  0  0
 15 16  2  0  0  0  0
 16 12  1  0  0  0  0
 16 11  1  0  0  0  0
 17 13  2  0  0  0  0
 17 15  1  0  0  0  0
 18 33  1  1  0  0  0
 19 25  1  0  0  0  0
 19 31  1  0  0  0  0
 21 29  1  0  0  0  0
 22 26  1  0  0  0  0
 22 21  1  0  0  0  0
 23 21  1  0  0  0  0
 24 22  2  0  0  0  0
 25 23  1  6  0  0  0
 25 28  1  0  0  0  0
 28 27  1  6  0  0  0
 28 20  1  0  0  0  0
 29 27  1  0  0  0  0
 30 20  1  0  0  0  0
 31 32  1  0  0  0  0
 32 30  1  0  0  0  0
 32 18  1  1  0  0  0
 33 34  1  0  0  0  0
M  END
>  <MODEL>
9

>  <REMARK>
 VINA RESULT:      -6.7      2.244      3.432
  Name = 
  7 active torsions:
  status: ('A' for Active; 'I' for Inactive)
    1  A    between atoms: C_1  and  C_20
    2  A    between atoms: C_1  and  C_34
    3  A    between atoms: O_5  and  C_18
    4  A    between atoms: O_5  and  C_34
    5  A    between atoms: C_8  and  C_18
    6  A    between atoms: C_13  and  C_23
    7  A    between atoms: C_18  and  C_33
                            x       y       z     vdW  Elec       q    Type
                         _______ _______ _______ _____ _____    ______ ____

>  <TORSDO>
F 7

$$$$
