=
 OpenBabel11052419323D

 55 58  0  0  1  0  0  0  0  0999 V2000
  189.8600  176.0150  146.5620 C   0  0  1  0  0  3  0  0  0  0  0  0
  189.3540  174.5900  146.3860 C   0  0  0  0  0  2  0  0  0  0  0  0
  190.3020  173.7950  145.5030 C   0  0  0  0  0  2  0  0  0  0  0  0
  189.6850  172.4670  145.0790 C   0  0  0  0  0  2  0  0  0  0  0  0
  190.2650  171.9250  143.7750 C   0  0  0  0  0  2  0  0  0  0  0  0
  189.2340  171.9550  142.6570 C   0  0  0  0  0  2  0  0  0  0  0  0
  189.5870  173.0030  141.6120 C   0  0  1  0  0  3  0  0  0  0  0  0
  189.6250  172.4440  140.2610 N   0  0  0  0  0  0  0  0  0  0  0  0
  190.1470  171.2780  138.4720 C   0  0  0  0  0  0  0  0  0  0  0  0
  188.7160  172.7240  139.3070 C   0  0  0  0  0  3  0  0  0  0  0  0
  189.0140  172.0090  138.1600 C   0  0  0  0  0  3  0  0  0  0  0  0
  190.5100  171.5540  139.7760 C   0  0  0  0  0  3  0  0  0  0  0  0
  190.5690  170.3630  136.3330 O   0  0  0  0  0  0  0  0  0  0  0  0
  191.8120  169.4910  138.0430 O   0  0  0  0  0  1  0  0  0  0  0  0
  190.8450  170.3620  137.5610 C   0  0  0  0  0  0  0  0  0  0  0  0
  188.6040  174.1680  141.7020 C   0  0  0  0  0  2  0  0  0  0  0  0
  189.2460  177.8370  142.5630 C   0  0  0  0  0  3  0  0  0  0  0  0
  190.5900  177.7890  142.9370 C   0  0  0  0  0  3  0  0  0  0  0  0
  189.2770  175.4460  142.1160 C   0  0  0  0  0  0  0  0  0  0  0  0
  190.6200  175.4080  142.5170 C   0  0  0  0  0  3  0  0  0  0  0  0
  191.2750  176.5750  142.9200 C   0  0  0  0  0  3  0  0  0  0  0  0
  188.5740  176.6760  142.1610 C   0  0  0  0  0  0  0  0  0  0  0  0
  186.9130  177.6800  140.5930 C   0  0  0  0  0  1  0  0  0  0  0  0
  187.1170  176.8110  141.8200 C   0  0  2  0  0  3  0  0  0  0  0  0
  186.3030  177.3100  143.0030 C   0  0  0  0  0  2  0  0  0  0  0  0
  185.0570  177.7650  142.5700 O   0  0  0  0  0  0  0  0  0  0  0  0
  183.3070  178.9500  143.4120 O   0  0  0  0  0  1  0  0  0  0  0  0
  184.4140  178.1690  143.7380 C   0  0  0  0  0  2  0  0  0  0  0  0
  188.8120  176.8870  146.8830 O   0  0  0  0  0  0  0  0  0  0  0  0
  187.6900  176.0690  147.0400 C   0  0  0  0  0  2  0  0  0  0  0  0
  186.6920  178.2060  146.7280 O   0  0  0  0  0  1  0  0  0  0  0  0
  186.4420  176.8360  146.6510 C   0  0  0  0  0  2  0  0  0  0  0  0
  190.9730  176.0570  147.6140 C   0  0  0  0  0  2  0  0  0  0  0  0
  192.2610  176.7380  147.1510 C   0  0  0  0  0  2  0  0  0  0  0  0
  193.2860  175.7490  146.6040 C   0  0  0  0  0  2  0  0  0  0  0  0
  193.6370  176.0830  145.2930 O   0  0  0  0  0  0  0  0  0  0  0  0
  194.9200  176.6290  145.3870 C   0  0  0  0  0  2  0  0  0  0  0  0
  195.6600  176.4340  144.0760 C   0  0  0  0  0  2  0  0  0  0  0  0
  194.7580  176.1170  143.0540 O   0  0  0  0  0  0  0  0  0  0  0  0
  195.5010  175.3970  142.1130 C   0  0  0  0  0  2  0  0  0  0  0  0
  196.5690  173.2260  142.7280 C   0  0  2  0  0  3  0  0  0  0  0  0
  195.4780  171.8200  141.0020 O   0  0  0  0  0  1  0  0  0  0  0  0
  195.2710  173.9010  142.2900 C   0  0  2  0  0  3  0  0  0  0  0  0
  196.9060  173.7080  140.2210 C   0  0  0  0  0  1  0  0  0  0  0  0
  196.0600  173.0540  141.3030 C   0  0  1  0  0  0  0  0  0  0  0  0
  196.6640  170.0660  145.6510 C   0  0  1  0  0  3  0  0  0  0  0  0
  196.7430  169.9140  144.1210 C   0  0  0  0  0  2  0  0  0  0  0  0
  194.5590  172.6240  145.3730 C   0  0  0  0  0  1  0  0  0  0  0  0
  197.2640  171.0750  143.5280 O   0  0  0  0  0  0  0  0  0  0  0  0
  196.7050  171.5400  146.0840 C   0  0  0  0  0  2  0  0  0  0  0  0
  196.2430  172.0350  143.6220 C   0  0  1  0  0  3  0  0  0  0  0  0
  196.0410  172.4930  145.0760 C   0  0  1  0  0  3  0  0  0  0  0  0
  195.4080  169.3950  146.1860 C   0  0  0  0  0  2  0  0  0  0  0  0
  193.3900  168.5180  145.0420 C   0  0  0  0  0  1  0  0  0  0  0  0
  194.8900  168.3670  145.1960 C   0  0  0  0  0  2  0  0  0  0  0  0
  1  2  1  1  0  0  0
  1 29  1  0  0  0  0
  1 33  1  0  0  0  0
  3  2  1  0  0  0  0
  4  3  1  0  0  0  0
  5  4  1  0  0  0  0
  6  5  1  0  0  0  0
  7 16  1  6  0  0  0
  7  6  1  0  0  0  0
  8  7  1  0  0  0  0
  9 12  2  0  0  0  0
 10  8  1  0  0  0  0
 11  9  1  0  0  0  0
 11 10  2  0  0  0  0
 12  8  1  0  0  0  0
 13 15  2  0  0  0  0
 15 14  1  0  0  0  0
 15  9  1  0  0  0  0
 16 19  1  0  0  0  0
 17 18  1  0  0  0  0
 19 22  1  0  0  0  0
 19 20  2  0  0  0  0
 20 21  1  0  0  0  0
 21 18  2  0  0  0  0
 22 17  2  0  0  0  0
 24 23  1  6  0  0  0
 24 22  1  0  0  0  0
 24 25  1  0  0  0  0
 26 25  1  0  0  0  0
 26 28  1  0  0  0  0
 27 28  1  0  0  0  0
 29 30  1  0  0  0  0
 32 31  1  0  0  0  0
 32 30  1  0  0  0  0
 34 33  1  0  0  0  0
 35 34  1  0  0  0  0
 36 37  1  0  0  0  0
 36 35  1  0  0  0  0
 38 37  1  0  0  0  0
 39 38  1  0  0  0  0
 40 39  1  0  0  0  0
 41 51  1  1  0  0  0
 42 45  1  0  0  0  0
 43 40  1  6  0  0  0
 43 41  1  0  0  0  0
 45 44  1  6  0  0  0
 45 43  1  0  0  0  0
 45 41  1  0  0  0  0
 46 50  1  0  0  0  0
 46 53  1  6  0  0  0
 47 46  1  0  0  0  0
 49 47  1  0  0  0  0
 51 49  1  1  0  0  0
 51 52  1  0  0  0  0
 52 48  1  1  0  0  0
 52 50  1  0  0  0  0
 54 55  1  0  0  0  0
 55 53  1  0  0  0  0
M  END
>  <MODEL>
1

>  <REMARK>
 VINA RESULT:      -5.4      0.000      0.000
  Name = 
  29 active torsions:
  status: ('A' for Active; 'I' for Inactive)
    1  A    between atoms: C_1  and  C_46
    2  A    between atoms: C_2  and  C_44
    3  A    between atoms: C_2  and  C_49
    4  A    between atoms: C_3  and  C_25
    5  A    between atoms: C_5  and  O_40
    6  A    between atoms: C_5  and  C_45
    7  A    between atoms: C_8  and  O_20
    8  A    between atoms: C_8  and  C_22
    9  A    between atoms: C_12  and  C_42
   10  A    between atoms: N_13  and  C_52
   11  A    between atoms: C_16  and  C_36
   12  A    between atoms: O_20  and  C_42
   13  A    between atoms: C_22  and  O_43
   14  A    between atoms: C_25  and  C_38
   15  A    between atoms: C_26  and  C_45
   16  A    between atoms: C_27  and  C_31
   17  A    between atoms: C_27  and  C_49
   18  A    between atoms: C_27  and  O_54
   19  A    between atoms: C_28  and  C_33
   20  A    between atoms: C_28  and  C_44
   21  A    between atoms: C_31  and  C_35
   22  A    between atoms: C_32  and  C_47
   23  A    between atoms: C_33  and  C_52
   24  A    between atoms: C_35  and  C_51
   25  A    between atoms: C_36  and  C_52
   26  A    between atoms: C_37  and  O_40
   27  A    between atoms: C_41  and  C_55
   28  A    between atoms: O_43  and  C_51
   29  A    between atoms: O_54  and  C_55
                            x       y       z     vdW  Elec       q    Type
                         _______ _______ _______ _____ _____    ______ ____

>  <TORSDO>
F 29

$$$$
=
 OpenBabel11052419323D

 55 58  0  0  1  0  0  0  0  0999 V2000
  189.2460  174.3250  140.7800 C   0  0  1  0  0  3  0  0  0  0  0  0
  189.7830  172.9870  141.2690 C   0  0  0  0  0  2  0  0  0  0  0  0
  190.4710  173.1510  142.6150 C   0  0  0  0  0  2  0  0  0  0  0  0
  190.3250  171.8980  143.4700 C   0  0  0  0  0  2  0  0  0  0  0  0
  191.6610  171.2490  143.8170 C   0  0  0  0  0  2  0  0  0  0  0  0
  192.5700  172.2160  144.5600 C   0  0  0  0  0  2  0  0  0  0  0  0
  193.9620  172.2450  143.9440 C   0  0  1  0  0  3  0  0  0  0  0  0
  194.9630  171.6320  144.8150 N   0  0  0  0  0  0  0  0  0  0  0  0
  196.0370  170.2720  146.1690 C   0  0  0  0  0  0  0  0  0  0  0  0
  196.2060  172.1220  144.9930 C   0  0  0  0  0  3  0  0  0  0  0  0
  196.9130  171.2920  145.8450 C   0  0  0  0  0  3  0  0  0  0  0  0
  194.8360  170.4930  145.5210 C   0  0  0  0  0  3  0  0  0  0  0  0
  197.5090  168.6870  147.1240 O   0  0  0  0  0  0  0  0  0  0  0  0
  195.3380  168.5700  147.8320 O   0  0  0  0  0  1  0  0  0  0  0  0
  196.3380  169.1430  147.0580 C   0  0  0  0  0  0  0  0  0  0  0  0
  193.9310  171.5730  142.5740 C   0  0  0  0  0  2  0  0  0  0  0  0
  193.0510  173.1110  139.1870 C   0  0  0  0  0  3  0  0  0  0  0  0
  193.2800  174.4630  139.4440 C   0  0  0  0  0  3  0  0  0  0  0  0
  193.7090  172.5580  141.4630 C   0  0  0  0  0  0  0  0  0  0  0  0
  193.9130  173.9230  141.7140 C   0  0  0  0  0  3  0  0  0  0  0  0
  193.7050  174.8700  140.7080 C   0  0  0  0  0  3  0  0  0  0  0  0
  193.2510  172.1490  140.1860 C   0  0  0  0  0  0  0  0  0  0  0  0
  194.0850  170.0670  139.0930 C   0  0  0  0  0  1  0  0  0  0  0  0
  192.9360  170.7230  139.8370 C   0  0  2  0  0  3  0  0  0  0  0  0
  191.6300  170.6030  139.0670 C   0  0  0  0  0  2  0  0  0  0  0  0
  191.8840  170.2390  137.7450 O   0  0  0  0  0  0  0  0  0  0  0  0
  190.9740  168.1670  137.9810 O   0  0  0  0  0  1  0  0  0  0  0  0
  190.8080  169.4230  137.4010 C   0  0  0  0  0  2  0  0  0  0  0  0
  188.8220  174.2420  139.4470 O   0  0  0  0  0  0  0  0  0  0  0  0
  188.7100  172.8740  139.1840 C   0  0  0  0  0  2  0  0  0  0  0  0
  188.8140  173.8320  137.0080 O   0  0  0  0  0  1  0  0  0  0  0  0
  188.9010  172.6240  137.7000 C   0  0  0  0  0  2  0  0  0  0  0  0
  188.1250  174.8160  141.7010 C   0  0  0  0  0  2  0  0  0  0  0  0
  187.9000  176.3280  141.6800 C   0  0  0  0  0  2  0  0  0  0  0  0
  187.0090  176.7740  140.5250 C   0  0  0  0  0  2  0  0  0  0  0  0
  186.5180  178.0620  140.7540 O   0  0  0  0  0  0  0  0  0  0  0  0
  185.6160  177.9260  141.8130 C   0  0  0  0  0  2  0  0  0  0  0  0
  185.8150  179.0560  142.8070 C   0  0  0  0  0  2  0  0  0  0  0  0
  185.4000  178.6570  144.0820 O   0  0  0  0  0  0  0  0  0  0  0  0
  186.1030  177.4780  144.3500 C   0  0  0  0  0  2  0  0  0  0  0  0
  187.9060  176.4670  145.7500 C   0  0  2  0  0  3  0  0  0  0  0  0
  187.8750  178.1350  147.5850 O   0  0  0  0  0  1  0  0  0  0  0  0
  187.3200  177.7740  145.2190 C   0  0  2  0  0  3  0  0  0  0  0  0
  185.7850  176.8430  147.1620 C   0  0  0  0  0  1  0  0  0  0  0  0
  187.1210  177.3860  146.6770 C   0  0  1  0  0  0  0  0  0  0  0  0
  192.1590  175.8140  145.9180 C   0  0  1  0  0  3  0  0  0  0  0  0
  191.2100  176.0440  147.1080 C   0  0  0  0  0  2  0  0  0  0  0  0
  190.4180  177.9120  144.0170 C   0  0  0  0  0  1  0  0  0  0  0  0
  189.9020  175.6430  146.7930 O   0  0  0  0  0  0  0  0  0  0  0  0
  191.3930  175.6750  144.5930 C   0  0  0  0  0  2  0  0  0  0  0  0
  189.4150  176.6170  145.9060 C   0  0  1  0  0  3  0  0  0  0  0  0
  190.1100  176.5200  144.5360 C   0  0  1  0  0  3  0  0  0  0  0  0
  193.1740  176.9420  145.8240 C   0  0  0  0  0  2  0  0  0  0  0  0
  194.9390  175.2140  146.0440 C   0  0  0  0  0  1  0  0  0  0  0  0
  194.4590  176.5630  146.5400 C   0  0  0  0  0  2  0  0  0  0  0  0
  1  2  1  1  0  0  0
  1 33  1  0  0  0  0
  2  3  1  0  0  0  0
  3  4  1  0  0  0  0
  4  5  1  0  0  0  0
  5  6  1  0  0  0  0
  7 16  1  6  0  0  0
  7  6  1  0  0  0  0
  7  8  1  0  0  0  0
  8 10  1  0  0  0  0
  8 12  1  0  0  0  0
  9 15  1  0  0  0  0
 10 11  2  0  0  0  0
 11  9  1  0  0  0  0
 12  9  2  0  0  0  0
 15 13  2  0  0  0  0
 15 14  1  0  0  0  0
 17 18  2  0  0  0  0
 17 22  1  0  0  0  0
 18 21  1  0  0  0  0
 19 20  1  0  0  0  0
 19 16  1  0  0  0  0
 21 20  2  0  0  0  0
 22 19  2  0  0  0  0
 24 23  1  6  0  0  0
 24 22  1  0  0  0  0
 25 24  1  0  0  0  0
 26 25  1  0  0  0  0
 28 26  1  0  0  0  0
 28 27  1  0  0  0  0
 29  1  1  0  0  0  0
 30 29  1  0  0  0  0
 31 32  1  0  0  0  0
 32 30  1  0  0  0  0
 34 33  1  0  0  0  0
 35 36  1  0  0  0  0
 35 34  1  0  0  0  0
 36 37  1  0  0  0  0
 37 38  1  0  0  0  0
 38 39  1  0  0  0  0
 39 40  1  0  0  0  0
 41 51  1  1  0  0  0
 41 45  1  0  0  0  0
 43 40  1  6  0  0  0
 43 41  1  0  0  0  0
 43 45  1  0  0  0  0
 45 44  1  1  0  0  0
 45 42  1  0  0  0  0
 46 53  1  6  0  0  0
 46 47  1  0  0  0  0
 49 47  1  0  0  0  0
 50 46  1  0  0  0  0
 51 49  1  1  0  0  0
 52 48  1  1  0  0  0
 52 50  1  0  0  0  0
 52 51  1  0  0  0  0
 53 55  1  0  0  0  0
 54 55  1  0  0  0  0
M  END
>  <MODEL>
2

>  <REMARK>
 VINA RESULT:      -5.4      2.265      8.693
  Name = 
  29 active torsions:
  status: ('A' for Active; 'I' for Inactive)
    1  A    between atoms: C_1  and  C_46
    2  A    between atoms: C_2  and  C_44
    3  A    between atoms: C_2  and  C_49
    4  A    between atoms: C_3  and  C_25
    5  A    between atoms: C_5  and  O_40
    6  A    between atoms: C_5  and  C_45
    7  A    between atoms: C_8  and  O_20
    8  A    between atoms: C_8  and  C_22
    9  A    between atoms: C_12  and  C_42
   10  A    between atoms: N_13  and  C_52
   11  A    between atoms: C_16  and  C_36
   12  A    between atoms: O_20  and  C_42
   13  A    between atoms: C_22  and  O_43
   14  A    between atoms: C_25  and  C_38
   15  A    between atoms: C_26  and  C_45
   16  A    between atoms: C_27  and  C_31
   17  A    between atoms: C_27  and  C_49
   18  A    between atoms: C_27  and  O_54
   19  A    between atoms: C_28  and  C_33
   20  A    between atoms: C_28  and  C_44
   21  A    between atoms: C_31  and  C_35
   22  A    between atoms: C_32  and  C_47
   23  A    between atoms: C_33  and  C_52
   24  A    between atoms: C_35  and  C_51
   25  A    between atoms: C_36  and  C_52
   26  A    between atoms: C_37  and  O_40
   27  A    between atoms: C_41  and  C_55
   28  A    between atoms: O_43  and  C_51
   29  A    between atoms: O_54  and  C_55
                            x       y       z     vdW  Elec       q    Type
                         _______ _______ _______ _____ _____    ______ ____

>  <TORSDO>
F 29

$$$$
=
 OpenBabel11052419323D

 55 58  0  0  1  0  0  0  0  0999 V2000
  190.0290  175.5650  146.7970 C   0  0  1  0  0  3  0  0  0  0  0  0
  189.8930  174.0730  146.5290 C   0  0  0  0  0  2  0  0  0  0  0  0
  189.6800  173.8170  145.0450 C   0  0  0  0  0  2  0  0  0  0  0  0
  189.6050  172.3250  144.7430 C   0  0  0  0  0  2  0  0  0  0  0  0
  190.1840  171.9590  143.3790 C   0  0  0  0  0  2  0  0  0  0  0  0
  189.1490  172.1250  142.2760 C   0  0  0  0  0  2  0  0  0  0  0  0
  189.5560  173.2210  141.3020 C   0  0  1  0  0  3  0  0  0  0  0  0
  189.8030  172.7000  139.9580 N   0  0  0  0  0  0  0  0  0  0  0  0
  189.9720  172.4770  137.7770 C   0  0  0  0  0  0  0  0  0  0  0  0
  190.3820  171.5100  139.7090 C   0  0  0  0  0  3  0  0  0  0  0  0
  190.5040  171.3310  138.3420 C   0  0  0  0  0  3  0  0  0  0  0  0
  189.5470  173.3170  138.7890 C   0  0  0  0  0  3  0  0  0  0  0  0
  190.3840  171.9500  135.5100 O   0  0  0  0  0  0  0  0  0  0  0  0
  189.2270  173.8870  135.8790 O   0  0  0  0  0  1  0  0  0  0  0  0
  189.8760  172.7500  136.3380 C   0  0  0  0  0  0  0  0  0  0  0  0
  188.4910  174.3150  141.2870 C   0  0  0  0  0  2  0  0  0  0  0  0
  188.6250  177.8660  142.6950 C   0  0  0  0  0  3  0  0  0  0  0  0
  189.9510  177.9310  143.1220 C   0  0  0  0  0  3  0  0  0  0  0  0
  188.9790  175.5900  141.9110 C   0  0  0  0  0  0  0  0  0  0  0  0
  190.3040  175.6610  142.3670 C   0  0  0  0  0  3  0  0  0  0  0  0
  190.7890  176.8270  142.9640 C   0  0  0  0  0  3  0  0  0  0  0  0
  188.1220  176.7030  142.0980 C   0  0  0  0  0  0  0  0  0  0  0  0
  186.3660  177.8010  140.7050 C   0  0  0  0  0  1  0  0  0  0  0  0
  186.6700  176.7050  141.7100 C   0  0  2  0  0  3  0  0  0  0  0  0
  185.7600  176.7900  142.9250 C   0  0  0  0  0  2  0  0  0  0  0  0
  184.7960  177.7800  142.7330 O   0  0  0  0  0  0  0  0  0  0  0  0
  185.1040  179.7150  143.8910 O   0  0  0  0  0  1  0  0  0  0  0  0
  184.6790  178.3910  143.9800 C   0  0  0  0  0  2  0  0  0  0  0  0
  188.8160  176.1120  147.2330 O   0  0  0  0  0  0  0  0  0  0  0  0
  188.7450  177.3720  146.6330 C   0  0  0  0  0  2  0  0  0  0  0  0
  186.4950  176.5990  146.5600 O   0  0  0  0  0  1  0  0  0  0  0  0
  187.3470  177.6000  146.0920 C   0  0  0  0  0  2  0  0  0  0  0  0
  191.1600  175.8250  147.7970 C   0  0  0  0  0  2  0  0  0  0  0  0
  192.3460  176.6050  147.2300 C   0  0  0  0  0  2  0  0  0  0  0  0
  192.9150  175.9700  145.9650 C   0  0  0  0  0  2  0  0  0  0  0  0
  193.6580  176.9060  145.2390 O   0  0  0  0  0  0  0  0  0  0  0  0
  194.7110  176.1800  144.6770 C   0  0  0  0  0  2  0  0  0  0  0  0
  194.1800  174.9060  144.0460 C   0  0  0  0  0  2  0  0  0  0  0  0
  195.0370  173.8350  144.3210 O   0  0  0  0  0  0  0  0  0  0  0  0
  195.1380  173.1230  143.1220 C   0  0  0  0  0  2  0  0  0  0  0  0
  195.9350  173.2730  140.7610 C   0  0  2  0  0  3  0  0  0  0  0  0
  197.3470  175.2950  141.0160 O   0  0  0  0  0  1  0  0  0  0  0  0
  195.4420  174.0690  141.9670 C   0  0  2  0  0  3  0  0  0  0  0  0
  197.9360  173.2930  142.3820 C   0  0  0  0  0  1  0  0  0  0  0  0
  196.9150  174.0940  141.5880 C   0  0  1  0  0  0  0  0  0  0  0  0
  194.9360  174.2700  136.6940 C   0  0  1  0  0  3  0  0  0  0  0  0
  196.1650  174.7480  137.4880 C   0  0  0  0  0  2  0  0  0  0  0  0
  193.0340  174.3580  139.4180 C   0  0  0  0  0  1  0  0  0  0  0  0
  196.4980  173.8300  138.4980 O   0  0  0  0  0  0  0  0  0  0  0  0
  194.1250  173.2200  137.4690 C   0  0  0  0  0  2  0  0  0  0  0  0
  195.5040  173.9760  139.4800 C   0  0  1  0  0  3  0  0  0  0  0  0
  194.1530  173.4260  138.9910 C   0  0  1  0  0  3  0  0  0  0  0  0
  194.0520  175.4510  136.3240 C   0  0  0  0  0  2  0  0  0  0  0  0
  191.8370  176.1590  135.4620 C   0  0  0  0  0  1  0  0  0  0  0  0
  192.7050  174.9680  135.8160 C   0  0  0  0  0  2  0  0  0  0  0  0
  1  2  1  1  0  0  0
  1 29  1  0  0  0  0
  1 33  1  0  0  0  0
  3  2  1  0  0  0  0
  4  3  1  0  0  0  0
  5  4  1  0  0  0  0
  6  5  1  0  0  0  0
  7 16  1  6  0  0  0
  7  6  1  0  0  0  0
  8  7  1  0  0  0  0
  9 11  1  0  0  0  0
  9 12  2  0  0  0  0
 10  8  1  0  0  0  0
 11 10  2  0  0  0  0
 12  8  1  0  0  0  0
 13 15  2  0  0  0  0
 14 15  1  0  0  0  0
 15  9  1  0  0  0  0
 16 19  1  0  0  0  0
 17 18  1  0  0  0  0
 19 22  1  0  0  0  0
 19 20  2  0  0  0  0
 20 21  1  0  0  0  0
 21 18  2  0  0  0  0
 22 17  2  0  0  0  0
 24 23  1  6  0  0  0
 24 22  1  0  0  0  0
 24 25  1  0  0  0  0
 26 25  1  0  0  0  0
 26 28  1  0  0  0  0
 27 28  1  0  0  0  0
 30 29  1  0  0  0  0
 32 31  1  0  0  0  0
 32 30  1  0  0  0  0
 34 33  1  0  0  0  0
 35 34  1  0  0  0  0
 36 35  1  0  0  0  0
 37 36  1  0  0  0  0
 38 39  1  0  0  0  0
 38 37  1  0  0  0  0
 40 39  1  0  0  0  0
 41 51  1  6  0  0  0
 41 45  1  0  0  0  0
 41 43  1  0  0  0  0
 42 45  1  0  0  0  0
 43 40  1  1  0  0  0
 45 43  1  0  0  0  0
 45 44  1  1  0  0  0
 46 53  1  1  0  0  0
 46 50  1  0  0  0  0
 46 47  1  0  0  0  0
 47 49  1  0  0  0  0
 50 52  1  0  0  0  0
 51 49  1  6  0  0  0
 52 48  1  6  0  0  0
 52 51  1  0  0  0  0
 54 55  1  0  0  0  0
 55 53  1  0  0  0  0
M  END
>  <MODEL>
3

>  <REMARK>
 VINA RESULT:      -5.1      2.078      4.125
  Name = 
  29 active torsions:
  status: ('A' for Active; 'I' for Inactive)
    1  A    between atoms: C_1  and  C_46
    2  A    between atoms: C_2  and  C_44
    3  A    between atoms: C_2  and  C_49
    4  A    between atoms: C_3  and  C_25
    5  A    between atoms: C_5  and  O_40
    6  A    between atoms: C_5  and  C_45
    7  A    between atoms: C_8  and  O_20
    8  A    between atoms: C_8  and  C_22
    9  A    between atoms: C_12  and  C_42
   10  A    between atoms: N_13  and  C_52
   11  A    between atoms: C_16  and  C_36
   12  A    between atoms: O_20  and  C_42
   13  A    between atoms: C_22  and  O_43
   14  A    between atoms: C_25  and  C_38
   15  A    between atoms: C_26  and  C_45
   16  A    between atoms: C_27  and  C_31
   17  A    between atoms: C_27  and  C_49
   18  A    between atoms: C_27  and  O_54
   19  A    between atoms: C_28  and  C_33
   20  A    between atoms: C_28  and  C_44
   21  A    between atoms: C_31  and  C_35
   22  A    between atoms: C_32  and  C_47
   23  A    between atoms: C_33  and  C_52
   24  A    between atoms: C_35  and  C_51
   25  A    between atoms: C_36  and  C_52
   26  A    between atoms: C_37  and  O_40
   27  A    between atoms: C_41  and  C_55
   28  A    between atoms: O_43  and  C_51
   29  A    between atoms: O_54  and  C_55
                            x       y       z     vdW  Elec       q    Type
                         _______ _______ _______ _____ _____    ______ ____

>  <TORSDO>
F 29

$$$$
=
 OpenBabel11052419323D

 55 58  0  0  1  0  0  0  0  0999 V2000
  188.8420  174.4790  141.1780 C   0  0  1  0  0  3  0  0  0  0  0  0
  188.7120  173.0310  141.6300 C   0  0  0  0  0  2  0  0  0  0  0  0
  189.8740  172.6500  142.5340 C   0  0  0  0  0  2  0  0  0  0  0  0
  190.0600  171.1390  142.5950 C   0  0  0  0  0  2  0  0  0  0  0  0
  191.5170  170.7070  142.4620 C   0  0  0  0  0  2  0  0  0  0  0  0
  192.4660  171.8340  142.8430 C   0  0  0  0  0  2  0  0  0  0  0  0
  193.8140  171.6730  142.1550 C   0  0  1  0  0  3  0  0  0  0  0  0
  194.6620  170.6900  142.8280 N   0  0  0  0  0  0  0  0  0  0  0  0
  195.9670  169.6570  144.2650 C   0  0  0  0  0  0  0  0  0  0  0  0
  194.8560  169.4340  142.3800 C   0  0  0  0  0  3  0  0  0  0  0  0
  195.6770  168.7510  143.2600 C   0  0  0  0  0  3  0  0  0  0  0  0
  195.3280  170.8500  143.9870 C   0  0  0  0  0  3  0  0  0  0  0  0
  197.6120  170.2700  145.8490 O   0  0  0  0  0  0  0  0  0  0  0  0
  196.7490  168.1660  146.0850 O   0  0  0  0  0  1  0  0  0  0  0  0
  196.8150  169.3890  145.4320 C   0  0  0  0  0  0  0  0  0  0  0  0
  193.6020  171.3120  140.6880 C   0  0  0  0  0  2  0  0  0  0  0  0
  194.5010  174.5740  138.9100 C   0  0  0  0  0  3  0  0  0  0  0  0
  193.3740  174.7570  138.1080 C   0  0  0  0  0  3  0  0  0  0  0  0
  193.5410  172.5270  139.8070 C   0  0  0  0  0  0  0  0  0  0  0  0
  192.4250  172.7110  138.9790 C   0  0  0  0  0  3  0  0  0  0  0  0
  192.3390  173.8230  138.1380 C   0  0  0  0  0  3  0  0  0  0  0  0
  194.6040  173.4620  139.7560 C   0  0  0  0  0  0  0  0  0  0  0  0
  196.2300  174.6130  141.2590 C   0  0  0  0  0  1  0  0  0  0  0  0
  195.8720  173.3200  140.5490 C   0  0  2  0  0  3  0  0  0  0  0  0
  197.0220  172.8140  139.6920 C   0  0  0  0  0  2  0  0  0  0  0  0
  196.7670  171.5100  139.2680 O   0  0  0  0  0  0  0  0  0  0  0  0
  196.1660  171.7650  137.0890 O   0  0  0  0  0  1  0  0  0  0  0  0
  197.2220  171.4820  137.9510 C   0  0  0  0  0  2  0  0  0  0  0  0
  188.9210  174.5660  139.7830 O   0  0  0  0  0  0  0  0  0  0  0  0
  188.5410  173.3060  139.3140 C   0  0  0  0  0  2  0  0  0  0  0  0
  189.1360  174.2690  137.2210 O   0  0  0  0  0  1  0  0  0  0  0  0
  188.2470  173.3820  137.8290 C   0  0  0  0  0  2  0  0  0  0  0  0
  187.6830  175.3140  141.7330 C   0  0  0  0  0  2  0  0  0  0  0  0
  187.7010  176.7840  141.3140 C   0  0  0  0  0  2  0  0  0  0  0  0
  186.5920  177.1260  140.3240 C   0  0  0  0  0  2  0  0  0  0  0  0
  186.0140  178.3580  140.6430 O   0  0  0  0  0  0  0  0  0  0  0  0
  185.3670  178.1520  141.8640 C   0  0  0  0  0  2  0  0  0  0  0  0
  185.7420  179.2550  142.8380 C   0  0  0  0  0  2  0  0  0  0  0  0
  185.1590  179.0170  144.0870 O   0  0  0  0  0  0  0  0  0  0  0  0
  185.5930  177.7410  144.4630 C   0  0  0  0  0  2  0  0  0  0  0  0
  187.1160  176.4750  145.9820 C   0  0  2  0  0  3  0  0  0  0  0  0
  187.3250  178.1980  147.7520 O   0  0  0  0  0  1  0  0  0  0  0  0
  186.8070  177.8430  145.3780 C   0  0  2  0  0  3  0  0  0  0  0  0
  185.0480  177.3000  147.2760 C   0  0  0  0  0  1  0  0  0  0  0  0
  186.4810  177.5640  146.8370 C   0  0  1  0  0  0  0  0  0  0  0  0
  191.1510  175.0410  146.4290 C   0  0  1  0  0  3  0  0  0  0  0  0
  190.2230  175.5570  147.5440 C   0  0  0  0  0  2  0  0  0  0  0  0
  189.9210  177.2470  144.2690 C   0  0  0  0  0  1  0  0  0  0  0  0
  188.8750  175.3850  147.1950 O   0  0  0  0  0  0  0  0  0  0  0  0
  190.4200  174.9290  145.0820 C   0  0  0  0  0  2  0  0  0  0  0  0
  188.6180  176.3480  146.2040 C   0  0  1  0  0  3  0  0  0  0  0  0
  189.3300  175.9940  144.8870 C   0  0  1  0  0  3  0  0  0  0  0  0
  192.3700  175.9410  146.2950 C   0  0  0  0  0  2  0  0  0  0  0  0
  194.8230  176.0210  145.9410 C   0  0  0  0  0  1  0  0  0  0  0  0
  193.6340  175.1100  146.1730 C   0  0  0  0  0  2  0  0  0  0  0  0
  1  2  1  6  0  0  0
  1 33  1  0  0  0  0
  2  3  1  0  0  0  0
  3  4  1  0  0  0  0
  5  4  1  0  0  0  0
  5  6  1  0  0  0  0
  7 16  1  6  0  0  0
  7  8  1  0  0  0  0
  7  6  1  0  0  0  0
  8 12  1  0  0  0  0
  9 15  1  0  0  0  0
 10  8  1  0  0  0  0
 10 11  2  0  0  0  0
 11  9  1  0  0  0  0
 12  9  2  0  0  0  0
 15 13  2  0  0  0  0
 15 14  1  0  0  0  0
 17 22  1  0  0  0  0
 18 21  1  0  0  0  0
 18 17  2  0  0  0  0
 19 16  1  0  0  0  0
 20 19  1  0  0  0  0
 21 20  2  0  0  0  0
 22 19  2  0  0  0  0
 22 24  1  0  0  0  0
 24 23  1  6  0  0  0
 25 24  1  0  0  0  0
 26 25  1  0  0  0  0
 27 28  1  0  0  0  0
 28 26  1  0  0  0  0
 29  1  1  0  0  0  0
 30 29  1  0  0  0  0
 31 32  1  0  0  0  0
 32 30  1  0  0  0  0
 34 33  1  0  0  0  0
 35 36  1  0  0  0  0
 35 34  1  0  0  0  0
 36 37  1  0  0  0  0
 37 38  1  0  0  0  0
 38 39  1  0  0  0  0
 39 40  1  0  0  0  0
 41 51  1  1  0  0  0
 41 45  1  0  0  0  0
 43 40  1  6  0  0  0
 43 41  1  0  0  0  0
 43 45  1  0  0  0  0
 45 44  1  1  0  0  0
 45 42  1  0  0  0  0
 46 53  1  6  0  0  0
 46 47  1  0  0  0  0
 49 47  1  0  0  0  0
 50 46  1  0  0  0  0
 51 49  1  1  0  0  0
 52 48  1  1  0  0  0
 52 50  1  0  0  0  0
 52 51  1  0  0  0  0
 54 55  1  0  0  0  0
 55 53  1  0  0  0  0
M  END
>  <MODEL>
4

>  <REMARK>
 VINA RESULT:      -4.4      2.300      8.927
  Name = 
  29 active torsions:
  status: ('A' for Active; 'I' for Inactive)
    1  A    between atoms: C_1  and  C_46
    2  A    between atoms: C_2  and  C_44
    3  A    between atoms: C_2  and  C_49
    4  A    between atoms: C_3  and  C_25
    5  A    between atoms: C_5  and  O_40
    6  A    between atoms: C_5  and  C_45
    7  A    between atoms: C_8  and  O_20
    8  A    between atoms: C_8  and  C_22
    9  A    between atoms: C_12  and  C_42
   10  A    between atoms: N_13  and  C_52
   11  A    between atoms: C_16  and  C_36
   12  A    between atoms: O_20  and  C_42
   13  A    between atoms: C_22  and  O_43
   14  A    between atoms: C_25  and  C_38
   15  A    between atoms: C_26  and  C_45
   16  A    between atoms: C_27  and  C_31
   17  A    between atoms: C_27  and  C_49
   18  A    between atoms: C_27  and  O_54
   19  A    between atoms: C_28  and  C_33
   20  A    between atoms: C_28  and  C_44
   21  A    between atoms: C_31  and  C_35
   22  A    between atoms: C_32  and  C_47
   23  A    between atoms: C_33  and  C_52
   24  A    between atoms: C_35  and  C_51
   25  A    between atoms: C_36  and  C_52
   26  A    between atoms: C_37  and  O_40
   27  A    between atoms: C_41  and  C_55
   28  A    between atoms: O_43  and  C_51
   29  A    between atoms: O_54  and  C_55
                            x       y       z     vdW  Elec       q    Type
                         _______ _______ _______ _____ _____    ______ ____

>  <TORSDO>
F 29

$$$$
=
 OpenBabel11052419323D

 55 58  0  0  1  0  0  0  0  0999 V2000
  189.1880  174.2780  141.3910 C   0  0  1  0  0  3  0  0  0  0  0  0
  189.1030  172.9160  142.0650 C   0  0  0  0  0  2  0  0  0  0  0  0
  190.4930  172.3390  142.2730 C   0  0  0  0  0  2  0  0  0  0  0  0
  190.5040  170.8270  142.0740 C   0  0  0  0  0  2  0  0  0  0  0  0
  191.8340  170.3020  141.5420 C   0  0  0  0  0  2  0  0  0  0  0  0
  192.9000  171.3870  141.5460 C   0  0  0  0  0  2  0  0  0  0  0  0
  194.2770  170.8050  141.2600 C   0  0  1  0  0  3  0  0  0  0  0  0
  194.9000  170.2490  142.4610 N   0  0  0  0  0  0  0  0  0  0  0  0
  195.6150  169.9310  144.5160 C   0  0  0  0  0  0  0  0  0  0  0  0
  195.4530  169.0220  142.5200 C   0  0  0  0  0  3  0  0  0  0  0  0
  195.9190  168.7860  143.8010 C   0  0  0  0  0  3  0  0  0  0  0  0
  194.9810  170.8260  143.6740 C   0  0  0  0  0  3  0  0  0  0  0  0
  196.7680  171.0250  146.2660 O   0  0  0  0  0  0  0  0  0  0  0  0
  195.2830  169.4130  146.9170 O   0  0  0  0  0  1  0  0  0  0  0  0
  195.9210  170.1550  145.9330 C   0  0  0  0  0  0  0  0  0  0  0  0
  194.1730  169.7590  140.1540 C   0  0  0  0  0  2  0  0  0  0  0  0
  195.4290  171.2090  136.8470 C   0  0  0  0  0  3  0  0  0  0  0  0
  196.7300  170.7060  136.8160 C   0  0  0  0  0  3  0  0  0  0  0  0
  195.0400  170.0930  138.9740 C   0  0  0  0  0  0  0  0  0  0  0  0
  196.3570  169.6140  138.9410 C   0  0  0  0  0  3  0  0  0  0  0  0
  197.1960  169.9140  137.8650 C   0  0  0  0  0  3  0  0  0  0  0  0
  194.5760  170.9200  137.9210 C   0  0  0  0  0  0  0  0  0  0  0  0
  192.1870  170.6060  137.2720 C   0  0  0  0  0  1  0  0  0  0  0  0
  193.2080  171.5400  137.8950 C   0  0  2  0  0  3  0  0  0  0  0  0
  193.2150  172.8990  137.2120 C   0  0  0  0  0  2  0  0  0  0  0  0
  192.4560  172.8510  136.0430 O   0  0  0  0  0  0  0  0  0  0  0  0
  192.0550  174.9410  136.8480 O   0  0  0  0  0  1  0  0  0  0  0  0
  192.2750  174.1890  135.6960 C   0  0  0  0  0  2  0  0  0  0  0  0
  189.4700  174.1480  140.0250 O   0  0  0  0  0  0  0  0  0  0  0  0
  188.3430  173.5310  139.4750 C   0  0  0  0  0  2  0  0  0  0  0  0
  189.0530  173.5010  137.2040 O   0  0  0  0  0  1  0  0  0  0  0  0
  188.1110  174.0540  138.0710 C   0  0  0  0  0  2  0  0  0  0  0  0
  187.8990  175.0710  141.6290 C   0  0  0  0  0  2  0  0  0  0  0  0
  187.9800  176.5480  141.2450 C   0  0  0  0  0  2  0  0  0  0  0  0
  186.9490  176.9390  140.1910 C   0  0  0  0  0  2  0  0  0  0  0  0
  186.3050  178.1260  140.5520 O   0  0  0  0  0  0  0  0  0  0  0  0
  185.6210  177.8260  141.7330 C   0  0  0  0  0  2  0  0  0  0  0  0
  185.8760  178.9100  142.7650 C   0  0  0  0  0  2  0  0  0  0  0  0
  185.4390  178.4890  144.0260 O   0  0  0  0  0  0  0  0  0  0  0  0
  186.1140  177.2890  144.2720 C   0  0  0  0  0  2  0  0  0  0  0  0
  187.7160  176.2320  145.8670 C   0  0  2  0  0  3  0  0  0  0  0  0
  187.8050  178.0780  147.5190 O   0  0  0  0  0  1  0  0  0  0  0  0
  187.3170  177.5330  145.1740 C   0  0  2  0  0  3  0  0  0  0  0  0
  185.5950  176.9990  147.1100 C   0  0  0  0  0  1  0  0  0  0  0  0
  187.0070  177.3290  146.6500 C   0  0  1  0  0  0  0  0  0  0  0  0
  191.8060  175.1110  146.6130 C   0  0  1  0  0  3  0  0  0  0  0  0
  190.8640  175.8650  147.5690 C   0  0  0  0  0  2  0  0  0  0  0  0
  190.4810  176.6330  143.9720 C   0  0  0  0  0  1  0  0  0  0  0  0
  189.5210  175.5590  147.2960 O   0  0  0  0  0  0  0  0  0  0  0  0
  191.0740  174.6260  145.3520 C   0  0  0  0  0  2  0  0  0  0  0  0
  189.2240  176.2210  146.0930 C   0  0  1  0  0  3  0  0  0  0  0  0
  189.9420  175.5630  144.9020 C   0  0  1  0  0  3  0  0  0  0  0  0
  192.9880  175.9890  146.2320 C   0  0  0  0  0  2  0  0  0  0  0  0
  195.2740  175.0480  146.0340 C   0  0  0  0  0  1  0  0  0  0  0  0
  193.9450  175.2300  145.3290 C   0  0  0  0  0  2  0  0  0  0  0  0
  1 33  1  6  0  0  0
  1  2  1  0  0  0  0
  2  3  1  0  0  0  0
  4  3  1  0  0  0  0
  5  6  1  0  0  0  0
  5  4  1  0  0  0  0
  7 16  1  6  0  0  0
  7  6  1  0  0  0  0
  7  8  1  0  0  0  0
  8 10  1  0  0  0  0
  8 12  1  0  0  0  0
  9 15  1  0  0  0  0
 10 11  2  0  0  0  0
 11  9  1  0  0  0  0
 12  9  2  0  0  0  0
 15 13  2  0  0  0  0
 15 14  1  0  0  0  0
 17 22  1  0  0  0  0
 18 17  2  0  0  0  0
 18 21  1  0  0  0  0
 19 16  1  0  0  0  0
 20 19  1  0  0  0  0
 21 20  2  0  0  0  0
 22 19  2  0  0  0  0
 24 23  1  6  0  0  0
 24 22  1  0  0  0  0
 25 24  1  0  0  0  0
 26 25  1  0  0  0  0
 28 26  1  0  0  0  0
 28 27  1  0  0  0  0
 29  1  1  0  0  0  0
 30 29  1  0  0  0  0
 31 32  1  0  0  0  0
 32 30  1  0  0  0  0
 34 33  1  0  0  0  0
 35 36  1  0  0  0  0
 35 34  1  0  0  0  0
 36 37  1  0  0  0  0
 37 38  1  0  0  0  0
 38 39  1  0  0  0  0
 39 40  1  0  0  0  0
 41 51  1  1  0  0  0
 41 45  1  0  0  0  0
 43 40  1  6  0  0  0
 43 41  1  0  0  0  0
 43 45  1  0  0  0  0
 45 44  1  1  0  0  0
 45 42  1  0  0  0  0
 46 53  1  6  0  0  0
 46 47  1  0  0  0  0
 49 47  1  0  0  0  0
 50 46  1  0  0  0  0
 51 49  1  1  0  0  0
 52 48  1  6  0  0  0
 52 50  1  0  0  0  0
 52 51  1  0  0  0  0
 55 54  1  0  0  0  0
 55 53  1  0  0  0  0
M  END
>  <MODEL>
5

>  <REMARK>
 VINA RESULT:      -4.4      2.675      8.783
  Name = 
  29 active torsions:
  status: ('A' for Active; 'I' for Inactive)
    1  A    between atoms: C_1  and  C_46
    2  A    between atoms: C_2  and  C_44
    3  A    between atoms: C_2  and  C_49
    4  A    between atoms: C_3  and  C_25
    5  A    between atoms: C_5  and  O_40
    6  A    between atoms: C_5  and  C_45
    7  A    between atoms: C_8  and  O_20
    8  A    between atoms: C_8  and  C_22
    9  A    between atoms: C_12  and  C_42
   10  A    between atoms: N_13  and  C_52
   11  A    between atoms: C_16  and  C_36
   12  A    between atoms: O_20  and  C_42
   13  A    between atoms: C_22  and  O_43
   14  A    between atoms: C_25  and  C_38
   15  A    between atoms: C_26  and  C_45
   16  A    between atoms: C_27  and  C_31
   17  A    between atoms: C_27  and  C_49
   18  A    between atoms: C_27  and  O_54
   19  A    between atoms: C_28  and  C_33
   20  A    between atoms: C_28  and  C_44
   21  A    between atoms: C_31  and  C_35
   22  A    between atoms: C_32  and  C_47
   23  A    between atoms: C_33  and  C_52
   24  A    between atoms: C_35  and  C_51
   25  A    between atoms: C_36  and  C_52
   26  A    between atoms: C_37  and  O_40
   27  A    between atoms: C_41  and  C_55
   28  A    between atoms: O_43  and  C_51
   29  A    between atoms: O_54  and  C_55
                            x       y       z     vdW  Elec       q    Type
                         _______ _______ _______ _____ _____    ______ ____

>  <TORSDO>
F 29

$$$$
=
 OpenBabel11052419323D

 55 58  0  0  1  0  0  0  0  0999 V2000
  192.1330  173.0860  138.7050 C   0  0  1  0  0  3  0  0  0  0  0  0
  192.5720  172.6690  140.1020 C   0  0  0  0  0  2  0  0  0  0  0  0
  193.0240  173.8810  140.9010 C   0  0  0  0  0  2  0  0  0  0  0  0
  192.1200  174.1230  142.1040 C   0  0  0  0  0  2  0  0  0  0  0  0
  190.8840  173.2270  142.1170 C   0  0  0  0  0  2  0  0  0  0  0  0
  189.6180  174.0270  141.8500 C   0  0  0  0  0  2  0  0  0  0  0  0
  189.4580  175.1560  142.8570 C   0  0  1  0  0  3  0  0  0  0  0  0
  188.5630  176.2050  142.3720 N   0  0  0  0  0  0  0  0  0  0  0  0
  186.7880  177.4040  141.8750 C   0  0  0  0  0  0  0  0  0  0  0  0
  188.9870  177.3760  141.8580 C   0  0  0  0  0  3  0  0  0  0  0  0
  187.8950  178.1590  141.5290 C   0  0  0  0  0  3  0  0  0  0  0  0
  187.2170  176.2000  142.4000 C   0  0  0  0  0  3  0  0  0  0  0  0
  185.0530  178.5130  140.7130 O   0  0  0  0  0  0  0  0  0  0  0  0
  184.4300  177.4510  142.6400 O   0  0  0  0  0  1  0  0  0  0  0  0
  185.3900  177.8190  141.7070 C   0  0  0  0  0  0  0  0  0  0  0  0
  188.9780  174.5900  144.1910 C   0  0  0  0  0  2  0  0  0  0  0  0
  189.8430  176.7880  147.1960 C   0  0  0  0  0  3  0  0  0  0  0  0
  191.0870  176.2670  147.5550 C   0  0  0  0  0  3  0  0  0  0  0  0
  189.6980  175.2000  145.3590 C   0  0  0  0  0  0  0  0  0  0  0  0
  190.9380  174.6710  145.7450 C   0  0  0  0  0  3  0  0  0  0  0  0
  191.6320  175.2060  146.8330 C   0  0  0  0  0  3  0  0  0  0  0  0
  189.1330  176.2610  146.1090 C   0  0  0  0  0  0  0  0  0  0  0  0
  187.8990  178.2410  145.2240 C   0  0  0  0  0  1  0  0  0  0  0  0
  187.7820  176.8510  145.8230 C   0  0  2  0  0  3  0  0  0  0  0  0
  186.8880  176.8440  147.0530 C   0  0  0  0  0  2  0  0  0  0  0  0
  187.0250  178.0440  147.7510 O   0  0  0  0  0  0  0  0  0  0  0  0
  185.8340  179.9780  147.8990 O   0  0  0  0  0  1  0  0  0  0  0  0
  185.7450  178.5970  147.7370 C   0  0  0  0  0  2  0  0  0  0  0  0
  190.8150  173.5590  138.7120 O   0  0  0  0  0  0  0  0  0  0  0  0
  190.1030  172.6710  137.9020 C   0  0  0  0  0  2  0  0  0  0  0  0
  188.0900  172.3620  139.1340 O   0  0  0  0  0  1  0  0  0  0  0  0
  189.2830  171.7360  138.7700 C   0  0  0  0  0  2  0  0  0  0  0  0
  193.1040  174.1220  138.1300 C   0  0  0  0  0  2  0  0  0  0  0  0
  192.9660  174.3570  136.6260 C   0  0  0  0  0  2  0  0  0  0  0  0
  193.0520  175.8330  136.2510 C   0  0  0  0  0  2  0  0  0  0  0  0
  194.3680  176.2900  136.3590 O   0  0  0  0  0  0  0  0  0  0  0  0
  194.9970  175.8730  135.1830 C   0  0  0  0  0  2  0  0  0  0  0  0
  196.4460  176.3270  135.1850 C   0  0  0  0  0  2  0  0  0  0  0  0
  197.0090  176.1440  136.4520 O   0  0  0  0  0  0  0  0  0  0  0  0
  197.4280  174.8100  136.4830 C   0  0  0  0  0  2  0  0  0  0  0  0
  197.6610  173.4770  138.5810 C   0  0  2  0  0  3  0  0  0  0  0  0
  195.9640  171.7450  138.0620 O   0  0  0  0  0  1  0  0  0  0  0  0
  196.6730  174.0430  137.5620 C   0  0  2  0  0  3  0  0  0  0  0  0
  197.9140  171.9520  136.5220 C   0  0  0  0  0  1  0  0  0  0  0  0
  196.9910  172.5550  137.5700 C   0  0  1  0  0  0  0  0  0  0  0  0
  196.8350  173.1660  142.7950 C   0  0  1  0  0  3  0  0  0  0  0  0
  196.4700  172.1440  141.7030 C   0  0  0  0  0  2  0  0  0  0  0  0
  196.2960  175.7050  140.7190 C   0  0  0  0  0  1  0  0  0  0  0  0
  197.3490  172.2410  140.6120 O   0  0  0  0  0  0  0  0  0  0  0  0
  197.7080  174.3050  142.2460 C   0  0  0  0  0  2  0  0  0  0  0  0
  197.0000  173.4320  139.9540 C   0  0  1  0  0  3  0  0  0  0  0  0
  197.3980  174.6640  140.7840 C   0  0  1  0  0  3  0  0  0  0  0  0
  195.5760  173.7290  143.4360 C   0  0  0  0  0  2  0  0  0  0  0  0
  194.6120  173.2830  145.6770 C   0  0  0  0  0  1  0  0  0  0  0  0
  195.7740  173.9070  144.9310 C   0  0  0  0  0  2  0  0  0  0  0  0
  1 33  1  1  0  0  0
  1 29  1  0  0  0  0
  1  2  1  0  0  0  0
  2  3  1  0  0  0  0
  3  4  1  0  0  0  0
  4  5  1  0  0  0  0
  6  5  1  0  0  0  0
  7  6  1  6  0  0  0
  7 16  1  0  0  0  0
  8 12  1  0  0  0  0
  8  7  1  0  0  0  0
  9 12  2  0  0  0  0
 10  8  1  0  0  0  0
 11 10  2  0  0  0  0
 11  9  1  0  0  0  0
 13 15  2  0  0  0  0
 15  9  1  0  0  0  0
 15 14  1  0  0  0  0
 16 19  1  0  0  0  0
 17 18  1  0  0  0  0
 19 20  2  0  0  0  0
 19 22  1  0  0  0  0
 20 21  1  0  0  0  0
 21 18  2  0  0  0  0
 22 17  2  0  0  0  0
 24 23  1  1  0  0  0
 24 22  1  0  0  0  0
 24 25  1  0  0  0  0
 25 26  1  0  0  0  0
 28 26  1  0  0  0  0
 28 27  1  0  0  0  0
 30 29  1  0  0  0  0
 30 32  1  0  0  0  0
 32 31  1  0  0  0  0
 34 33  1  0  0  0  0
 35 36  1  0  0  0  0
 35 34  1  0  0  0  0
 37 38  1  0  0  0  0
 37 36  1  0  0  0  0
 38 39  1  0  0  0  0
 39 40  1  0  0  0  0
 41 51  1  1  0  0  0
 43 40  1  6  0  0  0
 43 45  1  0  0  0  0
 43 41  1  0  0  0  0
 45 44  1  6  0  0  0
 45 42  1  0  0  0  0
 45 41  1  0  0  0  0
 46 53  1  6  0  0  0
 47 46  1  0  0  0  0
 49 47  1  0  0  0  0
 50 46  1  0  0  0  0
 51 49  1  1  0  0  0
 51 52  1  0  0  0  0
 52 48  1  1  0  0  0
 52 50  1  0  0  0  0
 53 55  1  0  0  0  0
 55 54  1  0  0  0  0
M  END
>  <MODEL>
6

>  <REMARK>
 VINA RESULT:      -4.3      2.773      6.517
  Name = 
  29 active torsions:
  status: ('A' for Active; 'I' for Inactive)
    1  A    between atoms: C_1  and  C_46
    2  A    between atoms: C_2  and  C_44
    3  A    between atoms: C_2  and  C_49
    4  A    between atoms: C_3  and  C_25
    5  A    between atoms: C_5  and  O_40
    6  A    between atoms: C_5  and  C_45
    7  A    between atoms: C_8  and  O_20
    8  A    between atoms: C_8  and  C_22
    9  A    between atoms: C_12  and  C_42
   10  A    between atoms: N_13  and  C_52
   11  A    between atoms: C_16  and  C_36
   12  A    between atoms: O_20  and  C_42
   13  A    between atoms: C_22  and  O_43
   14  A    between atoms: C_25  and  C_38
   15  A    between atoms: C_26  and  C_45
   16  A    between atoms: C_27  and  C_31
   17  A    between atoms: C_27  and  C_49
   18  A    between atoms: C_27  and  O_54
   19  A    between atoms: C_28  and  C_33
   20  A    between atoms: C_28  and  C_44
   21  A    between atoms: C_31  and  C_35
   22  A    between atoms: C_32  and  C_47
   23  A    between atoms: C_33  and  C_52
   24  A    between atoms: C_35  and  C_51
   25  A    between atoms: C_36  and  C_52
   26  A    between atoms: C_37  and  O_40
   27  A    between atoms: C_41  and  C_55
   28  A    between atoms: O_43  and  C_51
   29  A    between atoms: O_54  and  C_55
                            x       y       z     vdW  Elec       q    Type
                         _______ _______ _______ _____ _____    ______ ____

>  <TORSDO>
F 29

$$$$
=
 OpenBabel11052419323D

 55 58  0  0  1  0  0  0  0  0999 V2000
  193.6640  175.3250  145.1650 C   0  0  1  0  0  3  0  0  0  0  0  0
  192.5640  176.2500  145.6670 C   0  0  0  0  0  2  0  0  0  0  0  0
  192.3080  177.3650  144.6660 C   0  0  0  0  0  2  0  0  0  0  0  0
  191.8060  176.8140  143.3360 C   0  0  0  0  0  2  0  0  0  0  0  0
  190.4960  177.4490  142.8790 C   0  0  0  0  0  2  0  0  0  0  0  0
  189.7010  176.5020  141.9940 C   0  0  0  0  0  2  0  0  0  0  0  0
  188.2120  176.5860  142.2970 C   0  0  1  0  0  3  0  0  0  0  0  0
  187.4210  176.8760  141.1010 N   0  0  0  0  0  0  0  0  0  0  0  0
  186.5490  176.8310  139.0830 C   0  0  0  0  0  0  0  0  0  0  0  0
  186.4390  177.7970  141.0560 C   0  0  0  0  0  3  0  0  0  0  0  0
  185.8660  177.8000  139.7960 C   0  0  0  0  0  3  0  0  0  0  0  0
  187.5050  176.2640  139.9050 C   0  0  0  0  0  3  0  0  0  0  0  0
  185.1590  176.0620  137.3320 O   0  0  0  0  0  1  0  0  0  0  0  0
  187.3070  176.5710  136.7370 O   0  0  0  0  0  0  0  0  0  0  0  0
  186.2970  176.4690  137.6830 C   0  0  0  0  0  0  0  0  0  0  0  0
  187.7510  175.2940  142.9670 C   0  0  0  0  0  2  0  0  0  0  0  0
  188.7980  175.5310  146.6350 C   0  0  0  0  0  3  0  0  0  0  0  0
  189.7640  174.5260  146.6990 C   0  0  0  0  0  3  0  0  0  0  0  0
  188.4470  175.0550  144.2760 C   0  0  0  0  0  0  0  0  0  0  0  0
  189.4020  174.0320  144.3600 C   0  0  0  0  0  3  0  0  0  0  0  0
  190.0620  173.7730  145.5640 C   0  0  0  0  0  3  0  0  0  0  0  0
  188.1260  175.8010  145.4370 C   0  0  0  0  0  0  0  0  0  0  0  0
  187.6680  178.2480  145.2600 C   0  0  0  0  0  1  0  0  0  0  0  0
  187.0690  176.8690  145.4690 C   0  0  2  0  0  3  0  0  0  0  0  0
  186.2380  176.8050  146.7410 C   0  0  0  0  0  2  0  0  0  0  0  0
  184.8850  176.6920  146.4250 O   0  0  0  0  0  0  0  0  0  0  0  0
  185.0000  178.5120  147.7850 O   0  0  0  0  0  1  0  0  0  0  0  0
  184.3670  177.9620  146.6740 C   0  0  0  0  0  2  0  0  0  0  0  0
  194.8800  176.0090  145.0410 O   0  0  0  0  0  0  0  0  0  0  0  0
  195.3500  175.6930  143.7640 C   0  0  0  0  0  2  0  0  0  0  0  0
  197.6600  175.6640  143.1930 O   0  0  0  0  0  1  0  0  0  0  0  0
  196.5870  176.5150  143.4580 C   0  0  0  0  0  2  0  0  0  0  0  0
  193.7920  174.1040  146.0800 C   0  0  0  0  0  2  0  0  0  0  0  0
  193.8120  172.7610  145.3510 C   0  0  0  0  0  2  0  0  0  0  0  0
  195.2230  172.2050  145.1820 C   0  0  0  0  0  2  0  0  0  0  0  0
  195.4020  171.0730  145.9810 O   0  0  0  0  0  0  0  0  0  0  0  0
  196.5910  170.4930  145.5310 C   0  0  0  0  0  2  0  0  0  0  0  0
  196.3150  169.0960  145.0050 C   0  0  0  0  0  2  0  0  0  0  0  0
  196.6010  169.0300  143.6370 O   0  0  0  0  0  0  0  0  0  0  0  0
  195.3680  168.8270  143.0090 C   0  0  0  0  0  2  0  0  0  0  0  0
  194.2460  169.3870  140.8500 C   0  0  2  0  0  3  0  0  0  0  0  0
  196.0510  170.7920  139.8940 O   0  0  0  0  0  1  0  0  0  0  0  0
  195.1060  169.9300  141.9900 C   0  0  2  0  0  3  0  0  0  0  0  0
  196.5890  168.4130  140.4120 C   0  0  0  0  0  1  0  0  0  0  0  0
  195.7310  169.6490  140.6320 C   0  0  1  0  0  0  0  0  0  0  0  0
  191.0620  171.6950  139.0980 C   0  0  1  0  0  3  0  0  0  0  0  0
  192.4430  171.4060  138.4810 C   0  0  0  0  0  2  0  0  0  0  0  0
  192.3680  171.8740  142.1490 C   0  0  0  0  0  1  0  0  0  0  0  0
  192.9790  170.2120  138.9890 O   0  0  0  0  0  0  0  0  0  0  0  0
  190.8430  170.9170  140.4050 C   0  0  0  0  0  2  0  0  0  0  0  0
  193.3610  170.5040  140.3090 C   0  0  1  0  0  3  0  0  0  0  0  0
  192.1330  170.7030  141.2130 C   0  0  1  0  0  3  0  0  0  0  0  0
  190.8910  173.1880  139.3390 C   0  0  0  0  0  2  0  0  0  0  0  0
  188.9860  173.5840  137.8020 C   0  0  0  0  0  1  0  0  0  0  0  0
  189.4260  173.5760  139.2520 C   0  0  0  0  0  2  0  0  0  0  0  0
  1  2  1  1  0  0  0
  1 33  1  0  0  0  0
  3  2  1  0  0  0  0
  4  3  1  0  0  0  0
  5  4  1  0  0  0  0
  6  5  1  0  0  0  0
  7  6  1  6  0  0  0
  7 16  1  0  0  0  0
  8  7  1  0  0  0  0
  9 11  1  0  0  0  0
  9 12  2  0  0  0  0
 10  8  1  0  0  0  0
 11 10  2  0  0  0  0
 12  8  1  0  0  0  0
 13 15  1  0  0  0  0
 14 15  2  0  0  0  0
 15  9  1  0  0  0  0
 16 19  1  0  0  0  0
 17 18  1  0  0  0  0
 19 20  2  0  0  0  0
 19 22  1  0  0  0  0
 20 21  1  0  0  0  0
 21 18  2  0  0  0  0
 22 24  1  0  0  0  0
 22 17  2  0  0  0  0
 24 23  1  1  0  0  0
 24 25  1  0  0  0  0
 26 28  1  0  0  0  0
 26 25  1  0  0  0  0
 28 27  1  0  0  0  0
 29  1  1  0  0  0  0
 30 29  1  0  0  0  0
 31 32  1  0  0  0  0
 32 30  1  0  0  0  0
 34 33  1  0  0  0  0
 35 34  1  0  0  0  0
 35 36  1  0  0  0  0
 37 36  1  0  0  0  0
 38 37  1  0  0  0  0
 39 38  1  0  0  0  0
 40 39  1  0  0  0  0
 41 51  1  6  0  0  0
 41 43  1  0  0  0  0
 42 45  1  0  0  0  0
 43 40  1  1  0  0  0
 45 44  1  6  0  0  0
 45 41  1  0  0  0  0
 45 43  1  0  0  0  0
 46 53  1  1  0  0  0
 46 50  1  0  0  0  0
 47 49  1  0  0  0  0
 47 46  1  0  0  0  0
 50 52  1  0  0  0  0
 51 49  1  6  0  0  0
 51 52  1  0  0  0  0
 52 48  1  1  0  0  0
 54 55  1  0  0  0  0
 55 53  1  0  0  0  0
M  END
>  <MODEL>
7

>  <REMARK>
 VINA RESULT:      -4.3      2.307      6.037
  Name = 
  29 active torsions:
  status: ('A' for Active; 'I' for Inactive)
    1  A    between atoms: C_1  and  C_46
    2  A    between atoms: C_2  and  C_44
    3  A    between atoms: C_2  and  C_49
    4  A    between atoms: C_3  and  C_25
    5  A    between atoms: C_5  and  O_40
    6  A    between atoms: C_5  and  C_45
    7  A    between atoms: C_8  and  O_20
    8  A    between atoms: C_8  and  C_22
    9  A    between atoms: C_12  and  C_42
   10  A    between atoms: N_13  and  C_52
   11  A    between atoms: C_16  and  C_36
   12  A    between atoms: O_20  and  C_42
   13  A    between atoms: C_22  and  O_43
   14  A    between atoms: C_25  and  C_38
   15  A    between atoms: C_26  and  C_45
   16  A    between atoms: C_27  and  C_31
   17  A    between atoms: C_27  and  C_49
   18  A    between atoms: C_27  and  O_54
   19  A    between atoms: C_28  and  C_33
   20  A    between atoms: C_28  and  C_44
   21  A    between atoms: C_31  and  C_35
   22  A    between atoms: C_32  and  C_47
   23  A    between atoms: C_33  and  C_52
   24  A    between atoms: C_35  and  C_51
   25  A    between atoms: C_36  and  C_52
   26  A    between atoms: C_37  and  O_40
   27  A    between atoms: C_41  and  C_55
   28  A    between atoms: O_43  and  C_51
   29  A    between atoms: O_54  and  C_55
                            x       y       z     vdW  Elec       q    Type
                         _______ _______ _______ _____ _____    ______ ____

>  <TORSDO>
F 29

$$$$
=
 OpenBabel11052419323D

 55 58  0  0  1  0  0  0  0  0999 V2000
  189.0430  176.0330  146.3190 C   0  0  1  0  0  3  0  0  0  0  0  0
  189.5620  174.6030  146.3730 C   0  0  0  0  0  2  0  0  0  0  0  0
  189.6320  174.0110  144.9740 C   0  0  0  0  0  2  0  0  0  0  0  0
  189.6300  172.4870  145.0140 C   0  0  0  0  0  2  0  0  0  0  0  0
  190.0120  171.8510  143.6810 C   0  0  0  0  0  2  0  0  0  0  0  0
  188.9620  172.1270  142.6150 C   0  0  0  0  0  2  0  0  0  0  0  0
  189.4990  173.0670  141.5450 C   0  0  1  0  0  3  0  0  0  0  0  0
  189.8110  172.3640  140.3010 N   0  0  0  0  0  0  0  0  0  0  0  0
  190.4960  170.8860  138.8250 C   0  0  0  0  0  0  0  0  0  0  0  0
  189.4370  172.7960  139.0810 C   0  0  0  0  0  3  0  0  0  0  0  0
  189.8540  171.8900  138.1220 C   0  0  0  0  0  3  0  0  0  0  0  0
  190.4570  171.1900  140.1720 C   0  0  0  0  0  3  0  0  0  0  0  0
  192.0870  169.1370  138.8050 O   0  0  0  0  0  1  0  0  0  0  0  0
  190.6390  169.1750  137.0360 O   0  0  0  0  0  0  0  0  0  0  0  0
  191.1160  169.6950  138.2310 C   0  0  0  0  0  0  0  0  0  0  0  0
  188.5010  174.1980  141.3080 C   0  0  0  0  0  2  0  0  0  0  0  0
  188.7530  177.9020  142.2200 C   0  0  0  0  0  3  0  0  0  0  0  0
  190.0430  177.9560  142.7490 C   0  0  0  0  0  3  0  0  0  0  0  0
  189.0200  175.5220  141.7920 C   0  0  0  0  0  0  0  0  0  0  0  0
  190.3060  175.5860  142.3480 C   0  0  0  0  0  3  0  0  0  0  0  0
  190.8170  176.7980  142.8180 C   0  0  0  0  0  3  0  0  0  0  0  0
  188.2240  176.6940  141.7470 C   0  0  0  0  0  0  0  0  0  0  0  0
  186.7260  177.3760  139.8720 C   0  0  0  0  0  1  0  0  0  0  0  0
  186.8120  176.7170  141.2370 C   0  0  2  0  0  3  0  0  0  0  0  0
  185.8610  177.3640  142.2320 C   0  0  0  0  0  2  0  0  0  0  0  0
  185.6350  178.6950  141.8840 O   0  0  0  0  0  0  0  0  0  0  0  0
  183.5580  177.9800  141.2910 O   0  0  0  0  0  1  0  0  0  0  0  0
  184.7090  178.6270  140.8450 C   0  0  0  0  0  2  0  0  0  0  0  0
  187.6430  176.0620  146.2970 O   0  0  0  0  0  0  0  0  0  0  0  0
  187.2920  177.2780  146.8890 C   0  0  0  0  0  2  0  0  0  0  0  0
  185.4110  176.9090  145.4800 O   0  0  0  0  0  1  0  0  0  0  0  0
  186.1460  177.9060  146.1210 C   0  0  0  0  0  2  0  0  0  0  0  0
  189.6080  176.8470  147.4880 C   0  0  0  0  0  2  0  0  0  0  0  0
  191.0550  177.3040  147.3050 C   0  0  0  0  0  2  0  0  0  0  0  0
  191.8340  176.4160  146.3400 C   0  0  0  0  0  2  0  0  0  0  0  0
  193.0220  177.0410  145.9500 O   0  0  0  0  0  0  0  0  0  0  0  0
  193.9290  176.0000  145.7330 C   0  0  0  0  0  2  0  0  0  0  0  0
  193.2280  174.8410  145.0470 C   0  0  0  0  0  2  0  0  0  0  0  0
  193.5800  173.6330  145.6580 O   0  0  0  0  0  0  0  0  0  0  0  0
  193.3850  172.6520  144.6810 C   0  0  0  0  0  2  0  0  0  0  0  0
  193.8610  172.0840  142.2970 C   0  0  2  0  0  3  0  0  0  0  0  0
  196.3150  171.8000  142.5090 O   0  0  0  0  0  1  0  0  0  0  0  0
  194.3450  172.8650  143.5170 C   0  0  2  0  0  3  0  0  0  0  0  0
  194.8560  170.2930  143.8570 C   0  0  0  0  0  1  0  0  0  0  0  0
  195.0630  171.5920  143.0930 C   0  0  1  0  0  0  0  0  0  0  0  0
  194.0510  173.7260  138.3210 C   0  0  1  0  0  3  0  0  0  0  0  0
  194.9600  172.6350  138.9160 C   0  0  0  0  0  2  0  0  0  0  0  0
  193.8760  175.2930  141.2470 C   0  0  0  0  0  1  0  0  0  0  0  0
  194.3030  171.9400  139.9440 O   0  0  0  0  0  0  0  0  0  0  0  0
  192.9020  174.0960  139.2720 C   0  0  0  0  0  2  0  0  0  0  0  0
  194.2560  172.8320  141.0290 C   0  0  1  0  0  3  0  0  0  0  0  0
  193.2780  173.9870  140.7580 C   0  0  1  0  0  3  0  0  0  0  0  0
  194.8670  174.9630  137.9740 C   0  0  0  0  0  2  0  0  0  0  0  0
  196.7450  175.6720  136.5190 C   0  0  0  0  0  1  0  0  0  0  0  0
  195.4970  174.8160  136.6010 C   0  0  0  0  0  2  0  0  0  0  0  0
  1  2  1  1  0  0  0
  1 33  1  0  0  0  0
  3  4  1  0  0  0  0
  3  2  1  0  0  0  0
  5  4  1  0  0  0  0
  6  5  1  0  0  0  0
  7 16  1  6  0  0  0
  7  6  1  0  0  0  0
  8  7  1  0  0  0  0
  9 12  2  0  0  0  0
 10  8  1  0  0  0  0
 11  9  1  0  0  0  0
 11 10  2  0  0  0  0
 12  8  1  0  0  0  0
 14 15  2  0  0  0  0
 15 13  1  0  0  0  0
 15  9  1  0  0  0  0
 16 19  1  0  0  0  0
 17 18  1  0  0  0  0
 18 21  2  0  0  0  0
 19 20  2  0  0  0  0
 20 21  1  0  0  0  0
 22 19  1  0  0  0  0
 22 17  2  0  0  0  0
 24 23  1  6  0  0  0
 24 22  1  0  0  0  0
 24 25  1  0  0  0  0
 26 25  1  0  0  0  0
 28 27  1  0  0  0  0
 28 26  1  0  0  0  0
 29  1  1  0  0  0  0
 29 30  1  0  0  0  0
 31 32  1  0  0  0  0
 32 30  1  0  0  0  0
 34 33  1  0  0  0  0
 35 34  1  0  0  0  0
 36 35  1  0  0  0  0
 37 36  1  0  0  0  0
 38 39  1  0  0  0  0
 38 37  1  0  0  0  0
 40 39  1  0  0  0  0
 41 51  1  6  0  0  0
 41 45  1  0  0  0  0
 41 43  1  0  0  0  0
 42 45  1  0  0  0  0
 43 40  1  1  0  0  0
 45 43  1  0  0  0  0
 45 44  1  1  0  0  0
 46 53  1  1  0  0  0
 46 47  1  0  0  0  0
 46 50  1  0  0  0  0
 47 49  1  0  0  0  0
 50 52  1  0  0  0  0
 51 49  1  6  0  0  0
 52 51  1  0  0  0  0
 52 48  1  6  0  0  0
 54 55  1  0  0  0  0
 55 53  1  0  0  0  0
M  END
>  <MODEL>
8

>  <REMARK>
 VINA RESULT:      -4.1      1.698      3.731
  Name = 
  29 active torsions:
  status: ('A' for Active; 'I' for Inactive)
    1  A    between atoms: C_1  and  C_46
    2  A    between atoms: C_2  and  C_44
    3  A    between atoms: C_2  and  C_49
    4  A    between atoms: C_3  and  C_25
    5  A    between atoms: C_5  and  O_40
    6  A    between atoms: C_5  and  C_45
    7  A    between atoms: C_8  and  O_20
    8  A    between atoms: C_8  and  C_22
    9  A    between atoms: C_12  and  C_42
   10  A    between atoms: N_13  and  C_52
   11  A    between atoms: C_16  and  C_36
   12  A    between atoms: O_20  and  C_42
   13  A    between atoms: C_22  and  O_43
   14  A    between atoms: C_25  and  C_38
   15  A    between atoms: C_26  and  C_45
   16  A    between atoms: C_27  and  C_31
   17  A    between atoms: C_27  and  C_49
   18  A    between atoms: C_27  and  O_54
   19  A    between atoms: C_28  and  C_33
   20  A    between atoms: C_28  and  C_44
   21  A    between atoms: C_31  and  C_35
   22  A    between atoms: C_32  and  C_47
   23  A    between atoms: C_33  and  C_52
   24  A    between atoms: C_35  and  C_51
   25  A    between atoms: C_36  and  C_52
   26  A    between atoms: C_37  and  O_40
   27  A    between atoms: C_41  and  C_55
   28  A    between atoms: O_43  and  C_51
   29  A    between atoms: O_54  and  C_55
                            x       y       z     vdW  Elec       q    Type
                         _______ _______ _______ _____ _____    ______ ____

>  <TORSDO>
F 29

$$$$
=
 OpenBabel11052419323D

 55 58  0  0  1  0  0  0  0  0999 V2000
  185.8100  177.8990  141.2070 C   0  0  1  0  0  3  0  0  0  0  0  0
  186.9390  178.2540  142.1640 C   0  0  0  0  0  2  0  0  0  0  0  0
  188.0740  177.2500  142.0430 C   0  0  0  0  0  2  0  0  0  0  0  0
  189.4340  177.9310  142.1430 C   0  0  0  0  0  2  0  0  0  0  0  0
  190.2310  177.5010  143.3710 C   0  0  0  0  0  2  0  0  0  0  0  0
  189.8130  176.1180  143.8460 C   0  0  0  0  0  2  0  0  0  0  0  0
  189.3730  176.1470  145.3030 C   0  0  1  0  0  3  0  0  0  0  0  0
  187.9970  176.6170  145.4540 N   0  0  0  0  0  0  0  0  0  0  0  0
  186.2120  177.8210  145.9010 C   0  0  0  0  0  0  0  0  0  0  0  0
  186.9200  175.9440  145.0010 C   0  0  0  0  0  3  0  0  0  0  0  0
  185.7740  176.6720  145.2680 C   0  0  0  0  0  3  0  0  0  0  0  0
  187.5900  177.7750  146.0050 C   0  0  0  0  0  3  0  0  0  0  0  0
  184.1770  179.0230  145.9460 O   0  0  0  0  0  0  0  0  0  0  0  0
  185.8200  179.8130  147.3250 O   0  0  0  0  0  1  0  0  0  0  0  0
  185.3510  178.9070  146.3840 C   0  0  0  0  0  0  0  0  0  0  0  0
  189.5590  174.7650  145.9230 C   0  0  0  0  0  2  0  0  0  0  0  0
  193.2090  173.7140  145.4850 C   0  0  0  0  0  3  0  0  0  0  0  0
  193.0870  172.7480  144.4860 C   0  0  0  0  0  3  0  0  0  0  0  0
  190.8050  174.0860  145.4310 C   0  0  0  0  0  0  0  0  0  0  0  0
  190.6950  173.0960  144.4430 C   0  0  0  0  0  3  0  0  0  0  0  0
  191.8300  172.4350  143.9690 C   0  0  0  0  0  3  0  0  0  0  0  0
  192.0800  174.3840  145.9740 C   0  0  0  0  0  0  0  0  0  0  0  0
  191.2120  175.2700  148.1390 C   0  0  0  0  0  1  0  0  0  0  0  0
  192.2970  175.3750  147.0820 C   0  0  2  0  0  3  0  0  0  0  0  0
  192.4310  176.7940  146.5550 C   0  0  0  0  0  2  0  0  0  0  0  0
  193.2880  176.8180  145.4550 O   0  0  0  0  0  0  0  0  0  0  0  0
  195.4810  177.2170  144.9970 O   0  0  0  0  0  1  0  0  0  0  0  0
  194.4820  177.3300  145.9610 C   0  0  0  0  0  2  0  0  0  0  0  0
  184.7180  178.7600  141.3730 O   0  0  0  0  0  0  0  0  0  0  0  0
  183.7500  178.3010  140.4770 C   0  0  0  0  0  2  0  0  0  0  0  0
  182.4290  178.4100  142.4530 O   0  0  0  0  0  1  0  0  0  0  0  0
  182.3680  178.5170  141.0640 C   0  0  0  0  0  2  0  0  0  0  0  0
  186.3180  177.9010  139.7610 C   0  0  0  0  0  2  0  0  0  0  0  0
  186.5560  176.5120  139.1680 C   0  0  0  0  0  2  0  0  0  0  0  0
  187.0560  176.5660  137.7280 C   0  0  0  0  0  2  0  0  0  0  0  0
  187.0000  175.2980  137.1430 O   0  0  0  0  0  0  0  0  0  0  0  0
  188.1380  174.6320  137.6050 C   0  0  0  0  0  2  0  0  0  0  0  0
  188.9800  174.1740  136.4270 C   0  0  0  0  0  2  0  0  0  0  0  0
  190.3400  174.3340  136.7130 O   0  0  0  0  0  0  0  0  0  0  0  0
  190.7930  173.0640  137.0860 C   0  0  0  0  0  2  0  0  0  0  0  0
  192.7400  172.3200  138.4600 C   0  0  2  0  0  3  0  0  0  0  0  0
  191.4970  171.8040  140.5420 O   0  0  0  0  0  1  0  0  0  0  0  0
  191.4360  173.1160  138.4660 C   0  0  2  0  0  3  0  0  0  0  0  0
  190.8910  170.5280  138.4880 C   0  0  0  0  0  1  0  0  0  0  0  0
  191.5020  171.7560  139.1460 C   0  0  1  0  0  0  0  0  0  0  0  0
  196.2160  173.3710  140.7730 C   0  0  1  0  0  3  0  0  0  0  0  0
  194.9600  172.6350  141.2730 C   0  0  0  0  0  2  0  0  0  0  0  0
  194.4010  175.2480  138.7160 C   0  0  0  0  0  1  0  0  0  0  0  0
  194.3250  171.9550  140.2220 O   0  0  0  0  0  0  0  0  0  0  0  0
  196.1920  173.5770  139.2500 C   0  0  0  0  0  2  0  0  0  0  0  0
  193.7230  172.9520  139.4380 C   0  0  1  0  0  3  0  0  0  0  0  0
  194.7780  173.7790  138.6820 C   0  0  1  0  0  3  0  0  0  0  0  0
  196.3650  174.7080  141.4830 C   0  0  0  0  0  2  0  0  0  0  0  0
  194.2010  175.6780  142.2060 C   0  0  0  0  0  1  0  0  0  0  0  0
  195.3740  174.8160  142.6280 C   0  0  0  0  0  2  0  0  0  0  0  0
  1 33  1  6  0  0  0
  1 29  1  0  0  0  0
  1  2  1  0  0  0  0
  3  4  1  0  0  0  0
  3  2  1  0  0  0  0
  4  5  1  0  0  0  0
  5  6  1  0  0  0  0
  7  6  1  6  0  0  0
  7  8  1  0  0  0  0
  7 16  1  0  0  0  0
  8 12  1  0  0  0  0
  9 12  2  0  0  0  0
  9 15  1  0  0  0  0
 10 11  2  0  0  0  0
 10  8  1  0  0  0  0
 11  9  1  0  0  0  0
 13 15  2  0  0  0  0
 15 14  1  0  0  0  0
 17 22  1  0  0  0  0
 18 17  2  0  0  0  0
 19 16  1  0  0  0  0
 19 22  2  0  0  0  0
 20 19  1  0  0  0  0
 21 20  2  0  0  0  0
 21 18  1  0  0  0  0
 22 24  1  0  0  0  0
 24 23  1  1  0  0  0
 25 24  1  0  0  0  0
 26 28  1  0  0  0  0
 26 25  1  0  0  0  0
 27 28  1  0  0  0  0
 30 32  1  0  0  0  0
 30 29  1  0  0  0  0
 32 31  1  0  0  0  0
 34 33  1  0  0  0  0
 35 34  1  0  0  0  0
 36 37  1  0  0  0  0
 36 35  1  0  0  0  0
 38 39  1  0  0  0  0
 38 37  1  0  0  0  0
 39 40  1  0  0  0  0
 41 43  1  0  0  0  0
 41 45  1  0  0  0  0
 41 51  1  1  0  0  0
 43 40  1  6  0  0  0
 43 45  1  0  0  0  0
 45 44  1  6  0  0  0
 45 42  1  0  0  0  0
 46 47  1  0  0  0  0
 46 53  1  1  0  0  0
 49 47  1  0  0  0  0
 50 46  1  0  0  0  0
 51 49  1  6  0  0  0
 52 48  1  1  0  0  0
 52 50  1  0  0  0  0
 52 51  1  0  0  0  0
 53 55  1  0  0  0  0
 54 55  1  0  0  0  0
M  END
>  <MODEL>
9

>  <REMARK>
 VINA RESULT:      -4.1      2.544      7.891
  Name = 
  29 active torsions:
  status: ('A' for Active; 'I' for Inactive)
    1  A    between atoms: C_1  and  C_46
    2  A    between atoms: C_2  and  C_44
    3  A    between atoms: C_2  and  C_49
    4  A    between atoms: C_3  and  C_25
    5  A    between atoms: C_5  and  O_40
    6  A    between atoms: C_5  and  C_45
    7  A    between atoms: C_8  and  O_20
    8  A    between atoms: C_8  and  C_22
    9  A    between atoms: C_12  and  C_42
   10  A    between atoms: N_13  and  C_52
   11  A    between atoms: C_16  and  C_36
   12  A    between atoms: O_20  and  C_42
   13  A    between atoms: C_22  and  O_43
   14  A    between atoms: C_25  and  C_38
   15  A    between atoms: C_26  and  C_45
   16  A    between atoms: C_27  and  C_31
   17  A    between atoms: C_27  and  C_49
   18  A    between atoms: C_27  and  O_54
   19  A    between atoms: C_28  and  C_33
   20  A    between atoms: C_28  and  C_44
   21  A    between atoms: C_31  and  C_35
   22  A    between atoms: C_32  and  C_47
   23  A    between atoms: C_33  and  C_52
   24  A    between atoms: C_35  and  C_51
   25  A    between atoms: C_36  and  C_52
   26  A    between atoms: C_37  and  O_40
   27  A    between atoms: C_41  and  C_55
   28  A    between atoms: O_43  and  C_51
   29  A    between atoms: O_54  and  C_55
                            x       y       z     vdW  Elec       q    Type
                         _______ _______ _______ _____ _____    ______ ____

>  <TORSDO>
F 29

$$$$
