=
 OpenBabel11052417353D

 25 27  0  0  1  0  0  0  0  0999 V2000
  186.0170  177.0950  143.0330 C   0  0  0  0  0  0  0  0  0  0  0  0
  186.3270  177.0470  144.4760 C   0  0  0  0  0  0  0  0  0  0  0  0
  184.4760  178.9670  143.3380 C   0  0  0  0  0  2  0  0  0  0  0  0
  186.8520  176.9480  142.0090 C   0  0  0  0  0  0  0  0  0  0  0  0
  184.3590  178.6260  144.8310 C   0  0  0  0  0  2  0  0  0  0  0  0
  186.1760  177.5040  140.8450 C   0  0  0  0  0  0  0  0  0  0  0  0
  185.8240  177.8050  146.7350 C   0  0  0  0  0  0  0  0  0  0  0  0
  185.0130  178.5910  147.7100 C   0  0  0  0  0  1  0  0  0  0  0  0
  187.3860  176.2820  144.9770 C   0  0  0  0  0  3  0  0  0  0  0  0
  184.7380  177.6910  142.5470 C   0  0  1  0  0  3  0  0  0  0  0  0
  185.0090  177.9710  141.1430 N   0  0  0  0  0  0  0  0  0  0  0  0
  186.8840  177.0340  147.2190 C   0  0  0  0  0  3  0  0  0  0  0  0
  187.6680  176.2790  146.3430 C   0  0  0  0  0  0  0  0  0  0  0  0
  185.5400  177.8270  145.3560 C   0  0  0  0  0  0  0  0  0  0  0  0
  186.4690  176.4610  138.6330 C   0  0  0  0  0  1  0  0  0  0  0  0
  186.7860  177.6670  139.4940 C   0  0  0  0  0  2  0  0  0  0  0  0
  188.4970  175.1370  141.6590 C   0  0  0  0  0  1  0  0  0  0  0  0
  188.3000  176.5820  142.0770 C   0  0  0  0  0  2  0  0  0  0  0  0
  188.7840  175.4480  146.8720 C   0  0  0  0  0  2  0  0  0  0  0  0
  189.5890  174.8620  145.7240 C   0  0  0  0  0  2  0  0  0  0  0  0
  190.9800  175.4730  145.6840 C   0  0  2  0  0  3  0  0  0  0  0  0
  191.2580  176.1280  146.9480 N   0  0  0  0  0  1  0  0  0  0  0  0
  191.0960  176.4620  144.5700 C   0  0  0  0  0  0  0  0  0  0  0  0
  191.6350  176.1210  143.4850 O   0  0  0  0  0  0  0  0  0  0  0  0
  190.6080  177.7540  144.7220 O   0  0  0  0  0  1  0  0  0  0  0  0
  1  2  1  0  0  0  0
  2  9  2  0  0  0  0
  2 14  1  0  0  0  0
  3  5  1  0  0  0  0
  4 18  1  0  0  0  0
  4  1  2  0  0  0  0
  5 14  1  0  0  0  0
  6 11  2  0  0  0  0
  6  4  1  0  0  0  0
  7 12  1  0  0  0  0
  7  8  1  0  0  0  0
  9 13  1  0  0  0  0
 10  1  1  0  0  0  0
 10  3  1  1  0  0  0
 11 10  1  0  0  0  0
 13 19  1  0  0  0  0
 13 12  2  0  0  0  0
 14  7  2  0  0  0  0
 15 16  1  0  0  0  0
 16  6  1  0  0  0  0
 17 18  1  0  0  0  0
 20 19  1  0  0  0  0
 21 20  1  0  0  0  0
 21 22  1  1  0  0  0
 23 25  1  0  0  0  0
 23 21  1  0  0  0  0
 24 23  2  0  0  0  0
M  END
>  <MODEL>
1

>  <REMARK>
 VINA RESULT:      -6.8      0.000      0.000
  Name = 
  6 active torsions:
  status: ('A' for Active; 'I' for Inactive)
    1  A    between atoms: C_2  and  CA_21
    2  A    between atoms: C_5  and  C_22
    3  A    between atoms: C_6  and  C_15
    4  A    between atoms: C_6  and  C_23
    5  A    between atoms: C_10  and  C_11
    6  A    between atoms: C_15  and  CA_21
                            x       y       z     vdW  Elec       q    Type
                         _______ _______ _______ _____ _____    ______ ____

>  <TORSDO>
F 6

$$$$
=
 OpenBabel11052417353D

 25 27  0  0  1  0  0  0  0  0999 V2000
  187.4640  177.5260  143.5080 C   0  0  0  0  0  0  0  0  0  0  0  0
  188.1300  176.3240  142.9680 C   0  0  0  0  0  0  0  0  0  0  0  0
  186.0640  177.7490  141.5180 C   0  0  0  0  0  2  0  0  0  0  0  0
  187.0650  177.7540  144.7560 C   0  0  0  0  0  0  0  0  0  0  0  0
  187.0480  176.8740  140.7280 C   0  0  0  0  0  2  0  0  0  0  0  0
  186.1020  178.8440  144.6870 C   0  0  0  0  0  0  0  0  0  0  0  0
  188.5140  174.8320  141.0820 C   0  0  0  0  0  0  0  0  0  0  0  0
  188.3200  174.4350  139.6570 C   0  0  0  0  0  1  0  0  0  0  0  0
  188.9490  175.5160  143.7650 C   0  0  0  0  0  3  0  0  0  0  0  0
  186.8200  178.5160  142.5950 C   0  0  1  0  0  3  0  0  0  0  0  0
  185.9170  179.2480  143.4740 N   0  0  0  0  0  0  0  0  0  0  0  0
  189.3300  174.0360  141.8910 C   0  0  0  0  0  3  0  0  0  0  0  0
  189.5430  174.3720  143.2310 C   0  0  0  0  0  0  0  0  0  0  0  0
  187.8970  175.9810  141.6160 C   0  0  0  0  0  0  0  0  0  0  0  0
  184.0040  178.5740  145.9510 C   0  0  0  0  0  1  0  0  0  0  0  0
  185.2990  179.3540  145.8350 C   0  0  0  0  0  2  0  0  0  0  0  0
  188.4490  177.4240  146.7760 C   0  0  0  0  0  1  0  0  0  0  0  0
  187.3010  176.8810  145.9460 C   0  0  0  0  0  2  0  0  0  0  0  0
  190.4280  173.5270  144.0780 C   0  0  0  0  0  2  0  0  0  0  0  0
  190.5750  174.1450  145.4580 C   0  0  0  0  0  2  0  0  0  0  0  0
  191.9460  174.7810  145.6130 C   0  0  2  0  0  3  0  0  0  0  0  0
  192.9640  173.7460  145.6070 N   0  0  0  0  0  1  0  0  0  0  0  0
  192.0320  175.5600  146.8850 C   0  0  0  0  0  0  0  0  0  0  0  0
  192.8680  176.4950  146.9890 O   0  0  0  0  0  0  0  0  0  0  0  0
  191.1920  175.2640  147.9510 O   0  0  0  0  0  1  0  0  0  0  0  0
  1  4  2  0  0  0  0
  2  1  1  0  0  0  0
  2  9  1  0  0  0  0
  4 18  1  0  0  0  0
  5  3  1  0  0  0  0
  5 14  1  0  0  0  0
  6  4  1  0  0  0  0
  6 16  1  0  0  0  0
  7 14  1  0  0  0  0
  7 12  2  0  0  0  0
  8  7  1  0  0  0  0
 10  3  1  6  0  0  0
 10 11  1  0  0  0  0
 10  1  1  0  0  0  0
 11  6  2  0  0  0  0
 12 13  1  0  0  0  0
 13  9  2  0  0  0  0
 13 19  1  0  0  0  0
 14  2  2  0  0  0  0
 16 15  1  0  0  0  0
 18 17  1  0  0  0  0
 19 20  1  0  0  0  0
 20 21  1  0  0  0  0
 21 22  1  1  0  0  0
 21 23  1  0  0  0  0
 23 24  2  0  0  0  0
 23 25  1  0  0  0  0
M  END
>  <MODEL>
2

>  <REMARK>
 VINA RESULT:      -6.5      1.913      4.612
  Name = 
  6 active torsions:
  status: ('A' for Active; 'I' for Inactive)
    1  A    between atoms: C_2  and  CA_21
    2  A    between atoms: C_5  and  C_22
    3  A    between atoms: C_6  and  C_15
    4  A    between atoms: C_6  and  C_23
    5  A    between atoms: C_10  and  C_11
    6  A    between atoms: C_15  and  CA_21
                            x       y       z     vdW  Elec       q    Type
                         _______ _______ _______ _____ _____    ______ ____

>  <TORSDO>
F 6

$$$$
=
 OpenBabel11052417353D

 25 27  0  0  1  0  0  0  0  0999 V2000
  185.5100  177.4520  143.9050 C   0  0  0  0  0  0  0  0  0  0  0  0
  186.5520  177.2650  144.9340 C   0  0  0  0  0  0  0  0  0  0  0  0
  184.6350  179.4380  145.0280 C   0  0  0  0  0  2  0  0  0  0  0  0
  185.6180  177.3010  142.5880 C   0  0  0  0  0  0  0  0  0  0  0  0
  185.3160  178.9990  146.3330 C   0  0  0  0  0  2  0  0  0  0  0  0
  184.4900  178.0070  141.9990 C   0  0  0  0  0  0  0  0  0  0  0  0
  187.4700  177.8970  147.0990 C   0  0  0  0  0  0  0  0  0  0  0  0
  187.4320  178.6830  148.3660 C   0  0  0  0  0  1  0  0  0  0  0  0
  187.6080  176.3640  144.7580 C   0  0  0  0  0  3  0  0  0  0  0  0
  184.2590  178.2060  144.2140 C   0  0  1  0  0  3  0  0  0  0  0  0
  183.7460  178.5630  142.8970 N   0  0  0  0  0  0  0  0  0  0  0  0
  188.5170  176.9900  146.9080 C   0  0  0  0  0  3  0  0  0  0  0  0
  188.5910  176.2300  145.7380 C   0  0  0  0  0  0  0  0  0  0  0  0
  186.4800  178.0500  146.1080 C   0  0  0  0  0  0  0  0  0  0  0  0
  182.8300  177.9140  140.1810 C   0  0  0  0  0  1  0  0  0  0  0  0
  184.2730  178.2100  140.5370 C   0  0  0  0  0  2  0  0  0  0  0  0
  187.7640  177.9290  141.5340 C   0  0  0  0  0  1  0  0  0  0  0  0
  186.8080  176.7900  141.8400 C   0  0  0  0  0  2  0  0  0  0  0  0
  189.7000  175.2560  145.5540 C   0  0  0  0  0  2  0  0  0  0  0  0
  190.4850  175.5890  144.2950 C   0  0  0  0  0  2  0  0  0  0  0  0
  191.2570  176.8850  144.4780 C   0  0  2  0  0  3  0  0  0  0  0  0
  191.1950  177.6640  143.2550 N   0  0  0  0  0  1  0  0  0  0  0  0
  192.6850  176.6100  144.8250 C   0  0  0  0  0  0  0  0  0  0  0  0
  193.0400  176.5860  146.0320 O   0  0  0  0  0  1  0  0  0  0  0  0
  193.6200  176.3760  143.8250 O   0  0  0  0  0  0  0  0  0  0  0  0
  1 10  1  0  0  0  0
  1  2  1  0  0  0  0
  2 14  1  0  0  0  0
  3  5  1  0  0  0  0
  4  1  2  0  0  0  0
  6  4  1  0  0  0  0
  6 11  2  0  0  0  0
  7  8  1  0  0  0  0
  9  2  2  0  0  0  0
  9 13  1  0  0  0  0
 10  3  1  1  0  0  0
 11 10  1  0  0  0  0
 12  7  1  0  0  0  0
 13 12  2  0  0  0  0
 14  5  1  0  0  0  0
 14  7  2  0  0  0  0
 15 16  1  0  0  0  0
 16  6  1  0  0  0  0
 17 18  1  0  0  0  0
 18  4  1  0  0  0  0
 19 13  1  0  0  0  0
 20 21  1  0  0  0  0
 20 19  1  0  0  0  0
 21 22  1  6  0  0  0
 21 23  1  0  0  0  0
 23 24  1  0  0  0  0
 25 23  2  0  0  0  0
M  END
>  <MODEL>
3

>  <REMARK>
 VINA RESULT:      -6.5      1.719      2.209
  Name = 
  6 active torsions:
  status: ('A' for Active; 'I' for Inactive)
    1  A    between atoms: C_2  and  CA_21
    2  A    between atoms: C_5  and  C_22
    3  A    between atoms: C_6  and  C_15
    4  A    between atoms: C_6  and  C_23
    5  A    between atoms: C_10  and  C_11
    6  A    between atoms: C_15  and  CA_21
                            x       y       z     vdW  Elec       q    Type
                         _______ _______ _______ _____ _____    ______ ____

>  <TORSDO>
F 6

$$$$
=
 OpenBabel11052417353D

 25 27  0  0  1  0  0  0  0  0999 V2000
  187.7120  177.4350  143.8590 C   0  0  0  0  0  0  0  0  0  0  0  0
  188.4830  176.2260  144.2100 C   0  0  0  0  0  0  0  0  0  0  0  0
  187.0180  176.4770  141.7210 C   0  0  0  0  0  2  0  0  0  0  0  0
  186.9450  178.1790  144.6510 C   0  0  0  0  0  0  0  0  0  0  0  0
  188.1780  175.4740  141.7940 C   0  0  0  0  0  2  0  0  0  0  0  0
  186.0820  178.9570  143.7740 C   0  0  0  0  0  0  0  0  0  0  0  0
  189.4040  174.0790  143.5240 C   0  0  0  0  0  0  0  0  0  0  0  0
  189.6600  173.0210  142.5030 C   0  0  0  0  0  1  0  0  0  0  0  0
  188.9870  176.0220  145.4990 C   0  0  0  0  0  3  0  0  0  0  0  0
  187.4150  177.7640  142.4340 C   0  0  1  0  0  3  0  0  0  0  0  0
  186.3000  178.6980  142.5270 N   0  0  0  0  0  0  0  0  0  0  0  0
  189.9020  173.8910  144.8170 C   0  0  0  0  0  3  0  0  0  0  0  0
  189.6900  174.8570  145.8040 C   0  0  0  0  0  0  0  0  0  0  0  0
  188.6800  175.2450  143.2090 C   0  0  0  0  0  0  0  0  0  0  0  0
  183.6450  179.1200  144.0970 C   0  0  0  0  0  1  0  0  0  0  0  0
  184.9710  179.8430  144.2280 C   0  0  0  0  0  2  0  0  0  0  0  0
  185.6800  177.0170  146.4280 C   0  0  0  0  0  1  0  0  0  0  0  0
  186.7700  178.0290  146.1280 C   0  0  0  0  0  2  0  0  0  0  0  0
  190.2390  174.6550  147.1720 C   0  0  0  0  0  2  0  0  0  0  0  0
  191.5360  175.4310  147.3350 C   0  0  0  0  0  2  0  0  0  0  0  0
  192.3810  175.3240  146.0760 C   0  0  2  0  0  3  0  0  0  0  0  0
  193.2610  174.1740  146.1800 N   0  0  0  0  0  1  0  0  0  0  0  0
  193.1940  176.5610  145.8730 C   0  0  0  0  0  0  0  0  0  0  0  0
  193.0850  177.2100  144.8010 O   0  0  0  0  0  0  0  0  0  0  0  0
  194.0650  177.0010  146.8630 O   0  0  0  0  0  1  0  0  0  0  0  0
  1  2  1  0  0  0  0
  1  4  2  0  0  0  0
  2  9  1  0  0  0  0
  3  5  1  0  0  0  0
  4 18  1  0  0  0  0
  5 14  1  0  0  0  0
  6 16  1  0  0  0  0
  6  4  1  0  0  0  0
  7 12  2  0  0  0  0
  8  7  1  0  0  0  0
  9 13  2  0  0  0  0
 10  3  1  6  0  0  0
 10 11  1  0  0  0  0
 10  1  1  0  0  0  0
 11  6  2  0  0  0  0
 12 13  1  0  0  0  0
 13 19  1  0  0  0  0
 14  7  1  0  0  0  0
 14  2  2  0  0  0  0
 15 16  1  0  0  0  0
 18 17  1  0  0  0  0
 19 20  1  0  0  0  0
 21 22  1  1  0  0  0
 21 20  1  0  0  0  0
 23 21  1  0  0  0  0
 23 25  1  0  0  0  0
 24 23  2  0  0  0  0
M  END
>  <MODEL>
4

>  <REMARK>
 VINA RESULT:      -6.3      1.813      4.192
  Name = 
  6 active torsions:
  status: ('A' for Active; 'I' for Inactive)
    1  A    between atoms: C_2  and  CA_21
    2  A    between atoms: C_5  and  C_22
    3  A    between atoms: C_6  and  C_15
    4  A    between atoms: C_6  and  C_23
    5  A    between atoms: C_10  and  C_11
    6  A    between atoms: C_15  and  CA_21
                            x       y       z     vdW  Elec       q    Type
                         _______ _______ _______ _____ _____    ______ ____

>  <TORSDO>
F 6

$$$$
=
 OpenBabel11052417353D

 25 27  0  0  1  0  0  0  0  0999 V2000
  191.0620  175.1870  144.8020 C   0  0  0  0  0  0  0  0  0  0  0  0
  189.6810  175.6230  144.5150 C   0  0  0  0  0  0  0  0  0  0  0  0
  191.6660  175.2480  142.4350 C   0  0  0  0  0  2  0  0  0  0  0  0
  191.8500  175.5630  145.8050 C   0  0  0  0  0  0  0  0  0  0  0  0
  190.1790  175.1830  142.0550 C   0  0  0  0  0  2  0  0  0  0  0  0
  193.2080  175.2150  145.4120 C   0  0  0  0  0  0  0  0  0  0  0  0
  187.9480  176.0820  142.8660 C   0  0  0  0  0  0  0  0  0  0  0  0
  187.4420  176.1190  141.4630 C   0  0  0  0  0  1  0  0  0  0  0  0
  188.8080  176.0240  145.5330 C   0  0  0  0  0  3  0  0  0  0  0  0
  191.8830  174.5150  143.7530 C   0  0  1  0  0  3  0  0  0  0  0  0
  193.2480  174.6710  144.2410 N   0  0  0  0  0  0  0  0  0  0  0  0
  187.0880  176.4770  143.8960 C   0  0  0  0  0  3  0  0  0  0  0  0
  187.5180  176.4550  145.2250 C   0  0  0  0  0  0  0  0  0  0  0  0
  189.2580  175.6590  143.1650 C   0  0  0  0  0  0  0  0  0  0  0  0
  195.5780  174.6480  145.7760 C   0  0  0  0  0  1  0  0  0  0  0  0
  194.4390  175.5640  146.1780 C   0  0  0  0  0  2  0  0  0  0  0  0
  191.2090  175.6030  148.1910 C   0  0  0  0  0  1  0  0  0  0  0  0
  191.4790  176.4420  146.9560 C   0  0  0  0  0  2  0  0  0  0  0  0
  186.5880  176.8620  146.3130 C   0  0  0  0  0  2  0  0  0  0  0  0
  186.4870  178.3770  146.3750 C   0  0  0  0  0  2  0  0  0  0  0  0
  185.0480  178.8220  146.1720 C   0  0  2  0  0  3  0  0  0  0  0  0
  184.1510  177.7340  146.5130 N   0  0  0  0  0  1  0  0  0  0  0  0
  184.8140  179.2410  144.7570 C   0  0  0  0  0  0  0  0  0  0  0  0
  183.6910  179.0400  144.2250 O   0  0  0  0  0  1  0  0  0  0  0  0
  185.8250  179.8540  144.0270 O   0  0  0  0  0  0  0  0  0  0  0  0
  1  4  2  0  0  0  0
  2  1  1  0  0  0  0
  2  9  1  0  0  0  0
  4 18  1  0  0  0  0
  5  3  1  0  0  0  0
  5 14  1  0  0  0  0
  6  4  1  0  0  0  0
  6 16  1  0  0  0  0
  7 14  1  0  0  0  0
  7 12  2  0  0  0  0
  8  7  1  0  0  0  0
 10  3  1  6  0  0  0
 10 11  1  0  0  0  0
 10  1  1  0  0  0  0
 11  6  2  0  0  0  0
 12 13  1  0  0  0  0
 13  9  2  0  0  0  0
 13 19  1  0  0  0  0
 14  2  2  0  0  0  0
 15 16  1  0  0  0  0
 18 17  1  0  0  0  0
 19 20  1  0  0  0  0
 21 20  1  0  0  0  0
 21 22  1  6  0  0  0
 23 21  1  0  0  0  0
 24 23  1  0  0  0  0
 25 23  2  0  0  0  0
M  END
>  <MODEL>
5

>  <REMARK>
 VINA RESULT:      -6.2      2.828      6.784
  Name = 
  6 active torsions:
  status: ('A' for Active; 'I' for Inactive)
    1  A    between atoms: C_2  and  CA_21
    2  A    between atoms: C_5  and  C_22
    3  A    between atoms: C_6  and  C_15
    4  A    between atoms: C_6  and  C_23
    5  A    between atoms: C_10  and  C_11
    6  A    between atoms: C_15  and  CA_21
                            x       y       z     vdW  Elec       q    Type
                         _______ _______ _______ _____ _____    ______ ____

>  <TORSDO>
F 6

$$$$
=
 OpenBabel11052417353D

 25 27  0  0  1  0  0  0  0  0999 V2000
  191.5310  176.6150  145.1750 C   0  0  0  0  0  0  0  0  0  0  0  0
  190.0930  176.8800  144.9730 C   0  0  0  0  0  0  0  0  0  0  0  0
  191.1220  175.5770  147.3490 C   0  0  0  0  0  2  0  0  0  0  0  0
  192.4230  176.1980  144.2820 C   0  0  0  0  0  0  0  0  0  0  0  0
  189.7560  176.2760  147.4250 C   0  0  0  0  0  2  0  0  0  0  0  0
  193.5510  175.6770  145.0410 C   0  0  0  0  0  0  0  0  0  0  0  0
  187.8380  176.9140  145.8910 C   0  0  0  0  0  0  0  0  0  0  0  0
  186.8700  176.7370  147.0120 C   0  0  0  0  0  1  0  0  0  0  0  0
  189.5870  177.2920  143.7350 C   0  0  0  0  0  3  0  0  0  0  0  0
  192.0880  176.4410  146.5490 C   0  0  1  0  0  3  0  0  0  0  0  0
  193.3560  175.7610  146.3150 N   0  0  0  0  0  0  0  0  0  0  0  0
  187.3490  177.3270  144.6470 C   0  0  0  0  0  3  0  0  0  0  0  0
  188.2190  177.5090  143.5700 C   0  0  0  0  0  0  0  0  0  0  0  0
  189.2150  176.6780  146.0640 C   0  0  0  0  0  0  0  0  0  0  0  0
  194.7210  173.5190  144.8270 C   0  0  0  0  0  1  0  0  0  0  0  0
  194.7370  174.9880  144.4530 C   0  0  0  0  0  2  0  0  0  0  0  0
  191.7140  174.5930  142.5420 C   0  0  0  0  0  1  0  0  0  0  0  0
  192.2020  176.0040  142.8170 C   0  0  0  0  0  2  0  0  0  0  0  0
  187.6900  177.9640  142.2560 C   0  0  0  0  0  2  0  0  0  0  0  0
  186.3860  178.7200  142.4510 C   0  0  0  0  0  2  0  0  0  0  0  0
  185.2310  177.9620  141.8170 C   0  0  2  0  0  3  0  0  0  0  0  0
  185.1290  178.3180  140.4140 N   0  0  0  0  0  1  0  0  0  0  0  0
  183.9440  178.2750  142.5090 C   0  0  0  0  0  0  0  0  0  0  0  0
  183.9600  178.7000  143.6930 O   0  0  0  0  0  1  0  0  0  0  0  0
  182.7320  178.1050  141.8520 O   0  0  0  0  0  0  0  0  0  0  0  0
  1 10  1  0  0  0  0
  2  1  1  0  0  0  0
  2 14  1  0  0  0  0
  3  5  1  0  0  0  0
  4  6  1  0  0  0  0
  4  1  2  0  0  0  0
  6 11  2  0  0  0  0
  7 14  2  0  0  0  0
  7  8  1  0  0  0  0
  9  2  2  0  0  0  0
 10  3  1  1  0  0  0
 11 10  1  0  0  0  0
 12  7  1  0  0  0  0
 13  9  1  0  0  0  0
 13 12  2  0  0  0  0
 14  5  1  0  0  0  0
 16 15  1  0  0  0  0
 16  6  1  0  0  0  0
 17 18  1  0  0  0  0
 18  4  1  0  0  0  0
 19 20  1  0  0  0  0
 19 13  1  0  0  0  0
 21 22  1  6  0  0  0
 21 20  1  0  0  0  0
 21 23  1  0  0  0  0
 23 24  1  0  0  0  0
 25 23  2  0  0  0  0
M  END
>  <MODEL>
6

>  <REMARK>
 VINA RESULT:      -6.1      2.862      6.741
  Name = 
  6 active torsions:
  status: ('A' for Active; 'I' for Inactive)
    1  A    between atoms: C_2  and  CA_21
    2  A    between atoms: C_5  and  C_22
    3  A    between atoms: C_6  and  C_15
    4  A    between atoms: C_6  and  C_23
    5  A    between atoms: C_10  and  C_11
    6  A    between atoms: C_15  and  CA_21
                            x       y       z     vdW  Elec       q    Type
                         _______ _______ _______ _____ _____    ______ ____

>  <TORSDO>
F 6

$$$$
=
 OpenBabel11052417353D

 25 27  0  0  1  0  0  0  0  0999 V2000
  185.5060  177.4980  143.9140 C   0  0  0  0  0  0  0  0  0  0  0  0
  186.5370  177.2840  144.9470 C   0  0  0  0  0  0  0  0  0  0  0  0
  184.6820  179.5100  145.0300 C   0  0  0  0  0  2  0  0  0  0  0  0
  185.6160  177.3420  142.5980 C   0  0  0  0  0  0  0  0  0  0  0  0
  185.3450  179.0540  146.3380 C   0  0  0  0  0  2  0  0  0  0  0  0
  184.5110  178.0790  142.0020 C   0  0  0  0  0  0  0  0  0  0  0  0
  187.4640  177.8930  147.1160 C   0  0  0  0  0  0  0  0  0  0  0  0
  187.4420  178.6820  148.3820 C   0  0  0  0  0  1  0  0  0  0  0  0
  187.5680  176.3520  144.7770 C   0  0  0  0  0  3  0  0  0  0  0  0
  184.2760  178.2880  144.2160 C   0  0  1  0  0  3  0  0  0  0  0  0
  183.7780  178.6570  142.8970 N   0  0  0  0  0  0  0  0  0  0  0  0
  188.4850  176.9570  146.9310 C   0  0  0  0  0  3  0  0  0  0  0  0
  188.5430  176.1930  145.7630 C   0  0  0  0  0  0  0  0  0  0  0  0
  186.4830  178.0720  146.1210 C   0  0  0  0  0  0  0  0  0  0  0  0
  182.8850  177.9180  140.1580 C   0  0  0  0  0  1  0  0  0  0  0  0
  184.3060  178.2860  140.5400 C   0  0  0  0  0  2  0  0  0  0  0  0
  187.7790  177.9090  141.5460 C   0  0  0  0  0  1  0  0  0  0  0  0
  186.7940  176.7970  141.8550 C   0  0  0  0  0  2  0  0  0  0  0  0
  189.6250  175.1870  145.5840 C   0  0  0  0  0  2  0  0  0  0  0  0
  189.9700  175.0460  144.1110 C   0  0  0  0  0  2  0  0  0  0  0  0
  190.5880  173.6850  143.8360 C   0  0  2  0  0  3  0  0  0  0  0  0
  191.9620  173.8550  143.4030 N   0  0  0  0  0  1  0  0  0  0  0  0
  189.8180  172.9520  142.7860 C   0  0  0  0  0  0  0  0  0  0  0  0
  189.9430  173.2800  141.5780 O   0  0  0  0  0  0  0  0  0  0  0  0
  188.9700  171.9080  143.1350 O   0  0  0  0  0  1  0  0  0  0  0  0
  1 10  1  0  0  0  0
  1  2  1  0  0  0  0
  2 14  1  0  0  0  0
  3  5  1  0  0  0  0
  4  1  2  0  0  0  0
  6  4  1  0  0  0  0
  6 11  2  0  0  0  0
  7  8  1  0  0  0  0
  9  2  2  0  0  0  0
  9 13  1  0  0  0  0
 10  3  1  1  0  0  0
 11 10  1  0  0  0  0
 12  7  1  0  0  0  0
 13 12  2  0  0  0  0
 14  5  1  0  0  0  0
 14  7  2  0  0  0  0
 15 16  1  0  0  0  0
 16  6  1  0  0  0  0
 17 18  1  0  0  0  0
 18  4  1  0  0  0  0
 19 13  1  0  0  0  0
 20 19  1  0  0  0  0
 21 22  1  6  0  0  0
 21 20  1  0  0  0  0
 23 25  1  0  0  0  0
 23 21  1  0  0  0  0
 24 23  2  0  0  0  0
M  END
>  <MODEL>
7

>  <REMARK>
 VINA RESULT:      -6.1      2.109      2.641
  Name = 
  6 active torsions:
  status: ('A' for Active; 'I' for Inactive)
    1  A    between atoms: C_2  and  CA_21
    2  A    between atoms: C_5  and  C_22
    3  A    between atoms: C_6  and  C_15
    4  A    between atoms: C_6  and  C_23
    5  A    between atoms: C_10  and  C_11
    6  A    between atoms: C_15  and  CA_21
                            x       y       z     vdW  Elec       q    Type
                         _______ _______ _______ _____ _____    ______ ____

>  <TORSDO>
F 6

$$$$
=
 OpenBabel11052417353D

 25 27  0  0  1  0  0  0  0  0999 V2000
  189.3970  175.3030  144.4440 C   0  0  0  0  0  0  0  0  0  0  0  0
  188.5770  175.7550  143.3030 C   0  0  0  0  0  0  0  0  0  0  0  0
  190.7780  173.8930  143.0040 C   0  0  0  0  0  2  0  0  0  0  0  0
  189.8440  176.0210  145.4700 C   0  0  0  0  0  0  0  0  0  0  0  0
  189.6780  173.9120  141.9320 C   0  0  0  0  0  2  0  0  0  0  0  0
  190.9340  175.2590  146.0620 C   0  0  0  0  0  0  0  0  0  0  0  0
  187.9750  175.5210  140.9550 C   0  0  0  0  0  0  0  0  0  0  0  0
  188.0920  174.8520  139.6270 C   0  0  0  0  0  1  0  0  0  0  0  0
  187.6780  176.8220  143.4190 C   0  0  0  0  0  3  0  0  0  0  0  0
  190.1430  174.0120  144.3830 C   0  0  1  0  0  3  0  0  0  0  0  0
  191.1460  174.1510  145.4310 N   0  0  0  0  0  0  0  0  0  0  0  0
  187.0810  176.5870  141.0880 C   0  0  0  0  0  3  0  0  0  0  0  0
  186.9360  177.2410  142.3140 C   0  0  0  0  0  0  0  0  0  0  0  0
  188.7400  175.1000  142.0600 C   0  0  0  0  0  0  0  0  0  0  0  0
  193.0950  176.3150  146.5970 C   0  0  0  0  0  1  0  0  0  0  0  0
  191.8150  175.7360  147.1670 C   0  0  0  0  0  2  0  0  0  0  0  0
  188.5100  177.5330  146.9000 C   0  0  0  0  0  1  0  0  0  0  0  0
  189.5220  177.4500  145.7730 C   0  0  0  0  0  2  0  0  0  0  0  0
  185.9680  178.3630  142.4490 C   0  0  0  0  0  2  0  0  0  0  0  0
  184.8230  177.9590  143.3640 C   0  0  0  0  0  2  0  0  0  0  0  0
  184.6820  178.9500  144.5080 C   0  0  2  0  0  3  0  0  0  0  0  0
  185.5560  180.0850  144.2760 N   0  0  0  0  0  1  0  0  0  0  0  0
  185.0270  178.3090  145.8130 C   0  0  0  0  0  0  0  0  0  0  0  0
  185.2030  179.0260  146.8320 O   0  0  0  0  0  1  0  0  0  0  0  0
  185.1480  176.9290  145.9100 O   0  0  0  0  0  0  0  0  0  0  0  0
  1  4  2  0  0  0  0
  2  9  1  0  0  0  0
  2  1  1  0  0  0  0
  4 18  1  0  0  0  0
  4  6  1  0  0  0  0
  5 14  1  0  0  0  0
  5  3  1  0  0  0  0
  6 16  1  0  0  0  0
  7 12  2  0  0  0  0
  7 14  1  0  0  0  0
  8  7  1  0  0  0  0
 10  3  1  6  0  0  0
 10  1  1  0  0  0  0
 10 11  1  0  0  0  0
 11  6  2  0  0  0  0
 12 13  1  0  0  0  0
 13 19  1  0  0  0  0
 13  9  2  0  0  0  0
 14  2  2  0  0  0  0
 15 16  1  0  0  0  0
 18 17  1  0  0  0  0
 19 20  1  0  0  0  0
 20 21  1  0  0  0  0
 21 22  1  6  0  0  0
 21 23  1  0  0  0  0
 23 25  2  0  0  0  0
 23 24  1  0  0  0  0
M  END
>  <MODEL>
8

>  <REMARK>
 VINA RESULT:      -6.1      2.404      6.702
  Name = 
  6 active torsions:
  status: ('A' for Active; 'I' for Inactive)
    1  A    between atoms: C_2  and  CA_21
    2  A    between atoms: C_5  and  C_22
    3  A    between atoms: C_6  and  C_15
    4  A    between atoms: C_6  and  C_23
    5  A    between atoms: C_10  and  C_11
    6  A    between atoms: C_15  and  CA_21
                            x       y       z     vdW  Elec       q    Type
                         _______ _______ _______ _____ _____    ______ ____

>  <TORSDO>
F 6

$$$$
=
 OpenBabel11052417353D

 25 27  0  0  1  0  0  0  0  0999 V2000
  189.0630  175.8240  143.8740 C   0  0  0  0  0  0  0  0  0  0  0  0
  188.0050  176.7600  143.4460 C   0  0  0  0  0  0  0  0  0  0  0  0
  189.4790  175.1070  141.5760 C   0  0  0  0  0  2  0  0  0  0  0  0
  189.9980  176.0090  144.8010 C   0  0  0  0  0  0  0  0  0  0  0  0
  188.0980  175.6350  141.1610 C   0  0  0  0  0  2  0  0  0  0  0  0
  191.0320  175.0170  144.5460 C   0  0  0  0  0  0  0  0  0  0  0  0
  186.5560  177.5850  141.6710 C   0  0  0  0  0  0  0  0  0  0  0  0
  186.0310  177.5480  140.2750 C   0  0  0  0  0  1  0  0  0  0  0  0
  187.4680  177.7130  144.3180 C   0  0  0  0  0  3  0  0  0  0  0  0
  189.4310  174.6500  143.0280 C   0  0  1  0  0  3  0  0  0  0  0  0
  190.7510  174.2790  143.5230 N   0  0  0  0  0  0  0  0  0  0  0  0
  186.0280  178.5310  142.5560 C   0  0  0  0  0  3  0  0  0  0  0  0
  186.4870  178.6000  143.8740 C   0  0  0  0  0  0  0  0  0  0  0  0
  187.5570  176.6950  142.1050 C   0  0  0  0  0  0  0  0  0  0  0  0
  193.3680  175.7990  144.5730 C   0  0  0  0  0  1  0  0  0  0  0  0
  192.3360  174.9310  145.2650 C   0  0  0  0  0  2  0  0  0  0  0  0
  190.0130  176.7350  147.1630 C   0  0  0  0  0  1  0  0  0  0  0  0
  190.1310  177.1820  145.7180 C   0  0  0  0  0  2  0  0  0  0  0  0
  185.9060  179.6000  144.8110 C   0  0  0  0  0  2  0  0  0  0  0  0
  184.6400  179.0470  145.4460 C   0  0  0  0  0  2  0  0  0  0  0  0
  184.8920  178.6760  146.8980 C   0  0  2  0  0  3  0  0  0  0  0  0
  185.8900  179.5670  147.4610 N   0  0  0  0  0  1  0  0  0  0  0  0
  185.3610  177.2620  147.0130 C   0  0  0  0  0  0  0  0  0  0  0  0
  184.6810  176.3350  146.5010 O   0  0  0  0  0  0  0  0  0  0  0  0
  186.5450  176.9650  147.6760 O   0  0  0  0  0  1  0  0  0  0  0  0
  1  4  2  0  0  0  0
  2  1  1  0  0  0  0
  2  9  1  0  0  0  0
  4 18  1  0  0  0  0
  5  3  1  0  0  0  0
  5 14  1  0  0  0  0
  6  4  1  0  0  0  0
  6 16  1  0  0  0  0
  7 14  1  0  0  0  0
  7 12  2  0  0  0  0
  8  7  1  0  0  0  0
 10  3  1  6  0  0  0
 10 11  1  0  0  0  0
 10  1  1  0  0  0  0
 11  6  2  0  0  0  0
 12 13  1  0  0  0  0
 13  9  2  0  0  0  0
 13 19  1  0  0  0  0
 14  2  2  0  0  0  0
 15 16  1  0  0  0  0
 18 17  1  0  0  0  0
 19 20  1  0  0  0  0
 20 21  1  0  0  0  0
 21 23  1  0  0  0  0
 21 22  1  6  0  0  0
 23 25  1  0  0  0  0
 24 23  2  0  0  0  0
M  END
>  <MODEL>
9

>  <REMARK>
 VINA RESULT:      -6.1      2.605      5.906
  Name = 
  6 active torsions:
  status: ('A' for Active; 'I' for Inactive)
    1  A    between atoms: C_2  and  CA_21
    2  A    between atoms: C_5  and  C_22
    3  A    between atoms: C_6  and  C_15
    4  A    between atoms: C_6  and  C_23
    5  A    between atoms: C_10  and  C_11
    6  A    between atoms: C_15  and  CA_21
                            x       y       z     vdW  Elec       q    Type
                         _______ _______ _______ _____ _____    ______ ____

>  <TORSDO>
F 6

$$$$
