=
 OpenBabel11052421013D

 43 47  0  0  1  0  0  0  0  0999 V2000
  187.3140  177.8880  144.1760 C   0  0  0  0  0  0  0  0  0  0  0  0
  192.0010  176.2670  145.1870 C   0  0  0  0  0  0  0  0  0  0  0  0
  193.1020  175.1380  142.8550 C   0  0  2  0  0  3  0  0  0  0  0  0
  189.3740  177.2500  145.2830 C   0  0  0  0  0  0  0  0  0  0  0  0
  187.8730  177.5620  142.9420 C   0  0  0  0  0  3  0  0  0  0  0  0
  185.9160  178.3930  144.2470 C   0  0  0  0  0  1  0  0  0  0  0  0
  189.9470  176.9070  144.0370 C   0  0  0  0  0  0  0  0  0  0  0  0
  188.0630  177.7310  145.3440 C   0  0  0  0  0  3  0  0  0  0  0  0
  189.1810  177.0740  142.8720 C   0  0  0  0  0  3  0  0  0  0  0  0
  191.9130  176.0840  142.6730 C   0  0  0  0  0  2  0  0  0  0  0  0
  191.2630  176.4030  143.9910 C   0  0  0  0  0  0  0  0  0  0  0  0
  191.4190  176.6220  146.4060 C   0  0  0  0  0  3  0  0  0  0  0  0
  193.4000  175.7040  145.1850 C   0  0  2  0  0  3  0  0  0  0  0  0
  194.0210  175.6910  143.8540 N   0  0  0  0  0  2  0  0  0  0  0  0
  190.1140  177.1100  146.4550 C   0  0  0  0  0  3  0  0  0  0  0  0
  193.8350  174.8890  141.5300 C   0  0  2  0  0  3  0  0  0  0  0  0
  194.5730  176.1410  141.0610 C   0  0  0  0  0  1  0  0  0  0  0  0
  192.8830  174.4690  140.5080 N   0  0  0  0  0  2  0  0  0  0  0  0
  192.9790  173.2280  139.8070 C   0  0  0  0  0  0  0  0  0  0  0  0
  193.7380  172.3140  140.2280 O   0  0  0  0  0  0  0  0  0  0  0  0
  192.2410  173.0470  138.5120 C   0  0  0  0  0  2  0  0  0  0  0  0
  190.7840  173.1780  138.6370 N   0  0  0  0  0  0  0  0  0  0  0  0
  190.1700  173.1390  137.3130 C   0  0  0  0  0  2  0  0  0  0  0  0
  189.4150  171.6040  135.5060 C   0  0  0  0  0  1  0  0  0  0  0  0
  189.7020  171.7320  136.9890 C   0  0  0  0  0  2  0  0  0  0  0  0
  190.2440  172.0830  139.4350 C   0  0  0  0  0  2  0  0  0  0  0  0
  189.3680  172.6240  140.5190 C   0  0  0  0  0  0  0  0  0  0  0  0
  188.2310  173.0790  140.2120 O   0  0  0  0  0  0  0  0  0  0  0  0
  189.8080  172.6150  141.9320 C   0  0  0  0  0  0  0  0  0  0  0  0
  189.5370  173.3810  144.2250 C   0  0  0  0  0  3  0  0  0  0  0  0
  191.3140  171.8330  143.6730 C   0  0  0  0  0  3  0  0  0  0  0  0
  190.6280  172.6010  144.6180 C   0  0  0  0  0  3  0  0  0  0  0  0
  190.9070  171.8410  142.3360 C   0  0  0  0  0  3  0  0  0  0  0  0
  189.1290  173.3900  142.8850 C   0  0  0  0  0  3  0  0  0  0  0  0
  193.4410  174.3240  145.8270 C   0  0  0  0  0  2  0  0  0  0  0  0
  197.0460  172.9960  145.7480 C   0  0  0  0  0  3  0  0  0  0  0  0
  196.8020  171.6800  145.5800 C   0  0  0  0  0  0  0  0  0  0  0  0
  194.3770  172.0500  145.5220 C   0  0  0  0  0  3  0  0  0  0  0  0
  195.9200  173.9450  146.0650 C   0  0  0  0  0  2  0  0  0  0  0  0
  194.6320  173.5240  145.3220 C   0  0  2  0  0  3  0  0  0  0  0  0
  195.4030  171.1900  145.6130 C   0  0  0  0  0  3  0  0  0  0  0  0
  197.8350  170.7600  145.3640 O   0  0  0  0  0  0  0  0  0  0  0  0
  197.7090  169.3720  145.6610 C   0  0  0  0  0  1  0  0  0  0  0  0
  1  6  1  0  0  0  0
  1  8  1  0  0  0  0
  2 12  1  0  0  0  0
  3 16  1  6  0  0  0
  3 14  1  0  0  0  0
  4  8  2  0  0  0  0
  4 15  1  0  0  0  0
  5  1  2  0  0  0  0
  7  4  1  0  0  0  0
  9  5  1  0  0  0  0
  9  7  2  0  0  0  0
 10  3  1  0  0  0  0
 10 11  1  0  0  0  0
 11  7  1  0  0  0  0
 11  2  2  0  0  0  0
 12 15  2  0  0  0  0
 13  2  1  0  0  0  0
 13 35  1  6  0  0  0
 14 13  1  0  0  0  0
 16 17  1  6  0  0  0
 18 16  1  0  0  0  0
 19 20  2  0  0  0  0
 19 18  1  0  0  0  0
 21 22  1  0  0  0  0
 21 19  1  0  0  0  0
 22 26  1  0  0  0  0
 23 22  1  0  0  0  0
 24 25  1  0  0  0  0
 25 23  1  0  0  0  0
 26 27  1  0  0  0  0
 27 29  1  0  0  0  0
 28 27  2  0  0  0  0
 29 33  2  0  0  0  0
 29 34  1  0  0  0  0
 30 32  1  0  0  0  0
 31 32  2  0  0  0  0
 33 31  1  0  0  0  0
 34 30  2  0  0  0  0
 36 39  1  0  0  0  0
 37 41  1  0  0  0  0
 37 36  2  0  0  0  0
 38 41  2  0  0  0  0
 40 38  1  0  0  0  0
 40 35  1  1  0  0  0
 40 39  1  0  0  0  0
 42 37  1  0  0  0  0
 42 43  1  0  0  0  0
M  END
>  <MODEL>
1

>  <REMARK>
 VINA RESULT:      -6.8      0.000      0.000
  Name = 
  12 active torsions:
  status: ('A' for Active; 'I' for Inactive)
    1  A    between atoms: C_1  and  C_34
    2  A    between atoms: C_1  and  C_35
    3  A    between atoms: C_2  and  N_6
    4  A    between atoms: C_2  and  C_13
    5  A    between atoms: C_3  and  N_4
    6  A    between atoms: C_3  and  C_12
    7  A    between atoms: N_4  and  C_15
    8  A    between atoms: N_4  and  C_22
    9  A    between atoms: C_11  and  C_14
   10  A    between atoms: C_14  and  C_22
   11  A    between atoms: C_15  and  C_42
   12  A    between atoms: C_19  and  O_25
                            x       y       z     vdW  Elec       q    Type
                         _______ _______ _______ _____ _____    ______ ____

>  <TORSDO>
F 12

$$$$
=
 OpenBabel11052421013D

 43 47  0  0  1  0  0  0  0  0999 V2000
  187.5850  177.5210  143.9650 C   0  0  0  0  0  0  0  0  0  0  0  0
  189.9000  173.6990  141.5880 C   0  0  0  0  0  0  0  0  0  0  0  0
  192.5840  174.4060  141.1190 C   0  0  2  0  0  3  0  0  0  0  0  0
  188.0720  175.4600  142.7860 C   0  0  0  0  0  0  0  0  0  0  0  0
  188.9420  177.8390  143.9760 C   0  0  0  0  0  3  0  0  0  0  0  0
  186.5990  178.4520  144.5800 C   0  0  0  0  0  1  0  0  0  0  0  0
  189.4490  175.7780  142.7820 C   0  0  0  0  0  0  0  0  0  0  0  0
  187.1510  176.3340  143.3710 C   0  0  0  0  0  3  0  0  0  0  0  0
  189.8680  176.9740  143.3880 C   0  0  0  0  0  3  0  0  0  0  0  0
  191.8410  175.1870  142.2040 C   0  0  0  0  0  2  0  0  0  0  0  0
  190.3660  174.8980  142.1710 C   0  0  0  0  0  0  0  0  0  0  0  0
  188.5360  173.4000  141.6110 C   0  0  0  0  0  3  0  0  0  0  0  0
  190.8430  172.7460  140.8980 C   0  0  2  0  0  3  0  0  0  0  0  0
  192.2550  172.9810  141.2270 N   0  0  0  0  0  2  0  0  0  0  0  0
  187.6270  174.2740  142.2060 C   0  0  0  0  0  3  0  0  0  0  0  0
  194.1020  174.6130  141.2110 C   0  0  2  0  0  3  0  0  0  0  0  0
  194.8620  173.4240  140.6270 C   0  0  0  0  0  1  0  0  0  0  0  0
  194.4920  174.8080  142.6030 N   0  0  0  0  0  2  0  0  0  0  0  0
  195.4850  175.7470  143.0160 C   0  0  0  0  0  0  0  0  0  0  0  0
  195.8830  176.6460  142.2270 O   0  0  0  0  0  0  0  0  0  0  0  0
  196.1250  175.6060  144.3680 C   0  0  0  0  0  2  0  0  0  0  0  0
  195.5110  174.5710  145.2090 N   0  0  0  0  0  0  0  0  0  0  0  0
  196.5030  174.0370  146.1370 C   0  0  0  0  0  2  0  0  0  0  0  0
  196.4150  171.5660  145.8520 C   0  0  0  0  0  1  0  0  0  0  0  0
  197.1940  172.8270  145.5340 C   0  0  0  0  0  2  0  0  0  0  0  0
  194.4050  175.1320  145.9770 C   0  0  0  0  0  2  0  0  0  0  0  0
  193.1720  174.3130  145.7700 C   0  0  0  0  0  0  0  0  0  0  0  0
  193.2840  173.1610  145.2680 O   0  0  0  0  0  0  0  0  0  0  0  0
  191.8400  174.8270  146.1600 C   0  0  0  0  0  0  0  0  0  0  0  0
  189.4220  174.5770  146.2140 C   0  0  0  0  0  3  0  0  0  0  0  0
  190.4540  176.5230  147.2150 C   0  0  0  0  0  3  0  0  0  0  0  0
  189.3080  175.7870  146.9020 C   0  0  0  0  0  3  0  0  0  0  0  0
  191.7140  176.0460  146.8450 C   0  0  0  0  0  3  0  0  0  0  0  0
  190.6840  174.0980  145.8420 C   0  0  0  0  0  3  0  0  0  0  0  0
  190.6200  172.7430  139.3910 C   0  0  0  0  0  2  0  0  0  0  0  0
  190.0600  169.4570  137.4780 C   0  0  0  0  0  3  0  0  0  0  0  0
  191.1510  169.4660  136.6860 C   0  0  0  0  0  0  0  0  0  0  0  0
  191.9480  171.5730  137.6570 C   0  0  0  0  0  3  0  0  0  0  0  0
  189.6970  170.6760  138.2860 C   0  0  0  0  0  2  0  0  0  0  0  0
  190.9700  171.3890  138.7920 C   0  0  2  0  0  3  0  0  0  0  0  0
  192.0450  170.6480  136.6890 C   0  0  0  0  0  3  0  0  0  0  0  0
  191.4730  168.3800  135.8620 O   0  0  0  0  0  0  0  0  0  0  0  0
  191.9050  168.5330  134.5130 C   0  0  0  0  0  1  0  0  0  0  0  0
  1  5  1  0  0  0  0
  1  6  1  0  0  0  0
  2 12  2  0  0  0  0
  2 11  1  0  0  0  0
  3 16  1  1  0  0  0
  3 14  1  0  0  0  0
  3 10  1  0  0  0  0
  4  8  1  0  0  0  0
  7  4  1  0  0  0  0
  7  9  1  0  0  0  0
  8  1  2  0  0  0  0
  9  5  2  0  0  0  0
 11 10  1  0  0  0  0
 11  7  2  0  0  0  0
 12 15  1  0  0  0  0
 13 35  1  6  0  0  0
 13 14  1  0  0  0  0
 13  2  1  0  0  0  0
 15  4  2  0  0  0  0
 16 17  1  1  0  0  0
 16 18  1  0  0  0  0
 18 19  1  0  0  0  0
 19 21  1  0  0  0  0
 20 19  2  0  0  0  0
 21 22  1  0  0  0  0
 22 26  1  0  0  0  0
 22 23  1  0  0  0  0
 25 24  1  0  0  0  0
 25 23  1  0  0  0  0
 27 26  1  0  0  0  0
 27 29  1  0  0  0  0
 28 27  2  0  0  0  0
 29 33  1  0  0  0  0
 30 32  2  0  0  0  0
 32 31  1  0  0  0  0
 33 31  2  0  0  0  0
 34 29  2  0  0  0  0
 34 30  1  0  0  0  0
 36 39  1  0  0  0  0
 37 41  1  0  0  0  0
 37 36  2  0  0  0  0
 38 40  1  0  0  0  0
 39 40  1  0  0  0  0
 40 35  1  6  0  0  0
 41 38  2  0  0  0  0
 42 37  1  0  0  0  0
 43 42  1  0  0  0  0
M  END
>  <MODEL>
2

>  <REMARK>
 VINA RESULT:      -6.7      2.203      6.823
  Name = 
  12 active torsions:
  status: ('A' for Active; 'I' for Inactive)
    1  A    between atoms: C_1  and  C_34
    2  A    between atoms: C_1  and  C_35
    3  A    between atoms: C_2  and  N_6
    4  A    between atoms: C_2  and  C_13
    5  A    between atoms: C_3  and  N_4
    6  A    between atoms: C_3  and  C_12
    7  A    between atoms: N_4  and  C_15
    8  A    between atoms: N_4  and  C_22
    9  A    between atoms: C_11  and  C_14
   10  A    between atoms: C_14  and  C_22
   11  A    between atoms: C_15  and  C_42
   12  A    between atoms: C_19  and  O_25
                            x       y       z     vdW  Elec       q    Type
                         _______ _______ _______ _____ _____    ______ ____

>  <TORSDO>
F 12

$$$$
=
 OpenBabel11052421013D

 43 47  0  0  1  0  0  0  0  0999 V2000
  195.6750  169.8130  145.1510 C   0  0  0  0  0  0  0  0  0  0  0  0
  194.8510  174.7390  145.9720 C   0  0  0  0  0  0  0  0  0  0  0  0
  192.1350  175.3040  145.4950 C   0  0  2  0  0  3  0  0  0  0  0  0
  195.9440  172.1840  145.5810 C   0  0  0  0  0  0  0  0  0  0  0  0
  194.2920  169.9720  145.1260 C   0  0  0  0  0  3  0  0  0  0  0  0
  196.2740  168.4690  144.9270 C   0  0  0  0  0  1  0  0  0  0  0  0
  194.5410  172.3570  145.5470 C   0  0  0  0  0  0  0  0  0  0  0  0
  196.5000  170.9170  145.3770 C   0  0  0  0  0  3  0  0  0  0  0  0
  193.7270  171.2350  145.3220 C   0  0  0  0  0  3  0  0  0  0  0  0
  192.5030  173.8420  145.7570 C   0  0  0  0  0  2  0  0  0  0  0  0
  193.9930  173.6430  145.7330 C   0  0  0  0  0  0  0  0  0  0  0  0
  196.2340  174.5440  146.0120 C   0  0  0  0  0  3  0  0  0  0  0  0
  194.3080  176.1340  146.1470 C   0  0  2  0  0  3  0  0  0  0  0  0
  192.8660  176.1690  146.4250 N   0  0  0  0  0  2  0  0  0  0  0  0
  196.7780  173.2750  145.8170 C   0  0  0  0  0  3  0  0  0  0  0  0
  190.6230  175.5380  145.6210 C   0  0  2  0  0  3  0  0  0  0  0  0
  189.9570  174.4340  146.4390 C   0  0  0  0  0  1  0  0  0  0  0  0
  190.0190  175.5970  144.2940 N   0  0  0  0  0  2  0  0  0  0  0  0
  189.3480  176.7520  143.7880 C   0  0  0  0  0  0  0  0  0  0  0  0
  189.4780  177.8680  144.3590 O   0  0  0  0  0  0  0  0  0  0  0  0
  188.4080  176.6150  142.6240 C   0  0  0  0  0  2  0  0  0  0  0  0
  187.2850  177.5600  142.6550 N   0  0  0  0  0  0  0  0  0  0  0  0
  187.1630  178.2240  141.3610 C   0  0  0  0  0  2  0  0  0  0  0  0
  186.6920  177.1690  139.1570 C   0  0  0  0  0  1  0  0  0  0  0  0
  186.1140  177.5320  140.5100 C   0  0  0  0  0  2  0  0  0  0  0  0
  186.0390  176.8570  142.9400 C   0  0  0  0  0  2  0  0  0  0  0  0
  185.1840  177.6800  143.8490 C   0  0  0  0  0  0  0  0  0  0  0  0
  184.1350  178.2070  143.3850 O   0  0  0  0  0  0  0  0  0  0  0  0
  185.5410  177.8650  145.2730 C   0  0  0  0  0  0  0  0  0  0  0  0
  186.1850  176.9230  147.4200 C   0  0  0  0  0  3  0  0  0  0  0  0
  185.9240  179.3170  147.1850 C   0  0  0  0  0  3  0  0  0  0  0  0
  186.2280  178.2040  147.9740 C   0  0  0  0  0  3  0  0  0  0  0  0
  185.5800  179.1480  145.8410 C   0  0  0  0  0  3  0  0  0  0  0  0
  185.8410  176.7520  146.0740 C   0  0  0  0  0  3  0  0  0  0  0  0
  194.6610  177.0170  144.9570 C   0  0  0  0  0  2  0  0  0  0  0  0
  194.6930  175.5000  141.4250 C   0  0  0  0  0  3  0  0  0  0  0  0
  195.9750  175.7440  141.0840 C   0  0  0  0  0  0  0  0  0  0  0  0
  196.4490  176.7770  143.2580 C   0  0  0  0  0  3  0  0  0  0  0  0
  194.1080  176.1140  142.6710 C   0  0  0  0  0  2  0  0  0  0  0  0
  195.1690  176.1810  143.7910 C   0  0  2  0  0  3  0  0  0  0  0  0
  196.8320  176.5410  141.9930 C   0  0  0  0  0  3  0  0  0  0  0  0
  196.5260  175.2550  139.8930 O   0  0  0  0  0  0  0  0  0  0  0  0
  196.0150  174.1090  139.2170 C   0  0  0  0  0  1  0  0  0  0  0  0
  1  8  1  0  0  0  0
  2 12  1  0  0  0  0
  2 13  1  0  0  0  0
  3 16  1  1  0  0  0
  3 10  1  0  0  0  0
  3 14  1  0  0  0  0
  4 15  1  0  0  0  0
  5  1  2  0  0  0  0
  5  9  1  0  0  0  0
  6  1  1  0  0  0  0
  7  4  1  0  0  0  0
  7 11  1  0  0  0  0
  8  4  2  0  0  0  0
  9  7  2  0  0  0  0
 11 10  1  0  0  0  0
 11  2  2  0  0  0  0
 13 35  1  6  0  0  0
 13 14  1  0  0  0  0
 15 12  2  0  0  0  0
 16 17  1  1  0  0  0
 18 16  1  0  0  0  0
 19 18  1  0  0  0  0
 19 20  2  0  0  0  0
 21 22  1  0  0  0  0
 21 19  1  0  0  0  0
 22 26  1  0  0  0  0
 23 22  1  0  0  0  0
 24 25  1  0  0  0  0
 25 23  1  0  0  0  0
 26 27  1  0  0  0  0
 27 29  1  0  0  0  0
 28 27  2  0  0  0  0
 29 33  2  0  0  0  0
 29 34  1  0  0  0  0
 30 32  1  0  0  0  0
 31 32  2  0  0  0  0
 33 31  1  0  0  0  0
 34 30  2  0  0  0  0
 36 39  1  0  0  0  0
 37 36  2  0  0  0  0
 37 41  1  0  0  0  0
 38 40  1  0  0  0  0
 39 40  1  0  0  0  0
 40 35  1  1  0  0  0
 41 38  2  0  0  0  0
 42 37  1  0  0  0  0
 43 42  1  0  0  0  0
M  END
>  <MODEL>
3

>  <REMARK>
 VINA RESULT:      -6.7      3.414      7.136
  Name = 
  12 active torsions:
  status: ('A' for Active; 'I' for Inactive)
    1  A    between atoms: C_1  and  C_34
    2  A    between atoms: C_1  and  C_35
    3  A    between atoms: C_2  and  N_6
    4  A    between atoms: C_2  and  C_13
    5  A    between atoms: C_3  and  N_4
    6  A    between atoms: C_3  and  C_12
    7  A    between atoms: N_4  and  C_15
    8  A    between atoms: N_4  and  C_22
    9  A    between atoms: C_11  and  C_14
   10  A    between atoms: C_14  and  C_22
   11  A    between atoms: C_15  and  C_42
   12  A    between atoms: C_19  and  O_25
                            x       y       z     vdW  Elec       q    Type
                         _______ _______ _______ _____ _____    ______ ____

>  <TORSDO>
F 12

$$$$
=
 OpenBabel11052421013D

 43 47  0  0  1  0  0  0  0  0999 V2000
  185.4400  178.1840  144.2290 C   0  0  0  0  0  0  0  0  0  0  0  0
  189.1530  174.7840  143.7100 C   0  0  0  0  0  0  0  0  0  0  0  0
  191.1290  175.2840  145.6520 C   0  0  2  0  0  3  0  0  0  0  0  0
  186.8830  176.4090  143.4260 C   0  0  0  0  0  0  0  0  0  0  0  0
  186.2520  178.3410  145.3500 C   0  0  0  0  0  3  0  0  0  0  0  0
  184.2420  179.0490  144.0520 C   0  0  0  0  0  1  0  0  0  0  0  0
  187.7190  176.5680  144.5540 C   0  0  0  0  0  0  0  0  0  0  0  0
  185.7550  177.2200  143.2690 C   0  0  0  0  0  3  0  0  0  0  0  0
  187.3860  177.5390  145.5120 C   0  0  0  0  0  3  0  0  0  0  0  0
  189.7390  175.8700  145.9100 C   0  0  0  0  0  2  0  0  0  0  0  0
  188.8660  175.7590  144.6910 C   0  0  0  0  0  0  0  0  0  0  0  0
  188.3070  174.6370  142.6080 C   0  0  0  0  0  3  0  0  0  0  0  0
  190.3840  173.9190  143.8030 C   0  0  2  0  0  3  0  0  0  0  0  0
  190.9970  173.9170  145.1380 N   0  0  0  0  0  2  0  0  0  0  0  0
  187.1790  175.4440  142.4660 C   0  0  0  0  0  3  0  0  0  0  0  0
  191.9930  175.2980  146.9200 C   0  0  2  0  0  3  0  0  0  0  0  0
  191.3720  176.1760  148.0050 C   0  0  0  0  0  1  0  0  0  0  0  0
  193.3310  175.7850  146.6030 N   0  0  0  0  0  2  0  0  0  0  0  0
  193.6290  176.5620  145.4420 C   0  0  0  0  0  0  0  0  0  0  0  0
  192.7020  177.0940  144.7740 O   0  0  0  0  0  0  0  0  0  0  0  0
  195.0490  176.6690  144.9640 C   0  0  0  0  0  2  0  0  0  0  0  0
  195.4190  175.6490  143.9750 N   0  0  0  0  0  0  0  0  0  0  0  0
  195.5960  176.2730  142.6660 C   0  0  0  0  0  2  0  0  0  0  0  0
  194.9460  174.7100  140.8420 C   0  0  0  0  0  1  0  0  0  0  0  0
  194.4830  175.8510  141.7250 C   0  0  0  0  0  2  0  0  0  0  0  0
  196.6690  175.0020  144.3570 C   0  0  0  0  0  2  0  0  0  0  0  0
  196.3830  173.7650  145.1460 C   0  0  0  0  0  0  0  0  0  0  0  0
  196.9020  173.6400  146.2900 O   0  0  0  0  0  0  0  0  0  0  0  0
  195.4940  172.7080  144.6140 C   0  0  0  0  0  0  0  0  0  0  0  0
  193.5040  171.3270  144.8320 C   0  0  0  0  0  3  0  0  0  0  0  0
  194.9340  171.0840  142.8950 C   0  0  0  0  0  3  0  0  0  0  0  0
  193.7950  170.7100  143.6130 C   0  0  0  0  0  3  0  0  0  0  0  0
  195.7800  172.0770  143.3940 C   0  0  0  0  0  3  0  0  0  0  0  0
  194.3520  172.3220  145.3340 C   0  0  0  0  0  3  0  0  0  0  0  0
  191.4000  174.2870  142.7300 C   0  0  0  0  0  2  0  0  0  0  0  0
  190.8240  170.8420  141.1270 C   0  0  0  0  0  3  0  0  0  0  0  0
  190.8860  171.1830  139.8230 C   0  0  0  0  0  0  0  0  0  0  0  0
  191.3260  173.5340  140.3700 C   0  0  0  0  0  3  0  0  0  0  0  0
  190.7740  171.9070  142.1910 C   0  0  0  0  0  2  0  0  0  0  0  0
  191.6430  173.1180  141.7870 C   0  0  2  0  0  3  0  0  0  0  0  0
  191.0000  172.6130  139.4500 C   0  0  0  0  0  3  0  0  0  0  0  0
  190.8540  170.2210  138.8070 O   0  0  0  0  0  0  0  0  0  0  0  0
  189.7480  170.0660  137.9220 C   0  0  0  0  0  1  0  0  0  0  0  0
  1  5  1  0  0  0  0
  2 13  1  0  0  0  0
  2 11  1  0  0  0  0
  3 10  1  0  0  0  0
  3 16  1  1  0  0  0
  4  7  1  0  0  0  0
  5  9  2  0  0  0  0
  6  1  1  0  0  0  0
  7 11  2  0  0  0  0
  7  9  1  0  0  0  0
  8  4  1  0  0  0  0
  8  1  2  0  0  0  0
 11 10  1  0  0  0  0
 12  2  2  0  0  0  0
 13 35  1  6  0  0  0
 13 14  1  0  0  0  0
 14  3  1  0  0  0  0
 15 12  1  0  0  0  0
 15  4  2  0  0  0  0
 16 17  1  1  0  0  0
 18 16  1  0  0  0  0
 19 18  1  0  0  0  0
 20 19  2  0  0  0  0
 21 19  1  0  0  0  0
 22 26  1  0  0  0  0
 22 21  1  0  0  0  0
 23 22  1  0  0  0  0
 24 25  1  0  0  0  0
 25 23  1  0  0  0  0
 26 27  1  0  0  0  0
 27 28  2  0  0  0  0
 29 27  1  0  0  0  0
 29 34  1  0  0  0  0
 30 34  2  0  0  0  0
 31 33  1  0  0  0  0
 31 32  2  0  0  0  0
 32 30  1  0  0  0  0
 33 29  2  0  0  0  0
 36 39  1  0  0  0  0
 37 36  2  0  0  0  0
 38 40  1  0  0  0  0
 40 39  1  0  0  0  0
 40 35  1  1  0  0  0
 41 37  1  0  0  0  0
 41 38  2  0  0  0  0
 42 37  1  0  0  0  0
 43 42  1  0  0  0  0
M  END
>  <MODEL>
4

>  <REMARK>
 VINA RESULT:      -6.6      2.215      6.196
  Name = 
  12 active torsions:
  status: ('A' for Active; 'I' for Inactive)
    1  A    between atoms: C_1  and  C_34
    2  A    between atoms: C_1  and  C_35
    3  A    between atoms: C_2  and  N_6
    4  A    between atoms: C_2  and  C_13
    5  A    between atoms: C_3  and  N_4
    6  A    between atoms: C_3  and  C_12
    7  A    between atoms: N_4  and  C_15
    8  A    between atoms: N_4  and  C_22
    9  A    between atoms: C_11  and  C_14
   10  A    between atoms: C_14  and  C_22
   11  A    between atoms: C_15  and  C_42
   12  A    between atoms: C_19  and  O_25
                            x       y       z     vdW  Elec       q    Type
                         _______ _______ _______ _____ _____    ______ ____

>  <TORSDO>
F 12

$$$$
=
 OpenBabel11052421013D

 43 47  0  0  1  0  0  0  0  0999 V2000
  187.3170  177.5770  143.0600 C   0  0  0  0  0  0  0  0  0  0  0  0
  189.7530  173.3190  141.8130 C   0  0  0  0  0  0  0  0  0  0  0  0
  192.4090  173.9520  141.1260 C   0  0  2  0  0  3  0  0  0  0  0  0
  187.8700  175.2850  142.4970 C   0  0  0  0  0  0  0  0  0  0  0  0
  188.6620  177.9290  142.9610 C   0  0  0  0  0  3  0  0  0  0  0  0
  186.3020  178.6100  143.4040 C   0  0  0  0  0  1  0  0  0  0  0  0
  189.2360  175.6340  142.3850 C   0  0  0  0  0  0  0  0  0  0  0  0
  186.9220  176.2580  142.8280 C   0  0  0  0  0  3  0  0  0  0  0  0
  189.6150  176.9640  142.6250 C   0  0  0  0  0  3  0  0  0  0  0  0
  191.6440  174.9820  141.9590 C   0  0  0  0  0  2  0  0  0  0  0  0
  190.1800  174.6480  142.0300 C   0  0  0  0  0  0  0  0  0  0  0  0
  188.4000  172.9950  141.9400 C   0  0  0  0  0  3  0  0  0  0  0  0
  190.7250  172.2420  141.4040 C   0  0  2  0  0  3  0  0  0  0  0  0
  192.1300  172.6060  141.6330 N   0  0  0  0  0  2  0  0  0  0  0  0
  187.4640  173.9700  142.2790 C   0  0  0  0  0  3  0  0  0  0  0  0
  193.9180  174.2270  141.1340 C   0  0  2  0  0  3  0  0  0  0  0  0
  194.6970  173.0670  140.5160 C   0  0  0  0  0  1  0  0  0  0  0  0
  194.3740  174.4490  142.5020 N   0  0  0  0  0  2  0  0  0  0  0  0
  195.2390  175.5220  142.8760 C   0  0  0  0  0  0  0  0  0  0  0  0
  195.4360  176.4880  142.0910 O   0  0  0  0  0  0  0  0  0  0  0  0
  195.9900  175.4530  144.1750 C   0  0  0  0  0  2  0  0  0  0  0  0
  195.4110  174.5150  145.1450 N   0  0  0  0  0  0  0  0  0  0  0  0
  196.4290  174.1110  146.1100 C   0  0  0  0  0  2  0  0  0  0  0  0
  196.3870  171.6380  145.8380 C   0  0  0  0  0  1  0  0  0  0  0  0
  197.1900  172.9020  145.6000 C   0  0  0  0  0  2  0  0  0  0  0  0
  194.3090  175.1460  145.8640 C   0  0  0  0  0  2  0  0  0  0  0  0
  193.0530  174.3610  145.6640 C   0  0  0  0  0  0  0  0  0  0  0  0
  193.1410  173.1380  145.3640 O   0  0  0  0  0  0  0  0  0  0  0  0
  191.7240  174.9900  145.8320 C   0  0  0  0  0  0  0  0  0  0  0  0
  189.3000  174.8010  145.8980 C   0  0  0  0  0  3  0  0  0  0  0  0
  190.3520  176.9530  146.2470 C   0  0  0  0  0  3  0  0  0  0  0  0
  189.1970  176.1710  146.1560 C   0  0  0  0  0  3  0  0  0  0  0  0
  191.6090  176.3660  146.0840 C   0  0  0  0  0  3  0  0  0  0  0  0
  190.5600  174.2120  145.7340 C   0  0  0  0  0  3  0  0  0  0  0  0
  190.4950  171.8100  139.9620 C   0  0  0  0  0  2  0  0  0  0  0  0
  191.0200  174.1150  136.9320 C   0  0  0  0  0  3  0  0  0  0  0  0
  189.7350  174.3180  136.5740 C   0  0  0  0  0  0  0  0  0  0  0  0
  188.9100  172.9390  138.4280 C   0  0  0  0  0  3  0  0  0  0  0  0
  191.3660  173.0750  137.9660 C   0  0  0  0  0  2  0  0  0  0  0  0
  190.2780  173.0160  139.0600 C   0  0  2  0  0  3  0  0  0  0  0  0
  188.6580  173.5790  137.2750 C   0  0  0  0  0  3  0  0  0  0  0  0
  189.3850  175.2190  135.5610 O   0  0  0  0  0  0  0  0  0  0  0  0
  188.1450  175.9200  135.5430 C   0  0  0  0  0  1  0  0  0  0  0  0
  1  6  1  0  0  0  0
  2 12  2  0  0  0  0
  2 11  1  0  0  0  0
  3 16  1  1  0  0  0
  3 14  1  0  0  0  0
  3 10  1  0  0  0  0
  4  8  1  0  0  0  0
  5  1  1  0  0  0  0
  7  4  1  0  0  0  0
  7  9  1  0  0  0  0
  8  1  2  0  0  0  0
  9  5  2  0  0  0  0
 10 11  1  0  0  0  0
 11  7  2  0  0  0  0
 12 15  1  0  0  0  0
 13 35  1  6  0  0  0
 13 14  1  0  0  0  0
 13  2  1  0  0  0  0
 15  4  2  0  0  0  0
 16 17  1  1  0  0  0
 16 18  1  0  0  0  0
 18 19  1  0  0  0  0
 19 21  1  0  0  0  0
 20 19  2  0  0  0  0
 21 22  1  0  0  0  0
 22 26  1  0  0  0  0
 22 23  1  0  0  0  0
 25 24  1  0  0  0  0
 25 23  1  0  0  0  0
 27 29  1  0  0  0  0
 27 26  1  0  0  0  0
 28 27  2  0  0  0  0
 29 33  1  0  0  0  0
 30 32  2  0  0  0  0
 32 31  1  0  0  0  0
 33 31  2  0  0  0  0
 34 29  2  0  0  0  0
 34 30  1  0  0  0  0
 36 39  1  0  0  0  0
 37 36  2  0  0  0  0
 37 41  1  0  0  0  0
 38 40  1  0  0  0  0
 39 40  1  0  0  0  0
 40 35  1  1  0  0  0
 41 38  2  0  0  0  0
 42 37  1  0  0  0  0
 43 42  1  0  0  0  0
M  END
>  <MODEL>
5

>  <REMARK>
 VINA RESULT:      -6.6      2.045      7.059
  Name = 
  12 active torsions:
  status: ('A' for Active; 'I' for Inactive)
    1  A    between atoms: C_1  and  C_34
    2  A    between atoms: C_1  and  C_35
    3  A    between atoms: C_2  and  N_6
    4  A    between atoms: C_2  and  C_13
    5  A    between atoms: C_3  and  N_4
    6  A    between atoms: C_3  and  C_12
    7  A    between atoms: N_4  and  C_15
    8  A    between atoms: N_4  and  C_22
    9  A    between atoms: C_11  and  C_14
   10  A    between atoms: C_14  and  C_22
   11  A    between atoms: C_15  and  C_42
   12  A    between atoms: C_19  and  O_25
                            x       y       z     vdW  Elec       q    Type
                         _______ _______ _______ _____ _____    ______ ____

>  <TORSDO>
F 12

$$$$
=
 OpenBabel11052421013D

 43 47  0  0  1  0  0  0  0  0999 V2000
  185.6540  177.7810  146.4670 C   0  0  0  0  0  0  0  0  0  0  0  0
  190.2820  176.2110  145.1490 C   0  0  0  0  0  0  0  0  0  0  0  0
  190.0480  174.2880  143.1060 C   0  0  2  0  0  3  0  0  0  0  0  0
  188.0430  177.3810  146.3730 C   0  0  0  0  0  0  0  0  0  0  0  0
  185.4780  177.0210  145.3130 C   0  0  0  0  0  3  0  0  0  0  0  0
  184.4760  178.3930  147.1400 C   0  0  0  0  0  1  0  0  0  0  0  0
  187.8740  176.5990  145.2070 C   0  0  0  0  0  0  0  0  0  0  0  0
  186.9340  177.9600  146.9960 C   0  0  0  0  0  3  0  0  0  0  0  0
  186.5800  176.4320  144.6860 C   0  0  0  0  0  3  0  0  0  0  0  0
  188.8500  175.2140  143.3270 C   0  0  0  0  0  2  0  0  0  0  0  0
  188.9980  176.0020  144.5990 C   0  0  0  0  0  0  0  0  0  0  0  0
  190.4270  176.9950  146.2960 C   0  0  0  0  0  3  0  0  0  0  0  0
  191.5050  175.5670  144.5470 C   0  0  2  0  0  3  0  0  0  0  0  0
  191.2890  175.0640  143.1840 N   0  0  0  0  0  2  0  0  0  0  0  0
  189.3150  177.5760  146.9040 C   0  0  0  0  0  3  0  0  0  0  0  0
  189.9570  173.5560  141.7600 C   0  0  2  0  0  3  0  0  0  0  0  0
  189.5290  172.1020  141.9460 C   0  0  0  0  0  1  0  0  0  0  0  0
  191.2470  173.6050  141.0810 N   0  0  0  0  0  2  0  0  0  0  0  0
  191.3910  173.5350  139.6620 C   0  0  0  0  0  0  0  0  0  0  0  0
  190.3930  173.7000  138.9100 O   0  0  0  0  0  0  0  0  0  0  0  0
  192.7210  173.1730  139.0660 C   0  0  0  0  0  2  0  0  0  0  0  0
  193.4320  172.1190  139.8000 N   0  0  0  0  0  0  0  0  0  0  0  0
  193.2290  170.8340  139.1380 C   0  0  0  0  0  2  0  0  0  0  0  0
  190.9450  169.8510  139.2400 C   0  0  0  0  0  1  0  0  0  0  0  0
  192.2810  169.9670  139.9470 C   0  0  0  0  0  2  0  0  0  0  0  0
  194.8620  172.4040  139.8400 C   0  0  0  0  0  2  0  0  0  0  0  0
  195.3160  172.5430  141.2560 C   0  0  0  0  0  0  0  0  0  0  0  0
  195.3640  171.5130  141.9840 O   0  0  0  0  0  0  0  0  0  0  0  0
  195.7250  173.8570  141.8020 C   0  0  0  0  0  0  0  0  0  0  0  0
  197.4530  175.3250  142.6830 C   0  0  0  0  0  3  0  0  0  0  0  0
  195.1810  176.1300  142.4720 C   0  0  0  0  0  3  0  0  0  0  0  0
  196.5130  176.3480  142.8310 C   0  0  0  0  0  3  0  0  0  0  0  0
  194.7880  174.8900  141.9620 C   0  0  0  0  0  3  0  0  0  0  0  0
  197.0600  174.0810  142.1720 C   0  0  0  0  0  3  0  0  0  0  0  0
  192.0600  174.4780  145.4560 C   0  0  0  0  0  2  0  0  0  0  0  0
  195.8820  174.2600  145.7900 C   0  0  0  0  0  3  0  0  0  0  0  0
  196.0640  172.9580  145.4880 C   0  0  0  0  0  0  0  0  0  0  0  0
  193.6630  172.6200  145.1140 C   0  0  0  0  0  3  0  0  0  0  0  0
  194.4940  174.8020  146.0150 C   0  0  0  0  0  2  0  0  0  0  0  0
  193.4850  174.1180  145.0670 C   0  0  2  0  0  3  0  0  0  0  0  0
  194.8820  172.0860  145.2830 C   0  0  0  0  0  3  0  0  0  0  0  0
  197.3420  172.4040  145.3510 O   0  0  0  0  0  0  0  0  0  0  0  0
  197.5620  171.0430  144.9920 C   0  0  0  0  0  1  0  0  0  0  0  0
  1  8  1  0  0  0  0
  1  6  1  0  0  0  0
  2 12  1  0  0  0  0
  3 16  1  6  0  0  0
  3 14  1  0  0  0  0
  3 10  1  0  0  0  0
  4 15  1  0  0  0  0
  4  8  2  0  0  0  0
  5  1  2  0  0  0  0
  7  4  1  0  0  0  0
  9  7  2  0  0  0  0
  9  5  1  0  0  0  0
 10 11  1  0  0  0  0
 11  2  2  0  0  0  0
 11  7  1  0  0  0  0
 12 15  2  0  0  0  0
 13  2  1  0  0  0  0
 13 35  1  1  0  0  0
 14 13  1  0  0  0  0
 16 17  1  1  0  0  0
 18 16  1  0  0  0  0
 19 18  1  0  0  0  0
 20 19  2  0  0  0  0
 21 19  1  0  0  0  0
 21 22  1  0  0  0  0
 22 26  1  0  0  0  0
 23 22  1  0  0  0  0
 23 25  1  0  0  0  0
 24 25  1  0  0  0  0
 26 27  1  0  0  0  0
 27 29  1  0  0  0  0
 27 28  2  0  0  0  0
 29 33  2  0  0  0  0
 29 34  1  0  0  0  0
 30 32  1  0  0  0  0
 31 32  2  0  0  0  0
 33 31  1  0  0  0  0
 34 30  2  0  0  0  0
 36 39  1  0  0  0  0
 37 36  2  0  0  0  0
 38 41  2  0  0  0  0
 40 38  1  0  0  0  0
 40 35  1  1  0  0  0
 40 39  1  0  0  0  0
 41 37  1  0  0  0  0
 42 37  1  0  0  0  0
 43 42  1  0  0  0  0
M  END
>  <MODEL>
6

>  <REMARK>
 VINA RESULT:      -6.5      1.912      3.913
  Name = 
  12 active torsions:
  status: ('A' for Active; 'I' for Inactive)
    1  A    between atoms: C_1  and  C_34
    2  A    between atoms: C_1  and  C_35
    3  A    between atoms: C_2  and  N_6
    4  A    between atoms: C_2  and  C_13
    5  A    between atoms: C_3  and  N_4
    6  A    between atoms: C_3  and  C_12
    7  A    between atoms: N_4  and  C_15
    8  A    between atoms: N_4  and  C_22
    9  A    between atoms: C_11  and  C_14
   10  A    between atoms: C_14  and  C_22
   11  A    between atoms: C_15  and  C_42
   12  A    between atoms: C_19  and  O_25
                            x       y       z     vdW  Elec       q    Type
                         _______ _______ _______ _____ _____    ______ ____

>  <TORSDO>
F 12

$$$$
=
 OpenBabel11052421013D

 43 47  0  0  1  0  0  0  0  0999 V2000
  196.1580  173.9560  145.5120 C   0  0  0  0  0  0  0  0  0  0  0  0
  191.3630  175.5770  145.5160 C   0  0  0  0  0  0  0  0  0  0  0  0
  189.9280  174.1930  143.5280 C   0  0  2  0  0  3  0  0  0  0  0  0
  194.1120  175.1870  145.9290 C   0  0  0  0  0  0  0  0  0  0  0  0
  195.4640  173.0780  144.6820 C   0  0  0  0  0  3  0  0  0  0  0  0
  197.6200  173.7750  145.7280 C   0  0  0  0  0  1  0  0  0  0  0  0
  193.4010  174.3080  145.0800 C   0  0  0  0  0  0  0  0  0  0  0  0
  195.4830  175.0080  146.1340 C   0  0  0  0  0  3  0  0  0  0  0  0
  194.0950  173.2530  144.4660 C   0  0  0  0  0  3  0  0  0  0  0  0
  191.2340  173.5570  144.0100 C   0  0  0  0  0  2  0  0  0  0  0  0
  192.0220  174.5110  144.8640 C   0  0  0  0  0  0  0  0  0  0  0  0
  192.0830  176.4270  146.3590 C   0  0  0  0  0  3  0  0  0  0  0  0
  189.8970  175.8460  145.2890 C   0  0  2  0  0  3  0  0  0  0  0  0
  189.1840  174.7180  144.6770 N   0  0  0  0  0  2  0  0  0  0  0  0
  193.4490  176.2340  146.5640 C   0  0  0  0  0  3  0  0  0  0  0  0
  189.0690  173.1930  142.7430 C   0  0  2  0  0  3  0  0  0  0  0  0
  188.9000  171.8830  143.5100 C   0  0  0  0  0  1  0  0  0  0  0  0
  189.6790  172.9260  141.4450 N   0  0  0  0  0  2  0  0  0  0  0  0
  189.2490  173.5470  140.2330 C   0  0  0  0  0  0  0  0  0  0  0  0
  188.4980  174.5580  140.2640 O   0  0  0  0  0  0  0  0  0  0  0  0
  189.6210  172.9340  138.9120 C   0  0  0  0  0  2  0  0  0  0  0  0
  190.9960  172.4240  138.8620 N   0  0  0  0  0  0  0  0  0  0  0  0
  191.2620  171.8490  137.5460 C   0  0  0  0  0  2  0  0  0  0  0  0
  190.6230  172.0630  135.1510 C   0  0  0  0  0  1  0  0  0  0  0  0
  190.1430  172.1970  136.5820 C   0  0  0  0  0  2  0  0  0  0  0  0
  191.9470  173.5040  139.1000 C   0  0  0  0  0  2  0  0  0  0  0  0
  192.8840  173.1270  140.2010 C   0  0  0  0  0  0  0  0  0  0  0  0
  192.9850  171.9100  140.5240 O   0  0  0  0  0  0  0  0  0  0  0  0
  193.6990  174.1490  140.8950 C   0  0  0  0  0  0  0  0  0  0  0  0
  195.8670  174.9640  141.6360 C   0  0  0  0  0  3  0  0  0  0  0  0
  193.8700  176.2400  142.1230 C   0  0  0  0  0  3  0  0  0  0  0  0
  195.2560  176.0850  142.2030 C   0  0  0  0  0  3  0  0  0  0  0  0
  193.0950  175.2750  141.4740 C   0  0  0  0  0  3  0  0  0  0  0  0
  195.0910  173.9960  140.9860 C   0  0  0  0  0  3  0  0  0  0  0  0
  189.6880  177.1280  144.4940 C   0  0  0  0  0  2  0  0  0  0  0  0
  186.0280  178.1490  143.9210 C   0  0  0  0  0  3  0  0  0  0  0  0
  186.0590  178.3740  142.5910 C   0  0  0  0  0  0  0  0  0  0  0  0
  188.4290  177.7540  142.4540 C   0  0  0  0  0  3  0  0  0  0  0  0
  187.3070  177.9280  144.6850 C   0  0  0  0  0  2  0  0  0  0  0  0
  188.3210  177.1390  143.8280 C   0  0  2  0  0  3  0  0  0  0  0  0
  187.3530  178.3060  141.8710 C   0  0  0  0  0  3  0  0  0  0  0  0
  184.8970  178.6620  141.8650 O   0  0  0  0  0  0  0  0  0  0  0  0
  184.6920  178.2200  140.5250 C   0  0  0  0  0  1  0  0  0  0  0  0
  1  6  1  0  0  0  0
  1  8  1  0  0  0  0
  2 12  1  0  0  0  0
  3 16  1  1  0  0  0
  3 10  1  0  0  0  0
  3 14  1  0  0  0  0
  4  8  2  0  0  0  0
  4 15  1  0  0  0  0
  5  1  2  0  0  0  0
  7  4  1  0  0  0  0
  9  5  1  0  0  0  0
  9  7  2  0  0  0  0
 10 11  1  0  0  0  0
 11  7  1  0  0  0  0
 11  2  2  0  0  0  0
 12 15  2  0  0  0  0
 13 35  1  6  0  0  0
 13  2  1  0  0  0  0
 14 13  1  0  0  0  0
 16 17  1  1  0  0  0
 18 16  1  0  0  0  0
 19 20  2  0  0  0  0
 19 18  1  0  0  0  0
 21 19  1  0  0  0  0
 22 21  1  0  0  0  0
 22 26  1  0  0  0  0
 23 22  1  0  0  0  0
 24 25  1  0  0  0  0
 25 23  1  0  0  0  0
 26 27  1  0  0  0  0
 27 28  2  0  0  0  0
 27 29  1  0  0  0  0
 29 34  2  0  0  0  0
 29 33  1  0  0  0  0
 30 32  2  0  0  0  0
 31 32  1  0  0  0  0
 33 31  2  0  0  0  0
 34 30  1  0  0  0  0
 36 39  1  0  0  0  0
 37 36  2  0  0  0  0
 38 40  1  0  0  0  0
 40 35  1  1  0  0  0
 40 39  1  0  0  0  0
 41 38  2  0  0  0  0
 41 37  1  0  0  0  0
 42 37  1  0  0  0  0
 43 42  1  0  0  0  0
M  END
>  <MODEL>
7

>  <REMARK>
 VINA RESULT:      -6.5      1.943      7.102
  Name = 
  12 active torsions:
  status: ('A' for Active; 'I' for Inactive)
    1  A    between atoms: C_1  and  C_34
    2  A    between atoms: C_1  and  C_35
    3  A    between atoms: C_2  and  N_6
    4  A    between atoms: C_2  and  C_13
    5  A    between atoms: C_3  and  N_4
    6  A    between atoms: C_3  and  C_12
    7  A    between atoms: N_4  and  C_15
    8  A    between atoms: N_4  and  C_22
    9  A    between atoms: C_11  and  C_14
   10  A    between atoms: C_14  and  C_22
   11  A    between atoms: C_15  and  C_42
   12  A    between atoms: C_19  and  O_25
                            x       y       z     vdW  Elec       q    Type
                         _______ _______ _______ _____ _____    ______ ____

>  <TORSDO>
F 12

$$$$
=
 OpenBabel11052421013D

 43 47  0  0  1  0  0  0  0  0999 V2000
  191.1680  172.3170  139.0840 C   0  0  0  0  0  0  0  0  0  0  0  0
  190.6570  175.7550  142.7630 C   0  0  0  0  0  0  0  0  0  0  0  0
  193.1230  176.0510  144.0880 C   0  0  2  0  0  3  0  0  0  0  0  0
  190.2810  173.9050  140.6870 C   0  0  0  0  0  0  0  0  0  0  0  0
  192.4600  172.5800  139.5350 C   0  0  0  0  0  3  0  0  0  0  0  0
  190.9480  171.3250  137.9960 C   0  0  0  0  0  1  0  0  0  0  0  0
  191.5870  174.1710  141.1580 C   0  0  0  0  0  0  0  0  0  0  0  0
  190.0810  172.9780  139.6600 C   0  0  0  0  0  3  0  0  0  0  0  0
  192.6690  173.5010  140.5650 C   0  0  0  0  0  3  0  0  0  0  0  0
  193.1580  175.4340  142.6880 C   0  0  0  0  0  2  0  0  0  0  0  0
  191.7740  175.0930  142.2090 C   0  0  0  0  0  0  0  0  0  0  0  0
  189.3760  175.4840  142.2760 C   0  0  0  0  0  3  0  0  0  0  0  0
  190.8100  176.7250  143.9070 C   0  0  2  0  0  3  0  0  0  0  0  0
  192.1920  177.1830  144.1030 N   0  0  0  0  0  2  0  0  0  0  0  0
  189.1880  174.5650  141.2440 C   0  0  0  0  0  3  0  0  0  0  0  0
  194.5190  176.4980  144.5440 C   0  0  2  0  0  3  0  0  0  0  0  0
  195.4720  176.6360  143.3590 C   0  0  0  0  0  1  0  0  0  0  0  0
  195.0600  175.5370  145.4990 N   0  0  0  0  0  2  0  0  0  0  0  0
  196.0170  174.5360  145.1490 C   0  0  0  0  0  0  0  0  0  0  0  0
  196.6440  174.6060  144.0570 O   0  0  0  0  0  0  0  0  0  0  0  0
  196.2110  173.3470  146.0450 C   0  0  0  0  0  2  0  0  0  0  0  0
  195.7950  172.0760  145.4400 N   0  0  0  0  0  0  0  0  0  0  0  0
  196.4360  170.9640  146.1370 C   0  0  0  0  0  2  0  0  0  0  0  0
  197.9410  169.8470  144.5010 C   0  0  0  0  0  1  0  0  0  0  0  0
  196.6000  169.7790  145.2030 C   0  0  0  0  0  2  0  0  0  0  0  0
  194.3480  171.9170  145.5370 C   0  0  0  0  0  2  0  0  0  0  0  0
  193.7420  171.9110  144.1720 C   0  0  0  0  0  0  0  0  0  0  0  0
  194.5060  171.8980  143.1670 O   0  0  0  0  0  0  0  0  0  0  0  0
  192.2730  171.9020  143.9880 C   0  0  0  0  0  0  0  0  0  0  0  0
  190.3050  171.0960  142.8080 C   0  0  0  0  0  3  0  0  0  0  0  0
  190.0570  172.6640  144.6340 C   0  0  0  0  0  3  0  0  0  0  0  0
  189.4880  171.8700  143.6350 C   0  0  0  0  0  3  0  0  0  0  0  0
  191.4430  172.6810  144.8090 C   0  0  0  0  0  3  0  0  0  0  0  0
  191.6950  171.1130  142.9810 C   0  0  0  0  0  3  0  0  0  0  0  0
  190.2300  176.1550  145.1950 C   0  0  0  0  0  2  0  0  0  0  0  0
  186.9590  178.1700  145.0680 C   0  0  0  0  0  3  0  0  0  0  0  0
  186.3560  177.6960  146.1780 C   0  0  0  0  0  0  0  0  0  0  0  0
  188.2650  176.2470  146.7020 C   0  0  0  0  0  3  0  0  0  0  0  0
  188.2120  177.5160  144.5450 C   0  0  0  0  0  2  0  0  0  0  0  0
  189.0970  177.0280  145.7130 C   0  0  2  0  0  3  0  0  0  0  0  0
  186.9880  176.5890  146.9340 C   0  0  0  0  0  3  0  0  0  0  0  0
  185.1490  178.2300  146.6450 O   0  0  0  0  0  0  0  0  0  0  0  0
  184.1080  178.6660  145.7750 C   0  0  0  0  0  1  0  0  0  0  0  0
  1  5  2  0  0  0  0
  1  8  1  0  0  0  0
  2 13  1  0  0  0  0
  3 14  1  0  0  0  0
  3 16  1  6  0  0  0
  4  7  1  0  0  0  0
  4 15  1  0  0  0  0
  5  9  1  0  0  0  0
  6  1  1  0  0  0  0
  7 11  1  0  0  0  0
  8  4  2  0  0  0  0
  9  7  2  0  0  0  0
 10  3  1  0  0  0  0
 11 10  1  0  0  0  0
 11  2  2  0  0  0  0
 12  2  1  0  0  0  0
 13 14  1  0  0  0  0
 13 35  1  1  0  0  0
 15 12  2  0  0  0  0
 16 17  1  6  0  0  0
 16 18  1  0  0  0  0
 19 18  1  0  0  0  0
 19 21  1  0  0  0  0
 20 19  2  0  0  0  0
 22 26  1  0  0  0  0
 22 21  1  0  0  0  0
 22 23  1  0  0  0  0
 24 25  1  0  0  0  0
 25 23  1  0  0  0  0
 27 26  1  0  0  0  0
 28 27  2  0  0  0  0
 29 27  1  0  0  0  0
 29 33  1  0  0  0  0
 30 34  1  0  0  0  0
 30 32  2  0  0  0  0
 31 33  2  0  0  0  0
 32 31  1  0  0  0  0
 34 29  2  0  0  0  0
 36 37  2  0  0  0  0
 37 42  1  0  0  0  0
 37 41  1  0  0  0  0
 38 41  2  0  0  0  0
 39 36  1  0  0  0  0
 39 40  1  0  0  0  0
 40 35  1  6  0  0  0
 40 38  1  0  0  0  0
 43 42  1  0  0  0  0
M  END
>  <MODEL>
8

>  <REMARK>
 VINA RESULT:      -6.4      2.263      7.421
  Name = 
  12 active torsions:
  status: ('A' for Active; 'I' for Inactive)
    1  A    between atoms: C_1  and  C_34
    2  A    between atoms: C_1  and  C_35
    3  A    between atoms: C_2  and  N_6
    4  A    between atoms: C_2  and  C_13
    5  A    between atoms: C_3  and  N_4
    6  A    between atoms: C_3  and  C_12
    7  A    between atoms: N_4  and  C_15
    8  A    between atoms: N_4  and  C_22
    9  A    between atoms: C_11  and  C_14
   10  A    between atoms: C_14  and  C_22
   11  A    between atoms: C_15  and  C_42
   12  A    between atoms: C_19  and  O_25
                            x       y       z     vdW  Elec       q    Type
                         _______ _______ _______ _____ _____    ______ ____

>  <TORSDO>
F 12

$$$$
=
 OpenBabel11052421013D

 43 47  0  0  1  0  0  0  0  0999 V2000
  195.1060  169.7030  144.6280 C   0  0  0  0  0  0  0  0  0  0  0  0
  194.9270  174.6130  145.8450 C   0  0  0  0  0  0  0  0  0  0  0  0
  192.2830  175.5330  145.5440 C   0  0  2  0  0  3  0  0  0  0  0  0
  195.6810  171.9830  145.2150 C   0  0  0  0  0  0  0  0  0  0  0  0
  193.7530  170.0270  144.6830 C   0  0  0  0  0  3  0  0  0  0  0  0
  195.5260  168.3180  144.2780 C   0  0  0  0  0  1  0  0  0  0  0  0
  194.3100  172.3250  145.2640 C   0  0  0  0  0  0  0  0  0  0  0  0
  196.0690  170.6800  144.8930 C   0  0  0  0  0  3  0  0  0  0  0  0
  193.3560  171.3300  144.9980 C   0  0  0  0  0  3  0  0  0  0  0  0
  192.4800  174.0220  145.6810 C   0  0  0  0  0  2  0  0  0  0  0  0
  193.9320  173.6490  145.5690 C   0  0  0  0  0  0  0  0  0  0  0  0
  196.2750  174.2510  145.8020 C   0  0  0  0  0  3  0  0  0  0  0  0
  194.5660  176.0450  146.1470 C   0  0  2  0  0  3  0  0  0  0  0  0
  193.1520  176.2290  146.4980 N   0  0  0  0  0  2  0  0  0  0  0  0
  196.6510  172.9450  145.4890 C   0  0  0  0  0  3  0  0  0  0  0  0
  190.8180  175.9350  145.7610 C   0  0  2  0  0  3  0  0  0  0  0  0
  190.0850  174.9150  146.6290 C   0  0  0  0  0  1  0  0  0  0  0  0
  190.1420  176.0590  144.4740 N   0  0  0  0  0  2  0  0  0  0  0  0
  190.1600  177.2520  143.6900 C   0  0  0  0  0  0  0  0  0  0  0  0
  190.9850  178.1710  143.9430 O   0  0  0  0  0  0  0  0  0  0  0  0
  189.1290  177.4500  142.6150 C   0  0  0  0  0  2  0  0  0  0  0  0
  188.1080  176.3960  142.5720 N   0  0  0  0  0  0  0  0  0  0  0  0
  186.7800  176.9910  142.6860 C   0  0  0  0  0  2  0  0  0  0  0  0
  186.1590  178.5540  144.5200 C   0  0  0  0  0  1  0  0  0  0  0  0
  186.3750  177.1020  144.1450 C   0  0  0  0  0  2  0  0  0  0  0  0
  188.1870  175.6660  141.3120 C   0  0  0  0  0  2  0  0  0  0  0  0
  188.5080  174.2300  141.5720 C   0  0  0  0  0  0  0  0  0  0  0  0
  187.5990  173.4730  142.0130 O   0  0  0  0  0  0  0  0  0  0  0  0
  189.8590  173.6890  141.3050 C   0  0  0  0  0  0  0  0  0  0  0  0
  191.5440  172.9220  139.7270 C   0  0  0  0  0  3  0  0  0  0  0  0
  192.0250  172.9200  142.0990 C   0  0  0  0  0  3  0  0  0  0  0  0
  192.4230  172.6700  140.7830 C   0  0  0  0  0  3  0  0  0  0  0  0
  190.7480  173.4250  142.3580 C   0  0  0  0  0  3  0  0  0  0  0  0
  190.2640  173.4280  139.9860 C   0  0  0  0  0  3  0  0  0  0  0  0
  194.9770  176.9690  145.0080 C   0  0  0  0  0  2  0  0  0  0  0  0
  194.2910  175.7580  141.4260 C   0  0  0  0  0  3  0  0  0  0  0  0
  195.5260  175.8920  140.8990 C   0  0  0  0  0  0  0  0  0  0  0  0
  196.4450  176.6840  143.0310 C   0  0  0  0  0  3  0  0  0  0  0  0
  193.9800  176.3230  142.7870 C   0  0  0  0  0  2  0  0  0  0  0  0
  195.2000  176.1850  143.7240 C   0  0  2  0  0  3  0  0  0  0  0  0
  196.6000  176.5150  141.7090 C   0  0  0  0  0  3  0  0  0  0  0  0
  195.8270  175.4490  139.6050 O   0  0  0  0  0  0  0  0  0  0  0  0
  194.8450  174.9160  138.7210 C   0  0  0  0  0  1  0  0  0  0  0  0
  1  5  2  0  0  0  0
  1  8  1  0  0  0  0
  2 13  1  0  0  0  0
  3 10  1  0  0  0  0
  3 16  1  1  0  0  0
  3 14  1  0  0  0  0
  4  7  1  0  0  0  0
  4 15  1  0  0  0  0
  5  9  1  0  0  0  0
  6  1  1  0  0  0  0
  7 11  1  0  0  0  0
  8  4  2  0  0  0  0
  9  7  2  0  0  0  0
 11 10  1  0  0  0  0
 11  2  2  0  0  0  0
 12  2  1  0  0  0  0
 13 35  1  6  0  0  0
 13 14  1  0  0  0  0
 15 12  2  0  0  0  0
 16 17  1  1  0  0  0
 18 16  1  0  0  0  0
 19 20  2  0  0  0  0
 19 18  1  0  0  0  0
 21 19  1  0  0  0  0
 22 21  1  0  0  0  0
 22 23  1  0  0  0  0
 23 25  1  0  0  0  0
 25 24  1  0  0  0  0
 26 27  1  0  0  0  0
 26 22  1  0  0  0  0
 27 28  2  0  0  0  0
 29 27  1  0  0  0  0
 29 33  1  0  0  0  0
 30 34  1  0  0  0  0
 30 32  2  0  0  0  0
 31 33  2  0  0  0  0
 32 31  1  0  0  0  0
 34 29  2  0  0  0  0
 36 39  1  0  0  0  0
 37 36  2  0  0  0  0
 37 41  1  0  0  0  0
 38 40  1  0  0  0  0
 39 40  1  0  0  0  0
 40 35  1  1  0  0  0
 41 38  2  0  0  0  0
 42 37  1  0  0  0  0
 43 42  1  0  0  0  0
M  END
>  <MODEL>
9

>  <REMARK>
 VINA RESULT:      -6.4      2.428      6.542
  Name = 
  12 active torsions:
  status: ('A' for Active; 'I' for Inactive)
    1  A    between atoms: C_1  and  C_34
    2  A    between atoms: C_1  and  C_35
    3  A    between atoms: C_2  and  N_6
    4  A    between atoms: C_2  and  C_13
    5  A    between atoms: C_3  and  N_4
    6  A    between atoms: C_3  and  C_12
    7  A    between atoms: N_4  and  C_15
    8  A    between atoms: N_4  and  C_22
    9  A    between atoms: C_11  and  C_14
   10  A    between atoms: C_14  and  C_22
   11  A    between atoms: C_15  and  C_42
   12  A    between atoms: C_19  and  O_25
                            x       y       z     vdW  Elec       q    Type
                         _______ _______ _______ _____ _____    ______ ____

>  <TORSDO>
F 12

$$$$
