=
 OpenBabel11052418533D

 34 38  0  0  1  0  0  0  0  0999 V2000
  185.8680  178.4920  144.6670 C   0  0  0  0  0  0  0  0  0  0  0  0
  186.7150  177.0560  146.4580 C   0  0  0  0  0  0  0  0  0  0  0  0
  187.7470  177.0150  144.2570 C   0  0  0  0  0  0  0  0  0  0  0  0
  189.7000  175.3540  144.1470 N   0  0  0  0  0  0  0  0  0  0  0  0
  184.8110  178.5070  146.8490 C   0  0  0  0  0  3  0  0  0  0  0  0
  185.7280  177.5540  147.3130 C   0  0  0  0  0  3  0  0  0  0  0  0
  188.6150  175.6690  146.1330 C   0  0  0  0  0  0  0  0  0  0  0  0
  186.7700  177.5170  145.1250 C   0  0  0  0  0  0  0  0  0  0  0  0
  190.4830  174.6130  145.1360 C   0  0  0  0  0  2  0  0  0  0  0  0
  184.8830  178.9800  145.5320 C   0  0  0  0  0  3  0  0  0  0  0  0
  186.9990  178.4690  142.5350 C   0  0  0  0  0  3  0  0  0  0  0  0
  185.9840  178.9710  143.3600 C   0  0  0  0  0  3  0  0  0  0  0  0
  187.7110  176.1360  146.9450 N   0  0  0  0  0  0  0  0  0  0  0  0
  189.7580  174.7830  146.4950 C   0  0  1  0  0  3  0  0  0  0  0  0
  188.6180  175.9890  144.7630 N   0  0  0  0  0  0  0  0  0  0  0  0
  187.8540  177.5130  142.9950 N   0  0  0  0  0  0  0  0  0  0  0  0
  189.7800  174.9960  142.7630 C   0  0  0  0  0  3  0  0  0  0  0  0
  188.9900  174.0750  142.2140 C   0  0  0  0  0  3  0  0  0  0  0  0
  189.2110  173.5290  137.6930 C   0  0  0  0  0  3  0  0  0  0  0  0
  188.2890  174.1520  138.4260 C   0  0  0  0  0  3  0  0  0  0  0  0
  189.0490  173.6930  140.7940 C   0  0  0  0  0  0  0  0  0  0  0  0
  188.3860  174.4200  139.8750 C   0  0  0  0  0  3  0  0  0  0  0  0
  190.3610  172.1190  139.3580 C   0  0  0  0  0  3  0  0  0  0  0  0
  189.7340  172.4180  140.4960 C   0  0  0  0  0  3  0  0  0  0  0  0
  190.5270  173.0910  138.2390 C   0  0  0  0  0  2  0  0  0  0  0  0
  190.7100  175.4710  147.4630 C   0  0  0  0  0  2  0  0  0  0  0  0
  192.1560  175.3130  147.0250 C   0  0  0  0  0  2  0  0  0  0  0  0
  192.7620  176.5660  146.9270 O   0  0  0  0  0  0  0  0  0  0  0  0
  194.0850  176.2940  146.5770 C   0  0  0  0  0  2  0  0  0  0  0  0
  194.1440  175.0740  145.6730 C   0  0  0  0  0  2  0  0  0  0  0  0
  194.9140  174.3290  143.1720 O   0  0  0  0  0  0  0  0  0  0  0  0
  193.1650  176.2710  143.2560 O   0  0  0  0  0  1  0  0  0  0  0  0
  194.5260  175.5580  143.9620 P   0  0  0  0  0  0  0  0  0  0  0  0
  195.8110  176.6570  143.9470 O   0  0  0  0  0  1  0  0  0  0  0  0
  1  8  1  0  0  0  0
  1 10  2  0  0  0  0
  2 13  1  0  0  0  0
  2  6  1  0  0  0  0
  3 15  1  0  0  0  0
  3  8  1  0  0  0  0
  4 15  1  0  0  0  0
  4  9  1  0  0  0  0
  5  6  2  0  0  0  0
  7 14  1  0  0  0  0
  7 13  2  0  0  0  0
  8  2  2  0  0  0  0
  9 14  1  0  0  0  0
 10  5  1  0  0  0  0
 11 16  1  0  0  0  0
 11 12  2  0  0  0  0
 12  1  1  0  0  0  0
 14 26  1  1  0  0  0
 15  7  1  0  0  0  0
 16  3  2  0  0  0  0
 17  4  1  0  0  0  0
 18 17  2  0  0  0  0
 19 25  1  0  0  0  0
 19 20  2  0  0  0  0
 20 22  1  0  0  0  0
 21 18  1  0  0  0  0
 22 21  2  0  0  0  0
 23 24  2  0  0  0  0
 24 21  1  0  0  0  0
 25 23  1  0  0  0  0
 27 26  1  0  0  0  0
 28 27  1  0  0  0  0
 29 28  1  0  0  0  0
 30 29  1  0  0  0  0
 31 33  2  0  0  0  0
 32 33  1  0  0  0  0
 33 30  1  0  0  0  0
 34 33  1  0  0  0  0
M  END
>  <MODEL>
1

>  <REMARK>
 VINA RESULT:      -7.9      0.000      0.000
  Name = 
  8 active torsions:
  status: ('A' for Active; 'I' for Inactive)
    1  A    between atoms: C_3  and  O_13
    2  A    between atoms: C_3  and  C_17
    3  A    between atoms: N_5  and  C_26
    4  A    between atoms: C_12  and  C_28
    5  A    between atoms: O_13  and  C_33
    6  A    between atoms: C_17  and  C_29
    7  A    between atoms: P_20  and  C_34
    8  A    between atoms: C_33  and  C_34
                            x       y       z     vdW  Elec       q    Type
                         _______ _______ _______ _____ _____    ______ ____

>  <TORSDO>
F 8

$$$$
=
 OpenBabel11052418533D

 34 38  0  0  1  0  0  0  0  0999 V2000
  185.3370  178.4190  144.6720 C   0  0  0  0  0  0  0  0  0  0  0  0
  186.4620  177.1120  146.4080 C   0  0  0  0  0  0  0  0  0  0  0  0
  187.2790  177.0770  144.1180 C   0  0  0  0  0  0  0  0  0  0  0  0
  189.3380  175.5680  143.8610 N   0  0  0  0  0  0  0  0  0  0  0  0
  184.4950  178.4250  146.9460 C   0  0  0  0  0  3  0  0  0  0  0  0
  185.5250  177.5610  147.3420 C   0  0  0  0  0  3  0  0  0  0  0  0
  188.4270  175.8640  145.9340 C   0  0  0  0  0  0  0  0  0  0  0  0
  186.3530  177.5320  145.0650 C   0  0  0  0  0  0  0  0  0  0  0  0
  190.2690  174.9220  144.7870 C   0  0  0  0  0  2  0  0  0  0  0  0
  184.4030  178.8580  145.6160 C   0  0  0  0  0  3  0  0  0  0  0  0
  186.2570  178.4110  142.4410 C   0  0  0  0  0  3  0  0  0  0  0  0
  185.2900  178.8610  143.3480 C   0  0  0  0  0  3  0  0  0  0  0  0
  187.5700  176.2870  146.8180 N   0  0  0  0  0  0  0  0  0  0  0  0
  189.6660  175.0810  146.2050 C   0  0  1  0  0  3  0  0  0  0  0  0
  188.2730  176.1380  144.5630 N   0  0  0  0  0  0  0  0  0  0  0  0
  187.2260  177.5390  142.8400 N   0  0  0  0  0  0  0  0  0  0  0  0
  189.3140  175.1710  142.4850 C   0  0  0  0  0  3  0  0  0  0  0  0
  190.1100  174.2210  141.9990 C   0  0  0  0  0  3  0  0  0  0  0  0
  190.5180  172.4470  137.8190 C   0  0  0  0  0  3  0  0  0  0  0  0
  191.4360  173.0450  138.5780 C   0  0  0  0  0  3  0  0  0  0  0  0
  190.1000  173.7920  140.5920 C   0  0  0  0  0  0  0  0  0  0  0  0
  191.2520  173.4420  139.9880 C   0  0  0  0  0  3  0  0  0  0  0  0
  188.4030  173.1710  138.8610 C   0  0  0  0  0  3  0  0  0  0  0  0
  188.8090  173.9220  139.8850 C   0  0  0  0  0  3  0  0  0  0  0  0
  189.1870  172.0160  138.3350 C   0  0  0  0  0  2  0  0  0  0  0  0
  190.6480  175.8720  147.0580 C   0  0  0  0  0  2  0  0  0  0  0  0
  191.9710  176.0710  146.3380 C   0  0  0  0  0  2  0  0  0  0  0  0
  192.9150  176.6010  147.2180 O   0  0  0  0  0  0  0  0  0  0  0  0
  194.1160  176.5750  146.5080 C   0  0  0  0  0  2  0  0  0  0  0  0
  193.8440  176.3250  145.0340 C   0  0  0  0  0  2  0  0  0  0  0  0
  196.1060  176.7700  143.5900 O   0  0  0  0  0  1  0  0  0  0  0  0
  196.2810  174.8430  145.3490 O   0  0  0  0  0  1  0  0  0  0  0  0
  195.3170  175.6430  144.2130 P   0  0  0  0  0  0  0  0  0  0  0  0
  194.8500  174.5550  143.0040 O   0  0  0  0  0  0  0  0  0  0  0  0
  1  8  1  0  0  0  0
  1 10  2  0  0  0  0
  2 13  1  0  0  0  0
  2  6  1  0  0  0  0
  3 15  1  0  0  0  0
  3  8  1  0  0  0  0
  4 15  1  0  0  0  0
  4  9  1  0  0  0  0
  5  6  2  0  0  0  0
  7 14  1  0  0  0  0
  7 13  2  0  0  0  0
  8  2  2  0  0  0  0
  9 14  1  0  0  0  0
 10  5  1  0  0  0  0
 11 16  1  0  0  0  0
 11 12  2  0  0  0  0
 12  1  1  0  0  0  0
 14 26  1  1  0  0  0
 15  7  1  0  0  0  0
 16  3  2  0  0  0  0
 17  4  1  0  0  0  0
 18 17  2  0  0  0  0
 19 25  1  0  0  0  0
 19 20  2  0  0  0  0
 20 22  1  0  0  0  0
 21 18  1  0  0  0  0
 22 21  2  0  0  0  0
 23 24  2  0  0  0  0
 24 21  1  0  0  0  0
 25 23  1  0  0  0  0
 27 26  1  0  0  0  0
 27 28  1  0  0  0  0
 29 28  1  0  0  0  0
 30 29  1  0  0  0  0
 31 33  1  0  0  0  0
 33 30  1  0  0  0  0
 33 32  1  0  0  0  0
 34 33  2  0  0  0  0
M  END
>  <MODEL>
2

>  <REMARK>
 VINA RESULT:      -7.4      0.868      1.492
  Name = 
  8 active torsions:
  status: ('A' for Active; 'I' for Inactive)
    1  A    between atoms: C_3  and  O_13
    2  A    between atoms: C_3  and  C_17
    3  A    between atoms: N_5  and  C_26
    4  A    between atoms: C_12  and  C_28
    5  A    between atoms: O_13  and  C_33
    6  A    between atoms: C_17  and  C_29
    7  A    between atoms: P_20  and  C_34
    8  A    between atoms: C_33  and  C_34
                            x       y       z     vdW  Elec       q    Type
                         _______ _______ _______ _____ _____    ______ ____

>  <TORSDO>
F 8

$$$$
=
 OpenBabel11052418533D

 34 38  0  0  1  0  0  0  0  0999 V2000
  190.0000  173.7710  140.7890 C   0  0  0  0  0  0  0  0  0  0  0  0
  192.0230  174.6510  141.8480 C   0  0  0  0  0  0  0  0  0  0  0  0
  189.8860  174.7550  143.0030 C   0  0  0  0  0  0  0  0  0  0  0  0
  190.1000  175.8490  145.3140 N   0  0  0  0  0  0  0  0  0  0  0  0
  192.1230  173.7030  139.6170 C   0  0  0  0  0  3  0  0  0  0  0  0
  192.7600  174.3040  140.7120 C   0  0  0  0  0  3  0  0  0  0  0  0
  191.9790  175.5310  144.0530 C   0  0  0  0  0  0  0  0  0  0  0  0
  190.6350  174.3980  141.8740 C   0  0  0  0  0  0  0  0  0  0  0  0
  191.2170  176.2030  146.1900 C   0  0  0  0  0  2  0  0  0  0  0  0
  190.7480  173.4310  139.6570 C   0  0  0  0  0  3  0  0  0  0  0  0
  187.9320  173.8210  142.0300 C   0  0  0  0  0  3  0  0  0  0  0  0
  188.6370  173.4810  140.8690 C   0  0  0  0  0  3  0  0  0  0  0  0
  192.6800  175.1980  143.0080 N   0  0  0  0  0  0  0  0  0  0  0  0
  192.5100  176.0250  145.3560 C   0  0  1  0  0  3  0  0  0  0  0  0
  190.5750  175.4310  144.0670 N   0  0  0  0  0  0  0  0  0  0  0  0
  188.5640  174.4420  143.0660 N   0  0  0  0  0  0  0  0  0  0  0  0
  188.7950  176.3780  145.5740 C   0  0  0  0  0  3  0  0  0  0  0  0
  188.3970  177.5620  145.1140 C   0  0  0  0  0  3  0  0  0  0  0  0
  184.0880  179.0380  145.3220 C   0  0  0  0  0  3  0  0  0  0  0  0
  185.0350  179.3140  144.4260 C   0  0  0  0  0  3  0  0  0  0  0  0
  187.0610  178.1260  145.3640 C   0  0  0  0  0  0  0  0  0  0  0  0
  186.3560  178.6590  144.3490 C   0  0  0  0  0  3  0  0  0  0  0  0
  185.3880  178.1570  147.2240 C   0  0  0  0  0  3  0  0  0  0  0  0
  186.6440  178.1970  146.7800 C   0  0  0  0  0  3  0  0  0  0  0  0
  184.2130  177.9460  146.3300 C   0  0  0  0  0  2  0  0  0  0  0  0
  193.3790  174.9750  146.0360 C   0  0  0  0  0  2  0  0  0  0  0  0
  194.8020  175.4730  146.2240 C   0  0  0  0  0  2  0  0  0  0  0  0
  195.3200  175.9010  145.0020 O   0  0  0  0  0  0  0  0  0  0  0  0
  196.2600  174.9300  144.6540 C   0  0  0  0  0  2  0  0  0  0  0  0
  196.1550  174.6120  143.1720 C   0  0  0  0  0  2  0  0  0  0  0  0
  195.4460  176.7020  141.5810 O   0  0  0  0  0  1  0  0  0  0  0  0
  197.4960  177.1480  143.1420 O   0  0  0  0  0  1  0  0  0  0  0  0
  196.6700  176.0390  142.1690 P   0  0  0  0  0  0  0  0  0  0  0  0
  197.6830  175.5260  140.9140 O   0  0  0  0  0  0  0  0  0  0  0  0
  1 12  2  0  0  0  0
  1  8  1  0  0  0  0
  2  8  1  0  0  0  0
  2 13  1  0  0  0  0
  3 16  1  0  0  0  0
  3 15  1  0  0  0  0
  4 17  1  0  0  0  0
  4  9  1  0  0  0  0
  5 10  2  0  0  0  0
  5  6  1  0  0  0  0
  6  2  2  0  0  0  0
  7 15  1  0  0  0  0
  7 14  1  0  0  0  0
  8  3  2  0  0  0  0
 10  1  1  0  0  0  0
 11 16  2  0  0  0  0
 12 11  1  0  0  0  0
 13  7  2  0  0  0  0
 14 26  1  1  0  0  0
 14  9  1  0  0  0  0
 15  4  1  0  0  0  0
 18 21  1  0  0  0  0
 18 17  2  0  0  0  0
 19 25  1  0  0  0  0
 20 19  2  0  0  0  0
 21 24  1  0  0  0  0
 22 20  1  0  0  0  0
 22 21  2  0  0  0  0
 24 23  2  0  0  0  0
 25 23  1  0  0  0  0
 26 27  1  0  0  0  0
 28 27  1  0  0  0  0
 29 28  1  0  0  0  0
 30 29  1  0  0  0  0
 31 33  1  0  0  0  0
 33 32  1  0  0  0  0
 33 30  1  0  0  0  0
 34 33  2  0  0  0  0
M  END
>  <MODEL>
3

>  <REMARK>
 VINA RESULT:      -7.4      1.837      6.374
  Name = 
  8 active torsions:
  status: ('A' for Active; 'I' for Inactive)
    1  A    between atoms: C_3  and  O_13
    2  A    between atoms: C_3  and  C_17
    3  A    between atoms: N_5  and  C_26
    4  A    between atoms: C_12  and  C_28
    5  A    between atoms: O_13  and  C_33
    6  A    between atoms: C_17  and  C_29
    7  A    between atoms: P_20  and  C_34
    8  A    between atoms: C_33  and  C_34
                            x       y       z     vdW  Elec       q    Type
                         _______ _______ _______ _____ _____    ______ ____

>  <TORSDO>
F 8

$$$$
=
 OpenBabel11052418533D

 34 38  0  0  1  0  0  0  0  0999 V2000
  194.8260  174.8440  145.8400 C   0  0  0  0  0  0  0  0  0  0  0  0
  193.9620  172.6940  145.0530 C   0  0  0  0  0  0  0  0  0  0  0  0
  192.5070  174.6390  145.1620 C   0  0  0  0  0  0  0  0  0  0  0  0
  190.1240  174.0950  144.3810 N   0  0  0  0  0  0  0  0  0  0  0  0
  196.2700  172.8960  145.7720 C   0  0  0  0  0  3  0  0  0  0  0  0
  195.2180  172.1200  145.2660 C   0  0  0  0  0  3  0  0  0  0  0  0
  191.7270  172.4700  144.2830 C   0  0  0  0  0  0  0  0  0  0  0  0
  193.7660  174.0570  145.3600 C   0  0  0  0  0  0  0  0  0  0  0  0
  189.4990  172.9790  143.6710 C   0  0  0  0  0  2  0  0  0  0  0  0
  196.0780  174.2560  146.0530 C   0  0  0  0  0  3  0  0  0  0  0  0
  193.3520  176.7540  145.8340 C   0  0  0  0  0  3  0  0  0  0  0  0
  194.6160  176.2030  146.0800 C   0  0  0  0  0  3  0  0  0  0  0  0
  192.8960  171.9260  144.4620 N   0  0  0  0  0  0  0  0  0  0  0  0
  190.5520  171.8450  143.6100 C   0  0  1  0  0  3  0  0  0  0  0  0
  191.4460  173.7820  144.7090 N   0  0  0  0  0  0  0  0  0  0  0  0
  192.3320  175.9700  145.3810 N   0  0  0  0  0  0  0  0  0  0  0  0
  189.3060  175.0620  145.0480 C   0  0  0  0  0  3  0  0  0  0  0  0
  188.3600  175.7570  144.4200 C   0  0  0  0  0  3  0  0  0  0  0  0
  185.3660  178.8480  145.9250 C   0  0  0  0  0  3  0  0  0  0  0  0
  186.2230  178.9260  144.9080 C   0  0  0  0  0  3  0  0  0  0  0  0
  187.5030  176.7510  145.0840 C   0  0  0  0  0  0  0  0  0  0  0  0
  187.0410  177.8090  144.3920 C   0  0  0  0  0  3  0  0  0  0  0  0
  186.2700  176.9750  147.2510 C   0  0  0  0  0  3  0  0  0  0  0  0
  187.3310  176.5850  146.5420 C   0  0  0  0  0  3  0  0  0  0  0  0
  185.0520  177.5730  146.6320 C   0  0  0  0  0  2  0  0  0  0  0  0
  190.8460  171.5400  142.1480 C   0  0  0  0  0  2  0  0  0  0  0  0
  190.5900  172.7520  141.2680 C   0  0  0  0  0  2  0  0  0  0  0  0
  191.7080  173.0060  140.4740 O   0  0  0  0  0  0  0  0  0  0  0  0
  192.3610  174.0650  141.1060 C   0  0  0  0  0  2  0  0  0  0  0  0
  193.8010  173.6830  141.4060 C   0  0  0  0  0  2  0  0  0  0  0  0
  194.0120  176.2110  142.3910 O   0  0  0  0  0  1  0  0  0  0  0  0
  196.1870  174.7700  142.5720 O   0  0  0  0  0  1  0  0  0  0  0  0
  194.8220  175.1680  141.6570 P   0  0  0  0  0  0  0  0  0  0  0  0
  195.3080  175.7910  140.1610 O   0  0  0  0  0  0  0  0  0  0  0  0
  1 10  1  0  0  0  0
  1 12  1  0  0  0  0
  2  6  2  0  0  0  0
  2  8  1  0  0  0  0
  3  8  1  0  0  0  0
  3 16  2  0  0  0  0
  4 15  1  0  0  0  0
  4 17  1  0  0  0  0
  5 10  2  0  0  0  0
  6  5  1  0  0  0  0
  7 13  2  0  0  0  0
  7 15  1  0  0  0  0
  8  1  2  0  0  0  0
  9  4  1  0  0  0  0
 11 12  2  0  0  0  0
 13  2  1  0  0  0  0
 14 26  1  6  0  0  0
 14  9  1  0  0  0  0
 14  7  1  0  0  0  0
 15  3  1  0  0  0  0
 16 11  1  0  0  0  0
 18 17  2  0  0  0  0
 18 21  1  0  0  0  0
 19 25  1  0  0  0  0
 20 19  2  0  0  0  0
 21 24  1  0  0  0  0
 22 20  1  0  0  0  0
 22 21  2  0  0  0  0
 24 23  2  0  0  0  0
 25 23  1  0  0  0  0
 27 26  1  0  0  0  0
 28 29  1  0  0  0  0
 28 27  1  0  0  0  0
 29 30  1  0  0  0  0
 30 33  1  0  0  0  0
 33 31  1  0  0  0  0
 33 32  1  0  0  0  0
 34 33  2  0  0  0  0
M  END
>  <MODEL>
4

>  <REMARK>
 VINA RESULT:      -7.4      2.286      7.186
  Name = 
  8 active torsions:
  status: ('A' for Active; 'I' for Inactive)
    1  A    between atoms: C_3  and  O_13
    2  A    between atoms: C_3  and  C_17
    3  A    between atoms: N_5  and  C_26
    4  A    between atoms: C_12  and  C_28
    5  A    between atoms: O_13  and  C_33
    6  A    between atoms: C_17  and  C_29
    7  A    between atoms: P_20  and  C_34
    8  A    between atoms: C_33  and  C_34
                            x       y       z     vdW  Elec       q    Type
                         _______ _______ _______ _____ _____    ______ ____

>  <TORSDO>
F 8

$$$$
=
 OpenBabel11052418533D

 34 38  0  0  1  0  0  0  0  0999 V2000
  186.6380  177.0640  147.1500 C   0  0  0  0  0  0  0  0  0  0  0  0
  185.9430  178.3670  145.1990 C   0  0  0  0  0  0  0  0  0  0  0  0
  187.8360  176.8470  145.0520 C   0  0  0  0  0  0  0  0  0  0  0  0
  188.8830  176.8460  142.7100 N   0  0  0  0  0  0  0  0  0  0  0  0
  184.7760  178.6100  147.3110 C   0  0  0  0  0  3  0  0  0  0  0  0
  184.9310  178.9550  145.9610 C   0  0  0  0  0  3  0  0  0  0  0  0
  187.0210  178.1120  143.0970 C   0  0  0  0  0  0  0  0  0  0  0  0
  186.8090  177.4320  145.8050 C   0  0  0  0  0  0  0  0  0  0  0  0
  188.4790  177.3500  141.3970 C   0  0  0  0  0  2  0  0  0  0  0  0
  185.6230  177.6630  147.9030 C   0  0  0  0  0  3  0  0  0  0  0  0
  188.4650  175.5060  146.9080 C   0  0  0  0  0  3  0  0  0  0  0  0
  187.4750  176.0940  147.7060 C   0  0  0  0  0  3  0  0  0  0  0  0
  186.0630  178.6550  143.7920 N   0  0  0  0  0  0  0  0  0  0  0  0
  187.2300  178.2370  141.6270 C   0  0  1  0  0  3  0  0  0  0  0  0
  187.9930  177.2880  143.6940 N   0  0  0  0  0  0  0  0  0  0  0  0
  188.6230  175.8880  145.6090 N   0  0  0  0  0  0  0  0  0  0  0  0
  190.2400  176.4460  142.9320 C   0  0  0  0  0  3  0  0  0  0  0  0
  191.0940  177.1720  143.6490 C   0  0  0  0  0  3  0  0  0  0  0  0
  195.2380  175.8630  145.0270 C   0  0  0  0  0  3  0  0  0  0  0  0
  194.5100  176.9110  145.4120 C   0  0  0  0  0  3  0  0  0  0  0  0
  192.4900  176.7800  143.8950 C   0  0  0  0  0  0  0  0  0  0  0  0
  193.1070  177.1640  145.0290 C   0  0  0  0  0  3  0  0  0  0  0  0
  194.1750  175.2220  142.8960 C   0  0  0  0  0  3  0  0  0  0  0  0
  193.1760  176.0980  142.7780 C   0  0  0  0  0  3  0  0  0  0  0  0
  194.6870  174.7420  144.2120 C   0  0  0  0  0  2  0  0  0  0  0  0
  186.0670  177.6400  140.8470 C   0  0  0  0  0  2  0  0  0  0  0  0
  184.9610  178.6600  140.6360 C   0  0  0  0  0  2  0  0  0  0  0  0
  183.8150  178.0250  140.1570 O   0  0  0  0  0  0  0  0  0  0  0  0
  182.8340  178.2940  141.1120 C   0  0  0  0  0  2  0  0  0  0  0  0
  181.4530  178.1310  140.4980 C   0  0  0  0  0  2  0  0  0  0  0  0
  179.4450  179.9240  140.8890 O   0  0  0  0  0  0  0  0  0  0  0  0
  179.0750  177.5910  142.0090 O   0  0  0  0  0  1  0  0  0  0  0  0
  180.1740  178.8080  141.6000 P   0  0  0  0  0  0  0  0  0  0  0  0
  180.8900  179.4180  143.0060 O   0  0  0  0  0  1  0  0  0  0  0  0
  1 12  1  0  0  0  0
  1 10  2  0  0  0  0
  2  8  2  0  0  0  0
  2  6  1  0  0  0  0
  3 16  2  0  0  0  0
  3  8  1  0  0  0  0
  4 17  1  0  0  0  0
  4 15  1  0  0  0  0
  5 10  1  0  0  0  0
  6  5  2  0  0  0  0
  7 15  1  0  0  0  0
  7 13  2  0  0  0  0
  8  1  1  0  0  0  0
  9 14  1  0  0  0  0
  9  4  1  0  0  0  0
 11 12  2  0  0  0  0
 13  2  1  0  0  0  0
 14 26  1  6  0  0  0
 14  7  1  0  0  0  0
 15  3  1  0  0  0  0
 16 11  1  0  0  0  0
 17 18  2  0  0  0  0
 18 21  1  0  0  0  0
 19 20  2  0  0  0  0
 21 22  2  0  0  0  0
 22 20  1  0  0  0  0
 23 25  1  0  0  0  0
 24 23  2  0  0  0  0
 24 21  1  0  0  0  0
 25 19  1  0  0  0  0
 27 26  1  0  0  0  0
 28 27  1  0  0  0  0
 28 29  1  0  0  0  0
 30 29  1  0  0  0  0
 30 33  1  0  0  0  0
 31 33  2  0  0  0  0
 33 32  1  0  0  0  0
 33 34  1  0  0  0  0
M  END
>  <MODEL>
5

>  <REMARK>
 VINA RESULT:      -7.2      5.469      8.077
  Name = 
  8 active torsions:
  status: ('A' for Active; 'I' for Inactive)
    1  A    between atoms: C_3  and  O_13
    2  A    between atoms: C_3  and  C_17
    3  A    between atoms: N_5  and  C_26
    4  A    between atoms: C_12  and  C_28
    5  A    between atoms: O_13  and  C_33
    6  A    between atoms: C_17  and  C_29
    7  A    between atoms: P_20  and  C_34
    8  A    between atoms: C_33  and  C_34
                            x       y       z     vdW  Elec       q    Type
                         _______ _______ _______ _____ _____    ______ ____

>  <TORSDO>
F 8

$$$$
=
 OpenBabel11052418533D

 34 38  0  0  1  0  0  0  0  0999 V2000
  185.5220  177.7230  146.6460 C   0  0  0  0  0  0  0  0  0  0  0  0
  185.5560  178.4660  144.3150 C   0  0  0  0  0  0  0  0  0  0  0  0
  187.4110  177.1840  145.2240 C   0  0  0  0  0  0  0  0  0  0  0  0
  189.2440  176.7820  143.4750 N   0  0  0  0  0  0  0  0  0  0  0  0
  183.6890  179.0370  145.7540 C   0  0  0  0  0  3  0  0  0  0  0  0
  184.3190  179.0870  144.5030 C   0  0  0  0  0  3  0  0  0  0  0  0
  187.3360  177.8760  142.8570 C   0  0  0  0  0  0  0  0  0  0  0  0
  186.1640  177.7980  145.3990 C   0  0  0  0  0  0  0  0  0  0  0  0
  189.3360  176.9290  142.0220 C   0  0  0  0  0  2  0  0  0  0  0  0
  184.2850  178.3520  146.8220 C   0  0  0  0  0  3  0  0  0  0  0  0
  187.3520  176.3740  147.4560 C   0  0  0  0  0  3  0  0  0  0  0  0
  186.1220  177.0050  147.6830 C   0  0  0  0  0  3  0  0  0  0  0  0
  186.1760  178.4450  143.0140 N   0  0  0  0  0  0  0  0  0  0  0  0
  188.0660  177.6930  141.5710 C   0  0  1  0  0  3  0  0  0  0  0  0
  188.0440  177.3250  143.9420 N   0  0  0  0  0  0  0  0  0  0  0  0
  187.9650  176.4710  146.2420 N   0  0  0  0  0  0  0  0  0  0  0  0
  190.4360  176.6020  144.2480 C   0  0  0  0  0  3  0  0  0  0  0  0
  191.1150  175.4570  144.2620 C   0  0  0  0  0  3  0  0  0  0  0  0
  195.2110  174.7010  146.1150 C   0  0  0  0  0  3  0  0  0  0  0  0
  194.4390  173.8790  145.4060 C   0  0  0  0  0  3  0  0  0  0  0  0
  192.3440  175.2490  145.0440 C   0  0  0  0  0  0  0  0  0  0  0  0
  193.1970  174.2640  144.7050 C   0  0  0  0  0  3  0  0  0  0  0  0
  193.6260  176.4520  146.8240 C   0  0  0  0  0  3  0  0  0  0  0  0
  192.4780  176.0670  146.2670 C   0  0  0  0  0  3  0  0  0  0  0  0
  194.9600  176.1670  146.2220 C   0  0  0  0  0  2  0  0  0  0  0  0
  187.2870  176.8050  140.6100 C   0  0  0  0  0  2  0  0  0  0  0  0
  187.7700  175.3660  140.6720 C   0  0  0  0  0  2  0  0  0  0  0  0
  188.1990  174.9540  139.4110 O   0  0  0  0  0  0  0  0  0  0  0  0
  188.9470  173.8000  139.6480 C   0  0  0  0  0  2  0  0  0  0  0  0
  188.7380  173.3300  141.0770 C   0  0  0  0  0  2  0  0  0  0  0  0
  191.4260  173.3610  141.4950 O   0  0  0  0  0  1  0  0  0  0  0  0
  190.0350  172.1460  143.3460 O   0  0  0  0  0  1  0  0  0  0  0  0
  190.2190  172.4750  141.6980 P   0  0  0  0  0  0  0  0  0  0  0  0
  190.4430  171.0260  140.8540 O   0  0  0  0  0  0  0  0  0  0  0  0
  1 10  1  0  0  0  0
  1 12  1  0  0  0  0
  2  6  2  0  0  0  0
  2  8  1  0  0  0  0
  3  8  1  0  0  0  0
  3 16  2  0  0  0  0
  4 15  1  0  0  0  0
  4 17  1  0  0  0  0
  5 10  2  0  0  0  0
  6  5  1  0  0  0  0
  7 13  2  0  0  0  0
  7 15  1  0  0  0  0
  8  1  2  0  0  0  0
  9  4  1  0  0  0  0
 11 12  2  0  0  0  0
 13  2  1  0  0  0  0
 14 26  1  6  0  0  0
 14  9  1  0  0  0  0
 14  7  1  0  0  0  0
 15  3  1  0  0  0  0
 16 11  1  0  0  0  0
 17 18  2  0  0  0  0
 18 21  1  0  0  0  0
 19 25  1  0  0  0  0
 20 19  2  0  0  0  0
 21 24  1  0  0  0  0
 22 21  2  0  0  0  0
 22 20  1  0  0  0  0
 24 23  2  0  0  0  0
 25 23  1  0  0  0  0
 26 27  1  0  0  0  0
 28 29  1  0  0  0  0
 28 27  1  0  0  0  0
 29 30  1  0  0  0  0
 30 33  1  0  0  0  0
 31 33  1  0  0  0  0
 33 32  1  0  0  0  0
 34 33  2  0  0  0  0
M  END
>  <MODEL>
6

>  <REMARK>
 VINA RESULT:      -7.2      2.444      5.924
  Name = 
  8 active torsions:
  status: ('A' for Active; 'I' for Inactive)
    1  A    between atoms: C_3  and  O_13
    2  A    between atoms: C_3  and  C_17
    3  A    between atoms: N_5  and  C_26
    4  A    between atoms: C_12  and  C_28
    5  A    between atoms: O_13  and  C_33
    6  A    between atoms: C_17  and  C_29
    7  A    between atoms: P_20  and  C_34
    8  A    between atoms: C_33  and  C_34
                            x       y       z     vdW  Elec       q    Type
                         _______ _______ _______ _____ _____    ______ ____

>  <TORSDO>
F 8

$$$$
=
 OpenBabel11052418533D

 34 38  0  0  1  0  0  0  0  0999 V2000
  190.3120  173.7500  140.8360 C   0  0  0  0  0  0  0  0  0  0  0  0
  192.2570  174.7370  141.9460 C   0  0  0  0  0  0  0  0  0  0  0  0
  190.0860  174.7350  143.0400 C   0  0  0  0  0  0  0  0  0  0  0  0
  190.1780  175.8470  145.3500 N   0  0  0  0  0  0  0  0  0  0  0  0
  192.4680  173.7870  139.7240 C   0  0  0  0  0  3  0  0  0  0  0  0
  193.0420  174.4240  140.8330 C   0  0  0  0  0  3  0  0  0  0  0  0
  192.1050  175.6210  144.1450 C   0  0  0  0  0  0  0  0  0  0  0  0
  190.8840  174.4130  141.9350 C   0  0  0  0  0  0  0  0  0  0  0  0
  191.2500  176.2620  146.2560 C   0  0  0  0  0  2  0  0  0  0  0  0
  191.1080  173.4450  139.7270 C   0  0  0  0  0  3  0  0  0  0  0  0
  188.2090  173.6990  142.0180 C   0  0  0  0  0  3  0  0  0  0  0  0
  188.9640  173.3910  140.8780 C   0  0  0  0  0  3  0  0  0  0  0  0
  192.8510  175.3200  143.1220 N   0  0  0  0  0  0  0  0  0  0  0  0
  192.5730  176.1460  145.4590 C   0  0  1  0  0  3  0  0  0  0  0  0
  190.7090  175.4490  144.1200 N   0  0  0  0  0  0  0  0  0  0  0  0
  188.7790  174.3550  143.0680 N   0  0  0  0  0  0  0  0  0  0  0  0
  188.8410  176.3100  145.5720 C   0  0  0  0  0  3  0  0  0  0  0  0
  188.4590  177.5560  145.2990 C   0  0  0  0  0  3  0  0  0  0  0  0
  184.0670  178.7740  145.4200 C   0  0  0  0  0  3  0  0  0  0  0  0
  184.9920  179.0340  144.4970 C   0  0  0  0  0  3  0  0  0  0  0  0
  187.0910  178.0540  145.5120 C   0  0  0  0  0  0  0  0  0  0  0  0
  186.3520  178.4580  144.4630 C   0  0  0  0  0  3  0  0  0  0  0  0
  185.4240  178.1320  147.3770 C   0  0  0  0  0  3  0  0  0  0  0  0
  186.6750  178.2140  146.9210 C   0  0  0  0  0  3  0  0  0  0  0  0
  184.2630  177.7770  146.5120 C   0  0  0  0  0  2  0  0  0  0  0  0
  193.4750  175.1450  146.1690 C   0  0  0  0  0  2  0  0  0  0  0  0
  194.9410  175.5120  146.0100 C   0  0  0  0  0  2  0  0  0  0  0  0
  195.5790  174.5730  145.1990 O   0  0  0  0  0  0  0  0  0  0  0  0
  194.8670  173.3900  145.3960 C   0  0  0  0  0  2  0  0  0  0  0  0
  194.9200  172.5360  144.1400 C   0  0  0  0  0  2  0  0  0  0  0  0
  192.2610  172.2460  144.6400 O   0  0  0  0  0  1  0  0  0  0  0  0
  193.0650  171.2770  142.3490 O   0  0  0  0  0  0  0  0  0  0  0  0
  193.4150  171.5250  143.9840 P   0  0  0  0  0  0  0  0  0  0  0  0
  193.6440  170.0320  144.7450 O   0  0  0  0  0  1  0  0  0  0  0  0
  1 12  2  0  0  0  0
  1  8  1  0  0  0  0
  2 13  1  0  0  0  0
  3 16  1  0  0  0  0
  3 15  1  0  0  0  0
  4 17  1  0  0  0  0
  4  9  1  0  0  0  0
  5 10  2  0  0  0  0
  5  6  1  0  0  0  0
  6  2  2  0  0  0  0
  7 14  1  0  0  0  0
  8  2  1  0  0  0  0
  8  3  2  0  0  0  0
 10  1  1  0  0  0  0
 11 16  2  0  0  0  0
 12 11  1  0  0  0  0
 13  7  2  0  0  0  0
 14 26  1  1  0  0  0
 14  9  1  0  0  0  0
 15  7  1  0  0  0  0
 15  4  1  0  0  0  0
 18 21  1  0  0  0  0
 18 17  2  0  0  0  0
 19 25  1  0  0  0  0
 20 19  2  0  0  0  0
 21 24  1  0  0  0  0
 22 20  1  0  0  0  0
 22 21  2  0  0  0  0
 24 23  2  0  0  0  0
 25 23  1  0  0  0  0
 27 26  1  0  0  0  0
 28 29  1  0  0  0  0
 28 27  1  0  0  0  0
 30 29  1  0  0  0  0
 32 33  2  0  0  0  0
 33 30  1  0  0  0  0
 33 31  1  0  0  0  0
 33 34  1  0  0  0  0
M  END
>  <MODEL>
7

>  <REMARK>
 VINA RESULT:      -7.2      2.148      6.566
  Name = 
  8 active torsions:
  status: ('A' for Active; 'I' for Inactive)
    1  A    between atoms: C_3  and  O_13
    2  A    between atoms: C_3  and  C_17
    3  A    between atoms: N_5  and  C_26
    4  A    between atoms: C_12  and  C_28
    5  A    between atoms: O_13  and  C_33
    6  A    between atoms: C_17  and  C_29
    7  A    between atoms: P_20  and  C_34
    8  A    between atoms: C_33  and  C_34
                            x       y       z     vdW  Elec       q    Type
                         _______ _______ _______ _____ _____    ______ ____

>  <TORSDO>
F 8

$$$$
=
 OpenBabel11052418533D

 34 38  0  0  1  0  0  0  0  0999 V2000
  194.7440  175.1040  146.0360 C   0  0  0  0  0  0  0  0  0  0  0  0
  193.8220  172.9940  145.2100 C   0  0  0  0  0  0  0  0  0  0  0  0
  192.3780  174.9210  145.5410 C   0  0  0  0  0  0  0  0  0  0  0  0
  189.9400  174.4050  144.9290 N   0  0  0  0  0  0  0  0  0  0  0  0
  196.1810  173.1720  145.7460 C   0  0  0  0  0  3  0  0  0  0  0  0
  195.0930  172.4170  145.2890 C   0  0  0  0  0  3  0  0  0  0  0  0
  191.5320  172.7970  144.6150 C   0  0  0  0  0  0  0  0  0  0  0  0
  193.6490  174.3380  145.6030 C   0  0  0  0  0  0  0  0  0  0  0  0
  189.2600  173.3230  144.2160 C   0  0  0  0  0  2  0  0  0  0  0  0
  196.0100  174.5140  146.1140 C   0  0  0  0  0  3  0  0  0  0  0  0
  193.2710  177.0030  146.2520 C   0  0  0  0  0  3  0  0  0  0  0  0
  194.5520  176.4480  146.3640 C   0  0  0  0  0  3  0  0  0  0  0  0
  192.7120  172.2520  144.6680 N   0  0  0  0  0  0  0  0  0  0  0  0
  190.3070  172.2010  144.0090 C   0  0  1  0  0  3  0  0  0  0  0  0
  191.2850  174.0830  145.1310 N   0  0  0  0  0  0  0  0  0  0  0  0
  192.2190  176.2380  145.8430 N   0  0  0  0  0  0  0  0  0  0  0  0
  189.1770  175.3300  145.7120 C   0  0  0  0  0  3  0  0  0  0  0  0
  188.0100  175.8230  145.3040 C   0  0  0  0  0  3  0  0  0  0  0  0
  186.0050  179.1780  147.6520 C   0  0  0  0  0  3  0  0  0  0  0  0
  187.1550  178.5480  147.8910 C   0  0  0  0  0  3  0  0  0  0  0  0
  187.2060  176.7710  146.0920 C   0  0  0  0  0  0  0  0  0  0  0  0
  187.8060  177.5830  146.9820 C   0  0  0  0  0  3  0  0  0  0  0  0
  184.8600  177.6410  146.1010 C   0  0  0  0  0  3  0  0  0  0  0  0
  185.7400  176.6510  145.9460 C   0  0  0  0  0  3  0  0  0  0  0  0
  185.2580  179.0530  146.3670 C   0  0  0  0  0  2  0  0  0  0  0  0
  190.4800  171.9750  142.5130 C   0  0  0  0  0  2  0  0  0  0  0  0
  189.4800  172.7910  141.7120 C   0  0  0  0  0  2  0  0  0  0  0  0
  190.1410  173.8030  141.0160 O   0  0  0  0  0  0  0  0  0  0  0  0
  189.5590  174.9870  141.4720 C   0  0  0  0  0  2  0  0  0  0  0  0
  188.1990  175.1800  140.8220 C   0  0  0  0  0  2  0  0  0  0  0  0
  186.3340  176.4220  142.3660 O   0  0  0  0  0  1  0  0  0  0  0  0
  188.6000  177.7050  142.1260 O   0  0  0  0  0  1  0  0  0  0  0  0
  187.4350  176.7350  141.3790 P   0  0  0  0  0  0  0  0  0  0  0  0
  186.7790  177.5590  140.0550 O   0  0  0  0  0  0  0  0  0  0  0  0
  1 10  1  0  0  0  0
  1 12  1  0  0  0  0
  2  6  2  0  0  0  0
  2  8  1  0  0  0  0
  3  8  1  0  0  0  0
  3 16  2  0  0  0  0
  4 15  1  0  0  0  0
  4 17  1  0  0  0  0
  5 10  2  0  0  0  0
  6  5  1  0  0  0  0
  7 13  2  0  0  0  0
  7 15  1  0  0  0  0
  8  1  2  0  0  0  0
  9  4  1  0  0  0  0
 11 12  2  0  0  0  0
 13  2  1  0  0  0  0
 14 26  1  6  0  0  0
 14  9  1  0  0  0  0
 14  7  1  0  0  0  0
 15  3  1  0  0  0  0
 16 11  1  0  0  0  0
 18 17  2  0  0  0  0
 18 21  1  0  0  0  0
 19 20  2  0  0  0  0
 21 22  2  0  0  0  0
 22 20  1  0  0  0  0
 23 25  1  0  0  0  0
 24 21  1  0  0  0  0
 24 23  2  0  0  0  0
 25 19  1  0  0  0  0
 27 26  1  0  0  0  0
 28 29  1  0  0  0  0
 28 27  1  0  0  0  0
 30 33  1  0  0  0  0
 30 29  1  0  0  0  0
 33 32  1  0  0  0  0
 33 31  1  0  0  0  0
 34 33  2  0  0  0  0
M  END
>  <MODEL>
8

>  <REMARK>
 VINA RESULT:      -7.1      3.121      7.865
  Name = 
  8 active torsions:
  status: ('A' for Active; 'I' for Inactive)
    1  A    between atoms: C_3  and  O_13
    2  A    between atoms: C_3  and  C_17
    3  A    between atoms: N_5  and  C_26
    4  A    between atoms: C_12  and  C_28
    5  A    between atoms: O_13  and  C_33
    6  A    between atoms: C_17  and  C_29
    7  A    between atoms: P_20  and  C_34
    8  A    between atoms: C_33  and  C_34
                            x       y       z     vdW  Elec       q    Type
                         _______ _______ _______ _____ _____    ______ ____

>  <TORSDO>
F 8

$$$$
=
 OpenBabel11052418533D

 34 38  0  0  1  0  0  0  0  0999 V2000
  194.7470  174.8400  145.8710 C   0  0  0  0  0  0  0  0  0  0  0  0
  193.8380  172.7510  144.9780 C   0  0  0  0  0  0  0  0  0  0  0  0
  192.4420  174.7360  145.1270 C   0  0  0  0  0  0  0  0  0  0  0  0
  190.0650  174.3010  144.2640 N   0  0  0  0  0  0  0  0  0  0  0  0
  196.1310  172.8510  145.7620 C   0  0  0  0  0  3  0  0  0  0  0  0
  195.0690  172.1290  145.2000 C   0  0  0  0  0  3  0  0  0  0  0  0
  191.6180  172.6290  144.1420 C   0  0  0  0  0  0  0  0  0  0  0  0
  193.6760  174.1070  145.3330 C   0  0  0  0  0  0  0  0  0  0  0  0
  189.4240  173.2330  143.4950 C   0  0  0  0  0  2  0  0  0  0  0  0
  195.9740  174.2040  146.0920 C   0  0  0  0  0  3  0  0  0  0  0  0
  193.3340  176.7950  145.9030 C   0  0  0  0  0  3  0  0  0  0  0  0
  194.5730  176.1950  146.1590 C   0  0  0  0  0  3  0  0  0  0  0  0
  192.7650  172.0420  144.3290 N   0  0  0  0  0  0  0  0  0  0  0  0
  190.4430  172.0690  143.4160 C   0  0  1  0  0  3  0  0  0  0  0  0
  191.3670  173.9320  144.6130 N   0  0  0  0  0  0  0  0  0  0  0  0
  192.3030  176.0630  145.3940 N   0  0  0  0  0  0  0  0  0  0  0  0
  189.2600  175.2670  144.9480 C   0  0  0  0  0  3  0  0  0  0  0  0
  188.2860  175.9440  144.3450 C   0  0  0  0  0  3  0  0  0  0  0  0
  185.2930  178.9960  145.9310 C   0  0  0  0  0  3  0  0  0  0  0  0
  186.0730  179.0580  144.8530 C   0  0  0  0  0  3  0  0  0  0  0  0
  187.4410  176.9380  145.0270 C   0  0  0  0  0  0  0  0  0  0  0  0
  186.8940  177.9490  144.3260 C   0  0  0  0  0  3  0  0  0  0  0  0
  186.3560  177.2150  147.2640 C   0  0  0  0  0  3  0  0  0  0  0  0
  187.3780  176.8300  146.4990 C   0  0  0  0  0  3  0  0  0  0  0  0
  185.0760  177.7440  146.7100 C   0  0  0  0  0  2  0  0  0  0  0  0
  190.7660  171.8120  141.9510 C   0  0  0  0  0  2  0  0  0  0  0  0
  189.9340  172.6970  141.0380 C   0  0  0  0  0  2  0  0  0  0  0  0
  189.3110  171.9190  140.0620 O   0  0  0  0  0  0  0  0  0  0  0  0
  188.1960  172.6630  139.6730 C   0  0  0  0  0  2  0  0  0  0  0  0
  188.6380  173.9990  139.1000 C   0  0  0  0  0  2  0  0  0  0  0  0
  190.7920  174.0390  137.4390 O   0  0  0  0  0  1  0  0  0  0  0  0
  188.9990  172.2200  136.8790 O   0  0  0  0  0  1  0  0  0  0  0  0
  189.3010  173.7930  137.4190 P   0  0  0  0  0  0  0  0  0  0  0  0
  188.5670  174.9000  136.3710 O   0  0  0  0  0  0  0  0  0  0  0  0
  1 10  1  0  0  0  0
  1 12  1  0  0  0  0
  2  6  2  0  0  0  0
  2  8  1  0  0  0  0
  3  8  1  0  0  0  0
  3 16  2  0  0  0  0
  4 15  1  0  0  0  0
  4 17  1  0  0  0  0
  5 10  2  0  0  0  0
  6  5  1  0  0  0  0
  7 13  2  0  0  0  0
  7 15  1  0  0  0  0
  8  1  2  0  0  0  0
  9  4  1  0  0  0  0
 11 12  2  0  0  0  0
 13  2  1  0  0  0  0
 14 26  1  6  0  0  0
 14  9  1  0  0  0  0
 14  7  1  0  0  0  0
 15  3  1  0  0  0  0
 16 11  1  0  0  0  0
 18 17  2  0  0  0  0
 18 21  1  0  0  0  0
 19 25  1  0  0  0  0
 20 19  2  0  0  0  0
 21 24  1  0  0  0  0
 22 20  1  0  0  0  0
 22 21  2  0  0  0  0
 24 23  2  0  0  0  0
 25 23  1  0  0  0  0
 27 26  1  0  0  0  0
 28 27  1  0  0  0  0
 29 28  1  0  0  0  0
 30 29  1  0  0  0  0
 32 33  1  0  0  0  0
 33 31  1  0  0  0  0
 33 30  1  0  0  0  0
 34 33  2  0  0  0  0
M  END
>  <MODEL>
9

>  <REMARK>
 VINA RESULT:      -7.1      3.470      7.978
  Name = 
  8 active torsions:
  status: ('A' for Active; 'I' for Inactive)
    1  A    between atoms: C_3  and  O_13
    2  A    between atoms: C_3  and  C_17
    3  A    between atoms: N_5  and  C_26
    4  A    between atoms: C_12  and  C_28
    5  A    between atoms: O_13  and  C_33
    6  A    between atoms: C_17  and  C_29
    7  A    between atoms: P_20  and  C_34
    8  A    between atoms: C_33  and  C_34
                            x       y       z     vdW  Elec       q    Type
                         _______ _______ _______ _____ _____    ______ ____

>  <TORSDO>
F 8

$$$$
