=
 OpenBabel11052420523D

 43 47  0  0  1  0  0  0  0  0999 V2000
  189.1340  176.4090  144.1640 C   0  0  1  0  0  3  0  0  0  0  0  0
  194.5760  174.6470  143.9860 C   0  0  0  0  0  0  0  0  0  0  0  0
  190.2480  177.2720  144.7800 C   0  0  1  0  0  3  0  0  0  0  0  0
  192.7710  176.2570  143.8270 C   0  0  0  0  0  0  0  0  0  0  0  0
  194.1210  174.2530  145.2420 C   0  0  0  0  0  3  0  0  0  0  0  0
  195.7790  174.0020  143.3940 C   0  0  0  0  0  1  0  0  0  0  0  0
  192.2940  175.8590  145.0970 C   0  0  0  0  0  0  0  0  0  0  0  0
  193.8990  175.6410  143.2780 C   0  0  0  0  0  3  0  0  0  0  0  0
  192.9880  174.8540  145.7920 C   0  0  0  0  0  3  0  0  0  0  0  0
  191.1170  176.4890  145.6650 N   0  0  0  0  0  0  0  0  0  0  0  0
  191.0660  178.1190  143.8000 C   0  0  0  0  0  2  0  0  0  0  0  0
  192.0410  177.2680  142.9890 C   0  0  0  0  0  2  0  0  0  0  0  0
  192.0200  177.0380  147.7710 O   0  0  0  0  0  1  0  0  0  0  0  0
  189.8380  177.4760  147.4010 O   0  0  0  0  0  1  0  0  0  0  0  0
  190.8710  176.5780  147.1230 C   0  0  0  0  0  0  0  0  0  0  0  0
  190.5410  175.1980  147.7000 C   0  0  0  0  0  2  0  0  0  0  0  0
  189.1600  174.6980  147.3100 C   0  0  0  0  0  1  0  0  0  0  0  0
  187.8950  177.2390  143.8600 C   0  0  0  0  0  2  0  0  0  0  0  0
  185.6340  179.2840  145.9750 C   0  0  0  0  0  2  0  0  0  0  0  0
  185.0000  178.1680  146.8040 C   0  0  0  0  0  0  0  0  0  0  0  0
  184.5880  178.6840  148.0160 F   0  0  0  0  0  0  0  0  0  0  0  0
  186.6460  176.6000  145.7420 C   0  0  0  0  0  2  0  0  0  0  0  0
  186.2890  178.7070  144.7190 C   0  0  0  0  0  2  0  0  0  0  0  0
  187.3090  177.7330  145.0960 N   0  0  0  0  0  0  0  0  0  0  0  0
  183.9010  177.6570  146.1370 F   0  0  0  0  0  0  0  0  0  0  0  0
  186.0120  177.0500  147.0570 C   0  0  0  0  0  2  0  0  0  0  0  0
  189.5710  175.6380  142.9250 C   0  0  0  0  0  2  0  0  0  0  0  0
  189.0060  174.2260  142.9370 C   0  0  0  0  0  2  0  0  0  0  0  0
  190.7310  172.6700  141.8080 C   0  0  0  0  0  0  0  0  0  0  0  0
  190.4970  172.7760  144.2290 C   0  0  0  0  0  3  0  0  0  0  0  0
  191.4790  171.6040  141.8860 N   0  0  0  0  0  0  0  0  0  0  0  0
  191.6480  170.8620  143.1390 C   0  0  2  0  0  3  0  0  0  0  0  0
  191.6370  171.8040  144.3480 C   0  0  0  0  0  2  0  0  0  0  0  0
  190.1040  173.2180  143.0300 C   0  0  0  0  0  0  0  0  0  0  0  0
  190.5330  173.3150  140.5820 O   0  0  0  0  0  0  0  0  0  0  0  0
  189.6010  172.8560  139.6100 C   0  0  0  0  0  2  0  0  0  0  0  0
  188.7670  174.0120  139.0930 C   0  0  0  0  0  1  0  0  0  0  0  0
  192.9040  170.0010  143.0980 C   0  0  0  0  0  2  0  0  0  0  0  0
  193.0630  169.1680  144.3610 C   0  0  0  0  0  2  0  0  0  0  0  0
  194.5210  169.1410  144.7670 C   0  0  0  0  0  2  0  0  0  0  0  0
  196.0490  170.0810  146.4610 C   0  0  0  0  0  2  0  0  0  0  0  0
  194.8360  170.3670  145.5990 C   0  0  0  0  0  3  0  0  0  0  0  0
  196.1940  170.9010  145.1980 C   0  0  0  0  0  2  0  0  0  0  0  0
  1 27  1  6  0  0  0
  2  5  1  0  0  0  0
  3  1  1  6  0  0  0
  3 10  1  0  0  0  0
  4  7  2  0  0  0  0
  5  9  2  0  0  0  0
  6  2  1  0  0  0  0
  7 10  1  0  0  0  0
  7  9  1  0  0  0  0
  8  4  1  0  0  0  0
  8  2  2  0  0  0  0
 10 15  1  0  0  0  0
 11  3  1  0  0  0  0
 12 11  1  0  0  0  0
 12  4  1  0  0  0  0
 15 14  1  0  0  0  0
 15 16  1  0  0  0  0
 15 13  1  0  0  0  0
 17 16  1  0  0  0  0
 18  1  1  0  0  0  0
 18 24  1  0  0  0  0
 19 20  1  0  0  0  0
 20 26  1  0  0  0  0
 20 21  1  0  0  0  0
 22 26  1  0  0  0  0
 23 24  1  0  0  0  0
 23 19  1  0  0  0  0
 24 22  1  0  0  0  0
 25 20  1  0  0  0  0
 27 28  1  0  0  0  0
 28 34  1  0  0  0  0
 29 31  2  0  0  0  0
 29 34  1  0  0  0  0
 30 33  1  0  0  0  0
 31 32  1  0  0  0  0
 32 38  1  6  0  0  0
 32 33  1  0  0  0  0
 34 30  2  0  0  0  0
 35 29  1  0  0  0  0
 36 35  1  0  0  0  0
 37 36  1  0  0  0  0
 38 39  1  0  0  0  0
 39 40  1  0  0  0  0
 40 42  1  0  0  0  0
 42 41  1  0  0  0  0
 43 42  1  0  0  0  0
 43 41  1  0  0  0  0
M  END
>  <MODEL>
1

>  <REMARK>
 VINA RESULT:      -7.3      0.000      0.000
  Name = 
  14 active torsions:
  status: ('A' for Active; 'I' for Inactive)
    1  A    between atoms: C_1  and  C_34
    2  A    between atoms: C_1  and  N_35
    3  A    between atoms: C_2  and  C_27
    4  A    between atoms: O_3  and  C_4
    5  A    between atoms: O_3  and  C_12
    6  A    between atoms: C_8  and  C_34
    7  A    between atoms: C_11  and  C_22
    8  A    between atoms: C_11  and  C_36
    9  A    between atoms: C_15  and  C_38
   10  A    between atoms: C_15  and  C_42
   11  A    between atoms: C_27  and  N_30
   12  A    between atoms: C_29  and  C_31
   13  A    between atoms: C_29  and  C_36
   14  A    between atoms: C_34  and  C_38
                            x       y       z     vdW  Elec       q    Type
                         _______ _______ _______ _____ _____    ______ ____

>  <TORSDO>
F 14

$$$$
=
 OpenBabel11052420523D

 43 47  0  0  1  0  0  0  0  0999 V2000
  189.1290  176.5530  144.1780 C   0  0  1  0  0  3  0  0  0  0  0  0
  194.2140  173.9330  143.9740 C   0  0  0  0  0  0  0  0  0  0  0  0
  190.3810  177.2470  144.7410 C   0  0  1  0  0  3  0  0  0  0  0  0
  192.6850  175.8060  143.7840 C   0  0  0  0  0  0  0  0  0  0  0  0
  193.7300  173.6630  145.2530 C   0  0  0  0  0  3  0  0  0  0  0  0
  195.2830  173.0840  143.3880 C   0  0  0  0  0  1  0  0  0  0  0  0
  192.1810  175.5350  145.0770 C   0  0  0  0  0  0  0  0  0  0  0  0
  193.6870  174.9980  143.2400 C   0  0  0  0  0  3  0  0  0  0  0  0
  192.7210  174.4580  145.7990 C   0  0  0  0  0  3  0  0  0  0  0  0
  191.1330  176.3660  145.6410 N   0  0  0  0  0  0  0  0  0  0  0  0
  191.3000  177.9160  143.7140 C   0  0  0  0  0  2  0  0  0  0  0  0
  192.1070  176.8910  142.9210 C   0  0  0  0  0  2  0  0  0  0  0  0
  192.1370  176.9560  147.6890 O   0  0  0  0  0  1  0  0  0  0  0  0
  189.9800  177.5280  147.3570 O   0  0  0  0  0  1  0  0  0  0  0  0
  190.9400  176.5460  147.0970 C   0  0  0  0  0  0  0  0  0  0  0  0
  190.5340  175.2240  147.7550 C   0  0  0  0  0  2  0  0  0  0  0  0
  189.2400  174.6500  147.2020 C   0  0  0  0  0  1  0  0  0  0  0  0
  188.0340  177.5600  143.8580 C   0  0  0  0  0  2  0  0  0  0  0  0
  185.4990  179.3130  145.9240 C   0  0  0  0  0  2  0  0  0  0  0  0
  185.0130  178.1340  146.7650 C   0  0  0  0  0  0  0  0  0  0  0  0
  184.5230  178.6070  147.9660 F   0  0  0  0  0  0  0  0  0  0  0  0
  186.8640  176.7860  145.7390 C   0  0  0  0  0  2  0  0  0  0  0  0
  186.2370  178.8120  144.6820 C   0  0  0  0  0  2  0  0  0  0  0  0
  187.3760  177.9890  145.0820 N   0  0  0  0  0  0  0  0  0  0  0  0
  183.9980  177.4710  146.0970 F   0  0  0  0  0  0  0  0  0  0  0  0
  186.1630  177.1650  147.0430 C   0  0  0  0  0  2  0  0  0  0  0  0
  189.4090  175.6730  142.9670 C   0  0  0  0  0  2  0  0  0  0  0  0
  188.7650  174.3040  143.1310 C   0  0  0  0  0  2  0  0  0  0  0  0
  189.4420  172.7230  141.2030 C   0  0  0  0  0  0  0  0  0  0  0  0
  190.6100  172.7070  143.3400 C   0  0  0  0  0  3  0  0  0  0  0  0
  190.0230  171.6160  140.8310 N   0  0  0  0  0  0  0  0  0  0  0  0
  190.8070  170.7980  141.7610 C   0  0  2  0  0  3  0  0  0  0  0  0
  191.5440  171.6710  142.7830 C   0  0  0  0  0  2  0  0  0  0  0  0
  189.6490  173.2350  142.5750 C   0  0  0  0  0  0  0  0  0  0  0  0
  188.6420  173.4450  140.3100 O   0  0  0  0  0  0  0  0  0  0  0  0
  188.3400  172.9850  138.9990 C   0  0  0  0  0  2  0  0  0  0  0  0
  189.0420  173.8450  137.9650 C   0  0  0  0  0  1  0  0  0  0  0  0
  191.7570  169.8740  141.0080 C   0  0  0  0  0  2  0  0  0  0  0  0
  193.1590  170.4550  140.9150 C   0  0  0  0  0  2  0  0  0  0  0  0
  193.2790  171.2860  139.6560 C   0  0  0  0  0  2  0  0  0  0  0  0
  193.7970  173.5330  138.7790 C   0  0  0  0  0  2  0  0  0  0  0  0
  193.8790  172.6340  139.9960 C   0  0  0  0  0  3  0  0  0  0  0  0
  192.8010  173.6930  139.9060 C   0  0  0  0  0  2  0  0  0  0  0  0
  1 27  1  6  0  0  0
  2  5  1  0  0  0  0
  3  1  1  6  0  0  0
  3 10  1  0  0  0  0
  4  7  2  0  0  0  0
  5  9  2  0  0  0  0
  6  2  1  0  0  0  0
  7 10  1  0  0  0  0
  7  9  1  0  0  0  0
  8  4  1  0  0  0  0
  8  2  2  0  0  0  0
 10 15  1  0  0  0  0
 11  3  1  0  0  0  0
 12 11  1  0  0  0  0
 12  4  1  0  0  0  0
 15 14  1  0  0  0  0
 15 13  1  0  0  0  0
 15 16  1  0  0  0  0
 17 16  1  0  0  0  0
 18  1  1  0  0  0  0
 18 24  1  0  0  0  0
 19 20  1  0  0  0  0
 20 26  1  0  0  0  0
 20 21  1  0  0  0  0
 22 26  1  0  0  0  0
 23 24  1  0  0  0  0
 23 19  1  0  0  0  0
 24 22  1  0  0  0  0
 25 20  1  0  0  0  0
 27 28  1  0  0  0  0
 29 34  1  0  0  0  0
 31 29  2  0  0  0  0
 31 32  1  0  0  0  0
 32 38  1  6  0  0  0
 32 33  1  0  0  0  0
 33 30  1  0  0  0  0
 34 28  1  0  0  0  0
 34 30  2  0  0  0  0
 35 29  1  0  0  0  0
 36 35  1  0  0  0  0
 37 36  1  0  0  0  0
 39 38  1  0  0  0  0
 40 42  1  0  0  0  0
 40 39  1  0  0  0  0
 41 43  1  0  0  0  0
 41 42  1  0  0  0  0
 43 42  1  0  0  0  0
M  END
>  <MODEL>
2

>  <REMARK>
 VINA RESULT:      -7.2      1.485      2.338
  Name = 
  14 active torsions:
  status: ('A' for Active; 'I' for Inactive)
    1  A    between atoms: C_1  and  C_34
    2  A    between atoms: C_1  and  N_35
    3  A    between atoms: C_2  and  C_27
    4  A    between atoms: O_3  and  C_4
    5  A    between atoms: O_3  and  C_12
    6  A    between atoms: C_8  and  C_34
    7  A    between atoms: C_11  and  C_22
    8  A    between atoms: C_11  and  C_36
    9  A    between atoms: C_15  and  C_38
   10  A    between atoms: C_15  and  C_42
   11  A    between atoms: C_27  and  N_30
   12  A    between atoms: C_29  and  C_31
   13  A    between atoms: C_29  and  C_36
   14  A    between atoms: C_34  and  C_38
                            x       y       z     vdW  Elec       q    Type
                         _______ _______ _______ _____ _____    ______ ____

>  <TORSDO>
F 14

$$$$
=
 OpenBabel11052420523D

 43 47  0  0  1  0  0  0  0  0999 V2000
  192.3010  175.3060  145.0850 C   0  0  1  0  0  3  0  0  0  0  0  0
  196.5130  175.1640  141.2120 C   0  0  0  0  0  0  0  0  0  0  0  0
  193.5950  174.5260  145.3760 C   0  0  1  0  0  3  0  0  0  0  0  0
  195.5630  175.3410  143.4360 C   0  0  0  0  0  0  0  0  0  0  0  0
  195.7960  173.9890  140.9950 C   0  0  0  0  0  3  0  0  0  0  0  0
  197.4010  175.7020  140.1480 C   0  0  0  0  0  1  0  0  0  0  0  0
  194.8240  174.1540  143.2230 C   0  0  0  0  0  0  0  0  0  0  0  0
  196.3910  175.8410  142.4280 C   0  0  0  0  0  3  0  0  0  0  0  0
  194.9580  173.4900  141.9930 C   0  0  0  0  0  3  0  0  0  0  0  0
  193.9560  173.6390  144.2650 N   0  0  0  0  0  0  0  0  0  0  0  0
  194.7940  175.3570  145.8410 C   0  0  0  0  0  2  0  0  0  0  0  0
  195.4160  176.1500  144.6930 C   0  0  0  0  0  2  0  0  0  0  0  0
  192.2190  172.0620  144.4910 O   0  0  0  0  0  1  0  0  0  0  0  0
  194.0250  171.4890  143.2660 O   0  0  0  0  0  1  0  0  0  0  0  0
  193.6050  172.2060  144.3890 C   0  0  0  0  0  0  0  0  0  0  0  0
  194.2220  171.6080  145.6580 C   0  0  0  0  0  2  0  0  0  0  0  0
  195.7280  171.4270  145.5670 C   0  0  0  0  0  1  0  0  0  0  0  0
  192.1440  176.4900  146.0290 C   0  0  0  0  0  2  0  0  0  0  0  0
  188.6820  177.4840  146.9200 C   0  0  0  0  0  2  0  0  0  0  0  0
  187.9770  176.1480  146.6860 C   0  0  0  0  0  0  0  0  0  0  0  0
  186.8490  176.0870  147.4800 F   0  0  0  0  0  0  0  0  0  0  0  0
  190.2490  175.1410  146.3390 C   0  0  0  0  0  2  0  0  0  0  0  0
  190.0420  177.4980  146.2190 C   0  0  0  0  0  2  0  0  0  0  0  0
  190.8700  176.4070  146.7260 N   0  0  0  0  0  0  0  0  0  0  0  0
  187.5980  176.0470  145.3590 F   0  0  0  0  0  0  0  0  0  0  0  0
  188.9030  174.9850  147.0450 C   0  0  0  0  0  2  0  0  0  0  0  0
  192.1740  175.7640  143.6380 C   0  0  0  0  0  2  0  0  0  0  0  0
  191.1000  174.9710  142.9100 C   0  0  0  0  0  2  0  0  0  0  0  0
  188.5820  175.1830  142.3710 C   0  0  0  0  0  0  0  0  0  0  0  0
  189.9840  177.1430  142.7240 C   0  0  0  0  0  3  0  0  0  0  0  0
  187.6070  175.9140  141.9060 N   0  0  0  0  0  0  0  0  0  0  0  0
  187.7830  177.3340  141.5860 C   0  0  2  0  0  3  0  0  0  0  0  0
  188.7650  178.0040  142.5540 C   0  0  0  0  0  2  0  0  0  0  0  0
  189.8850  175.8100  142.6840 C   0  0  0  0  0  0  0  0  0  0  0  0
  188.4020  173.8140  142.5990 O   0  0  0  0  0  0  0  0  0  0  0  0
  188.0140  172.9050  141.5760 C   0  0  0  0  0  2  0  0  0  0  0  0
  189.0330  172.9100  140.4530 C   0  0  0  0  0  1  0  0  0  0  0  0
  186.4410  178.0540  141.5450 C   0  0  0  0  0  2  0  0  0  0  0  0
  186.1180  178.7310  142.8680 C   0  0  0  0  0  2  0  0  0  0  0  0
  185.0390  177.9480  143.5840 C   0  0  0  0  0  2  0  0  0  0  0  0
  184.5750  178.0060  146.0070 C   0  0  0  0  0  2  0  0  0  0  0  0
  184.4710  178.7850  144.7120 C   0  0  0  0  0  3  0  0  0  0  0  0
  185.5740  179.0990  145.6990 C   0  0  0  0  0  2  0  0  0  0  0  0
  1 27  1  6  0  0  0
  1 18  1  0  0  0  0
  2  8  1  0  0  0  0
  3  1  1  6  0  0  0
  3 11  1  0  0  0  0
  4 12  1  0  0  0  0
  5  2  2  0  0  0  0
  5  9  1  0  0  0  0
  6  2  1  0  0  0  0
  7  4  1  0  0  0  0
  7 10  1  0  0  0  0
  8  4  2  0  0  0  0
  9  7  2  0  0  0  0
 10 15  1  0  0  0  0
 10  3  1  0  0  0  0
 12 11  1  0  0  0  0
 14 15  1  0  0  0  0
 15 13  1  0  0  0  0
 15 16  1  0  0  0  0
 17 16  1  0  0  0  0
 18 24  1  0  0  0  0
 20 19  1  0  0  0  0
 20 26  1  0  0  0  0
 20 21  1  0  0  0  0
 22 24  1  0  0  0  0
 22 26  1  0  0  0  0
 23 24  1  0  0  0  0
 23 19  1  0  0  0  0
 25 20  1  0  0  0  0
 28 27  1  0  0  0  0
 29 35  1  0  0  0  0
 29 34  1  0  0  0  0
 31 29  2  0  0  0  0
 32 38  1  1  0  0  0
 32 31  1  0  0  0  0
 32 33  1  0  0  0  0
 33 30  1  0  0  0  0
 34 30  2  0  0  0  0
 34 28  1  0  0  0  0
 36 35  1  0  0  0  0
 37 36  1  0  0  0  0
 38 39  1  0  0  0  0
 39 40  1  0  0  0  0
 40 42  1  0  0  0  0
 42 43  1  0  0  0  0
 42 41  1  0  0  0  0
 43 41  1  0  0  0  0
M  END
>  <MODEL>
3

>  <REMARK>
 VINA RESULT:      -7.2      2.337      6.369
  Name = 
  14 active torsions:
  status: ('A' for Active; 'I' for Inactive)
    1  A    between atoms: C_1  and  C_34
    2  A    between atoms: C_1  and  N_35
    3  A    between atoms: C_2  and  C_27
    4  A    between atoms: O_3  and  C_4
    5  A    between atoms: O_3  and  C_12
    6  A    between atoms: C_8  and  C_34
    7  A    between atoms: C_11  and  C_22
    8  A    between atoms: C_11  and  C_36
    9  A    between atoms: C_15  and  C_38
   10  A    between atoms: C_15  and  C_42
   11  A    between atoms: C_27  and  N_30
   12  A    between atoms: C_29  and  C_31
   13  A    between atoms: C_29  and  C_36
   14  A    between atoms: C_34  and  C_38
                            x       y       z     vdW  Elec       q    Type
                         _______ _______ _______ _____ _____    ______ ____

>  <TORSDO>
F 14

$$$$
=
 OpenBabel11052420523D

 43 47  0  0  1  0  0  0  0  0999 V2000
  190.4000  173.0390  141.7410 C   0  0  1  0  0  3  0  0  0  0  0  0
  189.2200  176.6430  146.0270 C   0  0  0  0  0  0  0  0  0  0  0  0
  191.2950  173.0740  142.9920 C   0  0  1  0  0  3  0  0  0  0  0  0
  189.8830  174.5320  145.0370 C   0  0  0  0  0  0  0  0  0  0  0  0
  190.1790  177.3070  145.2640 C   0  0  0  0  0  3  0  0  0  0  0  0
  188.3530  177.4080  146.9610 C   0  0  0  0  0  1  0  0  0  0  0  0
  190.8530  175.1960  144.2510 C   0  0  0  0  0  0  0  0  0  0  0  0
  189.0680  175.2600  145.9080 C   0  0  0  0  0  3  0  0  0  0  0  0
  190.9880  176.5880  144.3830 C   0  0  0  0  0  3  0  0  0  0  0  0
  191.6920  174.4430  143.3380 N   0  0  0  0  0  0  0  0  0  0  0  0
  190.7720  172.3160  144.2160 C   0  0  0  0  0  2  0  0  0  0  0  0
  189.6250  173.0580  144.8970 C   0  0  0  0  0  2  0  0  0  0  0  0
  193.6430  173.9130  142.1280 O   0  0  0  0  0  1  0  0  0  0  0  0
  192.9660  176.0650  142.1690 O   0  0  0  0  0  1  0  0  0  0  0  0
  193.0410  174.8910  142.9230 C   0  0  0  0  0  0  0  0  0  0  0  0
  193.9390  175.1050  144.1450 C   0  0  0  0  0  2  0  0  0  0  0  0
  194.9710  176.2020  143.9480 C   0  0  0  0  0  1  0  0  0  0  0  0
  190.2750  171.6270  141.1880 C   0  0  0  0  0  2  0  0  0  0  0  0
  189.6760  171.7430  137.5280 C   0  0  0  0  0  2  0  0  0  0  0  0
  190.6460  172.8650  137.1580 C   0  0  0  0  0  0  0  0  0  0  0  0
  191.0400  172.7060  135.8450 F   0  0  0  0  0  0  0  0  0  0  0  0
  191.4660  172.7820  139.5280 C   0  0  0  0  0  2  0  0  0  0  0  0
  189.3840  171.7660  139.0290 C   0  0  0  0  0  2  0  0  0  0  0  0
  190.6280  171.6090  139.7780 N   0  0  0  0  0  0  0  0  0  0  0  0
  190.0160  174.0890  137.2920 F   0  0  0  0  0  0  0  0  0  0  0  0
  191.8810  172.8220  138.0580 C   0  0  0  0  0  2  0  0  0  0  0  0
  189.0200  173.6460  141.9570 C   0  0  0  0  0  2  0  0  0  0  0  0
  188.7940  174.8270  141.0260 C   0  0  0  0  0  2  0  0  0  0  0  0
  187.1450  176.7900  140.7060 C   0  0  0  0  0  0  0  0  0  0  0  0
  187.2700  175.5520  142.8000 C   0  0  0  0  0  3  0  0  0  0  0  0
  186.4120  177.7190  141.2520 N   0  0  0  0  0  0  0  0  0  0  0  0
  186.1980  177.7920  142.7010 C   0  0  2  0  0  3  0  0  0  0  0  0
  186.1420  176.3930  143.3250 C   0  0  0  0  0  2  0  0  0  0  0  0
  187.7090  175.7110  141.5470 C   0  0  0  0  0  0  0  0  0  0  0  0
  187.3880  176.7890  139.3280 O   0  0  0  0  0  0  0  0  0  0  0  0
  186.3560  176.6340  138.3620 C   0  0  0  0  0  2  0  0  0  0  0  0
  186.8440  175.7890  137.2010 C   0  0  0  0  0  1  0  0  0  0  0  0
  184.9590  178.6150  143.0300 C   0  0  0  0  0  2  0  0  0  0  0  0
  185.2790  179.7820  143.9510 C   0  0  0  0  0  2  0  0  0  0  0  0
  185.6620  179.2560  145.3170 C   0  0  0  0  0  2  0  0  0  0  0  0
  184.7390  177.2970  146.4980 C   0  0  0  0  0  2  0  0  0  0  0  0
  184.4360  178.6970  146.0070 C   0  0  0  0  0  3  0  0  0  0  0  0
  184.7540  178.4580  147.4670 C   0  0  0  0  0  2  0  0  0  0  0  0
  1 18  1  1  0  0  0
  1 27  1  0  0  0  0
  2  6  1  0  0  0  0
  3  1  1  6  0  0  0
  3 10  1  0  0  0  0
  3 11  1  0  0  0  0
  4  8  2  0  0  0  0
  5  2  2  0  0  0  0
  7  9  2  0  0  0  0
  7  4  1  0  0  0  0
  8  2  1  0  0  0  0
  9  5  1  0  0  0  0
 10  7  1  0  0  0  0
 11 12  1  0  0  0  0
 12  4  1  0  0  0  0
 13 15  1  0  0  0  0
 14 15  1  0  0  0  0
 15 10  1  0  0  0  0
 15 16  1  0  0  0  0
 17 16  1  0  0  0  0
 19 23  1  0  0  0  0
 20 25  1  0  0  0  0
 20 19  1  0  0  0  0
 20 26  1  0  0  0  0
 21 20  1  0  0  0  0
 22 24  1  0  0  0  0
 23 24  1  0  0  0  0
 24 18  1  0  0  0  0
 26 22  1  0  0  0  0
 28 34  1  0  0  0  0
 28 27  1  0  0  0  0
 29 31  2  0  0  0  0
 29 34  1  0  0  0  0
 30 33  1  0  0  0  0
 31 32  1  0  0  0  0
 32 38  1  6  0  0  0
 32 33  1  0  0  0  0
 34 30  2  0  0  0  0
 35 29  1  0  0  0  0
 36 35  1  0  0  0  0
 37 36  1  0  0  0  0
 38 39  1  0  0  0  0
 39 40  1  0  0  0  0
 40 42  1  0  0  0  0
 41 43  1  0  0  0  0
 42 41  1  0  0  0  0
 42 43  1  0  0  0  0
M  END
>  <MODEL>
4

>  <REMARK>
 VINA RESULT:      -6.9      3.770      8.258
  Name = 
  14 active torsions:
  status: ('A' for Active; 'I' for Inactive)
    1  A    between atoms: C_1  and  C_34
    2  A    between atoms: C_1  and  N_35
    3  A    between atoms: C_2  and  C_27
    4  A    between atoms: O_3  and  C_4
    5  A    between atoms: O_3  and  C_12
    6  A    between atoms: C_8  and  C_34
    7  A    between atoms: C_11  and  C_22
    8  A    between atoms: C_11  and  C_36
    9  A    between atoms: C_15  and  C_38
   10  A    between atoms: C_15  and  C_42
   11  A    between atoms: C_27  and  N_30
   12  A    between atoms: C_29  and  C_31
   13  A    between atoms: C_29  and  C_36
   14  A    between atoms: C_34  and  C_38
                            x       y       z     vdW  Elec       q    Type
                         _______ _______ _______ _____ _____    ______ ____

>  <TORSDO>
F 14

$$$$
=
 OpenBabel11052420523D

 43 47  0  0  1  0  0  0  0  0999 V2000
  194.2600  173.3240  142.0440 C   0  0  1  0  0  3  0  0  0  0  0  0
  192.4650  175.7920  146.8850 C   0  0  0  0  0  0  0  0  0  0  0  0
  194.7100  172.7720  143.4070 C   0  0  1  0  0  3  0  0  0  0  0  0
  193.0140  173.9360  145.4250 C   0  0  0  0  0  0  0  0  0  0  0  0
  193.7160  176.3560  146.6470 C   0  0  0  0  0  3  0  0  0  0  0  0
  191.5010  176.4750  147.7870 C   0  0  0  0  0  1  0  0  0  0  0  0
  194.2840  174.5040  145.1680 C   0  0  0  0  0  0  0  0  0  0  0  0
  192.1130  174.5880  146.2700 C   0  0  0  0  0  3  0  0  0  0  0  0
  194.6180  175.7170  145.7940 C   0  0  0  0  0  3  0  0  0  0  0  0
  195.2170  173.8340  144.2830 N   0  0  0  0  0  0  0  0  0  0  0  0
  193.7040  171.8770  144.1380 C   0  0  0  0  0  2  0  0  0  0  0  0
  192.5540  172.6840  144.7350 C   0  0  0  0  0  2  0  0  0  0  0  0
  197.3200  173.1690  143.4540 O   0  0  0  0  0  1  0  0  0  0  0  0
  197.0600  175.3160  144.0960 O   0  0  0  0  0  1  0  0  0  0  0  0
  196.6850  174.0000  144.3800 C   0  0  0  0  0  0  0  0  0  0  0  0
  197.1830  173.5980  145.7720 C   0  0  0  0  0  2  0  0  0  0  0  0
  196.8250  172.1690  146.1480 C   0  0  0  0  0  1  0  0  0  0  0  0
  195.1430  172.8070  140.9180 C   0  0  0  0  0  2  0  0  0  0  0  0
  197.5300  175.0440  139.1660 C   0  0  0  0  0  2  0  0  0  0  0  0
  196.9920  174.9060  137.7420 C   0  0  0  0  0  0  0  0  0  0  0  0
  197.3080  176.0440  137.0270 F   0  0  0  0  0  0  0  0  0  0  0  0
  195.0770  173.6080  138.7130 C   0  0  0  0  0  2  0  0  0  0  0  0
  197.0170  173.8980  140.0400 C   0  0  0  0  0  2  0  0  0  0  0  0
  195.5570  173.9070  140.0620 N   0  0  0  0  0  0  0  0  0  0  0  0
  197.5770  173.8130  137.1260 F   0  0  0  0  0  0  0  0  0  0  0  0
  195.4730  174.7340  137.7580 C   0  0  0  0  0  2  0  0  0  0  0  0
  192.7930  173.0590  141.7290 C   0  0  0  0  0  2  0  0  0  0  0  0
  192.1320  174.2960  141.1420 C   0  0  0  0  0  2  0  0  0  0  0  0
  190.2210  174.7660  142.8160 C   0  0  0  0  0  0  0  0  0  0  0  0
  192.1450  176.2470  142.6220 C   0  0  0  0  0  3  0  0  0  0  0  0
  189.5740  175.6350  143.5420 N   0  0  0  0  0  0  0  0  0  0  0  0
  190.0480  177.0120  143.7150 C   0  0  2  0  0  3  0  0  0  0  0  0
  191.5790  177.0730  143.7420 C   0  0  0  0  0  2  0  0  0  0  0  0
  191.5250  175.1330  142.2200 C   0  0  0  0  0  0  0  0  0  0  0  0
  189.7060  173.4810  142.6120 O   0  0  0  0  0  0  0  0  0  0  0  0
  188.4640  173.2410  141.9620 C   0  0  0  0  0  2  0  0  0  0  0  0
  188.6820  173.0150  140.4780 C   0  0  0  0  0  1  0  0  0  0  0  0
  189.4290  177.6510  144.9510 C   0  0  0  0  0  2  0  0  0  0  0  0
  188.1730  176.9220  145.4000 C   0  0  0  0  0  2  0  0  0  0  0  0
  187.0580  177.9220  145.6150 C   0  0  0  0  0  2  0  0  0  0  0  0
  185.2670  178.3080  147.2680 C   0  0  0  0  0  2  0  0  0  0  0  0
  185.9340  177.2680  146.3920 C   0  0  0  0  0  3  0  0  0  0  0  0
  184.6170  177.8830  145.9690 C   0  0  0  0  0  2  0  0  0  0  0  0
  1 18  1  6  0  0  0
  2  6  1  0  0  0  0
  3  1  1  6  0  0  0
  3 11  1  0  0  0  0
  3 10  1  0  0  0  0
  4  8  1  0  0  0  0
  5  2  1  0  0  0  0
  7  4  2  0  0  0  0
  7  9  1  0  0  0  0
  8  2  2  0  0  0  0
  9  5  2  0  0  0  0
 10 15  1  0  0  0  0
 10  7  1  0  0  0  0
 11 12  1  0  0  0  0
 12  4  1  0  0  0  0
 13 15  1  0  0  0  0
 14 15  1  0  0  0  0
 15 16  1  0  0  0  0
 16 17  1  0  0  0  0
 19 23  1  0  0  0  0
 20 26  1  0  0  0  0
 20 19  1  0  0  0  0
 21 20  1  0  0  0  0
 22 24  1  0  0  0  0
 23 24  1  0  0  0  0
 24 18  1  0  0  0  0
 25 20  1  0  0  0  0
 26 22  1  0  0  0  0
 27  1  1  0  0  0  0
 28 27  1  0  0  0  0
 28 34  1  0  0  0  0
 29 31  2  0  0  0  0
 30 33  1  0  0  0  0
 31 32  1  0  0  0  0
 32 33  1  0  0  0  0
 32 38  1  1  0  0  0
 34 30  2  0  0  0  0
 34 29  1  0  0  0  0
 35 29  1  0  0  0  0
 36 35  1  0  0  0  0
 37 36  1  0  0  0  0
 38 39  1  0  0  0  0
 39 40  1  0  0  0  0
 40 42  1  0  0  0  0
 42 41  1  0  0  0  0
 43 42  1  0  0  0  0
 43 41  1  0  0  0  0
M  END
>  <MODEL>
5

>  <REMARK>
 VINA RESULT:      -6.8      4.589      8.623
  Name = 
  14 active torsions:
  status: ('A' for Active; 'I' for Inactive)
    1  A    between atoms: C_1  and  C_34
    2  A    between atoms: C_1  and  N_35
    3  A    between atoms: C_2  and  C_27
    4  A    between atoms: O_3  and  C_4
    5  A    between atoms: O_3  and  C_12
    6  A    between atoms: C_8  and  C_34
    7  A    between atoms: C_11  and  C_22
    8  A    between atoms: C_11  and  C_36
    9  A    between atoms: C_15  and  C_38
   10  A    between atoms: C_15  and  C_42
   11  A    between atoms: C_27  and  N_30
   12  A    between atoms: C_29  and  C_31
   13  A    between atoms: C_29  and  C_36
   14  A    between atoms: C_34  and  C_38
                            x       y       z     vdW  Elec       q    Type
                         _______ _______ _______ _____ _____    ______ ____

>  <TORSDO>
F 14

$$$$
=
 OpenBabel11052420523D

 43 47  0  0  1  0  0  0  0  0999 V2000
  193.8730  175.0940  144.4550 C   0  0  1  0  0  3  0  0  0  0  0  0
  197.1570  174.3400  139.8280 C   0  0  0  0  0  0  0  0  0  0  0  0
  195.4060  175.1430  144.5770 C   0  0  1  0  0  3  0  0  0  0  0  0
  196.4880  175.3750  141.9170 C   0  0  0  0  0  0  0  0  0  0  0  0
  197.1010  173.0840  140.4280 C   0  0  0  0  0  3  0  0  0  0  0  0
  197.5400  174.4650  138.3980 C   0  0  0  0  0  1  0  0  0  0  0  0
  196.4200  174.1040  142.5340 C   0  0  0  0  0  0  0  0  0  0  0  0
  196.8440  175.4820  140.5700 C   0  0  0  0  0  3  0  0  0  0  0  0
  196.7350  172.9680  141.7700 C   0  0  0  0  0  3  0  0  0  0  0  0
  196.0400  173.9900  143.9290 N   0  0  0  0  0  0  0  0  0  0  0  0
  196.0740  176.4570  144.1600 C   0  0  0  0  0  2  0  0  0  0  0  0
  196.0920  176.6290  142.6430 C   0  0  0  0  0  2  0  0  0  0  0  0
  197.7780  172.4990  144.4850 O   0  0  0  0  0  1  0  0  0  0  0  0
  196.4320  173.2310  146.1410 O   0  0  0  0  0  1  0  0  0  0  0  0
  196.4650  172.8650  144.7930 C   0  0  0  0  0  0  0  0  0  0  0  0
  195.5800  171.6380  144.5560 C   0  0  0  0  0  2  0  0  0  0  0  0
  194.6890  171.3020  145.7410 C   0  0  0  0  0  1  0  0  0  0  0  0
  193.2230  174.7470  145.7860 C   0  0  0  0  0  2  0  0  0  0  0  0
  189.5200  174.5730  145.6200 C   0  0  0  0  0  2  0  0  0  0  0  0
  189.1850  175.2390  146.9550 C   0  0  0  0  0  0  0  0  0  0  0  0
  187.9320  175.8130  146.8720 F   0  0  0  0  0  0  0  0  0  0  0  0
  191.6280  175.7650  147.1750 C   0  0  0  0  0  2  0  0  0  0  0  0
  190.9780  174.1120  145.6070 C   0  0  0  0  0  2  0  0  0  0  0  0
  191.8610  175.2550  145.8240 N   0  0  0  0  0  0  0  0  0  0  0  0
  189.1760  174.2880  147.9600 F   0  0  0  0  0  0  0  0  0  0  0  0
  190.2100  176.3240  147.2830 C   0  0  0  0  0  2  0  0  0  0  0  0
  193.2630  176.3680  143.8850 C   0  0  0  0  0  2  0  0  0  0  0  0
  192.5570  176.0890  142.5670 C   0  0  0  0  0  2  0  0  0  0  0  0
  190.1150  175.3580  142.1440 C   0  0  0  0  0  0  0  0  0  0  0  0
  190.6470  177.4480  143.2740 C   0  0  0  0  0  3  0  0  0  0  0  0
  188.8640  175.7010  142.0100 N   0  0  0  0  0  0  0  0  0  0  0  0
  188.3950  177.0600  142.2980 C   0  0  2  0  0  3  0  0  0  0  0  0
  189.1750  177.6820  143.4620 C   0  0  0  0  0  2  0  0  0  0  0  0
  191.0880  176.3270  142.6940 C   0  0  0  0  0  0  0  0  0  0  0  0
  190.5450  174.0730  141.7930 O   0  0  0  0  0  0  0  0  0  0  0  0
  189.7810  172.9040  142.0590 C   0  0  0  0  0  2  0  0  0  0  0  0
  190.6430  171.8530  142.7320 C   0  0  0  0  0  1  0  0  0  0  0  0
  186.8920  177.0780  142.5440 C   0  0  0  0  0  2  0  0  0  0  0  0
  186.4450  178.3530  143.2430 C   0  0  0  0  0  2  0  0  0  0  0  0
  185.3080  178.0370  144.1900 C   0  0  0  0  0  2  0  0  0  0  0  0
  184.8770  178.6740  146.5340 C   0  0  0  0  0  2  0  0  0  0  0  0
  185.8370  177.9580  145.6070 C   0  0  0  0  0  3  0  0  0  0  0  0
  184.8670  177.1630  146.4540 C   0  0  0  0  0  2  0  0  0  0  0  0
  1 27  1  1  0  0  0
  1 18  1  0  0  0  0
  2  5  2  0  0  0  0
  2  8  1  0  0  0  0
  3  1  1  6  0  0  0
  4  7  1  0  0  0  0
  4 12  1  0  0  0  0
  5  9  1  0  0  0  0
  6  2  1  0  0  0  0
  7 10  1  0  0  0  0
  8  4  2  0  0  0  0
  9  7  2  0  0  0  0
 10  3  1  0  0  0  0
 10 15  1  0  0  0  0
 11  3  1  0  0  0  0
 12 11  1  0  0  0  0
 13 15  1  0  0  0  0
 15 14  1  0  0  0  0
 16 15  1  0  0  0  0
 16 17  1  0  0  0  0
 18 24  1  0  0  0  0
 19 20  1  0  0  0  0
 20 26  1  0  0  0  0
 20 25  1  0  0  0  0
 21 20  1  0  0  0  0
 22 26  1  0  0  0  0
 23 19  1  0  0  0  0
 23 24  1  0  0  0  0
 24 22  1  0  0  0  0
 28 34  1  0  0  0  0
 28 27  1  0  0  0  0
 29 34  1  0  0  0  0
 30 33  1  0  0  0  0
 31 29  2  0  0  0  0
 31 32  1  0  0  0  0
 32 38  1  1  0  0  0
 32 33  1  0  0  0  0
 34 30  2  0  0  0  0
 35 36  1  0  0  0  0
 35 29  1  0  0  0  0
 36 37  1  0  0  0  0
 38 39  1  0  0  0  0
 39 40  1  0  0  0  0
 40 42  1  0  0  0  0
 42 43  1  0  0  0  0
 42 41  1  0  0  0  0
 43 41  1  0  0  0  0
M  END
>  <MODEL>
6

>  <REMARK>
 VINA RESULT:      -6.7      2.814      6.770
  Name = 
  14 active torsions:
  status: ('A' for Active; 'I' for Inactive)
    1  A    between atoms: C_1  and  C_34
    2  A    between atoms: C_1  and  N_35
    3  A    between atoms: C_2  and  C_27
    4  A    between atoms: O_3  and  C_4
    5  A    between atoms: O_3  and  C_12
    6  A    between atoms: C_8  and  C_34
    7  A    between atoms: C_11  and  C_22
    8  A    between atoms: C_11  and  C_36
    9  A    between atoms: C_15  and  C_38
   10  A    between atoms: C_15  and  C_42
   11  A    between atoms: C_27  and  N_30
   12  A    between atoms: C_29  and  C_31
   13  A    between atoms: C_29  and  C_36
   14  A    between atoms: C_34  and  C_38
                            x       y       z     vdW  Elec       q    Type
                         _______ _______ _______ _____ _____    ______ ____

>  <TORSDO>
F 14

$$$$
=
 OpenBabel11052420523D

 43 47  0  0  1  0  0  0  0  0999 V2000
  193.8410  173.5380  142.1460 C   0  0  1  0  0  3  0  0  0  0  0  0
  192.4560  176.1140  147.0660 C   0  0  0  0  0  0  0  0  0  0  0  0
  194.4630  173.0640  143.4710 C   0  0  1  0  0  3  0  0  0  0  0  0
  192.9380  174.2280  145.6200 C   0  0  0  0  0  0  0  0  0  0  0  0
  193.6440  176.7250  146.6710 C   0  0  0  0  0  3  0  0  0  0  0  0
  191.5610  176.7870  148.0440 C   0  0  0  0  0  1  0  0  0  0  0  0
  194.1420  174.8440  145.2060 C   0  0  0  0  0  0  0  0  0  0  0  0
  192.1010  174.8710  146.5360 C   0  0  0  0  0  3  0  0  0  0  0  0
  194.4800  176.0950  145.7480 C   0  0  0  0  0  3  0  0  0  0  0  0
  195.0070  174.1820  144.2470 N   0  0  0  0  0  0  0  0  0  0  0  0
  193.5890  172.1530  144.3380 C   0  0  0  0  0  2  0  0  0  0  0  0
  192.4700  172.9290  145.0290 C   0  0  0  0  0  2  0  0  0  0  0  0
  197.0490  173.5400  143.2610 O   0  0  0  0  0  1  0  0  0  0  0  0
  196.7420  175.7220  143.7490 O   0  0  0  0  0  1  0  0  0  0  0  0
  196.4670  174.4200  144.1770 C   0  0  0  0  0  0  0  0  0  0  0  0
  197.1220  174.1620  145.5380 C   0  0  0  0  0  2  0  0  0  0  0  0
  196.8180  172.7830  146.1000 C   0  0  0  0  0  1  0  0  0  0  0  0
  192.7300  172.6040  141.6900 C   0  0  0  0  0  2  0  0  0  0  0  0
  193.2260  169.5780  139.6000 C   0  0  0  0  0  2  0  0  0  0  0  0
  192.5770  170.0670  138.3060 C   0  0  0  0  0  0  0  0  0  0  0  0
  193.1330  169.3910  137.2380 F   0  0  0  0  0  0  0  0  0  0  0  0
  192.3990  172.3260  139.3830 C   0  0  0  0  0  2  0  0  0  0  0  0
  192.7870  170.4500  140.7770 C   0  0  0  0  0  2  0  0  0  0  0  0
  193.1640  171.8400  140.5310 N   0  0  0  0  0  0  0  0  0  0  0  0
  191.2170  169.8110  138.3390 F   0  0  0  0  0  0  0  0  0  0  0  0
  192.8120  171.5670  138.1230 C   0  0  0  0  0  2  0  0  0  0  0  0
  193.3410  174.9760  142.1850 C   0  0  0  0  0  2  0  0  0  0  0  0
  191.8690  175.0490  141.8070 C   0  0  0  0  0  2  0  0  0  0  0  0
  189.8920  175.0110  143.4700 C   0  0  0  0  0  0  0  0  0  0  0  0
  191.4120  176.9090  143.3330 C   0  0  0  0  0  3  0  0  0  0  0  0
  189.0540  175.6830  144.2080 N   0  0  0  0  0  0  0  0  0  0  0  0
  189.1870  177.1280  144.4190 C   0  0  2  0  0  3  0  0  0  0  0  0
  190.6610  177.5490  144.4660 C   0  0  0  0  0  2  0  0  0  0  0  0
  191.0750  175.6910  142.8980 C   0  0  0  0  0  0  0  0  0  0  0  0
  189.6970  173.6470  143.2300 O   0  0  0  0  0  0  0  0  0  0  0  0
  188.7340  173.1550  142.3060 C   0  0  0  0  0  2  0  0  0  0  0  0
  189.3360  172.0540  141.4530 C   0  0  0  0  0  1  0  0  0  0  0  0
  188.4280  177.5710  145.6630 C   0  0  0  0  0  2  0  0  0  0  0  0
  187.7000  176.4130  146.3280 C   0  0  0  0  0  2  0  0  0  0  0  0
  186.2510  176.7870  146.5500 C   0  0  0  0  0  2  0  0  0  0  0  0
  184.5780  178.4970  145.9480 C   0  0  0  0  0  2  0  0  0  0  0  0
  186.0490  178.2490  146.2100 C   0  0  0  0  0  3  0  0  0  0  0  0
  185.1870  178.8910  147.2760 C   0  0  0  0  0  2  0  0  0  0  0  0
  1 18  1  1  0  0  0
  1 27  1  0  0  0  0
  2  6  1  0  0  0  0
  3  1  1  6  0  0  0
  3 10  1  0  0  0  0
  3 11  1  0  0  0  0
  4  8  1  0  0  0  0
  5  2  1  0  0  0  0
  7  4  2  0  0  0  0
  7  9  1  0  0  0  0
  8  2  2  0  0  0  0
  9  5  2  0  0  0  0
 10  7  1  0  0  0  0
 11 12  1  0  0  0  0
 12  4  1  0  0  0  0
 13 15  1  0  0  0  0
 14 15  1  0  0  0  0
 15 10  1  0  0  0  0
 15 16  1  0  0  0  0
 16 17  1  0  0  0  0
 19 23  1  0  0  0  0
 20 25  1  0  0  0  0
 20 19  1  0  0  0  0
 21 20  1  0  0  0  0
 22 24  1  0  0  0  0
 24 23  1  0  0  0  0
 24 18  1  0  0  0  0
 26 20  1  0  0  0  0
 26 22  1  0  0  0  0
 28 27  1  0  0  0  0
 28 34  1  0  0  0  0
 29 31  2  0  0  0  0
 30 33  1  0  0  0  0
 31 32  1  0  0  0  0
 32 33  1  0  0  0  0
 32 38  1  1  0  0  0
 34 30  2  0  0  0  0
 34 29  1  0  0  0  0
 35 29  1  0  0  0  0
 36 35  1  0  0  0  0
 37 36  1  0  0  0  0
 38 39  1  0  0  0  0
 39 40  1  0  0  0  0
 41 42  1  0  0  0  0
 41 43  1  0  0  0  0
 42 40  1  0  0  0  0
 42 43  1  0  0  0  0
M  END
>  <MODEL>
7

>  <REMARK>
 VINA RESULT:      -6.7      3.948      8.238
  Name = 
  14 active torsions:
  status: ('A' for Active; 'I' for Inactive)
    1  A    between atoms: C_1  and  C_34
    2  A    between atoms: C_1  and  N_35
    3  A    between atoms: C_2  and  C_27
    4  A    between atoms: O_3  and  C_4
    5  A    between atoms: O_3  and  C_12
    6  A    between atoms: C_8  and  C_34
    7  A    between atoms: C_11  and  C_22
    8  A    between atoms: C_11  and  C_36
    9  A    between atoms: C_15  and  C_38
   10  A    between atoms: C_15  and  C_42
   11  A    between atoms: C_27  and  N_30
   12  A    between atoms: C_29  and  C_31
   13  A    between atoms: C_29  and  C_36
   14  A    between atoms: C_34  and  C_38
                            x       y       z     vdW  Elec       q    Type
                         _______ _______ _______ _____ _____    ______ ____

>  <TORSDO>
F 14

$$$$
=
 OpenBabel11052420523D

 43 47  0  0  1  0  0  0  0  0999 V2000
  192.9300  172.5970  143.6190 C   0  0  1  0  0  3  0  0  0  0  0  0
  188.7830  176.4330  142.6960 C   0  0  0  0  0  0  0  0  0  0  0  0
  192.5950  173.0460  142.1860 C   0  0  1  0  0  3  0  0  0  0  0  0
  190.9570  175.4100  142.3700 C   0  0  0  0  0  0  0  0  0  0  0  0
  188.1680  175.1970  142.5040 C   0  0  0  0  0  3  0  0  0  0  0  0
  187.9600  177.6380  142.9740 C   0  0  0  0  0  1  0  0  0  0  0  0
  190.3440  174.1490  142.1820 C   0  0  0  0  0  0  0  0  0  0  0  0
  190.1740  176.5360  142.6360 C   0  0  0  0  0  3  0  0  0  0  0  0
  188.9430  174.0650  142.2490 C   0  0  0  0  0  3  0  0  0  0  0  0
  191.1550  172.9760  141.9160 N   0  0  0  0  0  0  0  0  0  0  0  0
  193.1810  174.3910  141.7470 C   0  0  0  0  0  2  0  0  0  0  0  0
  192.4500  175.5680  142.3900 C   0  0  0  0  0  2  0  0  0  0  0  0
  190.1720  170.8400  142.0710 O   0  0  0  0  0  1  0  0  0  0  0  0
  189.6010  172.1520  140.3260 O   0  0  0  0  0  1  0  0  0  0  0  0
  190.6530  171.7970  141.1740 C   0  0  0  0  0  0  0  0  0  0  0  0
  191.7820  171.1450  140.3710 C   0  0  0  0  0  2  0  0  0  0  0  0
  191.8940  171.6750  138.9500 C   0  0  0  0  0  1  0  0  0  0  0  0
  194.1940  173.2720  144.1300 C   0  0  0  0  0  2  0  0  0  0  0  0
  196.8170  171.5070  146.0720 C   0  0  0  0  0  2  0  0  0  0  0  0
  196.2860  170.0790  145.9580 C   0  0  0  0  0  0  0  0  0  0  0  0
  197.3390  169.1940  146.0750 F   0  0  0  0  0  0  0  0  0  0  0  0
  194.5740  170.9670  144.3520 C   0  0  0  0  0  2  0  0  0  0  0  0
  195.7150  172.5130  145.7380 C   0  0  0  0  0  2  0  0  0  0  0  0
  195.2240  172.2770  144.3830 N   0  0  0  0  0  0  0  0  0  0  0  0
  195.3800  169.8350  146.9750 F   0  0  0  0  0  0  0  0  0  0  0  0
  195.6060  169.8680  144.6040 C   0  0  0  0  0  2  0  0  0  0  0  0
  191.7870  172.7970  144.6060 C   0  0  0  0  0  2  0  0  0  0  0  0
  192.1380  173.8620  145.6340 C   0  0  0  0  0  2  0  0  0  0  0  0
  191.2270  176.2500  146.0090 C   0  0  0  0  0  0  0  0  0  0  0  0
  189.7470  174.3190  145.8980 C   0  0  0  0  0  3  0  0  0  0  0  0
  190.2670  177.0110  146.4570 N   0  0  0  0  0  0  0  0  0  0  0  0
  188.9770  176.4640  146.8900 C   0  0  2  0  0  3  0  0  0  0  0  0
  188.5770  175.2500  146.0430 C   0  0  0  0  0  2  0  0  0  0  0  0
  190.9930  174.8000  145.8340 C   0  0  0  0  0  0  0  0  0  0  0  0
  192.4710  176.7940  145.6710 O   0  0  0  0  0  0  0  0  0  0  0  0
  193.6100  176.7040  146.5180 C   0  0  0  0  0  2  0  0  0  0  0  0
  194.8670  176.5100  145.6920 C   0  0  0  0  0  1  0  0  0  0  0  0
  187.9000  177.5410  146.8890 C   0  0  0  0  0  2  0  0  0  0  0  0
  186.5630  177.0080  147.3820 C   0  0  0  0  0  2  0  0  0  0  0  0
  185.4960  177.2880  146.3470 C   0  0  0  0  0  2  0  0  0  0  0  0
  185.4980  179.2780  144.8880 C   0  0  0  0  0  2  0  0  0  0  0  0
  185.2230  178.7770  146.2910 C   0  0  0  0  0  3  0  0  0  0  0  0
  184.0750  179.0340  145.3390 C   0  0  0  0  0  2  0  0  0  0  0  0
  1 18  1  1  0  0  0
  1 27  1  0  0  0  0
  2  6  1  0  0  0  0
  3  1  1  1  0  0  0
  4 12  1  0  0  0  0
  4  8  2  0  0  0  0
  5  2  2  0  0  0  0
  7  9  2  0  0  0  0
  7  4  1  0  0  0  0
  8  2  1  0  0  0  0
  9  5  1  0  0  0  0
 10  7  1  0  0  0  0
 10  3  1  0  0  0  0
 11  3  1  0  0  0  0
 11 12  1  0  0  0  0
 14 15  1  0  0  0  0
 15 10  1  0  0  0  0
 15 13  1  0  0  0  0
 16 15  1  0  0  0  0
 17 16  1  0  0  0  0
 18 24  1  0  0  0  0
 20 19  1  0  0  0  0
 20 21  1  0  0  0  0
 20 25  1  0  0  0  0
 22 24  1  0  0  0  0
 22 26  1  0  0  0  0
 23 19  1  0  0  0  0
 24 23  1  0  0  0  0
 26 20  1  0  0  0  0
 27 28  1  0  0  0  0
 28 34  1  0  0  0  0
 29 31  2  0  0  0  0
 30 33  1  0  0  0  0
 31 32  1  0  0  0  0
 32 38  1  6  0  0  0
 33 32  1  0  0  0  0
 34 30  2  0  0  0  0
 34 29  1  0  0  0  0
 35 29  1  0  0  0  0
 35 36  1  0  0  0  0
 37 36  1  0  0  0  0
 38 39  1  0  0  0  0
 40 39  1  0  0  0  0
 41 43  1  0  0  0  0
 41 42  1  0  0  0  0
 42 40  1  0  0  0  0
 43 42  1  0  0  0  0
M  END
>  <MODEL>
8

>  <REMARK>
 VINA RESULT:      -6.7      3.637      8.900
  Name = 
  14 active torsions:
  status: ('A' for Active; 'I' for Inactive)
    1  A    between atoms: C_1  and  C_34
    2  A    between atoms: C_1  and  N_35
    3  A    between atoms: C_2  and  C_27
    4  A    between atoms: O_3  and  C_4
    5  A    between atoms: O_3  and  C_12
    6  A    between atoms: C_8  and  C_34
    7  A    between atoms: C_11  and  C_22
    8  A    between atoms: C_11  and  C_36
    9  A    between atoms: C_15  and  C_38
   10  A    between atoms: C_15  and  C_42
   11  A    between atoms: C_27  and  N_30
   12  A    between atoms: C_29  and  C_31
   13  A    between atoms: C_29  and  C_36
   14  A    between atoms: C_34  and  C_38
                            x       y       z     vdW  Elec       q    Type
                         _______ _______ _______ _____ _____    ______ ____

>  <TORSDO>
F 14

$$$$
=
 OpenBabel11052420523D

 43 47  0  0  1  0  0  0  0  0999 V2000
  189.1500  175.6490  143.5040 C   0  0  1  0  0  3  0  0  0  0  0  0
  194.6450  174.9640  144.9490 C   0  0  0  0  0  0  0  0  0  0  0  0
  189.9290  176.8030  144.1580 C   0  0  1  0  0  3  0  0  0  0  0  0
  192.7310  176.1440  144.0430 C   0  0  0  0  0  0  0  0  0  0  0  0
  193.9390  174.7120  146.1240 C   0  0  0  0  0  3  0  0  0  0  0  0
  196.0400  174.4720  144.7990 C   0  0  0  0  0  1  0  0  0  0  0  0
  192.0020  175.8860  145.2270 C   0  0  0  0  0  0  0  0  0  0  0  0
  194.0400  175.6730  143.9090 C   0  0  0  0  0  3  0  0  0  0  0  0
  192.6280  175.1690  146.2600 C   0  0  0  0  0  3  0  0  0  0  0  0
  190.6400  176.3660  145.3640 N   0  0  0  0  0  0  0  0  0  0  0  0
  190.8430  177.6100  143.2310 C   0  0  0  0  0  2  0  0  0  0  0  0
  192.1070  176.8360  142.8650 C   0  0  0  0  0  2  0  0  0  0  0  0
  190.9720  176.5880  147.6860 O   0  0  0  0  0  1  0  0  0  0  0  0
  189.4650  177.9410  146.6920 O   0  0  0  0  0  1  0  0  0  0  0  0
  190.0120  176.6560  146.6730 C   0  0  0  0  0  0  0  0  0  0  0  0
  188.9330  175.6180  146.9960 C   0  0  0  0  0  2  0  0  0  0  0  0
  189.3780  174.1870  146.7380 C   0  0  0  0  0  1  0  0  0  0  0  0
  187.6510  175.8000  143.7200 C   0  0  0  0  0  2  0  0  0  0  0  0
  186.2690  179.1310  142.8460 C   0  0  0  0  0  2  0  0  0  0  0  0
  185.3510  179.3360  144.0510 C   0  0  0  0  0  0  0  0  0  0  0  0
  185.1830  180.6900  144.2650 F   0  0  0  0  0  0  0  0  0  0  0  0
  186.3540  177.2540  145.0270 C   0  0  0  0  0  2  0  0  0  0  0  0
  186.6440  177.6540  142.7100 C   0  0  0  0  0  2  0  0  0  0  0  0
  187.3140  177.1990  143.9250 N   0  0  0  0  0  0  0  0  0  0  0  0
  184.1150  178.7670  143.7970 F   0  0  0  0  0  0  0  0  0  0  0  0
  185.9610  178.7050  145.3020 C   0  0  0  0  0  2  0  0  0  0  0  0
  189.4550  175.4650  142.0230 C   0  0  0  0  0  2  0  0  0  0  0  0
  189.5690  173.9900  141.6720 C   0  0  0  0  0  2  0  0  0  0  0  0
  192.0750  173.3810  141.5150 C   0  0  0  0  0  0  0  0  0  0  0  0
  190.7480  172.8400  143.4840 C   0  0  0  0  0  3  0  0  0  0  0  0
  193.0580  172.6260  141.9200 N   0  0  0  0  0  0  0  0  0  0  0  0
  192.9190  171.7090  143.0550 C   0  0  2  0  0  3  0  0  0  0  0  0
  191.9890  172.2890  144.1270 C   0  0  0  0  0  2  0  0  0  0  0  0
  190.8030  173.3980  142.2700 C   0  0  0  0  0  0  0  0  0  0  0  0
  192.2170  174.1930  140.3840 O   0  0  0  0  0  0  0  0  0  0  0  0
  192.0990  173.6970  139.0570 C   0  0  0  0  0  2  0  0  0  0  0  0
  193.4140  173.8530  138.3180 C   0  0  0  0  0  1  0  0  0  0  0  0
  194.2820  171.3330  143.6240 C   0  0  0  0  0  2  0  0  0  0  0  0
  194.2410  171.1680  145.1350 C   0  0  0  0  0  2  0  0  0  0  0  0
  194.7840  169.8060  145.5090 C   0  0  0  0  0  2  0  0  0  0  0  0
  197.1900  169.5670  146.0000 C   0  0  0  0  0  2  0  0  0  0  0  0
  195.8470  169.9610  146.5770 C   0  0  0  0  0  3  0  0  0  0  0  0
  196.8290  171.0290  146.1470 C   0  0  0  0  0  2  0  0  0  0  0  0
  1 27  1  6  0  0  0
  1 18  1  0  0  0  0
  2  5  1  0  0  0  0
  3  1  1  6  0  0  0
  3 10  1  0  0  0  0
  4  7  2  0  0  0  0
  5  9  2  0  0  0  0
  6  2  1  0  0  0  0
  7 10  1  0  0  0  0
  7  9  1  0  0  0  0
  8  4  1  0  0  0  0
  8  2  2  0  0  0  0
 10 15  1  0  0  0  0
 11  3  1  0  0  0  0
 12 11  1  0  0  0  0
 12  4  1  0  0  0  0
 15 14  1  0  0  0  0
 15 16  1  0  0  0  0
 15 13  1  0  0  0  0
 17 16  1  0  0  0  0
 18 24  1  0  0  0  0
 19 20  1  0  0  0  0
 20 21  1  0  0  0  0
 20 26  1  0  0  0  0
 22 26  1  0  0  0  0
 23 19  1  0  0  0  0
 23 24  1  0  0  0  0
 24 22  1  0  0  0  0
 25 20  1  0  0  0  0
 28 27  1  0  0  0  0
 28 34  1  0  0  0  0
 29 31  2  0  0  0  0
 29 34  1  0  0  0  0
 30 33  1  0  0  0  0
 31 32  1  0  0  0  0
 32 38  1  1  0  0  0
 32 33  1  0  0  0  0
 34 30  2  0  0  0  0
 35 29  1  0  0  0  0
 36 35  1  0  0  0  0
 37 36  1  0  0  0  0
 38 39  1  0  0  0  0
 39 40  1  0  0  0  0
 40 42  1  0  0  0  0
 41 43  1  0  0  0  0
 41 42  1  0  0  0  0
 43 42  1  0  0  0  0
M  END
>  <MODEL>
9

>  <REMARK>
 VINA RESULT:      -6.7      1.500      1.793
  Name = 
  14 active torsions:
  status: ('A' for Active; 'I' for Inactive)
    1  A    between atoms: C_1  and  C_34
    2  A    between atoms: C_1  and  N_35
    3  A    between atoms: C_2  and  C_27
    4  A    between atoms: O_3  and  C_4
    5  A    between atoms: O_3  and  C_12
    6  A    between atoms: C_8  and  C_34
    7  A    between atoms: C_11  and  C_22
    8  A    between atoms: C_11  and  C_36
    9  A    between atoms: C_15  and  C_38
   10  A    between atoms: C_15  and  C_42
   11  A    between atoms: C_27  and  N_30
   12  A    between atoms: C_29  and  C_31
   13  A    between atoms: C_29  and  C_36
   14  A    between atoms: C_34  and  C_38
                            x       y       z     vdW  Elec       q    Type
                         _______ _______ _______ _____ _____    ______ ____

>  <TORSDO>
F 14

$$$$
