=
 OpenBabel11052418333D

 27 31  0  0  0  0  0  0  0  0999 V2000
  187.6090  176.0480  143.3890 N   0  0  0  0  0  0  0  0  0  0  0  0
  188.8430  176.5140  145.3600 C   0  0  0  0  0  0  0  0  0  0  0  0
  190.8880  174.3990  143.1190 C   0  0  0  0  0  3  0  0  0  0  0  0
  189.0990  176.9580  146.6830 N   0  0  0  0  0  0  0  0  0  0  0  0
  189.5770  173.9330  141.1240 C   0  0  0  0  0  0  0  0  0  0  0  0
  187.6550  176.6450  144.6200 C   0  0  0  0  0  0  0  0  0  0  0  0
  190.9680  175.8300  145.8290 N   0  0  0  0  0  0  0  0  0  0  0  0
  188.6540  175.3330  142.8800 C   0  0  0  0  0  0  0  0  0  0  0  0
  189.9210  175.8440  144.8600 C   0  0  0  0  0  0  0  0  0  0  0  0
  190.7530  173.7750  141.8760 C   0  0  0  0  0  3  0  0  0  0  0  0
  190.4530  176.5110  147.0220 C   0  0  0  0  0  3  0  0  0  0  0  0
  188.5300  174.7080  141.6360 C   0  0  0  0  0  3  0  0  0  0  0  0
  189.8530  175.1940  143.6220 C   0  0  0  0  0  0  0  0  0  0  0  0
  193.0650  174.5670  145.9640 C   0  0  0  0  0  3  0  0  0  0  0  0
  195.1470  175.5250  145.1840 C   0  0  0  0  0  3  0  0  0  0  0  0
  194.4710  176.6890  144.8110 C   0  0  0  0  0  3  0  0  0  0  0  0
  193.0910  176.7910  145.0120 C   0  0  0  0  0  3  0  0  0  0  0  0
  192.3770  175.7240  145.5760 C   0  0  0  0  0  0  0  0  0  0  0  0
  194.4440  174.4640  145.7630 C   0  0  0  0  0  3  0  0  0  0  0  0
  184.2280  178.8230  146.0250 C   0  0  0  0  0  3  0  0  0  0  0  0
  186.4640  177.3820  145.1140 C   0  0  0  0  0  0  0  0  0  0  0  0
  185.5890  176.8240  146.0600 C   0  0  0  0  0  3  0  0  0  0  0  0
  184.4770  177.5390  146.5120 C   0  0  0  0  0  3  0  0  0  0  0  0
  185.0900  179.3930  145.0850 C   0  0  0  0  0  3  0  0  0  0  0  0
  186.2010  178.6750  144.6340 C   0  0  0  0  0  3  0  0  0  0  0  0
  188.2000  172.7230  139.4640 C   0  0  0  0  0  1  0  0  0  0  0  0
  189.4190  173.3250  139.8750 O   0  0  0  0  0  0  0  0  0  0  0  0
  1  6  1  0  0  0  0
  2  4  1  0  0  0  0
  3 13  1  0  0  0  0
  4 11  2  0  0  0  0
  5 12  2  0  0  0  0
  5 10  1  0  0  0  0
  6 21  1  0  0  0  0
  6  2  2  0  0  0  0
  7 11  1  0  0  0  0
  8  1  2  0  0  0  0
  8 13  1  0  0  0  0
  9  2  1  0  0  0  0
  9  7  1  0  0  0  0
 10  3  2  0  0  0  0
 12  8  1  0  0  0  0
 13  9  2  0  0  0  0
 15 19  2  0  0  0  0
 16 17  2  0  0  0  0
 16 15  1  0  0  0  0
 17 18  1  0  0  0  0
 18  7  1  0  0  0  0
 18 14  2  0  0  0  0
 19 14  1  0  0  0  0
 20 23  1  0  0  0  0
 21 22  1  0  0  0  0
 22 23  2  0  0  0  0
 24 20  2  0  0  0  0
 25 24  1  0  0  0  0
 25 21  2  0  0  0  0
 26 27  1  0  0  0  0
 27  5  1  0  0  0  0
M  END
>  <MODEL>
1

>  <REMARK>
 VINA RESULT:      -8.1      0.000      0.000
  Name = 
  3 active torsions:
  status: ('A' for Active; 'I' for Inactive)
    1  A    between atoms: C_9  and  C_15
    2  A    between atoms: C_13  and  O_22
    3  A    between atoms: C_14  and  N_17
                            x       y       z     vdW  Elec       q    Type
                         _______ _______ _______ _____ _____    ______ ____

>  <TORSDO>
F 3

$$$$
=
 OpenBabel11052418333D

 27 31  0  0  0  0  0  0  0  0999 V2000
  187.9950  175.9690  143.2740 N   0  0  0  0  0  0  0  0  0  0  0  0
  189.1310  176.4440  145.3010 C   0  0  0  0  0  0  0  0  0  0  0  0
  191.2660  174.2840  143.1920 C   0  0  0  0  0  3  0  0  0  0  0  0
  189.3220  176.9010  146.6300 N   0  0  0  0  0  0  0  0  0  0  0  0
  190.0550  173.8090  141.1370 C   0  0  0  0  0  0  0  0  0  0  0  0
  187.9840  176.5790  144.4980 C   0  0  0  0  0  0  0  0  0  0  0  0
  191.2210  175.7450  145.8870 N   0  0  0  0  0  0  0  0  0  0  0  0
  189.0580  175.2370  142.8270 C   0  0  0  0  0  0  0  0  0  0  0  0
  190.2260  175.7580  144.8650 C   0  0  0  0  0  0  0  0  0  0  0  0
  191.1890  173.6480  141.9510 C   0  0  0  0  0  3  0  0  0  0  0  0
  190.6520  176.4430  147.0440 C   0  0  0  0  0  3  0  0  0  0  0  0
  188.9920  174.6000  141.5850 C   0  0  0  0  0  3  0  0  0  0  0  0
  190.2150  175.0940  143.6320 C   0  0  0  0  0  0  0  0  0  0  0  0
  193.3750  176.7090  145.2200 C   0  0  0  0  0  3  0  0  0  0  0  0
  195.3970  175.3790  145.2590 C   0  0  0  0  0  3  0  0  0  0  0  0
  194.6680  174.2840  145.7300 C   0  0  0  0  0  3  0  0  0  0  0  0
  193.2920  174.4020  145.9470 C   0  0  0  0  0  3  0  0  0  0  0  0
  192.6400  175.6210  145.7090 C   0  0  0  0  0  0  0  0  0  0  0  0
  194.7500  176.5910  145.0020 C   0  0  0  0  0  3  0  0  0  0  0  0
  184.4730  178.7190  145.7500 C   0  0  0  0  0  3  0  0  0  0  0  0
  186.7770  177.3340  144.9220 C   0  0  0  0  0  0  0  0  0  0  0  0
  186.4660  178.5930  144.3830 C   0  0  0  0  0  3  0  0  0  0  0  0
  185.3220  179.2830  144.7950 C   0  0  0  0  0  3  0  0  0  0  0  0
  184.7680  177.4660  146.2930 C   0  0  0  0  0  3  0  0  0  0  0  0
  185.9130  176.7790  145.8800 C   0  0  0  0  0  3  0  0  0  0  0  0
  190.9000  172.2320  139.4300 C   0  0  0  0  0  1  0  0  0  0  0  0
  189.9560  173.1890  139.8880 O   0  0  0  0  0  0  0  0  0  0  0  0
  1  6  1  0  0  0  0
  2  4  1  0  0  0  0
  3 13  1  0  0  0  0
  4 11  2  0  0  0  0
  5 12  2  0  0  0  0
  5 10  1  0  0  0  0
  6 21  1  0  0  0  0
  6  2  2  0  0  0  0
  7 11  1  0  0  0  0
  8  1  2  0  0  0  0
  8 13  1  0  0  0  0
  9  2  1  0  0  0  0
  9  7  1  0  0  0  0
 10  3  2  0  0  0  0
 12  8  1  0  0  0  0
 13  9  2  0  0  0  0
 14 18  1  0  0  0  0
 15 16  2  0  0  0  0
 16 17  1  0  0  0  0
 18  7  1  0  0  0  0
 18 17  2  0  0  0  0
 19 14  2  0  0  0  0
 19 15  1  0  0  0  0
 20 24  1  0  0  0  0
 21 25  1  0  0  0  0
 22 23  1  0  0  0  0
 22 21  2  0  0  0  0
 23 20  2  0  0  0  0
 25 24  2  0  0  0  0
 26 27  1  0  0  0  0
 27  5  1  0  0  0  0
M  END
>  <MODEL>
2

>  <REMARK>
 VINA RESULT:      -7.7      0.641      1.463
  Name = 
  3 active torsions:
  status: ('A' for Active; 'I' for Inactive)
    1  A    between atoms: C_9  and  C_15
    2  A    between atoms: C_13  and  O_22
    3  A    between atoms: C_14  and  N_17
                            x       y       z     vdW  Elec       q    Type
                         _______ _______ _______ _____ _____    ______ ____

>  <TORSDO>
F 3

$$$$
=
 OpenBabel11052418333D

 27 31  0  0  0  0  0  0  0  0999 V2000
  188.8230  177.0450  145.6440 N   0  0  0  0  0  0  0  0  0  0  0  0
  187.8910  176.0150  143.7220 C   0  0  0  0  0  0  0  0  0  0  0  0
  191.4490  175.0520  144.0060 C   0  0  0  0  0  3  0  0  0  0  0  0
  186.9500  175.7450  142.6950 N   0  0  0  0  0  0  0  0  0  0  0  0
  192.3670  176.1450  145.9760 C   0  0  0  0  0  0  0  0  0  0  0  0
  187.7370  176.8640  144.8320 C   0  0  0  0  0  0  0  0  0  0  0  0
  188.9590  174.6130  142.2740 N   0  0  0  0  0  0  0  0  0  0  0  0
  190.0280  176.4510  145.4010 C   0  0  0  0  0  0  0  0  0  0  0  0
  189.0680  175.3710  143.4770 C   0  0  0  0  0  0  0  0  0  0  0  0
  192.5300  175.3210  144.8500 C   0  0  0  0  0  3  0  0  0  0  0  0
  187.6180  174.8630  141.7340 C   0  0  0  0  0  3  0  0  0  0  0  0
  191.1140  176.7100  146.2420 C   0  0  0  0  0  3  0  0  0  0  0  0
  190.1910  175.5970  144.2820 C   0  0  0  0  0  0  0  0  0  0  0  0
  190.5620  173.4580  140.8230 C   0  0  0  0  0  3  0  0  0  0  0  0
  191.0860  171.1190  141.1640 C   0  0  0  0  0  3  0  0  0  0  0  0
  190.2140  171.0820  142.2540 C   0  0  0  0  0  3  0  0  0  0  0  0
  189.5170  172.2340  142.6300 C   0  0  0  0  0  3  0  0  0  0  0  0
  189.6990  173.4340  141.9270 C   0  0  0  0  0  0  0  0  0  0  0  0
  191.2590  172.3060  140.4460 C   0  0  0  0  0  3  0  0  0  0  0  0
  184.0520  178.8620  145.7800 C   0  0  0  0  0  3  0  0  0  0  0  0
  186.4690  177.5700  145.1490 C   0  0  0  0  0  0  0  0  0  0  0  0
  186.0960  178.7520  144.4900 C   0  0  0  0  0  3  0  0  0  0  0  0
  184.8950  179.3960  144.8040 C   0  0  0  0  0  3  0  0  0  0  0  0
  184.4080  177.6860  146.4430 C   0  0  0  0  0  3  0  0  0  0  0  0
  185.6100  177.0440  146.1280 C   0  0  0  0  0  3  0  0  0  0  0  0
  194.5770  177.1550  146.4330 C   0  0  0  0  0  1  0  0  0  0  0  0
  193.4300  176.4240  146.8400 O   0  0  0  0  0  0  0  0  0  0  0  0
  2  6  1  0  0  0  0
  3 13  2  0  0  0  0
  3 10  1  0  0  0  0
  4  2  1  0  0  0  0
  5 12  1  0  0  0  0
  5 27  1  0  0  0  0
  6 21  1  0  0  0  0
  6  1  2  0  0  0  0
  7  9  1  0  0  0  0
  8  1  1  0  0  0  0
  8 12  2  0  0  0  0
  9  2  2  0  0  0  0
  9 13  1  0  0  0  0
 10  5  2  0  0  0  0
 11  7  1  0  0  0  0
 11  4  2  0  0  0  0
 13  8  1  0  0  0  0
 14 18  1  0  0  0  0
 15 16  2  0  0  0  0
 16 17  1  0  0  0  0
 18  7  1  0  0  0  0
 18 17  2  0  0  0  0
 19 14  2  0  0  0  0
 19 15  1  0  0  0  0
 20 24  1  0  0  0  0
 21 25  1  0  0  0  0
 22 23  1  0  0  0  0
 22 21  2  0  0  0  0
 23 20  2  0  0  0  0
 25 24  2  0  0  0  0
 26 27  1  0  0  0  0
M  END
>  <MODEL>
3

>  <REMARK>
 VINA RESULT:      -7.7      2.097      4.885
  Name = 
  3 active torsions:
  status: ('A' for Active; 'I' for Inactive)
    1  A    between atoms: C_9  and  C_15
    2  A    between atoms: C_13  and  O_22
    3  A    between atoms: C_14  and  N_17
                            x       y       z     vdW  Elec       q    Type
                         _______ _______ _______ _____ _____    ______ ____

>  <TORSDO>
F 3

$$$$
=
 OpenBabel11052418333D

 27 31  0  0  0  0  0  0  0  0999 V2000
  191.3050  174.5120  143.0770 N   0  0  0  0  0  0  0  0  0  0  0  0
  190.8460  175.9120  144.9350 C   0  0  0  0  0  0  0  0  0  0  0  0
  188.0250  176.0970  142.5520 C   0  0  0  0  0  3  0  0  0  0  0  0
  191.0840  176.6420  146.1280 N   0  0  0  0  0  0  0  0  0  0  0  0
  188.5480  174.6640  140.6570 C   0  0  0  0  0  0  0  0  0  0  0  0
  191.7190  175.0310  144.2730 C   0  0  0  0  0  0  0  0  0  0  0  0
  188.9650  177.1570  145.2700 N   0  0  0  0  0  0  0  0  0  0  0  0
  190.1040  174.8330  142.5130 C   0  0  0  0  0  0  0  0  0  0  0  0
  189.6200  176.2170  144.4210 C   0  0  0  0  0  0  0  0  0  0  0  0
  187.6880  175.5680  141.3030 C   0  0  0  0  0  3  0  0  0  0  0  0
  189.8990  177.4730  146.3560 C   0  0  0  0  0  3  0  0  0  0  0  0
  189.7560  174.3060  141.2670 C   0  0  0  0  0  3  0  0  0  0  0  0
  189.2200  175.7230  143.1730 C   0  0  0  0  0  0  0  0  0  0  0  0
  186.9160  178.3930  144.7360 C   0  0  0  0  0  3  0  0  0  0  0  0
  184.8050  177.8040  145.7640 C   0  0  0  0  0  3  0  0  0  0  0  0
  185.4340  176.7700  146.4620 C   0  0  0  0  0  3  0  0  0  0  0  0
  186.8040  176.5460  146.2950 C   0  0  0  0  0  3  0  0  0  0  0  0
  187.5500  177.3470  145.4190 C   0  0  0  0  0  0  0  0  0  0  0  0
  185.5460  178.6170  144.9030 C   0  0  0  0  0  3  0  0  0  0  0  0
  195.5630  173.8900  145.8210 C   0  0  0  0  0  3  0  0  0  0  0  0
  193.0540  174.6540  144.8040 C   0  0  0  0  0  0  0  0  0  0  0  0
  194.0580  175.6100  145.0260 C   0  0  0  0  0  3  0  0  0  0  0  0
  195.3060  175.2320  145.5310 C   0  0  0  0  0  3  0  0  0  0  0  0
  194.5730  172.9280  145.6070 C   0  0  0  0  0  3  0  0  0  0  0  0
  193.3270  173.3090  145.1020 C   0  0  0  0  0  3  0  0  0  0  0  0
  188.2330  172.7150  139.1670 C   0  0  0  0  0  1  0  0  0  0  0  0
  188.2320  174.1150  139.4110 O   0  0  0  0  0  0  0  0  0  0  0  0
  1  6  1  0  0  0  0
  2  4  1  0  0  0  0
  3 13  1  0  0  0  0
  4 11  2  0  0  0  0
  5 12  2  0  0  0  0
  5 10  1  0  0  0  0
  6 21  1  0  0  0  0
  6  2  2  0  0  0  0
  7 18  1  0  0  0  0
  7 11  1  0  0  0  0
  8  1  2  0  0  0  0
  8 13  1  0  0  0  0
  9  2  1  0  0  0  0
  9  7  1  0  0  0  0
 10  3  2  0  0  0  0
 12  8  1  0  0  0  0
 13  9  2  0  0  0  0
 14 19  2  0  0  0  0
 14 18  1  0  0  0  0
 15 16  2  0  0  0  0
 17 16  1  0  0  0  0
 18 17  2  0  0  0  0
 19 15  1  0  0  0  0
 21 22  2  0  0  0  0
 21 25  1  0  0  0  0
 22 23  1  0  0  0  0
 23 20  2  0  0  0  0
 24 20  1  0  0  0  0
 25 24  2  0  0  0  0
 26 27  1  0  0  0  0
 27  5  1  0  0  0  0
M  END
>  <MODEL>
4

>  <REMARK>
 VINA RESULT:      -7.4      1.209      6.425
  Name = 
  3 active torsions:
  status: ('A' for Active; 'I' for Inactive)
    1  A    between atoms: C_9  and  C_15
    2  A    between atoms: C_13  and  O_22
    3  A    between atoms: C_14  and  N_17
                            x       y       z     vdW  Elec       q    Type
                         _______ _______ _______ _____ _____    ______ ____

>  <TORSDO>
F 3

$$$$
=
 OpenBabel11052418333D

 27 31  0  0  0  0  0  0  0  0999 V2000
  187.9870  174.7660  142.1580 N   0  0  0  0  0  0  0  0  0  0  0  0
  188.7650  176.5240  143.5460 C   0  0  0  0  0  0  0  0  0  0  0  0
  190.9990  173.6020  143.9230 C   0  0  0  0  0  3  0  0  0  0  0  0
  188.7530  177.7610  144.2410 N   0  0  0  0  0  0  0  0  0  0  0  0
  190.1520  171.8210  142.4980 C   0  0  0  0  0  0  0  0  0  0  0  0
  187.8140  176.0380  142.6320 C   0  0  0  0  0  0  0  0  0  0  0  0
  190.6130  176.4870  144.8830 N   0  0  0  0  0  0  0  0  0  0  0  0
  189.0230  173.9700  142.5520 C   0  0  0  0  0  0  0  0  0  0  0  0
  189.8370  175.7700  143.9250 C   0  0  0  0  0  0  0  0  0  0  0  0
  191.0860  172.2950  143.4350 C   0  0  0  0  0  3  0  0  0  0  0  0
  189.9190  177.7560  145.1290 C   0  0  0  0  0  3  0  0  0  0  0  0
  189.1210  172.6630  142.0660 C   0  0  0  0  0  3  0  0  0  0  0  0
  189.9840  174.4520  143.4750 C   0  0  0  0  0  0  0  0  0  0  0  0
  192.9410  176.5610  144.1170 C   0  0  0  0  0  3  0  0  0  0  0  0
  194.7570  175.9560  145.5990 C   0  0  0  0  0  3  0  0  0  0  0  0
  193.8390  175.7130  146.6240 C   0  0  0  0  0  3  0  0  0  0  0  0
  192.4720  175.8950  146.3960 C   0  0  0  0  0  3  0  0  0  0  0  0
  192.0160  176.3370  145.1450 C   0  0  0  0  0  0  0  0  0  0  0  0
  194.3080  176.3790  144.3450 C   0  0  0  0  0  3  0  0  0  0  0  0
  184.4010  178.3160  141.3560 C   0  0  0  0  0  3  0  0  0  0  0  0
  186.6430  176.8300  142.1750 C   0  0  0  0  0  0  0  0  0  0  0  0
  186.5520  177.3240  140.8640 C   0  0  0  0  0  3  0  0  0  0  0  0
  185.4380  178.0630  140.4560 C   0  0  0  0  0  3  0  0  0  0  0  0
  184.4770  177.8300  142.6630 C   0  0  0  0  0  3  0  0  0  0  0  0
  185.5920  177.0910  143.0680 C   0  0  0  0  0  3  0  0  0  0  0  0
  191.3640  169.6940  142.1490 C   0  0  0  0  0  1  0  0  0  0  0  0
  190.2200  170.5210  141.9890 O   0  0  0  0  0  0  0  0  0  0  0  0
  1  8  2  0  0  0  0
  1  6  1  0  0  0  0
  2  9  1  0  0  0  0
  2  4  1  0  0  0  0
  4 11  2  0  0  0  0
  5 10  1  0  0  0  0
  6  2  2  0  0  0  0
  7 11  1  0  0  0  0
  7 18  1  0  0  0  0
  8 13  1  0  0  0  0
  9  7  1  0  0  0  0
 10  3  2  0  0  0  0
 12  5  2  0  0  0  0
 12  8  1  0  0  0  0
 13  3  1  0  0  0  0
 13  9  2  0  0  0  0
 14 19  2  0  0  0  0
 14 18  1  0  0  0  0
 15 16  2  0  0  0  0
 17 16  1  0  0  0  0
 18 17  2  0  0  0  0
 19 15  1  0  0  0  0
 20 24  1  0  0  0  0
 21  6  1  0  0  0  0
 21 25  1  0  0  0  0
 22 21  2  0  0  0  0
 23 22  1  0  0  0  0
 23 20  2  0  0  0  0
 24 25  2  0  0  0  0
 27 26  1  0  0  0  0
 27  5  1  0  0  0  0
M  END
>  <MODEL>
5

>  <REMARK>
 VINA RESULT:      -7.2      2.196      2.842
  Name = 
  3 active torsions:
  status: ('A' for Active; 'I' for Inactive)
    1  A    between atoms: C_9  and  C_15
    2  A    between atoms: C_13  and  O_22
    3  A    between atoms: C_14  and  N_17
                            x       y       z     vdW  Elec       q    Type
                         _______ _______ _______ _____ _____    ______ ____

>  <TORSDO>
F 3

$$$$
=
 OpenBabel11052418333D

 27 31  0  0  0  0  0  0  0  0999 V2000
  187.5540  176.2080  143.8130 N   0  0  0  0  0  0  0  0  0  0  0  0
  189.0140  175.9300  145.6600 C   0  0  0  0  0  0  0  0  0  0  0  0
  190.4710  174.2570  142.7020 C   0  0  0  0  0  3  0  0  0  0  0  0
  189.4540  175.9490  147.0090 N   0  0  0  0  0  0  0  0  0  0  0  0
  188.9330  174.5520  140.8410 C   0  0  0  0  0  0  0  0  0  0  0  0
  187.8070  176.4270  145.1390 C   0  0  0  0  0  0  0  0  0  0  0  0
  191.0250  174.8530  145.6570 N   0  0  0  0  0  0  0  0  0  0  0  0
  188.4150  175.5230  143.0040 C   0  0  0  0  0  0  0  0  0  0  0  0
  189.9160  175.2810  144.8690 C   0  0  0  0  0  0  0  0  0  0  0  0
  190.1250  174.0290  141.3670 C   0  0  0  0  0  3  0  0  0  0  0  0
  190.7370  175.2390  147.0430 C   0  0  0  0  0  3  0  0  0  0  0  0
  188.0800  175.2930  141.6670 C   0  0  0  0  0  3  0  0  0  0  0  0
  189.6320  175.0170  143.5230 C   0  0  0  0  0  0  0  0  0  0  0  0
  193.1180  175.6910  144.6930 C   0  0  0  0  0  3  0  0  0  0  0  0
  194.9600  174.1910  144.2280 C   0  0  0  0  0  3  0  0  0  0  0  0
  194.2120  173.1190  144.7220 C   0  0  0  0  0  3  0  0  0  0  0  0
  192.9170  173.3340  145.2030 C   0  0  0  0  0  3  0  0  0  0  0  0
  192.3680  174.6240  145.2060 C   0  0  0  0  0  0  0  0  0  0  0  0
  194.4120  175.4770  144.2110 C   0  0  0  0  0  3  0  0  0  0  0  0
  184.8690  178.5240  147.4720 C   0  0  0  0  0  3  0  0  0  0  0  0
  186.8050  177.1570  145.9580 C   0  0  0  0  0  0  0  0  0  0  0  0
  187.1870  178.0180  146.9990 C   0  0  0  0  0  3  0  0  0  0  0  0
  186.2260  178.6970  147.7530 C   0  0  0  0  0  3  0  0  0  0  0  0
  184.4740  177.6730  146.4380 C   0  0  0  0  0  3  0  0  0  0  0  0
  185.4370  176.9940  145.6870 C   0  0  0  0  0  3  0  0  0  0  0  0
  189.3050  173.5030  138.6320 C   0  0  0  0  0  1  0  0  0  0  0  0
  188.5670  174.3440  139.5070 O   0  0  0  0  0  0  0  0  0  0  0  0
  1  6  1  0  0  0  0
  2  4  1  0  0  0  0
  3 13  1  0  0  0  0
  4 11  2  0  0  0  0
  5 10  1  0  0  0  0
  5 12  2  0  0  0  0
  6  2  2  0  0  0  0
  6 21  1  0  0  0  0
  7 11  1  0  0  0  0
  8 13  1  0  0  0  0
  8  1  2  0  0  0  0
  9  7  1  0  0  0  0
  9  2  1  0  0  0  0
 10  3  2  0  0  0  0
 12  8  1  0  0  0  0
 13  9  2  0  0  0  0
 14 18  1  0  0  0  0
 15 16  2  0  0  0  0
 16 17  1  0  0  0  0
 17 18  2  0  0  0  0
 18  7  1  0  0  0  0
 19 15  1  0  0  0  0
 19 14  2  0  0  0  0
 20 23  1  0  0  0  0
 21 22  1  0  0  0  0
 22 23  2  0  0  0  0
 24 20  2  0  0  0  0
 25 21  2  0  0  0  0
 25 24  1  0  0  0  0
 26 27  1  0  0  0  0
 27  5  1  0  0  0  0
M  END
>  <MODEL>
6

>  <REMARK>
 VINA RESULT:      -7.1      1.173      1.628
  Name = 
  3 active torsions:
  status: ('A' for Active; 'I' for Inactive)
    1  A    between atoms: C_9  and  C_15
    2  A    between atoms: C_13  and  O_22
    3  A    between atoms: C_14  and  N_17
                            x       y       z     vdW  Elec       q    Type
                         _______ _______ _______ _____ _____    ______ ____

>  <TORSDO>
F 3

$$$$
=
 OpenBabel11052418333D

 27 31  0  0  0  0  0  0  0  0999 V2000
  190.3310  175.2690  143.0580 N   0  0  0  0  0  0  0  0  0  0  0  0
  189.9820  176.2740  145.1770 C   0  0  0  0  0  0  0  0  0  0  0  0
  187.1700  177.1500  142.9420 C   0  0  0  0  0  3  0  0  0  0  0  0
  190.2770  176.7180  146.4920 N   0  0  0  0  0  0  0  0  0  0  0  0
  187.5810  176.1150  140.7790 C   0  0  0  0  0  0  0  0  0  0  0  0
  190.7860  175.4940  144.3280 C   0  0  0  0  0  0  0  0  0  0  0  0
  188.1960  177.5470  145.8030 N   0  0  0  0  0  0  0  0  0  0  0  0
  189.1530  175.7820  142.5980 C   0  0  0  0  0  0  0  0  0  0  0  0
  188.7780  176.7640  144.7630 C   0  0  0  0  0  0  0  0  0  0  0  0
  186.7900  176.9200  141.6170 C   0  0  0  0  0  3  0  0  0  0  0  0
  189.1550  177.5620  146.9130 C   0  0  0  0  0  3  0  0  0  0  0  0
  188.7630  175.5550  141.2760 C   0  0  0  0  0  3  0  0  0  0  0  0
  188.3380  176.5720  143.4470 C   0  0  0  0  0  0  0  0  0  0  0  0
  186.0020  176.8170  146.6180 C   0  0  0  0  0  3  0  0  0  0  0  0
  184.0480  178.2210  146.3560 C   0  0  0  0  0  3  0  0  0  0  0  0
  184.8320  179.1980  145.7380 C   0  0  0  0  0  3  0  0  0  0  0  0
  186.2030  178.9840  145.5620 C   0  0  0  0  0  3  0  0  0  0  0  0
  186.7990  177.7990  146.0150 C   0  0  0  0  0  0  0  0  0  0  0  0
  184.6320  177.0290  146.7950 C   0  0  0  0  0  3  0  0  0  0  0  0
  194.5930  173.8870  145.5110 C   0  0  0  0  0  3  0  0  0  0  0  0
  192.0940  174.9230  144.7420 C   0  0  0  0  0  0  0  0  0  0  0  0
  192.2350  173.5650  145.0730 C   0  0  0  0  0  3  0  0  0  0  0  0
  193.4770  173.0500  145.4560 C   0  0  0  0  0  3  0  0  0  0  0  0
  194.4680  175.2380  145.1830 C   0  0  0  0  0  3  0  0  0  0  0  0
  193.2250  175.7520  144.8010 C   0  0  0  0  0  3  0  0  0  0  0  0
  186.6530  176.8570  138.6100 C   0  0  0  0  0  1  0  0  0  0  0  0
  187.2200  175.8640  139.4520 O   0  0  0  0  0  0  0  0  0  0  0  0
  1  6  1  0  0  0  0
  2  4  1  0  0  0  0
  3 13  1  0  0  0  0
  4 11  2  0  0  0  0
  5 12  2  0  0  0  0
  5 10  1  0  0  0  0
  6 21  1  0  0  0  0
  6  2  2  0  0  0  0
  7 18  1  0  0  0  0
  7 11  1  0  0  0  0
  8  1  2  0  0  0  0
  8 13  1  0  0  0  0
  9  2  1  0  0  0  0
  9  7  1  0  0  0  0
 10  3  2  0  0  0  0
 12  8  1  0  0  0  0
 13  9  2  0  0  0  0
 14 19  1  0  0  0  0
 15 19  2  0  0  0  0
 16 15  1  0  0  0  0
 17 16  2  0  0  0  0
 17 18  1  0  0  0  0
 18 14  2  0  0  0  0
 21 25  2  0  0  0  0
 21 22  1  0  0  0  0
 22 23  2  0  0  0  0
 23 20  1  0  0  0  0
 24 20  2  0  0  0  0
 25 24  1  0  0  0  0
 26 27  1  0  0  0  0
 27  5  1  0  0  0  0
M  END
>  <MODEL>
7

>  <REMARK>
 VINA RESULT:      -6.9      1.671      6.387
  Name = 
  3 active torsions:
  status: ('A' for Active; 'I' for Inactive)
    1  A    between atoms: C_9  and  C_15
    2  A    between atoms: C_13  and  O_22
    3  A    between atoms: C_14  and  N_17
                            x       y       z     vdW  Elec       q    Type
                         _______ _______ _______ _____ _____    ______ ____

>  <TORSDO>
F 3

$$$$
=
 OpenBabel11052418333D

 27 31  0  0  0  0  0  0  0  0999 V2000
  190.9800  175.1480  144.3610 N   0  0  0  0  0  0  0  0  0  0  0  0
  188.9110  175.2310  143.2050 C   0  0  0  0  0  0  0  0  0  0  0  0
  188.6070  177.1140  146.3730 C   0  0  0  0  0  3  0  0  0  0  0  0
  187.9260  174.9070  142.2360 N   0  0  0  0  0  0  0  0  0  0  0  0
  190.7430  176.9840  147.5300 C   0  0  0  0  0  0  0  0  0  0  0  0
  190.2390  174.7740  143.2730 C   0  0  0  0  0  0  0  0  0  0  0  0
  187.0210  176.3200  143.8730 N   0  0  0  0  0  0  0  0  0  0  0  0
  190.4730  175.9210  145.3650 C   0  0  0  0  0  0  0  0  0  0  0  0
  188.3890  176.0420  144.1690 C   0  0  0  0  0  0  0  0  0  0  0  0
  189.4070  177.4170  147.4780 C   0  0  0  0  0  3  0  0  0  0  0  0
  186.6900  175.5750  142.6540 C   0  0  0  0  0  3  0  0  0  0  0  0
  191.2660  176.2320  146.4720 C   0  0  0  0  0  3  0  0  0  0  0  0
  189.1350  176.3830  145.3040 C   0  0  0  0  0  0  0  0  0  0  0  0
  185.3510  177.3710  145.3280 C   0  0  0  0  0  3  0  0  0  0  0  0
  184.7110  179.6840  145.0180 C   0  0  0  0  0  3  0  0  0  0  0  0
  185.6100  179.7900  143.9540 C   0  0  0  0  0  3  0  0  0  0  0  0
  186.3810  178.6860  143.5780 C   0  0  0  0  0  3  0  0  0  0  0  0
  186.2680  177.4740  144.2740 C   0  0  0  0  0  0  0  0  0  0  0  0
  184.5790  178.4730  145.7040 C   0  0  0  0  0  3  0  0  0  0  0  0
  192.0470  172.3100  140.2520 C   0  0  0  0  0  3  0  0  0  0  0  0
  190.8570  173.9070  142.2370 C   0  0  0  0  0  0  0  0  0  0  0  0
  190.5330  172.5450  142.1240 C   0  0  0  0  0  3  0  0  0  0  0  0
  191.1250  171.7500  141.1390 C   0  0  0  0  0  3  0  0  0  0  0  0
  192.3770  173.6630  140.3510 C   0  0  0  0  0  3  0  0  0  0  0  0
  191.7840  174.4560  141.3380 C   0  0  0  0  0  3  0  0  0  0  0  0
  191.2500  178.2890  149.5690 C   0  0  0  0  0  1  0  0  0  0  0  0
  191.5660  177.2800  148.6210 O   0  0  0  0  0  0  0  0  0  0  0  0
  1  8  1  0  0  0  0
  2  6  1  0  0  0  0
  2  9  2  0  0  0  0
  3 10  1  0  0  0  0
  4 11  2  0  0  0  0
  4  2  1  0  0  0  0
  5 27  1  0  0  0  0
  6  1  2  0  0  0  0
  7  9  1  0  0  0  0
  7 18  1  0  0  0  0
  8 12  2  0  0  0  0
  9 13  1  0  0  0  0
 10  5  2  0  0  0  0
 11  7  1  0  0  0  0
 12  5  1  0  0  0  0
 13  8  1  0  0  0  0
 13  3  2  0  0  0  0
 14 19  1  0  0  0  0
 15 19  2  0  0  0  0
 16 15  1  0  0  0  0
 17 16  2  0  0  0  0
 17 18  1  0  0  0  0
 18 14  2  0  0  0  0
 20 24  2  0  0  0  0
 20 23  1  0  0  0  0
 21  6  1  0  0  0  0
 22 21  1  0  0  0  0
 23 22  2  0  0  0  0
 24 25  1  0  0  0  0
 25 21  2  0  0  0  0
 27 26  1  0  0  0  0
M  END
>  <MODEL>
8

>  <REMARK>
 VINA RESULT:      -6.9      2.704      7.503
  Name = 
  3 active torsions:
  status: ('A' for Active; 'I' for Inactive)
    1  A    between atoms: C_9  and  C_15
    2  A    between atoms: C_13  and  O_22
    3  A    between atoms: C_14  and  N_17
                            x       y       z     vdW  Elec       q    Type
                         _______ _______ _______ _____ _____    ______ ____

>  <TORSDO>
F 3

$$$$
=
 OpenBabel11052418333D

 27 31  0  0  0  0  0  0  0  0999 V2000
  190.3040  176.7190  144.8030 N   0  0  0  0  0  0  0  0  0  0  0  0
  188.8820  175.6240  143.2540 C   0  0  0  0  0  0  0  0  0  0  0  0
  192.4030  175.0530  142.2790 C   0  0  0  0  0  3  0  0  0  0  0  0
  187.6800  175.2680  142.5880 N   0  0  0  0  0  0  0  0  0  0  0  0
  193.8210  176.2080  143.8820 C   0  0  0  0  0  0  0  0  0  0  0  0
  189.0310  176.4330  144.3940 C   0  0  0  0  0  0  0  0  0  0  0  0
  189.5280  174.3710  141.4610 N   0  0  0  0  0  0  0  0  0  0  0  0
  191.4080  176.2650  144.1400 C   0  0  0  0  0  0  0  0  0  0  0  0
  189.9630  175.1170  142.5960 C   0  0  0  0  0  0  0  0  0  0  0  0
  193.6730  175.4260  142.7240 C   0  0  0  0  0  3  0  0  0  0  0  0
  188.0660  174.4810  141.4140 C   0  0  0  0  0  3  0  0  0  0  0  0
  192.6840  176.6280  144.5800 C   0  0  0  0  0  3  0  0  0  0  0  0
  191.2660  175.4520  142.9880 C   0  0  0  0  0  0  0  0  0  0  0  0
  190.6640  173.4280  139.5030 C   0  0  0  0  0  3  0  0  0  0  0  0
  191.4860  171.1510  139.5200 C   0  0  0  0  0  3  0  0  0  0  0  0
  191.0290  170.9960  140.8310 C   0  0  0  0  0  3  0  0  0  0  0  0
  190.3910  172.0580  141.4790 C   0  0  0  0  0  3  0  0  0  0  0  0
  190.2190  173.2860  140.8240 C   0  0  0  0  0  0  0  0  0  0  0  0
  191.3010  172.3660  138.8540 C   0  0  0  0  0  3  0  0  0  0  0  0
  185.7070  178.0850  146.5600 C   0  0  0  0  0  3  0  0  0  0  0  0
  187.8820  176.9890  145.1540 C   0  0  0  0  0  0  0  0  0  0  0  0
  187.4930  176.4620  146.3960 C   0  0  0  0  0  3  0  0  0  0  0  0
  186.4110  177.0050  147.0940 C   0  0  0  0  0  3  0  0  0  0  0  0
  186.0840  178.6220  145.3270 C   0  0  0  0  0  3  0  0  0  0  0  0
  187.1660  178.0770  144.6300 C   0  0  0  0  0  3  0  0  0  0  0  0
  196.2900  176.1180  143.7750 C   0  0  0  0  0  1  0  0  0  0  0  0
  195.0810  176.5880  144.3530 O   0  0  0  0  0  0  0  0  0  0  0  0
  2  6  2  0  0  0  0
  3 10  2  0  0  0  0
  3 13  1  0  0  0  0
  4  2  1  0  0  0  0
  5 27  1  0  0  0  0
  5 12  2  0  0  0  0
  6  1  1  0  0  0  0
  6 21  1  0  0  0  0
  7  9  1  0  0  0  0
  8 12  1  0  0  0  0
  8  1  2  0  0  0  0
  9 13  2  0  0  0  0
  9  2  1  0  0  0  0
 10  5  1  0  0  0  0
 11  7  1  0  0  0  0
 11  4  2  0  0  0  0
 13  8  1  0  0  0  0
 14 18  1  0  0  0  0
 15 16  2  0  0  0  0
 16 17  1  0  0  0  0
 18  7  1  0  0  0  0
 18 17  2  0  0  0  0
 19 14  2  0  0  0  0
 19 15  1  0  0  0  0
 20 23  1  0  0  0  0
 21 22  1  0  0  0  0
 22 23  2  0  0  0  0
 24 20  2  0  0  0  0
 25 21  2  0  0  0  0
 25 24  1  0  0  0  0
 26 27  1  0  0  0  0
M  END
>  <MODEL>
9

>  <REMARK>
 VINA RESULT:      -6.8      2.339      5.028
  Name = 
  3 active torsions:
  status: ('A' for Active; 'I' for Inactive)
    1  A    between atoms: C_9  and  C_15
    2  A    between atoms: C_13  and  O_22
    3  A    between atoms: C_14  and  N_17
                            x       y       z     vdW  Elec       q    Type
                         _______ _______ _______ _____ _____    ______ ____

>  <TORSDO>
F 3

$$$$
