=
 OpenBabel11052420193D

 34 37  0  0  1  0  0  0  0  0999 V2000
  186.7610  177.0700  144.2880 C   0  0  1  0  0  3  0  0  0  0  0  0
  184.3880  178.8720  143.3330 N   0  0  0  0  0  1  0  0  0  0  0  0
  186.4500  176.7190  147.2690 C   0  0  0  0  0  2  0  0  0  0  0  0
  187.4230  175.9250  145.0640 C   0  0  0  0  0  2  0  0  0  0  0  0
  185.5890  177.5610  146.4430 N   0  0  0  0  0  0  0  0  0  0  0  0
  184.5210  178.2640  146.8680 C   0  0  0  0  0  3  0  0  0  0  0  0
  187.7300  176.3410  146.5100 C   0  0  2  0  0  3  0  0  0  0  0  0
  184.6430  178.4870  144.6790 C   0  0  0  0  0  0  0  0  0  0  0  0
  185.6560  177.6690  145.1080 C   0  0  0  0  0  0  0  0  0  0  0  0
  183.8990  178.8720  145.7800 C   0  0  0  0  0  3  0  0  0  0  0  0
  188.5420  175.2780  147.2520 C   0  0  0  0  0  2  0  0  0  0  0  0
  191.4330  173.7720  145.3010 C   0  0  0  0  0  3  0  0  0  0  0  0
  190.9490  175.9440  147.0080 C   0  0  0  0  0  3  0  0  0  0  0  0
  194.7590  175.2820  145.4190 C   0  0  0  0  0  0  0  0  0  0  0  0
  193.7190  174.4500  145.1220 N   0  0  0  0  0  0  0  0  0  0  0  0
  192.4730  174.6480  145.6260 C   0  0  0  0  0  0  0  0  0  0  0  0
  193.2710  176.6070  146.7980 C   0  0  0  0  0  3  0  0  0  0  0  0
  192.2270  175.7400  146.4840 C   0  0  0  0  0  0  0  0  0  0  0  0
  194.5410  176.3810  146.2660 C   0  0  0  0  0  3  0  0  0  0  0  0
  189.9090  175.0640  146.6810 C   0  0  0  0  0  0  0  0  0  0  0  0
  190.1540  173.9790  145.8290 C   0  0  0  0  0  3  0  0  0  0  0  0
  196.0630  175.0290  144.8670 N   0  0  0  0  0  0  0  0  0  0  0  0
  196.5640  175.7810  143.7260 C   0  0  0  0  0  1  0  0  0  0  0  0
  196.9160  173.9950  145.4300 C   0  0  0  0  0  1  0  0  0  0  0  0
  187.7120  178.0500  143.9920 O   0  0  0  0  0  0  0  0  0  0  0  0
  187.6760  178.1790  142.6030 C   0  0  0  0  0  2  0  0  0  0  0  0
  189.0750  178.0060  142.0430 C   0  0  0  0  0  2  0  0  0  0  0  0
  190.1040  178.0260  143.1620 C   0  0  0  0  0  2  0  0  0  0  0  0
  190.8480  176.7000  143.2540 C   0  0  2  0  0  3  0  0  0  0  0  0
  192.2890  176.8460  142.7940 C   0  0  0  0  0  1  0  0  0  0  0  0
  190.1390  175.6270  142.4360 C   0  0  0  0  0  2  0  0  0  0  0  0
  191.0540  174.7080  141.9140 O   0  0  0  0  0  0  0  0  0  0  0  0
  189.0980  173.4070  142.2630 C   0  0  0  0  0  1  0  0  0  0  0  0
  190.2660  173.7070  141.3470 C   0  0  0  0  0  2  0  0  0  0  0  0
  1 25  1  1  0  0  0
  1  4  1  0  0  0  0
  1  9  1  0  0  0  0
  2  8  1  0  0  0  0
  4  7  1  0  0  0  0
  5  6  1  0  0  0  0
  5  3  1  0  0  0  0
  7 11  1  1  0  0  0
  7  3  1  0  0  0  0
  8  9  2  0  0  0  0
  8 10  1  0  0  0  0
  9  5  1  0  0  0  0
 10  6  2  0  0  0  0
 12 16  2  0  0  0  0
 12 21  1  0  0  0  0
 14 19  1  0  0  0  0
 15 14  2  0  0  0  0
 15 16  1  0  0  0  0
 16 18  1  0  0  0  0
 18 17  1  0  0  0  0
 18 13  2  0  0  0  0
 19 17  2  0  0  0  0
 20 13  1  0  0  0  0
 20 11  1  0  0  0  0
 21 20  2  0  0  0  0
 22 14  1  0  0  0  0
 22 24  1  0  0  0  0
 23 22  1  0  0  0  0
 26 25  1  0  0  0  0
 27 26  1  0  0  0  0
 27 28  1  0  0  0  0
 28 29  1  0  0  0  0
 29 30  1  6  0  0  0
 31 29  1  0  0  0  0
 32 31  1  0  0  0  0
 34 32  1  0  0  0  0
 34 33  1  0  0  0  0
M  END
>  <MODEL>
1

>  <REMARK>
 VINA RESULT:      -7.0      0.000      0.000
  Name = 
  11 active torsions:
  status: ('A' for Active; 'I' for Inactive)
    1  A    between atoms: C_1  and  O_34
    2  A    between atoms: C_2  and  C_23
    3  A    between atoms: C_2  and  C_32
    4  A    between atoms: O_3  and  C_24
    5  A    between atoms: O_3  and  C_27
    6  A    between atoms: C_7  and  N_11
    7  A    between atoms: C_17  and  C_18
    8  A    between atoms: C_18  and  C_30
    9  A    between atoms: C_23  and  C_25
   10  A    between atoms: C_25  and  C_27
   11  A    between atoms: C_32  and  O_34
                            x       y       z     vdW  Elec       q    Type
                         _______ _______ _______ _____ _____    ______ ____

>  <TORSDO>
F 11

$$$$
=
 OpenBabel11052420193D

 34 37  0  0  1  0  0  0  0  0999 V2000
  186.6180  177.1570  144.0910 C   0  0  1  0  0  3  0  0  0  0  0  0
  183.8940  178.5740  143.4930 N   0  0  0  0  0  1  0  0  0  0  0  0
  186.9310  177.0880  147.0920 C   0  0  0  0  0  2  0  0  0  0  0  0
  187.5590  176.1810  144.8080 C   0  0  0  0  0  2  0  0  0  0  0  0
  185.8260  177.7380  146.3920 N   0  0  0  0  0  0  0  0  0  0  0  0
  184.7760  178.3590  146.9660 C   0  0  0  0  0  3  0  0  0  0  0  0
  188.0800  176.7770  146.1230 C   0  0  2  0  0  3  0  0  0  0  0  0
  184.4480  178.3630  144.7870 C   0  0  0  0  0  0  0  0  0  0  0  0
  185.6220  177.7120  145.0670 C   0  0  0  0  0  0  0  0  0  0  0  0
  183.8850  178.7760  145.9810 C   0  0  0  0  0  3  0  0  0  0  0  0
  189.1500  175.8950  146.7690 C   0  0  0  0  0  2  0  0  0  0  0  0
  191.9990  177.1650  144.6010 C   0  0  0  0  0  3  0  0  0  0  0  0
  191.5080  175.1050  146.4390 C   0  0  0  0  0  3  0  0  0  0  0  0
  195.2410  175.4790  144.5930 C   0  0  0  0  0  0  0  0  0  0  0  0
  194.2310  176.3540  144.3190 N   0  0  0  0  0  0  0  0  0  0  0  0
  193.0110  176.2510  144.9090 C   0  0  0  0  0  0  0  0  0  0  0  0
  193.7790  174.3130  146.1350 C   0  0  0  0  0  3  0  0  0  0  0  0
  192.7620  175.2170  145.8350 C   0  0  0  0  0  0  0  0  0  0  0  0
  195.0230  174.4420  145.5150 C   0  0  0  0  0  3  0  0  0  0  0  0
  190.4970  176.0220  146.1280 C   0  0  0  0  0  0  0  0  0  0  0  0
  190.7440  177.0500  145.2090 C   0  0  0  0  0  3  0  0  0  0  0  0
  196.5140  175.6220  143.9390 N   0  0  0  0  0  0  0  0  0  0  0  0
  197.5200  174.5720  143.9960 C   0  0  0  0  0  1  0  0  0  0  0  0
  196.8380  176.8390  143.2100 C   0  0  0  0  0  1  0  0  0  0  0  0
  187.3600  178.2000  143.5310 O   0  0  0  0  0  0  0  0  0  0  0  0
  187.2530  178.0170  142.1520 C   0  0  0  0  0  2  0  0  0  0  0  0
  188.4090  177.1640  141.6640 C   0  0  0  0  0  2  0  0  0  0  0  0
  187.8930  175.9210  140.9570 C   0  0  0  0  0  2  0  0  0  0  0  0
  188.7620  174.7080  141.2640 C   0  0  2  0  0  3  0  0  0  0  0  0
  187.9620  173.6240  141.9680 C   0  0  0  0  0  1  0  0  0  0  0  0
  189.9650  175.1090  142.1080 C   0  0  0  0  0  2  0  0  0  0  0  0
  190.3240  174.0840  142.9890 O   0  0  0  0  0  0  0  0  0  0  0  0
  192.0660  172.5290  143.4200 C   0  0  0  0  0  1  0  0  0  0  0  0
  191.6180  173.7270  142.6100 C   0  0  0  0  0  2  0  0  0  0  0  0
  1 25  1  1  0  0  0
  1  4  1  0  0  0  0
  1  9  1  0  0  0  0
  2  8  1  0  0  0  0
  4  7  1  0  0  0  0
  5  6  1  0  0  0  0
  5  3  1  0  0  0  0
  7 11  1  1  0  0  0
  7  3  1  0  0  0  0
  8  9  2  0  0  0  0
  8 10  1  0  0  0  0
  9  5  1  0  0  0  0
 10  6  2  0  0  0  0
 12 16  2  0  0  0  0
 12 21  1  0  0  0  0
 14 19  1  0  0  0  0
 15 14  2  0  0  0  0
 15 16  1  0  0  0  0
 16 18  1  0  0  0  0
 18 17  1  0  0  0  0
 18 13  2  0  0  0  0
 19 17  2  0  0  0  0
 20 13  1  0  0  0  0
 20 11  1  0  0  0  0
 21 20  2  0  0  0  0
 22 23  1  0  0  0  0
 22 14  1  0  0  0  0
 24 22  1  0  0  0  0
 26 25  1  0  0  0  0
 27 26  1  0  0  0  0
 28 29  1  0  0  0  0
 28 27  1  0  0  0  0
 29 30  1  1  0  0  0
 29 31  1  0  0  0  0
 31 32  1  0  0  0  0
 34 32  1  0  0  0  0
 34 33  1  0  0  0  0
M  END
>  <MODEL>
2

>  <REMARK>
 VINA RESULT:      -6.5      1.260      2.033
  Name = 
  11 active torsions:
  status: ('A' for Active; 'I' for Inactive)
    1  A    between atoms: C_1  and  O_34
    2  A    between atoms: C_2  and  C_23
    3  A    between atoms: C_2  and  C_32
    4  A    between atoms: O_3  and  C_24
    5  A    between atoms: O_3  and  C_27
    6  A    between atoms: C_7  and  N_11
    7  A    between atoms: C_17  and  C_18
    8  A    between atoms: C_18  and  C_30
    9  A    between atoms: C_23  and  C_25
   10  A    between atoms: C_25  and  C_27
   11  A    between atoms: C_32  and  O_34
                            x       y       z     vdW  Elec       q    Type
                         _______ _______ _______ _____ _____    ______ ____

>  <TORSDO>
F 11

$$$$
=
 OpenBabel11052420193D

 34 37  0  0  1  0  0  0  0  0999 V2000
  193.7490  172.9590  144.1680 C   0  0  1  0  0  3  0  0  0  0  0  0
  195.3820  170.2950  144.3370 N   0  0  0  0  0  1  0  0  0  0  0  0
  195.2860  175.0300  145.7340 C   0  0  0  0  0  2  0  0  0  0  0  0
  193.5490  174.4670  143.9730 C   0  0  0  0  0  2  0  0  0  0  0  0
  195.6680  173.6250  145.6280 N   0  0  0  0  0  0  0  0  0  0  0  0
  196.7640  173.0560  146.1690 C   0  0  0  0  0  3  0  0  0  0  0  0
  193.8370  175.2360  145.2700 C   0  0  2  0  0  3  0  0  0  0  0  0
  195.7330  171.5210  144.9680 C   0  0  0  0  0  0  0  0  0  0  0  0
  195.0480  172.7050  144.8740 C   0  0  0  0  0  0  0  0  0  0  0  0
  196.8360  171.7200  145.7800 C   0  0  0  0  0  3  0  0  0  0  0  0
  193.4810  176.7190  145.1480 C   0  0  0  0  0  2  0  0  0  0  0  0
  190.1710  177.9110  143.7140 C   0  0  0  0  0  3  0  0  0  0  0  0
  191.1150  176.5150  145.9560 C   0  0  0  0  0  3  0  0  0  0  0  0
  187.0310  177.2730  145.4730 C   0  0  0  0  0  0  0  0  0  0  0  0
  187.9390  177.6960  144.5460 N   0  0  0  0  0  0  0  0  0  0  0  0
  189.2700  177.4590  144.6830 C   0  0  0  0  0  0  0  0  0  0  0  0
  188.8390  176.3100  146.7670 C   0  0  0  0  0  3  0  0  0  0  0  0
  189.7480  176.7570  145.8090 C   0  0  0  0  0  0  0  0  0  0  0  0
  187.4780  176.5660  146.6010 C   0  0  0  0  0  3  0  0  0  0  0  0
  192.0140  176.9700  144.9840 C   0  0  0  0  0  0  0  0  0  0  0  0
  191.5400  177.6680  143.8650 C   0  0  0  0  0  3  0  0  0  0  0  0
  185.6330  177.5540  145.2890 N   0  0  0  0  0  0  0  0  0  0  0  0
  184.7230  177.6550  146.4220 C   0  0  0  0  0  1  0  0  0  0  0  0
  185.0820  177.7280  143.9550 C   0  0  0  0  0  1  0  0  0  0  0  0
  192.6940  172.4380  144.9220 O   0  0  0  0  0  0  0  0  0  0  0  0
  191.7250  172.0770  143.9840 C   0  0  0  0  0  2  0  0  0  0  0  0
  190.3480  172.4140  144.5250 C   0  0  0  0  0  2  0  0  0  0  0  0
  189.9210  173.8000  144.0690 C   0  0  0  0  0  2  0  0  0  0  0  0
  189.5790  173.8150  142.5850 C   0  0  2  0  0  3  0  0  0  0  0  0
  190.7180  174.4000  141.7650 C   0  0  0  0  0  1  0  0  0  0  0  0
  188.2950  174.5980  142.3370 C   0  0  0  0  0  2  0  0  0  0  0  0
  188.5470  175.7520  141.5890 O   0  0  0  0  0  0  0  0  0  0  0  0
  187.3940  177.7540  141.0390 C   0  0  0  0  0  1  0  0  0  0  0  0
  187.2840  176.2650  141.2930 C   0  0  0  0  0  2  0  0  0  0  0  0
  1  9  1  0  0  0  0
  1 25  1  1  0  0  0
  2  8  1  0  0  0  0
  4  1  1  0  0  0  0
  4  7  1  0  0  0  0
  5  3  1  0  0  0  0
  5  6  1  0  0  0  0
  7 11  1  6  0  0  0
  7  3  1  0  0  0  0
  8 10  1  0  0  0  0
  9  8  2  0  0  0  0
  9  5  1  0  0  0  0
 10  6  2  0  0  0  0
 12 21  2  0  0  0  0
 12 16  1  0  0  0  0
 14 19  1  0  0  0  0
 15 16  1  0  0  0  0
 15 14  2  0  0  0  0
 16 18  2  0  0  0  0
 18 13  1  0  0  0  0
 18 17  1  0  0  0  0
 19 17  2  0  0  0  0
 20 11  1  0  0  0  0
 20 13  2  0  0  0  0
 21 20  1  0  0  0  0
 22 14  1  0  0  0  0
 22 23  1  0  0  0  0
 24 22  1  0  0  0  0
 26 27  1  0  0  0  0
 26 25  1  0  0  0  0
 28 27  1  0  0  0  0
 29 30  1  6  0  0  0
 29 28  1  0  0  0  0
 31 29  1  0  0  0  0
 32 31  1  0  0  0  0
 33 34  1  0  0  0  0
 34 32  1  0  0  0  0
M  END
>  <MODEL>
3

>  <REMARK>
 VINA RESULT:      -6.4      1.991      7.999
  Name = 
  11 active torsions:
  status: ('A' for Active; 'I' for Inactive)
    1  A    between atoms: C_1  and  O_34
    2  A    between atoms: C_2  and  C_23
    3  A    between atoms: C_2  and  C_32
    4  A    between atoms: O_3  and  C_24
    5  A    between atoms: O_3  and  C_27
    6  A    between atoms: C_7  and  N_11
    7  A    between atoms: C_17  and  C_18
    8  A    between atoms: C_18  and  C_30
    9  A    between atoms: C_23  and  C_25
   10  A    between atoms: C_25  and  C_27
   11  A    between atoms: C_32  and  O_34
                            x       y       z     vdW  Elec       q    Type
                         _______ _______ _______ _____ _____    ______ ____

>  <TORSDO>
F 11

$$$$
=
 OpenBabel11052420193D

 34 37  0  0  1  0  0  0  0  0999 V2000
  187.4390  177.4150  144.9120 C   0  0  1  0  0  3  0  0  0  0  0  0
  185.2690  179.2100  146.2750 N   0  0  0  0  0  1  0  0  0  0  0  0
  186.4250  176.7620  142.1450 C   0  0  0  0  0  2  0  0  0  0  0  0
  188.3600  176.9530  143.7760 C   0  0  0  0  0  2  0  0  0  0  0  0
  185.6730  177.5180  143.1430 N   0  0  0  0  0  0  0  0  0  0  0  0
  184.4530  178.0630  142.9720 C   0  0  0  0  0  3  0  0  0  0  0  0
  187.6140  176.0380  142.7950 C   0  0  2  0  0  3  0  0  0  0  0  0
  185.1760  178.6470  144.9710 C   0  0  0  0  0  0  0  0  0  0  0  0
  186.1320  177.8900  144.3470 C   0  0  0  0  0  0  0  0  0  0  0  0
  184.0990  178.7810  144.1130 C   0  0  0  0  0  3  0  0  0  0  0  0
  188.5520  175.4290  141.7510 C   0  0  0  0  0  2  0  0  0  0  0  0
  189.5720  172.0180  143.0780 C   0  0  0  0  0  3  0  0  0  0  0  0
  190.7570  174.4920  142.4960 C   0  0  0  0  0  3  0  0  0  0  0  0
  193.0370  171.3330  144.0150 C   0  0  0  0  0  0  0  0  0  0  0  0
  191.6990  171.1890  143.7880 N   0  0  0  0  0  0  0  0  0  0  0  0
  190.9410  172.2020  143.2940 C   0  0  0  0  0  0  0  0  0  0  0  0
  192.9000  173.6180  143.2180 C   0  0  0  0  0  3  0  0  0  0  0  0
  191.5340  173.4470  143.0000 C   0  0  0  0  0  0  0  0  0  0  0  0
  193.6560  172.5600  143.7260 C   0  0  0  0  0  3  0  0  0  0  0  0
  189.3860  174.3040  142.2810 C   0  0  0  0  0  0  0  0  0  0  0  0
  188.7960  173.0680  142.5730 C   0  0  0  0  0  3  0  0  0  0  0  0
  193.7990  170.2350  144.5460 N   0  0  0  0  0  0  0  0  0  0  0  0
  195.2000  170.3880  144.9090 C   0  0  0  0  0  1  0  0  0  0  0  0
  193.1870  168.9270  144.7210 C   0  0  0  0  0  1  0  0  0  0  0  0
  187.2130  176.3560  145.7950 O   0  0  0  0  0  0  0  0  0  0  0  0
  188.1900  176.4950  146.7820 C   0  0  0  0  0  2  0  0  0  0  0  0
  188.7630  175.1320  147.1210 C   0  0  0  0  0  2  0  0  0  0  0  0
  189.7400  174.6820  146.0460 C   0  0  0  0  0  2  0  0  0  0  0  0
  191.1800  174.9660  146.4510 C   0  0  2  0  0  3  0  0  0  0  0  0
  191.2850  175.2530  147.9390 C   0  0  0  0  0  1  0  0  0  0  0  0
  191.7440  176.1320  145.6470 C   0  0  0  0  0  2  0  0  0  0  0  0
  192.8080  176.7380  146.3230 O   0  0  0  0  0  0  0  0  0  0  0  0
  194.8380  175.5230  146.1120 C   0  0  0  0  0  1  0  0  0  0  0  0
  193.9110  176.5470  145.4910 C   0  0  0  0  0  2  0  0  0  0  0  0
  1 25  1  1  0  0  0
  3  7  1  0  0  0  0
  3  5  1  0  0  0  0
  4  1  1  0  0  0  0
  5  9  1  0  0  0  0
  6  5  1  0  0  0  0
  6 10  2  0  0  0  0
  7 11  1  6  0  0  0
  7  4  1  0  0  0  0
  8  2  1  0  0  0  0
  9  1  1  0  0  0  0
  9  8  2  0  0  0  0
 10  8  1  0  0  0  0
 11 20  1  0  0  0  0
 12 16  1  0  0  0  0
 13 18  1  0  0  0  0
 14 22  1  0  0  0  0
 15 14  1  0  0  0  0
 16 15  2  0  0  0  0
 17 19  1  0  0  0  0
 18 17  2  0  0  0  0
 18 16  1  0  0  0  0
 19 14  2  0  0  0  0
 20 13  2  0  0  0  0
 20 21  1  0  0  0  0
 21 12  2  0  0  0  0
 22 24  1  0  0  0  0
 22 23  1  0  0  0  0
 25 26  1  0  0  0  0
 26 27  1  0  0  0  0
 28 29  1  0  0  0  0
 28 27  1  0  0  0  0
 29 30  1  1  0  0  0
 31 32  1  0  0  0  0
 31 29  1  0  0  0  0
 34 33  1  0  0  0  0
 34 32  1  0  0  0  0
M  END
>  <MODEL>
4

>  <REMARK>
 VINA RESULT:      -6.3      2.331      4.372
  Name = 
  11 active torsions:
  status: ('A' for Active; 'I' for Inactive)
    1  A    between atoms: C_1  and  O_34
    2  A    between atoms: C_2  and  C_23
    3  A    between atoms: C_2  and  C_32
    4  A    between atoms: O_3  and  C_24
    5  A    between atoms: O_3  and  C_27
    6  A    between atoms: C_7  and  N_11
    7  A    between atoms: C_17  and  C_18
    8  A    between atoms: C_18  and  C_30
    9  A    between atoms: C_23  and  C_25
   10  A    between atoms: C_25  and  C_27
   11  A    between atoms: C_32  and  O_34
                            x       y       z     vdW  Elec       q    Type
                         _______ _______ _______ _____ _____    ______ ____

>  <TORSDO>
F 11

$$$$
=
 OpenBabel11052420193D

 34 37  0  0  1  0  0  0  0  0999 V2000
  186.8230  176.8720  143.3770 C   0  0  1  0  0  3  0  0  0  0  0  0
  184.5100  178.1560  141.7060 N   0  0  0  0  0  1  0  0  0  0  0  0
  186.3080  177.5720  146.2680 C   0  0  0  0  0  2  0  0  0  0  0  0
  187.4370  176.0900  144.5450 C   0  0  0  0  0  2  0  0  0  0  0  0
  185.5010  178.0460  145.1480 N   0  0  0  0  0  0  0  0  0  0  0  0
  184.4010  178.8210  145.2320 C   0  0  0  0  0  3  0  0  0  0  0  0
  187.6410  176.9920  145.7700 C   0  0  2  0  0  3  0  0  0  0  0  0
  184.6730  178.2710  143.1150 C   0  0  0  0  0  0  0  0  0  0  0  0
  185.6590  177.6850  143.8650 C   0  0  0  0  0  0  0  0  0  0  0  0
  183.8520  178.9930  143.9630 C   0  0  0  0  0  3  0  0  0  0  0  0
  188.4060  176.2790  146.8860 C   0  0  0  0  0  2  0  0  0  0  0  0
  192.0480  175.2490  147.2230 C   0  0  0  0  0  3  0  0  0  0  0  0
  190.3670  176.4580  145.3310 C   0  0  0  0  0  3  0  0  0  0  0  0
  194.4200  175.8450  144.5080 C   0  0  0  0  0  0  0  0  0  0  0  0
  193.8800  175.4630  145.7010 N   0  0  0  0  0  0  0  0  0  0  0  0
  192.5650  175.6510  145.9880 C   0  0  0  0  0  0  0  0  0  0  0  0
  192.2450  176.6530  143.8100 C   0  0  0  0  0  3  0  0  0  0  0  0
  191.7170  176.2580  145.0380 C   0  0  0  0  0  0  0  0  0  0  0  0
  193.5980  176.4470  143.5410 C   0  0  0  0  0  3  0  0  0  0  0  0
  189.8520  176.0540  146.5700 C   0  0  0  0  0  0  0  0  0  0  0  0
  190.6940  175.4510  147.5130 C   0  0  0  0  0  3  0  0  0  0  0  0
  195.8190  175.6320  144.2500 N   0  0  0  0  0  0  0  0  0  0  0  0
  196.5570  174.5590  144.9020 C   0  0  0  0  0  1  0  0  0  0  0  0
  196.5440  176.5000  143.3360 C   0  0  0  0  0  1  0  0  0  0  0  0
  187.7850  177.7160  142.8180 O   0  0  0  0  0  0  0  0  0  0  0  0
  188.6800  176.8630  142.1710 C   0  0  0  0  0  2  0  0  0  0  0  0
  187.9310  176.0170  141.1600 C   0  0  0  0  0  2  0  0  0  0  0  0
  188.6250  174.6780  140.9660 C   0  0  0  0  0  2  0  0  0  0  0  0
  189.7800  174.5060  141.9430 C   0  0  2  0  0  3  0  0  0  0  0  0
  191.0860  174.2450  141.2090 C   0  0  0  0  0  1  0  0  0  0  0  0
  189.4920  173.3750  142.9230 C   0  0  0  0  0  2  0  0  0  0  0  0
  190.5980  172.5310  143.0560 O   0  0  0  0  0  0  0  0  0  0  0  0
  189.7080  172.5670  145.2570 C   0  0  0  0  0  1  0  0  0  0  0  0
  190.9560  172.6230  144.4010 C   0  0  0  0  0  2  0  0  0  0  0  0
  1 25  1  1  0  0  0
  1  9  1  0  0  0  0
  1  4  1  0  0  0  0
  2  8  1  0  0  0  0
  4  7  1  0  0  0  0
  5  6  1  0  0  0  0
  5  3  1  0  0  0  0
  7  3  1  0  0  0  0
  7 11  1  1  0  0  0
  8  9  2  0  0  0  0
  8 10  1  0  0  0  0
  9  5  1  0  0  0  0
 10  6  2  0  0  0  0
 12 21  1  0  0  0  0
 13 20  1  0  0  0  0
 14 15  2  0  0  0  0
 15 16  1  0  0  0  0
 16 12  2  0  0  0  0
 17 18  1  0  0  0  0
 18 13  2  0  0  0  0
 18 16  1  0  0  0  0
 19 17  2  0  0  0  0
 19 14  1  0  0  0  0
 20 11  1  0  0  0  0
 20 21  2  0  0  0  0
 22 14  1  0  0  0  0
 22 23  1  0  0  0  0
 24 22  1  0  0  0  0
 26 25  1  0  0  0  0
 27 26  1  0  0  0  0
 28 27  1  0  0  0  0
 28 29  1  0  0  0  0
 29 30  1  6  0  0  0
 29 31  1  0  0  0  0
 31 32  1  0  0  0  0
 32 34  1  0  0  0  0
 34 33  1  0  0  0  0
M  END
>  <MODEL>
5

>  <REMARK>
 VINA RESULT:      -6.3      1.318      2.140
  Name = 
  11 active torsions:
  status: ('A' for Active; 'I' for Inactive)
    1  A    between atoms: C_1  and  O_34
    2  A    between atoms: C_2  and  C_23
    3  A    between atoms: C_2  and  C_32
    4  A    between atoms: O_3  and  C_24
    5  A    between atoms: O_3  and  C_27
    6  A    between atoms: C_7  and  N_11
    7  A    between atoms: C_17  and  C_18
    8  A    between atoms: C_18  and  C_30
    9  A    between atoms: C_23  and  C_25
   10  A    between atoms: C_25  and  C_27
   11  A    between atoms: C_32  and  O_34
                            x       y       z     vdW  Elec       q    Type
                         _______ _______ _______ _____ _____    ______ ____

>  <TORSDO>
F 11

$$$$
=
 OpenBabel11052420193D

 34 37  0  0  1  0  0  0  0  0999 V2000
  194.2930  173.8880  145.2890 C   0  0  1  0  0  3  0  0  0  0  0  0
  197.1680  173.7790  146.5190 N   0  0  0  0  0  1  0  0  0  0  0  0
  194.6160  174.5410  142.3610 C   0  0  0  0  0  2  0  0  0  0  0  0
  193.2050  173.5990  144.2470 C   0  0  0  0  0  2  0  0  0  0  0  0
  195.7170  174.4750  143.3180 N   0  0  0  0  0  0  0  0  0  0  0  0
  197.0240  174.6510  143.0400 C   0  0  0  0  0  3  0  0  0  0  0  0
  193.2660  174.6050  143.0890 C   0  0  2  0  0  3  0  0  0  0  0  0
  196.8600  174.0910  145.1650 C   0  0  0  0  0  0  0  0  0  0  0  0
  195.6100  174.1080  144.6040 C   0  0  0  0  0  0  0  0  0  0  0  0
  197.7800  174.4250  144.1880 C   0  0  0  0  0  3  0  0  0  0  0  0
  192.0890  174.4420  142.1260 C   0  0  0  0  0  2  0  0  0  0  0  0
  190.1770  177.6040  143.0120 C   0  0  0  0  0  3  0  0  0  0  0  0
  189.6370  174.9460  142.3000 C   0  0  0  0  0  3  0  0  0  0  0  0
  186.5240  177.6210  143.0970 C   0  0  0  0  0  0  0  0  0  0  0  0
  187.8280  178.0160  143.1750 N   0  0  0  0  0  0  0  0  0  0  0  0
  188.8540  177.1630  142.9180 C   0  0  0  0  0  0  0  0  0  0  0  0
  187.2610  175.4000  142.4680 C   0  0  0  0  0  3  0  0  0  0  0  0
  188.5850  175.8260  142.5590 C   0  0  0  0  0  0  0  0  0  0  0  0
  186.2260  176.2970  142.7360 C   0  0  0  0  0  3  0  0  0  0  0  0
  190.9620  175.3900  142.3940 C   0  0  0  0  0  0  0  0  0  0  0  0
  191.2290  176.7180  142.7510 C   0  0  0  0  0  3  0  0  0  0  0  0
  185.4700  178.5570  143.3840 N   0  0  0  0  0  0  0  0  0  0  0  0
  184.1040  178.3220  142.9410 C   0  0  0  0  0  1  0  0  0  0  0  0
  185.7490  179.7810  144.1180 C   0  0  0  0  0  1  0  0  0  0  0  0
  193.9490  175.0260  146.0250 O   0  0  0  0  0  0  0  0  0  0  0  0
  192.7530  174.6950  146.6630 C   0  0  0  0  0  2  0  0  0  0  0  0
  192.1280  175.9480  147.2460 C   0  0  0  0  0  2  0  0  0  0  0  0
  191.0130  176.4560  146.3450 C   0  0  0  0  0  2  0  0  0  0  0  0
  189.6650  175.8750  146.7490 C   0  0  2  0  0  3  0  0  0  0  0  0
  189.3070  174.6710  145.8940 C   0  0  0  0  0  1  0  0  0  0  0  0
  188.5730  176.9330  146.6540 C   0  0  0  0  0  2  0  0  0  0  0  0
  187.3210  176.3460  146.4460 O   0  0  0  0  0  0  0  0  0  0  0  0
  184.9980  176.8370  146.5120 C   0  0  0  0  0  1  0  0  0  0  0  0
  186.4030  177.3560  146.7360 C   0  0  0  0  0  2  0  0  0  0  0  0
  1 25  1  6  0  0  0
  3  7  1  0  0  0  0
  3  5  1  0  0  0  0
  4  1  1  0  0  0  0
  5  9  1  0  0  0  0
  6  5  1  0  0  0  0
  6 10  2  0  0  0  0
  7 11  1  6  0  0  0
  7  4  1  0  0  0  0
  8  2  1  0  0  0  0
  9  8  2  0  0  0  0
  9  1  1  0  0  0  0
 10  8  1  0  0  0  0
 11 20  1  0  0  0  0
 13 20  2  0  0  0  0
 13 18  1  0  0  0  0
 14 15  1  0  0  0  0
 14 22  1  0  0  0  0
 16 12  1  0  0  0  0
 16 15  2  0  0  0  0
 17 18  2  0  0  0  0
 17 19  1  0  0  0  0
 18 16  1  0  0  0  0
 19 14  2  0  0  0  0
 20 21  1  0  0  0  0
 21 12  2  0  0  0  0
 22 24  1  0  0  0  0
 23 22  1  0  0  0  0
 25 26  1  0  0  0  0
 26 27  1  0  0  0  0
 28 29  1  0  0  0  0
 28 27  1  0  0  0  0
 29 30  1  6  0  0  0
 31 29  1  0  0  0  0
 32 31  1  0  0  0  0
 32 34  1  0  0  0  0
 33 34  1  0  0  0  0
M  END
>  <MODEL>
6

>  <REMARK>
 VINA RESULT:      -6.3      1.875      8.586
  Name = 
  11 active torsions:
  status: ('A' for Active; 'I' for Inactive)
    1  A    between atoms: C_1  and  O_34
    2  A    between atoms: C_2  and  C_23
    3  A    between atoms: C_2  and  C_32
    4  A    between atoms: O_3  and  C_24
    5  A    between atoms: O_3  and  C_27
    6  A    between atoms: C_7  and  N_11
    7  A    between atoms: C_17  and  C_18
    8  A    between atoms: C_18  and  C_30
    9  A    between atoms: C_23  and  C_25
   10  A    between atoms: C_25  and  C_27
   11  A    between atoms: C_32  and  O_34
                            x       y       z     vdW  Elec       q    Type
                         _______ _______ _______ _____ _____    ______ ____

>  <TORSDO>
F 11

$$$$
=
 OpenBabel11052420193D

 34 37  0  0  1  0  0  0  0  0999 V2000
  193.6750  173.0270  144.2160 C   0  0  1  0  0  3  0  0  0  0  0  0
  195.3600  170.4490  144.7650 N   0  0  0  0  0  1  0  0  0  0  0  0
  195.1930  175.3390  145.4240 C   0  0  0  0  0  2  0  0  0  0  0  0
  193.4430  174.4840  143.7970 C   0  0  0  0  0  2  0  0  0  0  0  0
  195.5990  173.9410  145.5280 N   0  0  0  0  0  0  0  0  0  0  0  0
  196.7130  173.4800  146.1310 C   0  0  0  0  0  3  0  0  0  0  0  0
  193.7340  175.4470  144.9560 C   0  0  2  0  0  3  0  0  0  0  0  0
  195.6960  171.7620  145.1960 C   0  0  0  0  0  0  0  0  0  0  0  0
  194.9880  172.9060  144.9330 C   0  0  0  0  0  0  0  0  0  0  0  0
  196.8050  172.1010  145.9500 C   0  0  0  0  0  3  0  0  0  0  0  0
  193.3490  176.8880  144.6140 C   0  0  0  0  0  2  0  0  0  0  0  0
  189.9200  177.9830  143.3960 C   0  0  0  0  0  3  0  0  0  0  0  0
  191.0530  176.6790  145.6050 C   0  0  0  0  0  3  0  0  0  0  0  0
  186.9330  177.3610  145.4060 C   0  0  0  0  0  0  0  0  0  0  0  0
  187.7610  177.7650  144.4000 N   0  0  0  0  0  0  0  0  0  0  0  0
  189.1030  177.5510  144.4440 C   0  0  0  0  0  0  0  0  0  0  0  0
  188.8480  176.4690  146.5920 C   0  0  0  0  0  3  0  0  0  0  0  0
  189.6750  176.8950  145.5540 C   0  0  0  0  0  0  0  0  0  0  0  0
  187.4740  176.7000  146.5200 C   0  0  0  0  0  3  0  0  0  0  0  0
  191.8690  177.1120  144.5530 C   0  0  0  0  0  0  0  0  0  0  0  0
  191.3010  177.7640  143.4510 C   0  0  0  0  0  3  0  0  0  0  0  0
  185.5200  177.6150  145.3190 N   0  0  0  0  0  0  0  0  0  0  0  0
  184.8800  177.9230  144.0480 C   0  0  0  0  0  1  0  0  0  0  0  0
  184.6890  177.5870  146.5130 C   0  0  0  0  0  1  0  0  0  0  0  0
  192.6390  172.6100  145.0570 O   0  0  0  0  0  0  0  0  0  0  0  0
  191.5980  172.2570  144.1980 C   0  0  0  0  0  2  0  0  0  0  0  0
  190.3220  172.9480  144.6410 C   0  0  0  0  0  2  0  0  0  0  0  0
  189.3180  172.9970  143.5000 C   0  0  0  0  0  2  0  0  0  0  0  0
  189.3040  174.3660  142.8330 C   0  0  2  0  0  3  0  0  0  0  0  0
  187.8990  174.7540  142.4030 C   0  0  0  0  0  1  0  0  0  0  0  0
  190.2470  174.3910  141.6360 C   0  0  0  0  0  2  0  0  0  0  0  0
  189.5490  174.1810  140.4420 O   0  0  0  0  0  0  0  0  0  0  0  0
  191.8140  173.7820  139.8500 C   0  0  0  0  0  1  0  0  0  0  0  0
  190.3740  173.3430  139.6920 C   0  0  0  0  0  2  0  0  0  0  0  0
  1  9  1  0  0  0  0
  1 25  1  1  0  0  0
  2  8  1  0  0  0  0
  3  5  1  0  0  0  0
  4  1  1  0  0  0  0
  4  7  1  0  0  0  0
  5  6  1  0  0  0  0
  7 11  1  6  0  0  0
  7  3  1  0  0  0  0
  8 10  1  0  0  0  0
  9  8  2  0  0  0  0
  9  5  1  0  0  0  0
 10  6  2  0  0  0  0
 12 21  2  0  0  0  0
 12 16  1  0  0  0  0
 14 19  1  0  0  0  0
 15 16  1  0  0  0  0
 15 14  2  0  0  0  0
 16 18  2  0  0  0  0
 18 13  1  0  0  0  0
 18 17  1  0  0  0  0
 19 17  2  0  0  0  0
 20 11  1  0  0  0  0
 20 13  2  0  0  0  0
 21 20  1  0  0  0  0
 22 14  1  0  0  0  0
 22 24  1  0  0  0  0
 23 22  1  0  0  0  0
 26 27  1  0  0  0  0
 26 25  1  0  0  0  0
 28 27  1  0  0  0  0
 29 30  1  6  0  0  0
 29 28  1  0  0  0  0
 31 29  1  0  0  0  0
 32 31  1  0  0  0  0
 34 33  1  0  0  0  0
 34 32  1  0  0  0  0
M  END
>  <MODEL>
7

>  <REMARK>
 VINA RESULT:      -6.2      1.909      7.943
  Name = 
  11 active torsions:
  status: ('A' for Active; 'I' for Inactive)
    1  A    between atoms: C_1  and  O_34
    2  A    between atoms: C_2  and  C_23
    3  A    between atoms: C_2  and  C_32
    4  A    between atoms: O_3  and  C_24
    5  A    between atoms: O_3  and  C_27
    6  A    between atoms: C_7  and  N_11
    7  A    between atoms: C_17  and  C_18
    8  A    between atoms: C_18  and  C_30
    9  A    between atoms: C_23  and  C_25
   10  A    between atoms: C_25  and  C_27
   11  A    between atoms: C_32  and  O_34
                            x       y       z     vdW  Elec       q    Type
                         _______ _______ _______ _____ _____    ______ ____

>  <TORSDO>
F 11

$$$$
=
 OpenBabel11052420193D

 34 37  0  0  1  0  0  0  0  0999 V2000
  188.0400  177.4290  145.1770 C   0  0  1  0  0  3  0  0  0  0  0  0
  184.9140  177.5580  145.2020 N   0  0  0  0  0  1  0  0  0  0  0  0
  188.9240  178.1610  142.3860 C   0  0  0  0  0  2  0  0  0  0  0  0
  189.4570  177.9170  144.8540 C   0  0  0  0  0  2  0  0  0  0  0  0
  187.5310  178.0260  142.8010 N   0  0  0  0  0  0  0  0  0  0  0  0
  186.4470  178.2410  142.0290 C   0  0  0  0  0  3  0  0  0  0  0  0
  189.8640  177.5330  143.4250 C   0  0  2  0  0  3  0  0  0  0  0  0
  185.7410  177.7990  144.0700 C   0  0  0  0  0  0  0  0  0  0  0  0
  187.1110  177.7810  144.0510 C   0  0  0  0  0  0  0  0  0  0  0  0
  185.2920  178.0990  142.7960 C   0  0  0  0  0  3  0  0  0  0  0  0
  191.3320  177.8590  143.1390 C   0  0  0  0  0  2  0  0  0  0  0  0
  193.7280  175.8320  145.2800 C   0  0  0  0  0  3  0  0  0  0  0  0
  192.6190  175.7500  142.7060 C   0  0  0  0  0  3  0  0  0  0  0  0
  195.2980  172.8010  143.9750 C   0  0  0  0  0  0  0  0  0  0  0  0
  194.9390  173.8270  144.8000 N   0  0  0  0  0  0  0  0  0  0  0  0
  194.0690  174.7940  144.4080 C   0  0  0  0  0  0  0  0  0  0  0  0
  193.8560  173.7150  142.2540 C   0  0  0  0  0  3  0  0  0  0  0  0
  193.5090  174.7550  143.1140 C   0  0  0  0  0  0  0  0  0  0  0  0
  194.7520  172.7330  142.6830 C   0  0  0  0  0  3  0  0  0  0  0  0
  192.2790  176.7880  143.5820 C   0  0  0  0  0  0  0  0  0  0  0  0
  192.8350  176.8270  144.8680 C   0  0  0  0  0  3  0  0  0  0  0  0
  196.2280  171.8040  144.4300 N   0  0  0  0  0  0  0  0  0  0  0  0
  196.8060  171.8570  145.7660 C   0  0  0  0  0  1  0  0  0  0  0  0
  196.6320  170.7150  143.5550 C   0  0  0  0  0  1  0  0  0  0  0  0
  188.0500  176.0440  145.3620 O   0  0  0  0  0  0  0  0  0  0  0  0
  188.7070  175.8480  146.5770 C   0  0  0  0  0  2  0  0  0  0  0  0
  189.3180  174.4590  146.6030 C   0  0  0  0  0  2  0  0  0  0  0  0
  190.3340  174.3020  145.4830 C   0  0  0  0  0  2  0  0  0  0  0  0
  190.0450  173.0660  144.6420 C   0  0  2  0  0  3  0  0  0  0  0  0
  191.3030  172.2400  144.4290 C   0  0  0  0  0  1  0  0  0  0  0  0
  189.4390  173.4580  143.3000 C   0  0  0  0  0  2  0  0  0  0  0  0
  190.2740  173.0840  142.2430 O   0  0  0  0  0  0  0  0  0  0  0  0
  188.6260  174.6510  141.5570 C   0  0  0  0  0  1  0  0  0  0  0  0
  189.7270  173.7080  141.1210 C   0  0  0  0  0  2  0  0  0  0  0  0
  1 25  1  6  0  0  0
  3  5  1  0  0  0  0
  3  7  1  0  0  0  0
  4  1  1  0  0  0  0
  5  9  1  0  0  0  0
  6 10  2  0  0  0  0
  6  5  1  0  0  0  0
  7 11  1  6  0  0  0
  7  4  1  0  0  0  0
  8  2  1  0  0  0  0
  9  8  2  0  0  0  0
  9  1  1  0  0  0  0
 10  8  1  0  0  0  0
 11 20  1  0  0  0  0
 13 18  2  0  0  0  0
 13 20  1  0  0  0  0
 14 22  1  0  0  0  0
 14 15  2  0  0  0  0
 16 15  1  0  0  0  0
 16 12  2  0  0  0  0
 17 19  2  0  0  0  0
 17 18  1  0  0  0  0
 18 16  1  0  0  0  0
 19 14  1  0  0  0  0
 20 21  2  0  0  0  0
 21 12  1  0  0  0  0
 22 23  1  0  0  0  0
 24 22  1  0  0  0  0
 25 26  1  0  0  0  0
 26 27  1  0  0  0  0
 28 27  1  0  0  0  0
 29 30  1  6  0  0  0
 29 28  1  0  0  0  0
 31 29  1  0  0  0  0
 32 31  1  0  0  0  0
 34 33  1  0  0  0  0
 34 32  1  0  0  0  0
M  END
>  <MODEL>
8

>  <REMARK>
 VINA RESULT:      -6.2      1.940      3.772
  Name = 
  11 active torsions:
  status: ('A' for Active; 'I' for Inactive)
    1  A    between atoms: C_1  and  O_34
    2  A    between atoms: C_2  and  C_23
    3  A    between atoms: C_2  and  C_32
    4  A    between atoms: O_3  and  C_24
    5  A    between atoms: O_3  and  C_27
    6  A    between atoms: C_7  and  N_11
    7  A    between atoms: C_17  and  C_18
    8  A    between atoms: C_18  and  C_30
    9  A    between atoms: C_23  and  C_25
   10  A    between atoms: C_25  and  C_27
   11  A    between atoms: C_32  and  O_34
                            x       y       z     vdW  Elec       q    Type
                         _______ _______ _______ _____ _____    ______ ____

>  <TORSDO>
F 11

$$$$
=
 OpenBabel11052420193D

 34 37  0  0  1  0  0  0  0  0999 V2000
  193.6300  172.6850  144.0290 C   0  0  1  0  0  3  0  0  0  0  0  0
  195.5750  170.7890  145.5810 N   0  0  0  0  0  1  0  0  0  0  0  0
  194.7880  175.4660  144.2090 C   0  0  0  0  0  2  0  0  0  0  0  0
  193.2520  173.8080  143.0550 C   0  0  0  0  0  2  0  0  0  0  0  0
  195.3520  174.2930  144.8710 N   0  0  0  0  0  0  0  0  0  0  0  0
  196.4740  174.2640  145.6160 C   0  0  0  0  0  3  0  0  0  0  0  0
  193.3570  175.1830  143.7290 C   0  0  2  0  0  3  0  0  0  0  0  0
  195.7270  172.1970  145.4470 C   0  0  0  0  0  0  0  0  0  0  0  0
  194.9040  173.0350  144.7410 C   0  0  0  0  0  0  0  0  0  0  0  0
  196.7410  172.9530  146.0070 C   0  0  0  0  0  3  0  0  0  0  0  0
  192.8230  176.3030  142.8320 C   0  0  0  0  0  2  0  0  0  0  0  0
  189.9180  177.9640  144.6310 C   0  0  0  0  0  3  0  0  0  0  0  0
  190.3510  176.3120  142.4070 C   0  0  0  0  0  3  0  0  0  0  0  0
  186.4880  177.5240  143.4510 C   0  0  0  0  0  0  0  0  0  0  0  0
  187.5700  177.9210  144.1800 N   0  0  0  0  0  0  0  0  0  0  0  0
  188.8340  177.5400  143.8570 C   0  0  0  0  0  0  0  0  0  0  0  0
  187.9650  176.2950  141.9750 C   0  0  0  0  0  3  0  0  0  0  0  0
  189.0540  176.7100  142.7390 C   0  0  0  0  0  0  0  0  0  0  0  0
  186.6780  176.7020  142.3280 C   0  0  0  0  0  3  0  0  0  0  0  0
  191.4350  176.7390  143.1840 C   0  0  0  0  0  0  0  0  0  0  0  0
  191.2160  177.5630  144.2950 C   0  0  0  0  0  3  0  0  0  0  0  0
  185.1680  177.9470  143.8350 N   0  0  0  0  0  0  0  0  0  0  0  0
  184.7730  178.0300  145.2340 C   0  0  0  0  0  1  0  0  0  0  0  0
  184.1780  178.2900  142.8250 C   0  0  0  0  0  1  0  0  0  0  0  0
  192.6040  172.5040  144.9600 O   0  0  0  0  0  0  0  0  0  0  0  0
  191.4690  172.2320  144.1970 C   0  0  0  0  0  2  0  0  0  0  0  0
  190.2260  172.5520  145.0070 C   0  0  0  0  0  2  0  0  0  0  0  0
  190.0340  174.0560  145.1170 C   0  0  0  0  0  2  0  0  0  0  0  0
  189.8430  174.4850  146.5660 C   0  0  2  0  0  3  0  0  0  0  0  0
  188.5660  175.2920  146.7360 C   0  0  0  0  0  1  0  0  0  0  0  0
  191.0430  175.2900  147.0510 C   0  0  0  0  0  2  0  0  0  0  0  0
  190.6620  176.2300  148.0130 O   0  0  0  0  0  0  0  0  0  0  0  0
  191.5650  177.9160  149.4210 C   0  0  0  0  0  1  0  0  0  0  0  0
  191.8230  176.9570  148.2780 C   0  0  0  0  0  2  0  0  0  0  0  0
  1  9  1  0  0  0  0
  1 25  1  1  0  0  0
  3  5  1  0  0  0  0
  4  7  1  0  0  0  0
  4  1  1  0  0  0  0
  5  6  1  0  0  0  0
  6 10  2  0  0  0  0
  7 11  1  6  0  0  0
  7  3  1  0  0  0  0
  8  2  1  0  0  0  0
  8 10  1  0  0  0  0
  9  5  1  0  0  0  0
  9  8  2  0  0  0  0
 11 20  1  0  0  0  0
 13 18  2  0  0  0  0
 13 20  1  0  0  0  0
 14 22  1  0  0  0  0
 14 15  2  0  0  0  0
 16 15  1  0  0  0  0
 16 12  2  0  0  0  0
 17 19  2  0  0  0  0
 17 18  1  0  0  0  0
 18 16  1  0  0  0  0
 19 14  1  0  0  0  0
 20 21  2  0  0  0  0
 21 12  1  0  0  0  0
 22 23  1  0  0  0  0
 24 22  1  0  0  0  0
 26 25  1  0  0  0  0
 26 27  1  0  0  0  0
 27 28  1  0  0  0  0
 28 29  1  0  0  0  0
 29 30  1  6  0  0  0
 29 31  1  0  0  0  0
 31 32  1  0  0  0  0
 32 34  1  0  0  0  0
 34 33  1  0  0  0  0
M  END
>  <MODEL>
9

>  <REMARK>
 VINA RESULT:      -6.1      2.109      8.515
  Name = 
  11 active torsions:
  status: ('A' for Active; 'I' for Inactive)
    1  A    between atoms: C_1  and  O_34
    2  A    between atoms: C_2  and  C_23
    3  A    between atoms: C_2  and  C_32
    4  A    between atoms: O_3  and  C_24
    5  A    between atoms: O_3  and  C_27
    6  A    between atoms: C_7  and  N_11
    7  A    between atoms: C_17  and  C_18
    8  A    between atoms: C_18  and  C_30
    9  A    between atoms: C_23  and  C_25
   10  A    between atoms: C_25  and  C_27
   11  A    between atoms: C_32  and  O_34
                            x       y       z     vdW  Elec       q    Type
                         _______ _______ _______ _____ _____    ______ ____

>  <TORSDO>
F 11

$$$$
