=
 OpenBabel11052417273D

 25 27  0  0  1  0  0  0  0  0999 V2000
  188.8640  175.9490  143.6340 C   0  0  0  0  0  0  0  0  0  0  0  0
  187.8190  176.8500  143.3490 C   0  0  0  0  0  0  0  0  0  0  0  0
  188.7840  175.1710  141.3900 C   0  0  0  0  0  3  0  0  0  0  0  0
  187.7770  176.0330  141.1010 N   0  0  0  0  0  0  0  0  0  0  0  0
  186.2080  177.7700  141.7670 N   0  0  0  0  0  0  0  0  0  0  0  0
  185.6120  177.8410  140.4430 C   0  0  0  0  0  1  0  0  0  0  0  0
  187.2650  177.7150  144.3550 N   0  0  0  0  0  0  0  0  0  0  0  0
  189.3140  175.1340  142.6400 N   0  0  0  0  0  0  0  0  0  0  0  0
  185.7130  178.5920  142.7910 N   0  0  0  0  0  2  0  0  0  0  0  0
  186.2880  178.5350  144.1020 C   0  0  0  0  0  0  0  0  0  0  0  0
  187.2850  176.8690  142.0530 C   0  0  0  0  0  0  0  0  0  0  0  0
  189.4950  175.8640  144.9790 C   0  0  1  0  0  3  0  0  0  0  0  0
  190.6290  175.7350  147.5230 C   0  0  0  0  0  3  0  0  0  0  0  0
  190.5890  176.6800  145.3410 C   0  0  0  0  0  0  0  0  0  0  0  0
  191.1200  176.5920  146.5900 N   0  0  0  0  0  0  0  0  0  0  0  0
  189.5480  174.9120  147.2140 C   0  0  0  0  0  3  0  0  0  0  0  0
  191.0960  177.4850  144.5150 O   0  0  0  0  0  0  0  0  0  0  0  0
  188.9830  174.9830  145.9420 C   0  0  0  0  0  3  0  0  0  0  0  0
  185.7370  179.3890  145.1920 C   0  0  0  0  0  2  0  0  0  0  0  0
  185.4020  178.5520  146.3880 C   0  0  0  0  0  0  0  0  0  0  0  0
  184.4280  177.8160  146.3460 O   0  0  0  0  0  0  0  0  0  0  0  0
  185.7110  177.7510  148.5820 F   0  0  0  0  0  0  0  0  0  0  0  0
  187.5440  178.1420  147.3340 F   0  0  0  0  0  0  0  0  0  0  0  0
  186.3250  179.8680  148.1110 F   0  0  0  0  0  0  0  0  0  0  0  0
  186.2620  178.5760  147.6190 C   0  0  0  0  0  0  0  0  0  0  0  0
  2  1  1  0  0  0  0
  2  7  1  0  0  0  0
  3  8  1  0  0  0  0
  4  3  2  0  0  0  0
  4 11  1  0  0  0  0
  5 11  1  0  0  0  0
  5  9  1  0  0  0  0
  6  5  1  0  0  0  0
  8  1  2  0  0  0  0
  9 10  1  0  0  0  0
 10  7  2  0  0  0  0
 10 19  1  0  0  0  0
 11  2  2  0  0  0  0
 12  1  1  1  0  0  0
 12 14  1  0  0  0  0
 12 18  1  0  0  0  0
 14 15  1  0  0  0  0
 15 13  2  0  0  0  0
 16 13  1  0  0  0  0
 17 14  2  0  0  0  0
 18 16  2  0  0  0  0
 19 20  1  0  0  0  0
 20 25  1  0  0  0  0
 21 20  2  0  0  0  0
 23 25  1  0  0  0  0
 25 24  1  0  0  0  0
 25 22  1  0  0  0  0
M  END
>  <MODEL>
1

>  <REMARK>
 VINA RESULT:      -7.6      0.000      0.000
  Name = 
  4 active torsions:
  status: ('A' for Active; 'I' for Inactive)
    1  A    between atoms: C_1  and  C_5
    2  A    between atoms: C_6  and  C_15
    3  A    between atoms: C_6  and  C_23
    4  A    between atoms: C_15  and  C_21
                            x       y       z     vdW  Elec       q    Type
                         _______ _______ _______ _____ _____    ______ ____

>  <TORSDO>
F 4

$$$$
=
 OpenBabel11052417273D

 25 27  0  0  1  0  0  0  0  0999 V2000
  187.9580  176.2050  146.2960 C   0  0  0  0  0  0  0  0  0  0  0  0
  188.6800  176.2900  145.0890 C   0  0  0  0  0  0  0  0  0  0  0  0
  189.4370  174.5020  147.0440 C   0  0  0  0  0  3  0  0  0  0  0  0
  190.1420  174.5720  145.8860 N   0  0  0  0  0  0  0  0  0  0  0  0
  190.5090  175.5170  143.6740 N   0  0  0  0  0  0  0  0  0  0  0  0
  191.6650  174.6710  143.4250 C   0  0  0  0  0  1  0  0  0  0  0  0
  188.2940  177.1840  144.0320 N   0  0  0  0  0  0  0  0  0  0  0  0
  188.3610  175.3080  147.2380 N   0  0  0  0  0  0  0  0  0  0  0  0
  190.0830  176.4140  142.6810 N   0  0  0  0  0  2  0  0  0  0  0  0
  188.9460  177.2540  142.9100 C   0  0  0  0  0  0  0  0  0  0  0  0
  189.7850  175.4470  144.9090 C   0  0  0  0  0  0  0  0  0  0  0  0
  186.7770  177.0650  146.5770 C   0  0  1  0  0  3  0  0  0  0  0  0
  184.5670  178.7000  147.0460 C   0  0  0  0  0  3  0  0  0  0  0  0
  186.8700  178.2160  147.3910 C   0  0  0  0  0  0  0  0  0  0  0  0
  185.7720  178.9910  147.6020 N   0  0  0  0  0  0  0  0  0  0  0  0
  184.4260  177.5790  146.2320 C   0  0  0  0  0  3  0  0  0  0  0  0
  187.9570  178.5300  147.9440 O   0  0  0  0  0  0  0  0  0  0  0  0
  185.5350  176.7670  145.9980 C   0  0  0  0  0  3  0  0  0  0  0  0
  188.4820  178.1810  141.8400 C   0  0  0  0  0  2  0  0  0  0  0  0
  187.1590  177.7320  141.3000 C   0  0  0  0  0  0  0  0  0  0  0  0
  187.1330  176.9180  140.3900 O   0  0  0  0  0  0  0  0  0  0  0  0
  186.1320  179.2990  142.7270 F   0  0  0  0  0  0  0  0  0  0  0  0
  185.0090  178.6560  140.8850 F   0  0  0  0  0  0  0  0  0  0  0  0
  185.2630  177.2230  142.6020 F   0  0  0  0  0  0  0  0  0  0  0  0
  185.8700  178.2360  141.8830 C   0  0  0  0  0  0  0  0  0  0  0  0
  1  8  1  0  0  0  0
  2  1  2  0  0  0  0
  3  8  2  0  0  0  0
  4  3  1  0  0  0  0
  5 11  1  0  0  0  0
  6  5  1  0  0  0  0
  7  2  1  0  0  0  0
  9 10  1  0  0  0  0
  9  5  1  0  0  0  0
 10  7  2  0  0  0  0
 11  2  1  0  0  0  0
 11  4  2  0  0  0  0
 12  1  1  6  0  0  0
 12 14  1  0  0  0  0
 13 15  2  0  0  0  0
 14 15  1  0  0  0  0
 14 17  2  0  0  0  0
 16 13  1  0  0  0  0
 18 16  2  0  0  0  0
 18 12  1  0  0  0  0
 19 10  1  0  0  0  0
 20 19  1  0  0  0  0
 20 25  1  0  0  0  0
 21 20  2  0  0  0  0
 23 25  1  0  0  0  0
 25 24  1  0  0  0  0
 25 22  1  0  0  0  0
M  END
>  <MODEL>
2

>  <REMARK>
 VINA RESULT:      -7.3      2.949      5.167
  Name = 
  4 active torsions:
  status: ('A' for Active; 'I' for Inactive)
    1  A    between atoms: C_1  and  C_5
    2  A    between atoms: C_6  and  C_15
    3  A    between atoms: C_6  and  C_23
    4  A    between atoms: C_15  and  C_21
                            x       y       z     vdW  Elec       q    Type
                         _______ _______ _______ _____ _____    ______ ____

>  <TORSDO>
F 4

$$$$
=
 OpenBabel11052417273D

 25 27  0  0  1  0  0  0  0  0999 V2000
  187.4350  177.2160  142.1630 C   0  0  0  0  0  0  0  0  0  0  0  0
  186.1430  177.6790  142.4840 C   0  0  0  0  0  0  0  0  0  0  0  0
  186.8300  177.1680  139.8650 C   0  0  0  0  0  3  0  0  0  0  0  0
  185.5820  177.6140  140.1600 N   0  0  0  0  0  0  0  0  0  0  0  0
  183.9020  178.3220  141.7710 N   0  0  0  0  0  0  0  0  0  0  0  0
  182.9020  178.5430  140.7400 C   0  0  0  0  0  1  0  0  0  0  0  0
  185.7370  177.9210  143.8410 N   0  0  0  0  0  0  0  0  0  0  0  0
  187.7370  176.9730  140.8580 N   0  0  0  0  0  0  0  0  0  0  0  0
  183.5670  178.5440  143.1160 N   0  0  0  0  0  2  0  0  0  0  0  0
  184.5410  178.3320  144.1450 C   0  0  0  0  0  0  0  0  0  0  0  0
  185.2230  177.8710  141.4450 C   0  0  0  0  0  0  0  0  0  0  0  0
  188.4770  176.9900  143.2000 C   0  0  1  0  0  3  0  0  0  0  0  0
  190.4750  176.5820  145.1020 C   0  0  0  0  0  3  0  0  0  0  0  0
  188.8660  175.6910  143.5960 C   0  0  0  0  0  0  0  0  0  0  0  0
  189.8420  175.5260  144.5280 N   0  0  0  0  0  0  0  0  0  0  0  0
  190.1310  177.8830  144.7420 C   0  0  0  0  0  3  0  0  0  0  0  0
  188.3060  174.6730  143.1080 O   0  0  0  0  0  0  0  0  0  0  0  0
  189.1340  178.0810  143.7880 C   0  0  0  0  0  3  0  0  0  0  0  0
  184.1690  178.5400  145.5730 C   0  0  0  0  0  2  0  0  0  0  0  0
  185.0320  177.7000  146.4620 C   0  0  0  0  0  0  0  0  0  0  0  0
  184.8780  176.4890  146.4700 O   0  0  0  0  0  0  0  0  0  0  0  0
  185.8950  179.6820  147.3980 F   0  0  0  0  0  0  0  0  0  0  0  0
  186.0930  177.7810  148.5880 F   0  0  0  0  0  0  0  0  0  0  0  0
  187.3410  178.0830  146.7390 F   0  0  0  0  0  0  0  0  0  0  0  0
  186.1040  178.3180  147.3130 C   0  0  0  0  0  0  0  0  0  0  0  0
  1  2  1  0  0  0  0
  2  7  1  0  0  0  0
  3  4  2  0  0  0  0
  3  8  1  0  0  0  0
  4 11  1  0  0  0  0
  5  9  1  0  0  0  0
  6  5  1  0  0  0  0
  7 10  2  0  0  0  0
  8  1  2  0  0  0  0
  9 10  1  0  0  0  0
 10 19  1  0  0  0  0
 11  5  1  0  0  0  0
 11  2  2  0  0  0  0
 12  1  1  6  0  0  0
 12 14  1  0  0  0  0
 12 18  1  0  0  0  0
 14 15  1  0  0  0  0
 15 13  2  0  0  0  0
 16 13  1  0  0  0  0
 17 14  2  0  0  0  0
 18 16  2  0  0  0  0
 19 20  1  0  0  0  0
 20 21  2  0  0  0  0
 20 25  1  0  0  0  0
 24 25  1  0  0  0  0
 25 22  1  0  0  0  0
 25 23  1  0  0  0  0
M  END
>  <MODEL>
3

>  <REMARK>
 VINA RESULT:      -7.2      1.747      2.544
  Name = 
  4 active torsions:
  status: ('A' for Active; 'I' for Inactive)
    1  A    between atoms: C_1  and  C_5
    2  A    between atoms: C_6  and  C_15
    3  A    between atoms: C_6  and  C_23
    4  A    between atoms: C_15  and  C_21
                            x       y       z     vdW  Elec       q    Type
                         _______ _______ _______ _____ _____    ______ ____

>  <TORSDO>
F 4

$$$$
=
 OpenBabel11052417273D

 25 27  0  0  1  0  0  0  0  0999 V2000
  187.7900  176.1290  142.0250 C   0  0  0  0  0  0  0  0  0  0  0  0
  187.3610  176.8520  143.1550 C   0  0  0  0  0  0  0  0  0  0  0  0
  186.7000  177.7050  140.6200 C   0  0  0  0  0  3  0  0  0  0  0  0
  186.2790  178.4120  141.7000 N   0  0  0  0  0  0  0  0  0  0  0  0
  186.1380  178.7340  144.1080 N   0  0  0  0  0  0  0  0  0  0  0  0
  185.3410  179.9420  143.9720 C   0  0  0  0  0  1  0  0  0  0  0  0
  187.6540  176.4170  144.4930 N   0  0  0  0  0  0  0  0  0  0  0  0
  187.4420  176.5810  140.7880 N   0  0  0  0  0  0  0  0  0  0  0  0
  186.4610  178.2600  145.3880 N   0  0  0  0  0  2  0  0  0  0  0  0
  187.2460  177.0710  145.5400 C   0  0  0  0  0  0  0  0  0  0  0  0
  186.5930  178.0080  142.9580 C   0  0  0  0  0  0  0  0  0  0  0  0
  188.6130  174.8940  142.1370 C   0  0  1  0  0  3  0  0  0  0  0  0
  190.1340  172.5720  142.4050 C   0  0  0  0  0  3  0  0  0  0  0  0
  190.0060  174.9460  142.3690 C   0  0  0  0  0  0  0  0  0  0  0  0
  190.7190  173.7950  142.4930 N   0  0  0  0  0  0  0  0  0  0  0  0
  188.7620  172.4690  142.1820 C   0  0  0  0  0  3  0  0  0  0  0  0
  190.6070  176.0510  142.4480 O   0  0  0  0  0  0  0  0  0  0  0  0
  188.0070  173.6330  142.0520 C   0  0  0  0  0  3  0  0  0  0  0  0
  187.5590  176.5580  146.9030 C   0  0  0  0  0  2  0  0  0  0  0  0
  189.0240  176.2750  147.0290 C   0  0  0  0  0  0  0  0  0  0  0  0
  189.8150  177.2030  146.9730 O   0  0  0  0  0  0  0  0  0  0  0  0
  190.7530  174.9330  147.9000 F   0  0  0  0  0  0  0  0  0  0  0  0
  188.6440  174.1550  148.0350 F   0  0  0  0  0  0  0  0  0  0  0  0
  189.6830  174.2410  146.0400 F   0  0  0  0  0  0  0  0  0  0  0  0
  189.5300  174.8800  147.2570 C   0  0  0  0  0  0  0  0  0  0  0  0
  1  2  1  0  0  0  0
  2  7  1  0  0  0  0
  3  8  1  0  0  0  0
  3  4  2  0  0  0  0
  4 11  1  0  0  0  0
  5  9  1  0  0  0  0
  6  5  1  0  0  0  0
  7 10  2  0  0  0  0
  8  1  2  0  0  0  0
  9 10  1  0  0  0  0
 10 19  1  0  0  0  0
 11  2  2  0  0  0  0
 11  5  1  0  0  0  0
 12  1  1  1  0  0  0
 12 14  1  0  0  0  0
 13 15  2  0  0  0  0
 14 17  2  0  0  0  0
 14 15  1  0  0  0  0
 16 13  1  0  0  0  0
 18 12  1  0  0  0  0
 18 16  2  0  0  0  0
 19 20  1  0  0  0  0
 20 25  1  0  0  0  0
 21 20  2  0  0  0  0
 24 25  1  0  0  0  0
 25 22  1  0  0  0  0
 25 23  1  0  0  0  0
M  END
>  <MODEL>
4

>  <REMARK>
 VINA RESULT:      -7.2      2.645      3.992
  Name = 
  4 active torsions:
  status: ('A' for Active; 'I' for Inactive)
    1  A    between atoms: C_1  and  C_5
    2  A    between atoms: C_6  and  C_15
    3  A    between atoms: C_6  and  C_23
    4  A    between atoms: C_15  and  C_21
                            x       y       z     vdW  Elec       q    Type
                         _______ _______ _______ _____ _____    ______ ____

>  <TORSDO>
F 4

$$$$
=
 OpenBabel11052417273D

 25 27  0  0  1  0  0  0  0  0999 V2000
  185.1380  177.9260  143.6910 C   0  0  0  0  0  0  0  0  0  0  0  0
  186.1110  177.5300  142.7510 C   0  0  0  0  0  0  0  0  0  0  0  0
  183.5840  178.2520  141.9220 C   0  0  0  0  0  3  0  0  0  0  0  0
  184.5110  177.8730  141.0060 N   0  0  0  0  0  0  0  0  0  0  0  0
  186.7580  177.1330  140.4340 N   0  0  0  0  0  0  0  0  0  0  0  0
  186.4610  177.0930  139.0120 C   0  0  0  0  0  1  0  0  0  0  0  0
  187.4500  177.1830  143.1420 N   0  0  0  0  0  0  0  0  0  0  0  0
  183.9010  178.2770  143.2430 N   0  0  0  0  0  0  0  0  0  0  0  0
  188.0460  176.8010  140.8800 N   0  0  0  0  0  2  0  0  0  0  0  0
  188.3560  176.8340  142.2780 C   0  0  0  0  0  0  0  0  0  0  0  0
  185.7630  177.5150  141.3940 C   0  0  0  0  0  0  0  0  0  0  0  0
  185.4160  177.9670  145.1520 C   0  0  1  0  0  3  0  0  0  0  0  0
  185.8770  178.0310  147.9010 C   0  0  0  0  0  3  0  0  0  0  0  0
  185.6160  179.1850  145.8390 C   0  0  0  0  0  0  0  0  0  0  0  0
  185.8410  179.1810  147.1800 N   0  0  0  0  0  0  0  0  0  0  0  0
  185.6810  176.8050  147.2700 C   0  0  0  0  0  3  0  0  0  0  0  0
  185.6060  180.2830  145.2210 O   0  0  0  0  0  0  0  0  0  0  0  0
  185.4470  176.7790  145.8960 C   0  0  0  0  0  3  0  0  0  0  0  0
  189.7350  176.5110  142.7400 C   0  0  0  0  0  2  0  0  0  0  0  0
  189.7460  176.2790  144.2200 C   0  0  0  0  0  0  0  0  0  0  0  0
  189.5260  175.1570  144.6480 O   0  0  0  0  0  0  0  0  0  0  0  0
  188.9350  177.6780  145.9330 F   0  0  0  0  0  0  0  0  0  0  0  0
  191.0920  177.0380  146.0270 F   0  0  0  0  0  0  0  0  0  0  0  0
  190.4280  178.5210  144.4690 F   0  0  0  0  0  0  0  0  0  0  0  0
  190.0580  177.3920  145.1780 C   0  0  0  0  0  0  0  0  0  0  0  0
  2  7  1  0  0  0  0
  2  1  2  0  0  0  0
  3  8  2  0  0  0  0
  4 11  2  0  0  0  0
  4  3  1  0  0  0  0
  5  9  1  0  0  0  0
  5 11  1  0  0  0  0
  6  5  1  0  0  0  0
  8  1  1  0  0  0  0
  9 10  1  0  0  0  0
 10 19  1  0  0  0  0
 10  7  2  0  0  0  0
 11  2  1  0  0  0  0
 12  1  1  1  0  0  0
 12 14  1  0  0  0  0
 12 18  1  0  0  0  0
 14 15  1  0  0  0  0
 15 13  2  0  0  0  0
 16 13  1  0  0  0  0
 17 14  2  0  0  0  0
 18 16  2  0  0  0  0
 19 20  1  0  0  0  0
 20 21  2  0  0  0  0
 20 25  1  0  0  0  0
 24 25  1  0  0  0  0
 25 22  1  0  0  0  0
 25 23  1  0  0  0  0
M  END
>  <MODEL>
5

>  <REMARK>
 VINA RESULT:      -6.8      2.320      4.539
  Name = 
  4 active torsions:
  status: ('A' for Active; 'I' for Inactive)
    1  A    between atoms: C_1  and  C_5
    2  A    between atoms: C_6  and  C_15
    3  A    between atoms: C_6  and  C_23
    4  A    between atoms: C_15  and  C_21
                            x       y       z     vdW  Elec       q    Type
                         _______ _______ _______ _____ _____    ______ ____

>  <TORSDO>
F 4

$$$$
=
 OpenBabel11052417273D

 25 27  0  0  1  0  0  0  0  0999 V2000
  189.1850  177.5360  143.2570 C   0  0  0  0  0  0  0  0  0  0  0  0
  189.2640  177.1050  144.5960 C   0  0  0  0  0  0  0  0  0  0  0  0
  191.5580  177.5510  143.1370 C   0  0  0  0  0  3  0  0  0  0  0  0
  191.6500  177.1370  144.4260 N   0  0  0  0  0  0  0  0  0  0  0  0
  190.6130  176.4940  146.5320 N   0  0  0  0  0  0  0  0  0  0  0  0
  191.8960  176.2730  147.1800 C   0  0  0  0  0  1  0  0  0  0  0  0
  188.0900  176.8980  145.3990 N   0  0  0  0  0  0  0  0  0  0  0  0
  190.3410  177.7470  142.5680 N   0  0  0  0  0  0  0  0  0  0  0  0
  189.4300  176.3050  147.2630 N   0  0  0  0  0  2  0  0  0  0  0  0
  188.1570  176.5180  146.6400 C   0  0  0  0  0  0  0  0  0  0  0  0
  190.5310  176.9120  145.1640 C   0  0  0  0  0  0  0  0  0  0  0  0
  187.8840  177.7600  142.5700 C   0  0  1  0  0  3  0  0  0  0  0  0
  185.4170  178.1570  141.3320 C   0  0  0  0  0  3  0  0  0  0  0  0
  187.4560  176.9450  141.4990 C   0  0  0  0  0  0  0  0  0  0  0  0
  186.2480  177.1660  140.9150 N   0  0  0  0  0  0  0  0  0  0  0  0
  185.7920  178.9850  142.3870 C   0  0  0  0  0  3  0  0  0  0  0  0
  188.1890  176.0180  141.0600 O   0  0  0  0  0  0  0  0  0  0  0  0
  187.0250  178.7800  143.0050 C   0  0  0  0  0  3  0  0  0  0  0  0
  186.9060  176.3450  147.4320 C   0  0  0  0  0  2  0  0  0  0  0  0
  185.8080  177.1830  146.8550 C   0  0  0  0  0  0  0  0  0  0  0  0
  184.9710  176.6570  146.1380 O   0  0  0  0  0  0  0  0  0  0  0  0
  186.6180  178.9750  148.1520 F   0  0  0  0  0  0  0  0  0  0  0  0
  185.9420  179.4160  146.0500 F   0  0  0  0  0  0  0  0  0  0  0  0
  184.4240  178.9230  147.6380 F   0  0  0  0  0  0  0  0  0  0  0  0
  185.6980  178.6470  147.1740 C   0  0  0  0  0  0  0  0  0  0  0  0
  1  2  1  0  0  0  0
  2 11  2  0  0  0  0
  2  7  1  0  0  0  0
  3  4  2  0  0  0  0
  4 11  1  0  0  0  0
  5  6  1  0  0  0  0
  5  9  1  0  0  0  0
  7 10  2  0  0  0  0
  8  3  1  0  0  0  0
  8  1  2  0  0  0  0
 10  9  1  0  0  0  0
 10 19  1  0  0  0  0
 11  5  1  0  0  0  0
 12 18  1  0  0  0  0
 12  1  1  1  0  0  0
 13 16  1  0  0  0  0
 14 12  1  0  0  0  0
 15 13  2  0  0  0  0
 15 14  1  0  0  0  0
 16 18  2  0  0  0  0
 17 14  2  0  0  0  0
 20 25  1  0  0  0  0
 20 19  1  0  0  0  0
 21 20  2  0  0  0  0
 23 25  1  0  0  0  0
 25 24  1  0  0  0  0
 25 22  1  0  0  0  0
M  END
>  <MODEL>
6

>  <REMARK>
 VINA RESULT:      -6.7      1.858      4.757
  Name = 
  4 active torsions:
  status: ('A' for Active; 'I' for Inactive)
    1  A    between atoms: C_1  and  C_5
    2  A    between atoms: C_6  and  C_15
    3  A    between atoms: C_6  and  C_23
    4  A    between atoms: C_15  and  C_21
                            x       y       z     vdW  Elec       q    Type
                         _______ _______ _______ _____ _____    ______ ____

>  <TORSDO>
F 4

$$$$
=
 OpenBabel11052417273D

 25 27  0  0  1  0  0  0  0  0999 V2000
  187.3510  177.1910  145.9490 C   0  0  0  0  0  0  0  0  0  0  0  0
  186.8450  177.0790  144.6380 C   0  0  0  0  0  0  0  0  0  0  0  0
  185.4940  178.5550  146.5330 C   0  0  0  0  0  3  0  0  0  0  0  0
  184.9950  178.4560  145.2740 N   0  0  0  0  0  0  0  0  0  0  0  0
  185.1410  177.6380  142.9870 N   0  0  0  0  0  0  0  0  0  0  0  0
  183.9020  178.2910  142.5980 C   0  0  0  0  0  1  0  0  0  0  0  0
  187.5400  176.3490  143.6140 N   0  0  0  0  0  0  0  0  0  0  0  0
  186.6560  177.9310  146.8570 N   0  0  0  0  0  0  0  0  0  0  0  0
  185.8650  176.9070  142.0330 N   0  0  0  0  0  2  0  0  0  0  0  0
  187.0870  176.2560  142.3990 C   0  0  0  0  0  0  0  0  0  0  0  0
  185.6460  177.7340  144.3250 C   0  0  0  0  0  0  0  0  0  0  0  0
  188.6120  176.5250  146.3730 C   0  0  1  0  0  3  0  0  0  0  0  0
  190.9680  175.3000  147.2240 C   0  0  0  0  0  3  0  0  0  0  0  0
  189.8800  177.0400  146.0230 C   0  0  0  0  0  0  0  0  0  0  0  0
  191.0100  176.4170  146.4530 N   0  0  0  0  0  0  0  0  0  0  0  0
  189.7410  174.7560  147.5990 C   0  0  0  0  0  3  0  0  0  0  0  0
  189.9840  178.0660  145.2990 O   0  0  0  0  0  0  0  0  0  0  0  0
  188.5660  175.3750  147.1730 C   0  0  0  0  0  3  0  0  0  0  0  0
  187.8660  175.5080  141.3730 C   0  0  0  0  0  2  0  0  0  0  0  0
  188.4170  174.2440  141.9580 C   0  0  0  0  0  0  0  0  0  0  0  0
  187.7060  173.2530  142.0080 O   0  0  0  0  0  0  0  0  0  0  0  0
  190.5320  175.2790  142.0120 F   0  0  0  0  0  0  0  0  0  0  0  0
  189.8760  174.1230  143.8300 F   0  0  0  0  0  0  0  0  0  0  0  0
  190.4350  173.0280  141.9440 F   0  0  0  0  0  0  0  0  0  0  0  0
  189.8340  174.1680  142.4480 C   0  0  0  0  0  0  0  0  0  0  0  0
  1  8  1  0  0  0  0
  2  1  2  0  0  0  0
  3  8  2  0  0  0  0
  4  3  1  0  0  0  0
  5 11  1  0  0  0  0
  6  5  1  0  0  0  0
  7  2  1  0  0  0  0
  9 10  1  0  0  0  0
  9  5  1  0  0  0  0
 10  7  2  0  0  0  0
 11  2  1  0  0  0  0
 11  4  2  0  0  0  0
 12  1  1  1  0  0  0
 12 18  1  0  0  0  0
 13 16  1  0  0  0  0
 14 12  1  0  0  0  0
 14 15  1  0  0  0  0
 15 13  2  0  0  0  0
 17 14  2  0  0  0  0
 18 16  2  0  0  0  0
 19 20  1  0  0  0  0
 19 10  1  0  0  0  0
 20 21  2  0  0  0  0
 20 25  1  0  0  0  0
 22 25  1  0  0  0  0
 24 25  1  0  0  0  0
 25 23  1  0  0  0  0
M  END
>  <MODEL>
7

>  <REMARK>
 VINA RESULT:      -6.7      3.021      4.757
  Name = 
  4 active torsions:
  status: ('A' for Active; 'I' for Inactive)
    1  A    between atoms: C_1  and  C_5
    2  A    between atoms: C_6  and  C_15
    3  A    between atoms: C_6  and  C_23
    4  A    between atoms: C_15  and  C_21
                            x       y       z     vdW  Elec       q    Type
                         _______ _______ _______ _____ _____    ______ ____

>  <TORSDO>
F 4

$$$$
=
 OpenBabel11052417273D

 25 27  0  0  1  0  0  0  0  0999 V2000
  188.1450  175.5290  142.2020 C   0  0  0  0  0  0  0  0  0  0  0  0
  188.8600  174.9140  143.2490 C   0  0  0  0  0  0  0  0  0  0  0  0
  189.1310  174.0140  140.6590 C   0  0  0  0  0  3  0  0  0  0  0  0
  189.8270  173.4130  141.6580 N   0  0  0  0  0  0  0  0  0  0  0  0
  190.4520  173.2280  144.0020 N   0  0  0  0  0  0  0  0  0  0  0  0
  191.3470  172.1100  143.7500 C   0  0  0  0  0  1  0  0  0  0  0  0
  188.7720  175.3790  144.6060 N   0  0  0  0  0  0  0  0  0  0  0  0
  188.3060  175.0570  140.9350 N   0  0  0  0  0  0  0  0  0  0  0  0
  190.3200  173.7260  145.3070 N   0  0  0  0  0  2  0  0  0  0  0  0
  189.4430  174.8270  145.5740 C   0  0  0  0  0  0  0  0  0  0  0  0
  189.7080  173.8410  142.9420 C   0  0  0  0  0  0  0  0  0  0  0  0
  187.2180  176.6690  142.4360 C   0  0  1  0  0  3  0  0  0  0  0  0
  185.4480  178.7880  142.8250 C   0  0  0  0  0  3  0  0  0  0  0  0
  187.5820  178.0000  142.1330 C   0  0  0  0  0  0  0  0  0  0  0  0
  186.6960  179.0110  142.3360 N   0  0  0  0  0  0  0  0  0  0  0  0
  185.0410  177.4930  143.1350 C   0  0  0  0  0  3  0  0  0  0  0  0
  188.7290  178.2700  141.6890 O   0  0  0  0  0  0  0  0  0  0  0  0
  185.9280  176.4360  142.9360 C   0  0  0  0  0  3  0  0  0  0  0  0
  189.3320  175.3700  146.9570 C   0  0  0  0  0  2  0  0  0  0  0  0
  189.0840  176.8460  146.9170 C   0  0  0  0  0  0  0  0  0  0  0  0
  190.0360  177.6100  146.9050 O   0  0  0  0  0  0  0  0  0  0  0  0
  187.5220  178.3410  147.8530 F   0  0  0  0  0  0  0  0  0  0  0  0
  187.4460  177.9910  145.6300 F   0  0  0  0  0  0  0  0  0  0  0  0
  186.7790  176.3720  147.0450 F   0  0  0  0  0  0  0  0  0  0  0  0
  187.6880  177.3970  146.8560 C   0  0  0  0  0  0  0  0  0  0  0  0
  1  2  1  0  0  0  0
  2  7  1  0  0  0  0
  3  8  1  0  0  0  0
  3  4  2  0  0  0  0
  4 11  1  0  0  0  0
  5  9  1  0  0  0  0
  6  5  1  0  0  0  0
  7 10  2  0  0  0  0
  8  1  2  0  0  0  0
  9 10  1  0  0  0  0
 10 19  1  0  0  0  0
 11  2  2  0  0  0  0
 11  5  1  0  0  0  0
 12  1  1  6  0  0  0
 12 18  1  0  0  0  0
 13 16  1  0  0  0  0
 14 15  1  0  0  0  0
 14 12  1  0  0  0  0
 15 13  2  0  0  0  0
 17 14  2  0  0  0  0
 18 16  2  0  0  0  0
 20 19  1  0  0  0  0
 21 20  2  0  0  0  0
 23 25  1  0  0  0  0
 25 20  1  0  0  0  0
 25 24  1  0  0  0  0
 25 22  1  0  0  0  0
M  END
>  <MODEL>
8

>  <REMARK>
 VINA RESULT:      -6.6      2.106      4.753
  Name = 
  4 active torsions:
  status: ('A' for Active; 'I' for Inactive)
    1  A    between atoms: C_1  and  C_5
    2  A    between atoms: C_6  and  C_15
    3  A    between atoms: C_6  and  C_23
    4  A    between atoms: C_15  and  C_21
                            x       y       z     vdW  Elec       q    Type
                         _______ _______ _______ _____ _____    ______ ____

>  <TORSDO>
F 4

$$$$
=
 OpenBabel11052417273D

 25 27  0  0  1  0  0  0  0  0999 V2000
  188.2050  175.5270  142.2340 C   0  0  0  0  0  0  0  0  0  0  0  0
  188.9160  174.8750  143.2610 C   0  0  0  0  0  0  0  0  0  0  0  0
  189.1860  174.0590  140.6430 C   0  0  0  0  0  3  0  0  0  0  0  0
  189.8770  173.4220  141.6220 N   0  0  0  0  0  0  0  0  0  0  0  0
  190.4990  173.1580  143.9600 N   0  0  0  0  0  0  0  0  0  0  0  0
  191.3880  172.0440  143.6720 C   0  0  0  0  0  1  0  0  0  0  0  0
  188.8290  175.2960  144.6320 N   0  0  0  0  0  0  0  0  0  0  0  0
  188.3650  175.0960  140.9520 N   0  0  0  0  0  0  0  0  0  0  0  0
  190.3680  173.6130  145.2810 N   0  0  0  0  0  2  0  0  0  0  0  0
  189.4960  174.7090  145.5820 C   0  0  0  0  0  0  0  0  0  0  0  0
  189.7590  173.8090  142.9190 C   0  0  0  0  0  0  0  0  0  0  0  0
  187.2830  176.6630  142.5040 C   0  0  1  0  0  3  0  0  0  0  0  0
  185.5230  178.7780  142.9610 C   0  0  0  0  0  3  0  0  0  0  0  0
  187.6560  178.0020  142.2510 C   0  0  0  0  0  0  0  0  0  0  0  0
  186.7740  179.0110  142.4860 N   0  0  0  0  0  0  0  0  0  0  0  0
  185.1070  177.4740  143.2220 C   0  0  0  0  0  3  0  0  0  0  0  0
  188.8070  178.2810  141.8220 O   0  0  0  0  0  0  0  0  0  0  0  0
  185.9900  176.4210  142.9890 C   0  0  0  0  0  3  0  0  0  0  0  0
  189.3860  175.2070  146.9820 C   0  0  0  0  0  2  0  0  0  0  0  0
  190.2390  176.4240  147.1690 C   0  0  0  0  0  0  0  0  0  0  0  0
  189.7090  177.5240  147.1920 O   0  0  0  0  0  0  0  0  0  0  0  0
  192.1320  177.2170  148.3230 F   0  0  0  0  0  0  0  0  0  0  0  0
  192.0710  175.0350  147.7720 F   0  0  0  0  0  0  0  0  0  0  0  0
  192.3670  176.5900  146.1710 F   0  0  0  0  0  0  0  0  0  0  0  0
  191.7230  176.3100  147.3630 C   0  0  0  0  0  0  0  0  0  0  0  0
  1  2  1  0  0  0  0
  2  7  1  0  0  0  0
  3  8  1  0  0  0  0
  3  4  2  0  0  0  0
  4 11  1  0  0  0  0
  5  9  1  0  0  0  0
  6  5  1  0  0  0  0
  7 10  2  0  0  0  0
  8  1  2  0  0  0  0
  9 10  1  0  0  0  0
 10 19  1  0  0  0  0
 11  2  2  0  0  0  0
 11  5  1  0  0  0  0
 12  1  1  6  0  0  0
 12 18  1  0  0  0  0
 13 16  1  0  0  0  0
 14 15  1  0  0  0  0
 14 12  1  0  0  0  0
 15 13  2  0  0  0  0
 17 14  2  0  0  0  0
 18 16  2  0  0  0  0
 19 20  1  0  0  0  0
 20 21  2  0  0  0  0
 20 25  1  0  0  0  0
 24 25  1  0  0  0  0
 25 23  1  0  0  0  0
 25 22  1  0  0  0  0
M  END
>  <MODEL>
9

>  <REMARK>
 VINA RESULT:      -6.5      2.999      5.309
  Name = 
  4 active torsions:
  status: ('A' for Active; 'I' for Inactive)
    1  A    between atoms: C_1  and  C_5
    2  A    between atoms: C_6  and  C_15
    3  A    between atoms: C_6  and  C_23
    4  A    between atoms: C_15  and  C_21
                            x       y       z     vdW  Elec       q    Type
                         _______ _______ _______ _____ _____    ______ ____

>  <TORSDO>
F 4

$$$$
